0:0
     RDKit          3D

 57 60  0  0  0  0  0  0  0  0999 V2000
   59.6680   29.7740   51.5030 O   0  0  0  0  0  0  0  0  0  0  0  0
   60.7580   29.1670   51.3330 C   0  0  0  0  0  0  0  0  0  0  0  0
   61.7280   29.0670   52.4720 C   0  0  0  0  0  0  0  0  0  0  0  0
   63.0200   29.5200   52.0750 O   0  0  0  0  0  0  0  0  0  0  0  0
   63.2790   30.8300   51.6580 C   0  0  0  0  0  0  0  0  0  0  0  0
   63.0000   31.9260   52.4640 C   0  0  0  0  0  0  0  0  0  0  0  0
   63.4720   33.3070   51.6280 S   0  0  0  0  0  0  0  0  0  0  0  0
   63.9920   32.4490   50.2780 C   0  0  0  0  0  0  0  0  0  0  0  0
   64.6160   33.0570   49.0630 C   0  0  0  0  0  0  0  0  0  0  0  0
   63.8970   32.6430   47.8570 N   0  0  0  0  0  0  0  0  0  0  0  0
   62.5130   32.9440   47.5890 C   0  0  0  0  0  0  0  0  0  0  0  0
   62.1880   33.7350   46.4730 C   0  0  0  0  0  0  0  0  0  0  0  0
   60.8550   34.0480   46.1880 C   0  0  0  0  0  0  0  0  0  0  0  0
   59.8320   33.5750   47.0130 C   0  0  0  0  0  0  0  0  0  0  0  0
   58.1590   33.9690   46.6550 Cl  0  0  0  0  0  0  0  0  0  0  0  0
   60.1420   32.7870   48.1260 C   0  0  0  0  0  0  0  0  0  0  0  0
   61.4740   32.4730   48.4160 C   0  0  0  0  0  0  0  0  0  0  0  0
   63.8320   31.1190   50.4470 N   0  0  0  0  0  0  0  0  0  0  0  0
   61.1030   28.6210   50.0510 N   0  0  0  0  0  0  0  0  0  0  0  0
   60.2180   28.6190   48.9180 C   0  0  0  0  0  0  0  0  0  0  0  0
   59.4990   29.7710   48.5500 C   0  0  0  0  0  0  0  0  0  0  0  0
   58.6380   29.7420   47.4480 C   0  0  0  0  0  0  0  0  0  0  0  0
   58.4770   28.5610   46.7100 C   0  0  0  0  0  0  0  0  0  0  0  0
   57.4270   28.5190   45.2960 S   0  0  0  0  0  0  0  0  0  0  0  0
   58.1740   27.8800   44.1580 O   0  0  0  0  0  0  0  0  0  0  0  0
   56.1990   27.6990   45.5850 O   0  0  0  0  0  0  0  0  0  0  0  0
   56.9680   30.1490   44.8720 N   0  0  0  0  0  0  0  0  0  0  0  0
   56.0100   30.1600   43.7440 C   0  0  0  0  0  0  0  0  0  0  0  0
   56.6750   30.5790   42.4210 C   0  0  0  0  0  0  0  0  0  0  0  0
   57.2770   31.8640   42.4760 O   0  0  0  0  0  0  0  0  0  0  0  0
   57.8250   32.1860   43.7500 C   0  0  0  0  0  0  0  0  0  0  0  0
   58.1730   30.9600   44.6100 C   0  0  0  0  0  0  0  0  0  0  0  0
   59.1760   27.4080   47.0870 C   0  0  0  0  0  0  0  0  0  0  0  0
   60.0330   27.4350   48.1910 C   0  0  0  0  0  0  0  0  0  0  0  0
   61.3692   29.6863   53.3073 H   0  0  0  0  0  0  0  0  0  0  0  0
   61.8022   28.0141   52.7818 H   0  0  0  0  0  0  0  0  0  0  0  0
   62.5513   31.8963   53.4679 H   0  0  0  0  0  0  0  0  0  0  0  0
   64.5804   34.1532   49.1476 H   0  0  0  0  0  0  0  0  0  0  0  0
   65.6594   32.7165   48.9902 H   0  0  0  0  0  0  0  0  0  0  0  0
   64.4330   32.0910   47.1490 H   0  0  0  0  0  0  0  0  0  0  0  0
   62.9885   34.1107   45.8188 H   0  0  0  0  0  0  0  0  0  0  0  0
   60.6118   34.6679   45.3124 H   0  0  0  0  0  0  0  0  0  0  0  0
   59.3364   32.4132   48.7750 H   0  0  0  0  0  0  0  0  0  0  0  0
   61.7115   31.8550   49.2945 H   0  0  0  0  0  0  0  0  0  0  0  0
   62.0930   28.3220   49.8990 H   0  0  0  0  0  0  0  0  0  0  0  0
   59.6144   30.6979   49.1310 H   0  0  0  0  0  0  0  0  0  0  0  0
   58.0856   30.6485   47.1596 H   0  0  0  0  0  0  0  0  0  0  0  0
   55.5907   29.1500   43.6255 H   0  0  0  0  0  0  0  0  0  0  0  0
   55.2247   30.8948   43.9749 H   0  0  0  0  0  0  0  0  0  0  0  0
   57.4511   29.8405   42.1713 H   0  0  0  0  0  0  0  0  0  0  0  0
   55.8833   30.6230   41.6586 H   0  0  0  0  0  0  0  0  0  0  0  0
   58.7436   32.7705   43.5935 H   0  0  0  0  0  0  0  0  0  0  0  0
   57.0526   32.7480   44.2954 H   0  0  0  0  0  0  0  0  0  0  0  0
   58.9142   30.3447   44.0789 H   0  0  0  0  0  0  0  0  0  0  0  0
   58.5828   31.3059   45.5704 H   0  0  0  0  0  0  0  0  0  0  0  0
   59.0504   26.4782   46.5128 H   0  0  0  0  0  0  0  0  0  0  0  0
   60.5659   26.5207   48.4913 H   0  0  0  0  0  0  0  0  0  0  0  0
  1  2  2  0
  2  3  1  0
  3  4  1  0
  4  5  1  0
  5  6  2  0
  6  7  1  0
  7  8  1  0
  8  9  1  0
  9 10  1  0
 10 11  1  0
 11 12  2  0
 12 13  1  0
 13 14  2  0
 14 15  1  0
 14 16  1  0
 16 17  2  0
  8 18  2  0
  2 19  1  0
 19 20  1  0
 20 21  2  0
 21 22  1  0
 22 23  2  0
 23 24  1  0
 24 25  2  0
 24 26  2  0
 24 27  1  0
 27 28  1  0
 28 29  1  0
 29 30  1  0
 30 31  1  0
 31 32  1  0
 23 33  1  0
 33 34  2  0
 18  5  1  0
 34 20  1  0
 17 11  1  0
 32 27  1  0
  3 35  1  0
  3 36  1  0
  6 37  1  0
  9 38  1  0
  9 39  1  0
 10 40  1  0
 12 41  1  0
 13 42  1  0
 16 43  1  0
 17 44  1  0
 19 45  1  0
 21 46  1  0
 22 47  1  0
 28 48  1  0
 28 49  1  0
 29 50  1  0
 29 51  1  0
 31 52  1  0
 31 53  1  0
 32 54  1  0
 32 55  1  0
 33 56  1  0
 34 57  1  0
M  END
>  <UniqueID>  (1) 
1

>  <SMILES>  (1) 
O=C(COc1csc(CNc2ccc(Cl)cc2)n1)Nc1ccc(S(=O)(=O)N2CCOCC2)cc1

>  <Energy>  (1) 
100.57868897935909

>  <Genealogy>  (1) 
O=C(COc1csc(CNc2ccc(Cl)cc2)n1)Nc1ccc(S(=O)(=O)N2CCOCC2)cc1 (3D coordinates assigned)
O=C(COc1csc(CNc2ccc(Cl)cc2)n1)Nc1ccc(S(=O)(=O)N2CCOCC2)cc1 (nonaromatic ring conformer: 100.57868897935909 kcal/mol)

>  <smiles>  (1) 
O=C(COc1csc(CNc2ccc(Cl)cc2)n1)Nc1ccc(S(=O)(=O)N2CCOCC2)cc1

>  <score_type>  (1) 
oracle

>  <origin>  (1) 
adg

>  <m_score__min__energy>  (1) 
-10.119999999999999

>  <m_primary>  (1) 
energy

$$$$
1:0
     RDKit          3D

 38 39  0  0  0  0  0  0  0  0999 V2000
   55.1440   29.3590   44.8320 N   0  0  0  0  0  0  0  0  0  0  0  0
   56.5930   29.7290   43.9670 S   0  0  0  0  0  0  0  0  0  0  0  0
   57.3250   28.4580   43.6440 O   0  0  0  0  0  0  0  0  0  0  0  0
   56.2380   30.4240   42.6820 O   0  0  0  0  0  0  0  0  0  0  0  0
   57.6210   30.7620   44.9570 C   0  0  0  0  0  0  0  0  0  0  0  0
   57.6490   32.1410   44.7210 C   0  0  0  0  0  0  0  0  0  0  0  0
   58.4680   32.9680   45.4930 C   0  0  0  0  0  0  0  0  0  0  0  0
   59.2650   32.4230   46.5020 C   0  0  0  0  0  0  0  0  0  0  0  0
   59.2510   31.0390   46.7520 C   0  0  0  0  0  0  0  0  0  0  0  0
   60.0990   30.4570   47.8180 C   0  0  0  0  0  0  0  0  0  0  0  0
   60.0610   30.9280   48.9870 O   0  0  0  0  0  0  0  0  0  0  0  0
   60.9700   29.3620   47.5220 N   0  0  0  0  0  0  0  0  0  0  0  0
   60.4960   28.0710   47.0460 C   0  0  0  0  0  0  0  0  0  0  0  0
   59.6990   27.4080   48.1270 C   0  0  0  0  0  0  0  0  0  0  0  0
   60.1500   27.3860   49.3030 O   0  0  0  0  0  0  0  0  0  0  0  0
   58.4140   26.8320   47.8680 N   0  0  0  0  0  0  0  0  0  0  0  0
   57.5720   27.1800   46.7290 C   0  0  0  0  0  0  0  0  0  0  0  0
   57.1390   25.9230   46.0280 C   0  0  0  0  0  0  0  0  0  0  0  0
   58.0840   24.9340   45.7120 C   0  0  0  0  0  0  0  0  0  0  0  0
   57.6840   23.7470   45.0920 C   0  0  0  0  0  0  0  0  0  0  0  0
   56.3360   23.5330   44.7900 C   0  0  0  0  0  0  0  0  0  0  0  0
   55.3850   24.5030   45.1150 C   0  0  0  0  0  0  0  0  0  0  0  0
   55.7780   25.6940   45.7380 C   0  0  0  0  0  0  0  0  0  0  0  0
   54.8140   26.6420   46.0670 O   0  0  0  0  0  0  0  0  0  0  0  0
   58.4250   30.2130   45.9660 C   0  0  0  0  0  0  0  0  0  0  0  0
   55.4040   28.6880   45.5880 H   0  0  0  0  0  0  0  0  0  0  0  0
   57.0247   32.5746   43.9258 H   0  0  0  0  0  0  0  0  0  0  0  0
   58.4853   34.0518   45.3057 H   0  0  0  0  0  0  0  0  0  0  0  0
   59.9081   33.0806   47.1053 H   0  0  0  0  0  0  0  0  0  0  0  0
   59.8623   28.2164   46.1587 H   0  0  0  0  0  0  0  0  0  0  0  0
   61.3552   27.4378   46.7801 H   0  0  0  0  0  0  0  0  0  0  0  0
   56.6857   27.7280   47.0813 H   0  0  0  0  0  0  0  0  0  0  0  0
   58.1395   27.8136   46.0316 H   0  0  0  0  0  0  0  0  0  0  0  0
   59.1451   25.0942   45.9537 H   0  0  0  0  0  0  0  0  0  0  0  0
   58.4313   22.9798   44.8412 H   0  0  0  0  0  0  0  0  0  0  0  0
   56.0242   22.6007   44.2964 H   0  0  0  0  0  0  0  0  0  0  0  0
   54.3241   24.3308   44.8809 H   0  0  0  0  0  0  0  0  0  0  0  0
   58.4103   29.1278   46.1450 H   0  0  0  0  0  0  0  0  0  0  0  0
  1  2  1  0
  2  3  2  0
  2  4  2  0
  2  5  1  0
  5  6  2  0
  6  7  1  0
  7  8  2  0
  8  9  1  0
  9 10  1  0
 10 11  2  0
 10 12  1  0
 12 13  1  0
 13 14  1  0
 14 15  2  0
 14 16  1  0
 16 17  1  0
 17 18  1  0
 18 19  2  0
 19 20  1  0
 20 21  2  0
 21 22  1  0
 22 23  2  0
 23 24  1  0
  9 25  2  0
 25  5  1  0
 23 18  1  0
  1 26  1  0
  6 27  1  0
  7 28  1  0
  8 29  1  0
 13 30  1  0
 13 31  1  0
 17 32  1  0
 17 33  1  0
 19 34  1  0
 20 35  1  0
 21 36  1  0
 22 37  1  0
 25 38  1  0
M  CHG  4   1  -1  12  -1  16  -1  24  -1
M  END
>  <UniqueID>  (2) 
2

>  <SMILES>  (2) 
[NH-]S(=O)(=O)c1cccc(C(=O)[N-]CC(=O)[N-]Cc2ccccc2[O-])c1

>  <Energy>  (2) 
33.26285229594201

>  <Genealogy>  (2) 
[NH-]S(=O)(=O)c1cccc(C(=O)[N-]CC(=O)[N-]Cc2ccccc2[O-])c1 (protonated)
[NH-]S(=O)(=O)c1cccc(C(=O)[N-]CC(=O)[N-]Cc2ccccc2[O-])c1 (3D coordinates assigned)
[NH-]S(=O)(=O)c1cccc(C(=O)[N-]CC(=O)[N-]Cc2ccccc2[O-])c1 (optimized conformer: 33.26285229594201 kcal/mol)

>  <smiles>  (2) 
NS(=O)(=O)c1cccc(C(=O)NCC(=O)NCc2ccccc2O)c1

>  <score_type>  (2) 
oracle

>  <origin>  (2) 
adg

>  <m_score__min__energy>  (2) 
-15.76

>  <m_primary>  (2) 
energy

$$$$
2:0
     RDKit          3D

 52 55  0  0  0  0  0  0  0  0999 V2000
   62.3349   30.1417   47.2394 H   0  0  0  0  0  0  0  0  0  0  0  0
   61.3620   30.3660   47.7010 C   0  0  0  0  0  0  0  0  0  0  0  0
   61.2460   31.0160   48.8860 N   0  0  0  0  0  0  0  0  0  0  0  0
   59.9520   31.1770   49.2430 C   0  0  0  0  0  0  0  0  0  0  0  0
   59.5630   31.7680   50.3330 N   0  0  0  0  0  0  0  0  0  0  0  0
   59.4150   33.1850   50.5020 C   0  0  0  0  0  0  0  0  0  0  0  0
   58.9960   33.6280   51.6040 O   0  0  0  0  0  0  0  0  0  0  0  0
   59.8440   34.0870   49.4740 N   0  0  0  0  0  0  0  0  0  0  0  0
   60.9790   33.9290   48.6130 C   0  0  0  0  0  0  0  0  0  0  0  0
   62.2810   33.8260   49.1360 C   0  0  0  0  0  0  0  0  0  0  0  0
   62.4353   33.8400   50.2250 H   0  0  0  0  0  0  0  0  0  0  0  0
   63.3800   33.7060   48.2800 C   0  0  0  0  0  0  0  0  0  0  0  0
   64.3948   33.6242   48.6964 H   0  0  0  0  0  0  0  0  0  0  0  0
   63.1900   33.6900   46.8980 C   0  0  0  0  0  0  0  0  0  0  0  0
   64.0550   33.5906   46.2257 H   0  0  0  0  0  0  0  0  0  0  0  0
   61.9030   33.8000   46.3670 C   0  0  0  0  0  0  0  0  0  0  0  0
   61.7583   33.7808   45.2767 H   0  0  0  0  0  0  0  0  0  0  0  0
   60.7920   33.9350   47.2160 C   0  0  0  0  0  0  0  0  0  0  0  0
   59.4710   34.0460   46.6560 N   0  0  0  0  0  0  0  0  0  0  0  0
   58.3090   33.5250   47.3780 C   0  0  0  0  0  0  0  0  0  0  0  0
   57.7524   34.3651   47.8188 H   0  0  0  0  0  0  0  0  0  0  0  0
   58.6612   32.8425   48.1655 H   0  0  0  0  0  0  0  0  0  0  0  0
   57.3770   32.7440   46.4290 C   0  0  0  0  0  0  0  0  0  0  0  0
   56.3430   32.8662   46.7839 H   0  0  0  0  0  0  0  0  0  0  0  0
   57.7141   31.6971   46.4472 H   0  0  0  0  0  0  0  0  0  0  0  0
   57.4380   33.1860   45.0130 N   0  0  0  0  0  0  0  0  0  0  0  0
   58.2560   32.2830   44.1880 C   0  0  0  0  0  0  0  0  0  0  0  0
   58.8502   31.6270   44.8412 H   0  0  0  0  0  0  0  0  0  0  0  0
   57.5990   31.6705   43.5530 H   0  0  0  0  0  0  0  0  0  0  0  0
   58.9303   32.8764   43.5530 H   0  0  0  0  0  0  0  0  0  0  0  0
   57.8550   34.5950   44.8670 C   0  0  0  0  0  0  0  0  0  0  0  0
   57.1373   35.2356   45.4003 H   0  0  0  0  0  0  0  0  0  0  0  0
   57.8782   34.8348   43.7937 H   0  0  0  0  0  0  0  0  0  0  0  0
   59.2610   34.8380   45.4410 C   0  0  0  0  0  0  0  0  0  0  0  0
   59.3724   35.9054   45.6825 H   0  0  0  0  0  0  0  0  0  0  0  0
   60.0056   34.5357   44.6899 H   0  0  0  0  0  0  0  0  0  0  0  0
   58.8940   30.5350   48.1050 S   0  0  0  0  0  0  0  0  0  0  0  0
   60.1500   30.0050   47.1150 C   0  0  0  0  0  0  0  0  0  0  0  0
   59.9850   29.2600   45.8280 C   0  0  0  0  0  0  0  0  0  0  0  0
   59.9877   29.9752   44.9923 H   0  0  0  0  0  0  0  0  0  0  0  0
   60.8163   28.5479   45.7189 H   0  0  0  0  0  0  0  0  0  0  0  0
   58.6870   28.4990   45.8250 C   0  0  0  0  0  0  0  0  0  0  0  0
   58.6190   27.2100   46.3830 C   0  0  0  0  0  0  0  0  0  0  0  0
   59.5277   26.7388   46.7857 H   0  0  0  0  0  0  0  0  0  0  0  0
   57.4010   26.5250   46.4280 C   0  0  0  0  0  0  0  0  0  0  0  0
   57.3553   25.5150   46.8615 H   0  0  0  0  0  0  0  0  0  0  0  0
   56.2400   27.1210   45.9230 C   0  0  0  0  0  0  0  0  0  0  0  0
   55.0340   26.4310   45.9700 O   0  0  0  0  0  0  0  0  0  0  0  0
   56.2980   28.4080   45.3740 C   0  0  0  0  0  0  0  0  0  0  0  0
   55.1470   29.0050   44.8720 O   0  0  0  0  0  0  0  0  0  0  0  0
   57.5150   29.0980   45.3310 C   0  0  0  0  0  0  0  0  0  0  0  0
   57.5546   30.1131   44.9090 H   0  0  0  0  0  0  0  0  0  0  0  0
  1  2  1  0
  2  3  1  0
  3  4  1  0
  4  5  2  0
  5  6  1  0
  6  7  2  0
  6  8  1  0
  8  9  1  0
  9 10  2  0
 10 11  1  0
 10 12  1  0
 12 13  1  0
 12 14  2  0
 14 15  1  0
 14 16  1  0
 16 17  1  0
 16 18  2  0
 18 19  1  0
 19 20  1  0
 20 21  1  0
 20 22  1  0
 20 23  1  0
 23 24  1  0
 23 25  1  0
 23 26  1  0
 26 27  1  0
 27 28  1  0
 27 29  1  0
 27 30  1  0
 26 31  1  0
 31 32  1  0
 31 33  1  0
 31 34  1  0
 34 35  1  0
 34 36  1  0
  4 37  1  0
 37 38  1  0
 38 39  1  0
 39 40  1  0
 39 41  1  0
 39 42  1  0
 42 43  2  0
 43 44  1  0
 43 45  1  0
 45 46  1  0
 45 47  2  0
 47 48  1  0
 47 49  1  0
 49 50  1  0
 49 51  2  0
 51 52  1  0
 38  2  2  0
 51 42  1  0
 18  9  1  0
 34 19  1  0
M  CHG  4   3  -1   8  -1  48  -1  50  -1
M  END
>  <UniqueID>  (3) 
3

>  <SMILES>  (3) 
CN1CCN(c2ccccc2[N-]C(=O)/N=c2\[n-]cc(Cc3ccc([O-])c([O-])c3)s2)CC1

>  <Energy>  (3) 
99.90544369825466

>  <Genealogy>  (3) 
CN1CCN(c2ccccc2[N-]C(=O)N=c2[n-]cc(Cc3ccc([O-])c([O-])c3)s2)CC1 (protonated)
CN1CCN(c2ccccc2[N-]C(=O)/N=c2\[n-]cc(Cc3ccc([O-])c([O-])c3)s2)CC1 (cis-trans isomerization)
CN1CCN(c2ccccc2[N-]C(=O)/N=c2\[n-]cc(Cc3ccc([O-])c([O-])c3)s2)CC1 (3D coordinates assigned)
CN1CCN(c2ccccc2[N-]C(=O)/N=c2\[n-]cc(Cc3ccc([O-])c([O-])c3)s2)CC1 (nonaromatic ring conformer: 99.90544369825466 kcal/mol)

>  <smiles>  (3) 
CN1CCN(c2ccccc2NC(=O)N=c2[nH]cc(Cc3ccc(O)c(O)c3)s2)CC1

>  <score_type>  (3) 
oracle

>  <origin>  (3) 
adg

>  <m_score__min__energy>  (3) 
-19.149999999999999

>  <m_primary>  (3) 
energy

$$$$
3:0
     RDKit          3D

 77 80  0  0  0  0  0  0  0  0999 V2000
   63.1660   33.3380   46.4050 O   0  0  0  0  0  0  0  0  0  0  0  0
   62.9010   33.1700   47.6260 C   0  0  0  0  0  0  0  0  0  0  0  0
   62.0420   32.0230   48.0530 C   0  0  0  0  0  0  0  0  0  0  0  0
   60.7860   32.5050   48.6560 N   0  0  0  0  0  0  0  0  0  0  0  0
   60.3640   33.8920   48.3960 C   0  0  0  0  0  0  0  0  0  0  0  0
   59.4560   33.9720   47.1940 C   0  0  0  0  0  0  0  0  0  0  0  0
   58.1370   33.4920   47.2790 C   0  0  0  0  0  0  0  0  0  0  0  0
   57.2760   33.5990   46.1830 C   0  0  0  0  0  0  0  0  0  0  0  0
   57.7120   34.2160   45.0050 C   0  0  0  0  0  0  0  0  0  0  0  0
   59.0120   34.7220   44.9200 C   0  0  0  0  0  0  0  0  0  0  0  0
   59.8810   34.6050   46.0100 C   0  0  0  0  0  0  0  0  0  0  0  0
   60.0470   31.6410   49.5530 C   0  0  0  0  0  0  0  0  0  0  0  0
   59.5460   32.1290   50.6010 O   0  0  0  0  0  0  0  0  0  0  0  0
   59.8150   30.1800   49.2370 C   0  0  0  0  0  0  0  0  0  0  0  0
   59.0870   29.9250   47.5730 S   0  0  0  0  0  0  0  0  0  0  0  0
   60.1080   28.4890   47.0870 C   0  0  0  0  0  0  0  0  0  0  0  0
   59.3020   27.2140   47.1640 C   0  0  0  0  0  0  0  0  0  0  0  0
   59.3500   26.5660   48.2010 O   0  0  0  0  0  0  0  0  0  0  0  0
   58.3940   26.7210   46.0430 C   0  0  2  0  0  0  0  0  0  0  0  0
   58.7330   27.4010   44.6970 C   0  0  0  0  0  0  0  0  0  0  0  0
   58.0680   28.7410   44.5080 C   0  0  0  0  0  0  0  0  0  0  0  0
   58.8510   29.9000   44.3650 C   0  0  0  0  0  0  0  0  0  0  0  0
   58.2430   31.1400   44.1600 C   0  0  0  0  0  0  0  0  0  0  0  0
   56.8500   31.2320   44.0790 C   0  0  0  0  0  0  0  0  0  0  0  0
   56.0610   30.0840   44.2260 C   0  0  0  0  0  0  0  0  0  0  0  0
   56.6670   28.8420   44.4450 C   0  0  0  0  0  0  0  0  0  0  0  0
   56.9820   26.8690   46.4010 N   0  0  0  0  0  0  0  0  0  0  0  0
   55.9490   25.9310   46.0680 C   0  0  0  0  0  0  0  0  0  0  0  0
   54.7530   26.3230   45.9980 O   0  0  0  0  0  0  0  0  0  0  0  0
   56.2850   24.5320   45.6840 C   0  0  0  0  0  0  0  0  0  0  0  0
   55.6950   23.9970   44.5200 C   0  0  0  0  0  0  0  0  0  0  0  0
   56.1070   22.7670   44.0050 C   0  0  0  0  0  0  0  0  0  0  0  0
   55.5190   22.2590   42.8520 O   0  0  0  0  0  0  0  0  0  0  0  0
   57.1260   22.0560   44.6370 C   0  0  0  0  0  0  0  0  0  0  0  0
   57.7120   22.5590   45.7960 C   0  0  0  0  0  0  0  0  0  0  0  0
   57.2610   23.7570   46.3620 C   0  0  0  0  0  0  0  0  0  0  0  0
   57.7750   24.1140   47.6080 O   0  0  0  0  0  0  0  0  0  0  0  0
   63.3590   34.1080   48.6000 N   0  0  0  0  0  0  0  0  0  0  0  0
   63.3710   33.8370   50.0350 C   0  0  0  0  0  0  0  0  0  0  0  0
   64.4130   32.8080   50.4120 C   0  0  0  0  0  0  0  0  0  0  0  0
   64.0830   31.5600   50.9880 C   0  0  0  0  0  0  0  0  0  0  0  0
   65.0900   30.6390   51.2960 C   0  0  0  0  0  0  0  0  0  0  0  0
   66.4290   30.9460   51.0410 C   0  0  0  0  0  0  0  0  0  0  0  0
   66.7650   32.1760   50.4670 C   0  0  0  0  0  0  0  0  0  0  0  0
   65.7640   33.1010   50.1540 C   0  0  0  0  0  0  0  0  0  0  0  0
   61.8060   31.4031   47.1755 H   0  0  0  0  0  0  0  0  0  0  0  0
   62.5892   31.4330   48.8030 H   0  0  0  0  0  0  0  0  0  0  0  0
   59.8272   34.2744   49.2767 H   0  0  0  0  0  0  0  0  0  0  0  0
   61.2610   34.4961   48.1946 H   0  0  0  0  0  0  0  0  0  0  0  0
   57.7812   33.0304   48.2119 H   0  0  0  0  0  0  0  0  0  0  0  0
   56.2539   33.1975   46.2466 H   0  0  0  0  0  0  0  0  0  0  0  0
   57.0311   34.3028   44.1454 H   0  0  0  0  0  0  0  0  0  0  0  0
   59.3519   35.2123   43.9959 H   0  0  0  0  0  0  0  0  0  0  0  0
   60.9016   35.0096   45.9419 H   0  0  0  0  0  0  0  0  0  0  0  0
   60.7788   29.6519   49.2845 H   0  0  0  0  0  0  0  0  0  0  0  0
   59.1009   29.7886   49.9765 H   0  0  0  0  0  0  0  0  0  0  0  0
   60.4634   28.6304   46.0556 H   0  0  0  0  0  0  0  0  0  0  0  0
   60.9619   28.4112   47.7761 H   0  0  0  0  0  0  0  0  0  0  0  0
   58.5800   25.6454   45.9074 H   0  0  0  0  0  0  0  0  0  0  0  0
   59.8224   27.5441   44.6453 H   0  0  0  0  0  0  0  0  0  0  0  0
   58.3569   26.7415   43.9010 H   0  0  0  0  0  0  0  0  0  0  0  0
   59.9476   29.8295   44.4149 H   0  0  0  0  0  0  0  0  0  0  0  0
   58.8602   32.0453   44.0621 H   0  0  0  0  0  0  0  0  0  0  0  0
   56.3733   32.2070   43.8996 H   0  0  0  0  0  0  0  0  0  0  0  0
   54.9650   30.1589   44.1693 H   0  0  0  0  0  0  0  0  0  0  0  0
   56.0459   27.9425   44.5682 H   0  0  0  0  0  0  0  0  0  0  0  0
   54.8978   24.5578   44.0102 H   0  0  0  0  0  0  0  0  0  0  0  0
   57.4675   21.0971   44.2200 H   0  0  0  0  0  0  0  0  0  0  0  0
   58.5377   22.0092   46.2714 H   0  0  0  0  0  0  0  0  0  0  0  0
   57.8520   25.0740   47.9080 H   0  0  0  0  0  0  0  0  0  0  0  0
   63.5871   34.7731   50.5707 H   0  0  0  0  0  0  0  0  0  0  0  0
   62.3846   33.4366   50.3119 H   0  0  0  0  0  0  0  0  0  0  0  0
   63.0314   31.3123   51.1946 H   0  0  0  0  0  0  0  0  0  0  0  0
   64.8263   29.6683   51.7412 H   0  0  0  0  0  0  0  0  0  0  0  0
   67.2177   30.2212   51.2914 H   0  0  0  0  0  0  0  0  0  0  0  0
   67.8185   32.4164   50.2613 H   0  0  0  0  0  0  0  0  0  0  0  0
   66.0358   34.0663   49.7020 H   0  0  0  0  0  0  0  0  0  0  0  0
  1  2  2  0
  2  3  1  0
  3  4  1  0
  4  5  1  0
  5  6  1  0
  6  7  2  0
  7  8  1  0
  8  9  2  0
  9 10  1  0
 10 11  2  0
  4 12  1  0
 12 13  2  0
 12 14  1  0
 14 15  1  0
 15 16  1  0
 16 17  1  0
 17 18  2  0
 17 19  1  0
 19 20  1  0
 20 21  1  0
 21 22  2  0
 22 23  1  0
 23 24  2  0
 24 25  1  0
 25 26  2  0
 19 27  1  0
 27 28  1  0
 28 29  2  0
 28 30  1  0
 30 31  2  0
 31 32  1  0
 32 33  1  0
 32 34  2  0
 34 35  1  0
 35 36  2  0
 36 37  1  0
  2 38  1  0
 38 39  1  0
 39 40  1  0
 40 41  2  0
 41 42  1  0
 42 43  2  0
 43 44  1  0
 44 45  2  0
 11  6  1  0
 26 21  1  0
 36 30  1  0
 45 40  1  0
  3 46  1  0
  3 47  1  0
  5 48  1  0
  5 49  1  0
  7 50  1  0
  8 51  1  0
  9 52  1  0
 10 53  1  0
 11 54  1  0
 14 55  1  0
 14 56  1  0
 16 57  1  0
 16 58  1  0
 19 59  1  6
 20 60  1  0
 20 61  1  0
 22 62  1  0
 23 63  1  0
 24 64  1  0
 25 65  1  0
 26 66  1  0
 31 67  1  0
 34 68  1  0
 35 69  1  0
 37 70  1  0
 39 71  1  0
 39 72  1  0
 41 73  1  0
 42 74  1  0
 43 75  1  0
 44 76  1  0
 45 77  1  0
M  CHG  3  27  -1  33  -1  38  -1
M  END
>  <UniqueID>  (4) 
4

>  <SMILES>  (4) 
O=C(CN(Cc1ccccc1)C(=O)CSCC(=O)[C@H](Cc1ccccc1)[N-]C(=O)c1cc([O-])ccc1O)[N-]Cc1ccccc1

>  <Energy>  (4) 
72.31794644221532

>  <Genealogy>  (4) 
O=C(CN(Cc1ccccc1)C(=O)CSCC(=O)C(Cc1ccccc1)[N-]C(=O)c1cc([O-])ccc1O)[N-]Cc1ccccc1 (protonated)
O=C(CN(Cc1ccccc1)C(=O)CSCC(=O)[C@H](Cc1ccccc1)[N-]C(=O)c1cc([O-])ccc1O)[N-]Cc1ccccc1 (chirality)
O=C(CN(Cc1ccccc1)C(=O)CSCC(=O)[C@H](Cc1ccccc1)[N-]C(=O)c1cc([O-])ccc1O)[N-]Cc1ccccc1 (3D coordinates assigned)
O=C(CN(Cc1ccccc1)C(=O)CSCC(=O)[C@H](Cc1ccccc1)[N-]C(=O)c1cc([O-])ccc1O)[N-]Cc1ccccc1 (optimized conformer: 72.31794644221532 kcal/mol)

>  <smiles>  (4) 
O=C(CN(Cc1ccccc1)C(=O)CSCC(=O)C(Cc1ccccc1)NC(=O)c1cc(O)ccc1O)NCc1ccccc1

>  <score_type>  (4) 
oracle

>  <origin>  (4) 
adg

>  <m_score__min__energy>  (4) 
-17.460000000000001

>  <m_primary>  (4) 
energy

$$$$
4:0
     RDKit          3D

 41 43  0  0  0  0  0  0  0  0999 V2000
   55.1470   29.3230   44.8490 O   0  0  0  0  0  0  0  0  0  0  0  0
   56.3890   29.3420   45.0610 C   0  0  0  0  0  0  0  0  0  0  0  0
   57.1970   30.4910   44.5170 C   0  0  0  0  0  0  0  0  0  0  0  0
   56.6000   31.7370   44.8720 O   0  0  0  0  0  0  0  0  0  0  0  0
   57.2850   32.9560   44.8420 C   0  0  0  0  0  0  0  0  0  0  0  0
   57.8110   33.3780   43.7780 O   0  0  0  0  0  0  0  0  0  0  0  0
   57.3700   33.7780   46.0890 C   0  0  0  0  0  0  0  0  0  0  0  0
   58.5770   33.4210   46.8590 N   0  0  0  0  0  0  0  0  0  0  0  0
   58.8300   31.9730   46.7720 C   0  0  0  0  0  0  0  0  0  0  0  0
   59.9490   31.5970   47.6360 N   0  0  0  0  0  0  0  0  0  0  0  0
   61.2430   32.2150   47.5310 C   0  0  0  0  0  0  0  0  0  0  0  0
   62.3650   31.5930   48.0990 C   0  0  0  0  0  0  0  0  0  0  0  0
   63.6270   32.1880   47.9960 C   0  0  0  0  0  0  0  0  0  0  0  0
   63.7750   33.4080   47.3310 C   0  0  0  0  0  0  0  0  0  0  0  0
   62.6610   34.0400   46.7740 C   0  0  0  0  0  0  0  0  0  0  0  0
   61.3960   33.4480   46.8760 C   0  0  0  0  0  0  0  0  0  0  0  0
   59.9800   34.2540   46.2330 S   0  0  0  0  0  0  0  0  0  0  0  0
   59.9640   35.6850   46.6920 O   0  0  0  0  0  0  0  0  0  0  0  0
   60.0120   34.1970   44.7300 O   0  0  0  0  0  0  0  0  0  0  0  0
   56.9440   28.3740   45.9640 N   0  0  0  0  0  0  0  0  0  0  0  0
   56.7830   27.0820   45.9310 C   0  0  0  0  0  0  0  0  0  0  0  0
   55.5390   26.5260   46.0010 N   0  0  0  0  0  0  0  0  0  0  0  0
   55.3450   25.1820   45.9950 C   0  0  0  0  0  0  0  0  0  0  0  0
   56.4400   24.3180   45.9250 C   0  0  0  0  0  0  0  0  0  0  0  0
   56.2020   22.5810   45.9190 Cl  0  0  0  0  0  0  0  0  0  0  0  0
   57.7280   24.8550   45.8650 C   0  0  0  0  0  0  0  0  0  0  0  0
   57.9080   26.2420   45.8720 C   0  0  0  0  0  0  0  0  0  0  0  0
   59.5390   26.8980   45.8030 Cl  0  0  0  0  0  0  0  0  0  0  0  0
   58.2145   30.4462   44.9326 H   0  0  0  0  0  0  0  0  0  0  0  0
   57.2302   30.4133   43.4202 H   0  0  0  0  0  0  0  0  0  0  0  0
   57.4145   34.8433   45.8186 H   0  0  0  0  0  0  0  0  0  0  0  0
   56.4814   33.5818   46.7070 H   0  0  0  0  0  0  0  0  0  0  0  0
   57.9286   31.4281   47.0890 H   0  0  0  0  0  0  0  0  0  0  0  0
   59.0810   31.7169   45.7321 H   0  0  0  0  0  0  0  0  0  0  0  0
   59.8160   30.8050   48.3040 H   0  0  0  0  0  0  0  0  0  0  0  0
   62.2521   30.6346   48.6269 H   0  0  0  0  0  0  0  0  0  0  0  0
   64.5044   31.6945   48.4394 H   0  0  0  0  0  0  0  0  0  0  0  0
   64.7693   33.8708   47.2462 H   0  0  0  0  0  0  0  0  0  0  0  0
   62.7773   35.0029   46.2551 H   0  0  0  0  0  0  0  0  0  0  0  0
   54.3249   24.7736   46.0453 H   0  0  0  0  0  0  0  0  0  0  0  0
   58.6005   24.1873   45.8123 H   0  0  0  0  0  0  0  0  0  0  0  0
  1  2  2  0
  2  3  1  0
  3  4  1  0
  4  5  1  0
  5  6  2  0
  5  7  1  0
  7  8  1  0
  8  9  1  0
  9 10  1  0
 10 11  1  0
 11 12  2  0
 12 13  1  0
 13 14  2  0
 14 15  1  0
 15 16  2  0
 16 17  1  0
 17 18  2  0
 17 19  2  0
  2 20  1  0
 20 21  2  3
 21 22  1  0
 22 23  1  0
 23 24  2  0
 24 25  1  0
 24 26  1  0
 26 27  2  0
 27 28  1  0
 17  8  1  0
 27 21  1  0
 16 11  1  0
  3 29  1  0
  3 30  1  0
  7 31  1  0
  7 32  1  0
  9 33  1  0
  9 34  1  0
 10 35  1  0
 12 36  1  0
 13 37  1  0
 14 38  1  0
 15 39  1  0
 23 40  1  0
 26 41  1  0
M  CHG  1  22  -1
M  END
>  <UniqueID>  (5) 
5

>  <SMILES>  (5) 
O=C(COC(=O)CN1CNc2ccccc2S1(=O)=O)N=c1[n-]cc(Cl)cc1Cl

>  <Energy>  (5) 
49.27445932266038

>  <Genealogy>  (5) 
O=C(COC(=O)CN1CNc2ccccc2S1(=O)=O)N=c1[n-]cc(Cl)cc1Cl (protonated)
O=C(COC(=O)CN1CNc2ccccc2S1(=O)=O)N=c1[n-]cc(Cl)cc1Cl (3D coordinates assigned)
O=C(COC(=O)CN1CNc2ccccc2S1(=O)=O)N=c1[n-]cc(Cl)cc1Cl (nonaromatic ring conformer: 49.27445932266038 kcal/mol)

>  <smiles>  (5) 
O=C(COC(=O)CN1CNc2ccccc2S1(=O)=O)N=c1[nH]cc(Cl)cc1Cl

>  <score_type>  (5) 
oracle

>  <origin>  (5) 
adg

>  <m_score__min__energy>  (5) 
-11.17

>  <m_primary>  (5) 
energy

$$$$
5:0
     RDKit          3D

 66 70  0  0  0  0  0  0  0  0999 V2000
   55.6350   29.6280   52.7360 C   0  0  0  0  0  0  0  0  0  0  0  0
   56.1180   30.3980   51.6400 O   0  0  0  0  0  0  0  0  0  0  0  0
   57.4240   30.9000   51.5390 C   0  0  0  0  0  0  0  0  0  0  0  0
   57.7150   32.2740   51.6290 C   0  0  0  0  0  0  0  0  0  0  0  0
   59.0380   32.7240   51.5370 C   0  0  0  0  0  0  0  0  0  0  0  0
   60.0950   31.8110   51.3610 C   0  0  0  0  0  0  0  0  0  0  0  0
   61.5060   32.2890   51.3340 C   0  0  0  0  0  0  0  0  0  0  0  0
   61.8460   33.4300   50.7220 C   0  0  0  0  0  0  0  0  0  0  0  0
   63.2910   33.8280   50.6550 C   0  0  0  0  0  0  0  0  0  0  0  0
   64.1490   32.6580   50.3680 N   0  0  0  0  0  0  0  0  0  0  0  0
   64.3140   32.3470   48.9270 C   0  0  0  0  0  0  0  0  0  0  0  0
   63.1100   32.7120   48.0800 C   0  0  0  0  0  0  0  0  0  0  0  0
   63.1480   33.8090   47.2100 C   0  0  0  0  0  0  0  0  0  0  0  0
   62.0440   34.1180   46.4150 C   0  0  0  0  0  0  0  0  0  0  0  0
   60.8750   33.3510   46.4770 C   0  0  0  0  0  0  0  0  0  0  0  0
   60.8260   32.2330   47.3460 C   0  0  0  0  0  0  0  0  0  0  0  0
   61.9430   31.9360   48.1480 C   0  0  0  0  0  0  0  0  0  0  0  0
   59.6520   31.2770   47.3560 C   0  0  0  0  0  0  0  0  0  0  0  0
   58.7740   31.3760   46.1620 N   0  0  1  0  0  0  0  0  0  0  0  0
   58.0920   30.1240   45.9060 C   0  0  0  0  0  0  0  0  0  0  0  0
   57.0230   30.1110   45.2330 O   0  0  0  0  0  0  0  0  0  0  0  0
   58.6990   28.8330   46.2910 C   0  0  0  0  0  0  0  0  0  0  0  0
   58.1320   27.9460   47.1850 C   0  0  0  0  0  0  0  0  0  0  0  0
   58.9600   26.8420   47.2170 C   0  0  0  0  0  0  0  0  0  0  0  0
   60.0040   27.1020   46.3520 C   0  0  0  0  0  0  0  0  0  0  0  0
   59.8490   28.3210   45.8000 N   0  0  0  0  0  0  0  0  0  0  0  0
   60.7760   28.9410   44.8570 C   0  0  0  0  0  0  0  0  0  0  0  0
   57.7820   32.4790   46.1960 C   0  0  0  0  0  0  0  0  0  0  0  0
   58.4300   33.8670   46.0900 C   0  0  0  0  0  0  0  0  0  0  0  0
   59.7940   33.7620   45.6770 O   0  0  0  0  0  0  0  0  0  0  0  0
   63.9100   31.4730   51.2340 C   0  0  0  0  0  0  0  0  0  0  0  0
   62.5950   31.5230   52.0480 C   0  0  0  0  0  0  0  0  0  0  0  0
   59.7900   30.4400   51.2530 C   0  0  0  0  0  0  0  0  0  0  0  0
   58.4700   29.9930   51.3420 C   0  0  0  0  0  0  0  0  0  0  0  0
   55.9348   30.1060   53.6803 H   0  0  0  0  0  0  0  0  0  0  0  0
   54.5377   29.5688   52.6872 H   0  0  0  0  0  0  0  0  0  0  0  0
   56.0594   28.6143   52.6872 H   0  0  0  0  0  0  0  0  0  0  0  0
   56.8993   32.9980   51.7723 H   0  0  0  0  0  0  0  0  0  0  0  0
   59.2532   33.8007   51.6029 H   0  0  0  0  0  0  0  0  0  0  0  0
   61.0727   34.0701   50.2722 H   0  0  0  0  0  0  0  0  0  0  0  0
   63.4221   34.5747   49.8579 H   0  0  0  0  0  0  0  0  0  0  0  0
   63.5848   34.2484   51.6281 H   0  0  0  0  0  0  0  0  0  0  0  0
   65.1848   32.9032   48.5497 H   0  0  0  0  0  0  0  0  0  0  0  0
   64.4433   31.2575   48.8472 H   0  0  0  0  0  0  0  0  0  0  0  0
   64.0537   34.4306   47.1532 H   0  0  0  0  0  0  0  0  0  0  0  0
   62.0930   34.9769   45.7295 H   0  0  0  0  0  0  0  0  0  0  0  0
   61.9008   31.0816   48.8396 H   0  0  0  0  0  0  0  0  0  0  0  0
   60.0438   30.2506   47.4116 H   0  0  0  0  0  0  0  0  0  0  0  0
   59.0338   31.5458   48.2252 H   0  0  0  0  0  0  0  0  0  0  0  0
   59.4080   31.5760   45.3520 H   0  0  0  0  0  0  0  0  0  0  0  0
   57.2043   28.0907   47.7581 H   0  0  0  0  0  0  0  0  0  0  0  0
   58.8158   25.9308   47.8162 H   0  0  0  0  0  0  0  0  0  0  0  0
   60.8383   26.4159   46.1444 H   0  0  0  0  0  0  0  0  0  0  0  0
   61.5653   29.4689   45.4122 H   0  0  0  0  0  0  0  0  0  0  0  0
   61.2297   28.1640   44.2243 H   0  0  0  0  0  0  0  0  0  0  0  0
   60.2311   29.6571   44.2243 H   0  0  0  0  0  0  0  0  0  0  0  0
   57.0857   32.3512   45.3541 H   0  0  0  0  0  0  0  0  0  0  0  0
   57.2646   32.4287   47.1654 H   0  0  0  0  0  0  0  0  0  0  0  0
   57.8759   34.4680   45.3539 H   0  0  0  0  0  0  0  0  0  0  0  0
   58.3980   34.3467   47.0794 H   0  0  0  0  0  0  0  0  0  0  0  0
   63.8825   30.5797   50.5927 H   0  0  0  0  0  0  0  0  0  0  0  0
   64.7294   31.4534   51.9676 H   0  0  0  0  0  0  0  0  0  0  0  0
   62.2475   30.4939   52.2219 H   0  0  0  0  0  0  0  0  0  0  0  0
   62.8055   32.0420   52.9947 H   0  0  0  0  0  0  0  0  0  0  0  0
   60.6008   29.7132   51.0968 H   0  0  0  0  0  0  0  0  0  0  0  0
   58.2512   28.9184   51.2564 H   0  0  0  0  0  0  0  0  0  0  0  0
  1  2  1  0
  2  3  1  0
  3  4  2  0
  4  5  1  0
  5  6  2  0
  6  7  1  0
  7  8  2  0
  8  9  1  0
  9 10  1  0
 10 11  1  0
 11 12  1  0
 12 13  2  0
 13 14  1  0
 14 15  2  0
 15 16  1  0
 16 17  2  0
 16 18  1  0
 18 19  1  0
 19 20  1  0
 20 21  2  0
 20 22  1  0
 22 23  2  0
 23 24  1  0
 24 25  2  0
 25 26  1  0
 26 27  1  0
 19 28  1  0
 28 29  1  0
 29 30  1  0
 10 31  1  0
 31 32  1  0
  6 33  1  0
 33 34  2  0
 34  3  1  0
 32  7  1  0
 17 12  1  0
 26 22  1  0
 30 15  1  0
  1 35  1  0
  1 36  1  0
  1 37  1  0
  4 38  1  0
  5 39  1  0
  8 40  1  0
  9 41  1  0
  9 42  1  0
 11 43  1  0
 11 44  1  0
 13 45  1  0
 14 46  1  0
 17 47  1  0
 18 48  1  0
 18 49  1  0
 19 50  1  6
 23 51  1  0
 24 52  1  0
 25 53  1  0
 27 54  1  0
 27 55  1  0
 27 56  1  0
 28 57  1  0
 28 58  1  0
 29 59  1  0
 29 60  1  0
 31 61  1  0
 31 62  1  0
 32 63  1  0
 32 64  1  0
 33 65  1  0
 34 66  1  0
M  CHG  1  19   1
M  END
>  <UniqueID>  (6) 
6

>  <SMILES>  (6) 
COc1ccc(C2=CCN(Cc3ccc4c(c3)C[N@@H+](C(=O)c3cccn3C)CCO4)CC2)cc1

>  <Energy>  (6) 
127.86267095700765

>  <Genealogy>  (6) 
COc1ccc(C2=CCN(Cc3ccc4c(c3)C[NH+](C(=O)c3cccn3C)CCO4)CC2)cc1 (protonated)
COc1ccc(C2=CCN(Cc3ccc4c(c3)C[N@@H+](C(=O)c3cccn3C)CCO4)CC2)cc1 (chirality)
COc1ccc(C2=CCN(Cc3ccc4c(c3)C[N@@H+](C(=O)c3cccn3C)CCO4)CC2)cc1 (3D coordinates assigned)
COc1ccc(C2=CCN(Cc3ccc4c(c3)C[N@@H+](C(=O)c3cccn3C)CCO4)CC2)cc1 (nonaromatic ring conformer: 127.86267095700765 kcal/mol)

>  <smiles>  (6) 
COc1ccc(C2=CCN(Cc3ccc4c(c3)CN(C(=O)c3cccn3C)CCO4)CC2)cc1

>  <score_type>  (6) 
oracle

>  <origin>  (6) 
adg

>  <m_score__min__energy>  (6) 
-6.4299999999999997

>  <m_primary>  (6) 
energy

$$$$
6:0
     RDKit          3D

 45 48  0  0  0  0  0  0  0  0999 V2000
   52.6340   28.7030   54.1020 O   0  0  0  0  0  0  0  0  0  0  0  0
   53.3280   29.3610   53.2810 C   0  0  0  0  0  0  0  0  0  0  0  0
   52.6390   30.1640   52.2550 C   0  0  0  0  0  0  0  0  0  0  0  0
   52.6110   29.7530   50.9150 C   0  0  0  0  0  0  0  0  0  0  0  0
   51.9530   30.4950   49.9830 N   0  0  0  0  0  0  0  0  0  0  0  0
   51.3050   31.6450   50.3110 C   0  0  0  0  0  0  0  0  0  0  0  0
   50.7110   32.3030   49.4160 O   0  0  0  0  0  0  0  0  0  0  0  0
   51.2940   32.0850   51.6400 C   0  0  0  0  0  0  0  0  0  0  0  0
   50.6310   33.2560   51.9920 O   0  0  0  0  0  0  0  0  0  0  0  0
   51.9540   31.3340   52.6130 C   0  0  0  0  0  0  0  0  0  0  0  0
   54.7650   29.3250   53.3800 N   0  0  0  0  0  0  0  0  0  0  0  0
   55.4460   28.9420   54.6060 C   0  0  0  0  0  0  0  0  0  0  0  0
   56.9330   29.1520   54.3440 C   0  0  0  0  0  0  0  0  0  0  0  0
   57.0750   29.2980   52.8320 C   0  0  0  0  0  0  0  0  0  0  0  0
   55.6920   29.7100   52.3190 C   0  0  2  0  0  0  0  0  0  0  0  0
   55.5880   31.2180   51.9850 C   0  0  0  0  0  0  0  0  0  0  0  0
   56.9280   31.9030   51.8340 C   0  0  0  0  0  0  0  0  0  0  0  0
   57.7350   31.6410   50.7170 C   0  0  0  0  0  0  0  0  0  0  0  0
   58.9390   32.3250   50.5410 C   0  0  0  0  0  0  0  0  0  0  0  0
   59.3570   33.2640   51.4860 C   0  0  0  0  0  0  0  0  0  0  0  0
   58.5820   33.5180   52.6310 C   0  0  0  0  0  0  0  0  0  0  0  0
   59.0250   34.4900   53.5980 N   0  0  0  0  0  0  0  0  0  0  0  0
   59.9600   34.2460   54.5060 N   0  0  0  0  0  0  0  0  0  0  0  0
   60.0950   35.3750   55.2280 C   0  0  0  0  0  0  0  0  0  0  0  0
   59.2080   36.3070   54.7310 C   0  0  0  0  0  0  0  0  0  0  0  0
   58.5550   35.7230   53.7130 N   0  0  0  0  0  0  0  0  0  0  0  0
   57.3650   32.8300   52.7960 C   0  0  0  0  0  0  0  0  0  0  0  0
   53.1231   28.8267   50.6155 H   0  0  0  0  0  0  0  0  0  0  0  0
   51.9370   31.6604   53.6633 H   0  0  0  0  0  0  0  0  0  0  0  0
   55.1122   29.5741   55.4421 H   0  0  0  0  0  0  0  0  0  0  0  0
   55.2284   27.8988   54.8787 H   0  0  0  0  0  0  0  0  0  0  0  0
   57.2860   30.0621   54.8510 H   0  0  0  0  0  0  0  0  0  0  0  0
   57.5328   28.3131   54.7267 H   0  0  0  0  0  0  0  0  0  0  0  0
   57.8189   30.0715   52.5904 H   0  0  0  0  0  0  0  0  0  0  0  0
   57.4166   28.3620   52.3659 H   0  0  0  0  0  0  0  0  0  0  0  0
   55.4650   29.2118   51.3649 H   0  0  0  0  0  0  0  0  0  0  0  0
   55.0344   31.3268   51.0407 H   0  0  0  0  0  0  0  0  0  0  0  0
   55.0754   31.6992   52.8310 H   0  0  0  0  0  0  0  0  0  0  0  0
   57.4174   30.8927   49.9759 H   0  0  0  0  0  0  0  0  0  0  0  0
   59.5600   32.1238   49.6556 H   0  0  0  0  0  0  0  0  0  0  0  0
   60.3001   33.8093   51.3334 H   0  0  0  0  0  0  0  0  0  0  0  0
   60.7904   35.5270   56.0666 H   0  0  0  0  0  0  0  0  0  0  0  0
   59.0630   37.3336   55.0986 H   0  0  0  0  0  0  0  0  0  0  0  0
   57.7930   36.1530   53.1440 H   0  0  0  0  0  0  0  0  0  0  0  0
   56.7493   33.0199   53.6875 H   0  0  0  0  0  0  0  0  0  0  0  0
  1  2  2  0
  2  3  1  0
  3  4  2  0
  4  5  1  0
  5  6  1  0
  6  7  2  0
  6  8  1  0
  8  9  1  0
  8 10  2  0
  2 11  1  0
 11 12  1  0
 12 13  1  0
 13 14  1  0
 14 15  1  0
 15 16  1  0
 16 17  1  0
 17 18  2  0
 18 19  1  0
 19 20  2  0
 20 21  1  0
 21 22  1  0
 22 23  1  0
 23 24  2  0
 24 25  1  0
 25 26  2  0
 21 27  2  0
 10  3  1  0
 15 11  1  0
 27 17  1  0
 26 22  1  0
  4 28  1  0
 10 29  1  0
 12 30  1  0
 12 31  1  0
 13 32  1  0
 13 33  1  0
 14 34  1  0
 14 35  1  0
 15 36  1  6
 16 37  1  0
 16 38  1  0
 18 39  1  0
 19 40  1  0
 20 41  1  0
 24 42  1  0
 25 43  1  0
 26 44  1  0
 27 45  1  0
M  CHG  3   5  -1   9  -1  26   1
M  END
>  <UniqueID>  (7) 
7

>  <SMILES>  (7) 
O=C(c1c[n-]c(=O)c([O-])c1)N1CCC[C@@H]1Cc1cccc(-n2ncc[nH+]2)c1

>  <Energy>  (7) 
89.05993724242114

>  <Genealogy>  (7) 
O=C(c1c[n-]c(=O)c([O-])c1)N1CCCC1Cc1cccc(-n2ncc[nH+]2)c1 (protonated)
O=C(c1c[n-]c(=O)c([O-])c1)N1CCC[C@@H]1Cc1cccc(-n2ncc[nH+]2)c1 (chirality)
O=C(c1c[n-]c(=O)c([O-])c1)N1CCC[C@@H]1Cc1cccc(-n2ncc[nH+]2)c1 (3D coordinates assigned)
O=C(c1c[n-]c(=O)c([O-])c1)N1CCC[C@@H]1Cc1cccc(-n2ncc[nH+]2)c1 (nonaromatic ring conformer: 89.05993724242114 kcal/mol)

>  <smiles>  (7) 
O=C(c1c[nH]c(=O)c(O)c1)N1CCCC1Cc1cccc(-n2nccn2)c1

>  <score_type>  (7) 
oracle

>  <origin>  (7) 
adg

>  <m_score__min__energy>  (7) 
-12.720000000000001

>  <m_primary>  (7) 
energy

$$$$
7:0
     RDKit          3D

 43 45  0  0  0  0  0  0  0  0999 V2000
   60.9100   26.3420   46.9880 N   0  0  0  0  0  0  0  0  0  0  0  0
   60.0900   27.0390   46.0510 C   0  0  0  0  0  0  0  0  0  0  0  0
   60.6350   27.8170   45.2220 O   0  0  0  0  0  0  0  0  0  0  0  0
   58.6150   26.8440   46.0450 C   0  0  0  0  0  0  0  0  0  0  0  0
   57.7370   27.8630   45.6110 C   0  0  0  0  0  0  0  0  0  0  0  0
   58.2460   29.1570   45.2500 N   0  0  0  0  0  0  0  0  0  0  0  0
   58.4240   30.2330   46.1880 C   0  0  0  0  0  0  0  0  0  0  0  0
   58.8700   29.9480   47.4860 C   0  0  0  0  0  0  0  0  0  0  0  0
   59.0730   30.9770   48.4100 C   0  0  0  0  0  0  0  0  0  0  0  0
   58.8320   32.3110   48.0480 C   0  0  0  0  0  0  0  0  0  0  0  0
   59.1080   33.4270   49.0230 C   0  0  0  0  0  0  0  0  0  0  0  0
   59.9780   34.5280   48.3990 C   0  0  0  0  0  0  0  0  0  0  0  0
   61.4080   34.0790   48.2170 C   0  0  0  0  0  0  0  0  0  0  0  0
   61.8810   33.7670   46.9300 C   0  0  0  0  0  0  0  0  0  0  0  0
   63.1850   33.3050   46.7480 C   0  0  0  0  0  0  0  0  0  0  0  0
   64.0310   33.1470   47.8460 C   0  0  0  0  0  0  0  0  0  0  0  0
   63.5740   33.4440   49.1330 C   0  0  0  0  0  0  0  0  0  0  0  0
   64.4300   33.2750   50.2170 O   0  0  0  0  0  0  0  0  0  0  0  0
   62.2610   33.9080   49.3270 C   0  0  0  0  0  0  0  0  0  0  0  0
   61.7930   34.1970   50.6110 O   0  0  0  0  0  0  0  0  0  0  0  0
   58.4030   32.6030   46.7440 C   0  0  0  0  0  0  0  0  0  0  0  0
   58.2000   31.5730   45.8200 C   0  0  0  0  0  0  0  0  0  0  0  0
   56.3880   27.6420   45.6040 N   0  0  0  0  0  0  0  0  0  0  0  0
   55.5260   28.6550   45.2440 O   0  0  0  0  0  0  0  0  0  0  0  0
   55.8750   26.4420   45.9920 C   0  0  0  0  0  0  0  0  0  0  0  0
   54.6310   26.2470   45.9800 O   0  0  0  0  0  0  0  0  0  0  0  0
   56.7010   25.4500   46.4020 N   0  0  0  0  0  0  0  0  0  0  0  0
   58.0470   25.6170   46.4400 C   0  0  0  0  0  0  0  0  0  0  0  0
   58.7690   24.6550   46.8130 O   0  0  0  0  0  0  0  0  0  0  0  0
   60.5130   25.5900   47.5920 H   0  0  0  0  0  0  0  0  0  0  0  0
   58.4630   29.3300   44.2420 H   0  0  0  0  0  0  0  0  0  0  0  0
   59.0619   28.9055   47.7800 H   0  0  0  0  0  0  0  0  0  0  0  0
   59.4232   30.7399   49.4254 H   0  0  0  0  0  0  0  0  0  0  0  0
   58.1511   33.8667   49.3409 H   0  0  0  0  0  0  0  0  0  0  0  0
   59.6535   33.0050   49.8799 H   0  0  0  0  0  0  0  0  0  0  0  0
   59.5617   34.7966   47.4169 H   0  0  0  0  0  0  0  0  0  0  0  0
   59.9756   35.3919   49.0800 H   0  0  0  0  0  0  0  0  0  0  0  0
   61.2182   33.8880   46.0605 H   0  0  0  0  0  0  0  0  0  0  0  0
   63.5465   33.0650   45.7372 H   0  0  0  0  0  0  0  0  0  0  0  0
   65.0602   32.7878   47.6985 H   0  0  0  0  0  0  0  0  0  0  0  0
   62.3740   34.0920   51.4330 H   0  0  0  0  0  0  0  0  0  0  0  0
   58.2255   33.6472   46.4472 H   0  0  0  0  0  0  0  0  0  0  0  0
   57.8635   31.8113   44.8002 H   0  0  0  0  0  0  0  0  0  0  0  0
  1  2  1  0
  2  3  2  0
  2  4  1  0
  4  5  2  0
  5  6  1  0
  6  7  1  0
  7  8  2  0
  8  9  1  0
  9 10  2  0
 10 11  1  0
 11 12  1  0
 12 13  1  0
 13 14  2  0
 14 15  1  0
 15 16  2  0
 16 17  1  0
 17 18  1  0
 17 19  2  0
 19 20  1  0
 10 21  1  0
 21 22  2  0
  5 23  1  0
 23 24  1  0
 23 25  1  0
 25 26  2  0
 25 27  1  0
 27 28  1  0
 28 29  2  0
 28  4  1  0
 22  7  1  0
 19 13  1  0
  1 30  1  0
  6 31  1  0
  8 32  1  0
  9 33  1  0
 11 34  1  0
 11 35  1  0
 12 36  1  0
 12 37  1  0
 14 38  1  0
 15 39  1  0
 16 40  1  0
 20 41  1  0
 21 42  1  0
 22 43  1  0
M  CHG  4   1  -1  18  -1  24  -1  27  -1
M  END
>  <UniqueID>  (8) 
8

>  <SMILES>  (8) 
[NH-]C(=O)c1c(Nc2ccc(CCc3cccc([O-])c3O)cc2)n([O-])c(=O)[n-]c1=O

>  <Energy>  (8) 
55.518745946548144

>  <Genealogy>  (8) 
[NH-]C(=O)c1c(Nc2ccc(CCc3cccc([O-])c3O)cc2)n([O-])c(=O)[n-]c1=O (protonated)
[NH-]C(=O)c1c(Nc2ccc(CCc3cccc([O-])c3O)cc2)n([O-])c(=O)[n-]c1=O (3D coordinates assigned)
[NH-]C(=O)c1c(Nc2ccc(CCc3cccc([O-])c3O)cc2)n([O-])c(=O)[n-]c1=O (optimized conformer: 55.518745946548144 kcal/mol)

>  <smiles>  (8) 
NC(=O)c1c(Nc2ccc(CCc3cccc(O)c3O)cc2)n(O)c(=O)[nH]c1=O

>  <score_type>  (8) 
oracle

>  <origin>  (8) 
adg

>  <m_score__min__energy>  (8) 
-15.67

>  <m_primary>  (8) 
energy

$$$$
8:0
     RDKit          3D

 50 52  0  0  0  0  0  0  0  0999 V2000
   56.4340   22.2510   47.7890 O   0  0  0  0  0  0  0  0  0  0  0  0
   56.7780   23.3250   47.2350 C   0  0  0  0  0  0  0  0  0  0  0  0
   55.8760   24.4180   47.1790 N   0  0  0  0  0  0  0  0  0  0  0  0
   56.2450   25.6500   46.5610 C   0  0  0  0  0  0  0  0  0  0  0  0
   55.3350   26.5010   46.3520 O   0  0  0  0  0  0  0  0  0  0  0  0
   57.6920   25.9650   46.1580 C   0  0  0  0  0  0  0  0  0  0  0  0
   58.3790   26.8720   47.2440 C   0  0  0  0  0  0  0  0  0  0  0  0
   59.9300   27.0130   47.2670 C   0  0  0  0  0  0  0  0  0  0  0  0
   60.4550   28.4130   47.6030 C   0  0  0  0  0  0  0  0  0  0  0  0
   60.0750   28.7960   48.9610 N   0  0  0  0  0  0  0  0  0  0  0  0
   58.9710   30.1370   48.9040 S   0  0  0  0  0  0  0  0  0  0  0  0
   58.1530   30.0630   47.6450 O   0  0  0  0  0  0  0  0  0  0  0  0
   58.0530   30.1060   50.0940 O   0  0  0  0  0  0  0  0  0  0  0  0
   59.8870   31.6710   48.9100 C   0  0  0  0  0  0  0  0  0  0  0  0
   59.4550   32.5610   47.7730 C   0  0  0  0  0  0  0  0  0  0  0  0
   58.1050   32.9290   47.6350 C   0  0  0  0  0  0  0  0  0  0  0  0
   57.7060   33.7680   46.5880 C   0  0  0  0  0  0  0  0  0  0  0  0
   58.6470   34.2420   45.6700 C   0  0  0  0  0  0  0  0  0  0  0  0
   59.9910   33.8790   45.7990 C   0  0  0  0  0  0  0  0  0  0  0  0
   60.3960   33.0440   46.8480 C   0  0  0  0  0  0  0  0  0  0  0  0
   57.6300   26.6300   44.7380 C   0  0  0  0  0  0  0  0  0  0  0  0
   57.8680   28.1250   44.6520 C   0  0  0  0  0  0  0  0  0  0  0  0
   59.1760   28.6310   44.5470 C   0  0  0  0  0  0  0  0  0  0  0  0
   59.4080   30.0090   44.5350 C   0  0  0  0  0  0  0  0  0  0  0  0
   58.3370   30.8990   44.6340 C   0  0  0  0  0  0  0  0  0  0  0  0
   57.0340   30.4110   44.7550 C   0  0  0  0  0  0  0  0  0  0  0  0
   56.7970   29.0330   44.7730 C   0  0  0  0  0  0  0  0  0  0  0  0
   55.5210   28.5870   44.9100 F   0  0  0  0  0  0  0  0  0  0  0  0
   58.5220   24.6740   46.0870 C   0  0  0  0  0  0  0  0  0  0  0  0
   59.7010   24.7110   45.6450 O   0  0  0  0  0  0  0  0  0  0  0  0
   58.0620   23.4420   46.6440 N   0  0  0  0  0  0  0  0  0  0  0  0
   57.9690   27.8850   47.1185 H   0  0  0  0  0  0  0  0  0  0  0  0
   58.1564   26.3525   48.1877 H   0  0  0  0  0  0  0  0  0  0  0  0
   60.3239   26.3129   48.0185 H   0  0  0  0  0  0  0  0  0  0  0  0
   60.2704   26.7979   46.2433 H   0  0  0  0  0  0  0  0  0  0  0  0
   61.5519   28.4165   47.5206 H   0  0  0  0  0  0  0  0  0  0  0  0
   60.0164   29.1336   46.8970 H   0  0  0  0  0  0  0  0  0  0  0  0
   59.7100   32.1922   49.8624 H   0  0  0  0  0  0  0  0  0  0  0  0
   60.9561   31.4419   48.7897 H   0  0  0  0  0  0  0  0  0  0  0  0
   57.3594   32.5561   48.3527 H   0  0  0  0  0  0  0  0  0  0  0  0
   56.6489   34.0550   46.4875 H   0  0  0  0  0  0  0  0  0  0  0  0
   58.3307   34.8998   44.8470 H   0  0  0  0  0  0  0  0  0  0  0  0
   60.7317   34.2499   45.0753 H   0  0  0  0  0  0  0  0  0  0  0  0
   61.4553   32.7651   46.9482 H   0  0  0  0  0  0  0  0  0  0  0  0
   58.3893   26.1393   44.1114 H   0  0  0  0  0  0  0  0  0  0  0  0
   56.5886   26.4937   44.4109 H   0  0  0  0  0  0  0  0  0  0  0  0
   60.0248   27.9352   44.4736 H   0  0  0  0  0  0  0  0  0  0  0  0
   60.4352   30.3927   44.4475 H   0  0  0  0  0  0  0  0  0  0  0  0
   58.5192   31.9837   44.6167 H   0  0  0  0  0  0  0  0  0  0  0  0
   56.1912   31.1131   44.8364 H   0  0  0  0  0  0  0  0  0  0  0  0
  1  2  2  0
  2  3  1  0
  3  4  1  0
  4  5  2  0
  4  6  1  0
  6  7  1  0
  7  8  1  0
  8  9  1  0
  9 10  1  0
 10 11  1  0
 11 12  2  0
 11 13  2  0
 11 14  1  0
 14 15  1  0
 15 16  2  0
 16 17  1  0
 17 18  2  0
 18 19  1  0
 19 20  2  0
  6 21  1  0
 21 22  1  0
 22 23  2  0
 23 24  1  0
 24 25  2  0
 25 26  1  0
 26 27  2  0
 27 28  1  0
  6 29  1  0
 29 30  2  0
 29 31  1  0
 31  2  1  0
 20 15  1  0
 27 22  1  0
  7 32  1  0
  7 33  1  0
  8 34  1  0
  8 35  1  0
  9 36  1  0
  9 37  1  0
 14 38  1  0
 14 39  1  0
 16 40  1  0
 17 41  1  0
 18 42  1  0
 19 43  1  0
 20 44  1  0
 21 45  1  0
 21 46  1  0
 23 47  1  0
 24 48  1  0
 25 49  1  0
 26 50  1  0
M  CHG  3   3  -1  10  -1  31  -1
M  END
>  <UniqueID>  (9) 
9

>  <SMILES>  (9) 
O=C1[N-]C(=O)C(CCC[N-]S(=O)(=O)Cc2ccccc2)(Cc2ccccc2F)C(=O)[N-]1

>  <Energy>  (9) 
51.0260675125416

>  <Genealogy>  (9) 
O=C1[N-]C(=O)C(CCC[N-]S(=O)(=O)Cc2ccccc2)(Cc2ccccc2F)C(=O)[N-]1 (protonated)
O=C1[N-]C(=O)C(CCC[N-]S(=O)(=O)Cc2ccccc2)(Cc2ccccc2F)C(=O)[N-]1 (3D coordinates assigned)
O=C1[N-]C(=O)C(CCC[N-]S(=O)(=O)Cc2ccccc2)(Cc2ccccc2F)C(=O)[N-]1 (nonaromatic ring conformer: 51.0260675125416 kcal/mol)

>  <smiles>  (9) 
O=C1NC(=O)C(CCCNS(=O)(=O)Cc2ccccc2)(Cc2ccccc2F)C(=O)N1

>  <score_type>  (9) 
oracle

>  <origin>  (9) 
adg

>  <m_score__min__energy>  (9) 
-14.5

>  <m_primary>  (9) 
energy

$$$$
9:0
     RDKit          3D

 54 57  0  0  1  0  0  0  0  0999 V2000
   55.2930   23.3950   46.1750 C   0  0  0  0  0  0  0  0  0  0  0  0
   55.8300   22.5410   45.0840 C   0  0  0  0  0  0  0  0  0  0  0  0
   55.7790   21.1620   45.1110 C   0  0  0  0  0  0  0  0  0  0  0  0
   56.2810   20.3750   44.0950 C   0  0  0  0  0  0  0  0  0  0  0  0
   56.8700   20.9640   42.9810 C   0  0  0  0  0  0  0  0  0  0  0  0
   56.9130   22.3470   42.9680 C   0  0  0  0  0  0  0  0  0  0  0  0
   56.4130   23.1250   43.9800 C   0  0  0  0  0  0  0  0  0  0  0  0
   56.5230   24.5530   43.8400 N   0  0  0  0  0  0  0  0  0  0  0  0
   57.4940   25.2110   44.6750 C   0  0  0  0  0  0  0  0  0  0  0  0
   58.1460   24.4990   45.4370 O   0  0  0  0  0  0  0  0  0  0  0  0
   57.6500   26.6040   44.5850 N   0  0  0  0  0  0  0  0  0  0  0  0
   58.5470   27.4020   45.3250 C   0  0  0  0  0  0  0  0  0  0  0  0
   59.4410   26.9350   46.2570 C   0  0  0  0  0  0  0  0  0  0  0  0
   60.3080   27.7730   46.9600 C   0  0  0  0  0  0  0  0  0  0  0  0
   60.2920   29.1450   46.7330 C   0  0  0  0  0  0  0  0  0  0  0  0
   61.1660   29.9090   47.4560 O   0  0  0  0  0  0  0  0  0  0  0  0
   61.4970   31.2160   47.3190 C   0  0  0  0  0  0  0  0  0  0  0  0
   60.4420   32.1390   47.3040 C   0  0  0  0  0  0  0  0  0  0  0  0
   60.6640   33.4850   47.1710 C   0  0  0  0  0  0  0  0  0  0  0  0
   59.6460   34.2780   47.1650 N   0  0  0  0  0  0  0  0  0  0  0  0
   59.3700   35.0020   45.9880 C   0  0  0  0  0  0  0  0  0  0  0  0
   60.0040   36.0680   45.7680 O   0  0  0  0  0  0  0  0  0  0  0  0
   58.3730   34.5790   44.9890 C   0  0  0  0  0  0  0  0  0  0  0  0
   57.3070   33.6170   45.3950 C   0  0  0  0  0  0  0  0  0  0  0  0
   58.4240   33.1160   44.5490 C   0  0  0  0  0  0  0  0  0  0  0  0
   61.9160   33.9510   47.0490 N   0  0  0  0  0  0  0  0  0  0  0  0
   62.9160   33.0500   47.0650 C   0  0  0  0  0  0  0  0  0  0  0  0
   62.7180   31.7350   47.1940 N   0  0  0  0  0  0  0  0  0  0  0  0
   59.3950   29.5990   45.8010 C   0  0  0  0  0  0  0  0  0  0  0  0
   58.5400   28.7680   45.1080 C   0  0  0  0  0  0  0  0  0  0  0  0
   57.5970   29.3820   44.1060 C   0  0  0  0  0  0  0  0  0  0  0  0
   55.5658   22.9611   47.1483 H   0  0  0  0  0  0  0  0  0  0  0  0
   55.7181   24.4061   46.0922 H   0  0  0  0  0  0  0  0  0  0  0  0
   54.1975   23.4499   46.0922 H   0  0  0  0  0  0  0  0  0  0  0  0
   55.3183   20.6692   45.9799 H   0  0  0  0  0  0  0  0  0  0  0  0
   56.2153   19.2793   44.1661 H   0  0  0  0  0  0  0  0  0  0  0  0
   57.2793   20.3632   42.1555 H   0  0  0  0  0  0  0  0  0  0  0  0
   57.3714   22.8473   42.1022 H   0  0  0  0  0  0  0  0  0  0  0  0
   55.9240   25.0750   43.1630 H   0  0  0  0  0  0  0  0  0  0  0  0
   57.0180   27.0940   43.8820 H   0  0  0  0  0  0  0  0  0  0  0  0
   59.4753   25.8541   46.4581 H   0  0  0  0  0  0  0  0  0  0  0  0
   61.0060   27.3470   47.6957 H   0  0  0  0  0  0  0  0  0  0  0  0
   59.4091   31.7735   47.4015 H   0  0  0  0  0  0  0  0  0  0  0  0
   58.3763   35.5614   44.4941 H   0  0  0  0  0  0  0  0  0  0  0  0
   57.2323   33.2971   46.4448 H   0  0  0  0  0  0  0  0  0  0  0  0
   56.2107   33.6035   45.3057 H   0  0  0  0  0  0  0  0  0  0  0  0
   59.1777   32.4374   44.9750 H   0  0  0  0  0  0  0  0  0  0  0  0
   58.5006   32.5914   43.5852 H   0  0  0  0  0  0  0  0  0  0  0  0
   62.1250   34.9580   46.9470 H   0  0  0  0  0  0  0  0  0  0  0  0
   63.9490   33.4151   46.9668 H   0  0  0  0  0  0  0  0  0  0  0  0
   59.3553   30.6790   45.5959 H   0  0  0  0  0  0  0  0  0  0  0  0
   56.7896   29.9077   44.6367 H   0  0  0  0  0  0  0  0  0  0  0  0
   58.1466   30.0959   43.4749 H   0  0  0  0  0  0  0  0  0  0  0  0
   57.1664   28.5906   43.4749 H   0  0  0  0  0  0  0  0  0  0  0  0
  1  2  1  0
  2  3  2  0
  3  4  1  0
  4  5  2  0
  5  6  1  0
  6  7  2  0
  7  8  1  0
  8  9  1  0
  9 10  2  0
  9 11  1  0
 11 12  1  0
 12 13  2  0
 13 14  1  0
 14 15  2  0
 15 16  1  0
 16 17  1  0
 17 18  2  0
 18 19  1  0
 19 20  2  0
 20 21  1  0
 21 22  2  0
 21 23  1  0
 23 24  1  0
 24 25  1  0
 19 26  1  0
 26 27  1  0
 27 28  2  0
 15 29  1  0
 29 30  2  0
 30 31  1  0
  7  2  1  0
 30 12  1  0
 28 17  1  0
 25 23  1  0
  1 32  1  0
  1 33  1  0
  1 34  1  0
  3 35  1  0
  4 36  1  0
  5 37  1  0
  6 38  1  0
  8 39  1  0
 11 40  1  0
 13 41  1  0
 14 42  1  0
 18 43  1  0
 23 44  1  0
 24 45  1  0
 24 46  1  0
 25 47  1  0
 25 48  1  0
 26 49  1  0
 27 50  1  0
 29 51  1  0
 31 52  1  0
 31 53  1  0
 31 54  1  0
M  END
>  <smiles>  (10) 
Cc1ccccc1NC(=O)Nc1ccc(Oc2cc(=NC(=O)C3CC3)[nH]cn2)cc1C

>  <score_type>  (10) 
oracle

>  <origin>  (10) 
adg

>  <m_score__min__energy>  (10) 
-8.8599999999999994

>  <m_primary>  (10) 
energy

$$$$
10:0
     RDKit          3D

 64 66  0  0  0  0  0  0  0  0999 V2000
   57.8240   32.3070   41.3930 C   0  0  0  0  0  0  0  0  0  0  0  0
   58.4640   32.0220   42.6330 O   0  0  0  0  0  0  0  0  0  0  0  0
   58.2380   32.7280   43.8280 C   0  0  0  0  0  0  0  0  0  0  0  0
   58.8930   33.9440   44.1060 C   0  0  0  0  0  0  0  0  0  0  0  0
   58.6530   34.6170   45.3080 C   0  0  0  0  0  0  0  0  0  0  0  0
   57.7640   34.0860   46.2430 C   0  0  0  0  0  0  0  0  0  0  0  0
   57.1100   32.8810   45.9810 C   0  0  0  0  0  0  0  0  0  0  0  0
   57.3320   32.1990   44.7720 C   0  0  0  0  0  0  0  0  0  0  0  0
   56.6520   30.8810   44.5200 C   0  0  0  0  0  0  0  0  0  0  0  0
   57.0770   29.9200   45.5270 N   0  0  0  0  0  0  0  0  0  0  0  0
   58.4380   29.5200   45.6970 C   0  0  0  0  0  0  0  0  0  0  0  0
   59.2710   29.6910   44.7640 O   0  0  0  0  0  0  0  0  0  0  0  0
   58.8710   28.9690   47.0250 C   0  0  0  0  0  0  0  0  0  0  0  0
   58.9270   30.0330   48.1010 C   0  0  0  0  0  0  0  0  0  0  0  0
   58.5470   29.7100   49.3970 C   0  0  0  0  0  0  0  0  0  0  0  0
   58.5890   30.6600   50.4220 C   0  0  0  0  0  0  0  0  0  0  0  0
   58.2600   30.1970   51.8500 C   0  0  1  0  0  0  0  0  0  0  0  0
   56.9350   29.7220   51.8890 O   0  0  0  0  0  0  0  0  0  0  0  0
   59.2220   29.1690   52.3460 N   0  0  0  0  0  0  0  0  0  0  0  0
   59.0050   28.8980   53.7810 C   0  0  0  0  0  0  0  0  0  0  0  0
   60.6210   29.6030   52.1450 C   0  0  0  0  0  0  0  0  0  0  0  0
   58.9790   31.9920   50.1000 C   0  0  0  0  0  0  0  0  0  0  0  0
   58.9500   33.0440   51.1960 C   0  0  0  0  0  0  0  0  0  0  0  0
   59.4030   32.2950   48.8130 N   0  0  0  0  0  0  0  0  0  0  0  0
   59.9920   33.6200   48.4930 C   0  0  0  0  0  0  0  0  0  0  0  0
   61.4260   33.4760   48.0370 C   0  0  0  0  0  0  0  0  0  0  0  0
   62.3800   32.8800   48.8800 C   0  0  0  0  0  0  0  0  0  0  0  0
   63.7100   32.7600   48.4670 C   0  0  0  0  0  0  0  0  0  0  0  0
   64.0970   33.2220   47.2050 C   0  0  0  0  0  0  0  0  0  0  0  0
   63.1510   33.7940   46.3510 C   0  0  0  0  0  0  0  0  0  0  0  0
   61.8180   33.9150   46.7610 C   0  0  0  0  0  0  0  0  0  0  0  0
   59.3500   31.3390   47.8210 C   0  0  0  0  0  0  0  0  0  0  0  0
   59.6920   31.6210   46.6380 O   0  0  0  0  0  0  0  0  0  0  0  0
   56.8344   32.7477   41.5839 H   0  0  0  0  0  0  0  0  0  0  0  0
   58.4370   33.0172   40.8187 H   0  0  0  0  0  0  0  0  0  0  0  0
   57.7063   31.3762   40.8187 H   0  0  0  0  0  0  0  0  0  0  0  0
   59.5969   34.3662   43.3737 H   0  0  0  0  0  0  0  0  0  0  0  0
   59.1663   35.5672   45.5168 H   0  0  0  0  0  0  0  0  0  0  0  0
   57.5782   34.6176   47.1879 H   0  0  0  0  0  0  0  0  0  0  0  0
   56.4165   32.4624   46.7253 H   0  0  0  0  0  0  0  0  0  0  0  0
   55.5615   31.0136   44.5758 H   0  0  0  0  0  0  0  0  0  0  0  0
   56.9237   30.5115   43.5202 H   0  0  0  0  0  0  0  0  0  0  0  0
   58.1575   28.1911   47.3343 H   0  0  0  0  0  0  0  0  0  0  0  0
   59.8852   28.5607   46.9041 H   0  0  0  0  0  0  0  0  0  0  0  0
   58.2068   28.6883   49.6213 H   0  0  0  0  0  0  0  0  0  0  0  0
   58.3580   31.0586   52.5267 H   0  0  0  0  0  0  0  0  0  0  0  0
   56.3360   30.4920   52.0730 H   0  0  0  0  0  0  0  0  0  0  0  0
   59.0860   28.2680   51.8310 H   0  0  0  0  0  0  0  0  0  0  0  0
   59.5812   29.6175   54.3813 H   0  0  0  0  0  0  0  0  0  0  0  0
   57.9350   28.9987   54.0154 H   0  0  0  0  0  0  0  0  0  0  0  0
   59.3372   27.8759   54.0154 H   0  0  0  0  0  0  0  0  0  0  0  0
   61.1026   29.7524   53.1226 H   0  0  0  0  0  0  0  0  0  0  0  0
   61.1667   28.8319   51.5814 H   0  0  0  0  0  0  0  0  0  0  0  0
   60.6345   30.5476   51.5814 H   0  0  0  0  0  0  0  0  0  0  0  0
   58.9636   32.5501   52.1788 H   0  0  0  0  0  0  0  0  0  0  0  0
   59.8305   33.6965   51.1013 H   0  0  0  0  0  0  0  0  0  0  0  0
   58.0349   33.6470   51.1013 H   0  0  0  0  0  0  0  0  0  0  0  0
   59.4046   34.0913   47.6912 H   0  0  0  0  0  0  0  0  0  0  0  0
   59.9720   34.2422   49.3999 H   0  0  0  0  0  0  0  0  0  0  0  0
   62.0784   32.5062   49.8696 H   0  0  0  0  0  0  0  0  0  0  0  0
   64.4534   32.3015   49.1357 H   0  0  0  0  0  0  0  0  0  0  0  0
   65.1458   33.1350   46.8850 H   0  0  0  0  0  0  0  0  0  0  0  0
   63.4539   34.1498   45.3552 H   0  0  0  0  0  0  0  0  0  0  0  0
   61.0740   34.3558   46.0812 H   0  0  0  0  0  0  0  0  0  0  0  0
  1  2  1  0
  2  3  1  0
  3  4  2  0
  4  5  1  0
  5  6  2  0
  6  7  1  0
  7  8  2  0
  8  9  1  0
  9 10  1  0
 10 11  1  0
 11 12  2  0
 11 13  1  0
 13 14  1  0
 14 15  2  0
 15 16  1  0
 16 17  1  0
 17 18  1  0
 17 19  1  0
 19 20  1  0
 19 21  1  0
 16 22  2  0
 22 23  1  0
 22 24  1  0
 24 25  1  0
 25 26  1  0
 26 27  2  0
 27 28  1  0
 28 29  2  0
 29 30  1  0
 30 31  2  0
 24 32  1  0
 32 33  2  0
  8  3  1  0
 32 14  1  0
 31 26  1  0
  1 34  1  0
  1 35  1  0
  1 36  1  0
  4 37  1  0
  5 38  1  0
  6 39  1  0
  7 40  1  0
  9 41  1  0
  9 42  1  0
 13 43  1  0
 13 44  1  0
 15 45  1  0
 17 46  1  1
 18 47  1  0
 19 48  1  0
 20 49  1  0
 20 50  1  0
 20 51  1  0
 21 52  1  0
 21 53  1  0
 21 54  1  0
 23 55  1  0
 23 56  1  0
 23 57  1  0
 25 58  1  0
 25 59  1  0
 27 60  1  0
 28 61  1  0
 29 62  1  0
 30 63  1  0
 31 64  1  0
M  CHG  2  10  -1  19   1
M  END
>  <UniqueID>  (11) 
10

>  <SMILES>  (11) 
COc1ccccc1C[N-]C(=O)Cc1cc([C@@H](O)[NH+](C)C)c(C)n(Cc2ccccc2)c1=O

>  <Energy>  (11) 
78.60246230986328

>  <Genealogy>  (11) 
COc1ccccc1C[N-]C(=O)Cc1cc(C(O)[NH+](C)C)c(C)n(Cc2ccccc2)c1=O (protonated)
COc1ccccc1C[N-]C(=O)Cc1cc([C@@H](O)[NH+](C)C)c(C)n(Cc2ccccc2)c1=O (chirality)
COc1ccccc1C[N-]C(=O)Cc1cc([C@@H](O)[NH+](C)C)c(C)n(Cc2ccccc2)c1=O (3D coordinates assigned)
COc1ccccc1C[N-]C(=O)Cc1cc([C@@H](O)[NH+](C)C)c(C)n(Cc2ccccc2)c1=O (optimized conformer: 78.60246230986328 kcal/mol)

>  <smiles>  (11) 
COc1ccccc1CNC(=O)Cc1cc(C(O)N(C)C)c(C)n(Cc2ccccc2)c1=O

>  <score_type>  (11) 
oracle

>  <origin>  (11) 
adg

>  <m_score__min__energy>  (11) 
-8.5700000000000003

>  <m_primary>  (11) 
energy

$$$$
11:0
     RDKit          3D

 61 63  0  0  0  0  0  0  0  0999 V2000
   56.7821   29.4037   45.0921 H   0  0  0  0  0  0  0  0  0  0  0  0
   57.0070   28.3690   45.3900 C   0  0  0  0  0  0  0  0  0  0  0  0
   56.0390   27.4570   45.6700 N   0  0  0  0  0  0  0  0  0  0  0  0
   56.5690   26.2570   45.9990 C   0  0  0  0  0  0  0  0  0  0  0  0
   55.8730   25.2160   46.3440 N   0  0  0  0  0  0  0  0  0  0  0  0
   54.7650   24.6550   45.6220 C   0  0  0  0  0  0  0  0  0  0  0  0
   53.6350   25.2130   45.6330 O   0  0  0  0  0  0  0  0  0  0  0  0
   54.9280   23.4360   44.8940 N   0  0  0  0  0  0  0  0  0  0  0  0
   55.5120   23.3660   43.5580 C   0  0  0  0  0  0  0  0  0  0  0  0
   54.8803   23.9333   42.8586 H   0  0  0  0  0  0  0  0  0  0  0  0
   55.5692   22.3103   43.2543 H   0  0  0  0  0  0  0  0  0  0  0  0
   56.9200   23.9530   43.5480 C   0  0  0  0  0  0  0  0  0  0  0  0
   57.2647   24.0967   44.5827 H   0  0  0  0  0  0  0  0  0  0  0  0
   57.6009   23.2638   43.0271 H   0  0  0  0  0  0  0  0  0  0  0  0
   56.9097   24.9218   43.0271 H   0  0  0  0  0  0  0  0  0  0  0  0
   58.2490   26.2710   45.9730 S   0  0  0  0  0  0  0  0  0  0  0  0
   58.3020   27.8870   45.5110 C   0  0  0  0  0  0  0  0  0  0  0  0
   59.7970   28.8510   45.3410 S   0  0  0  0  0  0  0  0  0  0  0  0
   59.3660   29.9660   46.6770 C   0  0  0  0  0  0  0  0  0  0  0  0
   58.6960   31.1560   46.3780 C   0  0  0  0  0  0  0  0  0  0  0  0
   58.4096   31.3719   45.3381 H   0  0  0  0  0  0  0  0  0  0  0  0
   58.3860   32.0740   47.3840 C   0  0  0  0  0  0  0  0  0  0  0  0
   57.6840   33.2710   47.0190 N   0  0  0  0  0  0  0  0  0  0  0  0
   58.1360   34.2460   46.0730 C   0  0  0  0  0  0  0  0  0  0  0  0
   57.4020   34.5350   45.0930 O   0  0  0  0  0  0  0  0  0  0  0  0
   59.3730   34.9380   46.2790 N   0  0  0  0  0  0  0  0  0  0  0  0
   60.5100   34.4350   46.9960 C   0  0  0  0  0  0  0  0  0  0  0  0
   60.5830   34.6430   48.3780 C   0  0  0  0  0  0  0  0  0  0  0  0
   59.7936   35.2162   48.8862 H   0  0  0  0  0  0  0  0  0  0  0  0
   61.6510   34.1280   49.1170 C   0  0  0  0  0  0  0  0  0  0  0  0
   61.6962   34.2970   50.2030 H   0  0  0  0  0  0  0  0  0  0  0  0
   62.6670   33.3960   48.4820 C   0  0  0  0  0  0  0  0  0  0  0  0
   63.7840   32.8390   49.2740 C   0  0  0  0  0  0  0  0  0  0  0  0
   64.9620   33.2060   49.0090 O   0  0  0  0  0  0  0  0  0  0  0  0
   63.5630   31.8710   50.3180 N   0  0  0  0  0  0  0  0  0  0  0  0
   64.5160   31.7860   51.4240 C   0  0  0  0  0  0  0  0  0  0  0  0
   63.9737   31.8344   52.3798 H   0  0  0  0  0  0  0  0  0  0  0  0
   65.0658   30.8353   51.3620 H   0  0  0  0  0  0  0  0  0  0  0  0
   65.2253   32.6244   51.3620 H   0  0  0  0  0  0  0  0  0  0  0  0
   62.4940   30.8740   50.1920 C   0  0  0  0  0  0  0  0  0  0  0  0
   62.1617   30.5641   51.1938 H   0  0  0  0  0  0  0  0  0  0  0  0
   61.6468   31.3120   49.6439 H   0  0  0  0  0  0  0  0  0  0  0  0
   62.8720   29.9984   49.6439 H   0  0  0  0  0  0  0  0  0  0  0  0
   62.5720   33.1510   47.1040 C   0  0  0  0  0  0  0  0  0  0  0  0
   63.3439   32.5496   46.6016 H   0  0  0  0  0  0  0  0  0  0  0  0
   61.5030   33.6660   46.3650 C   0  0  0  0  0  0  0  0  0  0  0  0
   61.4386   33.4685   45.2848 H   0  0  0  0  0  0  0  0  0  0  0  0
   58.8300   31.8400   48.7030 C   0  0  0  0  0  0  0  0  0  0  0  0
   58.6470   32.8380   49.6740 O   0  0  0  0  0  0  0  0  0  0  0  0
   58.9740   32.7060   51.0500 C   0  0  0  0  0  0  0  0  0  0  0  0
   58.1268   33.0480   51.6626 H   0  0  0  0  0  0  0  0  0  0  0  0
   59.1880   31.6511   51.2765 H   0  0  0  0  0  0  0  0  0  0  0  0
   59.8604   33.3167   51.2765 H   0  0  0  0  0  0  0  0  0  0  0  0
   59.4830   30.6290   49.0040 C   0  0  0  0  0  0  0  0  0  0  0  0
   59.7906   30.4207   50.0394 H   0  0  0  0  0  0  0  0  0  0  0  0
   59.7470   29.6820   47.9970 C   0  0  0  0  0  0  0  0  0  0  0  0
   60.3960   28.4660   48.2660 O   0  0  0  0  0  0  0  0  0  0  0  0
   60.5680   27.9180   49.5690 C   0  0  0  0  0  0  0  0  0  0  0  0
   60.3281   28.6823   50.3228 H   0  0  0  0  0  0  0  0  0  0  0  0
   59.8975   27.0552   49.6954 H   0  0  0  0  0  0  0  0  0  0  0  0
   61.6113   27.5931   49.6954 H   0  0  0  0  0  0  0  0  0  0  0  0
  1  2  1  0
  2  3  1  0
  3  4  1  0
  4  5  2  0
  5  6  1  0
  6  7  2  0
  6  8  1  0
  8  9  1  0
  9 10  1  0
  9 11  1  0
  9 12  1  0
 12 13  1  0
 12 14  1  0
 12 15  1  0
  4 16  1  0
 16 17  1  0
 17 18  1  0
 18 19  1  0
 19 20  2  0
 20 21  1  0
 20 22  1  0
 22 23  1  0
 23 24  1  0
 24 25  2  0
 24 26  1  0
 26 27  1  0
 27 28  2  0
 28 29  1  0
 28 30  1  0
 30 31  1  0
 30 32  2  0
 32 33  1  0
 33 34  2  0
 33 35  1  0
 35 36  1  0
 36 37  1  0
 36 38  1  0
 36 39  1  0
 35 40  1  0
 40 41  1  0
 40 42  1  0
 40 43  1  0
 32 44  1  0
 44 45  1  0
 44 46  2  0
 46 47  1  0
 22 48  2  0
 48 49  1  0
 49 50  1  0
 50 51  1  0
 50 52  1  0
 50 53  1  0
 48 54  1  0
 54 55  1  0
 54 56  2  0
 56 57  1  0
 57 58  1  0
 58 59  1  0
 58 60  1  0
 58 61  1  0
 17  2  2  0
 56 19  1  0
 46 27  1  0
M  CHG  4   3  -1   8  -1  23  -1  26  -1
M  END
>  <UniqueID>  (12) 
11

>  <SMILES>  (12) 
CC[N-]C(=O)/N=c1\[n-]cc(Sc2cc([N-]C(=O)[N-]c3ccc(C(=O)N(C)C)cc3)c(OC)cc2OC)s1

>  <Energy>  (12) 
96.36438885342147

>  <Genealogy>  (12) 
CC[N-]C(=O)N=c1[n-]cc(Sc2cc([N-]C(=O)[N-]c3ccc(C(=O)N(C)C)cc3)c(OC)cc2OC)s1 (protonated)
CC[N-]C(=O)/N=c1\[n-]cc(Sc2cc([N-]C(=O)[N-]c3ccc(C(=O)N(C)C)cc3)c(OC)cc2OC)s1 (cis-trans isomerization)
CC[N-]C(=O)/N=c1\[n-]cc(Sc2cc([N-]C(=O)[N-]c3ccc(C(=O)N(C)C)cc3)c(OC)cc2OC)s1 (3D coordinates assigned)
CC[N-]C(=O)/N=c1\[n-]cc(Sc2cc([N-]C(=O)[N-]c3ccc(C(=O)N(C)C)cc3)c(OC)cc2OC)s1 (optimized conformer: 96.36438885342147 kcal/mol)

>  <smiles>  (12) 
CCNC(=O)N=c1[nH]cc(Sc2cc(NC(=O)Nc3ccc(C(=O)N(C)C)cc3)c(OC)cc2OC)s1

>  <score_type>  (12) 
oracle

>  <origin>  (12) 
adg

>  <m_score__min__energy>  (12) 
-13.84

>  <m_primary>  (12) 
energy

$$$$
12:0
     RDKit          3D

 48 50  0  0  0  0  0  0  0  0999 V2000
   57.1110   21.7000   44.0800 C   0  0  0  0  0  0  0  0  0  0  0  0
   56.3980   22.9120   44.6030 C   0  0  0  0  0  0  0  0  0  0  0  0
   55.0220   23.0720   44.3820 C   0  0  0  0  0  0  0  0  0  0  0  0
   54.3630   24.2120   44.8490 C   0  0  0  0  0  0  0  0  0  0  0  0
   55.0760   25.2130   45.5170 C   0  0  0  0  0  0  0  0  0  0  0  0
   54.4070   26.3410   45.9780 O   0  0  0  0  0  0  0  0  0  0  0  0
   56.4590   25.0850   45.7050 C   0  0  0  0  0  0  0  0  0  0  0  0
   57.1680   26.1130   46.4090 N   0  0  0  0  0  0  0  0  0  0  0  0
   58.1560   25.9130   47.4290 C   0  0  0  0  0  0  0  0  0  0  0  0
   57.9110   25.0990   48.3580 O   0  0  0  0  0  0  0  0  0  0  0  0
   59.4290   26.7130   47.4740 C   0  0  0  0  0  0  0  0  0  0  0  0
   59.1370   28.1480   47.5160 N   0  0  0  0  0  0  0  0  0  0  0  0
   58.5480   28.8000   46.3770 C   0  0  0  0  0  0  0  0  0  0  0  0
   59.3580   29.4520   45.4400 C   0  0  0  0  0  0  0  0  0  0  0  0
   58.7920   30.0760   44.3250 C   0  0  0  0  0  0  0  0  0  0  0  0
   57.4010   30.0580   44.1210 C   0  0  0  0  0  0  0  0  0  0  0  0
   56.8320   30.7290   42.9240 C   0  0  0  0  0  0  0  0  0  0  0  0
   57.1920   31.8920   42.5990 O   0  0  0  0  0  0  0  0  0  0  0  0
   55.8860   30.0800   42.1400 O   0  0  0  0  0  0  0  0  0  0  0  0
   56.5850   29.3960   45.0660 C   0  0  0  0  0  0  0  0  0  0  0  0
   55.2030   29.3470   44.9160 O   0  0  0  0  0  0  0  0  0  0  0  0
   57.1590   28.7760   46.1800 C   0  0  0  0  0  0  0  0  0  0  0  0
   59.6100   29.0910   48.8990 S   0  0  0  0  0  0  0  0  0  0  0  0
   60.6070   28.3270   49.7240 O   0  0  0  0  0  0  0  0  0  0  0  0
   58.4000   29.3530   49.7540 O   0  0  0  0  0  0  0  0  0  0  0  0
   60.3310   30.6130   48.3820 C   0  0  0  0  0  0  0  0  0  0  0  0
   59.7330   31.8270   48.7480 C   0  0  0  0  0  0  0  0  0  0  0  0
   60.3040   33.0400   48.3490 C   0  0  0  0  0  0  0  0  0  0  0  0
   61.4740   33.0460   47.5850 C   0  0  0  0  0  0  0  0  0  0  0  0
   62.0270   34.2220   47.2000 F   0  0  0  0  0  0  0  0  0  0  0  0
   62.0740   31.8380   47.2180 C   0  0  0  0  0  0  0  0  0  0  0  0
   61.5040   30.6240   47.6130 C   0  0  0  0  0  0  0  0  0  0  0  0
   57.1140   23.9240   45.2600 C   0  0  0  0  0  0  0  0  0  0  0  0
   57.4686   21.0922   44.9242 H   0  0  0  0  0  0  0  0  0  0  0  0
   56.4195   21.1042   43.4662 H   0  0  0  0  0  0  0  0  0  0  0  0
   57.9677   22.0150   43.4662 H   0  0  0  0  0  0  0  0  0  0  0  0
   54.4601   22.2975   43.8393 H   0  0  0  0  0  0  0  0  0  0  0  0
   53.2801   24.3227   44.6909 H   0  0  0  0  0  0  0  0  0  0  0  0
   59.9993   26.4340   48.3723 H   0  0  0  0  0  0  0  0  0  0  0  0
   60.0146   26.4974   46.5682 H   0  0  0  0  0  0  0  0  0  0  0  0
   60.4485   29.4734   45.5824 H   0  0  0  0  0  0  0  0  0  0  0  0
   59.4418   30.5868   43.5991 H   0  0  0  0  0  0  0  0  0  0  0  0
   56.5147   28.2639   46.9098 H   0  0  0  0  0  0  0  0  0  0  0  0
   58.8126   31.8257   49.3504 H   0  0  0  0  0  0  0  0  0  0  0  0
   59.8313   33.9906   48.6371 H   0  0  0  0  0  0  0  0  0  0  0  0
   62.9957   31.8425   46.6177 H   0  0  0  0  0  0  0  0  0  0  0  0
   61.9767   29.6750   47.3199 H   0  0  0  0  0  0  0  0  0  0  0  0
   58.1949   23.8079   45.4278 H   0  0  0  0  0  0  0  0  0  0  0  0
  1  2  1  0
  2  3  2  0
  3  4  1  0
  4  5  2  0
  5  6  1  0
  5  7  1  0
  7  8  1  0
  8  9  1  0
  9 10  2  0
  9 11  1  0
 11 12  1  0
 12 13  1  0
 13 14  2  0
 14 15  1  0
 15 16  2  0
 16 17  1  0
 17 18  2  0
 17 19  1  0
 16 20  1  0
 20 21  1  0
 20 22  2  0
 12 23  1  0
 23 24  2  0
 23 25  2  0
 23 26  1  0
 26 27  2  0
 27 28  1  0
 28 29  2  0
 29 30  1  0
 29 31  1  0
 31 32  2  0
  7 33  2  0
 33  2  1  0
 22 13  1  0
 32 26  1  0
  1 34  1  0
  1 35  1  0
  1 36  1  0
  3 37  1  0
  4 38  1  0
 11 39  1  0
 11 40  1  0
 14 41  1  0
 15 42  1  0
 22 43  1  0
 27 44  1  0
 28 45  1  0
 31 46  1  0
 32 47  1  0
 33 48  1  0
M  CHG  4   6  -1   8  -1  19  -1  21  -1
M  END
>  <UniqueID>  (13) 
12

>  <SMILES>  (13) 
Cc1ccc([O-])c([N-]C(=O)CN(c2ccc(C(=O)[O-])c([O-])c2)S(=O)(=O)c2ccc(F)cc2)c1

>  <Energy>  (13) 
62.0646737137569

>  <Genealogy>  (13) 
Cc1ccc([O-])c([N-]C(=O)CN(c2ccc(C(=O)[O-])c([O-])c2)S(=O)(=O)c2ccc(F)cc2)c1 (protonated)
Cc1ccc([O-])c([N-]C(=O)CN(c2ccc(C(=O)[O-])c([O-])c2)S(=O)(=O)c2ccc(F)cc2)c1 (3D coordinates assigned)
Cc1ccc([O-])c([N-]C(=O)CN(c2ccc(C(=O)[O-])c([O-])c2)S(=O)(=O)c2ccc(F)cc2)c1 (optimized conformer: 62.0646737137569 kcal/mol)

>  <smiles>  (13) 
Cc1ccc(O)c(NC(=O)CN(c2ccc(C(=O)O)c(O)c2)S(=O)(=O)c2ccc(F)cc2)c1

>  <score_type>  (13) 
oracle

>  <origin>  (13) 
adg

>  <m_score__min__energy>  (13) 
-16.559999999999999

>  <m_primary>  (13) 
energy

$$$$
13:0
     RDKit          3D

 50 52  0  0  0  0  0  0  0  0999 V2000
   56.6450   30.7320   43.5110 C   0  0  0  0  0  0  0  0  0  0  0  0
   56.7050   31.3580   44.7880 O   0  0  0  0  0  0  0  0  0  0  0  0
   57.5700   32.4160   45.1110 C   0  0  0  0  0  0  0  0  0  0  0  0
   58.1890   33.2110   44.1270 C   0  0  0  0  0  0  0  0  0  0  0  0
   59.0260   34.2640   44.5020 C   0  0  0  0  0  0  0  0  0  0  0  0
   59.2610   34.5290   45.8530 C   0  0  0  0  0  0  0  0  0  0  0  0
   58.6730   33.7340   46.8430 C   0  0  0  0  0  0  0  0  0  0  0  0
   58.9300   34.0450   48.1870 O   0  0  0  0  0  0  0  0  0  0  0  0
   60.1450   33.8380   48.8510 C   0  0  0  0  0  0  0  0  0  0  0  0
   60.4840   34.5820   49.8110 O   0  0  0  0  0  0  0  0  0  0  0  0
   61.0050   32.7040   48.4620 C   0  0  0  0  0  0  0  0  0  0  0  0
   61.0210   31.4200   48.9810 C   0  0  0  0  0  0  0  0  0  0  0  0
   59.9880   30.7570   50.2940 S   0  0  0  0  0  0  0  0  0  0  0  0
   58.8830   29.8290   49.1730 C   0  0  0  0  0  0  0  0  0  0  0  0
   59.6720   28.9650   48.2280 C   0  0  0  0  0  0  0  0  0  0  0  0
   60.7260   28.4250   48.6630 O   0  0  0  0  0  0  0  0  0  0  0  0
   59.2570   28.7210   46.8630 N   0  0  0  0  0  0  0  0  0  0  0  0
   60.1680   27.9740   45.9770 C   0  0  0  0  0  0  0  0  0  0  0  0
   59.7470   28.0790   44.5070 C   0  0  0  0  0  0  0  0  0  0  0  0
   58.2780   27.6780   44.3100 C   0  0  0  0  0  0  0  0  0  0  0  0
   57.3350   28.2240   45.4040 C   0  0  0  0  0  0  0  0  0  0  0  0
   58.0020   29.2610   46.3140 C   0  0  0  0  0  0  0  0  0  0  0  0
   61.9650   30.7060   48.3450 N   0  0  0  0  0  0  0  0  0  0  0  0
   62.5290   31.4740   47.4620 O   0  0  0  0  0  0  0  0  0  0  0  0
   61.9970   32.6760   47.4880 C   0  0  0  0  0  0  0  0  0  0  0  0
   62.4250   33.7930   46.5940 C   0  0  0  0  0  0  0  0  0  0  0  0
   57.8130   32.6860   46.4630 C   0  0  0  0  0  0  0  0  0  0  0  0
   56.5408   29.6446   43.6402 H   0  0  0  0  0  0  0  0  0  0  0  0
   55.7799   31.1195   42.9530 H   0  0  0  0  0  0  0  0  0  0  0  0
   57.5680   30.9481   42.9530 H   0  0  0  0  0  0  0  0  0  0  0  0
   58.0129   33.0022   43.0615 H   0  0  0  0  0  0  0  0  0  0  0  0
   59.5020   34.8871   43.7305 H   0  0  0  0  0  0  0  0  0  0  0  0
   59.9122   35.3676   46.1405 H   0  0  0  0  0  0  0  0  0  0  0  0
   58.2170   29.1908   49.7722 H   0  0  0  0  0  0  0  0  0  0  0  0
   58.2990   30.5501   48.5822 H   0  0  0  0  0  0  0  0  0  0  0  0
   61.1840   28.3813   46.0862 H   0  0  0  0  0  0  0  0  0  0  0  0
   60.1333   26.9136   46.2673 H   0  0  0  0  0  0  0  0  0  0  0  0
   59.8818   29.1175   44.1703 H   0  0  0  0  0  0  0  0  0  0  0  0
   60.3732   27.3913   43.9197 H   0  0  0  0  0  0  0  0  0  0  0  0
   57.9403   28.0627   43.3364 H   0  0  0  0  0  0  0  0  0  0  0  0
   58.2336   26.5803   44.3650 H   0  0  0  0  0  0  0  0  0  0  0  0
   56.4682   28.6934   44.9159 H   0  0  0  0  0  0  0  0  0  0  0  0
   57.0424   27.3736   46.0374 H   0  0  0  0  0  0  0  0  0  0  0  0
   58.2204   30.1686   45.7321 H   0  0  0  0  0  0  0  0  0  0  0  0
   57.3211   29.5025   47.1435 H   0  0  0  0  0  0  0  0  0  0  0  0
   62.2150   29.7070   48.5160 H   0  0  0  0  0  0  0  0  0  0  0  0
   62.7522   34.6470   47.2052 H   0  0  0  0  0  0  0  0  0  0  0  0
   63.2577   33.4560   45.9591 H   0  0  0  0  0  0  0  0  0  0  0  0
   61.5803   34.0987   45.9591 H   0  0  0  0  0  0  0  0  0  0  0  0
   57.3270   32.0731   47.2364 H   0  0  0  0  0  0  0  0  0  0  0  0
  1  2  1  0
  2  3  1  0
  3  4  2  0
  4  5  1  0
  5  6  2  0
  6  7  1  0
  7  8  1  0
  8  9  1  0
  9 10  2  0
  9 11  1  0
 11 12  1  0
 12 13  1  0
 13 14  1  0
 14 15  1  0
 15 16  2  0
 15 17  1  0
 17 18  1  0
 18 19  1  0
 19 20  1  0
 20 21  1  0
 21 22  1  0
 12 23  2  0
 23 24  1  0
 24 25  1  0
 25 26  1  0
  7 27  2  0
 27  3  1  0
 25 11  2  0
 22 17  1  0
  1 28  1  0
  1 29  1  0
  1 30  1  0
  4 31  1  0
  5 32  1  0
  6 33  1  0
 14 34  1  0
 14 35  1  0
 18 36  1  0
 18 37  1  0
 19 38  1  0
 19 39  1  0
 20 40  1  0
 20 41  1  0
 21 42  1  0
 21 43  1  0
 22 44  1  0
 22 45  1  0
 23 46  1  0
 26 47  1  0
 26 48  1  0
 26 49  1  0
 27 50  1  0
M  CHG  1  23   1
M  END
>  <UniqueID>  (14) 
13

>  <SMILES>  (14) 
COc1cccc(OC(=O)c2c(SCC(=O)N3CCCCC3)[nH+]oc2C)c1

>  <Energy>  (14) 
82.3424846302335

>  <Genealogy>  (14) 
COc1cccc(OC(=O)c2c(SCC(=O)N3CCCCC3)[nH+]oc2C)c1 (protonated)
COc1cccc(OC(=O)c2c(SCC(=O)N3CCCCC3)[nH+]oc2C)c1 (3D coordinates assigned)
COc1cccc(OC(=O)c2c(SCC(=O)N3CCCCC3)[nH+]oc2C)c1 (nonaromatic ring conformer: 82.3424846302335 kcal/mol)

>  <smiles>  (14) 
COc1cccc(OC(=O)c2c(SCC(=O)N3CCCCC3)noc2C)c1

>  <score_type>  (14) 
oracle

>  <origin>  (14) 
adg

>  <m_score__min__energy>  (14) 
-7.46

>  <m_primary>  (14) 
energy

$$$$
14:0
     RDKit          3D

 42 43  0  0  0  0  0  0  0  0999 V2000
   55.2877   25.7029   44.5568 H   0  0  0  0  0  0  0  0  0  0  0  0
   55.7750   25.3900   45.4920 C   0  0  0  0  0  0  0  0  0  0  0  0
   55.1260   24.7210   46.3410 O   0  0  0  0  0  0  0  0  0  0  0  0
   57.1860   25.7580   45.7420 C   0  0  0  0  0  0  0  0  0  0  0  0
   58.0630   24.7270   46.1270 C   0  0  0  0  0  0  0  0  0  0  0  0
   57.6623   23.7226   46.3285 H   0  0  0  0  0  0  0  0  0  0  0  0
   59.4300   24.9580   46.2570 C   0  0  0  0  0  0  0  0  0  0  0  0
   60.0982   24.1395   46.5631 H   0  0  0  0  0  0  0  0  0  0  0  0
   59.9520   26.2200   46.0010 C   0  0  0  0  0  0  0  0  0  0  0  0
   61.0363   26.3890   46.0768 H   0  0  0  0  0  0  0  0  0  0  0  0
   59.1080   27.2750   45.6480 C   0  0  0  0  0  0  0  0  0  0  0  0
   59.6440   28.4670   45.4260 O   0  0  0  0  0  0  0  0  0  0  0  0
   58.9310   29.5400   45.1150 C   0  0  0  0  0  0  0  0  0  0  0  0
   59.5340   30.6300   44.9270 O   0  0  0  0  0  0  0  0  0  0  0  0
   57.5280   29.4650   45.0270 C   0  0  0  0  0  0  0  0  0  0  0  0
   56.7150   30.6690   44.7060 C   0  0  0  0  0  0  0  0  0  0  0  0
   55.4760   30.5480   44.5110 O   0  0  0  0  0  0  0  0  0  0  0  0
   57.3450   31.9620   44.6530 N   0  0  0  0  0  0  0  0  0  0  0  0
   56.9760   33.0800   45.2150 C   0  0  0  0  0  0  0  0  0  0  0  0
   56.0795   33.5771   44.8161 H   0  0  0  0  0  0  0  0  0  0  0  0
   57.6850   33.7440   46.3710 C   0  0  0  0  0  0  0  0  0  0  0  0
   57.0088   33.7568   47.2385 H   0  0  0  0  0  0  0  0  0  0  0  0
   57.9580   34.7614   46.0543 H   0  0  0  0  0  0  0  0  0  0  0  0
   58.9380   33.0400   46.7540 N   0  0  0  0  0  0  0  0  0  0  0  0
   58.9840   32.1790   46.1580 H   0  0  0  0  0  0  0  0  0  0  0  0
   60.1790   33.7950   46.4150 C   0  0  0  0  0  0  0  0  0  0  0  0
   60.6565   33.2955   45.5592 H   0  0  0  0  0  0  0  0  0  0  0  0
   60.7924   33.7934   47.3281 H   0  0  0  0  0  0  0  0  0  0  0  0
   59.9740   35.2760   46.0460 C   0  0  0  0  0  0  0  0  0  0  0  0
   59.8911   35.8748   46.9650 H   0  0  0  0  0  0  0  0  0  0  0  0
   60.8319   35.6287   45.4547 H   0  0  0  0  0  0  0  0  0  0  0  0
   59.0526   35.3824   45.4547 H   0  0  0  0  0  0  0  0  0  0  0  0
   58.9290   32.5120   48.1460 C   0  0  0  0  0  0  0  0  0  0  0  0
   57.8810   32.4131   48.4652 H   0  0  0  0  0  0  0  0  0  0  0  0
   59.4714   31.5556   48.1122 H   0  0  0  0  0  0  0  0  0  0  0  0
   59.6590   33.3770   49.1790 C   0  0  0  0  0  0  0  0  0  0  0  0
   59.3828   33.0497   50.1922 H   0  0  0  0  0  0  0  0  0  0  0  0
   60.7455   33.2719   49.0432 H   0  0  0  0  0  0  0  0  0  0  0  0
   59.3727   34.4304   49.0432 H   0  0  0  0  0  0  0  0  0  0  0  0
   56.9140   28.2170   45.2640 C   0  0  0  0  0  0  0  0  0  0  0  0
   55.5250   28.1380   45.2450 O   0  0  0  0  0  0  0  0  0  0  0  0
   57.7080   27.0740   45.5380 C   0  0  0  0  0  0  0  0  0  0  0  0
  1  2  1  0
  2  3  2  0
  2  4  1  0
  4  5  2  0
  5  6  1  0
  5  7  1  0
  7  8  1  0
  7  9  2  0
  9 10  1  0
  9 11  1  0
 11 12  1  0
 12 13  1  0
 13 14  2  0
 13 15  1  0
 15 16  1  0
 16 17  2  0
 16 18  1  0
 18 19  2  0
 19 20  1  0
 19 21  1  0
 21 22  1  0
 21 23  1  0
 21 24  1  0
 24 25  1  0
 24 26  1  0
 26 27  1  0
 26 28  1  0
 26 29  1  0
 29 30  1  0
 29 31  1  0
 29 32  1  0
 24 33  1  0
 33 34  1  0
 33 35  1  0
 33 36  1  0
 36 37  1  0
 36 38  1  0
 36 39  1  0
 15 40  2  0
 40 41  1  0
 40 42  1  0
 42  4  1  0
 42 11  2  0
M  CHG  2  24   1  41  -1
M  END
>  <UniqueID>  (15) 
14

>  <SMILES>  (15) 
CC[NH+](CC)C/C=N\C(=O)c1c([O-])c2c(C=O)cccc2oc1=O

>  <Energy>  (15) 
71.78537680795827

>  <Genealogy>  (15) 
CC[NH+](CC)CC=NC(=O)c1c([O-])c2c(C=O)cccc2oc1=O (protonated)
CC[NH+](CC)C/C=N\C(=O)c1c([O-])c2c(C=O)cccc2oc1=O (cis-trans isomerization)
CC[NH+](CC)C/C=N\C(=O)c1c([O-])c2c(C=O)cccc2oc1=O (3D coordinates assigned)
CC[NH+](CC)C/C=N\C(=O)c1c([O-])c2c(C=O)cccc2oc1=O (optimized conformer: 71.78537680795827 kcal/mol)

>  <smiles>  (15) 
CCN(CC)CC=NC(=O)c1c(O)c2c(C=O)cccc2oc1=O

>  <score_type>  (15) 
oracle

>  <origin>  (15) 
adg

>  <m_score__min__energy>  (15) 
-8.7400000000000002

>  <m_primary>  (15) 
energy

$$$$
15:0
     RDKit          3D

 61 64  0  0  0  0  0  0  0  0999 V2000
   57.7920   22.7520   44.2490 C   0  0  0  0  0  0  0  0  0  0  0  0
   57.1290   23.8580   43.6410 O   0  0  0  0  0  0  0  0  0  0  0  0
   57.3900   25.2030   43.9450 C   0  0  0  0  0  0  0  0  0  0  0  0
   57.7670   26.1370   42.9630 C   0  0  0  0  0  0  0  0  0  0  0  0
   58.0210   27.4640   43.3160 C   0  0  0  0  0  0  0  0  0  0  0  0
   57.9040   27.8750   44.6490 C   0  0  0  0  0  0  0  0  0  0  0  0
   58.1760   29.2460   44.9990 N   0  0  0  0  0  0  0  0  0  0  0  0
   59.4380   29.6310   45.3790 C   0  0  0  0  0  0  0  0  0  0  0  0
   60.5770   28.6440   45.4340 C   0  0  0  0  0  0  0  0  0  0  0  0
   59.6750   30.9720   45.7120 C   0  0  0  0  0  0  0  0  0  0  0  0
   58.6660   31.8900   45.6580 N   0  0  0  0  0  0  0  0  0  0  0  0
   58.9730   33.3000   45.9550 C   0  0  0  0  0  0  0  0  0  0  0  0
   60.1010   33.3810   46.9470 C   0  0  0  0  0  0  0  0  0  0  0  0
   61.4290   33.2080   46.5270 C   0  0  0  0  0  0  0  0  0  0  0  0
   62.4700   33.2060   47.4600 C   0  0  0  0  0  0  0  0  0  0  0  0
   62.1960   33.3770   48.8230 C   0  0  0  0  0  0  0  0  0  0  0  0
   63.5060   33.3030   49.9990 S   0  0  0  0  0  0  0  0  0  0  0  0
   63.2720   32.1700   50.9610 O   0  0  0  0  0  0  0  0  0  0  0  0
   63.5420   34.5880   50.7790 O   0  0  0  0  0  0  0  0  0  0  0  0
   65.0290   33.0820   49.1900 N   0  0  0  0  0  0  0  0  0  0  0  0
   65.9830   32.4440   50.0980 C   0  0  0  0  0  0  0  0  0  0  0  0
   66.8250   33.4880   50.7590 C   0  0  0  0  0  0  0  0  0  0  0  0
   66.4300   34.3070   51.8090 C   0  0  0  0  0  0  0  0  0  0  0  0
   67.4550   35.1420   52.2700 C   0  0  0  0  0  0  0  0  0  0  0  0
   68.6580   34.9720   51.5960 C   0  0  0  0  0  0  0  0  0  0  0  0
   68.4470   33.7800   50.4280 S   0  0  0  0  0  0  0  0  0  0  0  0
   60.8720   33.5490   49.2470 C   0  0  0  0  0  0  0  0  0  0  0  0
   59.8300   33.5480   48.3150 C   0  0  0  0  0  0  0  0  0  0  0  0
   57.4100   31.5030   45.2700 C   0  0  0  0  0  0  0  0  0  0  0  0
   56.4700   32.3430   45.2050 O   0  0  0  0  0  0  0  0  0  0  0  0
   57.1620   30.1650   44.9410 C   0  0  0  0  0  0  0  0  0  0  0  0
   55.9990   29.8140   44.5900 O   0  0  0  0  0  0  0  0  0  0  0  0
   57.5220   26.9550   45.6400 C   0  0  0  0  0  0  0  0  0  0  0  0
   57.4060   27.4040   46.9650 O   0  0  0  0  0  0  0  0  0  0  0  0
   58.5060   27.6430   47.8350 C   0  0  0  0  0  0  0  0  0  0  0  0
   57.2690   25.6180   45.2760 C   0  0  0  0  0  0  0  0  0  0  0  0
   57.7351   22.8469   45.3434 H   0  0  0  0  0  0  0  0  0  0  0  0
   57.3059   21.8161   43.9364 H   0  0  0  0  0  0  0  0  0  0  0  0
   58.8466   22.7397   43.9364 H   0  0  0  0  0  0  0  0  0  0  0  0
   57.8620   25.8210   41.9136 H   0  0  0  0  0  0  0  0  0  0  0  0
   58.3144   28.1896   42.5431 H   0  0  0  0  0  0  0  0  0  0  0  0
   60.8253   28.4288   46.4838 H   0  0  0  0  0  0  0  0  0  0  0  0
   60.2800   27.7129   44.9292 H   0  0  0  0  0  0  0  0  0  0  0  0
   61.4564   29.0704   44.9292 H   0  0  0  0  0  0  0  0  0  0  0  0
   60.6830   31.2873   46.0195 H   0  0  0  0  0  0  0  0  0  0  0  0
   59.2661   33.8127   45.0269 H   0  0  0  0  0  0  0  0  0  0  0  0
   58.0810   33.7826   46.3810 H   0  0  0  0  0  0  0  0  0  0  0  0
   61.6518   33.0733   45.4583 H   0  0  0  0  0  0  0  0  0  0  0  0
   63.5081   33.0697   47.1226 H   0  0  0  0  0  0  0  0  0  0  0  0
   64.8530   32.4300   48.3910 H   0  0  0  0  0  0  0  0  0  0  0  0
   65.4349   31.8769   50.8648 H   0  0  0  0  0  0  0  0  0  0  0  0
   66.6300   31.7623   49.5264 H   0  0  0  0  0  0  0  0  0  0  0  0
   65.4158   34.3003   52.2348 H   0  0  0  0  0  0  0  0  0  0  0  0
   67.3205   35.8644   53.0886 H   0  0  0  0  0  0  0  0  0  0  0  0
   69.5896   35.5229   51.7926 H   0  0  0  0  0  0  0  0  0  0  0  0
   60.6517   33.6852   50.3161 H   0  0  0  0  0  0  0  0  0  0  0  0
   58.7921   33.6787   48.6549 H   0  0  0  0  0  0  0  0  0  0  0  0
   58.1698   27.5699   48.8798 H   0  0  0  0  0  0  0  0  0  0  0  0
   59.2901   26.8943   47.6489 H   0  0  0  0  0  0  0  0  0  0  0  0
   58.9087   28.6496   47.6489 H   0  0  0  0  0  0  0  0  0  0  0  0
   56.9728   24.8915   46.0470 H   0  0  0  0  0  0  0  0  0  0  0  0
  1  2  1  0
  2  3  1  0
  3  4  2  0
  4  5  1  0
  5  6  2  0
  6  7  1  0
  7  8  1  0
  8  9  1  0
  8 10  2  0
 10 11  1  0
 11 12  1  0
 12 13  1  0
 13 14  2  0
 14 15  1  0
 15 16  2  0
 16 17  1  0
 17 18  2  0
 17 19  2  0
 17 20  1  0
 20 21  1  0
 21 22  1  0
 22 23  2  0
 23 24  1  0
 24 25  2  0
 25 26  1  0
 16 27  1  0
 27 28  2  0
 11 29  1  0
 29 30  2  0
 29 31  1  0
 31 32  2  0
  6 33  1  0
 33 34  1  0
 34 35  1  0
 33 36  2  0
 36  3  1  0
 31  7  1  0
 28 13  1  0
 26 22  1  0
  1 37  1  0
  1 38  1  0
  1 39  1  0
  4 40  1  0
  5 41  1  0
  9 42  1  0
  9 43  1  0
  9 44  1  0
 10 45  1  0
 12 46  1  0
 12 47  1  0
 14 48  1  0
 15 49  1  0
 20 50  1  0
 21 51  1  0
 21 52  1  0
 23 53  1  0
 24 54  1  0
 25 55  1  0
 27 56  1  0
 28 57  1  0
 35 58  1  0
 35 59  1  0
 35 60  1  0
 36 61  1  0
M  END
>  <UniqueID>  (16) 
15

>  <SMILES>  (16) 
COc1ccc(-n2c(C)cn(Cc3ccc(S(=O)(=O)NCc4cccs4)cc3)c(=O)c2=O)c(OC)c1

>  <Energy>  (16) 
98.08209348075775

>  <Genealogy>  (16) 
COc1ccc(-n2c(C)cn(Cc3ccc(S(=O)(=O)NCc4cccs4)cc3)c(=O)c2=O)c(OC)c1 (3D coordinates assigned)
COc1ccc(-n2c(C)cn(Cc3ccc(S(=O)(=O)NCc4cccs4)cc3)c(=O)c2=O)c(OC)c1 (optimized conformer: 98.08209348075775 kcal/mol)

>  <smiles>  (16) 
COc1ccc(-n2c(C)cn(Cc3ccc(S(=O)(=O)NCc4cccs4)cc3)c(=O)c2=O)c(OC)c1

>  <score_type>  (16) 
oracle

>  <origin>  (16) 
adg

>  <m_score__min__energy>  (16) 
-9.7300000000000004

>  <m_primary>  (16) 
energy

$$$$
16:0
     RDKit          3D

 78 81  0  0  0  0  0  0  0  0999 V2000
   58.0180   31.9470   53.3650 C   0  0  0  0  0  0  0  0  0  0  0  0
   57.5590   31.3570   52.0180 C   0  0  0  0  0  0  0  0  0  0  0  0
   58.2150   29.9800   51.8310 C   0  0  0  0  0  0  0  0  0  0  0  0
   56.0270   31.1990   52.0110 C   0  0  0  0  0  0  0  0  0  0  0  0
   57.9730   32.2060   50.8930 N   0  0  0  0  0  0  0  0  0  0  0  0
   59.2790   32.2530   50.3030 C   0  0  0  0  0  0  0  0  0  0  0  0
   60.1380   33.0360   50.7910 O   0  0  0  0  0  0  0  0  0  0  0  0
   59.6000   31.4940   49.0740 C   0  0  0  0  0  0  0  0  0  0  0  0
   60.5950   30.5080   49.1580 C   0  0  0  0  0  0  0  0  0  0  0  0
   60.9160   29.7260   48.0540 C   0  0  0  0  0  0  0  0  0  0  0  0
   60.2430   29.9080   46.8510 C   0  0  0  0  0  0  0  0  0  0  0  0
   59.2420   30.8840   46.7350 C   0  0  0  0  0  0  0  0  0  0  0  0
   58.5220   30.9840   45.4420 C   0  0  0  0  0  0  0  0  0  0  0  0
   58.3280   32.2480   44.8570 C   0  0  0  0  0  0  0  0  0  0  0  0
   57.7120   32.3590   43.6080 C   0  0  0  0  0  0  0  0  0  0  0  0
   57.3030   31.2130   42.9240 C   0  0  0  0  0  0  0  0  0  0  0  0
   57.5110   29.9500   43.4840 C   0  0  0  0  0  0  0  0  0  0  0  0
   58.1160   29.8230   44.7430 C   0  0  0  0  0  0  0  0  0  0  0  0
   58.3300   28.4770   45.3100 C   0  0  0  0  0  0  0  0  0  0  0  0
   59.4720   27.9520   45.2350 O   0  0  0  0  0  0  0  0  0  0  0  0
   57.2320   27.7610   45.9000 N   0  0  0  0  0  0  0  0  0  0  0  0
   57.2900   26.3500   46.2950 C   0  0  2  0  0  0  0  0  0  0  0  0
   58.2400   25.5770   45.3580 C   0  0  0  0  0  0  0  0  0  0  0  0
   57.5900   24.3490   44.7660 C   0  0  0  0  0  0  0  0  0  0  0  0
   57.8150   23.0830   45.3340 C   0  0  0  0  0  0  0  0  0  0  0  0
   57.2180   21.9460   44.7760 C   0  0  0  0  0  0  0  0  0  0  0  0
   56.3960   22.0620   43.6530 C   0  0  0  0  0  0  0  0  0  0  0  0
   56.1670   23.3170   43.0830 C   0  0  0  0  0  0  0  0  0  0  0  0
   56.7590   24.4570   43.6370 C   0  0  0  0  0  0  0  0  0  0  0  0
   55.9010   25.7650   46.3620 C   0  0  0  0  0  0  0  0  0  0  0  0
   54.9150   26.4390   45.9510 O   0  0  0  0  0  0  0  0  0  0  0  0
   55.6900   24.4680   46.8170 O   0  0  0  0  0  0  0  0  0  0  0  0
   58.9110   31.6990   47.8490 C   0  0  0  0  0  0  0  0  0  0  0  0
   57.7810   32.7010   47.7570 C   0  0  0  0  0  0  0  0  0  0  0  0
   58.3100   33.9920   47.3300 N   0  0  0  0  0  0  0  0  0  0  0  0
   59.5580   34.5510   47.7560 C   0  0  0  0  0  0  0  0  0  0  0  0
   59.6300   35.0600   48.9020 O   0  0  0  0  0  0  0  0  0  0  0  0
   60.7770   34.5590   46.8760 C   0  0  0  0  0  0  0  0  0  0  0  0
   61.8990   33.7980   47.5320 C   0  0  0  0  0  0  0  0  0  0  0  0
   62.4650   32.6780   46.8940 C   0  0  0  0  0  0  0  0  0  0  0  0
   63.5040   31.9670   47.5050 C   0  0  0  0  0  0  0  0  0  0  0  0
   63.9840   32.3660   48.7590 C   0  0  0  0  0  0  0  0  0  0  0  0
   63.4270   33.4780   49.4000 C   0  0  0  0  0  0  0  0  0  0  0  0
   62.3940   34.1960   48.7880 C   0  0  0  0  0  0  0  0  0  0  0  0
   57.5704   31.3717   54.1888 H   0  0  0  0  0  0  0  0  0  0  0  0
   59.1145   31.8938   53.4340 H   0  0  0  0  0  0  0  0  0  0  0  0
   57.6968   32.9968   53.4340 H   0  0  0  0  0  0  0  0  0  0  0  0
   58.4258   29.5375   52.8158 H   0  0  0  0  0  0  0  0  0  0  0  0
   57.5336   29.3221   51.2717 H   0  0  0  0  0  0  0  0  0  0  0  0
   59.1552   30.0947   51.2717 H   0  0  0  0  0  0  0  0  0  0  0  0
   55.6576   31.1609   53.0464 H   0  0  0  0  0  0  0  0  0  0  0  0
   55.5725   32.0550   51.4908 H   0  0  0  0  0  0  0  0  0  0  0  0
   55.7568   30.2682   51.4908 H   0  0  0  0  0  0  0  0  0  0  0  0
   61.1271   30.3520   50.1080 H   0  0  0  0  0  0  0  0  0  0  0  0
   61.7036   28.9621   48.1325 H   0  0  0  0  0  0  0  0  0  0  0  0
   60.4975   29.2817   45.9833 H   0  0  0  0  0  0  0  0  0  0  0  0
   58.6627   33.1531   45.3850 H   0  0  0  0  0  0  0  0  0  0  0  0
   57.5490   33.3515   43.1627 H   0  0  0  0  0  0  0  0  0  0  0  0
   56.8159   31.3045   41.9420 H   0  0  0  0  0  0  0  0  0  0  0  0
   57.1984   29.0499   42.9343 H   0  0  0  0  0  0  0  0  0  0  0  0
   56.3180   28.2600   46.0140 H   0  0  0  0  0  0  0  0  0  0  0  0
   57.7089   26.2609   47.3082 H   0  0  0  0  0  0  0  0  0  0  0  0
   58.5481   26.2435   44.5389 H   0  0  0  0  0  0  0  0  0  0  0  0
   59.1033   25.2458   45.9539 H   0  0  0  0  0  0  0  0  0  0  0  0
   58.4614   22.9854   46.2187 H   0  0  0  0  0  0  0  0  0  0  0  0
   57.3972   20.9575   45.2240 H   0  0  0  0  0  0  0  0  0  0  0  0
   55.9292   21.1662   43.2176 H   0  0  0  0  0  0  0  0  0  0  0  0
   55.5206   23.4087   42.1977 H   0  0  0  0  0  0  0  0  0  0  0  0
   56.5733   25.4434   43.1869 H   0  0  0  0  0  0  0  0  0  0  0  0
   57.0376   32.3494   47.0264 H   0  0  0  0  0  0  0  0  0  0  0  0
   57.3041   32.8077   48.7425 H   0  0  0  0  0  0  0  0  0  0  0  0
   60.5326   34.0870   45.9129 H   0  0  0  0  0  0  0  0  0  0  0  0
   61.0959   35.5994   46.7151 H   0  0  0  0  0  0  0  0  0  0  0  0
   62.0887   32.3602   45.9104 H   0  0  0  0  0  0  0  0  0  0  0  0
   63.9440   31.0943   47.0002 H   0  0  0  0  0  0  0  0  0  0  0  0
   64.7989   31.8050   49.2399 H   0  0  0  0  0  0  0  0  0  0  0  0
   63.8019   33.7881   50.3866 H   0  0  0  0  0  0  0  0  0  0  0  0
   61.9665   35.0760   49.2909 H   0  0  0  0  0  0  0  0  0  0  0  0
  1  2  1  0
  2  3  1  0
  2  4  1  0
  2  5  1  0
  5  6  1  0
  6  7  2  0
  6  8  1  0
  8  9  2  0
  9 10  1  0
 10 11  2  0
 11 12  1  0
 12 13  1  0
 13 14  2  0
 14 15  1  0
 15 16  2  0
 16 17  1  0
 17 18  2  0
 18 19  1  0
 19 20  2  0
 19 21  1  0
 21 22  1  0
 22 23  1  0
 23 24  1  0
 24 25  2  0
 25 26  1  0
 26 27  2  0
 27 28  1  0
 28 29  2  0
 22 30  1  0
 30 31  2  0
 30 32  1  0
 12 33  2  0
 33 34  1  0
 34 35  1  0
 35 36  1  0
 36 37  2  0
 36 38  1  0
 38 39  1  0
 39 40  2  0
 40 41  1  0
 41 42  2  0
 42 43  1  0
 43 44  2  0
 33  8  1  0
 44 39  1  0
 18 13  1  0
 29 24  1  0
  1 45  1  0
  1 46  1  0
  1 47  1  0
  3 48  1  0
  3 49  1  0
  3 50  1  0
  4 51  1  0
  4 52  1  0
  4 53  1  0
  9 54  1  0
 10 55  1  0
 11 56  1  0
 14 57  1  0
 15 58  1  0
 16 59  1  0
 17 60  1  0
 21 61  1  0
 22 62  1  1
 23 63  1  0
 23 64  1  0
 25 65  1  0
 26 66  1  0
 27 67  1  0
 28 68  1  0
 29 69  1  0
 34 70  1  0
 34 71  1  0
 38 72  1  0
 38 73  1  0
 40 74  1  0
 41 75  1  0
 42 76  1  0
 43 77  1  0
 44 78  1  0
M  CHG  3   5  -1  32  -1  35  -1
M  END
>  <UniqueID>  (17) 
16

>  <SMILES>  (17) 
CC(C)(C)[N-]C(=O)c1cccc(-c2ccccc2C(=O)N[C@H](Cc2ccccc2)C(=O)[O-])c1C[N-]C(=O)Cc1ccccc1

>  <Energy>  (17) 
94.2206096756856

>  <Genealogy>  (17) 
CC(C)(C)[N-]C(=O)c1cccc(-c2ccccc2C(=O)NC(Cc2ccccc2)C(=O)[O-])c1C[N-]C(=O)Cc1ccccc1 (protonated)
CC(C)(C)[N-]C(=O)c1cccc(-c2ccccc2C(=O)N[C@H](Cc2ccccc2)C(=O)[O-])c1C[N-]C(=O)Cc1ccccc1 (chirality)
CC(C)(C)[N-]C(=O)c1cccc(-c2ccccc2C(=O)N[C@H](Cc2ccccc2)C(=O)[O-])c1C[N-]C(=O)Cc1ccccc1 (3D coordinates assigned)
CC(C)(C)[N-]C(=O)c1cccc(-c2ccccc2C(=O)N[C@H](Cc2ccccc2)C(=O)[O-])c1C[N-]C(=O)Cc1ccccc1 (optimized conformer: 94.2206096756856 kcal/mol)

>  <smiles>  (17) 
CC(C)(C)NC(=O)c1cccc(-c2ccccc2C(=O)NC(Cc2ccccc2)C(=O)O)c1CNC(=O)Cc1ccccc1

>  <score_type>  (17) 
oracle

>  <origin>  (17) 
adg

>  <m_score__min__energy>  (17) 
-15.56

>  <m_primary>  (17) 
energy

$$$$
17:0
     RDKit          3D

 53 57  0  0  0  0  0  0  0  0999 V2000
   58.8910   31.5840   48.4590 O   0  0  0  0  0  0  0  0  0  0  0  0
   59.3480   30.7830   49.3160 C   0  0  0  0  0  0  0  0  0  0  0  0
   60.4210   31.2400   50.2530 C   0  0  0  0  0  0  0  0  0  0  0  0
   62.0150   30.4620   49.8160 S   0  0  0  0  0  0  0  0  0  0  0  0
   62.5160   31.7640   48.6820 C   0  0  0  0  0  0  0  0  0  0  0  0
   63.7240   32.4450   48.8850 C   0  0  0  0  0  0  0  0  0  0  0  0
   64.0920   33.4650   48.0050 C   0  0  0  0  0  0  0  0  0  0  0  0
   63.2610   33.7880   46.9310 C   0  0  0  0  0  0  0  0  0  0  0  0
   62.0690   33.0780   46.7490 C   0  0  0  0  0  0  0  0  0  0  0  0
   61.7220   32.0880   47.6210 N   0  0  0  0  0  0  0  0  0  0  0  0
   58.7910   29.4720   49.4760 N   0  0  0  0  0  0  0  0  0  0  0  0
   58.9620   28.3310   48.6210 C   0  0  0  0  0  0  0  0  0  0  0  0
   60.1190   27.5570   48.7720 C   0  0  0  0  0  0  0  0  0  0  0  0
   60.3480   26.4550   47.9460 C   0  0  0  0  0  0  0  0  0  0  0  0
   59.4250   26.1170   46.9550 C   0  0  0  0  0  0  0  0  0  0  0  0
   58.2630   26.8860   46.7740 C   0  0  0  0  0  0  0  0  0  0  0  0
   57.2910   26.5260   45.7180 C   0  0  0  0  0  0  0  0  0  0  0  0
   56.0540   26.5330   45.9700 O   0  0  0  0  0  0  0  0  0  0  0  0
   57.7440   26.1790   44.4380 O   0  0  0  0  0  0  0  0  0  0  0  0
   58.2000   27.1300   43.4770 C   0  0  0  0  0  0  0  0  0  0  0  0
   58.5620   28.4280   44.1390 C   0  0  0  0  0  0  0  0  0  0  0  0
   59.7780   28.5590   44.8430 C   0  0  0  0  0  0  0  0  0  0  0  0
   60.0640   29.7770   45.4770 C   0  0  0  0  0  0  0  0  0  0  0  0
   61.1390   29.9250   46.1190 O   0  0  0  0  0  0  0  0  0  0  0  0
   59.1620   30.7890   45.3880 N   0  0  0  0  0  0  0  0  0  0  0  0
   59.2980   31.9820   45.9620 N   0  0  0  0  0  0  0  0  0  0  0  0
   58.2430   32.7990   45.7220 C   0  0  0  0  0  0  0  0  0  0  0  0
   58.1670   34.1890   46.2950 C   0  0  0  0  0  0  0  0  0  0  0  0
   59.1010   34.5440   47.4450 C   0  0  0  0  0  0  0  0  0  0  0  0
   59.4170   35.0190   46.0350 C   0  0  0  0  0  0  0  0  0  0  0  0
   57.0660   32.0260   44.7600 S   0  0  0  0  0  0  0  0  0  0  0  0
   58.0120   30.6410   44.7000 C   0  0  0  0  0  0  0  0  0  0  0  0
   57.6930   29.4790   44.0790 N   0  0  0  0  0  0  0  0  0  0  0  0
   58.0440   28.0020   47.6040 C   0  0  0  0  0  0  0  0  0  0  0  0
   60.5201   32.3335   50.1861 H   0  0  0  0  0  0  0  0  0  0  0  0
   60.1493   30.9492   51.2785 H   0  0  0  0  0  0  0  0  0  0  0  0
   64.3763   32.1785   49.7297 H   0  0  0  0  0  0  0  0  0  0  0  0
   65.0339   34.0122   48.1578 H   0  0  0  0  0  0  0  0  0  0  0  0
   63.5403   34.5925   46.2348 H   0  0  0  0  0  0  0  0  0  0  0  0
   61.4106   33.3186   45.9013 H   0  0  0  0  0  0  0  0  0  0  0  0
   60.8230   31.5740   47.4730 H   0  0  0  0  0  0  0  0  0  0  0  0
   60.8535   27.8193   49.5477 H   0  0  0  0  0  0  0  0  0  0  0  0
   61.2583   25.8514   48.0765 H   0  0  0  0  0  0  0  0  0  0  0  0
   59.6083   25.2436   46.3120 H   0  0  0  0  0  0  0  0  0  0  0  0
   59.0861   26.7276   42.9643 H   0  0  0  0  0  0  0  0  0  0  0  0
   57.3909   27.3167   42.7555 H   0  0  0  0  0  0  0  0  0  0  0  0
   60.4888   27.7210   44.8936 H   0  0  0  0  0  0  0  0  0  0  0  0
   57.0823   34.2952   46.1463 H   0  0  0  0  0  0  0  0  0  0  0  0
   58.7813   35.2668   48.2101 H   0  0  0  0  0  0  0  0  0  0  0  0
   59.6424   33.9712   48.2123 H   0  0  0  0  0  0  0  0  0  0  0  0
   59.3259   36.0853   45.7807 H   0  0  0  0  0  0  0  0  0  0  0  0
   60.2818   34.9318   45.3608 H   0  0  0  0  0  0  0  0  0  0  0  0
   57.1479   28.6228   47.4571 H   0  0  0  0  0  0  0  0  0  0  0  0
  1  2  2  0
  2  3  1  0
  3  4  1  0
  4  5  1  0
  5  6  2  0
  6  7  1  0
  7  8  2  0
  8  9  1  0
  9 10  2  0
  2 11  1  0
 11 12  1  0
 12 13  2  0
 13 14  1  0
 14 15  2  0
 15 16  1  0
 16 17  1  0
 17 18  2  0
 17 19  1  0
 19 20  1  0
 20 21  1  0
 21 22  2  0
 22 23  1  0
 23 24  2  0
 23 25  1  0
 25 26  1  0
 26 27  2  0
 27 28  1  0
 28 29  1  0
 29 30  1  0
 27 31  1  0
 31 32  1  0
 32 33  2  0
 16 34  2  0
 10  5  1  0
 34 12  1  0
 33 21  1  0
 32 25  1  0
 30 28  1  0
  3 35  1  0
  3 36  1  0
  6 37  1  0
  7 38  1  0
  8 39  1  0
  9 40  1  0
 10 41  1  0
 13 42  1  0
 14 43  1  0
 15 44  1  0
 20 45  1  0
 20 46  1  0
 22 47  1  0
 28 48  1  0
 29 49  1  0
 29 50  1  0
 30 51  1  0
 30 52  1  0
 34 53  1  0
M  CHG  2  10   1  11  -1
M  END
>  <UniqueID>  (18) 
17

>  <SMILES>  (18) 
O=C(CSc1cccc[nH+]1)[N-]c1cccc(C(=O)OCc2cc(=O)n3nc(C4CC4)sc3n2)c1

>  <Energy>  (18) 
359.06145048734675

>  <Genealogy>  (18) 
O=C(CSc1cccc[nH+]1)[N-]c1cccc(C(=O)OCc2cc(=O)n3nc(C4CC4)sc3n2)c1 (protonated)
O=C(CSc1cccc[nH+]1)[N-]c1cccc(C(=O)OCc2cc(=O)n3nc(C4CC4)sc3n2)c1 (3D coordinates assigned)
O=C(CSc1cccc[nH+]1)[N-]c1cccc(C(=O)OCc2cc(=O)n3nc(C4CC4)sc3n2)c1 (nonaromatic ring conformer: 359.06145048734675 kcal/mol)

>  <smiles>  (18) 
O=C(CSc1ccccn1)Nc1cccc(C(=O)OCc2cc(=O)n3nc(C4CC4)sc3n2)c1

>  <score_type>  (18) 
oracle

>  <origin>  (18) 
adg

>  <m_score__min__energy>  (18) 
-9.5800000000000001

>  <m_primary>  (18) 
energy

$$$$
18:0
     RDKit          3D

 80 84  0  0  0  0  0  0  0  0999 V2000
   58.6902   35.3933   47.9840 H   0  0  0  0  0  0  0  0  0  0  0  0
   59.6590   34.8870   47.8610 C   0  0  0  0  0  0  0  0  0  0  0  0
   60.5810   34.8220   48.8570 N   0  0  0  0  0  0  0  0  0  0  0  0
   61.6890   34.1530   48.4700 C   0  0  0  0  0  0  0  0  0  0  0  0
   62.7110   33.9880   49.2530 N   0  0  0  0  0  0  0  0  0  0  0  0
   63.8550   33.1860   48.9330 C   0  0  0  0  0  0  0  0  0  0  0  0
   64.5330   33.4760   47.9120 O   0  0  0  0  0  0  0  0  0  0  0  0
   64.2910   32.0800   49.8180 C   0  0  0  0  0  0  0  0  0  0  0  0
   65.6420   31.9520   50.1810 C   0  0  0  0  0  0  0  0  0  0  0  0
   66.3863   32.6504   49.7709 H   0  0  0  0  0  0  0  0  0  0  0  0
   66.0470   30.9430   51.0600 C   0  0  0  0  0  0  0  0  0  0  0  0
   67.1110   30.8387   51.3188 H   0  0  0  0  0  0  0  0  0  0  0  0
   65.1060   30.0630   51.6140 C   0  0  0  0  0  0  0  0  0  0  0  0
   65.5410   29.0400   52.6360 C   0  0  0  0  0  0  0  0  0  0  0  0
   65.0553   29.2739   53.5949 H   0  0  0  0  0  0  0  0  0  0  0  0
   66.6374   29.0920   52.7078 H   0  0  0  0  0  0  0  0  0  0  0  0
   65.1720   27.5940   52.2370 C   0  0  0  0  0  0  0  0  0  0  0  0
   64.3356   27.6313   51.5235 H   0  0  0  0  0  0  0  0  0  0  0  0
   64.9054   27.0591   53.1605 H   0  0  0  0  0  0  0  0  0  0  0  0
   66.3370   26.8260   51.5850 C   0  0  0  0  0  0  0  0  0  0  0  0
   65.9294   26.1581   50.8118 H   0  0  0  0  0  0  0  0  0  0  0  0
   66.8500   26.2633   52.3789 H   0  0  0  0  0  0  0  0  0  0  0  0
   67.3680   27.7560   50.9360 C   0  0  0  0  0  0  0  0  0  0  0  0
   68.1378   28.0131   51.6785 H   0  0  0  0  0  0  0  0  0  0  0  0
   66.8508   28.6617   50.5864 H   0  0  0  0  0  0  0  0  0  0  0  0
   68.0350   27.0850   49.7380 C   0  0  0  0  0  0  0  0  0  0  0  0
   68.7690   26.3466   50.0930 H   0  0  0  0  0  0  0  0  0  0  0  0
   67.2713   26.5793   49.1289 H   0  0  0  0  0  0  0  0  0  0  0  0
   68.5453   27.8456   49.1289 H   0  0  0  0  0  0  0  0  0  0  0  0
   63.7570   30.1860   51.2490 C   0  0  0  0  0  0  0  0  0  0  0  0
   63.0117   29.4967   51.6726 H   0  0  0  0  0  0  0  0  0  0  0  0
   63.3530   31.1780   50.3510 C   0  0  0  0  0  0  0  0  0  0  0  0
   62.2950   31.2536   50.0595 H   0  0  0  0  0  0  0  0  0  0  0  0
   61.5840   33.6300   46.8680 S   0  0  0  0  0  0  0  0  0  0  0  0
   60.0330   34.2640   46.6720 C   0  0  0  0  0  0  0  0  0  0  0  0
   59.2300   34.2820   45.4020 C   0  0  0  0  0  0  0  0  0  0  0  0
   58.4572   35.0610   45.4792 H   0  0  0  0  0  0  0  0  0  0  0  0
   59.9137   34.4886   44.5654 H   0  0  0  0  0  0  0  0  0  0  0  0
   58.5630   32.9550   45.1490 C   0  0  0  0  0  0  0  0  0  0  0  0
   57.9510   32.7010   43.9140 C   0  0  0  0  0  0  0  0  0  0  0  0
   58.0140   33.4480   43.1090 H   0  0  0  0  0  0  0  0  0  0  0  0
   57.2620   31.5060   43.6990 C   0  0  0  0  0  0  0  0  0  0  0  0
   56.7903   31.3150   42.7238 H   0  0  0  0  0  0  0  0  0  0  0  0
   57.1670   30.5440   44.7220 C   0  0  0  0  0  0  0  0  0  0  0  0
   56.4000   29.2950   44.5100 C   0  0  0  0  0  0  0  0  0  0  0  0
   55.1420   29.3140   44.4870 O   0  0  0  0  0  0  0  0  0  0  0  0
   57.0790   28.0600   44.2840 N   0  0  0  0  0  0  0  0  0  0  0  0
   58.2960   27.6980   45.0040 C   0  0  0  0  0  0  0  0  0  0  0  0
   58.5363   26.6380   44.8346 H   0  0  0  0  0  0  0  0  0  0  0  0
   59.4600   28.5490   44.5000 C   0  0  0  0  0  0  0  0  0  0  0  0
   59.6530   28.3031   43.4454 H   0  0  0  0  0  0  0  0  0  0  0  0
   59.1872   29.6090   44.6097 H   0  0  0  0  0  0  0  0  0  0  0  0
   60.7360   28.2910   45.3150 C   0  0  0  0  0  0  0  0  0  0  0  0
   61.0985   27.2780   45.0860 H   0  0  0  0  0  0  0  0  0  0  0  0
   61.4661   29.0640   45.0334 H   0  0  0  0  0  0  0  0  0  0  0  0
   60.5250   28.3960   46.7740 N   0  0  0  0  0  0  0  0  0  0  0  0
   60.8540   29.6920   47.4070 C   0  0  0  0  0  0  0  0  0  0  0  0
   61.9487   29.7790   47.4708 H   0  0  0  0  0  0  0  0  0  0  0  0
   60.4054   30.4776   46.7813 H   0  0  0  0  0  0  0  0  0  0  0  0
   60.2820   29.8540   48.7940 C   0  0  0  0  0  0  0  0  0  0  0  0
   60.7270   29.0390   49.8470 C   0  0  0  0  0  0  0  0  0  0  0  0
   61.4804   28.2606   49.6559 H   0  0  0  0  0  0  0  0  0  0  0  0
   60.2170   29.2120   51.1380 C   0  0  0  0  0  0  0  0  0  0  0  0
   60.5818   28.5811   51.9619 H   0  0  0  0  0  0  0  0  0  0  0  0
   59.2450   30.1850   51.3820 C   0  0  0  0  0  0  0  0  0  0  0  0
   58.8557   30.3303   52.4005 H   0  0  0  0  0  0  0  0  0  0  0  0
   58.7670   30.9740   50.3320 C   0  0  0  0  0  0  0  0  0  0  0  0
   57.9923   31.7313   50.5226 H   0  0  0  0  0  0  0  0  0  0  0  0
   59.2720   30.8020   49.0400 C   0  0  0  0  0  0  0  0  0  0  0  0
   58.8782   31.4102   48.2124 H   0  0  0  0  0  0  0  0  0  0  0  0
   59.3500   27.6750   47.3020 C   0  0  0  0  0  0  0  0  0  0  0  0
   59.5629   26.5960   47.2820 H   0  0  0  0  0  0  0  0  0  0  0  0
   59.1725   28.0400   48.3244 H   0  0  0  0  0  0  0  0  0  0  0  0
   58.0730   27.9360   46.4940 C   0  0  0  0  0  0  0  0  0  0  0  0
   57.2809   27.2605   46.8493 H   0  0  0  0  0  0  0  0  0  0  0  0
   57.7835   28.9877   46.6360 H   0  0  0  0  0  0  0  0  0  0  0  0
   57.7890   30.7990   45.9570 C   0  0  0  0  0  0  0  0  0  0  0  0
   57.7338   30.0502   46.7609 H   0  0  0  0  0  0  0  0  0  0  0  0
   58.4770   31.9970   46.1710 C   0  0  0  0  0  0  0  0  0  0  0  0
   58.9527   32.1895   47.1440 H   0  0  0  0  0  0  0  0  0  0  0  0
  1  2  1  0
  2  3  1  0
  3  4  1  0
  4  5  2  0
  5  6  1  0
  6  7  2  0
  6  8  1  0
  8  9  2  0
  9 10  1  0
  9 11  1  0
 11 12  1  0
 11 13  2  0
 13 14  1  0
 14 15  1  0
 14 16  1  0
 14 17  1  0
 17 18  1  0
 17 19  1  0
 17 20  1  0
 20 21  1  0
 20 22  1  0
 20 23  1  0
 23 24  1  0
 23 25  1  0
 23 26  1  0
 26 27  1  0
 26 28  1  0
 26 29  1  0
 13 30  1  0
 30 31  1  0
 30 32  2  0
 32 33  1  0
  4 34  1  0
 34 35  1  0
 35 36  1  0
 36 37  1  0
 36 38  1  0
 36 39  1  0
 39 40  2  0
 40 41  1  0
 40 42  1  0
 42 43  1  0
 42 44  2  0
 44 45  1  0
 45 46  2  0
 45 47  1  0
 47 48  1  0
 48 49  1  0
 48 50  1  0
 50 51  1  0
 50 52  1  0
 50 53  1  0
 53 54  1  0
 53 55  1  0
 53 56  1  0
 56 57  1  0
 57 58  1  0
 57 59  1  0
 57 60  1  0
 60 61  2  0
 61 62  1  0
 61 63  1  0
 63 64  1  0
 63 65  2  0
 65 66  1  0
 65 67  1  0
 67 68  1  0
 67 69  2  0
 69 70  1  0
 56 71  1  0
 71 72  1  0
 71 73  1  0
 71 74  1  0
 74 75  1  0
 74 76  1  0
 44 77  1  0
 77 78  1  0
 77 79  2  0
 79 80  1  0
 35  2  2  0
 79 39  1  0
 32  8  1  0
 74 48  1  0
 69 60  1  0
M  CHG  2   3  -1  47  -1
M  END
>  <UniqueID>  (19) 
18

>  <SMILES>  (19) 
CCCCCc1ccc(C(=O)/N=c2/[n-]cc(Cc3ccc(C(=O)[N-]C4CCN(Cc5ccccc5)CC4)cc3)s2)cc1

>  <Energy>  (19) 
126.60423507423988

>  <Genealogy>  (19) 
CCCCCc1ccc(C(=O)N=c2[n-]cc(Cc3ccc(C(=O)[N-]C4CCN(Cc5ccccc5)CC4)cc3)s2)cc1 (protonated)
CCCCCc1ccc(C(=O)/N=c2/[n-]cc(Cc3ccc(C(=O)[N-]C4CCN(Cc5ccccc5)CC4)cc3)s2)cc1 (cis-trans isomerization)
CCCCCc1ccc(C(=O)/N=c2/[n-]cc(Cc3ccc(C(=O)[N-]C4CCN(Cc5ccccc5)CC4)cc3)s2)cc1 (3D coordinates assigned)
CCCCCc1ccc(C(=O)/N=c2/[n-]cc(Cc3ccc(C(=O)[N-]C4CCN(Cc5ccccc5)CC4)cc3)s2)cc1 (nonaromatic ring conformer: 126.60423507423988 kcal/mol)

>  <smiles>  (19) 
CCCCCc1ccc(C(=O)N=c2[nH]cc(Cc3ccc(C(=O)NC4CCN(Cc5ccccc5)CC4)cc3)s2)cc1

>  <score_type>  (19) 
oracle

>  <origin>  (19) 
adg

>  <m_score__min__energy>  (19) 
-13.07

>  <m_primary>  (19) 
energy

$$$$
19:0
     RDKit          3D

 46 48  0  0  0  0  0  0  0  0999 V2000
   57.6709   34.6644   44.9804 H   0  0  0  0  0  0  0  0  0  0  0  0
   57.8220   33.5800   45.0860 C   0  0  0  0  0  0  0  0  0  0  0  0
   57.3960   32.7170   44.0750 C   0  0  0  0  0  0  0  0  0  0  0  0
   56.9287   33.1300   43.1689 H   0  0  0  0  0  0  0  0  0  0  0  0
   57.5570   31.3280   44.2010 C   0  0  0  0  0  0  0  0  0  0  0  0
   57.0620   30.4340   43.0940 C   0  0  0  0  0  0  0  0  0  0  0  0
   56.5724   29.5497   43.5280 H   0  0  0  0  0  0  0  0  0  0  0  0
   56.3404   30.9848   42.4729 H   0  0  0  0  0  0  0  0  0  0  0  0
   57.9118   30.1147   42.4729 H   0  0  0  0  0  0  0  0  0  0  0  0
   58.1810   30.8070   45.3610 C   0  0  0  0  0  0  0  0  0  0  0  0
   58.4090   29.3560   45.5430 C   0  0  0  0  0  0  0  0  0  0  0  0
   59.6920   28.8670   45.8150 C   0  0  0  0  0  0  0  0  0  0  0  0
   60.5381   29.5655   45.8936 H   0  0  0  0  0  0  0  0  0  0  0  0
   59.9040   27.4990   45.9870 C   0  0  0  0  0  0  0  0  0  0  0  0
   60.9186   27.1274   46.1929 H   0  0  0  0  0  0  0  0  0  0  0  0
   58.8350   26.5900   45.9000 C   0  0  0  0  0  0  0  0  0  0  0  0
   59.1260   25.1200   46.0380 C   0  0  0  0  0  0  0  0  0  0  0  0
   59.1784   24.8551   47.1043 H   0  0  0  0  0  0  0  0  0  0  0  0
   58.3251   24.5408   45.5553 H   0  0  0  0  0  0  0  0  0  0  0  0
   60.0872   24.8896   45.5553 H   0  0  0  0  0  0  0  0  0  0  0  0
   57.5230   27.0830   45.6800 C   0  0  0  0  0  0  0  0  0  0  0  0
   56.3340   26.2020   45.6340 C   0  0  0  0  0  0  0  0  0  0  0  0
   55.2700   26.5720   46.2010 O   0  0  0  0  0  0  0  0  0  0  0  0
   56.3690   24.8630   44.9650 C   0  0  0  0  0  0  0  0  0  0  0  0
   56.3897   24.0718   45.7290 H   0  0  0  0  0  0  0  0  0  0  0  0
   55.4737   24.7432   44.3373 H   0  0  0  0  0  0  0  0  0  0  0  0
   57.2694   24.7902   44.3373 H   0  0  0  0  0  0  0  0  0  0  0  0
   57.3300   28.4620   45.4850 C   0  0  0  0  0  0  0  0  0  0  0  0
   56.3186   28.8450   45.2841 H   0  0  0  0  0  0  0  0  0  0  0  0
   58.5920   31.6860   46.3770 C   0  0  0  0  0  0  0  0  0  0  0  0
   59.0382   31.2795   47.2966 H   0  0  0  0  0  0  0  0  0  0  0  0
   58.4430   33.0690   46.2380 C   0  0  0  0  0  0  0  0  0  0  0  0
   58.8610   33.9200   47.3190 N   0  0  0  0  0  0  0  0  0  0  0  0
   59.9650   33.8280   48.0050 C   0  0  0  0  0  0  0  0  0  0  0  0
   61.1500   33.5470   47.3960 N   0  0  0  0  0  0  0  0  0  0  0  0
   62.3040   33.4270   48.1040 C   0  0  0  0  0  0  0  0  0  0  0  0
   63.5930   33.1210   47.3990 C   0  0  0  0  0  0  0  0  0  0  0  0
   63.6570   31.7790   47.0670 F   0  0  0  0  0  0  0  0  0  0  0  0
   63.6810   33.8730   46.2420 F   0  0  0  0  0  0  0  0  0  0  0  0
   64.6580   33.4300   48.2250 F   0  0  0  0  0  0  0  0  0  0  0  0
   62.2740   33.5840   49.4930 C   0  0  0  0  0  0  0  0  0  0  0  0
   63.1946   33.4922   50.0881 H   0  0  0  0  0  0  0  0  0  0  0  0
   61.0550   33.8590   50.1080 C   0  0  0  0  0  0  0  0  0  0  0  0
   61.0059   33.9849   51.1997 H   0  0  0  0  0  0  0  0  0  0  0  0
   59.9250   33.9720   49.3590 N   0  0  0  0  0  0  0  0  0  0  0  0
   59.0180   34.1760   49.8390 H   0  0  0  0  0  0  0  0  0  0  0  0
  1  2  1  0
  2  3  2  0
  3  4  1  0
  3  5  1  0
  5  6  1  0
  6  7  1  0
  6  8  1  0
  6  9  1  0
  5 10  2  0
 10 11  1  0
 11 12  2  0
 12 13  1  0
 12 14  1  0
 14 15  1  0
 14 16  2  0
 16 17  1  0
 17 18  1  0
 17 19  1  0
 17 20  1  0
 16 21  1  0
 21 22  1  0
 22 23  2  0
 22 24  1  0
 24 25  1  0
 24 26  1  0
 24 27  1  0
 21 28  2  0
 28 29  1  0
 10 30  1  0
 30 31  1  0
 30 32  2  0
 32 33  1  0
 33 34  2  0
 34 35  1  0
 35 36  2  0
 36 37  1  0
 37 38  1  0
 37 39  1  0
 37 40  1  0
 36 41  1  0
 41 42  1  0
 41 43  2  0
 43 44  1  0
 43 45  1  0
 45 46  1  0
 32  2  1  0
 45 34  1  0
 28 11  1  0
M  END
>  <UniqueID>  (20) 
19

>  <SMILES>  (20) 
CC(=O)c1cc(-c2cc(/N=c3\nc(C(F)(F)F)cc[nH]3)ccc2C)ccc1C

>  <Energy>  (20) 
66.56234982605662

>  <Genealogy>  (20) 
CC(=O)c1cc(-c2cc(/N=c3\nc(C(F)(F)F)cc[nH]3)ccc2C)ccc1C (cis-trans isomerization)
CC(=O)c1cc(-c2cc(/N=c3\nc(C(F)(F)F)cc[nH]3)ccc2C)ccc1C (3D coordinates assigned)
CC(=O)c1cc(-c2cc(/N=c3\nc(C(F)(F)F)cc[nH]3)ccc2C)ccc1C (optimized conformer: 66.56234982605662 kcal/mol)

>  <smiles>  (20) 
CC(=O)c1cc(-c2cc(N=c3nc(C(F)(F)F)cc[nH]3)ccc2C)ccc1C

>  <score_type>  (20) 
oracle

>  <origin>  (20) 
adg

>  <m_score__min__energy>  (20) 
-8.8300000000000001

>  <m_primary>  (20) 
energy

$$$$
20:0
     RDKit          3D

 45 49  0  0  0  0  0  0  0  0999 V2000
   50.3430   23.7210   43.8390 C   0  0  0  0  0  0  0  0  0  0  0  0
   50.8900   22.4490   44.1100 O   0  0  0  0  0  0  0  0  0  0  0  0
   51.4180   22.4370   45.4180 C   0  0  0  0  0  0  0  0  0  0  0  0
   52.7410   23.1270   45.4100 C   0  0  0  0  0  0  0  0  0  0  0  0
   52.8730   24.4630   45.6310 N   0  0  0  0  0  0  0  0  0  0  0  0
   54.2010   24.6190   45.5870 C   0  0  0  0  0  0  0  0  0  0  0  0
   54.8850   25.7780   45.7530 N   0  0  0  0  0  0  0  0  0  0  0  0
   56.2530   25.7630   45.6900 C   0  0  0  0  0  0  0  0  0  0  0  0
   56.9960   27.0220   45.8700 C   0  0  0  0  0  0  0  0  0  0  0  0
   58.2530   27.0580   46.3920 N   0  0  0  0  0  0  0  0  0  0  0  0
   58.5360   28.3670   46.3710 C   0  0  0  0  0  0  0  0  0  0  0  0
   59.6940   29.0100   46.7870 C   0  0  0  0  0  0  0  0  0  0  0  0
   59.7390   30.4090   46.6540 C   0  0  0  0  0  0  0  0  0  0  0  0
   58.6240   31.1140   46.1110 C   0  0  0  0  0  0  0  0  0  0  0  0
   58.6430   32.5550   45.9640 N   0  0  0  0  0  0  0  0  0  0  0  0
   57.3820   33.2750   45.7140 C   0  0  0  0  0  0  0  0  0  0  0  0
   57.5920   34.5600   44.8770 C   0  0  0  0  0  0  0  0  0  0  0  0
   58.9510   35.1260   44.9670 N   0  0  0  0  0  0  0  0  0  0  0  0
   59.5940   34.8210   46.2430 C   0  0  0  0  0  0  0  0  0  0  0  0
   59.8510   33.3190   46.3150 C   0  0  0  0  0  0  0  0  0  0  0  0
   57.5140   30.4080   45.7230 N   0  0  0  0  0  0  0  0  0  0  0  0
   57.4940   29.0610   45.8610 C   0  0  0  0  0  0  0  0  0  0  0  0
   56.4900   28.2400   45.5280 N   0  0  0  0  0  0  0  0  0  0  0  0
   56.9370   24.5380   45.4570 C   0  0  0  0  0  0  0  0  0  0  0  0
   56.2060   23.3470   45.2910 C   0  0  0  0  0  0  0  0  0  0  0  0
   54.8210   23.4360   45.3640 C   0  0  0  0  0  0  0  0  0  0  0  0
   53.9150   22.4550   45.2520 N   0  0  0  0  0  0  0  0  0  0  0  0
   50.1222   24.2346   44.7864 H   0  0  0  0  0  0  0  0  0  0  0  0
   51.0653   24.3149   43.2597 H   0  0  0  0  0  0  0  0  0  0  0  0
   49.4151   23.6053   43.2597 H   0  0  0  0  0  0  0  0  0  0  0  0
   50.7315   22.9621   46.0984 H   0  0  0  0  0  0  0  0  0  0  0  0
   51.5403   21.3992   45.7617 H   0  0  0  0  0  0  0  0  0  0  0  0
   60.5423   28.4475   47.2040 H   0  0  0  0  0  0  0  0  0  0  0  0
   60.6364   30.9614   46.9695 H   0  0  0  0  0  0  0  0  0  0  0  0
   56.6961   32.6080   45.1712 H   0  0  0  0  0  0  0  0  0  0  0  0
   56.9674   33.5734   46.6882 H   0  0  0  0  0  0  0  0  0  0  0  0
   57.3867   34.3222   43.8228 H   0  0  0  0  0  0  0  0  0  0  0  0
   56.9068   35.3178   45.2848 H   0  0  0  0  0  0  0  0  0  0  0  0
   58.8850   36.1650   44.8720 H   0  0  0  0  0  0  0  0  0  0  0  0
   60.5481   35.3636   46.3156 H   0  0  0  0  0  0  0  0  0  0  0  0
   58.9428   35.1299   47.0739 H   0  0  0  0  0  0  0  0  0  0  0  0
   60.6568   33.0588   45.6129 H   0  0  0  0  0  0  0  0  0  0  0  0
   60.1374   33.0636   47.3459 H   0  0  0  0  0  0  0  0  0  0  0  0
   58.0357   24.5215   45.4066 H   0  0  0  0  0  0  0  0  0  0  0  0
   56.7097   22.3858   45.1110 H   0  0  0  0  0  0  0  0  0  0  0  0
  1  2  1  0
  2  3  1  0
  3  4  1  0
  4  5  2  0
  5  6  1  0
  6  7  2  0
  7  8  1  0
  8  9  1  0
  9 10  2  0
 10 11  1  0
 11 12  2  0
 12 13  1  0
 13 14  2  0
 14 15  1  0
 15 16  1  0
 16 17  1  0
 17 18  1  0
 18 19  1  0
 19 20  1  0
 14 21  1  0
 21 22  2  0
 22 23  1  0
  8 24  2  0
 24 25  1  0
 25 26  2  0
 26 27  1  0
 27  4  1  0
 26  6  1  0
 23  9  1  0
 22 11  1  0
 20 15  1  0
  1 28  1  0
  1 29  1  0
  1 30  1  0
  3 31  1  0
  3 32  1  0
 12 33  1  0
 13 34  1  0
 16 35  1  0
 16 36  1  0
 17 37  1  0
 17 38  1  0
 18 39  1  0
 19 40  1  0
 19 41  1  0
 20 42  1  0
 20 43  1  0
 24 44  1  0
 25 45  1  0
M  CHG  2  23  -1  27  -1
M  END
>  <UniqueID>  (21) 
20

>  <SMILES>  (21) 
COCc1nc2nc(-c3nc4ccc(N5CCNCC5)nc4[n-]3)ccc2[n-]1

>  <Energy>  (21) 
129.0023125176488

>  <Genealogy>  (21) 
COCc1nc2nc(-c3nc4ccc(N5CCNCC5)nc4[n-]3)ccc2[n-]1 (protonated)
COCc1nc2nc(-c3nc4ccc(N5CCNCC5)nc4[n-]3)ccc2[n-]1 (3D coordinates assigned)
COCc1nc2nc(-c3nc4ccc(N5CCNCC5)nc4[n-]3)ccc2[n-]1 (nonaromatic ring conformer: 129.0023125176488 kcal/mol)

>  <smiles>  (21) 
COCc1nc2nc(-c3nc4ccc(N5CCNCC5)nc4[nH]3)ccc2[nH]1

>  <score_type>  (21) 
oracle

>  <origin>  (21) 
adg

>  <m_score__min__energy>  (21) 
-10.82

>  <m_primary>  (21) 
energy

$$$$
21:0
     RDKit          3D

 55 58  0  0  0  0  0  0  0  0999 V2000
   51.0210   32.3290   50.3230 N   0  0  0  0  0  0  0  0  0  0  0  0
   51.2700   32.0510   51.7010 C   0  0  0  0  0  0  0  0  0  0  0  0
   50.4570   32.4740   52.5690 O   0  0  0  0  0  0  0  0  0  0  0  0
   52.4650   31.2740   52.1110 C   0  0  0  0  0  0  0  0  0  0  0  0
   52.3420   30.2060   53.0180 C   0  0  0  0  0  0  0  0  0  0  0  0
   53.4690   29.4780   53.4090 C   0  0  0  0  0  0  0  0  0  0  0  0
   54.7270   29.7990   52.8950 C   0  0  0  0  0  0  0  0  0  0  0  0
   54.8680   30.8490   51.9720 C   0  0  0  0  0  0  0  0  0  0  0  0
   56.1560   31.2180   51.4480 N   0  0  0  0  0  0  0  0  0  0  0  0
   57.3360   30.4070   51.5640 C   0  0  0  0  0  0  0  0  0  0  0  0
   57.2670   29.2310   52.0120 O   0  0  0  0  0  0  0  0  0  0  0  0
   58.6640   30.9640   51.1720 C   0  0  0  0  0  0  0  0  0  0  0  0
   58.8430   30.7880   49.7710 O   0  0  0  0  0  0  0  0  0  0  0  0
   59.8680   31.3790   49.0140 C   0  0  0  0  0  0  0  0  0  0  0  0
   61.1770   30.8540   48.9960 C   0  0  0  0  0  0  0  0  0  0  0  0
   62.1640   31.4460   48.2050 C   0  0  0  0  0  0  0  0  0  0  0  0
   61.8640   32.5690   47.4340 C   0  0  0  0  0  0  0  0  0  0  0  0
   60.5740   33.1050   47.4510 C   0  0  0  0  0  0  0  0  0  0  0  0
   59.5680   32.5190   48.2380 C   0  0  0  0  0  0  0  0  0  0  0  0
   58.1680   33.0860   48.2190 C   0  0  0  0  0  0  0  0  0  0  0  0
   57.4990   32.7570   46.9630 N   0  0  0  0  0  0  0  0  0  0  0  0
   57.8460   33.3530   45.7090 C   0  0  0  0  0  0  0  0  0  0  0  0
   58.1530   34.5750   45.6540 O   0  0  0  0  0  0  0  0  0  0  0  0
   57.8300   32.5390   44.4850 C   0  0  0  0  0  0  0  0  0  0  0  0
   58.0480   33.0890   43.3740 O   0  0  0  0  0  0  0  0  0  0  0  0
   57.5880   31.0870   44.5360 C   0  0  0  0  0  0  0  0  0  0  0  0
   56.4350   30.4330   44.1070 C   0  0  0  0  0  0  0  0  0  0  0  0
   56.5400   29.1050   44.3330 N   0  0  0  0  0  0  0  0  0  0  0  0
   57.7350   28.9150   44.9210 C   0  0  0  0  0  0  0  0  0  0  0  0
   58.2560   27.7160   45.4040 C   0  0  0  0  0  0  0  0  0  0  0  0
   59.4970   27.7540   46.0660 C   0  0  0  0  0  0  0  0  0  0  0  0
   60.1800   28.9790   46.2430 C   0  0  0  0  0  0  0  0  0  0  0  0
   59.6310   30.1750   45.7450 C   0  0  0  0  0  0  0  0  0  0  0  0
   58.4080   30.1030   45.0680 C   0  0  0  0  0  0  0  0  0  0  0  0
   53.7370   31.5930   51.6000 C   0  0  0  0  0  0  0  0  0  0  0  0
   51.7420   32.8020   49.7340 H   0  0  0  0  0  0  0  0  0  0  0  0
   51.3533   29.9424   53.4218 H   0  0  0  0  0  0  0  0  0  0  0  0
   53.3647   28.6490   54.1244 H   0  0  0  0  0  0  0  0  0  0  0  0
   55.6112   29.2276   53.2139 H   0  0  0  0  0  0  0  0  0  0  0  0
   56.2210   32.1010   50.8910 H   0  0  0  0  0  0  0  0  0  0  0  0
   58.7018   32.0357   51.4172 H   0  0  0  0  0  0  0  0  0  0  0  0
   59.4630   30.4413   51.7181 H   0  0  0  0  0  0  0  0  0  0  0  0
   61.4217   29.9735   49.6083 H   0  0  0  0  0  0  0  0  0  0  0  0
   63.1804   31.0257   48.1900 H   0  0  0  0  0  0  0  0  0  0  0  0
   62.6437   33.0329   46.8121 H   0  0  0  0  0  0  0  0  0  0  0  0
   60.3439   33.9927   46.8436 H   0  0  0  0  0  0  0  0  0  0  0  0
   57.5945   32.6619   49.0564 H   0  0  0  0  0  0  0  0  0  0  0  0
   58.2264   34.1803   48.3145 H   0  0  0  0  0  0  0  0  0  0  0  0
   55.5646   30.9267   43.6501 H   0  0  0  0  0  0  0  0  0  0  0  0
   55.8140   28.3800   44.1320 H   0  0  0  0  0  0  0  0  0  0  0  0
   57.7133   26.7684   45.2717 H   0  0  0  0  0  0  0  0  0  0  0  0
   59.9395   26.8226   46.4491 H   0  0  0  0  0  0  0  0  0  0  0  0
   61.1443   28.9973   46.7720 H   0  0  0  0  0  0  0  0  0  0  0  0
   60.1469   31.1366   45.8834 H   0  0  0  0  0  0  0  0  0  0  0  0
   53.8463   32.4352   50.9009 H   0  0  0  0  0  0  0  0  0  0  0  0
  1  2  1  0
  2  3  2  0
  2  4  1  0
  4  5  2  0
  5  6  1  0
  6  7  2  0
  7  8  1  0
  8  9  1  0
  9 10  1  0
 10 11  2  0
 10 12  1  0
 12 13  1  0
 13 14  1  0
 14 15  2  0
 15 16  1  0
 16 17  2  0
 17 18  1  0
 18 19  2  0
 19 20  1  0
 20 21  1  0
 21 22  1  0
 22 23  2  0
 22 24  1  0
 24 25  2  0
 24 26  1  0
 26 27  2  0
 27 28  1  0
 28 29  1  0
 29 30  2  0
 30 31  1  0
 31 32  2  0
 32 33  1  0
 33 34  2  0
  8 35  2  0
 35  4  1  0
 19 14  1  0
 34 26  1  0
 34 29  1  0
  1 36  1  0
  5 37  1  0
  6 38  1  0
  7 39  1  0
  9 40  1  0
 12 41  1  0
 12 42  1  0
 15 43  1  0
 16 44  1  0
 17 45  1  0
 18 46  1  0
 20 47  1  0
 20 48  1  0
 27 49  1  0
 28 50  1  0
 30 51  1  0
 31 52  1  0
 32 53  1  0
 33 54  1  0
 35 55  1  0
M  CHG  2   1  -1  21  -1
M  END
>  <UniqueID>  (22) 
21

>  <SMILES>  (22) 
[NH-]C(=O)c1cccc(NC(=O)COc2ccccc2C[N-]C(=O)C(=O)c2c[nH]c3ccccc23)c1

>  <Energy>  (22) 
94.89959442315927

>  <Genealogy>  (22) 
[NH-]C(=O)c1cccc(NC(=O)COc2ccccc2C[N-]C(=O)C(=O)c2c[nH]c3ccccc23)c1 (protonated)
[NH-]C(=O)c1cccc(NC(=O)COc2ccccc2C[N-]C(=O)C(=O)c2c[nH]c3ccccc23)c1 (3D coordinates assigned)
[NH-]C(=O)c1cccc(NC(=O)COc2ccccc2C[N-]C(=O)C(=O)c2c[nH]c3ccccc23)c1 (optimized conformer: 94.89959442315927 kcal/mol)

>  <smiles>  (22) 
NC(=O)c1cccc(NC(=O)COc2ccccc2CNC(=O)C(=O)c2c[nH]c3ccccc23)c1

>  <score_type>  (22) 
oracle

>  <origin>  (22) 
adg

>  <m_score__min__energy>  (22) 
-14.43

>  <m_primary>  (22) 
energy

$$$$
22:0
     RDKit          3D

 41 43  0  0  0  0  0  0  0  0999 V2000
   59.2270   35.0380   44.9020 C   0  0  0  0  0  0  0  0  0  0  0  0
   59.0190   34.1690   46.1140 C   0  0  0  0  0  0  0  0  0  0  0  0
   59.5440   34.5880   47.3510 C   0  0  0  0  0  0  0  0  0  0  0  0
   59.3910   33.7980   48.4920 C   0  0  0  0  0  0  0  0  0  0  0  0
   58.7080   32.5860   48.4170 C   0  0  0  0  0  0  0  0  0  0  0  0
   58.1670   32.1610   47.2030 C   0  0  0  0  0  0  0  0  0  0  0  0
   58.3090   32.9430   46.0420 C   0  0  0  0  0  0  0  0  0  0  0  0
   57.7010   32.4580   44.7790 C   0  0  0  0  0  0  0  0  0  0  0  0
   57.9050   33.0830   43.7050 O   0  0  0  0  0  0  0  0  0  0  0  0
   56.8080   31.3370   44.7640 N   0  0  0  0  0  0  0  0  0  0  0  0
   57.2120   29.9680   44.8950 C   0  0  0  0  0  0  0  0  0  0  0  0
   58.5390   29.5720   44.6590 C   0  0  0  0  0  0  0  0  0  0  0  0
   58.9040   28.2300   44.7860 C   0  0  0  0  0  0  0  0  0  0  0  0
   57.9540   27.2770   45.1630 C   0  0  0  0  0  0  0  0  0  0  0  0
   56.6330   27.6630   45.4230 C   0  0  0  0  0  0  0  0  0  0  0  0
   55.6890   26.6740   45.8550 N   0  0  0  0  0  0  0  0  0  0  0  0
   56.0060   25.3270   46.2350 C   0  0  0  0  0  0  0  0  0  0  0  0
   55.9400   25.0130   47.4530 O   0  0  0  0  0  0  0  0  0  0  0  0
   56.3550   24.2900   45.2330 C   0  0  0  0  0  0  0  0  0  0  0  0
   55.5080   24.0510   44.1340 C   0  0  0  0  0  0  0  0  0  0  0  0
   55.8410   23.0870   43.1790 C   0  0  0  0  0  0  0  0  0  0  0  0
   57.0140   22.3410   43.3160 C   0  0  0  0  0  0  0  0  0  0  0  0
   57.8530   22.5560   44.4120 C   0  0  0  0  0  0  0  0  0  0  0  0
   57.5280   23.5220   45.3710 C   0  0  0  0  0  0  0  0  0  0  0  0
   58.3730   23.7260   46.4130 F   0  0  0  0  0  0  0  0  0  0  0  0
   56.2570   29.0060   45.2440 C   0  0  0  0  0  0  0  0  0  0  0  0
   59.4720   36.0614   45.2223 H   0  0  0  0  0  0  0  0  0  0  0  0
   60.0540   34.6346   44.2992 H   0  0  0  0  0  0  0  0  0  0  0  0
   58.3070   35.0528   44.2992 H   0  0  0  0  0  0  0  0  0  0  0  0
   60.0796   35.5464   47.4194 H   0  0  0  0  0  0  0  0  0  0  0  0
   59.8105   34.1332   49.4520 H   0  0  0  0  0  0  0  0  0  0  0  0
   58.5950   31.9629   49.3165 H   0  0  0  0  0  0  0  0  0  0  0  0
   57.6243   31.2055   47.1532 H   0  0  0  0  0  0  0  0  0  0  0  0
   59.2925   30.3208   44.3735 H   0  0  0  0  0  0  0  0  0  0  0  0
   59.9416   27.9224   44.5888 H   0  0  0  0  0  0  0  0  0  0  0  0
   58.2447   26.2202   45.2559 H   0  0  0  0  0  0  0  0  0  0  0  0
   54.5773   24.6274   44.0264 H   0  0  0  0  0  0  0  0  0  0  0  0
   55.1784   22.9153   42.3179 H   0  0  0  0  0  0  0  0  0  0  0  0
   57.2768   21.5849   42.5615 H   0  0  0  0  0  0  0  0  0  0  0  0
   58.7732   21.9634   44.5217 H   0  0  0  0  0  0  0  0  0  0  0  0
   55.2063   29.3024   45.3790 H   0  0  0  0  0  0  0  0  0  0  0  0
  1  2  1  0
  2  3  2  0
  3  4  1  0
  4  5  2  0
  5  6  1  0
  6  7  2  0
  7  8  1  0
  8  9  2  0
  8 10  1  0
 10 11  1  0
 11 12  2  0
 12 13  1  0
 13 14  2  0
 14 15  1  0
 15 16  1  0
 16 17  1  0
 17 18  2  0
 17 19  1  0
 19 20  2  0
 20 21  1  0
 21 22  2  0
 22 23  1  0
 23 24  2  0
 24 25  1  0
 15 26  2  0
  7  2  1  0
 26 11  1  0
 24 19  1  0
  1 27  1  0
  1 28  1  0
  1 29  1  0
  3 30  1  0
  4 31  1  0
  5 32  1  0
  6 33  1  0
 12 34  1  0
 13 35  1  0
 14 36  1  0
 20 37  1  0
 21 38  1  0
 22 39  1  0
 23 40  1  0
 26 41  1  0
M  CHG  2  10  -1  16  -1
M  END
>  <UniqueID>  (23) 
22

>  <SMILES>  (23) 
Cc1ccccc1C(=O)[N-]c1cccc([N-]C(=O)c2ccccc2F)c1

>  <Energy>  (23) 
59.16803728663514

>  <Genealogy>  (23) 
Cc1ccccc1C(=O)[N-]c1cccc([N-]C(=O)c2ccccc2F)c1 (protonated)
Cc1ccccc1C(=O)[N-]c1cccc([N-]C(=O)c2ccccc2F)c1 (3D coordinates assigned)
Cc1ccccc1C(=O)[N-]c1cccc([N-]C(=O)c2ccccc2F)c1 (optimized conformer: 59.16803728663514 kcal/mol)

>  <smiles>  (23) 
Cc1ccccc1C(=O)Nc1cccc(NC(=O)c2ccccc2F)c1

>  <score_type>  (23) 
oracle

>  <origin>  (23) 
adg

>  <m_score__min__energy>  (23) 
-12.130000000000001

>  <m_primary>  (23) 
energy

$$$$
23:0
     RDKit          3D

 34 34  0  0  0  0  0  0  0  0999 V2000
   54.9010   26.6210   45.2490 H   0  0  0  0  0  0  0  0  0  0  0  0
   54.3960   26.0540   45.9660 N   0  0  0  0  0  0  0  0  0  0  0  0
   54.8780   24.4100   45.7350 S   0  0  0  0  0  0  0  0  0  0  0  0
   54.8270   24.0910   44.2680 O   0  0  0  0  0  0  0  0  0  0  0  0
   53.9350   23.5150   46.4880 O   0  0  0  0  0  0  0  0  0  0  0  0
   56.4740   24.2160   46.3250 O   0  0  0  0  0  0  0  0  0  0  0  0
   57.4940   25.1830   46.3780 C   0  0  0  0  0  0  0  0  0  0  0  0
   57.1040   26.4690   46.7750 C   0  0  0  0  0  0  0  0  0  0  0  0
   56.0488   26.6620   47.0186 H   0  0  0  0  0  0  0  0  0  0  0  0
   58.0290   27.5090   46.8670 C   0  0  0  0  0  0  0  0  0  0  0  0
   57.6979   28.5120   47.1740 H   0  0  0  0  0  0  0  0  0  0  0  0
   59.3760   27.2800   46.5700 C   0  0  0  0  0  0  0  0  0  0  0  0
   60.3690   28.4130   46.6360 C   0  0  0  0  0  0  0  0  0  0  0  0
   59.9572   29.2129   47.2689 H   0  0  0  0  0  0  0  0  0  0  0  0
   61.3081   28.0251   47.0573 H   0  0  0  0  0  0  0  0  0  0  0  0
   60.6650   28.9820   45.2430 C   0  0  0  0  0  0  0  0  0  0  0  0
   61.6210   29.5252   45.2740 H   0  0  0  0  0  0  0  0  0  0  0  0
   60.7144   28.1454   44.5305 H   0  0  0  0  0  0  0  0  0  0  0  0
   59.6120   29.8970   44.8060 N   0  0  0  0  0  0  0  0  0  0  0  0
   58.2750   29.5130   44.4570 C   0  0  0  0  0  0  0  0  0  0  0  0
   58.0890   28.4120   43.8780 O   0  0  0  0  0  0  0  0  0  0  0  0
   57.1160   30.3800   44.7220 C   0  0  0  0  0  0  0  0  0  0  0  0
   57.2911   31.4227   45.0255 H   0  0  0  0  0  0  0  0  0  0  0  0
   55.8950   29.9570   44.6100 N   0  0  0  0  0  0  0  0  0  0  0  0
   55.5440   28.6530   44.8780 O   0  0  0  0  0  0  0  0  0  0  0  0
   56.0750   27.8930   44.4710 H   0  0  0  0  0  0  0  0  0  0  0  0
   59.7830   26.0030   46.1630 C   0  0  0  0  0  0  0  0  0  0  0  0
   60.8409   25.8235   45.9207 H   0  0  0  0  0  0  0  0  0  0  0  0
   58.8570   24.9430   46.0590 C   0  0  0  0  0  0  0  0  0  0  0  0
   59.2720   23.6710   45.6410 O   0  0  0  0  0  0  0  0  0  0  0  0
   58.5370   22.8130   44.7730 C   0  0  0  0  0  0  0  0  0  0  0  0
   57.9368   22.1123   45.3720 H   0  0  0  0  0  0  0  0  0  0  0  0
   57.8713   23.4164   44.1384 H   0  0  0  0  0  0  0  0  0  0  0  0
   59.2355   22.2478   44.1384 H   0  0  0  0  0  0  0  0  0  0  0  0
  1  2  1  0
  2  3  1  0
  3  4  2  0
  3  5  2  0
  3  6  1  0
  6  7  1  0
  7  8  2  0
  8  9  1  0
  8 10  1  0
 10 11  1  0
 10 12  2  0
 12 13  1  0
 13 14  1  0
 13 15  1  0
 13 16  1  0
 16 17  1  0
 16 18  1  0
 16 19  1  0
 19 20  1  0
 20 21  2  0
 20 22  1  0
 22 23  1  0
 22 24  2  0
 24 25  1  0
 25 26  1  0
 12 27  1  0
 27 28  1  0
 27 29  2  0
 29 30  1  0
 30 31  1  0
 31 32  1  0
 31 33  1  0
 31 34  1  0
 29  7  1  0
M  CHG  2   2  -1  19  -1
M  END
>  <UniqueID>  (24) 
23

>  <SMILES>  (24) 
COc1cc(CC[N-]C(=O)/C=N\O)ccc1OS([NH-])(=O)=O

>  <Energy>  (24) 
34.41627837306841

>  <Genealogy>  (24) 
COc1cc(CC[N-]C(=O)C=NO)ccc1OS([NH-])(=O)=O (protonated)
COc1cc(CC[N-]C(=O)/C=N\O)ccc1OS([NH-])(=O)=O (cis-trans isomerization)
COc1cc(CC[N-]C(=O)/C=N\O)ccc1OS([NH-])(=O)=O (3D coordinates assigned)
COc1cc(CC[N-]C(=O)/C=N\O)ccc1OS([NH-])(=O)=O (optimized conformer: 34.41627837306841 kcal/mol)

>  <smiles>  (24) 
COc1cc(CCNC(=O)C=NO)ccc1OS(N)(=O)=O

>  <score_type>  (24) 
oracle

>  <origin>  (24) 
adg

>  <m_score__min__energy>  (24) 
-10.93

>  <m_primary>  (24) 
energy

$$$$
24:0
     RDKit          3D

 35 37  0  0  0  0  0  0  0  0999 V2000
   58.7400   29.3120   46.1980 H   0  0  0  0  0  0  0  0  0  0  0  0
   59.1730   30.2260   46.2200 O   0  0  0  0  0  0  0  0  0  0  0  0
   58.5970   31.3280   45.5920 C   0  0  0  0  0  0  0  0  0  0  0  0
   57.7010   31.2750   44.5450 C   0  0  0  0  0  0  0  0  0  0  0  0
   57.2030   30.0380   43.8670 C   0  0  0  0  0  0  0  0  0  0  0  0
   58.0601   29.4462   43.5132 H   0  0  0  0  0  0  0  0  0  0  0  0
   56.5696   30.3235   43.0142 H   0  0  0  0  0  0  0  0  0  0  0  0
   56.3980   29.2200   44.8240 C   0  0  0  0  0  0  0  0  0  0  0  0
   55.1480   29.3770   44.8700 O   0  0  0  0  0  0  0  0  0  0  0  0
   57.0640   28.2400   45.6370 N   0  0  0  0  0  0  0  0  0  0  0  0
   56.6730   27.0320   45.9300 C   0  0  0  0  0  0  0  0  0  0  0  0
   55.3710   26.6990   46.0060 N   0  0  0  0  0  0  0  0  0  0  0  0
   55.3250   25.4360   46.3140 O   0  0  0  0  0  0  0  0  0  0  0  0
   56.5330   24.9380   46.4440 C   0  0  0  0  0  0  0  0  0  0  0  0
   56.8290   23.5140   46.7750 C   0  0  0  0  0  0  0  0  0  0  0  0
   56.8549   23.3893   47.8676 H   0  0  0  0  0  0  0  0  0  0  0  0
   56.0458   22.8685   46.3508 H   0  0  0  0  0  0  0  0  0  0  0  0
   57.8045   23.2341   46.3508 H   0  0  0  0  0  0  0  0  0  0  0  0
   57.4630   25.9270   46.2030 C   0  0  0  0  0  0  0  0  0  0  0  0
   58.5605   25.8562   46.2226 H   0  0  0  0  0  0  0  0  0  0  0  0
   57.4120   32.5280   44.1360 N   0  0  0  0  0  0  0  0  0  0  0  0
   58.1290   33.3100   44.9720 C   0  0  0  0  0  0  0  0  0  0  0  0
   58.1010   34.5690   44.9170 O   0  0  0  0  0  0  0  0  0  0  0  0
   58.8590   32.6180   45.8750 N   0  0  0  0  0  0  0  0  0  0  0  0
   59.7100   33.1500   46.9040 C   0  0  0  0  0  0  0  0  0  0  0  0
   61.1050   33.1490   46.7420 C   0  0  0  0  0  0  0  0  0  0  0  0
   61.5494   32.7300   45.8271 H   0  0  0  0  0  0  0  0  0  0  0  0
   61.9320   33.6780   47.7380 C   0  0  0  0  0  0  0  0  0  0  0  0
   63.0241   33.6707   47.6067 H   0  0  0  0  0  0  0  0  0  0  0  0
   61.3720   34.2160   48.9000 C   0  0  0  0  0  0  0  0  0  0  0  0
   62.0231   34.6281   49.6850 H   0  0  0  0  0  0  0  0  0  0  0  0
   59.9840   34.2300   49.0640 C   0  0  0  0  0  0  0  0  0  0  0  0
   59.5434   34.6576   49.9767 H   0  0  0  0  0  0  0  0  0  0  0  0
   59.1550   33.7020   48.0710 C   0  0  0  0  0  0  0  0  0  0  0  0
   58.0631   33.7185   48.2033 H   0  0  0  0  0  0  0  0  0  0  0  0
  1  2  1  0
  2  3  1  0
  3  4  2  0
  4  5  1  0
  5  6  1  0
  5  7  1  0
  5  8  1  0
  8  9  2  0
  8 10  1  0
 10 11  2  0
 11 12  1  0
 12 13  1  0
 13 14  1  0
 14 15  1  0
 15 16  1  0
 15 17  1  0
 15 18  1  0
 14 19  2  0
 19 20  1  0
  4 21  1  0
 21 22  1  0
 22 23  2  0
 22 24  1  0
 24 25  1  0
 25 26  2  0
 26 27  1  0
 26 28  1  0
 28 29  1  0
 28 30  2  0
 30 31  1  0
 30 32  1  0
 32 33  1  0
 32 34  2  0
 34 35  1  0
 24  3  1  0
 34 25  1  0
 19 11  1  0
M  CHG  2  12  -1  21  -1
M  END
>  <UniqueID>  (25) 
24

>  <SMILES>  (25) 
Cc1c/c(=N\C(=O)Cc2[n-]c(=O)n(-c3ccccc3)c2O)[n-]o1

>  <Energy>  (25) 
106.20262354944818

>  <Genealogy>  (25) 
Cc1cc(=NC(=O)Cc2[n-]c(=O)n(-c3ccccc3)c2O)[n-]o1 (protonated)
Cc1c/c(=N\C(=O)Cc2[n-]c(=O)n(-c3ccccc3)c2O)[n-]o1 (cis-trans isomerization)
Cc1c/c(=N\C(=O)Cc2[n-]c(=O)n(-c3ccccc3)c2O)[n-]o1 (3D coordinates assigned)
Cc1c/c(=N\C(=O)Cc2[n-]c(=O)n(-c3ccccc3)c2O)[n-]o1 (optimized conformer: 106.20262354944818 kcal/mol)

>  <smiles>  (25) 
Cc1cc(=NC(=O)Cc2[nH]c(=O)n(-c3ccccc3)c2O)[nH]o1

>  <score_type>  (25) 
oracle

>  <origin>  (25) 
adg

>  <m_score__min__energy>  (25) 
-11.68

>  <m_primary>  (25) 
energy

$$$$
25:0
     RDKit          3D

 30 31  0  0  0  0  0  0  0  0999 V2000
   55.7220   28.9770   52.0100 O   0  0  0  0  0  0  0  0  0  0  0  0
   55.1170   29.7300   52.8220 C   0  0  0  0  0  0  0  0  0  0  0  0
   55.4200   31.1950   52.8420 C   0  0  0  0  0  0  0  0  0  0  0  0
   56.8580   31.4310   52.4670 C   0  0  0  0  0  0  0  0  0  0  0  0
   57.8530   31.4570   53.4560 C   0  0  0  0  0  0  0  0  0  0  0  0
   59.1820   31.7260   53.1120 C   0  0  0  0  0  0  0  0  0  0  0  0
   59.5240   31.9860   51.7810 C   0  0  0  0  0  0  0  0  0  0  0  0
   60.8470   32.2560   51.4520 O   0  0  0  0  0  0  0  0  0  0  0  0
   58.5330   31.9750   50.7890 C   0  0  0  0  0  0  0  0  0  0  0  0
   58.9730   32.3490   48.9640 Br  0  0  0  0  0  0  0  0  0  0  0  0
   57.2050   31.7000   51.1330 C   0  0  0  0  0  0  0  0  0  0  0  0
   54.1620   29.2220   53.7110 O   0  0  0  0  0  0  0  0  0  0  0  0
   52.7730   29.3540   53.5730 C   0  0  0  0  0  0  0  0  0  0  0  0
   51.9900   28.7730   54.3740 O   0  0  0  0  0  0  0  0  0  0  0  0
   52.2290   30.1830   52.4740 C   0  0  0  0  0  0  0  0  0  0  0  0
   52.2320   29.7120   51.1490 C   0  0  0  0  0  0  0  0  0  0  0  0
   51.7110   30.4990   50.1160 C   0  0  0  0  0  0  0  0  0  0  0  0
   51.7220   30.0210   48.8110 O   0  0  0  0  0  0  0  0  0  0  0  0
   51.1820   31.7650   50.3960 C   0  0  0  0  0  0  0  0  0  0  0  0
   50.6650   32.5460   49.3690 O   0  0  0  0  0  0  0  0  0  0  0  0
   51.1740   32.2410   51.7120 C   0  0  0  0  0  0  0  0  0  0  0  0
   50.6480   33.4960   51.9960 O   0  0  0  0  0  0  0  0  0  0  0  0
   51.6940   31.4560   52.7460 C   0  0  0  0  0  0  0  0  0  0  0  0
   54.7671   31.7114   52.1229 H   0  0  0  0  0  0  0  0  0  0  0  0
   55.2435   31.5852   53.8552 H   0  0  0  0  0  0  0  0  0  0  0  0
   57.5870   31.2651   54.5060 H   0  0  0  0  0  0  0  0  0  0  0  0
   59.9597   31.7330   53.8899 H   0  0  0  0  0  0  0  0  0  0  0  0
   56.4283   31.6945   50.3541 H   0  0  0  0  0  0  0  0  0  0  0  0
   52.6466   28.7185   50.9232 H   0  0  0  0  0  0  0  0  0  0  0  0
   51.6848   31.8359   53.7783 H   0  0  0  0  0  0  0  0  0  0  0  0
  1  2  2  0
  2  3  1  0
  3  4  1  0
  4  5  2  0
  5  6  1  0
  6  7  2  0
  7  8  1  0
  7  9  1  0
  9 10  1  0
  9 11  2  0
  2 12  1  0
 12 13  1  0
 13 14  2  0
 13 15  1  0
 15 16  2  0
 16 17  1  0
 17 18  1  0
 17 19  2  0
 19 20  1  0
 19 21  1  0
 21 22  1  0
 21 23  2  0
 11  4  1  0
 23 15  1  0
  3 24  1  0
  3 25  1  0
  5 26  1  0
  6 27  1  0
 11 28  1  0
 16 29  1  0
 23 30  1  0
M  CHG  4   8  -1  18  -1  20  -1  22  -1
M  END
>  <UniqueID>  (26) 
25

>  <SMILES>  (26) 
O=C(Cc1ccc([O-])c(Br)c1)OC(=O)c1cc([O-])c([O-])c([O-])c1

>  <Energy>  (26) 
31.052879634074383

>  <Genealogy>  (26) 
O=C(Cc1ccc([O-])c(Br)c1)OC(=O)c1cc([O-])c([O-])c([O-])c1 (protonated)
O=C(Cc1ccc([O-])c(Br)c1)OC(=O)c1cc([O-])c([O-])c([O-])c1 (3D coordinates assigned)
O=C(Cc1ccc([O-])c(Br)c1)OC(=O)c1cc([O-])c([O-])c([O-])c1 (optimized conformer: 31.052879634074383 kcal/mol)

>  <smiles>  (26) 
O=C(Cc1ccc(O)c(Br)c1)OC(=O)c1cc(O)c(O)c(O)c1

>  <score_type>  (26) 
oracle

>  <origin>  (26) 
adg

>  <m_score__min__energy>  (26) 
-17.739999999999998

>  <m_primary>  (26) 
energy

$$$$
26:0
     RDKit          3D

 40 42  0  0  0  0  0  0  0  0999 V2000
   63.5090   32.6620   47.2250 N   0  0  0  0  0  0  0  0  0  0  0  0
   62.5870   32.0800   48.5650 S   0  0  0  0  0  0  0  0  0  0  0  0
   63.5190   31.6020   49.6430 O   0  0  0  0  0  0  0  0  0  0  0  0
   61.7410   33.1930   49.1170 O   0  0  0  0  0  0  0  0  0  0  0  0
   61.5560   30.7530   48.0360 C   0  0  0  0  0  0  0  0  0  0  0  0
   61.1150   29.7920   48.9530 C   0  0  0  0  0  0  0  0  0  0  0  0
   60.3060   28.7330   48.5290 C   0  0  0  0  0  0  0  0  0  0  0  0
   59.9320   28.6150   47.1780 C   0  0  0  0  0  0  0  0  0  0  0  0
   59.0980   27.5230   46.7410 N   0  0  0  0  0  0  0  0  0  0  0  0
   57.7480   27.4960   46.7320 C   0  0  0  0  0  0  0  0  0  0  0  0
   57.3000   26.2790   46.2520 C   0  0  0  0  0  0  0  0  0  0  0  0
   55.8870   25.8650   46.1930 C   0  0  0  0  0  0  0  0  0  0  0  0
   54.9750   26.7090   45.9960 O   0  0  0  0  0  0  0  0  0  0  0  0
   55.5550   24.5220   46.3150 O   0  0  0  0  0  0  0  0  0  0  0  0
   58.4360   25.5360   45.9480 C   0  0  0  0  0  0  0  0  0  0  0  0
   58.5130   24.1850   45.3570 C   0  0  0  0  0  0  0  0  0  0  0  0
   59.6990   23.4450   45.4590 C   0  0  0  0  0  0  0  0  0  0  0  0
   59.7670   22.1780   44.8850 C   0  0  0  0  0  0  0  0  0  0  0  0
   58.6650   21.6590   44.2070 C   0  0  0  0  0  0  0  0  0  0  0  0
   57.4930   22.4290   44.0990 C   0  0  0  0  0  0  0  0  0  0  0  0
   56.3530   21.9700   43.4150 O   0  0  0  0  0  0  0  0  0  0  0  0
   55.4250   22.7980   42.8080 N   0  0  0  0  0  0  0  0  0  0  0  0
   54.7190   23.4170   43.7840 O   0  0  0  0  0  0  0  0  0  0  0  0
   57.4530   23.6670   44.6690 N   0  0  0  0  0  0  0  0  0  0  0  0
   59.5210   26.3300   46.2690 C   0  0  0  0  0  0  0  0  0  0  0  0
   60.3860   29.5810   46.2620 C   0  0  0  0  0  0  0  0  0  0  0  0
   61.1940   30.6390   46.6880 C   0  0  0  0  0  0  0  0  0  0  0  0
   64.4980   32.3640   47.3820 H   0  0  0  0  0  0  0  0  0  0  0  0
   61.4058   29.8700   50.0110 H   0  0  0  0  0  0  0  0  0  0  0  0
   59.9592   27.9859   49.2581 H   0  0  0  0  0  0  0  0  0  0  0  0
   57.0991   28.3219   47.0589 H   0  0  0  0  0  0  0  0  0  0  0  0
   60.5688   23.8616   45.9880 H   0  0  0  0  0  0  0  0  0  0  0  0
   60.6908   21.5864   44.9666 H   0  0  0  0  0  0  0  0  0  0  0  0
   58.7117   20.6550   43.7599 H   0  0  0  0  0  0  0  0  0  0  0  0
   54.7680   22.2150   42.2410 H   0  0  0  0  0  0  0  0  0  0  0  0
   55.2090   23.2070   44.6190 H   0  0  0  0  0  0  0  0  0  0  0  0
   56.5860   24.2380   44.5530 H   0  0  0  0  0  0  0  0  0  0  0  0
   60.5744   26.0339   46.1566 H   0  0  0  0  0  0  0  0  0  0  0  0
   60.1029   29.5032   45.2019 H   0  0  0  0  0  0  0  0  0  0  0  0
   61.5471   31.3854   45.9612 H   0  0  0  0  0  0  0  0  0  0  0  0
  1  2  1  0
  2  3  2  0
  2  4  2  0
  2  5  1  0
  5  6  2  0
  6  7  1  0
  7  8  2  0
  8  9  1  0
  9 10  1  0
 10 11  2  0
 11 12  1  0
 12 13  2  0
 12 14  1  0
 11 15  1  0
 15 16  1  0
 16 17  2  0
 17 18  1  0
 18 19  2  0
 19 20  1  0
 20 21  1  0
 21 22  1  0
 22 23  1  0
 20 24  2  0
 15 25  2  0
  8 26  1  0
 26 27  2  0
 27  5  1  0
 25  9  1  0
 24 16  1  0
  1 28  1  0
  6 29  1  0
  7 30  1  0
 10 31  1  0
 17 32  1  0
 18 33  1  0
 19 34  1  0
 22 35  1  0
 23 36  1  0
 24 37  1  0
 25 38  1  0
 26 39  1  0
 27 40  1  0
M  CHG  3   1  -1  14  -1  24   1
M  END
>  <UniqueID>  (27) 
26

>  <SMILES>  (27) 
[NH-]S(=O)(=O)c1ccc(-n2cc(C(=O)[O-])c(-c3cccc(ONO)[nH+]3)c2)cc1

>  <Energy>  (27) 
78.92119190074487

>  <Genealogy>  (27) 
[NH-]S(=O)(=O)c1ccc(-n2cc(C(=O)[O-])c(-c3cccc(ONO)[nH+]3)c2)cc1 (protonated)
[NH-]S(=O)(=O)c1ccc(-n2cc(C(=O)[O-])c(-c3cccc(ONO)[nH+]3)c2)cc1 (3D coordinates assigned)
[NH-]S(=O)(=O)c1ccc(-n2cc(C(=O)[O-])c(-c3cccc(ONO)[nH+]3)c2)cc1 (optimized conformer: 78.92119190074487 kcal/mol)

>  <smiles>  (27) 
NS(=O)(=O)c1ccc(-n2cc(C(=O)O)c(-c3cccc(ONO)n3)c2)cc1

>  <score_type>  (27) 
oracle

>  <origin>  (27) 
adg

>  <m_score__min__energy>  (27) 
-8.7799999999999994

>  <m_primary>  (27) 
energy

$$$$
27:0
     RDKit          3D

 52 55  0  0  1  0  0  0  0  0999 V2000
   59.6930   34.6140   48.0160 C   0  0  0  0  0  0  0  0  0  0  0  0
   59.8190   34.5760   46.5030 C   0  0  0  0  0  0  0  0  0  0  0  0
   58.9630   33.5880   45.9570 C   0  0  0  0  0  0  0  0  0  0  0  0
   61.6290   30.4090   49.0600 C   0  0  0  0  0  0  0  0  0  0  0  0
   61.1450   29.5160   48.1810 N   0  0  0  0  0  0  0  0  0  0  0  0
   60.6330   28.3230   48.5550 C   0  0  0  0  0  0  0  0  0  0  0  0
   60.1860   27.5140   47.6630 N   0  0  0  0  0  0  0  0  0  0  0  0
   56.4810   29.6800   43.5750 S   0  0  0  0  0  0  0  0  0  0  0  0
   56.7090   29.0190   42.2500 O   0  0  0  0  0  0  0  0  0  0  0  0
   55.1100   29.4010   44.0600 O   0  0  0  0  0  0  0  0  0  0  0  0
   57.6460   29.0410   44.7430 C   0  0  0  0  0  0  0  0  0  0  0  0
   57.1400   28.6940   45.9900 C   0  0  0  0  0  0  0  0  0  0  0  0
   58.0170   28.1910   46.9300 C   0  0  0  0  0  0  0  0  0  0  0  0
   59.3640   28.0420   46.6220 C   0  0  0  0  0  0  0  0  0  0  0  0
   56.8240   31.3900   43.4900 N   0  0  0  0  0  0  0  0  0  0  0  0
   57.4540   31.9880   44.4160 C   0  0  0  0  0  0  0  0  0  0  0  0
   60.5920   27.9810   49.8940 C   0  0  0  0  0  0  0  0  0  0  0  0
   61.0890   28.9010   50.7850 C   0  0  0  0  0  0  0  0  0  0  0  0
   61.0480   28.5390   52.2380 C   0  0  0  0  0  0  0  0  0  0  0  0
   62.0140   29.2650   52.9290 F   0  0  0  0  0  0  0  0  0  0  0  0
   61.4460   27.2130   52.3230 F   0  0  0  0  0  0  0  0  0  0  0  0
   59.8190   28.7580   52.8040 F   0  0  0  0  0  0  0  0  0  0  0  0
   61.5890   30.0740   50.3620 N   0  0  0  0  0  0  0  0  0  0  0  0
   58.2660   32.5460   46.4810 C   0  0  0  0  0  0  0  0  0  0  0  0
   62.1850   31.6960   48.6910 C   0  0  0  0  0  0  0  0  0  0  0  0
   62.3110   32.7260   49.6290 C   0  0  0  0  0  0  0  0  0  0  0  0
   62.8360   33.9550   49.3000 C   0  0  0  0  0  0  0  0  0  0  0  0
   63.2640   34.2160   48.0110 C   0  0  0  0  0  0  0  0  0  0  0  0
   63.1530   33.2180   47.0650 C   0  0  0  0  0  0  0  0  0  0  0  0
   62.6220   31.9920   47.4200 C   0  0  0  0  0  0  0  0  0  0  0  0
   57.5380   31.7700   45.7510 N   0  0  0  0  0  0  0  0  0  0  0  0
   59.8590   28.3880   45.3800 C   0  0  0  0  0  0  0  0  0  0  0  0
   58.9800   28.8980   44.4230 C   0  0  0  0  0  0  0  0  0  0  0  0
   58.5300   33.4700   44.1230 S   0  0  0  0  0  0  0  0  0  0  0  0
   60.6518   34.3249   48.4712 H   0  0  0  0  0  0  0  0  0  0  0  0
   59.4273   35.6322   48.3364 H   0  0  0  0  0  0  0  0  0  0  0  0
   58.9087   33.9124   48.3364 H   0  0  0  0  0  0  0  0  0  0  0  0
   59.5449   35.5590   46.0924 H   0  0  0  0  0  0  0  0  0  0  0  0
   60.8583   34.3304   46.2393 H   0  0  0  0  0  0  0  0  0  0  0  0
   58.3242   32.3577   47.5632 H   0  0  0  0  0  0  0  0  0  0  0  0
   61.1570   29.7290   47.1810 H   0  0  0  0  0  0  0  0  0  0  0  0
   56.0716   28.8166   46.2213 H   0  0  0  0  0  0  0  0  0  0  0  0
   57.6482   27.9070   47.9267 H   0  0  0  0  0  0  0  0  0  0  0  0
   60.1808   27.0177   50.2300 H   0  0  0  0  0  0  0  0  0  0  0  0
   61.9799   32.5480   50.6628 H   0  0  0  0  0  0  0  0  0  0  0  0
   62.9159   34.7370   50.0695 H   0  0  0  0  0  0  0  0  0  0  0  0
   63.6836   35.1977   47.7459 H   0  0  0  0  0  0  0  0  0  0  0  0
   63.4858   33.3971   46.0320 H   0  0  0  0  0  0  0  0  0  0  0  0
   62.5448   31.2132   46.6470 H   0  0  0  0  0  0  0  0  0  0  0  0
   56.9770   30.9400   46.1460 H   0  0  0  0  0  0  0  0  0  0  0  0
   60.9273   28.2639   45.1489 H   0  0  0  0  0  0  0  0  0  0  0  0
   59.3468   29.1824   43.4257 H   0  0  0  0  0  0  0  0  0  0  0  0
  1  2  1  0
  2  3  1  0
  3  4  2  0
  4  5  1  0
  5  6  1  0
  6  7  2  0
  7  8  1  0
  8  9  2  0
  8 10  2  0
  8 11  1  0
 11 12  2  0
 12 13  1  0
 13 14  2  0
 14 15  1  0
 15 16  2  0
 16 17  1  0
 17 18  2  0
 18 19  1  0
 19 20  1  0
 19 21  1  0
 19 22  1  0
 18 23  1  0
 23 24  2  0
 24 25  1  0
 25 26  2  0
 26 27  1  0
 27 28  2  0
 28 29  1  0
 29 30  2  0
 24 31  1  0
 14 32  1  0
 32 33  2  0
  6 34  1  0
 34  3  1  0
 33 11  1  0
 31 16  1  0
 30 25  1  0
  1 35  1  0
  1 36  1  0
  1 37  1  0
  2 38  1  0
  2 39  1  0
  4 40  1  0
  5 41  1  0
 12 42  1  0
 13 43  1  0
 17 44  1  0
 26 45  1  0
 27 46  1  0
 28 47  1  0
 29 48  1  0
 30 49  1  0
 31 50  1  0
 32 51  1  0
 33 52  1  0
M  END
>  <smiles>  (28) 
CCc1c[nH]c(=NS(=O)(=O)c2ccc(N=c3cc(C(F)(F)F)nc(-c4ccccc4)[nH]3)cc2)s1

>  <score_type>  (28) 
oracle

>  <origin>  (28) 
adg

>  <m_score__min__energy>  (28) 
-9.3699999999999992

>  <m_primary>  (28) 
energy

$$$$
28:0
     RDKit          3D

 61 64  0  0  0  0  0  0  0  0999 V2000
   57.7760   28.1500   43.7980 C   0  0  0  0  0  0  0  0  0  0  0  0
   58.4750   28.6080   45.0530 C   0  0  0  0  0  0  0  0  0  0  0  0
   59.3720   27.7320   45.6850 C   0  0  0  0  0  0  0  0  0  0  0  0
   60.0410   28.1180   46.8480 C   0  0  0  0  0  0  0  0  0  0  0  0
   59.8140   29.3800   47.4040 C   0  0  0  0  0  0  0  0  0  0  0  0
   60.7260   29.8970   48.8190 S   0  0  0  0  0  0  0  0  0  0  0  0
   62.0000   30.5550   48.3670 O   0  0  0  0  0  0  0  0  0  0  0  0
   61.0760   28.7010   49.6600 O   0  0  0  0  0  0  0  0  0  0  0  0
   59.7740   31.0290   49.7440 N   0  0  0  0  0  0  0  0  0  0  0  0
   58.5080   30.4010   50.1790 C   0  0  0  0  0  0  0  0  0  0  0  0
   57.8060   31.2430   51.2640 C   0  0  0  0  0  0  0  0  0  0  0  0
   58.3480   32.5460   51.3240 O   0  0  0  0  0  0  0  0  0  0  0  0
   59.6980   32.4840   51.7530 C   0  0  0  0  0  0  0  0  0  0  0  0
   60.5440   31.5100   50.9020 C   0  0  0  0  0  0  0  0  0  0  0  0
   58.9260   30.2630   46.7820 C   0  0  0  0  0  0  0  0  0  0  0  0
   58.2760   29.9030   45.5940 C   0  0  0  0  0  0  0  0  0  0  0  0
   57.4320   30.9130   44.9270 C   0  0  0  0  0  0  0  0  0  0  0  0
   56.1900   30.7260   44.8370 O   0  0  0  0  0  0  0  0  0  0  0  0
   58.0260   32.1930   44.4110 C   0  0  0  0  0  0  0  0  0  0  0  0
   57.3860   33.3650   45.0490 N   0  0  0  0  0  0  0  0  0  0  0  0
   58.1370   34.6040   44.8190 C   0  0  0  0  0  0  0  0  0  0  0  0
   59.5270   34.5860   45.4710 C   0  0  0  0  0  0  0  0  0  0  0  0
   59.6040   33.8810   46.7740 N   0  0  0  0  0  0  0  0  0  0  0  0
   60.8920   33.8600   47.4790 C   0  0  0  0  0  0  0  0  0  0  0  0
   62.0790   33.4720   46.8010 C   0  0  0  0  0  0  0  0  0  0  0  0
   63.3150   33.4440   47.4520 C   0  0  0  0  0  0  0  0  0  0  0  0
   63.4110   33.8010   48.7930 C   0  0  0  0  0  0  0  0  0  0  0  0
   62.2700   34.1810   49.4910 C   0  0  0  0  0  0  0  0  0  0  0  0
   61.0210   34.2090   48.8590 C   0  0  0  0  0  0  0  0  0  0  0  0
   59.9670   34.5720   49.6300 F   0  0  0  0  0  0  0  0  0  0  0  0
   58.4640   33.0970   47.3000 C   0  0  0  0  0  0  0  0  0  0  0  0
   57.1620   33.2130   46.4930 C   0  0  0  0  0  0  0  0  0  0  0  0
   56.8840   27.5655   44.0676 H   0  0  0  0  0  0  0  0  0  0  0  0
   57.4748   29.0264   43.2054 H   0  0  0  0  0  0  0  0  0  0  0  0
   58.4593   27.5239   43.2054 H   0  0  0  0  0  0  0  0  0  0  0  0
   59.5492   26.7330   45.2601 H   0  0  0  0  0  0  0  0  0  0  0  0
   60.7491   27.4266   47.3283 H   0  0  0  0  0  0  0  0  0  0  0  0
   59.5560   31.8400   49.1170 H   0  0  0  0  0  0  0  0  0  0  0  0
   57.8389   30.3059   49.3111 H   0  0  0  0  0  0  0  0  0  0  0  0
   58.7395   29.4129   50.6034 H   0  0  0  0  0  0  0  0  0  0  0  0
   56.7335   31.3101   51.0291 H   0  0  0  0  0  0  0  0  0  0  0  0
   57.9577   30.7554   52.2383 H   0  0  0  0  0  0  0  0  0  0  0  0
   60.1380   33.4896   51.6805 H   0  0  0  0  0  0  0  0  0  0  0  0
   59.7034   32.1146   52.7891 H   0  0  0  0  0  0  0  0  0  0  0  0
   61.4450   32.0308   50.5456 H   0  0  0  0  0  0  0  0  0  0  0  0
   60.8235   30.6472   51.5244 H   0  0  0  0  0  0  0  0  0  0  0  0
   58.7359   31.2497   47.2296 H   0  0  0  0  0  0  0  0  0  0  0  0
   59.1034   32.2055   44.6326 H   0  0  0  0  0  0  0  0  0  0  0  0
   57.8573   32.2471   43.3254 H   0  0  0  0  0  0  0  0  0  0  0  0
   58.2589   34.7452   43.7349 H   0  0  0  0  0  0  0  0  0  0  0  0
   57.5672   35.4267   45.2757 H   0  0  0  0  0  0  0  0  0  0  0  0
   60.2227   34.0933   44.7758 H   0  0  0  0  0  0  0  0  0  0  0  0
   59.7816   35.6362   45.6765 H   0  0  0  0  0  0  0  0  0  0  0  0
   62.0236   33.1873   45.7399 H   0  0  0  0  0  0  0  0  0  0  0  0
   64.2167   33.1381   46.9013 H   0  0  0  0  0  0  0  0  0  0  0  0
   64.3870   33.7827   49.3000 H   0  0  0  0  0  0  0  0  0  0  0  0
   62.3496   34.4627   50.5513 H   0  0  0  0  0  0  0  0  0  0  0  0
   58.7595   32.0376   47.3186 H   0  0  0  0  0  0  0  0  0  0  0  0
   58.2436   33.5096   48.2956 H   0  0  0  0  0  0  0  0  0  0  0  0
   56.5653   32.3042   46.6602 H   0  0  0  0  0  0  0  0  0  0  0  0
   56.6429   34.1187   46.8397 H   0  0  0  0  0  0  0  0  0  0  0  0
  1  2  1  0
  2  3  2  0
  3  4  1  0
  4  5  2  0
  5  6  1  0
  6  7  2  0
  6  8  2  0
  6  9  1  0
  9 10  1  0
 10 11  1  0
 11 12  1  0
 12 13  1  0
 13 14  1  0
  5 15  1  0
 15 16  2  0
 16 17  1  0
 17 18  2  0
 17 19  1  0
 19 20  1  0
 20 21  1  0
 21 22  1  0
 22 23  1  0
 23 24  1  0
 24 25  2  0
 25 26  1  0
 26 27  2  0
 27 28  1  0
 28 29  2  0
 29 30  1  0
 23 31  1  0
 31 32  1  0
 16  2  1  0
 32 20  1  0
 14  9  1  0
 29 24  1  0
  1 33  1  0
  1 34  1  0
  1 35  1  0
  3 36  1  0
  4 37  1  0
  9 38  1  0
 10 39  1  0
 10 40  1  0
 11 41  1  0
 11 42  1  0
 13 43  1  0
 13 44  1  0
 14 45  1  0
 14 46  1  0
 15 47  1  0
 19 48  1  0
 19 49  1  0
 21 50  1  0
 21 51  1  0
 22 52  1  0
 22 53  1  0
 25 54  1  0
 26 55  1  0
 27 56  1  0
 28 57  1  0
 31 58  1  0
 31 59  1  0
 32 60  1  0
 32 61  1  0
M  CHG  1   9   1
M  END
>  <UniqueID>  (29) 
27

>  <SMILES>  (29) 
Cc1ccc(S(=O)(=O)[NH+]2CCOCC2)cc1C(=O)CN1CCN(c2ccccc2F)CC1

>  <Energy>  (29) 
88.46477439001933

>  <Genealogy>  (29) 
Cc1ccc(S(=O)(=O)[NH+]2CCOCC2)cc1C(=O)CN1CCN(c2ccccc2F)CC1 (protonated)
Cc1ccc(S(=O)(=O)[NH+]2CCOCC2)cc1C(=O)CN1CCN(c2ccccc2F)CC1 (3D coordinates assigned)
Cc1ccc(S(=O)(=O)[NH+]2CCOCC2)cc1C(=O)CN1CCN(c2ccccc2F)CC1 (nonaromatic ring conformer: 88.46477439001933 kcal/mol)

>  <smiles>  (29) 
Cc1ccc(S(=O)(=O)N2CCOCC2)cc1C(=O)CN1CCN(c2ccccc2F)CC1

>  <score_type>  (29) 
oracle

>  <origin>  (29) 
adg

>  <m_score__min__energy>  (29) 
-8.8300000000000001

>  <m_primary>  (29) 
energy

$$$$
29:0
     RDKit          3D

 51 53  0  0  0  0  0  0  0  0999 V2000
   59.2270   35.3400   44.8740 C   0  0  0  0  0  0  0  0  0  0  0  0
   58.7820   33.9280   45.0930 C   0  0  0  0  0  0  0  0  0  0  0  0
   57.9620   33.2700   44.2530 N   0  0  0  0  0  0  0  0  0  0  0  0
   57.7830   32.0320   44.7520 C   0  0  0  0  0  0  0  0  0  0  0  0
   56.9170   31.0380   44.0960 C   0  0  0  0  0  0  0  0  0  0  0  0
   55.9600   30.4940   44.7060 O   0  0  0  0  0  0  0  0  0  0  0  0
   58.5170   31.8820   45.9280 C   0  0  0  0  0  0  0  0  0  0  0  0
   58.6310   30.6520   46.7940 C   0  0  0  0  0  0  0  0  0  0  0  0
   60.0610   30.3580   47.1670 C   0  0  0  0  0  0  0  0  0  0  0  0
   60.9870   30.6970   46.3790 O   0  0  0  0  0  0  0  0  0  0  0  0
   60.3970   29.7130   48.4150 N   0  0  0  0  0  0  0  0  0  0  0  0
   61.4740   30.2810   49.2300 C   0  0  0  0  0  0  0  0  0  0  0  0
   59.6030   28.5970   48.9550 C   0  0  0  0  0  0  0  0  0  0  0  0
   59.7940   27.3270   48.1180 C   0  0  0  0  0  0  0  0  0  0  0  0
   59.0300   27.3980   46.8220 C   0  0  0  0  0  0  0  0  0  0  0  0
   59.7110   27.5880   45.6090 C   0  0  0  0  0  0  0  0  0  0  0  0
   59.0010   27.6780   44.4090 C   0  0  0  0  0  0  0  0  0  0  0  0
   57.6070   27.5860   44.4110 C   0  0  0  0  0  0  0  0  0  0  0  0
   56.9180   27.4110   45.6150 C   0  0  0  0  0  0  0  0  0  0  0  0
   55.5320   27.3320   45.6170 O   0  0  0  0  0  0  0  0  0  0  0  0
   57.6270   27.3200   46.8180 C   0  0  0  0  0  0  0  0  0  0  0  0
   59.1510   33.1010   46.1450 C   0  0  0  0  0  0  0  0  0  0  0  0
   60.0510   33.4480   47.2660 C   0  0  0  0  0  0  0  0  0  0  0  0
   59.5240   33.7110   48.5410 C   0  0  0  0  0  0  0  0  0  0  0  0
   60.3740   34.0470   49.5980 C   0  0  0  0  0  0  0  0  0  0  0  0
   61.7560   34.1210   49.3920 C   0  0  0  0  0  0  0  0  0  0  0  0
   62.6000   34.4560   50.4430 O   0  0  0  0  0  0  0  0  0  0  0  0
   62.2880   33.8530   48.1260 C   0  0  0  0  0  0  0  0  0  0  0  0
   61.4390   33.5150   47.0670 C   0  0  0  0  0  0  0  0  0  0  0  0
   59.3816   35.8307   45.8463 H   0  0  0  0  0  0  0  0  0  0  0  0
   60.1698   35.3436   44.3074 H   0  0  0  0  0  0  0  0  0  0  0  0
   58.4566   35.8835   44.3074 H   0  0  0  0  0  0  0  0  0  0  0  0
   57.5360   33.6530   43.3790 H   0  0  0  0  0  0  0  0  0  0  0  0
   57.1111   30.7646   43.0484 H   0  0  0  0  0  0  0  0  0  0  0  0
   58.0487   30.8095   47.7139 H   0  0  0  0  0  0  0  0  0  0  0  0
   58.2449   29.7954   46.2220 H   0  0  0  0  0  0  0  0  0  0  0  0
   61.2333   30.1540   50.2958 H   0  0  0  0  0  0  0  0  0  0  0  0
   62.4176   29.7633   49.0030 H   0  0  0  0  0  0  0  0  0  0  0  0
   61.5797   31.3521   49.0030 H   0  0  0  0  0  0  0  0  0  0  0  0
   59.9213   28.3970   49.9888 H   0  0  0  0  0  0  0  0  0  0  0  0
   58.5400   28.8783   48.9249 H   0  0  0  0  0  0  0  0  0  0  0  0
   60.8641   27.2036   47.8954 H   0  0  0  0  0  0  0  0  0  0  0  0
   59.4124   26.4727   48.6964 H   0  0  0  0  0  0  0  0  0  0  0  0
   60.8082   27.6663   45.6034 H   0  0  0  0  0  0  0  0  0  0  0  0
   59.5405   27.8215   43.4612 H   0  0  0  0  0  0  0  0  0  0  0  0
   57.0508   27.6513   43.4642 H   0  0  0  0  0  0  0  0  0  0  0  0
   57.0835   27.1868   47.7650 H   0  0  0  0  0  0  0  0  0  0  0  0
   58.4384   33.6523   48.7081 H   0  0  0  0  0  0  0  0  0  0  0  0
   59.9558   34.2538   50.5942 H   0  0  0  0  0  0  0  0  0  0  0  0
   63.3745   33.9081   47.9634 H   0  0  0  0  0  0  0  0  0  0  0  0
   61.8608   33.3008   46.0739 H   0  0  0  0  0  0  0  0  0  0  0  0
  1  2  1  0
  2  3  1  0
  3  4  1  0
  4  5  1  0
  5  6  2  0
  4  7  2  0
  7  8  1  0
  8  9  1  0
  9 10  2  0
  9 11  1  0
 11 12  1  0
 11 13  1  0
 13 14  1  0
 14 15  1  0
 15 16  2  0
 16 17  1  0
 17 18  2  0
 18 19  1  0
 19 20  1  0
 19 21  2  0
  7 22  1  0
 22 23  1  0
 23 24  2  0
 24 25  1  0
 25 26  2  0
 26 27  1  0
 26 28  1  0
 28 29  2  0
 22  2  2  0
 29 23  1  0
 21 15  1  0
  1 30  1  0
  1 31  1  0
  1 32  1  0
  3 33  1  0
  5 34  1  0
  8 35  1  0
  8 36  1  0
 12 37  1  0
 12 38  1  0
 12 39  1  0
 13 40  1  0
 13 41  1  0
 14 42  1  0
 14 43  1  0
 16 44  1  0
 17 45  1  0
 18 46  1  0
 21 47  1  0
 24 48  1  0
 25 49  1  0
 28 50  1  0
 29 51  1  0
M  CHG  2  20  -1  27  -1
M  END
>  <UniqueID>  (30) 
28

>  <SMILES>  (30) 
Cc1[nH]c(C=O)c(CC(=O)N(C)CCc2cccc([O-])c2)c1-c1ccc([O-])cc1

>  <Energy>  (30) 
77.3489724563157

>  <Genealogy>  (30) 
Cc1[nH]c(C=O)c(CC(=O)N(C)CCc2cccc([O-])c2)c1-c1ccc([O-])cc1 (protonated)
Cc1[nH]c(C=O)c(CC(=O)N(C)CCc2cccc([O-])c2)c1-c1ccc([O-])cc1 (3D coordinates assigned)
Cc1[nH]c(C=O)c(CC(=O)N(C)CCc2cccc([O-])c2)c1-c1ccc([O-])cc1 (optimized conformer: 77.3489724563157 kcal/mol)

>  <smiles>  (30) 
Cc1[nH]c(C=O)c(CC(=O)N(C)CCc2cccc(O)c2)c1-c1ccc(O)cc1

>  <score_type>  (30) 
oracle

>  <origin>  (30) 
adg

>  <m_score__min__energy>  (30) 
-14.539999999999999

>  <m_primary>  (30) 
energy

$$$$
30:0
     RDKit          3D

 53 56  0  0  0  0  0  0  0  0999 V2000
   58.9590   34.9170   47.7940 O   0  0  0  0  0  0  0  0  0  0  0  0
   59.8090   33.9900   47.7220 C   0  0  0  0  0  0  0  0  0  0  0  0
   60.1270   33.2170   46.1460 S   0  0  0  0  0  0  0  0  0  0  0  0
   61.8260   33.8620   46.1380 C   0  0  0  0  0  0  0  0  0  0  0  0
   62.5990   33.2920   47.2960 C   0  0  0  0  0  0  0  0  0  0  0  0
   63.8290   33.0640   47.1390 O   0  0  0  0  0  0  0  0  0  0  0  0
   61.9710   33.0460   48.5780 N   0  0  0  0  0  0  0  0  0  0  0  0
   62.5810   32.0690   49.5020 C   0  0  0  0  0  0  0  0  0  0  0  0
   63.8210   32.6470   50.1350 C   0  0  0  0  0  0  0  0  0  0  0  0
   65.0940   32.1510   49.8060 C   0  0  0  0  0  0  0  0  0  0  0  0
   66.2390   32.7190   50.3740 C   0  0  0  0  0  0  0  0  0  0  0  0
   66.1220   33.7830   51.2710 C   0  0  0  0  0  0  0  0  0  0  0  0
   64.8580   34.2820   51.6040 C   0  0  0  0  0  0  0  0  0  0  0  0
   63.7110   33.7180   51.0370 C   0  0  0  0  0  0  0  0  0  0  0  0
   60.6690   33.6240   48.8700 C   0  0  0  0  0  0  0  0  0  0  0  0
   60.3080   33.8830   50.1470 C   0  0  0  0  0  0  0  0  0  0  0  0
   59.2910   33.1320   50.9110 C   0  0  0  0  0  0  0  0  0  0  0  0
   58.7150   33.6710   52.0740 C   0  0  0  0  0  0  0  0  0  0  0  0
   57.7120   32.9730   52.7530 C   0  0  0  0  0  0  0  0  0  0  0  0
   57.2520   31.7350   52.2640 C   0  0  0  0  0  0  0  0  0  0  0  0
   56.2410   30.9970   52.9010 O   0  0  0  0  0  0  0  0  0  0  0  0
   55.5880   29.8510   52.3550 C   0  0  0  0  0  0  0  0  0  0  0  0
   54.0920   29.9840   52.4580 C   0  0  0  0  0  0  0  0  0  0  0  0
   53.3360   29.0140   53.1340 C   0  0  0  0  0  0  0  0  0  0  0  0
   51.9480   29.1420   53.2240 C   0  0  0  0  0  0  0  0  0  0  0  0
   51.3020   30.2300   52.6340 C   0  0  0  0  0  0  0  0  0  0  0  0
   52.0390   31.2050   51.9400 C   0  0  0  0  0  0  0  0  0  0  0  0
   51.3520   32.3550   51.3120 C   0  0  0  0  0  0  0  0  0  0  0  0
   51.0170   33.3560   52.0000 O   0  0  0  0  0  0  0  0  0  0  0  0
   51.0660   32.3450   49.9510 O   0  0  0  0  0  0  0  0  0  0  0  0
   53.4370   31.0690   51.8520 C   0  0  0  0  0  0  0  0  0  0  0  0
   57.8140   31.2140   51.0940 C   0  0  0  0  0  0  0  0  0  0  0  0
   58.8160   31.9110   50.4140 C   0  0  0  0  0  0  0  0  0  0  0  0
   62.3188   33.5783   45.1963 H   0  0  0  0  0  0  0  0  0  0  0  0
   61.7963   34.9579   46.2285 H   0  0  0  0  0  0  0  0  0  0  0  0
   61.8569   31.8144   50.2900 H   0  0  0  0  0  0  0  0  0  0  0  0
   62.8568   31.1670   48.9361 H   0  0  0  0  0  0  0  0  0  0  0  0
   65.1903   31.3134   49.0995 H   0  0  0  0  0  0  0  0  0  0  0  0
   67.2333   32.3270   50.1138 H   0  0  0  0  0  0  0  0  0  0  0  0
   67.0238   34.2289   51.7158 H   0  0  0  0  0  0  0  0  0  0  0  0
   64.7665   35.1186   52.3123 H   0  0  0  0  0  0  0  0  0  0  0  0
   62.7188   34.1146   51.2984 H   0  0  0  0  0  0  0  0  0  0  0  0
   60.8108   34.7181   50.6567 H   0  0  0  0  0  0  0  0  0  0  0  0
   59.0549   34.6466   52.4518 H   0  0  0  0  0  0  0  0  0  0  0  0
   57.2801   33.3927   53.6735 H   0  0  0  0  0  0  0  0  0  0  0  0
   55.8681   29.7474   51.2963 H   0  0  0  0  0  0  0  0  0  0  0  0
   55.9016   28.9637   52.9245 H   0  0  0  0  0  0  0  0  0  0  0  0
   53.8380   28.1503   53.5944 H   0  0  0  0  0  0  0  0  0  0  0  0
   51.3616   28.3825   53.7619 H   0  0  0  0  0  0  0  0  0  0  0  0
   50.2089   30.3248   52.7128 H   0  0  0  0  0  0  0  0  0  0  0  0
   54.0232   31.8205   51.3027 H   0  0  0  0  0  0  0  0  0  0  0  0
   57.4638   30.2463   50.7055 H   0  0  0  0  0  0  0  0  0  0  0  0
   59.2341   31.4991   49.4837 H   0  0  0  0  0  0  0  0  0  0  0  0
  1  2  2  0
  2  3  1  0
  3  4  1  0
  4  5  1  0
  5  6  2  0
  5  7  1  0
  7  8  1  0
  8  9  1  0
  9 10  2  0
 10 11  1  0
 11 12  2  0
 12 13  1  0
 13 14  2  0
  7 15  1  0
 15 16  2  3
 16 17  1  0
 17 18  2  0
 18 19  1  0
 19 20  2  0
 20 21  1  0
 21 22  1  0
 22 23  1  0
 23 24  2  0
 24 25  1  0
 25 26  2  0
 26 27  1  0
 27 28  1  0
 28 29  2  0
 28 30  1  0
 27 31  2  0
 20 32  1  0
 32 33  2  0
 15  2  1  0
 33 17  1  0
 14  9  1  0
 31 23  1  0
  4 34  1  0
  4 35  1  0
  8 36  1  0
  8 37  1  0
 10 38  1  0
 11 39  1  0
 12 40  1  0
 13 41  1  0
 14 42  1  0
 16 43  1  0
 18 44  1  0
 19 45  1  0
 22 46  1  0
 22 47  1  0
 24 48  1  0
 25 49  1  0
 26 50  1  0
 31 51  1  0
 32 52  1  0
 33 53  1  0
M  CHG  1  30  -1
M  END
>  <UniqueID>  (31) 
29

>  <SMILES>  (31) 
O=C1SCC(=O)N(Cc2ccccc2)C1=Cc1ccc(OCc2cccc(C(=O)[O-])c2)cc1

>  <Energy>  (31) 
70.46474736207904

>  <Genealogy>  (31) 
O=C1SCC(=O)N(Cc2ccccc2)C1=Cc1ccc(OCc2cccc(C(=O)[O-])c2)cc1 (protonated)
O=C1SCC(=O)N(Cc2ccccc2)C1=Cc1ccc(OCc2cccc(C(=O)[O-])c2)cc1 (3D coordinates assigned)
O=C1SCC(=O)N(Cc2ccccc2)C1=Cc1ccc(OCc2cccc(C(=O)[O-])c2)cc1 (nonaromatic ring conformer: 70.46474736207904 kcal/mol)

>  <smiles>  (31) 
O=C1SCC(=O)N(Cc2ccccc2)C1=Cc1ccc(OCc2cccc(C(=O)O)c2)cc1

>  <score_type>  (31) 
oracle

>  <origin>  (31) 
adg

>  <m_score__min__energy>  (31) 
-14.119999999999999

>  <m_primary>  (31) 
energy

$$$$
31:0
     RDKit          3D

 45 47  0  0  0  0  0  0  0  0999 V2000
   57.0200   20.3760   45.2960 C   0  0  0  0  0  0  0  0  0  0  0  0
   57.1030   21.6270   44.0360 S   0  0  0  0  0  0  0  0  0  0  0  0
   58.5400   21.8410   43.6500 O   0  0  0  0  0  0  0  0  0  0  0  0
   56.3360   21.1780   42.8240 O   0  0  0  0  0  0  0  0  0  0  0  0
   56.4060   23.1230   44.6490 C   0  0  0  0  0  0  0  0  0  0  0  0
   55.0190   23.2670   44.7740 C   0  0  0  0  0  0  0  0  0  0  0  0
   54.4690   24.4630   45.2550 C   0  0  0  0  0  0  0  0  0  0  0  0
   53.0470   24.5870   45.3840 N   0  0  0  0  0  0  0  0  0  0  0  0
   55.3170   25.5270   45.6110 C   0  0  0  0  0  0  0  0  0  0  0  0
   54.7720   26.7050   46.1150 O   0  0  0  0  0  0  0  0  0  0  0  0
   56.7130   25.3940   45.4730 C   0  0  0  0  0  0  0  0  0  0  0  0
   57.6280   26.5130   45.8020 C   0  0  0  0  0  0  0  0  0  0  0  0
   58.6800   26.3250   46.7130 C   0  0  0  0  0  0  0  0  0  0  0  0
   59.5690   27.3680   46.9870 C   0  0  0  0  0  0  0  0  0  0  0  0
   59.4350   28.5940   46.3310 C   0  0  0  0  0  0  0  0  0  0  0  0
   58.4160   28.7850   45.3920 C   0  0  0  0  0  0  0  0  0  0  0  0
   58.3440   30.0330   44.6880 N   0  0  0  0  0  0  0  0  0  0  0  0
   57.2280   30.9360   44.6760 C   0  0  0  0  0  0  0  0  0  0  0  0
   56.0690   30.4680   44.5340 O   0  0  0  0  0  0  0  0  0  0  0  0
   57.3890   32.3550   44.8260 N   0  0  0  0  0  0  0  0  0  0  0  0
   58.0540   33.0230   45.9080 C   0  0  0  0  0  0  0  0  0  0  0  0
   58.1690   32.3600   47.1360 C   0  0  0  0  0  0  0  0  0  0  0  0
   58.7630   32.9930   48.2300 C   0  0  0  0  0  0  0  0  0  0  0  0
   59.2710   34.2920   48.0990 C   0  0  0  0  0  0  0  0  0  0  0  0
   59.8630   34.9380   49.1820 O   0  0  0  0  0  0  0  0  0  0  0  0
   59.1890   34.9480   46.8670 C   0  0  0  0  0  0  0  0  0  0  0  0
   58.5960   34.3160   45.7670 C   0  0  0  0  0  0  0  0  0  0  0  0
   58.5670   34.9730   44.5420 O   0  0  0  0  0  0  0  0  0  0  0  0
   57.4880   27.7560   45.1620 C   0  0  0  0  0  0  0  0  0  0  0  0
   57.2460   24.1860   44.9950 C   0  0  0  0  0  0  0  0  0  0  0  0
   57.0515   20.8515   46.2874 H   0  0  0  0  0  0  0  0  0  0  0  0
   56.0824   19.8106   45.1902 H   0  0  0  0  0  0  0  0  0  0  0  0
   57.8747   19.6917   45.1902 H   0  0  0  0  0  0  0  0  0  0  0  0
   54.3561   22.4355   44.4927 H   0  0  0  0  0  0  0  0  0  0  0  0
   52.5680   25.5040   45.2520 H   0  0  0  0  0  0  0  0  0  0  0  0
   52.4580   23.7560   45.6140 H   0  0  0  0  0  0  0  0  0  0  0  0
   58.8048   25.3531   47.2129 H   0  0  0  0  0  0  0  0  0  0  0  0
   60.3758   27.2232   47.7206 H   0  0  0  0  0  0  0  0  0  0  0  0
   60.1343   29.4133   46.5540 H   0  0  0  0  0  0  0  0  0  0  0  0
   57.7887   31.3331   47.2397 H   0  0  0  0  0  0  0  0  0  0  0  0
   58.8321   32.4710   49.1958 H   0  0  0  0  0  0  0  0  0  0  0  0
   59.4250   35.7380   49.6250 H   0  0  0  0  0  0  0  0  0  0  0  0
   59.5924   35.9659   46.7612 H   0  0  0  0  0  0  0  0  0  0  0  0
   56.6452   27.9246   44.4756 H   0  0  0  0  0  0  0  0  0  0  0  0
   58.3355   24.0748   44.8917 H   0  0  0  0  0  0  0  0  0  0  0  0
  1  2  1  0
  2  3  2  0
  2  4  2  0
  2  5  1  0
  5  6  2  0
  6  7  1  0
  7  8  1  0
  7  9  2  0
  9 10  1  0
  9 11  1  0
 11 12  1  0
 12 13  2  0
 13 14  1  0
 14 15  2  0
 15 16  1  0
 16 17  1  0
 17 18  1  0
 18 19  2  0
 18 20  1  0
 20 21  1  0
 21 22  2  0
 22 23  1  0
 23 24  2  0
 24 25  1  0
 24 26  1  0
 26 27  2  0
 27 28  1  0
 16 29  2  0
 11 30  2  0
 30  5  1  0
 29 12  1  0
 27 21  1  0
  1 31  1  0
  1 32  1  0
  1 33  1  0
  6 34  1  0
  8 35  1  0
  8 36  1  0
 13 37  1  0
 14 38  1  0
 15 39  1  0
 22 40  1  0
 23 41  1  0
 25 42  1  0
 26 43  1  0
 29 44  1  0
 30 45  1  0
M  CHG  4  10  -1  17  -1  20  -1  28  -1
M  END
>  <UniqueID>  (32) 
30

>  <SMILES>  (32) 
CS(=O)(=O)c1cc(N)c([O-])c(-c2cccc([N-]C(=O)[N-]c3ccc(O)cc3[O-])c2)c1

>  <Energy>  (32) 
57.36761216088345

>  <Genealogy>  (32) 
CS(=O)(=O)c1cc(N)c([O-])c(-c2cccc([N-]C(=O)[N-]c3ccc(O)cc3[O-])c2)c1 (protonated)
CS(=O)(=O)c1cc(N)c([O-])c(-c2cccc([N-]C(=O)[N-]c3ccc(O)cc3[O-])c2)c1 (3D coordinates assigned)
CS(=O)(=O)c1cc(N)c([O-])c(-c2cccc([N-]C(=O)[N-]c3ccc(O)cc3[O-])c2)c1 (optimized conformer: 57.36761216088345 kcal/mol)

>  <smiles>  (32) 
CS(=O)(=O)c1cc(N)c(O)c(-c2cccc(NC(=O)Nc3ccc(O)cc3O)c2)c1

>  <score_type>  (32) 
oracle

>  <origin>  (32) 
adg

>  <m_score__min__energy>  (32) 
-16.190000000000001

>  <m_primary>  (32) 
energy

$$$$
32:0
     RDKit          3D

 35 37  0  0  0  0  0  0  0  0999 V2000
   55.3250   26.6940   45.9990 N   0  0  0  0  0  0  0  0  0  0  0  0
   56.6530   27.1880   45.8320 C   0  0  0  0  0  0  0  0  0  0  0  0
   57.6110   26.3700   45.8540 O   0  0  0  0  0  0  0  0  0  0  0  0
   56.9160   28.6410   45.6330 C   0  0  0  0  0  0  0  0  0  0  0  0
   56.1700   29.3510   44.6750 C   0  0  0  0  0  0  0  0  0  0  0  0
   56.3850   30.6740   44.4660 N   0  0  0  0  0  0  0  0  0  0  0  0
   57.3170   31.3710   45.1630 C   0  0  0  0  0  0  0  0  0  0  0  0
   57.4990   32.7340   44.9090 C   0  0  0  0  0  0  0  0  0  0  0  0
   58.4600   33.4590   45.6190 C   0  0  0  0  0  0  0  0  0  0  0  0
   59.2480   32.8250   46.5880 C   0  0  0  0  0  0  0  0  0  0  0  0
   60.4740   33.7330   47.4670 S   0  0  0  0  0  0  0  0  0  0  0  0
   59.8240   34.9250   48.1100 O   0  0  0  0  0  0  0  0  0  0  0  0
   61.5540   34.2050   46.5360 O   0  0  0  0  0  0  0  0  0  0  0  0
   61.1840   32.7360   48.6980 N   0  0  0  0  0  0  0  0  0  0  0  0
   60.4520   31.7630   49.4640 C   0  0  0  0  0  0  0  0  0  0  0  0
   60.8100   30.4010   49.4720 C   0  0  0  0  0  0  0  0  0  0  0  0
   60.0690   29.4800   50.2190 C   0  0  0  0  0  0  0  0  0  0  0  0
   58.9710   29.9060   50.9690 C   0  0  0  0  0  0  0  0  0  0  0  0
   58.6110   31.2560   50.9760 C   0  0  0  0  0  0  0  0  0  0  0  0
   57.1090   31.8390   52.0020 Br  0  0  0  0  0  0  0  0  0  0  0  0
   59.3500   32.1800   50.2290 C   0  0  0  0  0  0  0  0  0  0  0  0
   59.0620   31.4610   46.8530 C   0  0  0  0  0  0  0  0  0  0  0  0
   58.0990   30.7200   46.1420 C   0  0  0  0  0  0  0  0  0  0  0  0
   57.8950   29.3450   46.3750 C   0  0  0  0  0  0  0  0  0  0  0  0
   58.5890   28.7500   47.2450 O   0  0  0  0  0  0  0  0  0  0  0  0
   54.6950   27.0850   46.7350 H   0  0  0  0  0  0  0  0  0  0  0  0
   55.4021   28.8265   44.0875 H   0  0  0  0  0  0  0  0  0  0  0  0
   56.8840   33.2370   44.1482 H   0  0  0  0  0  0  0  0  0  0  0  0
   58.5980   34.5313   45.4161 H   0  0  0  0  0  0  0  0  0  0  0  0
   62.1810   32.9310   48.9480 H   0  0  0  0  0  0  0  0  0  0  0  0
   61.6772   30.0598   48.8875 H   0  0  0  0  0  0  0  0  0  0  0  0
   60.3519   28.4170   50.2158 H   0  0  0  0  0  0  0  0  0  0  0  0
   58.3894   29.1787   51.5544 H   0  0  0  0  0  0  0  0  0  0  0  0
   59.0655   33.2425   50.2409 H   0  0  0  0  0  0  0  0  0  0  0  0
   59.6730   30.9660   47.6222 H   0  0  0  0  0  0  0  0  0  0  0  0
  1  2  1  0
  2  3  2  0
  2  4  1  0
  4  5  2  0
  5  6  1  0
  6  7  1  0
  7  8  2  0
  8  9  1  0
  9 10  2  0
 10 11  1  0
 11 12  2  0
 11 13  2  0
 11 14  1  0
 14 15  1  0
 15 16  2  0
 16 17  1  0
 17 18  2  0
 18 19  1  0
 19 20  1  0
 19 21  2  0
 10 22  1  0
 22 23  2  0
 23 24  1  0
 24 25  2  0
 24  4  1  0
 23  7  1  0
 21 15  1  0
  1 26  1  0
  5 27  1  0
  8 28  1  0
  9 29  1  0
 14 30  1  0
 16 31  1  0
 17 32  1  0
 18 33  1  0
 21 34  1  0
 22 35  1  0
M  CHG  2   1  -1   6  -1
M  END
>  <UniqueID>  (33) 
31

>  <SMILES>  (33) 
[NH-]C(=O)c1c[n-]c2ccc(S(=O)(=O)Nc3cccc(Br)c3)cc2c1=O

>  <Energy>  (33) 
47.348142879982205

>  <Genealogy>  (33) 
[NH-]C(=O)c1c[n-]c2ccc(S(=O)(=O)Nc3cccc(Br)c3)cc2c1=O (protonated)
[NH-]C(=O)c1c[n-]c2ccc(S(=O)(=O)Nc3cccc(Br)c3)cc2c1=O (3D coordinates assigned)
[NH-]C(=O)c1c[n-]c2ccc(S(=O)(=O)Nc3cccc(Br)c3)cc2c1=O (optimized conformer: 47.348142879982205 kcal/mol)

>  <smiles>  (33) 
NC(=O)c1c[nH]c2ccc(S(=O)(=O)Nc3cccc(Br)c3)cc2c1=O

>  <score_type>  (33) 
oracle

>  <origin>  (33) 
adg

>  <m_score__min__energy>  (33) 
-13.07

>  <m_primary>  (33) 
energy

$$$$
33:0
     RDKit          3D

 49 52  0  0  0  0  0  0  0  0999 V2000
   56.9860   34.3040   44.4920 O   0  0  0  0  0  0  0  0  0  0  0  0
   57.4060   33.3250   45.1630 C   0  0  0  0  0  0  0  0  0  0  0  0
   56.8190   32.0340   44.9500 N   0  0  0  0  0  0  0  0  0  0  0  0
   57.1650   31.1120   43.8700 C   0  0  0  0  0  0  0  0  0  0  0  0
   57.3840   29.7200   44.4020 C   0  0  0  0  0  0  0  0  0  0  0  0
   58.6880   29.1580   44.4290 C   0  0  0  0  0  0  0  0  0  0  0  0
   58.9040   27.8770   44.9670 C   0  0  0  0  0  0  0  0  0  0  0  0
   57.8010   27.1860   45.4580 C   0  0  0  0  0  0  0  0  0  0  0  0
   56.5500   27.7100   45.4260 C   0  0  0  0  0  0  0  0  0  0  0  0
   56.2930   28.9740   44.9020 C   0  0  0  0  0  0  0  0  0  0  0  0
   55.6600   26.8110   45.9770 O   0  0  0  0  0  0  0  0  0  0  0  0
   56.3970   25.6480   46.3810 C   0  0  0  0  0  0  0  0  0  0  0  0
   57.7590   25.9300   46.0320 O   0  0  0  0  0  0  0  0  0  0  0  0
   58.4510   33.5480   46.1770 C   0  0  0  0  0  0  0  0  0  0  0  0
   58.2010   33.2260   47.5170 C   0  0  0  0  0  0  0  0  0  0  0  0
   59.1930   33.4120   48.4840 C   0  0  0  0  0  0  0  0  0  0  0  0
   60.4410   33.9520   48.1270 C   0  0  0  0  0  0  0  0  0  0  0  0
   61.4660   34.1940   49.1040 N   0  0  0  0  0  0  0  0  0  0  0  0
   63.0950   33.6050   48.9620 S   0  0  0  0  0  0  0  0  0  0  0  0
   63.9160   34.2140   50.0630 O   0  0  0  0  0  0  0  0  0  0  0  0
   63.6950   34.0190   47.6480 O   0  0  0  0  0  0  0  0  0  0  0  0
   63.1580   31.8260   49.1480 C   0  0  0  0  0  0  0  0  0  0  0  0
   61.9320   31.1670   48.5800 C   0  0  0  0  0  0  0  0  0  0  0  0
   60.9470   30.6400   49.4340 C   0  0  0  0  0  0  0  0  0  0  0  0
   59.7880   30.0680   48.9030 C   0  0  0  0  0  0  0  0  0  0  0  0
   59.6030   30.0140   47.5190 C   0  0  0  0  0  0  0  0  0  0  0  0
   60.5800   30.5300   46.6640 C   0  0  0  0  0  0  0  0  0  0  0  0
   61.7420   31.1040   47.1900 C   0  0  0  0  0  0  0  0  0  0  0  0
   60.6890   34.2630   46.7820 C   0  0  0  0  0  0  0  0  0  0  0  0
   59.6980   34.0740   45.8150 C   0  0  0  0  0  0  0  0  0  0  0  0
   56.3455   31.0926   43.1365 H   0  0  0  0  0  0  0  0  0  0  0  0
   58.0957   31.4581   43.3967 H   0  0  0  0  0  0  0  0  0  0  0  0
   59.5365   29.7299   44.0254 H   0  0  0  0  0  0  0  0  0  0  0  0
   59.9113   27.4361   44.9986 H   0  0  0  0  0  0  0  0  0  0  0  0
   55.2709   29.3799   44.8779 H   0  0  0  0  0  0  0  0  0  0  0  0
   56.3013   25.4872   47.4650 H   0  0  0  0  0  0  0  0  0  0  0  0
   56.0266   24.7347   45.8925 H   0  0  0  0  0  0  0  0  0  0  0  0
   57.2195   32.8249   47.8097 H   0  0  0  0  0  0  0  0  0  0  0  0
   58.9961   33.1344   49.5300 H   0  0  0  0  0  0  0  0  0  0  0  0
   61.1780   34.5350   50.0490 H   0  0  0  0  0  0  0  0  0  0  0  0
   64.0452   31.4432   48.6223 H   0  0  0  0  0  0  0  0  0  0  0  0
   63.2075   31.5937   50.2220 H   0  0  0  0  0  0  0  0  0  0  0  0
   61.0894   30.6782   50.5241 H   0  0  0  0  0  0  0  0  0  0  0  0
   59.0197   29.6594   49.5758 H   0  0  0  0  0  0  0  0  0  0  0  0
   58.6888   29.5655   47.1030 H   0  0  0  0  0  0  0  0  0  0  0  0
   60.4351   30.4848   45.5745 H   0  0  0  0  0  0  0  0  0  0  0  0
   62.5093   31.5073   46.5128 H   0  0  0  0  0  0  0  0  0  0  0  0
   61.6716   34.6589   46.4859 H   0  0  0  0  0  0  0  0  0  0  0  0
   59.8977   34.3391   44.7663 H   0  0  0  0  0  0  0  0  0  0  0  0
  1  2  2  0
  2  3  1  0
  3  4  1  0
  4  5  1  0
  5  6  2  0
  6  7  1  0
  7  8  2  0
  8  9  1  0
  9 10  2  0
  9 11  1  0
 11 12  1  0
 12 13  1  0
  2 14  1  0
 14 15  2  0
 15 16  1  0
 16 17  2  0
 17 18  1  0
 18 19  1  0
 19 20  2  0
 19 21  2  0
 19 22  1  0
 22 23  1  0
 23 24  2  0
 24 25  1  0
 25 26  2  0
 26 27  1  0
 27 28  2  0
 17 29  1  0
 29 30  2  0
 10  5  1  0
 30 14  1  0
 13  8  1  0
 28 23  1  0
  4 31  1  0
  4 32  1  0
  6 33  1  0
  7 34  1  0
 10 35  1  0
 12 36  1  0
 12 37  1  0
 15 38  1  0
 16 39  1  0
 18 40  1  0
 22 41  1  0
 22 42  1  0
 24 43  1  0
 25 44  1  0
 26 45  1  0
 27 46  1  0
 28 47  1  0
 29 48  1  0
 30 49  1  0
M  CHG  1   3  -1
M  END
>  <UniqueID>  (34) 
32

>  <SMILES>  (34) 
O=C([N-]Cc1ccc2c(c1)OCO2)c1ccc(NS(=O)(=O)Cc2ccccc2)cc1

>  <Energy>  (34) 
78.98524434327278

>  <Genealogy>  (34) 
O=C([N-]Cc1ccc2c(c1)OCO2)c1ccc(NS(=O)(=O)Cc2ccccc2)cc1 (protonated)
O=C([N-]Cc1ccc2c(c1)OCO2)c1ccc(NS(=O)(=O)Cc2ccccc2)cc1 (3D coordinates assigned)
O=C([N-]Cc1ccc2c(c1)OCO2)c1ccc(NS(=O)(=O)Cc2ccccc2)cc1 (nonaromatic ring conformer: 78.98524434327278 kcal/mol)

>  <smiles>  (34) 
O=C(NCc1ccc2c(c1)OCO2)c1ccc(NS(=O)(=O)Cc2ccccc2)cc1

>  <score_type>  (34) 
oracle

>  <origin>  (34) 
adg

>  <m_score__min__energy>  (34) 
-10.24

>  <m_primary>  (34) 
energy

$$$$
34:0
     RDKit          3D

 56 59  0  0  1  0  0  0  0  0999 V2000
   57.3520   29.6810   52.3270 C   0  0  0  0  0  0  0  0  0  0  0  0
   58.3310   29.8200   51.2670 N   0  0  0  0  0  0  0  0  0  0  0  0
   58.1220   31.0450   50.5190 C   0  0  0  0  0  0  0  0  0  0  0  0
   59.6850   29.7030   51.7630 C   0  0  0  0  0  0  0  0  0  0  0  0
   60.3340   28.3850   51.4580 C   0  0  0  0  0  0  0  0  0  0  0  0
   61.3930   28.6290   49.9960 S   0  0  0  0  0  0  0  0  0  0  0  0
   60.3020   29.0870   48.6460 C   0  0  0  0  0  0  0  0  0  0  0  0
   60.4490   30.3140   47.9930 C   0  0  0  0  0  0  0  0  0  0  0  0
   59.5840   30.5980   46.9620 C   0  0  0  0  0  0  0  0  0  0  0  0
   58.5930   29.7140   46.5710 C   0  0  0  0  0  0  0  0  0  0  0  0
   57.6880   29.9910   45.5060 N   0  0  0  0  0  0  0  0  0  0  0  0
   57.8740   30.9590   44.7060 C   0  0  0  0  0  0  0  0  0  0  0  0
   58.0040   30.7270   43.3640 N   0  0  0  0  0  0  0  0  0  0  0  0
   58.1970   31.8210   42.6140 C   0  0  0  0  0  0  0  0  0  0  0  0
   58.2690   33.0690   43.0580 N   0  0  0  0  0  0  0  0  0  0  0  0
   58.1430   33.3570   44.4080 C   0  0  0  0  0  0  0  0  0  0  0  0
   58.1980   34.5700   44.9710 C   0  0  0  0  0  0  0  0  0  0  0  0
   58.0440   34.6090   46.3470 C   0  0  0  0  0  0  0  0  0  0  0  0
   57.8130   32.8280   46.8300 S   0  0  0  0  0  0  0  0  0  0  0  0
   57.9460   32.2720   45.2010 C   0  0  0  0  0  0  0  0  0  0  0  0
   58.4970   28.5190   47.2530 C   0  0  0  0  0  0  0  0  0  0  0  0
   57.4840   27.5660   46.8710 N   0  0  0  0  0  0  0  0  0  0  0  0
   57.9170   26.5070   46.0400 C   0  0  0  0  0  0  0  0  0  0  0  0
   59.1640   26.5410   45.7430 O   0  0  0  0  0  0  0  0  0  0  0  0
   57.1070   25.4390   45.5240 C   0  0  0  0  0  0  0  0  0  0  0  0
   57.7640   24.3900   44.8680 C   0  0  0  0  0  0  0  0  0  0  0  0
   57.0680   23.3350   44.3540 C   0  0  0  0  0  0  0  0  0  0  0  0
   55.7090   23.2310   44.4420 C   0  0  0  0  0  0  0  0  0  0  0  0
   55.0310   24.2550   45.0840 C   0  0  0  0  0  0  0  0  0  0  0  0
   53.6500   24.2130   45.2080 O   0  0  0  0  0  0  0  0  0  0  0  0
   55.7460   25.3210   45.6030 C   0  0  0  0  0  0  0  0  0  0  0  0
   55.0100   26.3090   46.2320 O   0  0  0  0  0  0  0  0  0  0  0  0
   59.3310   28.1750   48.2900 C   0  0  0  0  0  0  0  0  0  0  0  0
   57.8552   29.7524   53.3025 H   0  0  0  0  0  0  0  0  0  0  0  0
   56.6027   30.4818   52.2414 H   0  0  0  0  0  0  0  0  0  0  0  0
   56.8552   28.7033   52.2414 H   0  0  0  0  0  0  0  0  0  0  0  0
   57.9792   31.8819   51.2185 H   0  0  0  0  0  0  0  0  0  0  0  0
   58.9995   31.2421   49.8856 H   0  0  0  0  0  0  0  0  0  0  0  0
   57.2288   30.9400   49.8856 H   0  0  0  0  0  0  0  0  0  0  0  0
   60.2905   30.5005   51.3076 H   0  0  0  0  0  0  0  0  0  0  0  0
   59.6313   29.7858   52.8586 H   0  0  0  0  0  0  0  0  0  0  0  0
   60.9430   28.0582   52.3138 H   0  0  0  0  0  0  0  0  0  0  0  0
   59.5752   27.6124   51.2650 H   0  0  0  0  0  0  0  0  0  0  0  0
   61.2298   31.0282   48.2934 H   0  0  0  0  0  0  0  0  0  0  0  0
   59.6827   31.5568   46.4320 H   0  0  0  0  0  0  0  0  0  0  0  0
   57.9550   29.7790   42.9760 H   0  0  0  0  0  0  0  0  0  0  0  0
   58.3058   31.6700   41.5299 H   0  0  0  0  0  0  0  0  0  0  0  0
   58.3561   35.4818   44.3763 H   0  0  0  0  0  0  0  0  0  0  0  0
   58.0557   35.4914   47.0037 H   0  0  0  0  0  0  0  0  0  0  0  0
   56.5060   27.6480   47.1800 H   0  0  0  0  0  0  0  0  0  0  0  0
   58.8589   24.4173   44.7656 H   0  0  0  0  0  0  0  0  0  0  0  0
   57.6254   22.5337   43.8469 H   0  0  0  0  0  0  0  0  0  0  0  0
   55.1735   22.3680   44.0197 H   0  0  0  0  0  0  0  0  0  0  0  0
   53.1870   25.0290   45.6040 H   0  0  0  0  0  0  0  0  0  0  0  0
   54.0220   26.3020   46.3860 H   0  0  0  0  0  0  0  0  0  0  0  0
   59.2282   27.2131   48.8136 H   0  0  0  0  0  0  0  0  0  0  0  0
  1  2  1  0
  2  3  1  0
  2  4  1  0
  4  5  1  0
  5  6  1  0
  6  7  1  0
  7  8  2  0
  8  9  1  0
  9 10  2  0
 10 11  1  0
 11 12  2  0
 12 13  1  0
 13 14  1  0
 14 15  2  0
 15 16  1  0
 16 17  1  0
 17 18  2  0
 18 19  1  0
 19 20  1  0
 10 21  1  0
 21 22  1  0
 22 23  1  0
 23 24  2  0
 23 25  1  0
 25 26  2  0
 26 27  1  0
 27 28  2  0
 28 29  1  0
 29 30  1  0
 29 31  2  0
 31 32  1  0
 21 33  2  0
 33  7  1  0
 20 12  1  0
 31 25  1  0
 20 16  2  0
  1 34  1  0
  1 35  1  0
  1 36  1  0
  3 37  1  0
  3 38  1  0
  3 39  1  0
  4 40  1  0
  4 41  1  0
  5 42  1  0
  5 43  1  0
  8 44  1  0
  9 45  1  0
 13 46  1  0
 14 47  1  0
 17 48  1  0
 18 49  1  0
 22 50  1  0
 26 51  1  0
 27 52  1  0
 28 53  1  0
 30 54  1  0
 32 55  1  0
 33 56  1  0
M  END
>  <smiles>  (35) 
CN(C)CCSc1ccc(N=c2[nH]cnc3ccsc23)c(NC(=O)c2cccc(O)c2O)c1

>  <score_type>  (35) 
oracle

>  <origin>  (35) 
adg

>  <m_score__min__energy>  (35) 
-8.4499999999999993

>  <m_primary>  (35) 
energy

$$$$
35:0
     RDKit          3D

 66 69  0  0  0  0  0  0  0  0999 V2000
   60.4560   27.0680   48.9540 C   0  0  0  0  0  0  0  0  0  0  0  0
   59.7810   26.3630   47.9170 O   0  0  0  0  0  0  0  0  0  0  0  0
   58.9050   26.9530   46.9920 C   0  0  0  0  0  0  0  0  0  0  0  0
   59.2540   28.1090   46.2680 C   0  0  0  0  0  0  0  0  0  0  0  0
   58.3550   28.6830   45.3560 C   0  0  0  0  0  0  0  0  0  0  0  0
   58.7160   29.9720   44.6520 C   0  0  0  0  0  0  0  0  0  0  0  0
   57.5780   30.5300   43.7910 C   0  0  0  0  0  0  0  0  0  0  0  0
   57.6800   31.9910   43.6730 N   0  0  0  0  0  0  0  0  0  0  0  0
   57.0150   32.6630   44.7970 C   0  0  0  0  0  0  0  0  0  0  0  0
   58.0370   33.3120   45.6930 C   0  0  0  0  0  0  0  0  0  0  0  0
   58.7100   34.4680   45.2690 C   0  0  0  0  0  0  0  0  0  0  0  0
   59.6550   35.0740   46.0990 C   0  0  0  0  0  0  0  0  0  0  0  0
   59.9200   34.5450   47.3650 C   0  0  0  0  0  0  0  0  0  0  0  0
   59.2250   33.4190   47.8200 C   0  0  0  0  0  0  0  0  0  0  0  0
   59.5080   32.9140   49.1310 N   0  0  0  0  0  0  0  0  0  0  0  0
   60.4050   33.5110   50.0790 C   0  0  0  0  0  0  0  0  0  0  0  0
   59.9490   34.1890   51.0400 O   0  0  0  0  0  0  0  0  0  0  0  0
   61.8680   33.3610   49.9100 C   0  0  0  0  0  0  0  0  0  0  0  0
   62.3980   32.7500   48.7580 C   0  0  0  0  0  0  0  0  0  0  0  0
   63.7800   32.6210   48.5950 C   0  0  0  0  0  0  0  0  0  0  0  0
   64.6480   33.1050   49.5750 C   0  0  0  0  0  0  0  0  0  0  0  0
   65.9880   32.9910   49.4090 F   0  0  0  0  0  0  0  0  0  0  0  0
   64.1360   33.7100   50.7250 C   0  0  0  0  0  0  0  0  0  0  0  0
   62.7540   33.8350   50.8970 C   0  0  0  0  0  0  0  0  0  0  0  0
   58.2990   32.7900   46.9710 C   0  0  0  0  0  0  0  0  0  0  0  0
   57.0990   28.0840   45.1690 C   0  0  0  0  0  0  0  0  0  0  0  0
   56.7520   26.9300   45.8730 C   0  0  0  0  0  0  0  0  0  0  0  0
   57.6400   26.3710   46.8090 C   0  0  0  0  0  0  0  0  0  0  0  0
   57.3140   25.1990   47.5700 N   0  0  0  0  0  0  0  0  0  0  0  0
   57.0920   23.8620   47.1000 C   0  0  0  0  0  0  0  0  0  0  0  0
   57.2730   22.8760   47.8650 O   0  0  0  0  0  0  0  0  0  0  0  0
   56.6540   23.6220   45.7030 C   0  0  0  0  0  0  0  0  0  0  0  0
   55.3190   23.9220   45.3660 C   0  0  0  0  0  0  0  0  0  0  0  0
   54.8440   23.7170   44.0710 C   0  0  0  0  0  0  0  0  0  0  0  0
   55.6890   23.1990   43.0920 C   0  0  0  0  0  0  0  0  0  0  0  0
   57.0140   22.8910   43.4010 C   0  0  0  0  0  0  0  0  0  0  0  0
   57.5130   23.0910   44.7010 C   0  0  0  0  0  0  0  0  0  0  0  0
   58.9440   22.7180   44.9820 C   0  0  0  0  0  0  0  0  0  0  0  0
   60.1075   26.7040   49.9318 H   0  0  0  0  0  0  0  0  0  0  0  0
   61.5397   26.9011   48.8656 H   0  0  0  0  0  0  0  0  0  0  0  0
   60.2422   28.1434   48.8656 H   0  0  0  0  0  0  0  0  0  0  0  0
   60.2425   28.5674   46.4189 H   0  0  0  0  0  0  0  0  0  0  0  0
   58.9800   30.7228   45.4114 H   0  0  0  0  0  0  0  0  0  0  0  0
   59.5571   29.7514   43.9782 H   0  0  0  0  0  0  0  0  0  0  0  0
   57.6325   30.0826   42.7876 H   0  0  0  0  0  0  0  0  0  0  0  0
   56.6195   30.2814   44.2700 H   0  0  0  0  0  0  0  0  0  0  0  0
   58.6970   32.2430   43.7080 H   0  0  0  0  0  0  0  0  0  0  0  0
   56.3321   33.4325   44.4078 H   0  0  0  0  0  0  0  0  0  0  0  0
   56.4501   31.9184   45.3771 H   0  0  0  0  0  0  0  0  0  0  0  0
   58.4924   34.8978   44.2801 H   0  0  0  0  0  0  0  0  0  0  0  0
   60.1924   35.9702   45.7555 H   0  0  0  0  0  0  0  0  0  0  0  0
   60.6788   35.0161   48.0071 H   0  0  0  0  0  0  0  0  0  0  0  0
   61.7191   32.3711   47.9799 H   0  0  0  0  0  0  0  0  0  0  0  0
   64.1841   32.1375   47.6934 H   0  0  0  0  0  0  0  0  0  0  0  0
   64.8216   34.0890   51.4972 H   0  0  0  0  0  0  0  0  0  0  0  0
   62.3566   34.3061   51.8081 H   0  0  0  0  0  0  0  0  0  0  0  0
   57.7759   31.8833   47.3089 H   0  0  0  0  0  0  0  0  0  0  0  0
   56.3827   28.5278   44.4619 H   0  0  0  0  0  0  0  0  0  0  0  0
   55.7765   26.4542   45.6943 H   0  0  0  0  0  0  0  0  0  0  0  0
   54.6424   24.3233   46.1349 H   0  0  0  0  0  0  0  0  0  0  0  0
   53.8014   23.9645   43.8223 H   0  0  0  0  0  0  0  0  0  0  0  0
   55.3104   23.0324   42.0727 H   0  0  0  0  0  0  0  0  0  0  0  0
   57.6754   22.4876   42.6201 H   0  0  0  0  0  0  0  0  0  0  0  0
   59.1052   22.6760   46.0693 H   0  0  0  0  0  0  0  0  0  0  0  0
   59.1597   21.7336   44.5410 H   0  0  0  0  0  0  0  0  0  0  0  0
   59.6128   23.4718   44.5410 H   0  0  0  0  0  0  0  0  0  0  0  0
  1  2  1  0
  2  3  1  0
  3  4  2  0
  4  5  1  0
  5  6  1  0
  6  7  1  0
  7  8  1  0
  8  9  1  0
  9 10  1  0
 10 11  2  0
 11 12  1  0
 12 13  2  0
 13 14  1  0
 14 15  1  0
 15 16  1  0
 16 17  2  0
 16 18  1  0
 18 19  2  0
 19 20  1  0
 20 21  2  0
 21 22  1  0
 21 23  1  0
 23 24  2  0
 14 25  2  0
  5 26  2  0
 26 27  1  0
 27 28  2  0
 28 29  1  0
 29 30  1  0
 30 31  2  0
 30 32  1  0
 32 33  2  0
 33 34  1  0
 34 35  2  0
 35 36  1  0
 36 37  2  0
 37 38  1  0
 28  3  1  0
 37 32  1  0
 25 10  1  0
 24 18  1  0
  1 39  1  0
  1 40  1  0
  1 41  1  0
  4 42  1  0
  6 43  1  0
  6 44  1  0
  7 45  1  0
  7 46  1  0
  8 47  1  0
  9 48  1  0
  9 49  1  0
 11 50  1  0
 12 51  1  0
 13 52  1  0
 19 53  1  0
 20 54  1  0
 23 55  1  0
 24 56  1  0
 25 57  1  0
 26 58  1  0
 27 59  1  0
 33 60  1  0
 34 61  1  0
 35 62  1  0
 36 63  1  0
 38 64  1  0
 38 65  1  0
 38 66  1  0
M  CHG  2  15  -1  29  -1
M  END
>  <UniqueID>  (36) 
33

>  <SMILES>  (36) 
COc1cc(CCNCc2cccc([N-]C(=O)c3ccc(F)cc3)c2)ccc1[N-]C(=O)c1ccccc1C

>  <Energy>  (36) 
79.77653107628683

>  <Genealogy>  (36) 
COc1cc(CCNCc2cccc([N-]C(=O)c3ccc(F)cc3)c2)ccc1[N-]C(=O)c1ccccc1C (protonated)
COc1cc(CCNCc2cccc([N-]C(=O)c3ccc(F)cc3)c2)ccc1[N-]C(=O)c1ccccc1C (3D coordinates assigned)
COc1cc(CCNCc2cccc([N-]C(=O)c3ccc(F)cc3)c2)ccc1[N-]C(=O)c1ccccc1C (optimized conformer: 79.77653107628683 kcal/mol)

>  <smiles>  (36) 
COc1cc(CCNCc2cccc(NC(=O)c3ccc(F)cc3)c2)ccc1NC(=O)c1ccccc1C

>  <score_type>  (36) 
oracle

>  <origin>  (36) 
adg

>  <m_score__min__energy>  (36) 
-13.17

>  <m_primary>  (36) 
energy

$$$$
36:0
     RDKit          3D

 43 45  0  0  0  0  0  0  0  0999 V2000
   53.3796   32.3701   52.1127 H   0  0  0  0  0  0  0  0  0  0  0  0
   53.1340   31.3830   51.6940 C   0  0  0  0  0  0  0  0  0  0  0  0
   51.9310   31.2920   50.8450 C   0  0  0  0  0  0  0  0  0  0  0  0
   51.7430   30.3160   50.0710 O   0  0  0  0  0  0  0  0  0  0  0  0
   51.0190   32.3380   50.8480 O   0  0  0  0  0  0  0  0  0  0  0  0
   53.9550   30.3660   52.0000 C   0  0  0  0  0  0  0  0  0  0  0  0
   53.4939   29.4289   52.3452 H   0  0  0  0  0  0  0  0  0  0  0  0
   55.4250   30.4060   51.9100 C   0  0  0  0  0  0  0  0  0  0  0  0
   56.0640   29.3250   52.0150 O   0  0  0  0  0  0  0  0  0  0  0  0
   56.1140   31.6430   51.6580 N   0  0  0  0  0  0  0  0  0  0  0  0
   55.5520   32.5240   51.6260 H   0  0  0  0  0  0  0  0  0  0  0  0
   57.5420   31.7650   51.5590 C   0  0  0  0  0  0  0  0  0  0  0  0
   58.3360   32.0280   52.6900 C   0  0  0  0  0  0  0  0  0  0  0  0
   57.8609   32.1720   53.6716 H   0  0  0  0  0  0  0  0  0  0  0  0
   59.7260   32.1070   52.5710 C   0  0  0  0  0  0  0  0  0  0  0  0
   60.3406   32.3219   53.4576 H   0  0  0  0  0  0  0  0  0  0  0  0
   60.3380   31.9140   51.3300 C   0  0  0  0  0  0  0  0  0  0  0  0
   61.4327   31.9769   51.2428 H   0  0  0  0  0  0  0  0  0  0  0  0
   59.5600   31.6400   50.1940 C   0  0  0  0  0  0  0  0  0  0  0  0
   60.2200   31.3820   48.8630 C   0  0  0  0  0  0  0  0  0  0  0  0
   61.0181   32.1247   48.7164 H   0  0  0  0  0  0  0  0  0  0  0  0
   60.6165   30.3562   48.8828 H   0  0  0  0  0  0  0  0  0  0  0  0
   59.2540   31.4750   47.7030 C   0  0  0  0  0  0  0  0  0  0  0  0
   58.6540   30.3450   47.2350 N   0  0  0  0  0  0  0  0  0  0  0  0
   57.7850   30.3690   46.2240 N   0  0  0  0  0  0  0  0  0  0  0  0
   57.4510   31.5240   45.6010 C   0  0  0  0  0  0  0  0  0  0  0  0
   56.6070   31.5030   44.6650 O   0  0  0  0  0  0  0  0  0  0  0  0
   58.0480   32.7260   46.0090 C   0  0  0  0  0  0  0  0  0  0  0  0
   58.9690   32.7040   47.0690 C   0  0  0  0  0  0  0  0  0  0  0  0
   59.5740   34.0230   47.4980 C   0  0  0  0  0  0  0  0  0  0  0  0
   58.8301   34.5929   48.0740 H   0  0  0  0  0  0  0  0  0  0  0  0
   60.4605   33.8244   48.1183 H   0  0  0  0  0  0  0  0  0  0  0  0
   59.9980   34.8410   46.2700 C   0  0  0  0  0  0  0  0  0  0  0  0
   60.2515   35.8582   46.6034 H   0  0  0  0  0  0  0  0  0  0  0  0
   60.8530   34.3159   45.8192 H   0  0  0  0  0  0  0  0  0  0  0  0
   58.9090   34.9460   45.1720 C   0  0  0  0  0  0  0  0  0  0  0  0
   58.5738   35.9924   45.1215 H   0  0  0  0  0  0  0  0  0  0  0  0
   59.3744   34.5939   44.2396 H   0  0  0  0  0  0  0  0  0  0  0  0
   57.6720   34.0570   45.4020 C   0  0  0  0  0  0  0  0  0  0  0  0
   56.9806   34.5766   46.0817 H   0  0  0  0  0  0  0  0  0  0  0  0
   57.1980   33.8687   44.4274 H   0  0  0  0  0  0  0  0  0  0  0  0
   58.1640   31.5470   50.3210 C   0  0  0  0  0  0  0  0  0  0  0  0
   57.5525   31.3007   49.4404 H   0  0  0  0  0  0  0  0  0  0  0  0
  1  2  1  0
  2  3  1  0
  3  4  2  0
  3  5  1  0
  2  6  2  0
  6  7  1  0
  6  8  1  0
  8  9  2  0
  8 10  1  0
 10 11  1  0
 10 12  1  0
 12 13  2  0
 13 14  1  0
 13 15  1  0
 15 16  1  0
 15 17  2  0
 17 18  1  0
 17 19  1  0
 19 20  1  0
 20 21  1  0
 20 22  1  0
 20 23  1  0
 23 24  2  0
 24 25  1  0
 25 26  1  0
 26 27  2  0
 26 28  1  0
 28 29  2  0
 29 30  1  0
 30 31  1  0
 30 32  1  0
 30 33  1  0
 33 34  1  0
 33 35  1  0
 33 36  1  0
 36 37  1  0
 36 38  1  0
 36 39  1  0
 39 40  1  0
 39 41  1  0
 19 42  2  0
 42 43  1  0
 42 12  1  0
 29 23  1  0
 39 28  1  0
M  CHG  2   5  -1  25  -1
M  END
>  <UniqueID>  (37) 
34

>  <SMILES>  (37) 
O=C([O-])/C=C\C(=O)Nc1cccc(Cc2n[n-]c(=O)c3c2CCCC3)c1

>  <Energy>  (37) 
63.372683277298435

>  <Genealogy>  (37) 
O=C([O-])C=CC(=O)Nc1cccc(Cc2n[n-]c(=O)c3c2CCCC3)c1 (protonated)
O=C([O-])/C=C\C(=O)Nc1cccc(Cc2n[n-]c(=O)c3c2CCCC3)c1 (cis-trans isomerization)
O=C([O-])/C=C\C(=O)Nc1cccc(Cc2n[n-]c(=O)c3c2CCCC3)c1 (3D coordinates assigned)
O=C([O-])/C=C\C(=O)Nc1cccc(Cc2n[n-]c(=O)c3c2CCCC3)c1 (nonaromatic ring conformer: 63.372683277298435 kcal/mol)

>  <smiles>  (37) 
O=C(O)C=CC(=O)Nc1cccc(Cc2n[nH]c(=O)c3c2CCCC3)c1

>  <score_type>  (37) 
oracle

>  <origin>  (37) 
adg

>  <m_score__min__energy>  (37) 
-14.09

>  <m_primary>  (37) 
energy

$$$$
37:0
     RDKit          3D

 37 38  0  0  0  0  0  0  0  0999 V2000
   58.2192   29.2091   49.2094 H   0  0  0  0  0  0  0  0  0  0  0  0
   58.9160   29.4930   48.4070 C   0  0  0  0  0  0  0  0  0  0  0  0
   58.6891   29.2306   47.3631 H   0  0  0  0  0  0  0  0  0  0  0  0
   60.0370   30.1560   48.7000 C   0  0  0  0  0  0  0  0  0  0  0  0
   60.2527   30.4127   49.7477 H   0  0  0  0  0  0  0  0  0  0  0  0
   61.0080   30.5580   47.6310 C   0  0  0  0  0  0  0  0  0  0  0  0
   62.0281   30.2899   47.9434 H   0  0  0  0  0  0  0  0  0  0  0  0
   60.7596   30.0343   46.6961 H   0  0  0  0  0  0  0  0  0  0  0  0
   60.9310   31.9650   47.4200 O   0  0  0  0  0  0  0  0  0  0  0  0
   59.9210   32.6030   46.6850 C   0  0  0  0  0  0  0  0  0  0  0  0
   59.7230   33.9960   46.7310 C   0  0  0  0  0  0  0  0  0  0  0  0
   60.3803   34.6241   47.3503 H   0  0  0  0  0  0  0  0  0  0  0  0
   58.6940   34.5810   45.9920 C   0  0  0  0  0  0  0  0  0  0  0  0
   58.5385   35.6691   46.0362 H   0  0  0  0  0  0  0  0  0  0  0  0
   57.8610   33.7920   45.1970 C   0  0  0  0  0  0  0  0  0  0  0  0
   57.0477   34.2621   44.6247 H   0  0  0  0  0  0  0  0  0  0  0  0
   58.0530   32.4030   45.1220 C   0  0  0  0  0  0  0  0  0  0  0  0
   57.1350   31.6080   44.2680 C   0  0  0  0  0  0  0  0  0  0  0  0
   56.1581   32.0441   44.0122 H   0  0  0  0  0  0  0  0  0  0  0  0
   57.4270   30.3890   43.7900 C   0  0  0  0  0  0  0  0  0  0  0  0
   57.5786   30.2669   42.7074 H   0  0  0  0  0  0  0  0  0  0  0  0
   57.5530   29.1990   44.6680 C   0  0  0  0  0  0  0  0  0  0  0  0
   56.4340   28.5430   45.2020 C   0  0  0  0  0  0  0  0  0  0  0  0
   55.1440   28.9650   44.8960 O   0  0  0  0  0  0  0  0  0  0  0  0
   56.6010   27.4660   46.0100 N   0  0  0  0  0  0  0  0  0  0  0  0
   55.7590   27.0000   46.4160 H   0  0  0  0  0  0  0  0  0  0  0  0
   57.8380   26.9770   46.2920 C   0  0  0  0  0  0  0  0  0  0  0  0
   57.9430   25.9850   47.0650 O   0  0  0  0  0  0  0  0  0  0  0  0
   58.9530   27.5540   45.7410 N   0  0  0  0  0  0  0  0  0  0  0  0
   60.2910   27.0280   46.0630 C   0  0  0  0  0  0  0  0  0  0  0  0
   60.4130   26.9800   47.1552 H   0  0  0  0  0  0  0  0  0  0  0  0
   60.4009   26.0198   45.6371 H   0  0  0  0  0  0  0  0  0  0  0  0
   61.0581   27.6915   45.6371 H   0  0  0  0  0  0  0  0  0  0  0  0
   58.8240   28.6680   44.9510 C   0  0  0  0  0  0  0  0  0  0  0  0
   59.8510   29.2350   44.4810 O   0  0  0  0  0  0  0  0  0  0  0  0
   59.0830   31.8170   45.8850 C   0  0  0  0  0  0  0  0  0  0  0  0
   59.2304   30.7274   45.8515 H   0  0  0  0  0  0  0  0  0  0  0  0
  1  2  1  0
  2  3  1  0
  2  4  2  0
  4  5  1  0
  4  6  1  0
  6  7  1  0
  6  8  1  0
  6  9  1  0
  9 10  1  0
 10 11  2  0
 11 12  1  0
 11 13  1  0
 13 14  1  0
 13 15  2  0
 15 16  1  0
 15 17  1  0
 17 18  1  0
 18 19  1  0
 18 20  2  0
 20 21  1  0
 20 22  1  0
 22 23  2  0
 23 24  1  0
 23 25  1  0
 25 26  1  0
 25 27  1  0
 27 28  2  0
 27 29  1  0
 29 30  1  0
 30 31  1  0
 30 32  1  0
 30 33  1  0
 29 34  1  0
 34 35  2  0
 17 36  2  0
 36 37  1  0
 36 10  1  0
 34 22  1  0
M  CHG  1  24  -1
M  END
>  <UniqueID>  (38) 
35

>  <SMILES>  (38) 
C=CCOc1cccc(/C=C/c2c([O-])[nH]c(=O)n(C)c2=O)c1

>  <Energy>  (38) 
46.022473957574796

>  <Genealogy>  (38) 
C=CCOc1cccc(C=Cc2c([O-])[nH]c(=O)n(C)c2=O)c1 (protonated)
C=CCOc1cccc(/C=C/c2c([O-])[nH]c(=O)n(C)c2=O)c1 (cis-trans isomerization)
C=CCOc1cccc(/C=C/c2c([O-])[nH]c(=O)n(C)c2=O)c1 (3D coordinates assigned)
C=CCOc1cccc(/C=C/c2c([O-])[nH]c(=O)n(C)c2=O)c1 (optimized conformer: 46.022473957574796 kcal/mol)

>  <smiles>  (38) 
C=CCOc1cccc(C=Cc2c(O)[nH]c(=O)n(C)c2=O)c1

>  <score_type>  (38) 
oracle

>  <origin>  (38) 
adg

>  <m_score__min__energy>  (38) 
-10.82

>  <m_primary>  (38) 
energy

$$$$
38:0
     RDKit          3D

 43 45  0  0  0  0  0  0  0  0999 V2000
   60.8370   26.6980   48.9130 O   0  0  0  0  0  0  0  0  0  0  0  0
   59.8610   26.9450   48.1570 C   0  0  0  0  0  0  0  0  0  0  0  0
   59.6810   26.1250   46.9140 C   0  0  0  0  0  0  0  0  0  0  0  0
   57.9110   25.7810   46.6440 S   0  0  0  0  0  0  0  0  0  0  0  0
   57.6180   27.3460   45.8290 C   0  0  0  0  0  0  0  0  0  0  0  0
   58.6630   28.0940   45.3980 N   0  0  0  0  0  0  0  0  0  0  0  0
   58.4650   29.2770   44.7630 C   0  0  0  0  0  0  0  0  0  0  0  0
   59.4610   29.9440   44.3790 O   0  0  0  0  0  0  0  0  0  0  0  0
   57.1550   29.7430   44.5350 C   0  0  0  0  0  0  0  0  0  0  0  0
   56.8980   31.0730   43.8640 C   0  0  0  0  0  0  0  0  0  0  0  0
   57.5940   32.1830   44.6080 C   0  0  0  0  0  0  0  0  0  0  0  0
   57.3880   32.3510   45.9880 C   0  0  0  0  0  0  0  0  0  0  0  0
   58.0090   33.4030   46.6700 C   0  0  0  0  0  0  0  0  0  0  0  0
   58.8340   34.2940   45.9810 C   0  0  0  0  0  0  0  0  0  0  0  0
   59.0430   34.1360   44.6080 C   0  0  0  0  0  0  0  0  0  0  0  0
   58.4240   33.0860   43.9220 C   0  0  0  0  0  0  0  0  0  0  0  0
   56.0910   28.9480   45.0000 C   0  0  0  0  0  0  0  0  0  0  0  0
   54.7720   29.3440   44.8180 O   0  0  0  0  0  0  0  0  0  0  0  0
   56.3470   27.7740   45.6310 N   0  0  0  0  0  0  0  0  0  0  0  0
   58.9760   28.0210   48.5000 N   0  0  0  0  0  0  0  0  0  0  0  0
   59.2880   29.1400   49.3880 C   0  0  0  0  0  0  0  0  0  0  0  0
   59.9950   30.2450   48.6500 C   0  0  0  0  0  0  0  0  0  0  0  0
   60.7210   29.9650   47.4800 C   0  0  0  0  0  0  0  0  0  0  0  0
   61.3790   30.9910   46.7960 C   0  0  0  0  0  0  0  0  0  0  0  0
   61.3340   32.2990   47.2830 C   0  0  0  0  0  0  0  0  0  0  0  0
   60.6330   32.5850   48.4590 C   0  0  0  0  0  0  0  0  0  0  0  0
   60.5850   34.2270   49.0740 Cl  0  0  0  0  0  0  0  0  0  0  0  0
   59.9700   31.5610   49.1440 C   0  0  0  0  0  0  0  0  0  0  0  0
   60.0801   26.6788   46.0514 H   0  0  0  0  0  0  0  0  0  0  0  0
   60.2202   25.1731   47.0284 H   0  0  0  0  0  0  0  0  0  0  0  0
   57.2761   31.0366   42.8317 H   0  0  0  0  0  0  0  0  0  0  0  0
   55.8155   31.2685   43.8649 H   0  0  0  0  0  0  0  0  0  0  0  0
   56.7362   31.6530   46.5338 H   0  0  0  0  0  0  0  0  0  0  0  0
   57.8470   33.5283   47.7508 H   0  0  0  0  0  0  0  0  0  0  0  0
   59.3200   35.1211   46.5192 H   0  0  0  0  0  0  0  0  0  0  0  0
   59.6946   34.8378   44.0668 H   0  0  0  0  0  0  0  0  0  0  0  0
   58.5876   32.9665   42.8408 H   0  0  0  0  0  0  0  0  0  0  0  0
   58.3518   29.5335   49.8106 H   0  0  0  0  0  0  0  0  0  0  0  0
   59.9525   28.7751   50.1851 H   0  0  0  0  0  0  0  0  0  0  0  0
   60.7717   28.9337   47.1007 H   0  0  0  0  0  0  0  0  0  0  0  0
   61.9333   30.7678   45.8725 H   0  0  0  0  0  0  0  0  0  0  0  0
   61.8503   33.1051   46.7412 H   0  0  0  0  0  0  0  0  0  0  0  0
   59.4266   31.7866   50.0734 H   0  0  0  0  0  0  0  0  0  0  0  0
  1  2  2  0
  2  3  1  0
  3  4  1  0
  4  5  1  0
  5  6  2  0
  6  7  1  0
  7  8  2  0
  7  9  1  0
  9 10  1  0
 10 11  1  0
 11 12  2  0
 12 13  1  0
 13 14  2  0
 14 15  1  0
 15 16  2  0
  9 17  2  0
 17 18  1  0
 17 19  1  0
  2 20  1  0
 20 21  1  0
 21 22  1  0
 22 23  2  0
 23 24  1  0
 24 25  2  0
 25 26  1  0
 26 27  1  0
 26 28  2  0
 19  5  1  0
 28 22  1  0
 16 11  1  0
  3 29  1  0
  3 30  1  0
 10 31  1  0
 10 32  1  0
 12 33  1  0
 13 34  1  0
 14 35  1  0
 15 36  1  0
 16 37  1  0
 21 38  1  0
 21 39  1  0
 23 40  1  0
 24 41  1  0
 25 42  1  0
 28 43  1  0
M  CHG  3  18  -1  19  -1  20  -1
M  END
>  <UniqueID>  (39) 
36

>  <SMILES>  (39) 
O=C(CSc1nc(=O)c(Cc2ccccc2)c([O-])[n-]1)[N-]Cc1cccc(Cl)c1

>  <Energy>  (39) 
39.467481997600665

>  <Genealogy>  (39) 
O=C(CSc1nc(=O)c(Cc2ccccc2)c([O-])[n-]1)[N-]Cc1cccc(Cl)c1 (protonated)
O=C(CSc1nc(=O)c(Cc2ccccc2)c([O-])[n-]1)[N-]Cc1cccc(Cl)c1 (3D coordinates assigned)
O=C(CSc1nc(=O)c(Cc2ccccc2)c([O-])[n-]1)[N-]Cc1cccc(Cl)c1 (optimized conformer: 39.467481997600665 kcal/mol)

>  <smiles>  (39) 
O=C(CSc1nc(=O)c(Cc2ccccc2)c(O)[nH]1)NCc1cccc(Cl)c1

>  <score_type>  (39) 
oracle

>  <origin>  (39) 
adg

>  <m_score__min__energy>  (39) 
-15.529999999999999

>  <m_primary>  (39) 
energy

$$$$
39:0
     RDKit          3D

 52 54  0  0  0  0  0  0  0  0999 V2000
   58.5050   28.8300   46.8520 C   0  0  0  0  0  0  0  0  0  0  0  0
   58.0400   28.9280   45.5970 C   0  0  0  0  0  0  0  0  0  0  0  0
   57.8710   27.8910   44.6640 C   0  0  0  0  0  0  0  0  0  0  0  0
   57.9930   26.5550   44.7880 C   0  0  0  0  0  0  0  0  0  0  0  0
   57.3340   25.7210   45.8030 C   0  0  0  0  0  0  0  0  0  0  0  0
   57.8670   24.5890   46.2910 N   0  0  0  0  0  0  0  0  0  0  0  0
   56.8950   24.1090   47.0980 C   0  0  0  0  0  0  0  0  0  0  0  0
   57.0260   23.0460   47.7590 O   0  0  0  0  0  0  0  0  0  0  0  0
   55.7690   24.8520   47.1330 N   0  0  0  0  0  0  0  0  0  0  0  0
   56.0520   25.8620   46.2940 C   0  0  0  0  0  0  0  0  0  0  0  0
   55.1470   26.8720   45.9780 O   0  0  0  0  0  0  0  0  0  0  0  0
   57.4960   28.4970   43.4740 C   0  0  0  0  0  0  0  0  0  0  0  0
   57.4070   29.8490   43.7230 C   0  0  0  0  0  0  0  0  0  0  0  0
   56.9920   30.8790   42.7160 C   0  0  0  0  0  0  0  0  0  0  0  0
   57.7240   30.1130   45.0100 N   0  0  0  0  0  0  0  0  0  0  0  0
   57.7710   31.4230   45.6030 C   0  0  0  0  0  0  0  0  0  0  0  0
   57.0050   32.4670   45.0680 C   0  0  0  0  0  0  0  0  0  0  0  0
   57.0360   33.7320   45.6570 C   0  0  0  0  0  0  0  0  0  0  0  0
   57.8260   33.9620   46.7870 C   0  0  0  0  0  0  0  0  0  0  0  0
   58.5970   32.9230   47.3420 C   0  0  0  0  0  0  0  0  0  0  0  0
   59.4250   33.1620   48.5460 C   0  0  0  0  0  0  0  0  0  0  0  0
   60.5250   33.7680   48.4440 O   0  0  0  0  0  0  0  0  0  0  0  0
   58.9730   32.7130   49.8300 N   0  0  0  0  0  0  0  0  0  0  0  0
   59.1600   31.0890   50.4070 S   0  0  0  0  0  0  0  0  0  0  0  0
   59.7930   31.1380   51.7690 O   0  0  0  0  0  0  0  0  0  0  0  0
   57.8190   30.4220   50.5330 O   0  0  0  0  0  0  0  0  0  0  0  0
   60.2260   30.1540   49.3120 C   0  0  0  0  0  0  0  0  0  0  0  0
   61.6050   30.7990   49.1180 C   0  0  0  0  0  0  0  0  0  0  0  0
   61.9030   31.1250   47.6480 C   0  0  0  0  0  0  0  0  0  0  0  0
   63.0230   32.1560   47.5320 C   0  0  0  0  0  0  0  0  0  0  0  0
   58.5610   31.6510   46.7380 C   0  0  0  0  0  0  0  0  0  0  0  0
   58.5867   29.7294   47.4801 H   0  0  0  0  0  0  0  0  0  0  0  0
   58.8044   27.8503   47.2527 H   0  0  0  0  0  0  0  0  0  0  0  0
   58.6442   26.0424   44.0647 H   0  0  0  0  0  0  0  0  0  0  0  0
   54.3800   26.7130   45.3370 H   0  0  0  0  0  0  0  0  0  0  0  0
   57.3059   27.9939   42.5144 H   0  0  0  0  0  0  0  0  0  0  0  0
   56.6301   31.7771   43.2379 H   0  0  0  0  0  0  0  0  0  0  0  0
   57.8537   31.1435   42.0856 H   0  0  0  0  0  0  0  0  0  0  0  0
   56.1876   30.4722   42.0856 H   0  0  0  0  0  0  0  0  0  0  0  0
   56.3779   32.2893   44.1819 H   0  0  0  0  0  0  0  0  0  0  0  0
   56.4371   34.5503   45.2308 H   0  0  0  0  0  0  0  0  0  0  0  0
   57.8454   34.9616   47.2457 H   0  0  0  0  0  0  0  0  0  0  0  0
   60.3664   29.1483   49.7348 H   0  0  0  0  0  0  0  0  0  0  0  0
   59.7374   30.1224   48.3270 H   0  0  0  0  0  0  0  0  0  0  0  0
   61.6428   31.7315   49.7002 H   0  0  0  0  0  0  0  0  0  0  0  0
   62.3614   30.0767   49.4589 H   0  0  0  0  0  0  0  0  0  0  0  0
   62.2072   30.2036   47.1298 H   0  0  0  0  0  0  0  0  0  0  0  0
   60.9939   31.5424   47.1905 H   0  0  0  0  0  0  0  0  0  0  0  0
   63.3500   32.4570   48.5382 H   0  0  0  0  0  0  0  0  0  0  0  0
   63.8713   31.7161   46.9871 H   0  0  0  0  0  0  0  0  0  0  0  0
   62.6547   33.0377   46.9871 H   0  0  0  0  0  0  0  0  0  0  0  0
   59.1581   30.8295   47.1608 H   0  0  0  0  0  0  0  0  0  0  0  0
  1  2  2  0
  2  3  1  0
  3  4  2  3
  4  5  1  0
  5  6  1  0
  6  7  1  0
  7  8  2  0
  7  9  1  0
  9 10  1  0
 10 11  1  0
  3 12  1  0
 12 13  2  0
 13 14  1  0
 13 15  1  0
 15 16  1  0
 16 17  2  0
 17 18  1  0
 18 19  2  0
 19 20  1  0
 20 21  1  0
 21 22  2  0
 21 23  1  0
 23 24  1  0
 24 25  2  0
 24 26  2  0
 24 27  1  0
 27 28  1  0
 28 29  1  0
 29 30  1  0
 20 31  2  0
 15  2  1  0
 31 16  1  0
 10  5  2  0
  1 32  1  0
  1 33  1  0
  4 34  1  0
 11 35  1  0
 12 36  1  0
 14 37  1  0
 14 38  1  0
 14 39  1  0
 17 40  1  0
 18 41  1  0
 19 42  1  0
 27 43  1  0
 27 44  1  0
 28 45  1  0
 28 46  1  0
 29 47  1  0
 29 48  1  0
 30 49  1  0
 30 50  1  0
 30 51  1  0
 31 52  1  0
M  CHG  3   6  -1   9  -1  23  -1
M  END
>  <UniqueID>  (40) 
37

>  <SMILES>  (40) 
C=c1c(=Cc2[n-]c(=O)[n-]c2O)cc(C)n1-c1cccc(C(=O)[N-]S(=O)(=O)CCCC)c1

>  <Energy>  (40) 
121.46382132955011

>  <Genealogy>  (40) 
C=c1c(=Cc2[n-]c(=O)[n-]c2O)cc(C)n1-c1cccc(C(=O)[N-]S(=O)(=O)CCCC)c1 (protonated)
C=c1c(=Cc2[n-]c(=O)[n-]c2O)cc(C)n1-c1cccc(C(=O)[N-]S(=O)(=O)CCCC)c1 (3D coordinates assigned)
C=c1c(=Cc2[n-]c(=O)[n-]c2O)cc(C)n1-c1cccc(C(=O)[N-]S(=O)(=O)CCCC)c1 (optimized conformer: 121.46382132955011 kcal/mol)

>  <smiles>  (40) 
C=c1c(=Cc2[nH]c(=O)[nH]c2O)cc(C)n1-c1cccc(C(=O)NS(=O)(=O)CCCC)c1

>  <score_type>  (40) 
oracle

>  <origin>  (40) 
adg

>  <m_score__min__energy>  (40) 
-14.6

>  <m_primary>  (40) 
energy

$$$$
40:0
     RDKit          3D

 48 51  0  0  0  0  0  0  0  0999 V2000
   59.2580   28.3270   52.1670 O   0  0  0  0  0  0  0  0  0  0  0  0
   58.5930   29.3910   52.0230 C   0  0  0  0  0  0  0  0  0  0  0  0
   57.1960   29.4130   52.5050 C   0  0  0  0  0  0  0  0  0  0  0  0
   56.6750   28.6000   53.4980 C   0  0  0  0  0  0  0  0  0  0  0  0
   55.3440   28.9440   53.6080 C   0  0  0  0  0  0  0  0  0  0  0  0
   55.1360   29.9560   52.6800 C   0  0  0  0  0  0  0  0  0  0  0  0
   53.8620   30.6500   52.3900 C   0  0  0  0  0  0  0  0  0  0  0  0
   52.9240   30.8290   53.4230 C   0  0  0  0  0  0  0  0  0  0  0  0
   51.7350   31.5200   53.1790 C   0  0  0  0  0  0  0  0  0  0  0  0
   51.4600   32.0260   51.9060 C   0  0  0  0  0  0  0  0  0  0  0  0
   50.2770   32.7130   51.6690 O   0  0  0  0  0  0  0  0  0  0  0  0
   52.3780   31.8420   50.8720 C   0  0  0  0  0  0  0  0  0  0  0  0
   53.5730   31.1550   51.1080 C   0  0  0  0  0  0  0  0  0  0  0  0
   56.2600   30.2150   52.0490 O   0  0  0  0  0  0  0  0  0  0  0  0
   59.2060   30.5360   51.3840 N   0  0  0  0  0  0  0  0  0  0  0  0
   58.3860   31.5790   50.7440 C   0  0  0  0  0  0  0  0  0  0  0  0
   59.1880   32.3710   49.6960 C   0  0  0  0  0  0  0  0  0  0  0  0
   60.0550   31.4060   48.8460 C   0  0  0  0  0  0  0  0  0  0  0  0
   60.7760   32.1240   47.7590 N   0  0  0  0  0  0  0  0  0  0  0  0
   62.1150   31.5760   47.4780 C   0  0  0  0  0  0  0  0  0  0  0  0
   63.0200   32.7420   47.1530 C   0  0  0  0  0  0  0  0  0  0  0  0
   62.4680   33.8540   47.9990 C   0  0  0  0  0  0  0  0  0  0  0  0
   60.9750   33.5590   48.0540 C   0  0  0  0  0  0  0  0  0  0  0  0
   61.0720   30.6650   49.7700 C   0  0  0  0  0  0  0  0  0  0  0  0
   60.6650   30.6220   51.2540 C   0  0  0  0  0  0  0  0  0  0  0  0
   57.2126   27.8366   54.0796 H   0  0  0  0  0  0  0  0  0  0  0  0
   54.6002   28.5068   54.2904 H   0  0  0  0  0  0  0  0  0  0  0  0
   53.1274   30.4238   54.4252 H   0  0  0  0  0  0  0  0  0  0  0  0
   51.0108   31.6667   53.9939 H   0  0  0  0  0  0  0  0  0  0  0  0
   52.1615   32.2381   49.8689 H   0  0  0  0  0  0  0  0  0  0  0  0
   54.2910   31.0084   50.2876 H   0  0  0  0  0  0  0  0  0  0  0  0
   57.5262   31.1031   50.2498 H   0  0  0  0  0  0  0  0  0  0  0  0
   58.0542   32.2805   51.5236 H   0  0  0  0  0  0  0  0  0  0  0  0
   58.4919   32.9105   49.0370 H   0  0  0  0  0  0  0  0  0  0  0  0
   59.8460   33.0859   50.2117 H   0  0  0  0  0  0  0  0  0  0  0  0
   59.3853   30.6746   48.3700 H   0  0  0  0  0  0  0  0  0  0  0  0
   62.4947   31.0395   48.3601 H   0  0  0  0  0  0  0  0  0  0  0  0
   62.0767   30.8673   46.6376 H   0  0  0  0  0  0  0  0  0  0  0  0
   64.0623   32.5197   47.4254 H   0  0  0  0  0  0  0  0  0  0  0  0
   63.0395   32.9860   46.0806 H   0  0  0  0  0  0  0  0  0  0  0  0
   62.9087   33.8360   49.0067 H   0  0  0  0  0  0  0  0  0  0  0  0
   62.6907   34.8509   47.5908 H   0  0  0  0  0  0  0  0  0  0  0  0
   60.5865   33.7903   49.0568 H   0  0  0  0  0  0  0  0  0  0  0  0
   60.4386   34.1759   47.3180 H   0  0  0  0  0  0  0  0  0  0  0  0
   61.1735   29.6304   49.4105 H   0  0  0  0  0  0  0  0  0  0  0  0
   62.0143   31.2301   49.7181 H   0  0  0  0  0  0  0  0  0  0  0  0
   61.1234   29.7425   51.7298 H   0  0  0  0  0  0  0  0  0  0  0  0
   61.0125   31.5429   51.7452 H   0  0  0  0  0  0  0  0  0  0  0  0
  1  2  2  0
  2  3  1  0
  3  4  2  0
  4  5  1  0
  5  6  2  0
  6  7  1  0
  7  8  2  0
  8  9  1  0
  9 10  2  0
 10 11  1  0
 10 12  1  0
 12 13  2  0
  6 14  1  0
  2 15  1  0
 15 16  1  0
 16 17  1  0
 17 18  1  0
 18 19  1  0
 19 20  1  0
 20 21  1  0
 21 22  1  0
 22 23  1  0
 18 24  1  0
 24 25  1  0
 14  3  1  0
 25 15  1  0
 13  7  1  0
 23 19  1  0
  4 26  1  0
  5 27  1  0
  8 28  1  0
  9 29  1  0
 12 30  1  0
 13 31  1  0
 16 32  1  0
 16 33  1  0
 17 34  1  0
 17 35  1  0
 18 36  1  0
 20 37  1  0
 20 38  1  0
 21 39  1  0
 21 40  1  0
 22 41  1  0
 22 42  1  0
 23 43  1  0
 23 44  1  0
 24 45  1  0
 24 46  1  0
 25 47  1  0
 25 48  1  0
M  CHG  1  11  -1
M  END
>  <UniqueID>  (41) 
38

>  <SMILES>  (41) 
O=C(c1ccc(-c2ccc([O-])cc2)o1)N1CCC(N2CCCC2)CC1

>  <Energy>  (41) 
87.62555612405453

>  <Genealogy>  (41) 
O=C(c1ccc(-c2ccc([O-])cc2)o1)N1CCC(N2CCCC2)CC1 (protonated)
O=C(c1ccc(-c2ccc([O-])cc2)o1)N1CCC(N2CCCC2)CC1 (3D coordinates assigned)
O=C(c1ccc(-c2ccc([O-])cc2)o1)N1CCC(N2CCCC2)CC1 (nonaromatic ring conformer: 87.62555612405453 kcal/mol)

>  <smiles>  (41) 
O=C(c1ccc(-c2ccc(O)cc2)o1)N1CCC(N2CCCC2)CC1

>  <score_type>  (41) 
oracle

>  <origin>  (41) 
adg

>  <m_score__min__energy>  (41) 
-11.49

>  <m_primary>  (41) 
energy

$$$$
41:0
     RDKit          3D

 20 21  0  0  0  0  0  0  0  0999 V2000
   58.6699   33.6027   47.3582 H   0  0  0  0  0  0  0  0  0  0  0  0
   58.3290   33.0930   46.4450 C   0  0  0  0  0  0  0  0  0  0  0  0
   57.9600   33.8330   44.9820 S   0  0  0  0  0  0  0  0  0  0  0  0
   57.5390   32.4350   44.1500 C   0  0  0  0  0  0  0  0  0  0  0  0
   57.2143   32.3800   43.1004 H   0  0  0  0  0  0  0  0  0  0  0  0
   57.6730   31.3620   45.0200 C   0  0  0  0  0  0  0  0  0  0  0  0
   57.4200   30.0180   44.5910 N   0  0  0  0  0  0  0  0  0  0  0  0
   56.4210   29.1300   45.1050 C   0  0  0  0  0  0  0  0  0  0  0  0
   55.2000   29.3280   44.8620 O   0  0  0  0  0  0  0  0  0  0  0  0
   56.8430   27.9850   45.8620 N   0  0  0  0  0  0  0  0  0  0  0  0
   56.4030   26.7700   45.7210 C   0  0  0  0  0  0  0  0  0  0  0  0
   55.1480   26.3650   46.0030 N   0  0  0  0  0  0  0  0  0  0  0  0
   55.0930   25.0720   45.7330 N   0  0  0  0  0  0  0  0  0  0  0  0
   54.2400   24.4830   45.8550 H   0  0  0  0  0  0  0  0  0  0  0  0
   56.2900   24.6470   45.2860 C   0  0  0  0  0  0  0  0  0  0  0  0
   56.5322   23.6165   44.9872 H   0  0  0  0  0  0  0  0  0  0  0  0
   57.1630   25.7150   45.2640 C   0  0  0  0  0  0  0  0  0  0  0  0
   58.2185   25.7227   44.9543 H   0  0  0  0  0  0  0  0  0  0  0  0
   58.1290   31.7270   46.3010 C   0  0  0  0  0  0  0  0  0  0  0  0
   58.3090   31.0014   47.1079 H   0  0  0  0  0  0  0  0  0  0  0  0
  1  2  1  0
  2  3  1  0
  3  4  1  0
  4  5  1  0
  4  6  2  0
  6  7  1  0
  7  8  1  0
  8  9  2  0
  8 10  1  0
 10 11  2  0
 11 12  1  0
 12 13  1  0
 13 14  1  0
 13 15  1  0
 15 16  1  0
 15 17  2  0
 17 18  1  0
  6 19  1  0
 19 20  1  0
 19  2  2  0
 17 11  1  0
M  CHG  2   7  -1  12  -1
M  END
>  <UniqueID>  (42) 
39

>  <SMILES>  (42) 
O=C(/N=c1/cc[nH][n-]1)[N-]c1ccsc1

>  <Energy>  (42) 
80.42968940402277

>  <Genealogy>  (42) 
O=C(N=c1cc[nH][n-]1)[N-]c1ccsc1 (protonated)
O=C(/N=c1/cc[nH][n-]1)[N-]c1ccsc1 (cis-trans isomerization)
O=C(/N=c1/cc[nH][n-]1)[N-]c1ccsc1 (3D coordinates assigned)
O=C(/N=c1/cc[nH][n-]1)[N-]c1ccsc1 (optimized conformer: 80.42968940402277 kcal/mol)

>  <smiles>  (42) 
O=C(N=c1cc[nH][nH]1)Nc1ccsc1

>  <score_type>  (42) 
oracle

>  <origin>  (42) 
adg

>  <m_score__min__energy>  (42) 
-8.1500000000000004

>  <m_primary>  (42) 
energy

$$$$
42:0
     RDKit          3D

 48 51  0  0  0  0  0  0  0  0999 V2000
   59.7980   28.3040   46.7880 C   0  0  0  0  0  0  0  0  0  0  0  0
   58.8380   29.0620   46.2490 C   0  0  0  0  0  0  0  0  0  0  0  0
   58.8520   30.4130   46.3110 N   0  0  0  0  0  0  0  0  0  0  0  0
   57.7630   30.8170   45.6190 C   0  0  0  0  0  0  0  0  0  0  0  0
   57.3640   32.0880   45.4530 C   0  0  0  0  0  0  0  0  0  0  0  0
   58.2270   33.2590   45.7210 C   0  0  0  0  0  0  0  0  0  0  0  0
   58.4770   34.2030   44.7110 C   0  0  0  0  0  0  0  0  0  0  0  0
   59.2700   35.3220   44.9710 C   0  0  0  0  0  0  0  0  0  0  0  0
   59.8080   35.5140   46.2430 C   0  0  0  0  0  0  0  0  0  0  0  0
   59.5510   34.5940   47.2620 C   0  0  0  0  0  0  0  0  0  0  0  0
   58.7550   33.4580   47.0120 C   0  0  0  0  0  0  0  0  0  0  0  0
   58.4790   32.5040   48.0060 O   0  0  0  0  0  0  0  0  0  0  0  0
   59.6450   31.8080   49.0480 S   0  0  0  0  0  0  0  0  0  0  0  0
   59.6130   30.3140   48.8970 O   0  0  0  0  0  0  0  0  0  0  0  0
   59.3160   32.1660   50.4700 O   0  0  0  0  0  0  0  0  0  0  0  0
   61.2460   32.3950   48.6160 C   0  0  0  0  0  0  0  0  0  0  0  0
   61.8750   33.3880   49.3840 C   0  0  0  0  0  0  0  0  0  0  0  0
   63.1440   33.8530   49.0260 C   0  0  0  0  0  0  0  0  0  0  0  0
   63.7920   33.3260   47.9040 C   0  0  0  0  0  0  0  0  0  0  0  0
   63.1720   32.3320   47.1390 C   0  0  0  0  0  0  0  0  0  0  0  0
   61.9020   31.8660   47.4950 C   0  0  0  0  0  0  0  0  0  0  0  0
   57.1060   29.6930   45.1620 C   0  0  0  0  0  0  0  0  0  0  0  0
   56.0310   29.6800   44.5020 O   0  0  0  0  0  0  0  0  0  0  0  0
   57.7720   28.5880   45.5520 N   0  0  0  0  0  0  0  0  0  0  0  0
   57.3820   27.2250   45.3090 C   0  0  0  0  0  0  0  0  0  0  0  0
   56.6310   26.5260   46.2680 C   0  0  0  0  0  0  0  0  0  0  0  0
   56.2710   25.1930   46.0440 C   0  0  0  0  0  0  0  0  0  0  0  0
   56.6680   24.5470   44.8680 C   0  0  0  0  0  0  0  0  0  0  0  0
   57.4260   25.2350   43.9160 C   0  0  0  0  0  0  0  0  0  0  0  0
   57.7850   26.5670   44.1360 C   0  0  0  0  0  0  0  0  0  0  0  0
   59.7417   27.2081   46.7111 H   0  0  0  0  0  0  0  0  0  0  0  0
   60.6443   28.7761   47.3085 H   0  0  0  0  0  0  0  0  0  0  0  0
   59.5520   31.0050   46.8110 H   0  0  0  0  0  0  0  0  0  0  0  0
   56.3386   32.2686   45.0981 H   0  0  0  0  0  0  0  0  0  0  0  0
   58.0453   34.0595   43.7095 H   0  0  0  0  0  0  0  0  0  0  0  0
   59.4704   36.0519   44.1728 H   0  0  0  0  0  0  0  0  0  0  0  0
   60.4372   36.3934   46.4447 H   0  0  0  0  0  0  0  0  0  0  0  0
   59.9721   34.7569   48.2651 H   0  0  0  0  0  0  0  0  0  0  0  0
   61.3685   33.8008   50.2689 H   0  0  0  0  0  0  0  0  0  0  0  0
   63.6331   34.6337   49.6270 H   0  0  0  0  0  0  0  0  0  0  0  0
   64.7900   33.6934   47.6228 H   0  0  0  0  0  0  0  0  0  0  0  0
   63.6832   31.9171   46.2578 H   0  0  0  0  0  0  0  0  0  0  0  0
   61.4167   31.0827   46.8942 H   0  0  0  0  0  0  0  0  0  0  0  0
   56.3251   27.0280   47.1977 H   0  0  0  0  0  0  0  0  0  0  0  0
   55.6749   24.6518   46.7935 H   0  0  0  0  0  0  0  0  0  0  0  0
   56.3839   23.4989   44.6928 H   0  0  0  0  0  0  0  0  0  0  0  0
   57.7402   24.7268   42.9924 H   0  0  0  0  0  0  0  0  0  0  0  0
   58.3862   27.1028   43.3867 H   0  0  0  0  0  0  0  0  0  0  0  0
  1  2  2  0
  2  3  1  0
  3  4  1  0
  4  5  2  3
  5  6  1  0
  6  7  2  0
  7  8  1  0
  8  9  2  0
  9 10  1  0
 10 11  2  0
 11 12  1  0
 12 13  1  0
 13 14  2  0
 13 15  2  0
 13 16  1  0
 16 17  2  0
 17 18  1  0
 18 19  2  0
 19 20  1  0
 20 21  2  0
  4 22  1  0
 22 23  2  0
 22 24  1  0
 24 25  1  0
 25 26  2  0
 26 27  1  0
 27 28  2  0
 28 29  1  0
 29 30  2  0
 24  2  1  0
 30 25  1  0
 11  6  1  0
 21 16  1  0
  1 31  1  0
  1 32  1  0
  3 33  1  0
  5 34  1  0
  7 35  1  0
  8 36  1  0
  9 37  1  0
 10 38  1  0
 17 39  1  0
 18 40  1  0
 19 41  1  0
 20 42  1  0
 21 43  1  0
 26 44  1  0
 27 45  1  0
 28 46  1  0
 29 47  1  0
 30 48  1  0
M  END
>  <UniqueID>  (43) 
40

>  <SMILES>  (43) 
C=c1[nH]c(=Cc2ccccc2OS(=O)(=O)c2ccccc2)c(=O)n1-c1ccccc1

>  <Energy>  (43) 
99.79771276720288

>  <Genealogy>  (43) 
C=c1[nH]c(=Cc2ccccc2OS(=O)(=O)c2ccccc2)c(=O)n1-c1ccccc1 (3D coordinates assigned)
C=c1[nH]c(=Cc2ccccc2OS(=O)(=O)c2ccccc2)c(=O)n1-c1ccccc1 (optimized conformer: 99.79771276720288 kcal/mol)

>  <smiles>  (43) 
C=c1[nH]c(=Cc2ccccc2OS(=O)(=O)c2ccccc2)c(=O)n1-c1ccccc1

>  <score_type>  (43) 
oracle

>  <origin>  (43) 
adg

>  <m_score__min__energy>  (43) 
-9.0899999999999999

>  <m_primary>  (43) 
energy

$$$$
43:0
     RDKit          3D

 73 76  0  0  0  0  0  0  0  0999 V2000
   59.8430   34.6430   45.8580 C   0  0  0  0  0  0  0  0  0  0  0  0
   58.4410   34.2240   46.2920 C   0  0  0  0  0  0  0  0  0  0  0  0
   58.1000   32.8660   45.7430 C   0  0  0  0  0  0  0  0  0  0  0  0
   58.8610   31.7440   46.1060 C   0  0  0  0  0  0  0  0  0  0  0  0
   58.5190   30.4740   45.6310 C   0  0  0  0  0  0  0  0  0  0  0  0
   57.4080   30.3080   44.7900 C   0  0  0  0  0  0  0  0  0  0  0  0
   57.0190   28.9330   44.3190 C   0  0  0  0  0  0  0  0  0  0  0  0
   56.0670   28.3310   45.2470 N   0  0  0  0  0  0  0  0  0  0  0  0
   56.3280   27.1310   45.9840 C   0  0  0  0  0  0  0  0  0  0  0  0
   55.4580   26.2180   46.0260 O   0  0  0  0  0  0  0  0  0  0  0  0
   57.6690   26.9500   46.6580 C   0  0  1  0  0  0  0  0  0  0  0  0
   58.7610   26.6120   45.6190 C   0  0  0  0  0  0  0  0  0  0  0  0
   60.2030   26.7780   46.1500 C   0  0  0  0  0  0  0  0  0  0  0  0
   60.2700   26.8990   47.6750 C   0  0  0  0  0  0  0  0  0  0  0  0
   59.3840   27.9750   48.1370 N   0  0  0  0  0  0  0  0  0  0  0  0
   59.7420   28.7580   49.2950 C   0  0  0  0  0  0  0  0  0  0  0  0
   61.0740   28.8430   49.7120 C   0  0  0  0  0  0  0  0  0  0  0  0
   61.3960   29.6190   50.8170 C   0  0  0  0  0  0  0  0  0  0  0  0
   60.3880   30.3050   51.4870 C   0  0  0  0  0  0  0  0  0  0  0  0
   60.6880   31.0270   52.4780 O   0  0  0  0  0  0  0  0  0  0  0  0
   59.0890   30.1940   51.0610 N   0  0  0  0  0  0  0  0  0  0  0  0
   58.0160   30.9600   51.7130 C   0  0  0  0  0  0  0  0  0  0  0  0
   57.8850   32.3390   51.0530 C   0  0  0  0  0  0  0  0  0  0  0  0
   58.8140   33.3770   51.6940 C   0  0  0  0  0  0  0  0  0  0  0  0
   60.0460   33.5250   50.9090 N   0  0  0  0  0  0  0  0  0  0  0  0
   59.7640   33.3380   49.4820 C   0  0  0  0  0  0  0  0  0  0  0  0
   61.0480   33.0860   48.7400 C   0  0  0  0  0  0  0  0  0  0  0  0
   61.3010   31.8260   48.1710 C   0  0  0  0  0  0  0  0  0  0  0  0
   62.5110   31.5800   47.5150 C   0  0  0  0  0  0  0  0  0  0  0  0
   63.4800   32.5840   47.4320 C   0  0  0  0  0  0  0  0  0  0  0  0
   63.2410   33.8350   48.0090 C   0  0  0  0  0  0  0  0  0  0  0  0
   62.0330   34.0850   48.6660 C   0  0  0  0  0  0  0  0  0  0  0  0
   58.7880   29.4440   49.9910 N   0  0  0  0  0  0  0  0  0  0  0  0
   58.0750   28.1780   47.4970 C   0  0  0  0  0  0  0  0  0  0  0  0
   56.6390   31.4280   44.4380 C   0  0  0  0  0  0  0  0  0  0  0  0
   56.9800   32.6980   44.9130 C   0  0  0  0  0  0  0  0  0  0  0  0
   60.4624   34.8281   46.7480 H   0  0  0  0  0  0  0  0  0  0  0  0
   60.2957   33.8409   45.2566 H   0  0  0  0  0  0  0  0  0  0  0  0
   59.7814   35.5620   45.2566 H   0  0  0  0  0  0  0  0  0  0  0  0
   58.3975   34.1910   47.3906 H   0  0  0  0  0  0  0  0  0  0  0  0
   57.7166   34.9552   45.9040 H   0  0  0  0  0  0  0  0  0  0  0  0
   59.7313   31.8643   46.7678 H   0  0  0  0  0  0  0  0  0  0  0  0
   59.1237   29.6011   45.9179 H   0  0  0  0  0  0  0  0  0  0  0  0
   56.5577   29.0074   43.3232 H   0  0  0  0  0  0  0  0  0  0  0  0
   57.9194   28.3029   44.2707 H   0  0  0  0  0  0  0  0  0  0  0  0
   57.5681   26.1044   47.3542 H   0  0  0  0  0  0  0  0  0  0  0  0
   58.6265   25.5671   45.3025 H   0  0  0  0  0  0  0  0  0  0  0  0
   58.6426   27.3232   44.7883 H   0  0  0  0  0  0  0  0  0  0  0  0
   60.7928   25.9021   45.8418 H   0  0  0  0  0  0  0  0  0  0  0  0
   60.6029   27.7120   45.7284 H   0  0  0  0  0  0  0  0  0  0  0  0
   59.9546   25.9481   48.1293 H   0  0  0  0  0  0  0  0  0  0  0  0
   61.3032   27.1321   47.9718 H   0  0  0  0  0  0  0  0  0  0  0  0
   61.8606   28.2991   49.1685 H   0  0  0  0  0  0  0  0  0  0  0  0
   62.4387   29.6909   51.1598 H   0  0  0  0  0  0  0  0  0  0  0  0
   57.0656   30.4154   51.6121 H   0  0  0  0  0  0  0  0  0  0  0  0
   58.2585   31.0894   52.7781 H   0  0  0  0  0  0  0  0  0  0  0  0
   58.1384   32.2471   49.9865 H   0  0  0  0  0  0  0  0  0  0  0  0
   56.8489   32.6823   51.1895 H   0  0  0  0  0  0  0  0  0  0  0  0
   58.2959   34.3463   51.7393 H   0  0  0  0  0  0  0  0  0  0  0  0
   59.0781   33.0381   52.7066 H   0  0  0  0  0  0  0  0  0  0  0  0
   60.7070   32.7680   51.2050 H   0  0  0  0  0  0  0  0  0  0  0  0
   59.0916   32.4772   49.3519 H   0  0  0  0  0  0  0  0  0  0  0  0
   59.2850   34.2446   49.0836 H   0  0  0  0  0  0  0  0  0  0  0  0
   60.5445   31.0306   48.2420 H   0  0  0  0  0  0  0  0  0  0  0  0
   62.7007   30.5950   47.0636 H   0  0  0  0  0  0  0  0  0  0  0  0
   64.4302   32.3900   46.9129 H   0  0  0  0  0  0  0  0  0  0  0  0
   64.0051   34.6238   47.9457 H   0  0  0  0  0  0  0  0  0  0  0  0
   61.8529   35.0675   49.1268 H   0  0  0  0  0  0  0  0  0  0  0  0
   57.7980   29.4060   49.6550 H   0  0  0  0  0  0  0  0  0  0  0  0
   57.3170   28.3470   48.2760 H   0  0  0  0  0  0  0  0  0  0  0  0
   58.1449   29.0490   46.8289 H   0  0  0  0  0  0  0  0  0  0  0  0
   55.7627   31.3059   43.7844 H   0  0  0  0  0  0  0  0  0  0  0  0
   56.3684   33.5691   44.6353 H   0  0  0  0  0  0  0  0  0  0  0  0
  1  2  1  0
  2  3  1  0
  3  4  2  0
  4  5  1  0
  5  6  2  0
  6  7  1  0
  7  8  1  0
  8  9  1  0
  9 10  2  0
  9 11  1  0
 11 12  1  0
 12 13  1  0
 13 14  1  0
 14 15  1  0
 15 16  1  0
 16 17  1  0
 17 18  2  0
 18 19  1  0
 19 20  2  0
 19 21  1  0
 21 22  1  0
 22 23  1  0
 23 24  1  0
 24 25  1  0
 25 26  1  0
 26 27  1  0
 27 28  2  0
 28 29  1  0
 29 30  2  0
 30 31  1  0
 31 32  2  0
 21 33  1  0
 15 34  1  0
  6 35  1  0
 35 36  2  0
 36  3  1  0
 34 11  1  0
 33 16  2  0
 32 27  1  0
  1 37  1  0
  1 38  1  0
  1 39  1  0
  2 40  1  0
  2 41  1  0
  4 42  1  0
  5 43  1  0
  7 44  1  0
  7 45  1  0
 11 46  1  1
 12 47  1  0
 12 48  1  0
 13 49  1  0
 13 50  1  0
 14 51  1  0
 14 52  1  0
 17 53  1  0
 18 54  1  0
 22 55  1  0
 22 56  1  0
 23 57  1  0
 23 58  1  0
 24 59  1  0
 24 60  1  0
 25 61  1  0
 26 62  1  0
 26 63  1  0
 28 64  1  0
 29 65  1  0
 30 66  1  0
 31 67  1  0
 32 68  1  0
 33 69  1  0
 34 70  1  0
 34 71  1  0
 35 72  1  0
 36 73  1  0
M  CHG  2   8  -1  33   1
M  END
>  <UniqueID>  (44) 
41

>  <SMILES>  (44) 
CCc1ccc(C[N-]C(=O)[C@H]2CCCN(c3ccc(=O)n(CCCNCc4ccccc4)[nH+]3)C2)cc1

>  <Energy>  (44) 
70.60040703207018

>  <Genealogy>  (44) 
CCc1ccc(C[N-]C(=O)C2CCCN(c3ccc(=O)n(CCCNCc4ccccc4)[nH+]3)C2)cc1 (protonated)
CCc1ccc(C[N-]C(=O)[C@H]2CCCN(c3ccc(=O)n(CCCNCc4ccccc4)[nH+]3)C2)cc1 (chirality)
CCc1ccc(C[N-]C(=O)[C@H]2CCCN(c3ccc(=O)n(CCCNCc4ccccc4)[nH+]3)C2)cc1 (3D coordinates assigned)
CCc1ccc(C[N-]C(=O)[C@H]2CCCN(c3ccc(=O)n(CCCNCc4ccccc4)[nH+]3)C2)cc1 (nonaromatic ring conformer: 70.60040703207018 kcal/mol)

>  <smiles>  (44) 
CCc1ccc(CNC(=O)C2CCCN(c3ccc(=O)n(CCCNCc4ccccc4)n3)C2)cc1

>  <score_type>  (44) 
oracle

>  <origin>  (44) 
adg

>  <m_score__min__energy>  (44) 
-9.7699999999999996

>  <m_primary>  (44) 
energy

$$$$
44:0
     RDKit          3D

 27 28  0  0  0  0  0  0  0  0999 V2000
   55.0490   28.1310   44.5520 H   0  0  0  0  0  0  0  0  0  0  0  0
   55.2020   29.1630   44.4920 N   0  0  0  0  0  0  0  0  0  0  0  0
   56.2870   29.7150   44.9320 C   0  0  0  0  0  0  0  0  0  0  0  0
   56.5220   31.0290   44.6700 N   0  0  0  0  0  0  0  0  0  0  0  0
   57.6390   31.6600   45.1100 C   0  0  0  0  0  0  0  0  0  0  0  0
   57.7999   32.7240   44.8819 H   0  0  0  0  0  0  0  0  0  0  0  0
   58.5880   30.9470   45.8580 C   0  0  0  0  0  0  0  0  0  0  0  0
   59.8340   31.5790   46.3620 C   0  0  0  0  0  0  0  0  0  0  0  0
   59.9980   32.9780   46.3710 C   0  0  0  0  0  0  0  0  0  0  0  0
   59.1921   33.6243   45.9931 H   0  0  0  0  0  0  0  0  0  0  0  0
   61.1760   33.5510   46.8560 C   0  0  0  0  0  0  0  0  0  0  0  0
   61.2978   34.6441   46.8424 H   0  0  0  0  0  0  0  0  0  0  0  0
   62.2040   32.7420   47.3600 C   0  0  0  0  0  0  0  0  0  0  0  0
   63.4840   33.3580   47.8440 C   0  0  0  0  0  0  0  0  0  0  0  0
   63.4953   33.3635   48.9439 H   0  0  0  0  0  0  0  0  0  0  0  0
   64.3369   32.7717   47.4714 H   0  0  0  0  0  0  0  0  0  0  0  0
   63.5580   34.3903   47.4714 H   0  0  0  0  0  0  0  0  0  0  0  0
   62.0510   31.3490   47.3470 C   0  0  0  0  0  0  0  0  0  0  0  0
   62.8619   30.7058   47.7195 H   0  0  0  0  0  0  0  0  0  0  0  0
   60.8730   30.7730   46.8630 C   0  0  0  0  0  0  0  0  0  0  0  0
   60.7570   29.6792   46.8738 H   0  0  0  0  0  0  0  0  0  0  0  0
   58.3550   29.6300   46.1090 N   0  0  0  0  0  0  0  0  0  0  0  0
   57.2390   28.9830   45.6770 C   0  0  0  0  0  0  0  0  0  0  0  0
   57.0900   27.5450   46.0130 C   0  0  0  0  0  0  0  0  0  0  0  0
   58.1110   26.8760   46.3280 O   0  0  0  0  0  0  0  0  0  0  0  0
   55.8190   26.8990   45.9920 N   0  0  0  0  0  0  0  0  0  0  0  0
   55.1420   27.0720   45.2160 H   0  0  0  0  0  0  0  0  0  0  0  0
  1  2  1  0
  2  3  2  0
  3  4  1  0
  4  5  1  0
  5  6  1  0
  5  7  2  0
  7  8  1  0
  8  9  2  0
  9 10  1  0
  9 11  1  0
 11 12  1  0
 11 13  2  0
 13 14  1  0
 14 15  1  0
 14 16  1  0
 14 17  1  0
 13 18  1  0
 18 19  1  0
 18 20  2  0
 20 21  1  0
  7 22  1  0
 22 23  2  0
 23 24  1  0
 24 25  2  0
 24 26  1  0
 26 27  1  0
 23  3  1  0
 20  8  1  0
M  CHG  2   4  -1  26  -1
M  END
>  <UniqueID>  (45) 
42

>  <SMILES>  (45) 
[H]/N=c1\[n-]cc(-c2ccc(C)cc2)nc1C([NH-])=O

>  <Energy>  (45) 
34.10605819302297

>  <Genealogy>  (45) 
Cc1ccc(-c2c[n-]c(=N)c(C([NH-])=O)n2)cc1 (protonated)
[H]/N=c1\[n-]cc(-c2ccc(C)cc2)nc1C([NH-])=O (cis-trans isomerization)
[H]/N=c1\[n-]cc(-c2ccc(C)cc2)nc1C([NH-])=O (3D coordinates assigned)
[H]/N=c1\[n-]cc(-c2ccc(C)cc2)nc1C([NH-])=O (optimized conformer: 34.10605819302297 kcal/mol)

>  <smiles>  (45) 
Cc1ccc(-c2c[nH]c(=N)c(C(N)=O)n2)cc1

>  <score_type>  (45) 
oracle

>  <origin>  (45) 
adg

>  <m_score__min__energy>  (45) 
-11.15

>  <m_primary>  (45) 
energy

$$$$
45:0
     RDKit          3D

 38 40  0  0  0  0  0  0  0  0999 V2000
   62.8320   34.4660   50.8130 H   0  0  0  0  0  0  0  0  0  0  0  0
   62.9600   34.4510   49.8090 O   0  0  0  0  0  0  0  0  0  0  0  0
   62.0650   33.7910   48.9700 C   0  0  0  0  0  0  0  0  0  0  0  0
   62.2740   33.8110   47.5900 C   0  0  0  0  0  0  0  0  0  0  0  0
   63.1427   34.3423   47.1740 H   0  0  0  0  0  0  0  0  0  0  0  0
   61.3840   33.1590   46.7380 C   0  0  0  0  0  0  0  0  0  0  0  0
   61.5540   33.1828   45.6515 H   0  0  0  0  0  0  0  0  0  0  0  0
   60.2740   32.4730   47.2520 C   0  0  0  0  0  0  0  0  0  0  0  0
   59.3550   31.8660   46.3280 N   0  0  0  0  0  0  0  0  0  0  0  0
   58.3650   32.5050   45.6690 C   0  0  0  0  0  0  0  0  0  0  0  0
   58.0060   33.9480   45.8590 C   0  0  0  0  0  0  0  0  0  0  0  0
   57.9499   34.1734   46.9342 H   0  0  0  0  0  0  0  0  0  0  0  0
   58.7739   34.5816   45.3911 H   0  0  0  0  0  0  0  0  0  0  0  0
   57.0307   34.1479   45.3911 H   0  0  0  0  0  0  0  0  0  0  0  0
   57.6970   31.6280   44.8380 C   0  0  0  0  0  0  0  0  0  0  0  0
   56.8355   31.8590   44.1942 H   0  0  0  0  0  0  0  0  0  0  0  0
   58.3260   30.3960   44.9740 C   0  0  0  0  0  0  0  0  0  0  0  0
   57.9770   29.2520   44.3550 C   0  0  0  0  0  0  0  0  0  0  0  0
   58.1317   29.1788   43.2684 H   0  0  0  0  0  0  0  0  0  0  0  0
   57.3960   28.0880   45.0610 C   0  0  0  0  0  0  0  0  0  0  0  0
   56.0130   27.9800   45.2930 C   0  0  0  0  0  0  0  0  0  0  0  0
   55.1400   28.9730   44.8640 O   0  0  0  0  0  0  0  0  0  0  0  0
   55.5160   26.8850   45.9240 N   0  0  0  0  0  0  0  0  0  0  0  0
   56.3290   25.8750   46.3230 C   0  0  0  0  0  0  0  0  0  0  0  0
   55.8460   24.8730   46.9100 O   0  0  0  0  0  0  0  0  0  0  0  0
   57.6630   25.9430   46.0860 N   0  0  0  0  0  0  0  0  0  0  0  0
   58.2110   27.0170   45.4600 C   0  0  0  0  0  0  0  0  0  0  0  0
   59.4540   27.0430   45.2530 O   0  0  0  0  0  0  0  0  0  0  0  0
   59.3530   30.5780   45.9050 C   0  0  0  0  0  0  0  0  0  0  0  0
   60.2130   29.6470   46.3420 C   0  0  0  0  0  0  0  0  0  0  0  0
   60.9830   29.9132   47.0811 H   0  0  0  0  0  0  0  0  0  0  0  0
   60.1486   28.6169   45.9615 H   0  0  0  0  0  0  0  0  0  0  0  0
   60.0590   32.4330   48.6530 C   0  0  0  0  0  0  0  0  0  0  0  0
   58.9240   31.6890   49.2580 C   0  0  0  0  0  0  0  0  0  0  0  0
   58.9890   30.4390   49.4030 O   0  0  0  0  0  0  0  0  0  0  0  0
   57.7630   32.3450   49.6530 O   0  0  0  0  0  0  0  0  0  0  0  0
   60.9630   33.1060   49.4970 C   0  0  0  0  0  0  0  0  0  0  0  0
   60.8015   33.0936   50.5850 H   0  0  0  0  0  0  0  0  0  0  0  0
  1  2  1  0
  2  3  1  0
  3  4  2  0
  4  5  1  0
  4  6  1  0
  6  7  1  0
  6  8  2  0
  8  9  1  0
  9 10  1  0
 10 11  1  0
 11 12  1  0
 11 13  1  0
 11 14  1  0
 10 15  2  0
 15 16  1  0
 15 17  1  0
 17 18  2  0
 18 19  1  0
 18 20  1  0
 20 21  2  0
 21 22  1  0
 21 23  1  0
 23 24  1  0
 24 25  2  0
 24 26  1  0
 26 27  1  0
 27 28  2  0
 17 29  1  0
 29 30  2  0
 30 31  1  0
 30 32  1  0
  8 33  1  0
 33 34  1  0
 34 35  2  0
 34 36  1  0
 33 37  2  0
 37 38  1  0
 37  3  1  0
 29  9  1  0
 27 20  1  0
M  CHG  4  22  -1  23  -1  26  -1  36  -1
M  END
>  <UniqueID>  (46) 
43

>  <SMILES>  (46) 
C=c1/c(=C/c2c([O-])[n-]c(=O)[n-]c2=O)cc(C)n1-c1ccc(O)cc1C(=O)[O-]

>  <Energy>  (46) 
88.54363481464537

>  <Genealogy>  (46) 
C=c1c(=Cc2c([O-])[n-]c(=O)[n-]c2=O)cc(C)n1-c1ccc(O)cc1C(=O)[O-] (protonated)
C=c1/c(=C/c2c([O-])[n-]c(=O)[n-]c2=O)cc(C)n1-c1ccc(O)cc1C(=O)[O-] (cis-trans isomerization)
C=c1/c(=C/c2c([O-])[n-]c(=O)[n-]c2=O)cc(C)n1-c1ccc(O)cc1C(=O)[O-] (3D coordinates assigned)
C=c1/c(=C/c2c([O-])[n-]c(=O)[n-]c2=O)cc(C)n1-c1ccc(O)cc1C(=O)[O-] (optimized conformer: 88.54363481464537 kcal/mol)

>  <smiles>  (46) 
C=c1c(=Cc2c(O)[nH]c(=O)[nH]c2=O)cc(C)n1-c1ccc(O)cc1C(=O)O

>  <score_type>  (46) 
oracle

>  <origin>  (46) 
adg

>  <m_score__min__energy>  (46) 
-17.120000000000001

>  <m_primary>  (46) 
energy

$$$$
46:0
     RDKit          3D

 51 54  0  0  0  0  0  0  0  0999 V2000
   55.5200   20.9190   43.4270 H   0  0  0  0  0  0  0  0  0  0  0  0
   55.9820   21.7620   43.1070 O   0  0  0  0  0  0  0  0  0  0  0  0
   56.0720   22.8950   43.9150 C   0  0  0  0  0  0  0  0  0  0  0  0
   57.0410   23.8760   43.6570 C   0  0  0  0  0  0  0  0  0  0  0  0
   57.7336   23.7537   42.8112 H   0  0  0  0  0  0  0  0  0  0  0  0
   57.1290   25.0090   44.4720 C   0  0  0  0  0  0  0  0  0  0  0  0
   57.8860   25.7786   44.2605 H   0  0  0  0  0  0  0  0  0  0  0  0
   56.2550   25.1680   45.5590 C   0  0  0  0  0  0  0  0  0  0  0  0
   56.3140   26.4060   46.4060 C   0  0  0  0  0  0  0  0  0  0  0  0
   57.3529   26.5883   46.7182 H   0  0  0  0  0  0  0  0  0  0  0  0
   55.6832   26.2728   47.2973 H   0  0  0  0  0  0  0  0  0  0  0  0
   55.8320   27.5420   45.6330 N   0  0  0  0  0  0  0  0  0  0  0  0
   56.6970   28.5650   45.1350 C   0  0  0  0  0  0  0  0  0  0  0  0
   57.9180   28.5820   45.4560 O   0  0  0  0  0  0  0  0  0  0  0  0
   56.1380   29.6530   44.2760 C   0  0  0  0  0  0  0  0  0  0  0  0
   55.1133   29.8848   44.6018 H   0  0  0  0  0  0  0  0  0  0  0  0
   56.1283   29.3182   43.2282 H   0  0  0  0  0  0  0  0  0  0  0  0
   56.9850   30.8800   44.3930 C   0  0  0  0  0  0  0  0  0  0  0  0
   57.2370   31.4630   45.5960 N   0  0  0  0  0  0  0  0  0  0  0  0
   57.9750   32.5850   45.4630 C   0  0  0  0  0  0  0  0  0  0  0  0
   58.3580   33.2850   46.4910 N   0  0  0  0  0  0  0  0  0  0  0  0
   59.4470   34.2190   46.5220 C   0  0  0  0  0  0  0  0  0  0  0  0
   59.3220   35.3090   45.9050 O   0  0  0  0  0  0  0  0  0  0  0  0
   60.7320   33.9160   47.1990 C   0  0  0  0  0  0  0  0  0  0  0  0
   61.8250   33.4860   46.4330 C   0  0  0  0  0  0  0  0  0  0  0  0
   61.7168   33.3777   45.3437 H   0  0  0  0  0  0  0  0  0  0  0  0
   63.0480   33.1940   47.0370 C   0  0  0  0  0  0  0  0  0  0  0  0
   63.8981   32.8661   46.4207 H   0  0  0  0  0  0  0  0  0  0  0  0
   63.1990   33.3160   48.4230 C   0  0  0  0  0  0  0  0  0  0  0  0
   64.4300   33.0220   49.0310 C   0  0  0  0  0  0  0  0  0  0  0  0
   65.2803   32.7005   48.4116 H   0  0  0  0  0  0  0  0  0  0  0  0
   64.5860   33.1340   50.4180 C   0  0  0  0  0  0  0  0  0  0  0  0
   65.8380   32.8270   50.9730 O   0  0  0  0  0  0  0  0  0  0  0  0
   67.0690   33.4040   50.5480 C   0  0  0  0  0  0  0  0  0  0  0  0
   67.6661   33.6839   51.4285 H   0  0  0  0  0  0  0  0  0  0  0  0
   67.6270   32.6736   49.9437 H   0  0  0  0  0  0  0  0  0  0  0  0
   66.8646   34.3001   49.9437 H   0  0  0  0  0  0  0  0  0  0  0  0
   63.4930   33.5430   51.2030 C   0  0  0  0  0  0  0  0  0  0  0  0
   63.6076   33.6329   52.2933 H   0  0  0  0  0  0  0  0  0  0  0  0
   62.2630   33.8360   50.6090 C   0  0  0  0  0  0  0  0  0  0  0  0
   61.4157   34.1532   51.2347 H   0  0  0  0  0  0  0  0  0  0  0  0
   62.1010   33.7280   49.2160 C   0  0  0  0  0  0  0  0  0  0  0  0
   60.8650   34.0130   48.6010 C   0  0  0  0  0  0  0  0  0  0  0  0
   59.7680   34.3700   49.3820 O   0  0  0  0  0  0  0  0  0  0  0  0
   58.3560   32.8900   43.8470 S   0  0  0  0  0  0  0  0  0  0  0  0
   57.5250   31.5380   43.2890 C   0  0  0  0  0  0  0  0  0  0  0  0
   57.4253   31.2278   42.2384 H   0  0  0  0  0  0  0  0  0  0  0  0
   55.2750   24.1910   45.8050 C   0  0  0  0  0  0  0  0  0  0  0  0
   54.5734   24.3178   46.6427 H   0  0  0  0  0  0  0  0  0  0  0  0
   55.1880   23.0580   44.9890 C   0  0  0  0  0  0  0  0  0  0  0  0
   54.2180   22.0950   45.2470 O   0  0  0  0  0  0  0  0  0  0  0  0
  1  2  1  0
  2  3  1  0
  3  4  2  0
  4  5  1  0
  4  6  1  0
  6  7  1  0
  6  8  2  0
  8  9  1  0
  9 10  1  0
  9 11  1  0
  9 12  1  0
 12 13  1  0
 13 14  2  0
 13 15  1  0
 15 16  1  0
 15 17  1  0
 15 18  1  0
 18 19  1  0
 19 20  1  0
 20 21  2  0
 21 22  1  0
 22 23  2  0
 22 24  1  0
 24 25  2  0
 25 26  1  0
 25 27  1  0
 27 28  1  0
 27 29  2  0
 29 30  1  0
 30 31  1  0
 30 32  2  0
 32 33  1  0
 33 34  1  0
 34 35  1  0
 34 36  1  0
 34 37  1  0
 32 38  1  0
 38 39  1  0
 38 40  2  0
 40 41  1  0
 40 42  1  0
 42 43  2  0
 43 44  1  0
 20 45  1  0
 45 46  1  0
 46 47  1  0
  8 48  1  0
 48 49  1  0
 48 50  2  0
 50 51  1  0
 50  3  1  0
 46 18  2  0
 43 24  1  0
 42 29  1  0
M  CHG  4  12  -1  19  -1  44  -1  51  -1
M  END
>  <UniqueID>  (47) 
44

>  <SMILES>  (47) 
COc1ccc2c([O-])c(C(=O)/N=c3/[n-]c(CC(=O)[N-]Cc4ccc(O)c([O-])c4)cs3)ccc2c1

>  <Energy>  (47) 
93.21609043986248

>  <Genealogy>  (47) 
COc1ccc2c([O-])c(C(=O)N=c3[n-]c(CC(=O)[N-]Cc4ccc(O)c([O-])c4)cs3)ccc2c1 (protonated)
COc1ccc2c([O-])c(C(=O)/N=c3/[n-]c(CC(=O)[N-]Cc4ccc(O)c([O-])c4)cs3)ccc2c1 (cis-trans isomerization)
COc1ccc2c([O-])c(C(=O)/N=c3/[n-]c(CC(=O)[N-]Cc4ccc(O)c([O-])c4)cs3)ccc2c1 (3D coordinates assigned)
COc1ccc2c([O-])c(C(=O)/N=c3/[n-]c(CC(=O)[N-]Cc4ccc(O)c([O-])c4)cs3)ccc2c1 (optimized conformer: 93.21609043986248 kcal/mol)

>  <smiles>  (47) 
COc1ccc2c(O)c(C(=O)N=c3[nH]c(CC(=O)NCc4ccc(O)c(O)c4)cs3)ccc2c1

>  <score_type>  (47) 
oracle

>  <origin>  (47) 
adg

>  <m_score__min__energy>  (47) 
-17.129999999999999

>  <m_primary>  (47) 
energy

$$$$
47:0
     RDKit          3D

 40 42  0  0  0  0  0  0  0  0999 V2000
   55.8510   28.9810   45.0630 O   0  0  0  0  0  0  0  0  0  0  0  0
   56.6840   28.2060   45.6050 C   0  0  0  0  0  0  0  0  0  0  0  0
   56.3570   26.7690   45.7090 C   0  0  0  0  0  0  0  0  0  0  0  0
   57.2660   25.7240   45.6470 C   0  0  0  0  0  0  0  0  0  0  0  0
   56.5200   24.5870   45.8470 C   0  0  0  0  0  0  0  0  0  0  0  0
   57.0270   23.2540   45.9540 N   0  0  0  0  0  0  0  0  0  0  0  0
   57.0290   22.5030   44.9540 O   0  0  0  0  0  0  0  0  0  0  0  0
   57.3180   22.7320   47.1900 O   0  0  0  0  0  0  0  0  0  0  0  0
   55.2010   24.9720   45.9930 C   0  0  0  0  0  0  0  0  0  0  0  0
   55.1010   26.3130   45.9020 N   0  0  0  0  0  0  0  0  0  0  0  0
   57.9270   28.7340   46.0990 N   0  0  0  0  0  0  0  0  0  0  0  0
   58.5170   29.9020   45.4480 C   0  0  0  0  0  0  0  0  0  0  0  0
   60.0510   29.8920   45.6110 C   0  0  0  0  0  0  0  0  0  0  0  0
   60.4900   29.6500   47.0080 N   0  0  0  0  0  0  0  0  0  0  0  0
   60.2740   30.7860   47.8940 C   0  0  0  0  0  0  0  0  0  0  0  0
   60.2420   30.6250   49.1480 O   0  0  0  0  0  0  0  0  0  0  0  0
   60.0920   32.1660   47.3670 C   0  0  0  0  0  0  0  0  0  0  0  0
   58.8110   32.7440   47.2400 C   0  0  0  0  0  0  0  0  0  0  0  0
   58.6650   34.0380   46.7360 C   0  0  0  0  0  0  0  0  0  0  0  0
   59.7900   34.7730   46.3540 C   0  0  0  0  0  0  0  0  0  0  0  0
   59.6460   36.0360   45.8720 F   0  0  0  0  0  0  0  0  0  0  0  0
   61.0650   34.2120   46.4790 C   0  0  0  0  0  0  0  0  0  0  0  0
   61.2160   32.9220   46.9880 C   0  0  0  0  0  0  0  0  0  0  0  0
   59.8750   28.4150   47.5460 C   0  0  0  0  0  0  0  0  0  0  0  0
   58.3450   28.4640   47.4780 C   0  0  0  0  0  0  0  0  0  0  0  0
   58.3504   25.7905   45.4749 H   0  0  0  0  0  0  0  0  0  0  0  0
   54.3575   24.2857   46.1589 H   0  0  0  0  0  0  0  0  0  0  0  0
   58.2663   29.8851   44.3771 H   0  0  0  0  0  0  0  0  0  0  0  0
   58.1147   30.8123   45.9164 H   0  0  0  0  0  0  0  0  0  0  0  0
   60.4651   29.0980   44.9721 H   0  0  0  0  0  0  0  0  0  0  0  0
   60.4165   30.8884   45.3220 H   0  0  0  0  0  0  0  0  0  0  0  0
   61.5230   29.4880   46.9530 H   0  0  0  0  0  0  0  0  0  0  0  0
   57.9212   32.1712   47.5401 H   0  0  0  0  0  0  0  0  0  0  0  0
   57.6621   34.4796   46.6395 H   0  0  0  0  0  0  0  0  0  0  0  0
   61.9507   34.7893   46.1753 H   0  0  0  0  0  0  0  0  0  0  0  0
   62.2230   32.4922   47.0939 H   0  0  0  0  0  0  0  0  0  0  0  0
   60.2300   27.5555   46.9585 H   0  0  0  0  0  0  0  0  0  0  0  0
   60.1671   28.3201   48.6023 H   0  0  0  0  0  0  0  0  0  0  0  0
   57.9321   27.4980   47.8041 H   0  0  0  0  0  0  0  0  0  0  0  0
   57.9734   29.2622   48.1374 H   0  0  0  0  0  0  0  0  0  0  0  0
  1  2  2  0
  2  3  1  0
  3  4  2  0
  4  5  1  0
  5  6  1  0
  6  7  2  0
  6  8  1  0
  5  9  2  0
  9 10  1  0
  2 11  1  0
 11 12  1  0
 12 13  1  0
 13 14  1  0
 14 15  1  0
 15 16  2  0
 15 17  1  0
 17 18  2  0
 18 19  1  0
 19 20  2  0
 20 21  1  0
 20 22  1  0
 22 23  2  0
 14 24  1  0
 24 25  1  0
 10  3  1  0
 25 11  1  0
 23 17  1  0
  4 26  1  0
  9 27  1  0
 12 28  1  0
 12 29  1  0
 13 30  1  0
 13 31  1  0
 14 32  1  0
 18 33  1  0
 19 34  1  0
 22 35  1  0
 23 36  1  0
 24 37  1  0
 24 38  1  0
 25 39  1  0
 25 40  1  0
M  CHG  4   6   1   8  -1  10  -1  14   1
M  END
>  <UniqueID>  (48) 
45

>  <SMILES>  (48) 
O=C(c1cc([N+](=O)[O-])c[n-]1)N1CC[NH+](C(=O)c2ccc(F)cc2)CC1

>  <Energy>  (48) 
80.21793961061368

>  <Genealogy>  (48) 
O=C(c1cc([N+](=O)[O-])c[n-]1)N1CC[NH+](C(=O)c2ccc(F)cc2)CC1 (protonated)
O=C(c1cc([N+](=O)[O-])c[n-]1)N1CC[NH+](C(=O)c2ccc(F)cc2)CC1 (3D coordinates assigned)
O=C(c1cc([N+](=O)[O-])c[n-]1)N1CC[NH+](C(=O)c2ccc(F)cc2)CC1 (nonaromatic ring conformer: 80.21793961061368 kcal/mol)

>  <smiles>  (48) 
O=C(c1ccc(F)cc1)N1CCN(C(=O)c2cc([N+](=O)[O-])c[nH]2)CC1

>  <score_type>  (48) 
oracle

>  <origin>  (48) 
adg

>  <m_score__min__energy>  (48) 
-7.96

>  <m_primary>  (48) 
energy

$$$$
48:0
     RDKit          3D

 34 36  0  0  0  0  0  0  0  0999 V2000
   54.2060   28.3420   53.7090 C   0  0  0  0  0  0  0  0  0  0  0  0
   54.8120   29.3990   52.8440 C   0  0  0  0  0  0  0  0  0  0  0  0
   56.0620   29.3360   52.3510 N   0  0  0  0  0  0  0  0  0  0  0  0
   56.1650   30.4630   51.6150 C   0  0  0  0  0  0  0  0  0  0  0  0
   57.2460   30.7640   50.9570 N   0  0  0  0  0  0  0  0  0  0  0  0
   58.1610   31.8160   51.3030 C   0  0  0  0  0  0  0  0  0  0  0  0
   58.7170   32.4590   50.3740 O   0  0  0  0  0  0  0  0  0  0  0  0
   58.4270   32.1990   52.7100 C   0  0  0  0  0  0  0  0  0  0  0  0
   58.6520   33.5420   53.0590 C   0  0  0  0  0  0  0  0  0  0  0  0
   58.8990   33.8960   54.3880 C   0  0  0  0  0  0  0  0  0  0  0  0
   58.9350   32.9130   55.3800 C   0  0  0  0  0  0  0  0  0  0  0  0
   58.7320   31.5690   55.0430 C   0  0  0  0  0  0  0  0  0  0  0  0
   58.7700   30.5780   56.0230 O   0  0  0  0  0  0  0  0  0  0  0  0
   58.4850   31.2130   53.7110 C   0  0  0  0  0  0  0  0  0  0  0  0
   55.0590   31.2400   51.6280 N   0  0  0  0  0  0  0  0  0  0  0  0
   54.2040   30.5590   52.4090 C   0  0  0  0  0  0  0  0  0  0  0  0
   52.7930   30.9970   52.6590 C   0  0  0  0  0  0  0  0  0  0  0  0
   52.0560   31.0890   51.3600 C   0  0  0  0  0  0  0  0  0  0  0  0
   52.1300   30.1670   50.3830 N   0  0  0  0  0  0  0  0  0  0  0  0
   51.3920   30.7090   49.3890 C   0  0  0  0  0  0  0  0  0  0  0  0
   51.2130   30.1300   48.2860 O   0  0  0  0  0  0  0  0  0  0  0  0
   50.8670   31.9220   49.6670 N   0  0  0  0  0  0  0  0  0  0  0  0
   51.3050   32.1500   50.9160 C   0  0  0  0  0  0  0  0  0  0  0  0
   51.0320   33.3100   51.6310 O   0  0  0  0  0  0  0  0  0  0  0  0
   54.3559   28.6035   54.7669 H   0  0  0  0  0  0  0  0  0  0  0  0
   53.1288   28.2689   53.4984 H   0  0  0  0  0  0  0  0  0  0  0  0
   54.6872   27.3755   53.4984 H   0  0  0  0  0  0  0  0  0  0  0  0
   58.6335   34.3193   52.2809 H   0  0  0  0  0  0  0  0  0  0  0  0
   59.0654   34.9504   54.6535 H   0  0  0  0  0  0  0  0  0  0  0  0
   59.1229   33.1949   56.4265 H   0  0  0  0  0  0  0  0  0  0  0  0
   58.2790   29.7000   55.9060 H   0  0  0  0  0  0  0  0  0  0  0  0
   58.3355   30.1558   53.4464 H   0  0  0  0  0  0  0  0  0  0  0  0
   52.2935   30.2661   53.3119 H   0  0  0  0  0  0  0  0  0  0  0  0
   52.7985   31.9836   53.1455 H   0  0  0  0  0  0  0  0  0  0  0  0
  1  2  1  0
  2  3  1  0
  3  4  1  0
  4  5  2  3
  5  6  1  0
  6  7  2  0
  6  8  1  0
  8  9  2  0
  9 10  1  0
 10 11  2  0
 11 12  1  0
 12 13  1  0
 12 14  2  0
  4 15  1  0
 15 16  1  0
 16 17  1  0
 17 18  1  0
 18 19  1  0
 19 20  1  0
 20 21  2  0
 20 22  1  0
 22 23  1  0
 23 24  1  0
 16  2  2  0
 23 18  2  0
 14  8  1  0
  1 25  1  0
  1 26  1  0
  1 27  1  0
  9 28  1  0
 10 29  1  0
 11 30  1  0
 13 31  1  0
 14 32  1  0
 17 33  1  0
 17 34  1  0
M  CHG  5   3  -1  15  -1  19  -1  22  -1  24  -1
M  END
>  <UniqueID>  (49) 
46

>  <SMILES>  (49) 
Cc1[n-]c(=NC(=O)c2cccc(O)c2)[n-]c1Cc1[n-]c(=O)[n-]c1[O-]

>  <Energy>  (49) 
95.70313534405784

>  <Genealogy>  (49) 
Cc1[n-]c(=NC(=O)c2cccc(O)c2)[n-]c1Cc1[n-]c(=O)[n-]c1[O-] (protonated)
Cc1[n-]c(=NC(=O)c2cccc(O)c2)[n-]c1Cc1[n-]c(=O)[n-]c1[O-] (3D coordinates assigned)
Cc1[n-]c(=NC(=O)c2cccc(O)c2)[n-]c1Cc1[n-]c(=O)[n-]c1[O-] (optimized conformer: 95.70313534405784 kcal/mol)

>  <smiles>  (49) 
Cc1[nH]c(=NC(=O)c2cccc(O)c2)[nH]c1Cc1[nH]c(=O)[nH]c1O

>  <score_type>  (49) 
oracle

>  <origin>  (49) 
adg

>  <m_score__min__energy>  (49) 
-17.789999999999999

>  <m_primary>  (49) 
energy

$$$$
49:0
     RDKit          3D

 62 65  0  0  0  0  0  0  0  0999 V2000
   59.8220   33.7910   52.5490 C   0  0  0  0  0  0  0  0  0  0  0  0
   59.5120   33.3420   51.1490 C   0  0  0  0  0  0  0  0  0  0  0  0
   59.7690   34.1940   50.1140 N   0  0  0  0  0  0  0  0  0  0  0  0
   59.4880   33.8720   48.8250 C   0  0  0  0  0  0  0  0  0  0  0  0
   58.8880   32.6420   48.5180 C   0  0  0  0  0  0  0  0  0  0  0  0
   58.5660   32.2880   47.0880 C   0  0  0  0  0  0  0  0  0  0  0  0
   59.1370   30.9420   46.6920 C   0  0  0  0  0  0  0  0  0  0  0  0
   60.4570   30.5250   46.9580 C   0  0  0  0  0  0  0  0  0  0  0  0
   61.5630   31.3340   47.5100 C   0  0  0  0  0  0  0  0  0  0  0  0
   62.0140   32.4660   46.8160 C   0  0  0  0  0  0  0  0  0  0  0  0
   63.0140   33.2760   47.3620 C   0  0  0  0  0  0  0  0  0  0  0  0
   63.5650   32.9760   48.6240 C   0  0  0  0  0  0  0  0  0  0  0  0
   64.5440   33.7760   49.2280 O   0  0  0  0  0  0  0  0  0  0  0  0
   65.2500   33.4210   50.4180 C   0  0  0  0  0  0  0  0  0  0  0  0
   66.2560   32.2910   50.1290 C   0  0  0  0  0  0  0  0  0  0  0  0
   67.5960   32.4960   50.7210 N   0  0  0  0  0  0  0  0  0  0  0  0
   68.1180   33.8590   50.5110 C   0  0  0  0  0  0  0  0  0  0  0  0
   67.6670   32.1080   52.1420 C   0  0  0  0  0  0  0  0  0  0  0  0
   63.1060   31.8510   49.3170 C   0  0  0  0  0  0  0  0  0  0  0  0
   62.1080   31.0410   48.7690 C   0  0  0  0  0  0  0  0  0  0  0  0
   60.6440   28.9160   46.4730 S   0  0  0  0  0  0  0  0  0  0  0  0
   59.0840   28.7430   45.8870 C   0  0  0  0  0  0  0  0  0  0  0  0
   58.5160   27.6190   45.2940 C   0  0  0  0  0  0  0  0  0  0  0  0
   57.1880   27.7000   44.8520 C   0  0  0  0  0  0  0  0  0  0  0  0
   56.4540   28.8890   45.0260 C   0  0  0  0  0  0  0  0  0  0  0  0
   55.1370   28.9580   44.5930 O   0  0  0  0  0  0  0  0  0  0  0  0
   57.0480   30.0090   45.6360 C   0  0  0  0  0  0  0  0  0  0  0  0
   58.3810   29.9270   46.0640 C   0  0  0  0  0  0  0  0  0  0  0  0
   58.6540   31.7300   49.5610 C   0  0  0  0  0  0  0  0  0  0  0  0
   58.9700   32.0700   50.8820 C   0  0  0  0  0  0  0  0  0  0  0  0
   58.6970   31.1320   51.9280 N   0  0  0  0  0  0  0  0  0  0  0  0
   57.0920   30.8210   52.5020 S   0  0  0  0  0  0  0  0  0  0  0  0
   57.0770   30.8420   54.2830 C   0  0  0  0  0  0  0  0  0  0  0  0
   56.6200   29.4810   52.0070 O   0  0  0  0  0  0  0  0  0  0  0  0
   56.1690   31.8840   51.9800 O   0  0  0  0  0  0  0  0  0  0  0  0
   59.3486   33.1054   53.2672 H   0  0  0  0  0  0  0  0  0  0  0  0
   60.9113   33.7879   52.7023 H   0  0  0  0  0  0  0  0  0  0  0  0
   59.4331   34.8085   52.7023 H   0  0  0  0  0  0  0  0  0  0  0  0
   59.7320   34.5788   48.0183 H   0  0  0  0  0  0  0  0  0  0  0  0
   57.4730   32.2591   46.9672 H   0  0  0  0  0  0  0  0  0  0  0  0
   59.0190   33.0523   46.4395 H   0  0  0  0  0  0  0  0  0  0  0  0
   61.5789   32.7177   45.8376 H   0  0  0  0  0  0  0  0  0  0  0  0
   63.3730   34.1529   46.8032 H   0  0  0  0  0  0  0  0  0  0  0  0
   65.7920   34.3013   50.7941 H   0  0  0  0  0  0  0  0  0  0  0  0
   64.5277   33.0717   51.1705 H   0  0  0  0  0  0  0  0  0  0  0  0
   65.8434   31.3531   50.5293 H   0  0  0  0  0  0  0  0  0  0  0  0
   66.3962   32.2685   49.0382 H   0  0  0  0  0  0  0  0  0  0  0  0
   68.3006   34.3358   51.4853 H   0  0  0  0  0  0  0  0  0  0  0  0
   69.0601   33.8077   49.9455 H   0  0  0  0  0  0  0  0  0  0  0  0
   67.3826   34.4502   49.9455 H   0  0  0  0  0  0  0  0  0  0  0  0
   67.5048   32.9945   52.7727 H   0  0  0  0  0  0  0  0  0  0  0  0
   66.8911   31.3584   52.3566 H   0  0  0  0  0  0  0  0  0  0  0  0
   68.6581   31.6817   52.3566 H   0  0  0  0  0  0  0  0  0  0  0  0
   63.5334   31.6024   50.2996 H   0  0  0  0  0  0  0  0  0  0  0  0
   61.7466   30.1662   49.3295 H   0  0  0  0  0  0  0  0  0  0  0  0
   59.0944   26.6909   45.1752 H   0  0  0  0  0  0  0  0  0  0  0  0
   56.7177   26.8316   44.3675 H   0  0  0  0  0  0  0  0  0  0  0  0
   56.4742   30.9371   45.7754 H   0  0  0  0  0  0  0  0  0  0  0  0
   58.2203   30.7439   49.3386 H   0  0  0  0  0  0  0  0  0  0  0  0
   57.6766   30.0025   54.6647 H   0  0  0  0  0  0  0  0  0  0  0  0
   57.5034   31.7903   54.6421 H   0  0  0  0  0  0  0  0  0  0  0  0
   56.0417   30.7462   54.6421 H   0  0  0  0  0  0  0  0  0  0  0  0
  1  2  1  0
  2  3  2  0
  3  4  1  0
  4  5  2  0
  5  6  1  0
  6  7  1  0
  7  8  2  0
  8  9  1  0
  9 10  2  0
 10 11  1  0
 11 12  2  0
 12 13  1  0
 13 14  1  0
 14 15  1  0
 15 16  1  0
 16 17  1  0
 16 18  1  0
 12 19  1  0
 19 20  2  0
  8 21  1  0
 21 22  1  0
 22 23  2  0
 23 24  1  0
 24 25  2  0
 25 26  1  0
 25 27  1  0
 27 28  2  0
  5 29  1  0
 29 30  2  0
 30 31  1  0
 31 32  1  0
 32 33  1  0
 32 34  2  0
 32 35  2  0
 30  2  1  0
 28  7  1  0
 20  9  1  0
 28 22  1  0
  1 36  1  0
  1 37  1  0
  1 38  1  0
  4 39  1  0
  6 40  1  0
  6 41  1  0
 10 42  1  0
 11 43  1  0
 14 44  1  0
 14 45  1  0
 15 46  1  0
 15 47  1  0
 17 48  1  0
 17 49  1  0
 17 50  1  0
 18 51  1  0
 18 52  1  0
 18 53  1  0
 19 54  1  0
 20 55  1  0
 23 56  1  0
 24 57  1  0
 27 58  1  0
 29 59  1  0
 33 60  1  0
 33 61  1  0
 33 62  1  0
M  CHG  2  26  -1  31  -1
M  END
>  <UniqueID>  (50) 
47

>  <SMILES>  (50) 
Cc1ncc(Cc2c(-c3ccc(OCCN(C)C)cc3)sc3ccc([O-])cc23)cc1[N-]S(C)(=O)=O

>  <Energy>  (50) 
109.8663596674655

>  <Genealogy>  (50) 
Cc1ncc(Cc2c(-c3ccc(OCCN(C)C)cc3)sc3ccc([O-])cc23)cc1[N-]S(C)(=O)=O (protonated)
Cc1ncc(Cc2c(-c3ccc(OCCN(C)C)cc3)sc3ccc([O-])cc23)cc1[N-]S(C)(=O)=O (3D coordinates assigned)
Cc1ncc(Cc2c(-c3ccc(OCCN(C)C)cc3)sc3ccc([O-])cc23)cc1[N-]S(C)(=O)=O (optimized conformer: 109.8663596674655 kcal/mol)

>  <smiles>  (50) 
Cc1ncc(Cc2c(-c3ccc(OCCN(C)C)cc3)sc3ccc(O)cc23)cc1NS(C)(=O)=O

>  <score_type>  (50) 
oracle

>  <origin>  (50) 
adg

>  <m_score__min__energy>  (50) 
-13.9

>  <m_primary>  (50) 
energy

$$$$
50:0
     RDKit          3D

 60 63  0  0  0  0  0  0  0  0999 V2000
   58.5180   32.8610   45.0470 C   0  0  0  0  0  0  0  0  0  0  0  0
   59.1000   31.6260   45.4580 O   0  0  0  0  0  0  0  0  0  0  0  0
   58.3910   30.4240   45.6110 C   0  0  0  0  0  0  0  0  0  0  0  0
   57.1160   30.2360   45.0400 C   0  0  0  0  0  0  0  0  0  0  0  0
   56.4160   29.0380   45.2180 C   0  0  0  0  0  0  0  0  0  0  0  0
   55.1550   28.9000   44.6450 O   0  0  0  0  0  0  0  0  0  0  0  0
   56.9960   27.9860   45.9590 C   0  0  0  0  0  0  0  0  0  0  0  0
   56.2940   26.7000   46.1920 C   0  0  0  0  0  0  0  0  0  0  0  0
   55.1160   26.5170   45.7750 O   0  0  0  0  0  0  0  0  0  0  0  0
   56.9630   25.6520   46.9020 N   0  0  0  0  0  0  0  0  0  0  0  0
   57.8160   24.6580   46.3100 C   0  0  0  0  0  0  0  0  0  0  0  0
   59.2160   24.8010   46.3040 C   0  0  0  0  0  0  0  0  0  0  0  0
   60.0170   23.8640   45.6390 C   0  0  0  0  0  0  0  0  0  0  0  0
   59.4270   22.7970   44.9590 C   0  0  0  0  0  0  0  0  0  0  0  0
   58.0380   22.6560   44.9500 C   0  0  0  0  0  0  0  0  0  0  0  0
   57.2260   23.5900   45.6160 C   0  0  0  0  0  0  0  0  0  0  0  0
   55.8020   23.4080   45.6520 N   0  0  0  0  0  0  0  0  0  0  0  0
   54.9990   23.7540   44.4740 C   0  0  0  0  0  0  0  0  0  0  0  0
   53.5280   23.9440   44.8750 C   0  0  0  0  0  0  0  0  0  0  0  0
   53.0670   22.8380   45.6340 O   0  0  0  0  0  0  0  0  0  0  0  0
   53.7620   22.7850   46.8660 C   0  0  0  0  0  0  0  0  0  0  0  0
   55.2450   22.4770   46.6360 C   0  0  0  0  0  0  0  0  0  0  0  0
   58.2640   28.1780   46.5250 C   0  0  0  0  0  0  0  0  0  0  0  0
   58.9610   29.3810   46.3610 C   0  0  0  0  0  0  0  0  0  0  0  0
   60.5400   29.5240   47.1420 S   0  0  0  0  0  0  0  0  0  0  0  0
   60.9630   28.2280   47.7830 O   0  0  0  0  0  0  0  0  0  0  0  0
   61.5520   29.9100   46.0970 O   0  0  0  0  0  0  0  0  0  0  0  0
   60.4240   30.7700   48.3640 N   0  0  0  0  0  0  0  0  0  0  0  0
   61.3850   31.8700   48.1020 C   0  0  0  0  0  0  0  0  0  0  0  0
   60.7190   33.1360   47.5460 C   0  0  0  0  0  0  0  0  0  0  0  0
   59.6320   33.6590   48.4980 C   0  0  0  0  0  0  0  0  0  0  0  0
   58.9280   32.5310   49.2780 C   0  0  0  0  0  0  0  0  0  0  0  0
   59.0190   31.2000   48.5230 C   0  0  0  0  0  0  0  0  0  0  0  0
   58.2409   33.4490   45.9344 H   0  0  0  0  0  0  0  0  0  0  0  0
   59.2445   33.4263   44.4448 H   0  0  0  0  0  0  0  0  0  0  0  0
   57.6196   32.6605   44.4448 H   0  0  0  0  0  0  0  0  0  0  0  0
   56.6645   31.0438   44.4453 H   0  0  0  0  0  0  0  0  0  0  0  0
   59.6826   25.6512   46.8231 H   0  0  0  0  0  0  0  0  0  0  0  0
   61.1119   23.9689   45.6525 H   0  0  0  0  0  0  0  0  0  0  0  0
   60.0570   22.0668   44.4299 H   0  0  0  0  0  0  0  0  0  0  0  0
   57.5770   21.8100   44.4192 H   0  0  0  0  0  0  0  0  0  0  0  0
   55.3801   24.6880   44.0355 H   0  0  0  0  0  0  0  0  0  0  0  0
   55.0693   22.9392   43.7384 H   0  0  0  0  0  0  0  0  0  0  0  0
   53.4336   24.8595   45.4774 H   0  0  0  0  0  0  0  0  0  0  0  0
   52.9204   24.0231   43.9614 H   0  0  0  0  0  0  0  0  0  0  0  0
   53.6692   23.7555   47.3754 H   0  0  0  0  0  0  0  0  0  0  0  0
   53.3260   21.9870   47.4849 H   0  0  0  0  0  0  0  0  0  0  0  0
   55.7904   22.5809   47.5856 H   0  0  0  0  0  0  0  0  0  0  0  0
   55.3465   21.4487   46.2588 H   0  0  0  0  0  0  0  0  0  0  0  0
   58.7209   27.3664   47.1103 H   0  0  0  0  0  0  0  0  0  0  0  0
   61.8890   32.1259   49.0457 H   0  0  0  0  0  0  0  0  0  0  0  0
   62.0921   31.5112   47.3396 H   0  0  0  0  0  0  0  0  0  0  0  0
   61.4844   33.9149   47.4136 H   0  0  0  0  0  0  0  0  0  0  0  0
   60.2474   32.8864   46.5841 H   0  0  0  0  0  0  0  0  0  0  0  0
   60.0976   34.3472   49.2188 H   0  0  0  0  0  0  0  0  0  0  0  0
   58.8702   34.1636   47.8856 H   0  0  0  0  0  0  0  0  0  0  0  0
   59.4081   32.4200   50.2615 H   0  0  0  0  0  0  0  0  0  0  0  0
   57.8666   32.7955   49.3944 H   0  0  0  0  0  0  0  0  0  0  0  0
   58.4698   30.4304   49.0852 H   0  0  0  0  0  0  0  0  0  0  0  0
   58.5815   31.3365   47.5230 H   0  0  0  0  0  0  0  0  0  0  0  0
  1  2  1  0
  2  3  1  0
  3  4  2  0
  4  5  1  0
  5  6  1  0
  5  7  2  0
  7  8  1  0
  8  9  2  0
  8 10  1  0
 10 11  1  0
 11 12  2  0
 12 13  1  0
 13 14  2  0
 14 15  1  0
 15 16  2  0
 16 17  1  0
 17 18  1  0
 18 19  1  0
 19 20  1  0
 20 21  1  0
 21 22  1  0
  7 23  1  0
 23 24  2  0
 24 25  1  0
 25 26  2  0
 25 27  2  0
 25 28  1  0
 28 29  1  0
 29 30  1  0
 30 31  1  0
 31 32  1  0
 32 33  1  0
 24  3  1  0
 33 28  1  0
 16 11  1  0
 22 17  1  0
  1 34  1  0
  1 35  1  0
  1 36  1  0
  4 37  1  0
 12 38  1  0
 13 39  1  0
 14 40  1  0
 15 41  1  0
 18 42  1  0
 18 43  1  0
 19 44  1  0
 19 45  1  0
 21 46  1  0
 21 47  1  0
 22 48  1  0
 22 49  1  0
 23 50  1  0
 29 51  1  0
 29 52  1  0
 30 53  1  0
 30 54  1  0
 31 55  1  0
 31 56  1  0
 32 57  1  0
 32 58  1  0
 33 59  1  0
 33 60  1  0
M  CHG  2   6  -1  10  -1
M  END
>  <UniqueID>  (51) 
48

>  <SMILES>  (51) 
COc1cc([O-])c(C(=O)[N-]c2ccccc2N2CCOCC2)cc1S(=O)(=O)N1CCCCC1

>  <Energy>  (51) 
82.03426836479467

>  <Genealogy>  (51) 
COc1cc([O-])c(C(=O)[N-]c2ccccc2N2CCOCC2)cc1S(=O)(=O)N1CCCCC1 (protonated)
COc1cc([O-])c(C(=O)[N-]c2ccccc2N2CCOCC2)cc1S(=O)(=O)N1CCCCC1 (3D coordinates assigned)
COc1cc([O-])c(C(=O)[N-]c2ccccc2N2CCOCC2)cc1S(=O)(=O)N1CCCCC1 (nonaromatic ring conformer: 82.03426836479467 kcal/mol)

>  <smiles>  (51) 
COc1cc(O)c(C(=O)Nc2ccccc2N2CCOCC2)cc1S(=O)(=O)N1CCCCC1

>  <score_type>  (51) 
oracle

>  <origin>  (51) 
adg

>  <m_score__min__energy>  (51) 
-12.4

>  <m_primary>  (51) 
energy

$$$$
51:0
     RDKit          3D

 64 67  0  0  1  0  0  0  0  0999 V2000
   58.9090   29.5660   47.3540 C   0  0  0  0  0  0  0  0  0  0  0  0
   58.5980   28.6790   46.2030 C   0  0  0  0  0  0  0  0  0  0  0  0
   59.2060   27.4370   46.0580 C   0  0  0  0  0  0  0  0  0  0  0  0
   58.9120   26.6340   44.9970 N   0  0  0  0  0  0  0  0  0  0  0  0
   58.0130   27.0570   44.0760 C   0  0  0  0  0  0  0  0  0  0  0  0
   57.7830   26.2390   43.0940 N   0  0  0  0  0  0  0  0  0  0  0  0
   57.4030   28.2510   44.1820 N   0  0  0  0  0  0  0  0  0  0  0  0
   57.6770   29.0730   45.2280 C   0  0  0  0  0  0  0  0  0  0  0  0
   57.0760   30.2320   45.3150 N   0  0  0  0  0  0  0  0  0  0  0  0
   57.3610   31.3000   44.3460 C   0  0  0  0  0  0  0  0  0  0  0  0
   57.9080   32.4160   45.1900 C   0  0  0  0  0  0  0  0  0  0  0  0
   58.3070   33.6190   44.6470 C   0  0  0  0  0  0  0  0  0  0  0  0
   58.8130   34.6430   45.4560 C   0  0  0  0  0  0  0  0  0  0  0  0
   58.9070   34.4220   46.8320 C   0  0  0  0  0  0  0  0  0  0  0  0
   58.5140   33.2270   47.3980 C   0  0  0  0  0  0  0  0  0  0  0  0
   58.6350   33.0500   48.8430 C   0  0  0  0  0  0  0  0  0  0  0  0
   57.6710   32.4200   49.3970 O   0  0  0  0  0  0  0  0  0  0  0  0
   59.7140   33.5230   49.5990 N   0  0  0  0  0  0  0  0  0  0  0  0
   59.8560   33.3660   51.0040 C   0  0  0  0  0  0  0  0  0  0  0  0
   58.9870   34.0980   51.7970 C   0  0  0  0  0  0  0  0  0  0  0  0
   59.0550   34.0020   53.1690 C   0  0  0  0  0  0  0  0  0  0  0  0
   59.9990   33.1700   53.7150 C   0  0  0  0  0  0  0  0  0  0  0  0
   60.8620   32.4440   52.9170 C   0  0  0  0  0  0  0  0  0  0  0  0
   60.8150   32.5220   51.5210 C   0  0  0  0  0  0  0  0  0  0  0  0
   61.7110   31.7630   50.7270 N   0  0  0  0  0  0  0  0  0  0  0  0
   61.3240   30.8890   49.6550 C   0  0  0  0  0  0  0  0  0  0  0  0
   62.2920   30.9350   48.5000 C   0  0  0  0  0  0  0  0  0  0  0  0
   63.2240   32.0110   48.5380 N   0  0  0  0  0  0  0  0  0  0  0  0
   62.6970   33.4340   47.7380 S   0  0  0  0  0  0  0  0  0  0  0  0
   63.7300   33.8330   46.3510 C   0  0  0  0  0  0  0  0  0  0  0  0
   61.3030   33.2130   47.1640 O   0  0  0  0  0  0  0  0  0  0  0  0
   62.5780   34.5830   48.6850 O   0  0  0  0  0  0  0  0  0  0  0  0
   63.9020   32.2280   49.7710 C   0  0  0  0  0  0  0  0  0  0  0  0
   63.1480   31.8640   51.0070 C   0  0  0  0  0  0  0  0  0  0  0  0
   58.0220   32.2520   46.5570 C   0  0  0  0  0  0  0  0  0  0  0  0
   58.7200   29.0268   48.2940 H   0  0  0  0  0  0  0  0  0  0  0  0
   59.9662   29.8667   47.3100 H   0  0  0  0  0  0  0  0  0  0  0  0
   58.2711   30.4610   47.3100 H   0  0  0  0  0  0  0  0  0  0  0  0
   59.9340   27.0981   46.8097 H   0  0  0  0  0  0  0  0  0  0  0  0
   59.3750   25.6870   44.8870 H   0  0  0  0  0  0  0  0  0  0  0  0
   56.8720   26.1040   42.6380 H   0  0  0  0  0  0  0  0  0  0  0  0
   56.7090   28.5400   43.4390 H   0  0  0  0  0  0  0  0  0  0  0  0
   58.1040   30.9688   43.6056 H   0  0  0  0  0  0  0  0  0  0  0  0
   56.4726   31.5992   43.7705 H   0  0  0  0  0  0  0  0  0  0  0  0
   58.2264   33.7764   43.5613 H   0  0  0  0  0  0  0  0  0  0  0  0
   59.1297   35.6009   45.0177 H   0  0  0  0  0  0  0  0  0  0  0  0
   59.3033   35.2187   47.4787 H   0  0  0  0  0  0  0  0  0  0  0  0
   60.5070   34.0450   49.1220 H   0  0  0  0  0  0  0  0  0  0  0  0
   58.2410   34.7574   51.3294 H   0  0  0  0  0  0  0  0  0  0  0  0
   58.3706   34.5771   53.8100 H   0  0  0  0  0  0  0  0  0  0  0  0
   60.0702   33.0791   54.8089 H   0  0  0  0  0  0  0  0  0  0  0  0
   61.6058   31.7872   53.3919 H   0  0  0  0  0  0  0  0  0  0  0  0
   61.2789   29.8587   50.0376 H   0  0  0  0  0  0  0  0  0  0  0  0
   60.3437   31.2242   49.2854 H   0  0  0  0  0  0  0  0  0  0  0  0
   62.8591   29.9925   48.4924 H   0  0  0  0  0  0  0  0  0  0  0  0
   61.6844   31.0866   47.5957 H   0  0  0  0  0  0  0  0  0  0  0  0
   64.6994   34.2074   46.7115 H   0  0  0  0  0  0  0  0  0  0  0  0
   63.8890   32.9316   45.7409 H   0  0  0  0  0  0  0  0  0  0  0  0
   63.2418   34.6072   45.7409 H   0  0  0  0  0  0  0  0  0  0  0  0
   64.8278   31.6341   49.7547 H   0  0  0  0  0  0  0  0  0  0  0  0
   64.0641   33.3143   49.8324 H   0  0  0  0  0  0  0  0  0  0  0  0
   63.5122   30.8954   51.3801 H   0  0  0  0  0  0  0  0  0  0  0  0
   63.3070   32.6479   51.7621 H   0  0  0  0  0  0  0  0  0  0  0  0
   57.7041   31.2950   46.9965 H   0  0  0  0  0  0  0  0  0  0  0  0
  1  2  1  0
  2  3  2  0
  3  4  1  0
  4  5  1  0
  5  6  2  3
  5  7  1  0
  7  8  1  0
  8  9  2  0
  9 10  1  0
 10 11  1  0
 11 12  2  0
 12 13  1  0
 13 14  2  0
 14 15  1  0
 15 16  1  0
 16 17  2  0
 16 18  1  0
 18 19  1  0
 19 20  2  0
 20 21  1  0
 21 22  2  0
 22 23  1  0
 23 24  2  0
 24 25  1  0
 25 26  1  0
 26 27  1  0
 27 28  1  0
 28 29  1  0
 29 30  1  0
 29 31  2  0
 29 32  2  0
 28 33  1  0
 33 34  1  0
 15 35  2  0
  8  2  1  0
 35 11  1  0
 24 19  1  0
 34 25  1  0
  1 36  1  0
  1 37  1  0
  1 38  1  0
  3 39  1  0
  4 40  1  0
  6 41  1  0
  7 42  1  0
 10 43  1  0
 10 44  1  0
 12 45  1  0
 13 46  1  0
 14 47  1  0
 18 48  1  0
 20 49  1  0
 21 50  1  0
 22 51  1  0
 23 52  1  0
 26 53  1  0
 26 54  1  0
 27 55  1  0
 27 56  1  0
 30 57  1  0
 30 58  1  0
 30 59  1  0
 33 60  1  0
 33 61  1  0
 34 62  1  0
 34 63  1  0
 35 64  1  0
M  END
>  <smiles>  (52) 
Cc1c[nH]c(=N)[nH]c1=NCc1cccc(C(=O)Nc2ccccc2N2CCN(S(C)(=O)=O)CC2)c1

>  <score_type>  (52) 
oracle

>  <origin>  (52) 
adg

>  <m_score__min__energy>  (52) 
-8.9600000000000009

>  <m_primary>  (52) 
energy

$$$$
52:0
     RDKit          3D

 52 55  0  0  0  0  0  0  0  0999 V2000
   54.9489   31.2100   43.9699 H   0  0  0  0  0  0  0  0  0  0  0  0
   55.7350   30.4970   44.2590 C   0  0  0  0  0  0  0  0  0  0  0  0
   55.4610   29.2950   44.8310 N   0  0  0  0  0  0  0  0  0  0  0  0
   56.5920   28.6010   45.0940 C   0  0  0  0  0  0  0  0  0  0  0  0
   56.6190   27.4380   45.6740 N   0  0  0  0  0  0  0  0  0  0  0  0
   57.7920   26.6590   45.9510 C   0  0  0  0  0  0  0  0  0  0  0  0
   58.0160   25.6380   45.2470 O   0  0  0  0  0  0  0  0  0  0  0  0
   58.6870   26.9630   47.0900 C   0  0  0  0  0  0  0  0  0  0  0  0
   58.9220   26.0550   47.9340 O   0  0  0  0  0  0  0  0  0  0  0  0
   59.3470   28.2830   47.2410 C   0  0  0  0  0  0  0  0  0  0  0  0
   58.9630   29.1760   48.2590 C   0  0  0  0  0  0  0  0  0  0  0  0
   58.1529   28.9004   48.9502 H   0  0  0  0  0  0  0  0  0  0  0  0
   59.6040   30.4110   48.3980 C   0  0  0  0  0  0  0  0  0  0  0  0
   59.2940   31.1023   49.1955 H   0  0  0  0  0  0  0  0  0  0  0  0
   60.6380   30.7710   47.5270 C   0  0  0  0  0  0  0  0  0  0  0  0
   61.4680   32.3130   47.7170 S   0  0  0  0  0  0  0  0  0  0  0  0
   61.5050   33.0210   46.3910 O   0  0  0  0  0  0  0  0  0  0  0  0
   60.7210   33.1750   48.6980 O   0  0  0  0  0  0  0  0  0  0  0  0
   63.0970   32.0280   48.2720 N   0  0  0  0  0  0  0  0  0  0  0  0
   63.5630   31.3590   47.6150 H   0  0  0  0  0  0  0  0  0  0  0  0
   63.8760   33.2660   48.3390 C   0  0  0  0  0  0  0  0  0  0  0  0
   64.3515   33.4678   47.3678 H   0  0  0  0  0  0  0  0  0  0  0  0
   63.2334   34.1253   48.5812 H   0  0  0  0  0  0  0  0  0  0  0  0
   64.9380   33.0570   49.4100 C   0  0  0  0  0  0  0  0  0  0  0  0
   65.9087   32.8231   48.9483 H   0  0  0  0  0  0  0  0  0  0  0  0
   65.0832   33.9593   50.0221 H   0  0  0  0  0  0  0  0  0  0  0  0
   64.4490   31.8820   50.2440 C   0  0  0  0  0  0  0  0  0  0  0  0
   65.1687   31.0515   50.1972 H   0  0  0  0  0  0  0  0  0  0  0  0
   64.3397   32.1521   51.3047 H   0  0  0  0  0  0  0  0  0  0  0  0
   63.1210   31.4700   49.6270 C   0  0  0  0  0  0  0  0  0  0  0  0
   63.0451   30.3733   49.5871 H   0  0  0  0  0  0  0  0  0  0  0  0
   62.2746   31.8411   50.2236 H   0  0  0  0  0  0  0  0  0  0  0  0
   61.0400   29.8810   46.5250 C   0  0  0  0  0  0  0  0  0  0  0  0
   61.8612   30.1548   45.8463 H   0  0  0  0  0  0  0  0  0  0  0  0
   60.4020   28.6450   46.3830 C   0  0  0  0  0  0  0  0  0  0  0  0
   60.7272   27.9503   45.5946 H   0  0  0  0  0  0  0  0  0  0  0  0
   57.9750   29.4480   44.6580 S   0  0  0  0  0  0  0  0  0  0  0  0
   57.0900   30.7540   44.0680 C   0  0  0  0  0  0  0  0  0  0  0  0
   57.6730   32.0250   43.5400 C   0  0  0  0  0  0  0  0  0  0  0  0
   58.5706   31.7948   42.9473 H   0  0  0  0  0  0  0  0  0  0  0  0
   56.9262   32.5284   42.9084 H   0  0  0  0  0  0  0  0  0  0  0  0
   58.0480   32.9340   44.6780 C   0  0  0  0  0  0  0  0  0  0  0  0
   57.6020   32.6580   45.9820 C   0  0  0  0  0  0  0  0  0  0  0  0
   56.9519   31.7901   46.1669 H   0  0  0  0  0  0  0  0  0  0  0  0
   57.9820   33.4830   47.0450 C   0  0  0  0  0  0  0  0  0  0  0  0
   57.6234   33.2684   48.0625 H   0  0  0  0  0  0  0  0  0  0  0  0
   58.8170   34.5800   46.8160 C   0  0  0  0  0  0  0  0  0  0  0  0
   59.1126   35.2295   47.6532 H   0  0  0  0  0  0  0  0  0  0  0  0
   59.2770   34.8530   45.5250 C   0  0  0  0  0  0  0  0  0  0  0  0
   59.9366   35.7152   45.3473 H   0  0  0  0  0  0  0  0  0  0  0  0
   58.8990   34.0300   44.4580 C   0  0  0  0  0  0  0  0  0  0  0  0
   59.2693   34.2419   43.4441 H   0  0  0  0  0  0  0  0  0  0  0  0
  1  2  1  0
  2  3  1  0
  3  4  1  0
  4  5  2  0
  5  6  1  0
  6  7  2  0
  6  8  1  0
  8  9  2  0
  8 10  1  0
 10 11  2  0
 11 12  1  0
 11 13  1  0
 13 14  1  0
 13 15  2  0
 15 16  1  0
 16 17  2  0
 16 18  2  0
 16 19  1  0
 19 20  1  0
 19 21  1  0
 21 22  1  0
 21 23  1  0
 21 24  1  0
 24 25  1  0
 24 26  1  0
 24 27  1  0
 27 28  1  0
 27 29  1  0
 27 30  1  0
 30 31  1  0
 30 32  1  0
 15 33  1  0
 33 34  1  0
 33 35  2  0
 35 36  1  0
  4 37  1  0
 37 38  1  0
 38 39  1  0
 39 40  1  0
 39 41  1  0
 39 42  1  0
 42 43  2  0
 43 44  1  0
 43 45  1  0
 45 46  1  0
 45 47  2  0
 47 48  1  0
 47 49  1  0
 49 50  1  0
 49 51  2  0
 51 52  1  0
 38  2  2  0
 51 42  1  0
 35 10  1  0
 30 19  1  0
M  CHG  2   3  -1  19   1
M  END
>  <UniqueID>  (53) 
49

>  <SMILES>  (53) 
O=C(/N=c1\[n-]cc(Cc2ccccc2)s1)C(=O)c1ccc(S(=O)(=O)[NH+]2CCCC2)cc1

>  <Energy>  (53) 
92.97694591122931

>  <Genealogy>  (53) 
O=C(N=c1[n-]cc(Cc2ccccc2)s1)C(=O)c1ccc(S(=O)(=O)[NH+]2CCCC2)cc1 (protonated)
O=C(/N=c1\[n-]cc(Cc2ccccc2)s1)C(=O)c1ccc(S(=O)(=O)[NH+]2CCCC2)cc1 (cis-trans isomerization)
O=C(/N=c1\[n-]cc(Cc2ccccc2)s1)C(=O)c1ccc(S(=O)(=O)[NH+]2CCCC2)cc1 (3D coordinates assigned)
O=C(/N=c1\[n-]cc(Cc2ccccc2)s1)C(=O)c1ccc(S(=O)(=O)[NH+]2CCCC2)cc1 (nonaromatic ring conformer: 92.97694591122931 kcal/mol)

>  <smiles>  (53) 
O=C(N=c1[nH]cc(Cc2ccccc2)s1)C(=O)c1ccc(S(=O)(=O)N2CCCC2)cc1

>  <score_type>  (53) 
oracle

>  <origin>  (53) 
adg

>  <m_score__min__energy>  (53) 
-10.23

>  <m_primary>  (53) 
energy

$$$$
53:0
     RDKit          3D

 56 59  0  0  0  0  0  0  0  0999 V2000
   58.6880   27.2880   45.2050 O   0  0  0  0  0  0  0  0  0  0  0  0
   57.5340   27.7870   45.2310 C   0  0  0  0  0  0  0  0  0  0  0  0
   56.4540   27.1050   45.8880 N   0  0  0  0  0  0  0  0  0  0  0  0
   56.5400   25.9690   46.5040 C   0  0  0  0  0  0  0  0  0  0  0  0
   55.5340   25.0710   46.5780 N   0  0  0  0  0  0  0  0  0  0  0  0
   55.8750   23.9990   47.3460 C   0  0  0  0  0  0  0  0  0  0  0  0
   54.8870   22.9500   47.6680 C   0  0  0  0  0  0  0  0  0  0  0  0
   54.0420   23.1760   48.5740 O   0  0  0  0  0  0  0  0  0  0  0  0
   54.8830   21.6620   47.0390 N   0  0  0  0  0  0  0  0  0  0  0  0
   54.6690   21.4020   45.6190 C   0  0  0  0  0  0  0  0  0  0  0  0
   55.9570   20.8660   44.9890 C   0  0  0  0  0  0  0  0  0  0  0  0
   56.2630   21.5820   43.7300 N   0  0  0  0  0  0  0  0  0  0  0  0
   56.0600   23.0500   43.8400 C   0  0  0  0  0  0  0  0  0  0  0  0
   57.3760   23.8150   44.0810 C   0  0  0  0  0  0  0  0  0  0  0  0
   58.2520   23.0480   44.8710 O   0  0  0  0  0  0  0  0  0  0  0  0
   58.7040   21.9080   44.1580 C   0  0  0  0  0  0  0  0  0  0  0  0
   57.6250   21.2710   43.2500 C   0  0  0  0  0  0  0  0  0  0  0  0
   57.1570   24.0670   47.8990 C   0  0  0  0  0  0  0  0  0  0  0  0
   57.8780   25.5000   47.3980 S   0  0  0  0  0  0  0  0  0  0  0  0
   57.3060   29.1050   44.6050 C   0  0  0  0  0  0  0  0  0  0  0  0
   57.0610   29.2190   43.2280 C   0  0  0  0  0  0  0  0  0  0  0  0
   56.9150   30.4910   42.6580 C   0  0  0  0  0  0  0  0  0  0  0  0
   57.0010   31.6290   43.4610 C   0  0  0  0  0  0  0  0  0  0  0  0
   57.2300   31.4810   44.8340 C   0  0  0  0  0  0  0  0  0  0  0  0
   57.3120   32.6500   45.6560 N   0  0  0  0  0  0  0  0  0  0  0  0
   58.3920   33.5970   45.6520 C   0  0  0  0  0  0  0  0  0  0  0  0
   58.2430   34.7310   45.1180 O   0  0  0  0  0  0  0  0  0  0  0  0
   59.6690   33.2770   46.3290 C   0  0  0  0  0  0  0  0  0  0  0  0
   60.7930   34.0760   46.0510 C   0  0  0  0  0  0  0  0  0  0  0  0
   61.9990   33.8640   46.7230 C   0  0  0  0  0  0  0  0  0  0  0  0
   62.1010   32.8520   47.6770 C   0  0  0  0  0  0  0  0  0  0  0  0
   61.0010   32.0350   47.9440 C   0  0  0  0  0  0  0  0  0  0  0  0
   59.7910   32.2220   47.2670 C   0  0  0  0  0  0  0  0  0  0  0  0
   58.7540   31.3220   47.5250 O   0  0  0  0  0  0  0  0  0  0  0  0
   57.3820   30.2330   45.3620 N   0  0  0  0  0  0  0  0  0  0  0  0
   53.8677   20.6577   45.5009 H   0  0  0  0  0  0  0  0  0  0  0  0
   54.3825   22.3384   45.1179 H   0  0  0  0  0  0  0  0  0  0  0  0
   56.7891   21.0056   45.6948 H   0  0  0  0  0  0  0  0  0  0  0  0
   55.8217   19.7979   44.7636 H   0  0  0  0  0  0  0  0  0  0  0  0
   55.6073   23.4138   42.9058 H   0  0  0  0  0  0  0  0  0  0  0  0
   55.4063   23.2315   44.7059 H   0  0  0  0  0  0  0  0  0  0  0  0
   57.8535   24.0284   43.1133 H   0  0  0  0  0  0  0  0  0  0  0  0
   57.1512   24.7545   44.6072 H   0  0  0  0  0  0  0  0  0  0  0  0
   59.5545   22.2076   43.5281 H   0  0  0  0  0  0  0  0  0  0  0  0
   58.9806   21.1509   44.9065 H   0  0  0  0  0  0  0  0  0  0  0  0
   57.7418   21.6609   42.2281 H   0  0  0  0  0  0  0  0  0  0  0  0
   57.7575   20.1792   43.2693 H   0  0  0  0  0  0  0  0  0  0  0  0
   57.6164   23.3103   48.5519 H   0  0  0  0  0  0  0  0  0  0  0  0
   56.9842   28.3181   42.6016 H   0  0  0  0  0  0  0  0  0  0  0  0
   56.7327   30.5923   41.5780 H   0  0  0  0  0  0  0  0  0  0  0  0
   56.8901   32.6307   43.0202 H   0  0  0  0  0  0  0  0  0  0  0  0
   60.7215   34.8746   45.2979 H   0  0  0  0  0  0  0  0  0  0  0  0
   62.8704   34.4969   46.4992 H   0  0  0  0  0  0  0  0  0  0  0  0
   63.0463   32.6978   48.2180 H   0  0  0  0  0  0  0  0  0  0  0  0
   61.0865   31.2356   48.6948 H   0  0  0  0  0  0  0  0  0  0  0  0
   58.0930   31.0090   46.8200 H   0  0  0  0  0  0  0  0  0  0  0  0
  1  2  2  0
  2  3  1  0
  3  4  2  3
  4  5  1  0
  5  6  1  0
  6  7  1  0
  7  8  2  0
  7  9  1  0
  9 10  1  0
 10 11  1  0
 11 12  1  0
 12 13  1  0
 13 14  1  0
 14 15  1  0
 15 16  1  0
 16 17  1  0
  6 18  2  0
 18 19  1  0
  2 20  1  0
 20 21  2  0
 21 22  1  0
 22 23  2  0
 23 24  1  0
 24 25  1  0
 25 26  1  0
 26 27  2  0
 26 28  1  0
 28 29  2  0
 29 30  1  0
 30 31  2  0
 31 32  1  0
 32 33  2  0
 33 34  1  0
 24 35  2  0
 19  4  1  0
 35 20  1  0
 17 12  1  0
 33 28  1  0
 10 36  1  0
 10 37  1  0
 11 38  1  0
 11 39  1  0
 13 40  1  0
 13 41  1  0
 14 42  1  0
 14 43  1  0
 16 44  1  0
 16 45  1  0
 17 46  1  0
 17 47  1  0
 18 48  1  0
 21 49  1  0
 22 50  1  0
 23 51  1  0
 29 52  1  0
 30 53  1  0
 31 54  1  0
 32 55  1  0
 34 56  1  0
M  CHG  3   5  -1   9  -1  25  -1
M  END
>  <UniqueID>  (54) 
50

>  <SMILES>  (54) 
O=C(N=c1[n-]c(C(=O)[N-]CCN2CCOCC2)cs1)c1cccc([N-]C(=O)c2ccccc2O)n1

>  <Energy>  (54) 
115.59454188503535

>  <Genealogy>  (54) 
O=C(N=c1[n-]c(C(=O)[N-]CCN2CCOCC2)cs1)c1cccc([N-]C(=O)c2ccccc2O)n1 (protonated)
O=C(N=c1[n-]c(C(=O)[N-]CCN2CCOCC2)cs1)c1cccc([N-]C(=O)c2ccccc2O)n1 (3D coordinates assigned)
O=C(N=c1[n-]c(C(=O)[N-]CCN2CCOCC2)cs1)c1cccc([N-]C(=O)c2ccccc2O)n1 (nonaromatic ring conformer: 115.59454188503535 kcal/mol)

>  <smiles>  (54) 
O=C(N=c1[nH]c(C(=O)NCCN2CCOCC2)cs1)c1cccc(NC(=O)c2ccccc2O)n1

>  <score_type>  (54) 
oracle

>  <origin>  (54) 
adg

>  <m_score__min__energy>  (54) 
-14.43

>  <m_primary>  (54) 
energy

$$$$
54:0
     RDKit          3D

 40 43  0  0  0  0  0  0  0  0999 V2000
   56.7050   31.7299   44.2639 H   0  0  0  0  0  0  0  0  0  0  0  0
   57.5170   31.2210   44.8040 C   0  0  0  0  0  0  0  0  0  0  0  0
   58.3740   31.9820   45.4990 C   0  0  0  0  0  0  0  0  0  0  0  0
   59.7630   31.2850   46.3810 S   0  0  0  0  0  0  0  0  0  0  0  0
   60.2110   32.9710   46.8730 C   0  0  0  0  0  0  0  0  0  0  0  0
   61.4190   33.2790   47.6800 C   0  0  0  0  0  0  0  0  0  0  0  0
   62.7010   32.9210   47.2120 C   0  0  0  0  0  0  0  0  0  0  0  0
   62.8052   32.4112   46.2429 H   0  0  0  0  0  0  0  0  0  0  0  0
   63.8400   33.2090   47.9700 C   0  0  0  0  0  0  0  0  0  0  0  0
   64.8348   32.9259   47.5955 H   0  0  0  0  0  0  0  0  0  0  0  0
   63.7170   33.8550   49.2010 C   0  0  0  0  0  0  0  0  0  0  0  0
   64.6144   34.0803   49.7960 H   0  0  0  0  0  0  0  0  0  0  0  0
   62.4560   34.2150   49.6770 C   0  0  0  0  0  0  0  0  0  0  0  0
   62.3610   34.7245   50.6473 H   0  0  0  0  0  0  0  0  0  0  0  0
   61.3120   33.9300   48.9240 C   0  0  0  0  0  0  0  0  0  0  0  0
   60.3213   34.2166   49.3066 H   0  0  0  0  0  0  0  0  0  0  0  0
   59.4070   33.9110   46.4850 N   0  0  0  0  0  0  0  0  0  0  0  0
   58.3220   33.4230   45.7180 C   0  0  0  0  0  0  0  0  0  0  0  0
   57.3920   34.1760   45.3300 O   0  0  0  0  0  0  0  0  0  0  0  0
   57.5840   29.7500   44.7110 C   0  0  0  0  0  0  0  0  0  0  0  0
   58.6890   29.1110   44.1240 C   0  0  0  0  0  0  0  0  0  0  0  0
   59.5016   29.7130   43.6913 H   0  0  0  0  0  0  0  0  0  0  0  0
   58.7630   27.7160   44.0860 C   0  0  0  0  0  0  0  0  0  0  0  0
   59.6236   27.2238   43.6094 H   0  0  0  0  0  0  0  0  0  0  0  0
   57.7410   26.9440   44.6550 C   0  0  0  0  0  0  0  0  0  0  0  0
   57.7880   25.5440   44.6320 C   0  0  0  0  0  0  0  0  0  0  0  0
   58.6322   25.0314   44.1478 H   0  0  0  0  0  0  0  0  0  0  0  0
   56.7610   24.7940   45.2250 C   0  0  0  0  0  0  0  0  0  0  0  0
   56.8050   23.2870   45.1670 C   0  0  0  0  0  0  0  0  0  0  0  0
   56.7223   22.8812   46.1861 H   0  0  0  0  0  0  0  0  0  0  0  0
   57.7569   22.9720   44.7146 H   0  0  0  0  0  0  0  0  0  0  0  0
   55.6740   22.7710   44.3360 C   0  0  0  0  0  0  0  0  0  0  0  0
   54.5370   22.6020   44.8500 O   0  0  0  0  0  0  0  0  0  0  0  0
   55.8870   22.4310   43.0060 O   0  0  0  0  0  0  0  0  0  0  0  0
   55.6800   25.4760   45.8180 C   0  0  0  0  0  0  0  0  0  0  0  0
   54.7280   24.8380   46.3410 O   0  0  0  0  0  0  0  0  0  0  0  0
   55.6530   26.8350   45.8290 N   0  0  0  0  0  0  0  0  0  0  0  0
   56.6440   27.5810   45.2720 C   0  0  0  0  0  0  0  0  0  0  0  0
   56.5750   28.9770   45.3070 C   0  0  0  0  0  0  0  0  0  0  0  0
   55.7270   29.4715   45.8034 H   0  0  0  0  0  0  0  0  0  0  0  0
  1  2  1  0
  2  3  2  0
  3  4  1  0
  4  5  1  0
  5  6  1  0
  6  7  2  0
  7  8  1  0
  7  9  1  0
  9 10  1  0
  9 11  2  0
 11 12  1  0
 11 13  1  0
 13 14  1  0
 13 15  2  0
 15 16  1  0
  5 17  2  0
 17 18  1  0
 18 19  2  0
  2 20  1  0
 20 21  2  0
 21 22  1  0
 21 23  1  0
 23 24  1  0
 23 25  2  0
 25 26  1  0
 26 27  1  0
 26 28  2  0
 28 29  1  0
 29 30  1  0
 29 31  1  0
 29 32  1  0
 32 33  2  0
 32 34  1  0
 28 35  1  0
 35 36  2  0
 35 37  1  0
 37 38  1  0
 38 39  2  0
 39 40  1  0
 18  3  1  0
 39 20  1  0
 15  6  1  0
 38 25  1  0
M  CHG  2  34  -1  37  -1
M  END
>  <UniqueID>  (55) 
51

>  <SMILES>  (55) 
O=C([O-])Cc1cc2ccc(/C=C3/SC(c4ccccc4)=NC3=O)cc2[n-]c1=O

>  <Energy>  (55) 
75.73341601645852

>  <Genealogy>  (55) 
O=C([O-])Cc1cc2ccc(C=C3SC(c4ccccc4)=NC3=O)cc2[n-]c1=O (protonated)
O=C([O-])Cc1cc2ccc(/C=C3/SC(c4ccccc4)=NC3=O)cc2[n-]c1=O (cis-trans isomerization)
O=C([O-])Cc1cc2ccc(/C=C3/SC(c4ccccc4)=NC3=O)cc2[n-]c1=O (3D coordinates assigned)
O=C([O-])Cc1cc2ccc(/C=C3/SC(c4ccccc4)=NC3=O)cc2[n-]c1=O (nonaromatic ring conformer: 75.73341601645852 kcal/mol)

>  <smiles>  (55) 
O=C(O)Cc1cc2ccc(C=C3SC(c4ccccc4)=NC3=O)cc2[nH]c1=O

>  <score_type>  (55) 
oracle

>  <origin>  (55) 
adg

>  <m_score__min__energy>  (55) 
-13.59

>  <m_primary>  (55) 
energy

$$$$
55:0
     RDKit          3D

 65 68  0  0  0  0  0  0  0  0999 V2000
   59.4410   29.3870   49.1620 C   0  0  0  0  0  0  0  0  0  0  0  0
   58.8760   30.2960   50.2030 C   0  0  0  0  0  0  0  0  0  0  0  0
   57.7000   30.0880   50.8320 N   0  0  0  0  0  0  0  0  0  0  0  0
   57.4620   31.1430   51.5980 N   0  0  0  0  0  0  0  0  0  0  0  0
   56.2550   31.3030   52.3980 C   0  0  0  0  0  0  0  0  0  0  0  0
   58.4600   32.0480   51.4610 C   0  0  0  0  0  0  0  0  0  0  0  0
   58.5060   33.3990   52.1050 C   0  0  0  0  0  0  0  0  0  0  0  0
   59.3740   31.5300   50.5710 C   0  0  0  0  0  0  0  0  0  0  0  0
   60.5170   32.1890   50.0250 N   0  0  0  0  0  0  0  0  0  0  0  0
   60.3320   33.5040   48.9210 S   0  0  0  0  0  0  0  0  0  0  0  0
   61.6900   33.9970   48.5050 O   0  0  0  0  0  0  0  0  0  0  0  0
   59.6020   34.6350   49.5890 O   0  0  0  0  0  0  0  0  0  0  0  0
   59.4470   32.9480   47.5050 C   0  0  0  0  0  0  0  0  0  0  0  0
   58.2820   33.6150   47.0940 C   0  0  0  0  0  0  0  0  0  0  0  0
   57.5530   33.1450   45.9960 C   0  0  0  0  0  0  0  0  0  0  0  0
   57.9860   32.0060   45.3040 C   0  0  0  0  0  0  0  0  0  0  0  0
   57.0730   31.4170   43.8770 S   0  0  0  0  0  0  0  0  0  0  0  0
   57.2200   29.7020   44.3840 C   0  0  0  0  0  0  0  0  0  0  0  0
   58.3680   28.9670   44.0720 C   0  0  0  0  0  0  0  0  0  0  0  0
   58.4760   27.6360   44.4820 C   0  0  0  0  0  0  0  0  0  0  0  0
   57.4330   27.0540   45.2180 C   0  0  0  0  0  0  0  0  0  0  0  0
   57.5350   25.8100   45.5860 N   0  0  0  0  0  0  0  0  0  0  0  0
   57.2700   24.6340   44.8010 C   0  0  0  0  0  0  0  0  0  0  0  0
   56.5350   24.7480   43.7830 O   0  0  0  0  0  0  0  0  0  0  0  0
   57.8600   23.2870   45.1490 C   0  0  0  0  0  0  0  0  0  0  0  0
   56.8780   22.3570   45.8850 C   0  0  0  0  0  0  0  0  0  0  0  0
   56.4780   22.8610   47.2450 C   0  0  0  0  0  0  0  0  0  0  0  0
   57.1750   22.5830   48.2600 O   0  0  0  0  0  0  0  0  0  0  0  0
   55.2790   23.6330   47.3780 N   0  0  0  0  0  0  0  0  0  0  0  0
   54.1240   23.5460   46.5310 C   0  0  0  0  0  0  0  0  0  0  0  0
   53.3180   22.4000   46.6150 C   0  0  0  0  0  0  0  0  0  0  0  0
   52.1760   22.2750   45.8210 C   0  0  0  0  0  0  0  0  0  0  0  0
   51.8210   23.3000   44.9410 C   0  0  0  0  0  0  0  0  0  0  0  0
   52.6000   24.4590   44.8660 C   0  0  0  0  0  0  0  0  0  0  0  0
   53.7370   24.6020   45.6740 C   0  0  0  0  0  0  0  0  0  0  0  0
   54.4630   25.7940   45.6370 O   0  0  0  0  0  0  0  0  0  0  0  0
   56.3200   27.7890   45.4980 N   0  0  0  0  0  0  0  0  0  0  0  0
   56.1930   29.0850   45.1040 C   0  0  0  0  0  0  0  0  0  0  0  0
   59.1390   31.3330   45.7210 C   0  0  0  0  0  0  0  0  0  0  0  0
   59.8700   31.8000   46.8180 C   0  0  0  0  0  0  0  0  0  0  0  0
   59.9615   28.5496   49.6498 H   0  0  0  0  0  0  0  0  0  0  0  0
   58.6261   28.9967   48.5346 H   0  0  0  0  0  0  0  0  0  0  0  0
   60.1517   29.9450   48.5346 H   0  0  0  0  0  0  0  0  0  0  0  0
   56.5158   31.2684   53.4661 H   0  0  0  0  0  0  0  0  0  0  0  0
   55.7870   32.2710   52.1660 H   0  0  0  0  0  0  0  0  0  0  0  0
   55.5509   30.4903   52.1660 H   0  0  0  0  0  0  0  0  0  0  0  0
   58.5021   33.2840   53.1990 H   0  0  0  0  0  0  0  0  0  0  0  0
   59.4225   33.9222   51.7946 H   0  0  0  0  0  0  0  0  0  0  0  0
   57.6272   33.9833   51.7946 H   0  0  0  0  0  0  0  0  0  0  0  0
   57.9415   34.5093   47.6365 H   0  0  0  0  0  0  0  0  0  0  0  0
   56.6404   33.6694   45.6762 H   0  0  0  0  0  0  0  0  0  0  0  0
   59.1850   29.4364   43.5044 H   0  0  0  0  0  0  0  0  0  0  0  0
   59.3715   27.0490   44.2299 H   0  0  0  0  0  0  0  0  0  0  0  0
   58.1747   22.7937   44.2175 H   0  0  0  0  0  0  0  0  0  0  0  0
   58.7040   23.4701   45.8303 H   0  0  0  0  0  0  0  0  0  0  0  0
   55.9708   22.2532   45.2716 H   0  0  0  0  0  0  0  0  0  0  0  0
   57.3929   21.3966   46.0347 H   0  0  0  0  0  0  0  0  0  0  0  0
   53.5882   21.5933   47.3123 H   0  0  0  0  0  0  0  0  0  0  0  0
   51.5558   21.3690   45.8886 H   0  0  0  0  0  0  0  0  0  0  0  0
   50.9284   23.1955   44.3067 H   0  0  0  0  0  0  0  0  0  0  0  0
   52.3193   25.2627   44.1694 H   0  0  0  0  0  0  0  0  0  0  0  0
   55.3890   25.8410   45.2320 H   0  0  0  0  0  0  0  0  0  0  0  0
   55.2811   29.6479   45.3523 H   0  0  0  0  0  0  0  0  0  0  0  0
   59.4722   30.4327   45.1839 H   0  0  0  0  0  0  0  0  0  0  0  0
   60.7763   31.2675   47.1422 H   0  0  0  0  0  0  0  0  0  0  0  0
  1  2  1  0
  2  3  2  0
  3  4  1  0
  4  5  1  0
  4  6  1  0
  6  7  1  0
  6  8  2  0
  8  9  1  0
  9 10  1  0
 10 11  2  0
 10 12  2  0
 10 13  1  0
 13 14  2  0
 14 15  1  0
 15 16  2  0
 16 17  1  0
 17 18  1  0
 18 19  1  0
 19 20  2  0
 20 21  1  0
 21 22  2  3
 22 23  1  0
 23 24  2  0
 23 25  1  0
 25 26  1  0
 26 27  1  0
 27 28  2  0
 27 29  1  0
 29 30  1  0
 30 31  2  0
 31 32  1  0
 32 33  2  0
 33 34  1  0
 34 35  2  0
 35 36  1  0
 21 37  1  0
 37 38  1  0
 16 39  1  0
 39 40  2  0
  8  2  1  0
 40 13  1  0
 38 18  2  0
 35 30  1  0
  1 41  1  0
  1 42  1  0
  1 43  1  0
  5 44  1  0
  5 45  1  0
  5 46  1  0
  7 47  1  0
  7 48  1  0
  7 49  1  0
 14 50  1  0
 15 51  1  0
 19 52  1  0
 20 53  1  0
 25 54  1  0
 25 55  1  0
 26 56  1  0
 26 57  1  0
 31 58  1  0
 32 59  1  0
 33 60  1  0
 34 61  1  0
 36 62  1  0
 38 63  1  0
 39 64  1  0
 40 65  1  0
M  CHG  3   9  -1  29  -1  37  -1
M  END
>  <UniqueID>  (56) 
52

>  <SMILES>  (56) 
Cc1nn(C)c(C)c1[N-]S(=O)(=O)c1ccc(Sc2ccc(=NC(=O)CCC(=O)[N-]c3ccccc3O)[n-]c2)cc1

>  <Energy>  (56) 
111.96643419231968

>  <Genealogy>  (56) 
Cc1nn(C)c(C)c1[N-]S(=O)(=O)c1ccc(Sc2ccc(=NC(=O)CCC(=O)[N-]c3ccccc3O)[n-]c2)cc1 (protonated)
Cc1nn(C)c(C)c1[N-]S(=O)(=O)c1ccc(Sc2ccc(=NC(=O)CCC(=O)[N-]c3ccccc3O)[n-]c2)cc1 (3D coordinates assigned)
Cc1nn(C)c(C)c1[N-]S(=O)(=O)c1ccc(Sc2ccc(=NC(=O)CCC(=O)[N-]c3ccccc3O)[n-]c2)cc1 (optimized conformer: 111.96643419231968 kcal/mol)

>  <smiles>  (56) 
Cc1nn(C)c(C)c1NS(=O)(=O)c1ccc(Sc2ccc(=NC(=O)CCC(=O)Nc3ccccc3O)[nH]c2)cc1

>  <score_type>  (56) 
oracle

>  <origin>  (56) 
adg

>  <m_score__min__energy>  (56) 
-15.15

>  <m_primary>  (56) 
energy

$$$$
56:0
     RDKit          3D

 45 47  0  0  0  0  0  0  0  0999 V2000
   59.9340   32.8910   48.5690 H   0  0  0  0  0  0  0  0  0  0  0  0
   59.0520   33.3400   48.3470 O   0  0  0  0  0  0  0  0  0  0  0  0
   58.5910   33.4270   47.0350 C   0  0  0  0  0  0  0  0  0  0  0  0
   58.9480   34.5100   46.2220 C   0  0  0  0  0  0  0  0  0  0  0  0
   59.5900   35.3090   46.6212 H   0  0  0  0  0  0  0  0  0  0  0  0
   58.4890   34.5760   44.9040 C   0  0  0  0  0  0  0  0  0  0  0  0
   58.7799   35.4217   44.2636 H   0  0  0  0  0  0  0  0  0  0  0  0
   57.6610   33.5700   44.3970 C   0  0  0  0  0  0  0  0  0  0  0  0
   57.3130   33.6196   43.3547 H   0  0  0  0  0  0  0  0  0  0  0  0
   57.2710   32.4930   45.2170 C   0  0  0  0  0  0  0  0  0  0  0  0
   58.6810   27.7980   47.5640 N   0  0  0  0  0  0  0  0  0  0  0  0
   57.9530   26.8000   47.1530 C   0  0  0  0  0  0  0  0  0  0  0  0
   57.9650   25.6190   47.8350 N   0  0  0  0  0  0  0  0  0  0  0  0
   57.4040   28.2780   43.8920 N   0  0  0  0  0  0  0  0  0  0  0  0
   57.0750   28.1780   45.1980 C   0  0  0  0  0  0  0  0  0  0  0  0
   57.1400   26.9310   46.0010 C   0  0  0  0  0  0  0  0  0  0  0  0
   56.3690   25.8270   45.6010 C   0  0  0  0  0  0  0  0  0  0  0  0
   55.7293   25.9027   44.7094 H   0  0  0  0  0  0  0  0  0  0  0  0
   56.4080   24.6360   46.3250 C   0  0  0  0  0  0  0  0  0  0  0  0
   55.8017   23.7738   46.0103 H   0  0  0  0  0  0  0  0  0  0  0  0
   57.2230   24.5500   47.4510 C   0  0  0  0  0  0  0  0  0  0  0  0
   57.2652   23.6152   48.0292 H   0  0  0  0  0  0  0  0  0  0  0  0
   57.2090   29.5410   43.5460 N   0  0  0  0  0  0  0  0  0  0  0  0
   56.7750   30.1630   44.6580 C   0  0  0  0  0  0  0  0  0  0  0  0
   56.4470   31.4200   44.7310 N   0  0  0  0  0  0  0  0  0  0  0  0
   59.9610   28.2080   46.9830 C   0  0  0  0  0  0  0  0  0  0  0  0
   60.1322   27.6397   46.0569 H   0  0  0  0  0  0  0  0  0  0  0  0
   60.7551   28.0062   47.7170 H   0  0  0  0  0  0  0  0  0  0  0  0
   59.9730   29.7080   46.6580 C   0  0  0  0  0  0  0  0  0  0  0  0
   58.9851   30.1308   46.8932 H   0  0  0  0  0  0  0  0  0  0  0  0
   60.2096   29.8237   45.5900 H   0  0  0  0  0  0  0  0  0  0  0  0
   61.0400   30.4600   47.4660 C   0  0  0  0  0  0  0  0  0  0  0  0
   62.0132   29.9694   47.3168 H   0  0  0  0  0  0  0  0  0  0  0  0
   60.7493   30.4380   48.5267 H   0  0  0  0  0  0  0  0  0  0  0  0
   61.1430   31.8600   47.0460 N   0  0  0  0  0  0  0  0  0  0  0  0
   62.0150   32.8430   48.1890 S   0  0  0  0  0  0  0  0  0  0  0  0
   61.7470   32.3140   49.5700 O   0  0  0  0  0  0  0  0  0  0  0  0
   61.5250   34.2620   48.1160 O   0  0  0  0  0  0  0  0  0  0  0  0
   63.7760   32.8120   47.9140 C   0  0  0  0  0  0  0  0  0  0  0  0
   64.2982   32.8028   48.8821 H   0  0  0  0  0  0  0  0  0  0  0  0
   64.0424   31.9090   47.3451 H   0  0  0  0  0  0  0  0  0  0  0  0
   64.0740   33.7050   47.3451 H   0  0  0  0  0  0  0  0  0  0  0  0
   56.6840   29.3390   45.6720 O   0  0  0  0  0  0  0  0  0  0  0  0
   57.7620   32.4190   46.5280 C   0  0  0  0  0  0  0  0  0  0  0  0
   57.4938   31.5621   47.1635 H   0  0  0  0  0  0  0  0  0  0  0  0
  1  2  1  0
  2  3  1  0
  3  4  2  0
  4  5  1  0
  4  6  1  0
  6  7  1  0
  6  8  2  0
  8  9  1  0
  8 10  1  0
 10 11  1  0
 11 12  2  0
 12 13  1  0
 13 14  1  0
 14 15  2  0
 15 16  1  0
 16 17  2  0
 17 18  1  0
 17 19  1  0
 19 20  1  0
 19 21  2  0
 21 22  1  0
 21 23  1  0
 23 24  1  0
 24 25  2  0
 25 26  1  0
 26 27  1  0
 26 28  1  0
 26 29  1  0
 29 30  1  0
 29 31  1  0
 29 32  1  0
 32 33  1  0
 32 34  1  0
 32 35  1  0
 35 36  1  0
 36 37  2  0
 36 38  2  0
 36 39  1  0
 39 40  1  0
 39 41  1  0
 39 42  1  0
 15 43  1  0
 10 44  2  0
 44 45  1  0
 44  3  1  0
 43 12  1  0
 24 16  1  0
M  CHG  3  13  -1  23  -1  35  -1
M  END
>  <UniqueID>  (57) 
53

>  <SMILES>  (57) 
CS(=O)(=O)[N-]CCC/N=c1\[n-]cccc1-c1n[n-]/c(=N\c2cccc(O)c2)o1

>  <Energy>  (57) 
83.21796155488353

>  <Genealogy>  (57) 
CS(=O)(=O)[N-]CCCN=c1[n-]cccc1-c1n[n-]c(=Nc2cccc(O)c2)o1 (protonated)
CS(=O)(=O)[N-]CCC/N=c1\[n-]cccc1-c1n[n-]/c(=N\c2cccc(O)c2)o1 (cis-trans isomerization)
CS(=O)(=O)[N-]CCC/N=c1\[n-]cccc1-c1n[n-]/c(=N\c2cccc(O)c2)o1 (3D coordinates assigned)
CS(=O)(=O)[N-]CCC/N=c1\[n-]cccc1-c1n[n-]/c(=N\c2cccc(O)c2)o1 (optimized conformer: 83.21796155488353 kcal/mol)

>  <smiles>  (57) 
CS(=O)(=O)NCCCN=c1[nH]cccc1-c1n[nH]c(=Nc2cccc(O)c2)o1

>  <score_type>  (57) 
oracle

>  <origin>  (57) 
adg

>  <m_score__min__energy>  (57) 
-13

>  <m_primary>  (57) 
energy

$$$$
57:0
     RDKit          3D

 50 52  0  0  0  0  0  0  0  0999 V2000
   53.8740   26.2780   46.3250 H   0  0  0  0  0  0  0  0  0  0  0  0
   54.7840   25.9780   45.9080 N   0  0  0  0  0  0  0  0  0  0  0  0
   55.8560   26.6940   46.0340 C   0  0  0  0  0  0  0  0  0  0  0  0
   55.9270   27.9200   45.4590 N   0  0  0  0  0  0  0  0  0  0  0  0
   57.0290   28.7110   45.5560 C   0  0  0  0  0  0  0  0  0  0  0  0
   56.9940   30.0550   44.8860 C   0  0  0  0  0  0  0  0  0  0  0  0
   56.9734   30.8455   45.6507 H   0  0  0  0  0  0  0  0  0  0  0  0
   57.8893   30.1752   44.2583 H   0  0  0  0  0  0  0  0  0  0  0  0
   56.0936   30.1285   44.2583 H   0  0  0  0  0  0  0  0  0  0  0  0
   58.1690   28.2470   46.2610 C   0  0  0  0  0  0  0  0  0  0  0  0
   59.4080   29.1110   46.3840 C   0  0  0  0  0  0  0  0  0  0  0  0
   60.2533   28.6144   45.8852 H   0  0  0  0  0  0  0  0  0  0  0  0
   59.2260   30.0861   45.9086 H   0  0  0  0  0  0  0  0  0  0  0  0
   59.7210   29.3060   47.7940 N   0  0  0  0  0  0  0  0  0  0  0  0
   59.2600   30.4130   48.5740 C   0  0  0  0  0  0  0  0  0  0  0  0
   59.2610   31.5610   48.0550 O   0  0  0  0  0  0  0  0  0  0  0  0
   58.7750   30.2250   49.9150 N   0  0  0  0  0  0  0  0  0  0  0  0
   58.4900   29.2650   50.2100 H   0  0  0  0  0  0  0  0  0  0  0  0
   58.5530   31.3060   50.8380 C   0  0  0  0  0  0  0  0  0  0  0  0
   59.4580   32.3800   50.9210 C   0  0  0  0  0  0  0  0  0  0  0  0
   60.3355   32.4072   50.2583 H   0  0  0  0  0  0  0  0  0  0  0  0
   59.2500   33.4120   51.8390 C   0  0  0  0  0  0  0  0  0  0  0  0
   59.9542   34.2558   51.8858 H   0  0  0  0  0  0  0  0  0  0  0  0
   58.1510   33.3740   52.6960 C   0  0  0  0  0  0  0  0  0  0  0  0
   57.9904   34.1871   53.4192 H   0  0  0  0  0  0  0  0  0  0  0  0
   57.2540   32.3060   52.6380 C   0  0  0  0  0  0  0  0  0  0  0  0
   56.3974   32.2729   53.3272 H   0  0  0  0  0  0  0  0  0  0  0  0
   57.4400   31.2710   51.7020 C   0  0  0  0  0  0  0  0  0  0  0  0
   56.5580   30.1810   51.6370 O   0  0  0  0  0  0  0  0  0  0  0  0
   55.2160   30.1940   52.0450 C   0  0  0  0  0  0  0  0  0  0  0  0
   54.8720   29.5560   53.2410 C   0  0  0  0  0  0  0  0  0  0  0  0
   55.6515   29.0671   53.8438 H   0  0  0  0  0  0  0  0  0  0  0  0
   53.5460   29.5360   53.6740 C   0  0  0  0  0  0  0  0  0  0  0  0
   53.2859   29.0386   54.6200 H   0  0  0  0  0  0  0  0  0  0  0  0
   52.5480   30.1450   52.9110 C   0  0  0  0  0  0  0  0  0  0  0  0
   51.5062   30.1328   53.2640 H   0  0  0  0  0  0  0  0  0  0  0  0
   52.8660   30.7740   51.6940 C   0  0  0  0  0  0  0  0  0  0  0  0
   51.8080   31.4080   50.8730 C   0  0  0  0  0  0  0  0  0  0  0  0
   51.2700   30.7730   49.9250 O   0  0  0  0  0  0  0  0  0  0  0  0
   51.3840   32.7440   51.1410 N   0  0  0  0  0  0  0  0  0  0  0  0
   51.3960   33.4710   50.3930 H   0  0  0  0  0  0  0  0  0  0  0  0
   54.2070   30.7870   51.2640 C   0  0  0  0  0  0  0  0  0  0  0  0
   54.4681   31.2653   50.3085 H   0  0  0  0  0  0  0  0  0  0  0  0
   58.0960   26.9850   46.9060 C   0  0  0  0  0  0  0  0  0  0  0  0
   59.2430   26.4360   47.7150 C   0  0  0  0  0  0  0  0  0  0  0  0
   59.0199   26.5428   48.7868 H   0  0  0  0  0  0  0  0  0  0  0  0
   59.3854   25.3721   47.4743 H   0  0  0  0  0  0  0  0  0  0  0  0
   60.1609   26.9924   47.4743 H   0  0  0  0  0  0  0  0  0  0  0  0
   56.9360   26.2060   46.7680 C   0  0  0  0  0  0  0  0  0  0  0  0
   56.8796   25.2130   47.2379 H   0  0  0  0  0  0  0  0  0  0  0  0
  1  2  1  0
  2  3  2  0
  3  4  1  0
  4  5  1  0
  5  6  1  0
  6  7  1  0
  6  8  1  0
  6  9  1  0
  5 10  2  0
 10 11  1  0
 11 12  1  0
 11 13  1  0
 11 14  1  0
 14 15  1  0
 15 16  2  0
 15 17  1  0
 17 18  1  0
 17 19  1  0
 19 20  2  0
 20 21  1  0
 20 22  1  0
 22 23  1  0
 22 24  2  0
 24 25  1  0
 24 26  1  0
 26 27  1  0
 26 28  2  0
 28 29  1  0
 29 30  1  0
 30 31  2  0
 31 32  1  0
 31 33  1  0
 33 34  1  0
 33 35  2  0
 35 36  1  0
 35 37  1  0
 37 38  1  0
 38 39  2  0
 38 40  1  0
 40 41  1  0
 37 42  2  0
 42 43  1  0
 10 44  1  0
 44 45  1  0
 45 46  1  0
 45 47  1  0
 45 48  1  0
 44 49  2  0
 49 50  1  0
 49  3  1  0
 28 19  1  0
 42 30  1  0
M  CHG  3   4  -1  14  -1  40  -1
M  END
>  <UniqueID>  (58) 
54

>  <SMILES>  (58) 
[H]/N=c1/cc(C)c(C[N-]C(=O)Nc2ccccc2Oc2cccc(C([NH-])=O)c2)c(C)[n-]1

>  <Energy>  (58) 
62.64193955957492

>  <Genealogy>  (58) 
Cc1cc(=N)[n-]c(C)c1C[N-]C(=O)Nc1ccccc1Oc1cccc(C([NH-])=O)c1 (protonated)
[H]/N=c1/cc(C)c(C[N-]C(=O)Nc2ccccc2Oc2cccc(C([NH-])=O)c2)c(C)[n-]1 (cis-trans isomerization)
[H]/N=c1/cc(C)c(C[N-]C(=O)Nc2ccccc2Oc2cccc(C([NH-])=O)c2)c(C)[n-]1 (3D coordinates assigned)
[H]/N=c1/cc(C)c(C[N-]C(=O)Nc2ccccc2Oc2cccc(C([NH-])=O)c2)c(C)[n-]1 (optimized conformer: 62.64193955957492 kcal/mol)

>  <smiles>  (58) 
Cc1cc(=N)[nH]c(C)c1CNC(=O)Nc1ccccc1Oc1cccc(C(N)=O)c1

>  <score_type>  (58) 
oracle

>  <origin>  (58) 
adg

>  <m_score__min__energy>  (58) 
-16.309999999999999

>  <m_primary>  (58) 
energy

$$$$
58:0
     RDKit          3D

 45 46  0  0  0  0  0  0  0  0999 V2000
   58.7830   34.2700   44.7980 C   0  0  0  0  0  0  0  0  0  0  0  0
   58.9390   33.9570   46.2570 C   0  0  0  0  0  0  0  0  0  0  0  0
   59.9720   34.5550   46.9930 C   0  0  0  0  0  0  0  0  0  0  0  0
   60.1400   34.2520   48.3480 C   0  0  0  0  0  0  0  0  0  0  0  0
   59.2840   33.3370   48.9780 C   0  0  0  0  0  0  0  0  0  0  0  0
   59.4990   32.9750   50.6900 S   0  0  0  0  0  0  0  0  0  0  0  0
   58.7730   31.7060   51.0440 O   0  0  0  0  0  0  0  0  0  0  0  0
   58.9170   34.0970   51.5010 O   0  0  0  0  0  0  0  0  0  0  0  0
   61.1860   32.8030   51.0820 N   0  0  0  0  0  0  0  0  0  0  0  0
   61.5710   31.3920   51.1490 C   0  0  0  0  0  0  0  0  0  0  0  0
   61.6200   30.7790   49.7830 C   0  0  0  0  0  0  0  0  0  0  0  0
   62.5600   31.0570   48.9880 O   0  0  0  0  0  0  0  0  0  0  0  0
   60.6210   29.8250   49.4130 N   0  0  0  0  0  0  0  0  0  0  0  0
   60.2950   28.6500   50.2120 C   0  0  0  0  0  0  0  0  0  0  0  0
   60.7060   27.4040   49.4810 C   0  0  0  0  0  0  0  0  0  0  0  0
   61.1460   26.4250   50.1380 O   0  0  0  0  0  0  0  0  0  0  0  0
   60.7370   27.3490   48.0490 N   0  0  0  0  0  0  0  0  0  0  0  0
   59.8010   27.9810   47.1680 C   0  0  0  0  0  0  0  0  0  0  0  0
   58.5400   27.4040   46.9800 C   0  0  0  0  0  0  0  0  0  0  0  0
   57.5940   28.0240   46.1590 C   0  0  0  0  0  0  0  0  0  0  0  0
   57.8970   29.2400   45.5290 C   0  0  0  0  0  0  0  0  0  0  0  0
   56.7030   30.0340   44.5100 S   0  0  0  0  0  0  0  0  0  0  0  0
   55.1420   29.3560   44.8130 N   0  0  0  0  0  0  0  0  0  0  0  0
   56.6760   31.5050   44.8120 O   0  0  0  0  0  0  0  0  0  0  0  0
   57.0600   29.8460   43.0610 O   0  0  0  0  0  0  0  0  0  0  0  0
   59.1460   29.8390   45.7460 C   0  0  0  0  0  0  0  0  0  0  0  0
   60.0910   29.2160   46.5670 C   0  0  0  0  0  0  0  0  0  0  0  0
   58.2630   32.7230   48.2400 C   0  0  0  0  0  0  0  0  0  0  0  0
   58.0900   33.0340   46.8870 C   0  0  0  0  0  0  0  0  0  0  0  0
   58.2950   35.2491   44.6832 H   0  0  0  0  0  0  0  0  0  0  0  0
   59.7737   34.2958   44.3206 H   0  0  0  0  0  0  0  0  0  0  0  0
   58.1660   33.4945   44.3206 H   0  0  0  0  0  0  0  0  0  0  0  0
   60.6533   35.2657   46.5024 H   0  0  0  0  0  0  0  0  0  0  0  0
   60.9461   34.7329   48.9214 H   0  0  0  0  0  0  0  0  0  0  0  0
   62.5648   31.3128   51.6138 H   0  0  0  0  0  0  0  0  0  0  0  0
   60.8200   30.8537   51.7459 H   0  0  0  0  0  0  0  0  0  0  0  0
   60.8291   28.7024   51.1722 H   0  0  0  0  0  0  0  0  0  0  0  0
   59.2099   28.6235   50.3907 H   0  0  0  0  0  0  0  0  0  0  0  0
   58.2919   26.4569   47.4814 H   0  0  0  0  0  0  0  0  0  0  0  0
   56.6096   27.5573   46.0066 H   0  0  0  0  0  0  0  0  0  0  0  0
   55.1750   28.3610   44.4970 H   0  0  0  0  0  0  0  0  0  0  0  0
   59.3831   30.8015   45.2692 H   0  0  0  0  0  0  0  0  0  0  0  0
   61.0653   29.6955   46.7426 H   0  0  0  0  0  0  0  0  0  0  0  0
   57.5963   31.9951   48.7255 H   0  0  0  0  0  0  0  0  0  0  0  0
   57.2841   32.5524   46.3138 H   0  0  0  0  0  0  0  0  0  0  0  0
  1  2  1  0
  2  3  2  0
  3  4  1  0
  4  5  2  0
  5  6  1  0
  6  7  2  0
  6  8  2  0
  6  9  1  0
  9 10  1  0
 10 11  1  0
 11 12  2  0
 11 13  1  0
 13 14  1  0
 14 15  1  0
 15 16  2  0
 15 17  1  0
 17 18  1  0
 18 19  2  0
 19 20  1  0
 20 21  2  0
 21 22  1  0
 22 23  1  0
 22 24  2  0
 22 25  2  0
 21 26  1  0
 26 27  2  0
  5 28  1  0
 28 29  2  0
 29  2  1  0
 27 18  1  0
  1 30  1  0
  1 31  1  0
  1 32  1  0
  3 33  1  0
  4 34  1  0
 10 35  1  0
 10 36  1  0
 14 37  1  0
 14 38  1  0
 19 39  1  0
 20 40  1  0
 23 41  1  0
 26 42  1  0
 27 43  1  0
 28 44  1  0
 29 45  1  0
M  CHG  4   9  -1  13  -1  17  -1  23  -1
M  END
>  <UniqueID>  (59) 
55

>  <SMILES>  (59) 
Cc1ccc(S(=O)(=O)[N-]CC(=O)[N-]CC(=O)[N-]c2ccc(S([NH-])(=O)=O)cc2)cc1

>  <Energy>  (59) 
42.36676785743292

>  <Genealogy>  (59) 
Cc1ccc(S(=O)(=O)[N-]CC(=O)[N-]CC(=O)[N-]c2ccc(S([NH-])(=O)=O)cc2)cc1 (protonated)
Cc1ccc(S(=O)(=O)[N-]CC(=O)[N-]CC(=O)[N-]c2ccc(S([NH-])(=O)=O)cc2)cc1 (3D coordinates assigned)
Cc1ccc(S(=O)(=O)[N-]CC(=O)[N-]CC(=O)[N-]c2ccc(S([NH-])(=O)=O)cc2)cc1 (optimized conformer: 42.36676785743292 kcal/mol)

>  <smiles>  (59) 
Cc1ccc(S(=O)(=O)NCC(=O)NCC(=O)Nc2ccc(S(N)(=O)=O)cc2)cc1

>  <score_type>  (59) 
oracle

>  <origin>  (59) 
adg

>  <m_score__min__energy>  (59) 
-13.970000000000001

>  <m_primary>  (59) 
energy

$$$$
59:0
     RDKit          3D

 47 50  0  0  0  0  0  0  0  0999 V2000
   62.6150   33.8510   46.0920 O   0  0  0  0  0  0  0  0  0  0  0  0
   62.0100   33.7960   47.1990 C   0  0  0  0  0  0  0  0  0  0  0  0
   60.6580   34.1590   47.2820 O   0  0  0  0  0  0  0  0  0  0  0  0
   59.5970   33.4920   46.6520 C   0  0  0  0  0  0  0  0  0  0  0  0
   58.3220   34.0660   46.7100 C   0  0  0  0  0  0  0  0  0  0  0  0
   57.2350   33.4370   46.0990 C   0  0  0  0  0  0  0  0  0  0  0  0
   57.4050   32.2150   45.4430 C   0  0  0  0  0  0  0  0  0  0  0  0
   58.6750   31.6120   45.3980 C   0  0  0  0  0  0  0  0  0  0  0  0
   59.7680   32.2560   45.9990 C   0  0  0  0  0  0  0  0  0  0  0  0
   58.8900   30.3400   44.6180 C   0  0  0  0  0  0  0  0  0  0  0  0
   57.6430   29.5970   44.3880 N   0  0  0  0  0  0  0  0  0  0  0  0
   57.7180   28.1850   43.9880 C   0  0  0  0  0  0  0  0  0  0  0  0
   57.8810   27.3000   45.1950 C   0  0  0  0  0  0  0  0  0  0  0  0
   56.8240   26.4740   45.6140 C   0  0  0  0  0  0  0  0  0  0  0  0
   56.9640   25.6730   46.7520 C   0  0  0  0  0  0  0  0  0  0  0  0
   58.1570   25.6910   47.4790 C   0  0  0  0  0  0  0  0  0  0  0  0
   59.2120   26.5130   47.0720 C   0  0  0  0  0  0  0  0  0  0  0  0
   59.0750   27.3180   45.9360 C   0  0  0  0  0  0  0  0  0  0  0  0
   56.3920   30.3070   44.3330 C   0  0  0  0  0  0  0  0  0  0  0  0
   55.3630   29.7680   43.8460 O   0  0  0  0  0  0  0  0  0  0  0  0
   56.3050   31.5970   44.8490 O   0  0  0  0  0  0  0  0  0  0  0  0
   62.7240   33.4170   48.3910 N   0  0  0  0  0  0  0  0  0  0  0  0
   61.9820   33.1970   49.6380 C   0  0  0  0  0  0  0  0  0  0  0  0
   62.9070   33.3640   50.8470 C   0  0  0  0  0  0  0  0  0  0  0  0
   64.0780   32.5860   50.6950 O   0  0  0  0  0  0  0  0  0  0  0  0
   64.8370   33.0820   49.6120 C   0  0  0  0  0  0  0  0  0  0  0  0
   64.0910   32.8890   48.2890 C   0  0  0  0  0  0  0  0  0  0  0  0
   58.1750   35.0186   47.2401 H   0  0  0  0  0  0  0  0  0  0  0  0
   56.2405   33.9057   46.1343 H   0  0  0  0  0  0  0  0  0  0  0  0
   60.7646   31.7922   45.9596 H   0  0  0  0  0  0  0  0  0  0  0  0
   59.3321   30.5953   43.6437 H   0  0  0  0  0  0  0  0  0  0  0  0
   59.5557   29.6956   45.2110 H   0  0  0  0  0  0  0  0  0  0  0  0
   56.7933   27.9093   43.4599 H   0  0  0  0  0  0  0  0  0  0  0  0
   58.5879   28.0490   43.3286 H   0  0  0  0  0  0  0  0  0  0  0  0
   55.8829   26.4574   45.0447 H   0  0  0  0  0  0  0  0  0  0  0  0
   56.1336   25.0279   47.0751 H   0  0  0  0  0  0  0  0  0  0  0  0
   58.2662   25.0581   48.3720 H   0  0  0  0  0  0  0  0  0  0  0  0
   60.1506   26.5269   47.6454 H   0  0  0  0  0  0  0  0  0  0  0  0
   59.9051   27.9676   45.6216 H   0  0  0  0  0  0  0  0  0  0  0  0
   61.1622   33.9273   49.7054 H   0  0  0  0  0  0  0  0  0  0  0  0
   61.5781   32.1738   49.6368 H   0  0  0  0  0  0  0  0  0  0  0  0
   63.1878   34.4233   50.9426 H   0  0  0  0  0  0  0  0  0  0  0  0
   62.3739   33.0262   51.7479 H   0  0  0  0  0  0  0  0  0  0  0  0
   65.0260   34.1547   49.7659 H   0  0  0  0  0  0  0  0  0  0  0  0
   65.7861   32.5279   49.5647 H   0  0  0  0  0  0  0  0  0  0  0  0
   64.6268   33.4218   47.4896 H   0  0  0  0  0  0  0  0  0  0  0  0
   64.0425   31.8142   48.0598 H   0  0  0  0  0  0  0  0  0  0  0  0
  1  2  2  0
  2  3  1  0
  3  4  1  0
  4  5  2  0
  5  6  1  0
  6  7  2  0
  7  8  1  0
  8  9  2  0
  8 10  1  0
 10 11  1  0
 11 12  1  0
 12 13  1  0
 13 14  2  0
 14 15  1  0
 15 16  2  0
 16 17  1  0
 17 18  2  0
 11 19  1  0
 19 20  2  0
 19 21  1  0
  2 22  1  0
 22 23  1  0
 23 24  1  0
 24 25  1  0
 25 26  1  0
 26 27  1  0
  9  4  1  0
 18 13  1  0
 27 22  1  0
 21  7  1  0
  5 28  1  0
  6 29  1  0
  9 30  1  0
 10 31  1  0
 10 32  1  0
 12 33  1  0
 12 34  1  0
 14 35  1  0
 15 36  1  0
 16 37  1  0
 17 38  1  0
 18 39  1  0
 23 40  1  0
 23 41  1  0
 24 42  1  0
 24 43  1  0
 26 44  1  0
 26 45  1  0
 27 46  1  0
 27 47  1  0
M  END
>  <UniqueID>  (60) 
56

>  <SMILES>  (60) 
O=C(Oc1ccc2c(c1)CN(Cc1ccccc1)C(=O)O2)N1CCOCC1

>  <Energy>  (60) 
55.57813414675589

>  <Genealogy>  (60) 
O=C(Oc1ccc2c(c1)CN(Cc1ccccc1)C(=O)O2)N1CCOCC1 (3D coordinates assigned)
O=C(Oc1ccc2c(c1)CN(Cc1ccccc1)C(=O)O2)N1CCOCC1 (nonaromatic ring conformer: 55.57813414675589 kcal/mol)

>  <smiles>  (60) 
O=C(Oc1ccc2c(c1)CN(Cc1ccccc1)C(=O)O2)N1CCOCC1

>  <score_type>  (60) 
oracle

>  <origin>  (60) 
adg

>  <m_score__min__energy>  (60) 
-8.5099999999999998

>  <m_primary>  (60) 
energy

$$$$
60:0
     RDKit          3D

 48 51  0  0  0  0  0  0  0  0999 V2000
   57.0180   20.4370   43.3670 H   0  0  0  0  0  0  0  0  0  0  0  0
   56.3210   21.1430   43.1630 O   0  0  0  0  0  0  0  0  0  0  0  0
   56.2960   22.3590   43.8420 C   0  0  0  0  0  0  0  0  0  0  0  0
   55.5390   22.4830   45.0120 C   0  0  0  0  0  0  0  0  0  0  0  0
   54.9668   21.6221   45.3882 H   0  0  0  0  0  0  0  0  0  0  0  0
   55.5070   23.6970   45.7050 C   0  0  0  0  0  0  0  0  0  0  0  0
   54.8930   23.7937   46.6126 H   0  0  0  0  0  0  0  0  0  0  0  0
   56.2540   24.7910   45.2480 C   0  0  0  0  0  0  0  0  0  0  0  0
   56.1660   26.0400   45.9490 N   0  0  0  0  0  0  0  0  0  0  0  0
   56.7230   27.1900   45.6690 C   0  0  0  0  0  0  0  0  0  0  0  0
   55.9060   28.1840   45.2500 N   0  0  0  0  0  0  0  0  0  0  0  0
   56.4010   29.3450   44.7650 C   0  0  0  0  0  0  0  0  0  0  0  0
   55.5970   30.2500   44.4170 O   0  0  0  0  0  0  0  0  0  0  0  0
   57.7520   29.5100   44.6340 N   0  0  0  0  0  0  0  0  0  0  0  0
   58.3240   30.7760   44.1310 C   0  0  0  0  0  0  0  0  0  0  0  0
   57.8570   31.0265   43.1671 H   0  0  0  0  0  0  0  0  0  0  0  0
   59.4096   30.6506   44.0053 H   0  0  0  0  0  0  0  0  0  0  0  0
   58.0730   31.8930   45.1080 C   0  0  0  0  0  0  0  0  0  0  0  0
   57.0930   32.8030   44.9590 N   0  0  0  0  0  0  0  0  0  0  0  0
   57.2820   33.6590   45.9850 C   0  0  0  0  0  0  0  0  0  0  0  0
   56.6382   34.5325   46.1654 H   0  0  0  0  0  0  0  0  0  0  0  0
   58.3340   33.3440   46.7690 N   0  0  0  0  0  0  0  0  0  0  0  0
   58.8260   32.2230   46.2150 C   0  0  0  0  0  0  0  0  0  0  0  0
   60.0640   31.5390   46.6970 C   0  0  0  0  0  0  0  0  0  0  0  0
   60.0750   31.5329   47.7969 H   0  0  0  0  0  0  0  0  0  0  0  0
   60.0798   30.5041   46.3244 H   0  0  0  0  0  0  0  0  0  0  0  0
   60.9485   32.0764   46.3244 H   0  0  0  0  0  0  0  0  0  0  0  0
   58.5830   28.5060   45.0550 C   0  0  0  0  0  0  0  0  0  0  0  0
   59.8310   28.6090   44.8780 O   0  0  0  0  0  0  0  0  0  0  0  0
   58.0810   27.4160   45.7230 N   0  0  0  0  0  0  0  0  0  0  0  0
   58.9730   26.7150   46.6820 C   0  0  0  0  0  0  0  0  0  0  0  0
   58.4544   25.8265   47.0714 H   0  0  0  0  0  0  0  0  0  0  0  0
   59.8939   26.4250   46.1548 H   0  0  0  0  0  0  0  0  0  0  0  0
   59.3450   27.6170   47.8390 C   0  0  0  0  0  0  0  0  0  0  0  0
   60.4320   27.2870   48.6670 C   0  0  0  0  0  0  0  0  0  0  0  0
   61.0446   26.4022   48.4395 H   0  0  0  0  0  0  0  0  0  0  0  0
   60.7380   28.0780   49.7780 C   0  0  0  0  0  0  0  0  0  0  0  0
   61.5835   27.8085   50.4281 H   0  0  0  0  0  0  0  0  0  0  0  0
   59.9710   29.2110   50.0640 C   0  0  0  0  0  0  0  0  0  0  0  0
   60.3460   30.1920   51.4680 Cl  0  0  0  0  0  0  0  0  0  0  0  0
   58.9010   29.5570   49.2340 C   0  0  0  0  0  0  0  0  0  0  0  0
   58.3013   30.4520   49.4560 H   0  0  0  0  0  0  0  0  0  0  0  0
   58.5910   28.7670   48.1210 C   0  0  0  0  0  0  0  0  0  0  0  0
   57.7539   29.0482   47.4652 H   0  0  0  0  0  0  0  0  0  0  0  0
   56.9850   24.6760   44.0530 C   0  0  0  0  0  0  0  0  0  0  0  0
   57.5331   25.5450   43.6600 H   0  0  0  0  0  0  0  0  0  0  0  0
   57.0180   23.4610   43.3620 C   0  0  0  0  0  0  0  0  0  0  0  0
   57.6113   23.3695   42.4403 H   0  0  0  0  0  0  0  0  0  0  0  0
  1  2  1  0
  2  3  1  0
  3  4  2  0
  4  5  1  0
  4  6  1  0
  6  7  1  0
  6  8  2  0
  8  9  1  0
  9 10  2  0
 10 11  1  0
 11 12  1  0
 12 13  2  0
 12 14  1  0
 14 15  1  0
 15 16  1  0
 15 17  1  0
 15 18  1  0
 18 19  1  0
 19 20  2  0
 20 21  1  0
 20 22  1  0
 22 23  1  0
 23 24  1  0
 24 25  1  0
 24 26  1  0
 24 27  1  0
 14 28  1  0
 28 29  2  0
 28 30  1  0
 30 31  1  0
 31 32  1  0
 31 33  1  0
 31 34  1  0
 34 35  2  0
 35 36  1  0
 35 37  1  0
 37 38  1  0
 37 39  2  0
 39 40  1  0
 39 41  1  0
 41 42  1  0
 41 43  2  0
 43 44  1  0
  8 45  1  0
 45 46  1  0
 45 47  2  0
 47 48  1  0
 47  3  1  0
 30 10  1  0
 43 34  1  0
 23 18  2  0
M  CHG  2  11  -1  22  -1
M  END
>  <UniqueID>  (61) 
57

>  <SMILES>  (61) 
Cc1[n-]cnc1Cn1c(=O)[n-]/c(=N/c2ccc(O)cc2)n(Cc2ccc(Cl)cc2)c1=O

>  <Energy>  (61) 
104.64167497136111

>  <Genealogy>  (61) 
Cc1[n-]cnc1Cn1c(=O)[n-]c(=Nc2ccc(O)cc2)n(Cc2ccc(Cl)cc2)c1=O (protonated)
Cc1[n-]cnc1Cn1c(=O)[n-]/c(=N/c2ccc(O)cc2)n(Cc2ccc(Cl)cc2)c1=O (cis-trans isomerization)
Cc1[n-]cnc1Cn1c(=O)[n-]/c(=N/c2ccc(O)cc2)n(Cc2ccc(Cl)cc2)c1=O (3D coordinates assigned)
Cc1[n-]cnc1Cn1c(=O)[n-]/c(=N/c2ccc(O)cc2)n(Cc2ccc(Cl)cc2)c1=O (optimized conformer: 104.64167497136111 kcal/mol)

>  <smiles>  (61) 
Cc1[nH]cnc1Cn1c(=O)[nH]c(=Nc2ccc(O)cc2)n(Cc2ccc(Cl)cc2)c1=O

>  <score_type>  (61) 
oracle

>  <origin>  (61) 
adg

>  <m_score__min__energy>  (61) 
-10.949999999999999

>  <m_primary>  (61) 
energy

$$$$
61:0
     RDKit          3D

 41 43  0  0  0  0  0  0  0  0999 V2000
   65.3040   33.0410   48.2120 H   0  0  0  0  0  0  0  0  0  0  0  0
   64.6070   33.1320   48.9860 N   0  0  0  0  0  0  0  0  0  0  0  0
   63.0810   33.4750   48.2510 S   0  0  0  0  0  0  0  0  0  0  0  0
   63.3030   34.0150   46.8660 O   0  0  0  0  0  0  0  0  0  0  0  0
   62.3540   34.5120   49.0620 O   0  0  0  0  0  0  0  0  0  0  0  0
   62.1220   32.0000   48.1720 C   0  0  0  0  0  0  0  0  0  0  0  0
   61.5750   31.4510   49.3370 C   0  0  0  0  0  0  0  0  0  0  0  0
   61.7501   31.9390   50.3071 H   0  0  0  0  0  0  0  0  0  0  0  0
   60.8070   30.2850   49.2730 C   0  0  0  0  0  0  0  0  0  0  0  0
   60.3868   29.8571   50.1951 H   0  0  0  0  0  0  0  0  0  0  0  0
   60.5670   29.6540   48.0380 C   0  0  0  0  0  0  0  0  0  0  0  0
   59.7510   28.4170   47.9690 C   0  0  0  0  0  0  0  0  0  0  0  0
   59.3980   27.8410   49.0360 O   0  0  0  0  0  0  0  0  0  0  0  0
   59.3620   27.8850   46.6910 N   0  0  0  0  0  0  0  0  0  0  0  0
   58.5090   28.4150   45.8670 C   0  0  0  0  0  0  0  0  0  0  0  0
   57.1650   28.3020   45.9810 N   0  0  0  0  0  0  0  0  0  0  0  0
   56.5300   28.9600   44.9750 C   0  0  0  0  0  0  0  0  0  0  0  0
   55.1450   28.9970   44.8900 O   0  0  0  0  0  0  0  0  0  0  0  0
   57.3650   29.5880   44.0550 C   0  0  0  0  0  0  0  0  0  0  0  0
   56.9340   30.4370   42.9010 C   0  0  0  0  0  0  0  0  0  0  0  0
   57.3761   30.0439   41.9736 H   0  0  0  0  0  0  0  0  0  0  0  0
   55.8367   30.4176   42.8266 H   0  0  0  0  0  0  0  0  0  0  0  0
   57.3890   31.8460   43.1090 C   0  0  0  0  0  0  0  0  0  0  0  0
   58.0010   32.4410   42.1810 O   0  0  0  0  0  0  0  0  0  0  0  0
   57.0780   32.5090   44.3460 N   0  0  0  0  0  0  0  0  0  0  0  0
   57.9110   33.1220   45.1370 C   0  0  0  0  0  0  0  0  0  0  0  0
   58.4260   34.3430   44.8110 N   0  0  0  0  0  0  0  0  0  0  0  0
   59.2900   35.0040   45.6260 C   0  0  0  0  0  0  0  0  0  0  0  0
   59.6823   35.9879   45.3293 H   0  0  0  0  0  0  0  0  0  0  0  0
   59.6790   34.4350   46.8380 C   0  0  0  0  0  0  0  0  0  0  0  0
   60.3776   34.9652   47.5020 H   0  0  0  0  0  0  0  0  0  0  0  0
   59.1730   33.1860   47.2000 C   0  0  0  0  0  0  0  0  0  0  0  0
   59.4759   32.7240   48.1512 H   0  0  0  0  0  0  0  0  0  0  0  0
   58.2790   32.5210   46.3510 C   0  0  0  0  0  0  0  0  0  0  0  0
   57.7620   31.2750   46.7060 O   0  0  0  0  0  0  0  0  0  0  0  0
   57.0240   30.8370   46.1700 H   0  0  0  0  0  0  0  0  0  0  0  0
   58.9610   29.3300   44.5300 S   0  0  0  0  0  0  0  0  0  0  0  0
   61.1160   30.2150   46.8700 C   0  0  0  0  0  0  0  0  0  0  0  0
   60.9415   29.7317   45.8974 H   0  0  0  0  0  0  0  0  0  0  0  0
   61.8820   31.3830   46.9380 C   0  0  0  0  0  0  0  0  0  0  0  0
   62.2980   31.8192   46.0178 H   0  0  0  0  0  0  0  0  0  0  0  0
  1  2  1  0
  2  3  1  0
  3  4  2  0
  3  5  2  0
  3  6  1  0
  6  7  2  0
  7  8  1  0
  7  9  1  0
  9 10  1  0
  9 11  2  0
 11 12  1  0
 12 13  2  0
 12 14  1  0
 14 15  2  3
 15 16  1  0
 16 17  1  0
 17 18  1  0
 17 19  2  0
 19 20  1  0
 20 21  1  0
 20 22  1  0
 20 23  1  0
 23 24  2  0
 23 25  1  0
 25 26  2  0
 26 27  1  0
 27 28  1  0
 28 29  1  0
 28 30  2  0
 30 31  1  0
 30 32  1  0
 32 33  1  0
 32 34  2  0
 34 35  1  0
 35 36  1  0
 19 37  1  0
 11 38  1  0
 38 39  1  0
 38 40  2  0
 40 41  1  0
 40  6  1  0
 37 15  1  0
 34 26  1  0
M  CHG  4   2  -1  16  -1  18  -1  27  -1
M  END
>  <UniqueID>  (62) 
58

>  <SMILES>  (62) 
[NH-]S(=O)(=O)c1ccc(C(=O)N=c2[n-]c([O-])c(CC(=O)/N=c3\[n-]cccc3O)s2)cc1

>  <Energy>  (62) 
77.67352362833181

>  <Genealogy>  (62) 
[NH-]S(=O)(=O)c1ccc(C(=O)N=c2[n-]c([O-])c(CC(=O)N=c3[n-]cccc3O)s2)cc1 (protonated)
[NH-]S(=O)(=O)c1ccc(C(=O)N=c2[n-]c([O-])c(CC(=O)/N=c3\[n-]cccc3O)s2)cc1 (cis-trans isomerization)
[NH-]S(=O)(=O)c1ccc(C(=O)N=c2[n-]c([O-])c(CC(=O)/N=c3\[n-]cccc3O)s2)cc1 (3D coordinates assigned)
[NH-]S(=O)(=O)c1ccc(C(=O)N=c2[n-]c([O-])c(CC(=O)/N=c3\[n-]cccc3O)s2)cc1 (optimized conformer: 77.67352362833181 kcal/mol)

>  <smiles>  (62) 
NS(=O)(=O)c1ccc(C(=O)N=c2[nH]c(O)c(CC(=O)N=c3[nH]cccc3O)s2)cc1

>  <score_type>  (62) 
oracle

>  <origin>  (62) 
adg

>  <m_score__min__energy>  (62) 
-16.719999999999999

>  <m_primary>  (62) 
energy

$$$$
62:0
     RDKit          3D

 59 62  0  0  0  0  0  0  0  0999 V2000
   61.0656   29.6327   44.4716 H   0  0  0  0  0  0  0  0  0  0  0  0
   60.8100   29.2560   45.4730 C   0  0  0  0  0  0  0  0  0  0  0  0
   60.4680   27.9510   45.6410 N   0  0  0  0  0  0  0  0  0  0  0  0
   60.1370   27.4340   46.8570 C   0  0  0  0  0  0  0  0  0  0  0  0
   59.8370   26.1660   46.9250 N   0  0  0  0  0  0  0  0  0  0  0  0
   58.5350   25.5540   46.9180 C   0  0  0  0  0  0  0  0  0  0  0  0
   57.8070   25.5900   47.9490 O   0  0  0  0  0  0  0  0  0  0  0  0
   58.0030   24.9770   45.6620 C   0  0  0  0  0  0  0  0  0  0  0  0
   57.6570   23.6140   45.6250 C   0  0  0  0  0  0  0  0  0  0  0  0
   57.7616   23.0010   46.5324 H   0  0  0  0  0  0  0  0  0  0  0  0
   57.1820   23.0310   44.4480 C   0  0  0  0  0  0  0  0  0  0  0  0
   56.9219   21.9623   44.4308 H   0  0  0  0  0  0  0  0  0  0  0  0
   57.0370   23.8010   43.2950 C   0  0  0  0  0  0  0  0  0  0  0  0
   56.6671   23.3384   42.3681 H   0  0  0  0  0  0  0  0  0  0  0  0
   57.3610   25.1590   43.3160 C   0  0  0  0  0  0  0  0  0  0  0  0
   57.2334   25.7641   42.4063 H   0  0  0  0  0  0  0  0  0  0  0  0
   57.8490   25.7600   44.4900 C   0  0  0  0  0  0  0  0  0  0  0  0
   58.0740   27.1800   44.5240 N   0  0  0  0  0  0  0  0  0  0  0  0
   58.9690   27.5340   44.1200 H   0  0  0  0  0  0  0  0  0  0  0  0
   57.1150   28.1210   45.0380 C   0  0  0  0  0  0  0  0  0  0  0  0
   56.0580   27.7080   45.5910 O   0  0  0  0  0  0  0  0  0  0  0  0
   57.3460   29.5790   44.9200 C   0  0  0  0  0  0  0  0  0  0  0  0
   57.7860   30.3340   46.0210 C   0  0  0  0  0  0  0  0  0  0  0  0
   57.9591   29.8393   46.9881 H   0  0  0  0  0  0  0  0  0  0  0  0
   58.0050   31.7080   45.8960 C   0  0  0  0  0  0  0  0  0  0  0  0
   58.3659   32.2851   46.7601 H   0  0  0  0  0  0  0  0  0  0  0  0
   57.7670   32.3570   44.6730 C   0  0  0  0  0  0  0  0  0  0  0  0
   57.9850   33.7660   44.5110 N   0  0  0  0  0  0  0  0  0  0  0  0
   59.0140   34.5440   45.1370 C   0  0  0  0  0  0  0  0  0  0  0  0
   59.4140   35.5890   44.5590 O   0  0  0  0  0  0  0  0  0  0  0  0
   59.5780   34.1860   46.4600 C   0  0  0  0  0  0  0  0  0  0  0  0
   58.7650   34.1680   47.6010 C   0  0  0  0  0  0  0  0  0  0  0  0
   57.7005   34.4328   47.5189 H   0  0  0  0  0  0  0  0  0  0  0  0
   59.2990   33.8160   48.8400 C   0  0  0  0  0  0  0  0  0  0  0  0
   58.6533   33.8030   49.7305 H   0  0  0  0  0  0  0  0  0  0  0  0
   60.6490   33.4800   48.9560 C   0  0  0  0  0  0  0  0  0  0  0  0
   61.0562   33.1978   49.9381 H   0  0  0  0  0  0  0  0  0  0  0  0
   61.4980   33.4980   47.8280 C   0  0  0  0  0  0  0  0  0  0  0  0
   62.9030   33.1290   47.9450 N   0  0  0  0  0  0  0  0  0  0  0  0
   63.7690   33.0900   46.7590 C   0  0  0  0  0  0  0  0  0  0  0  0
   64.8216   33.0426   47.0750 H   0  0  0  0  0  0  0  0  0  0  0  0
   63.5265   32.2019   46.1570 H   0  0  0  0  0  0  0  0  0  0  0  0
   63.6073   33.9963   46.1570 H   0  0  0  0  0  0  0  0  0  0  0  0
   63.4790   32.7790   49.2500 C   0  0  0  0  0  0  0  0  0  0  0  0
   62.8353   33.1701   50.0517 H   0  0  0  0  0  0  0  0  0  0  0  0
   63.5501   31.6848   49.3378 H   0  0  0  0  0  0  0  0  0  0  0  0
   64.4829   33.2199   49.3378 H   0  0  0  0  0  0  0  0  0  0  0  0
   60.9420   33.8710   46.5820 C   0  0  0  0  0  0  0  0  0  0  0  0
   61.5885   33.9152   45.6932 H   0  0  0  0  0  0  0  0  0  0  0  0
   57.3650   31.6020   43.5670 C   0  0  0  0  0  0  0  0  0  0  0  0
   57.2128   32.0953   42.5957 H   0  0  0  0  0  0  0  0  0  0  0  0
   57.1550   30.2250   43.6860 C   0  0  0  0  0  0  0  0  0  0  0  0
   56.8381   29.6429   42.8081 H   0  0  0  0  0  0  0  0  0  0  0  0
   60.1750   28.2770   47.9900 C   0  0  0  0  0  0  0  0  0  0  0  0
   59.9343   27.8781   48.9865 H   0  0  0  0  0  0  0  0  0  0  0  0
   60.5210   29.6220   47.8340 C   0  0  0  0  0  0  0  0  0  0  0  0
   60.5440   30.2891   48.7083 H   0  0  0  0  0  0  0  0  0  0  0  0
   60.8370   30.1180   46.5700 C   0  0  0  0  0  0  0  0  0  0  0  0
   61.1046   31.1769   46.4389 H   0  0  0  0  0  0  0  0  0  0  0  0
  1  2  1  0
  2  3  1  0
  3  4  1  0
  4  5  2  0
  5  6  1  0
  6  7  2  0
  6  8  1  0
  8  9  2  0
  9 10  1  0
  9 11  1  0
 11 12  1  0
 11 13  2  0
 13 14  1  0
 13 15  1  0
 15 16  1  0
 15 17  2  0
 17 18  1  0
 18 19  1  0
 18 20  1  0
 20 21  2  0
 20 22  1  0
 22 23  2  0
 23 24  1  0
 23 25  1  0
 25 26  1  0
 25 27  2  0
 27 28  1  0
 28 29  1  0
 29 30  2  0
 29 31  1  0
 31 32  2  0
 32 33  1  0
 32 34  1  0
 34 35  1  0
 34 36  2  0
 36 37  1  0
 36 38  1  0
 38 39  1  0
 39 40  1  0
 40 41  1  0
 40 42  1  0
 40 43  1  0
 39 44  1  0
 44 45  1  0
 44 46  1  0
 44 47  1  0
 38 48  2  0
 48 49  1  0
 27 50  1  0
 50 51  1  0
 50 52  2  0
 52 53  1  0
  4 54  1  0
 54 55  1  0
 54 56  2  0
 56 57  1  0
 56 58  1  0
 58 59  1  0
 58  2  2  0
 17  8  1  0
 52 22  1  0
 48 31  1  0
M  CHG  2   3  -1  28  -1
M  END
>  <UniqueID>  (63) 
59

>  <SMILES>  (63) 
CN(C)c1cccc(C(=O)[N-]c2ccc(C(=O)Nc3ccccc3C(=O)/N=c3\cccc[n-]3)cc2)c1

>  <Energy>  (63) 
91.10185695157715

>  <Genealogy>  (63) 
CN(C)c1cccc(C(=O)[N-]c2ccc(C(=O)Nc3ccccc3C(=O)N=c3cccc[n-]3)cc2)c1 (protonated)
CN(C)c1cccc(C(=O)[N-]c2ccc(C(=O)Nc3ccccc3C(=O)/N=c3\cccc[n-]3)cc2)c1 (cis-trans isomerization)
CN(C)c1cccc(C(=O)[N-]c2ccc(C(=O)Nc3ccccc3C(=O)/N=c3\cccc[n-]3)cc2)c1 (3D coordinates assigned)
CN(C)c1cccc(C(=O)[N-]c2ccc(C(=O)Nc3ccccc3C(=O)/N=c3\cccc[n-]3)cc2)c1 (optimized conformer: 91.10185695157715 kcal/mol)

>  <smiles>  (63) 
CN(C)c1cccc(C(=O)Nc2ccc(C(=O)Nc3ccccc3C(=O)N=c3cccc[nH]3)cc2)c1

>  <score_type>  (63) 
oracle

>  <origin>  (63) 
adg

>  <m_score__min__energy>  (63) 
-12.42

>  <m_primary>  (63) 
energy

$$$$
63:0
     RDKit          3D

 50 53  0  0  0  0  0  0  0  0999 V2000
   56.2840   24.2540   44.5710 C   0  0  0  0  0  0  0  0  0  0  0  0
   55.3880   24.8820   45.9730 S   0  0  0  0  0  0  0  0  0  0  0  0
   53.9500   24.4620   45.8670 O   0  0  0  0  0  0  0  0  0  0  0  0
   55.9900   24.3260   47.2320 O   0  0  0  0  0  0  0  0  0  0  0  0
   55.4970   26.6100   45.9810 N   0  0  0  0  0  0  0  0  0  0  0  0
   56.6420   27.3720   45.5730 C   0  0  0  0  0  0  0  0  0  0  0  0
   57.9480   26.8620   45.6830 C   0  0  0  0  0  0  0  0  0  0  0  0
   59.0360   27.6240   45.2670 C   0  0  0  0  0  0  0  0  0  0  0  0
   58.8430   28.9020   44.7420 C   0  0  0  0  0  0  0  0  0  0  0  0
   57.5470   29.4380   44.6250 C   0  0  0  0  0  0  0  0  0  0  0  0
   57.3710   30.7970   44.0560 C   0  0  0  0  0  0  0  0  0  0  0  0
   57.5480   31.0000   42.8250 O   0  0  0  0  0  0  0  0  0  0  0  0
   57.0440   31.8920   44.9210 N   0  0  0  0  0  0  0  0  0  0  0  0
   57.9560   32.6410   45.7380 C   0  0  0  0  0  0  0  0  0  0  0  0
   58.1160   34.0300   45.5910 C   0  0  0  0  0  0  0  0  0  0  0  0
   58.9800   34.7330   46.4340 C   0  0  0  0  0  0  0  0  0  0  0  0
   59.6840   34.0620   47.4380 C   0  0  0  0  0  0  0  0  0  0  0  0
   60.5140   34.7540   48.2620 N   0  0  0  0  0  0  0  0  0  0  0  0
   61.2080   34.1430   49.2570 C   0  0  0  0  0  0  0  0  0  0  0  0
   61.0820   32.7690   49.4590 C   0  0  0  0  0  0  0  0  0  0  0  0
   60.2430   32.0210   48.6280 C   0  0  0  0  0  0  0  0  0  0  0  0
   60.1400   30.6040   48.8180 N   0  0  0  0  0  0  0  0  0  0  0  0
   59.4600   30.0970   50.0130 C   0  0  0  0  0  0  0  0  0  0  0  0
   59.9330   28.6700   50.3110 C   0  0  0  0  0  0  0  0  0  0  0  0
   59.8360   27.8550   49.1590 O   0  0  0  0  0  0  0  0  0  0  0  0
   60.7310   28.3220   48.1670 C   0  0  0  0  0  0  0  0  0  0  0  0
   60.3110   29.7090   47.6740 C   0  0  0  0  0  0  0  0  0  0  0  0
   59.5250   32.6690   47.6030 C   0  0  0  0  0  0  0  0  0  0  0  0
   58.6480   31.9700   46.7530 C   0  0  0  0  0  0  0  0  0  0  0  0
   56.4460   28.6580   45.0410 C   0  0  0  0  0  0  0  0  0  0  0  0
   55.1480   29.1420   44.9150 O   0  0  0  0  0  0  0  0  0  0  0  0
   57.1382   23.6553   44.9200 H   0  0  0  0  0  0  0  0  0  0  0  0
   55.6185   23.6237   43.9629 H   0  0  0  0  0  0  0  0  0  0  0  0
   56.6495   25.0946   43.9629 H   0  0  0  0  0  0  0  0  0  0  0  0
   58.1103   25.8569   46.0994 H   0  0  0  0  0  0  0  0  0  0  0  0
   60.0540   27.2161   45.3527 H   0  0  0  0  0  0  0  0  0  0  0  0
   59.7104   29.4953   44.4170 H   0  0  0  0  0  0  0  0  0  0  0  0
   57.5583   34.5656   44.8086 H   0  0  0  0  0  0  0  0  0  0  0  0
   59.1068   35.8183   46.3073 H   0  0  0  0  0  0  0  0  0  0  0  0
   61.8715   34.7339   49.9055 H   0  0  0  0  0  0  0  0  0  0  0  0
   61.6403   32.2760   50.2685 H   0  0  0  0  0  0  0  0  0  0  0  0
   59.6940   30.7460   50.8697 H   0  0  0  0  0  0  0  0  0  0  0  0
   58.3739   30.0916   49.8390 H   0  0  0  0  0  0  0  0  0  0  0  0
   60.9811   28.7001   50.6436 H   0  0  0  0  0  0  0  0  0  0  0  0
   59.2923   28.2445   51.0974 H   0  0  0  0  0  0  0  0  0  0  0  0
   61.7438   28.3806   48.5923 H   0  0  0  0  0  0  0  0  0  0  0  0
   60.7155   27.6234   47.3175 H   0  0  0  0  0  0  0  0  0  0  0  0
   61.0877   30.1114   47.0070 H   0  0  0  0  0  0  0  0  0  0  0  0
   59.3605   29.6301   47.1259 H   0  0  0  0  0  0  0  0  0  0  0  0
   58.5051   30.8876   46.8873 H   0  0  0  0  0  0  0  0  0  0  0  0
  1  2  1  0
  2  3  2  0
  2  4  2  0
  2  5  1  0
  5  6  1  0
  6  7  2  0
  7  8  1  0
  8  9  2  0
  9 10  1  0
 10 11  1  0
 11 12  2  0
 11 13  1  0
 13 14  1  0
 14 15  2  0
 15 16  1  0
 16 17  2  0
 17 18  1  0
 18 19  2  0
 19 20  1  0
 20 21  2  0
 21 22  1  0
 22 23  1  0
 23 24  1  0
 24 25  1  0
 25 26  1  0
 26 27  1  0
 21 28  1  0
 28 29  2  0
 10 30  2  0
 30 31  1  0
 30  6  1  0
 29 14  1  0
 28 17  1  0
 27 22  1  0
  1 32  1  0
  1 33  1  0
  1 34  1  0
  7 35  1  0
  8 36  1  0
  9 37  1  0
 15 38  1  0
 16 39  1  0
 19 40  1  0
 20 41  1  0
 23 42  1  0
 23 43  1  0
 24 44  1  0
 24 45  1  0
 26 46  1  0
 26 47  1  0
 27 48  1  0
 27 49  1  0
 29 50  1  0
M  CHG  3   5  -1  13  -1  31  -1
M  END
>  <UniqueID>  (64) 
60

>  <SMILES>  (64) 
CS(=O)(=O)[N-]c1cccc(C(=O)[N-]c2ccc3nccc(N4CCOCC4)c3c2)c1[O-]

>  <Energy>  (64) 
69.40613829085063

>  <Genealogy>  (64) 
CS(=O)(=O)[N-]c1cccc(C(=O)[N-]c2ccc3nccc(N4CCOCC4)c3c2)c1[O-] (protonated)
CS(=O)(=O)[N-]c1cccc(C(=O)[N-]c2ccc3nccc(N4CCOCC4)c3c2)c1[O-] (3D coordinates assigned)
CS(=O)(=O)[N-]c1cccc(C(=O)[N-]c2ccc3nccc(N4CCOCC4)c3c2)c1[O-] (nonaromatic ring conformer: 69.40613829085063 kcal/mol)

>  <smiles>  (64) 
CS(=O)(=O)Nc1cccc(C(=O)Nc2ccc3nccc(N4CCOCC4)c3c2)c1O

>  <score_type>  (64) 
oracle

>  <origin>  (64) 
adg

>  <m_score__min__energy>  (64) 
-16.859999999999999

>  <m_primary>  (64) 
energy

$$$$
64:0
     RDKit          3D

 44 46  0  0  0  0  0  0  0  0999 V2000
   54.7530   24.4790   44.9360 H   0  0  0  0  0  0  0  0  0  0  0  0
   55.7160   24.2010   45.0910 O   0  0  0  0  0  0  0  0  0  0  0  0
   56.6500   25.0730   45.6480 C   0  0  0  0  0  0  0  0  0  0  0  0
   57.9950   24.6990   45.7630 C   0  0  0  0  0  0  0  0  0  0  0  0
   58.3190   23.7059   45.4184 H   0  0  0  0  0  0  0  0  0  0  0  0
   58.9270   25.5830   46.3140 C   0  0  0  0  0  0  0  0  0  0  0  0
   59.9790   25.2775   46.4137 H   0  0  0  0  0  0  0  0  0  0  0  0
   58.5260   26.8600   46.7410 C   0  0  0  0  0  0  0  0  0  0  0  0
   59.4820   27.7970   47.3650 C   0  0  0  0  0  0  0  0  0  0  0  0
   60.2204   28.2783   46.7069 H   0  0  0  0  0  0  0  0  0  0  0  0
   59.5230   28.1090   48.6700 C   0  0  0  0  0  0  0  0  0  0  0  0
   59.8387   27.3201   49.3686 H   0  0  0  0  0  0  0  0  0  0  0  0
   59.1780   29.4280   49.2450 C   0  0  0  0  0  0  0  0  0  0  0  0
   58.1480   29.5610   49.9560 O   0  0  0  0  0  0  0  0  0  0  0  0
   60.0710   30.5410   49.1190 N   0  0  0  0  0  0  0  0  0  0  0  0
   59.7570   31.8220   48.5540 C   0  0  0  0  0  0  0  0  0  0  0  0
   60.2550   33.0150   49.1060 C   0  0  0  0  0  0  0  0  0  0  0  0
   60.8860   32.9815   50.0064 H   0  0  0  0  0  0  0  0  0  0  0  0
   59.9500   34.2450   48.5130 C   0  0  0  0  0  0  0  0  0  0  0  0
   60.3299   35.1774   48.9561 H   0  0  0  0  0  0  0  0  0  0  0  0
   59.1630   34.2910   47.3580 C   0  0  0  0  0  0  0  0  0  0  0  0
   58.9219   35.2598   46.8961 H   0  0  0  0  0  0  0  0  0  0  0  0
   58.6810   33.1050   46.7880 C   0  0  0  0  0  0  0  0  0  0  0  0
   57.6720   33.1390   45.3460 S   0  0  0  0  0  0  0  0  0  0  0  0
   56.6230   34.2120   45.4430 O   0  0  0  0  0  0  0  0  0  0  0  0
   58.5400   33.4220   44.1530 O   0  0  0  0  0  0  0  0  0  0  0  0
   56.9040   31.5990   45.1400 N   0  0  0  0  0  0  0  0  0  0  0  0
   57.5540   30.4040   44.6840 C   0  0  0  0  0  0  0  0  0  0  0  0
   58.9220   30.1610   44.9190 C   0  0  0  0  0  0  0  0  0  0  0  0
   59.5248   30.9030   45.4631 H   0  0  0  0  0  0  0  0  0  0  0  0
   59.5160   28.9800   44.4630 C   0  0  0  0  0  0  0  0  0  0  0  0
   60.5836   28.7940   44.6519 H   0  0  0  0  0  0  0  0  0  0  0  0
   58.7560   28.0360   43.7680 C   0  0  0  0  0  0  0  0  0  0  0  0
   59.2261   27.1089   43.4080 H   0  0  0  0  0  0  0  0  0  0  0  0
   57.3990   28.2690   43.5300 C   0  0  0  0  0  0  0  0  0  0  0  0
   56.8013   27.5240   42.9843 H   0  0  0  0  0  0  0  0  0  0  0  0
   56.7990   29.4490   43.9850 C   0  0  0  0  0  0  0  0  0  0  0  0
   55.4810   29.6660   43.7400 F   0  0  0  0  0  0  0  0  0  0  0  0
   58.9880   31.8730   47.3840 C   0  0  0  0  0  0  0  0  0  0  0  0
   58.6224   30.9403   46.9296 H   0  0  0  0  0  0  0  0  0  0  0  0
   57.1730   27.2180   46.6550 C   0  0  0  0  0  0  0  0  0  0  0  0
   56.8423   28.1994   47.0259 H   0  0  0  0  0  0  0  0  0  0  0  0
   56.2410   26.3340   46.1000 C   0  0  0  0  0  0  0  0  0  0  0  0
   54.9060   26.7100   46.0010 O   0  0  0  0  0  0  0  0  0  0  0  0
  1  2  1  0
  2  3  1  0
  3  4  2  0
  4  5  1  0
  4  6  1  0
  6  7  1  0
  6  8  2  0
  8  9  1  0
  9 10  1  0
  9 11  2  0
 11 12  1  0
 11 13  1  0
 13 14  2  0
 13 15  1  0
 15 16  1  0
 16 17  2  0
 17 18  1  0
 17 19  1  0
 19 20  1  0
 19 21  2  0
 21 22  1  0
 21 23  1  0
 23 24  1  0
 24 25  2  0
 24 26  2  0
 24 27  1  0
 27 28  1  0
 28 29  2  0
 29 30  1  0
 29 31  1  0
 31 32  1  0
 31 33  2  0
 33 34  1  0
 33 35  1  0
 35 36  1  0
 35 37  2  0
 37 38  1  0
 23 39  2  0
 39 40  1  0
  8 41  1  0
 41 42  1  0
 41 43  2  0
 43 44  1  0
 43  3  1  0
 39 16  1  0
 37 28  1  0
M  CHG  3  15  -1  27  -1  44  -1
M  END
>  <UniqueID>  (65) 
61

>  <SMILES>  (65) 
O=C(/C=C\c1ccc(O)c([O-])c1)[N-]c1cccc(S(=O)(=O)[N-]c2ccccc2F)c1

>  <Energy>  (65) 
61.84660084366016

>  <Genealogy>  (65) 
O=C(C=Cc1ccc(O)c([O-])c1)[N-]c1cccc(S(=O)(=O)[N-]c2ccccc2F)c1 (protonated)
O=C(/C=C\c1ccc(O)c([O-])c1)[N-]c1cccc(S(=O)(=O)[N-]c2ccccc2F)c1 (cis-trans isomerization)
O=C(/C=C\c1ccc(O)c([O-])c1)[N-]c1cccc(S(=O)(=O)[N-]c2ccccc2F)c1 (3D coordinates assigned)
O=C(/C=C\c1ccc(O)c([O-])c1)[N-]c1cccc(S(=O)(=O)[N-]c2ccccc2F)c1 (optimized conformer: 61.84660084366016 kcal/mol)

>  <smiles>  (65) 
O=C(C=Cc1ccc(O)c(O)c1)Nc1cccc(S(=O)(=O)Nc2ccccc2F)c1

>  <score_type>  (65) 
oracle

>  <origin>  (65) 
adg

>  <m_score__min__energy>  (65) 
-15.710000000000001

>  <m_primary>  (65) 
energy

$$$$
65:0
     RDKit          3D

 43 46  0  0  0  0  0  0  0  0999 V2000
   57.7670   26.5580   47.0360 O   0  0  0  0  0  0  0  0  0  0  0  0
   56.6660   26.2140   46.5260 C   0  0  0  0  0  0  0  0  0  0  0  0
   56.2070   24.8680   46.7260 N   0  0  0  0  0  0  0  0  0  0  0  0
   55.1000   24.3580   46.2740 C   0  0  0  0  0  0  0  0  0  0  0  0
   54.1600   25.1140   45.6750 N   0  0  0  0  0  0  0  0  0  0  0  0
   53.1810   24.2370   45.3890 C   0  0  0  0  0  0  0  0  0  0  0  0
   53.5510   22.9860   45.8250 C   0  0  0  0  0  0  0  0  0  0  0  0
   54.7670   23.0540   46.3930 N   0  0  0  0  0  0  0  0  0  0  0  0
   55.8580   27.1860   45.8430 N   0  0  0  0  0  0  0  0  0  0  0  0
   56.3780   28.3790   45.2370 C   0  0  0  0  0  0  0  0  0  0  0  0
   57.7530   28.5520   45.0120 C   0  0  0  0  0  0  0  0  0  0  0  0
   58.2120   29.7200   44.3980 C   0  0  0  0  0  0  0  0  0  0  0  0
   59.4480   29.8750   44.2050 O   0  0  0  0  0  0  0  0  0  0  0  0
   57.2960   30.7140   44.0070 C   0  0  0  0  0  0  0  0  0  0  0  0
   57.7500   31.9520   43.3400 C   0  0  0  0  0  0  0  0  0  0  0  0
   57.8540   31.9700   42.0850 O   0  0  0  0  0  0  0  0  0  0  0  0
   58.1050   33.1280   44.0780 N   0  0  0  0  0  0  0  0  0  0  0  0
   57.3340   33.6730   45.1940 C   0  0  0  0  0  0  0  0  0  0  0  0
   58.2400   33.9490   46.4050 C   0  0  2  0  0  0  0  0  0  0  0  0
   59.3670   34.9790   46.0980 C   0  0  0  0  0  0  0  0  0  0  0  0
   60.5960   34.2870   46.3210 O   0  0  0  0  0  0  0  0  0  0  0  0
   60.3510   32.9980   46.7440 C   0  0  0  0  0  0  0  0  0  0  0  0
   61.3050   32.0370   47.0740 C   0  0  0  0  0  0  0  0  0  0  0  0
   60.8560   30.7750   47.4980 C   0  0  0  0  0  0  0  0  0  0  0  0
   59.4750   30.5050   47.5830 C   0  0  0  0  0  0  0  0  0  0  0  0
   58.5390   31.4950   47.2430 C   0  0  0  0  0  0  0  0  0  0  0  0
   59.0120   32.7390   46.8170 C   0  0  0  0  0  0  0  0  0  0  0  0
   55.9290   30.4840   44.2180 C   0  0  0  0  0  0  0  0  0  0  0  0
   55.5090   29.3380   44.8160 N   0  0  0  0  0  0  0  0  0  0  0  0
   52.2339   24.4817   44.8858 H   0  0  0  0  0  0  0  0  0  0  0  0
   52.9461   22.0727   45.7245 H   0  0  0  0  0  0  0  0  0  0  0  0
   54.8200   27.0870   45.9010 H   0  0  0  0  0  0  0  0  0  0  0  0
   58.4655   27.7717   45.3177 H   0  0  0  0  0  0  0  0  0  0  0  0
   56.8590   34.6135   44.8780 H   0  0  0  0  0  0  0  0  0  0  0  0
   56.5714   32.9363   45.4868 H   0  0  0  0  0  0  0  0  0  0  0  0
   57.5356   34.3042   47.1716 H   0  0  0  0  0  0  0  0  0  0  0  0
   59.3022   35.3182   45.0536 H   0  0  0  0  0  0  0  0  0  0  0  0
   59.2837   35.8726   46.7340 H   0  0  0  0  0  0  0  0  0  0  0  0
   62.3798   32.2604   47.0044 H   0  0  0  0  0  0  0  0  0  0  0  0
   61.5845   29.9951   47.7645 H   0  0  0  0  0  0  0  0  0  0  0  0
   59.1295   29.5155   47.9168 H   0  0  0  0  0  0  0  0  0  0  0  0
   57.4592   31.2960   47.3104 H   0  0  0  0  0  0  0  0  0  0  0  0
   55.1922   31.2354   43.8977 H   0  0  0  0  0  0  0  0  0  0  0  0
  1  2  2  0
  2  3  1  0
  3  4  2  3
  4  5  1  0
  5  6  1  0
  6  7  2  0
  7  8  1  0
  2  9  1  0
  9 10  1  0
 10 11  2  0
 11 12  1  0
 12 13  2  0
 12 14  1  0
 14 15  1  0
 15 16  2  0
 15 17  1  0
 17 18  1  0
 18 19  1  0
 19 20  1  0
 20 21  1  0
 21 22  1  0
 22 23  2  0
 23 24  1  0
 24 25  2  0
 25 26  1  0
 26 27  2  0
 14 28  2  0
 28 29  1  0
  8  4  1  0
 29 10  1  0
 27 19  1  0
 27 22  1  0
  6 30  1  0
  7 31  1  0
  9 32  1  0
 11 33  1  0
 18 34  1  0
 18 35  1  0
 19 36  1  1
 20 37  1  0
 20 38  1  0
 23 39  1  0
 24 40  1  0
 25 41  1  0
 26 42  1  0
 28 43  1  0
M  CHG  4   5  -1   8  -1  17  -1  29  -1
M  END
>  <UniqueID>  (66) 
62

>  <SMILES>  (66) 
O=C(N=c1[n-]cc[n-]1)Nc1cc(=O)c(C(=O)[N-]C[C@@H]2COc3ccccc32)c[n-]1

>  <Energy>  (66) 
102.51981215871757

>  <Genealogy>  (66) 
O=C(N=c1[n-]cc[n-]1)Nc1cc(=O)c(C(=O)[N-]CC2COc3ccccc32)c[n-]1 (protonated)
O=C(N=c1[n-]cc[n-]1)Nc1cc(=O)c(C(=O)[N-]C[C@@H]2COc3ccccc32)c[n-]1 (chirality)
O=C(N=c1[n-]cc[n-]1)Nc1cc(=O)c(C(=O)[N-]C[C@@H]2COc3ccccc32)c[n-]1 (3D coordinates assigned)
O=C(N=c1[n-]cc[n-]1)Nc1cc(=O)c(C(=O)[N-]C[C@@H]2COc3ccccc32)c[n-]1 (nonaromatic ring conformer: 102.51981215871757 kcal/mol)

>  <smiles>  (66) 
O=C(N=c1[nH]cc[nH]1)Nc1cc(=O)c(C(=O)NCC2COc3ccccc32)c[nH]1

>  <score_type>  (66) 
oracle

>  <origin>  (66) 
adg

>  <m_score__min__energy>  (66) 
-14.789999999999999

>  <m_primary>  (66) 
energy

$$$$
66:0
     RDKit          3D

 34 36  0  0  0  0  0  0  0  0999 V2000
   63.1670   33.7960   48.6880 C   0  0  0  0  0  0  0  0  0  0  0  0
   62.4670   33.0490   47.2350 S   0  0  0  0  0  0  0  0  0  0  0  0
   62.8810   33.8410   46.0270 O   0  0  0  0  0  0  0  0  0  0  0  0
   62.9670   31.6360   47.1190 O   0  0  0  0  0  0  0  0  0  0  0  0
   60.7390   33.0520   47.3780 N   0  0  0  0  0  0  0  0  0  0  0  0
   59.8190   32.9150   46.2870 C   0  0  0  0  0  0  0  0  0  0  0  0
   59.8530   33.8670   45.2610 C   0  0  0  0  0  0  0  0  0  0  0  0
   58.9700   33.7750   44.1830 C   0  0  0  0  0  0  0  0  0  0  0  0
   58.0480   32.7290   44.1180 C   0  0  0  0  0  0  0  0  0  0  0  0
   58.0090   31.7550   45.1280 C   0  0  0  0  0  0  0  0  0  0  0  0
   57.0260   30.6500   45.0750 C   0  0  0  0  0  0  0  0  0  0  0  0
   55.8180   30.6840   44.3980 C   0  0  0  0  0  0  0  0  0  0  0  0
   55.1730   29.5050   44.4980 N   0  0  0  0  0  0  0  0  0  0  0  0
   55.9740   28.7220   45.2450 C   0  0  0  0  0  0  0  0  0  0  0  0
   55.6290   27.4260   45.6100 O   0  0  0  0  0  0  0  0  0  0  0  0
   57.1310   29.3780   45.6240 C   0  0  0  0  0  0  0  0  0  0  0  0
   58.1800   28.8720   46.5340 C   0  0  0  0  0  0  0  0  0  0  0  0
   59.0350   27.8310   46.1490 C   0  0  0  0  0  0  0  0  0  0  0  0
   60.0030   27.3930   47.0520 C   0  0  0  0  0  0  0  0  0  0  0  0
   60.1030   27.9720   48.2750 N   0  0  0  0  0  0  0  0  0  0  0  0
   59.2680   28.9810   48.6370 C   0  0  0  0  0  0  0  0  0  0  0  0
   58.3190   29.4210   47.7710 N   0  0  0  0  0  0  0  0  0  0  0  0
   58.8890   31.8610   46.2190 C   0  0  0  0  0  0  0  0  0  0  0  0
   62.7317   33.3315   49.5851 H   0  0  0  0  0  0  0  0  0  0  0  0
   64.2566   33.6453   48.6891 H   0  0  0  0  0  0  0  0  0  0  0  0
   62.9459   34.8735   48.6891 H   0  0  0  0  0  0  0  0  0  0  0  0
   60.5793   34.6920   45.3042 H   0  0  0  0  0  0  0  0  0  0  0  0
   59.0012   34.5291   43.3827 H   0  0  0  0  0  0  0  0  0  0  0  0
   57.3486   32.6677   43.2712 H   0  0  0  0  0  0  0  0  0  0  0  0
   55.4356   31.5583   43.8508 H   0  0  0  0  0  0  0  0  0  0  0  0
   58.9445   27.3688   45.1549 H   0  0  0  0  0  0  0  0  0  0  0  0
   60.6861   26.5774   46.7726 H   0  0  0  0  0  0  0  0  0  0  0  0
   59.3608   29.4415   49.6317 H   0  0  0  0  0  0  0  0  0  0  0  0
   58.8504   31.1143   47.0258 H   0  0  0  0  0  0  0  0  0  0  0  0
  1  2  1  0
  2  3  2  0
  2  4  2  0
  2  5  1  0
  5  6  1  0
  6  7  2  0
  7  8  1  0
  8  9  2  0
  9 10  1  0
 10 11  1  0
 11 12  2  0
 12 13  1  0
 13 14  1  0
 14 15  1  0
 14 16  2  0
 16 17  1  0
 17 18  2  0
 18 19  1  0
 19 20  2  0
 20 21  1  0
 21 22  2  0
 10 23  2  0
 23  6  1  0
 16 11  1  0
 22 17  1  0
  1 24  1  0
  1 25  1  0
  1 26  1  0
  7 27  1  0
  8 28  1  0
  9 29  1  0
 12 30  1  0
 18 31  1  0
 19 32  1  0
 21 33  1  0
 23 34  1  0
M  CHG  3   5  -1  13  -1  15  -1
M  END
>  <UniqueID>  (67) 
63

>  <SMILES>  (67) 
CS(=O)(=O)[N-]c1cccc(-c2c[n-]c([O-])c2-c2ccncn2)c1

>  <Energy>  (67) 
70.61119149258354

>  <Genealogy>  (67) 
CS(=O)(=O)[N-]c1cccc(-c2c[n-]c([O-])c2-c2ccncn2)c1 (protonated)
CS(=O)(=O)[N-]c1cccc(-c2c[n-]c([O-])c2-c2ccncn2)c1 (3D coordinates assigned)
CS(=O)(=O)[N-]c1cccc(-c2c[n-]c([O-])c2-c2ccncn2)c1 (optimized conformer: 70.61119149258354 kcal/mol)

>  <smiles>  (67) 
CS(=O)(=O)Nc1cccc(-c2c[nH]c(O)c2-c2ccncn2)c1

>  <score_type>  (67) 
oracle

>  <origin>  (67) 
adg

>  <m_score__min__energy>  (67) 
-12.630000000000001

>  <m_primary>  (67) 
energy

$$$$
67:0
     RDKit          3D

 21 22  0  0  0  0  0  0  0  0999 V2000
   57.7430   27.3710   44.0480 O   0  0  0  0  0  0  0  0  0  0  0  0
   57.3770   27.9400   45.1110 C   0  0  0  0  0  0  0  0  0  0  0  0
   57.8510   27.4150   46.4270 C   0  0  0  0  0  0  0  0  0  0  0  0
   57.2080   26.0940   46.7120 C   0  0  0  0  0  0  0  0  0  0  0  0
   57.8710   25.0110   47.1540 N   0  0  0  0  0  0  0  0  0  0  0  0
   56.9120   24.0590   47.2000 C   0  0  0  0  0  0  0  0  0  0  0  0
   57.1450   22.8820   47.5790 O   0  0  0  0  0  0  0  0  0  0  0  0
   55.6880   24.4670   46.8030 N   0  0  0  0  0  0  0  0  0  0  0  0
   55.8940   25.7560   46.4910 C   0  0  0  0  0  0  0  0  0  0  0  0
   54.9060   26.6080   46.0080 O   0  0  0  0  0  0  0  0  0  0  0  0
   56.5480   29.1130   45.0810 N   0  0  0  0  0  0  0  0  0  0  0  0
   56.8740   30.2670   44.5780 C   0  0  0  0  0  0  0  0  0  0  0  0
   57.1850   31.3600   45.3110 N   0  0  0  0  0  0  0  0  0  0  0  0
   57.4820   32.4210   44.5160 C   0  0  0  0  0  0  0  0  0  0  0  0
   57.4090   32.1760   43.1490 C   0  0  0  0  0  0  0  0  0  0  0  0
   56.9540   30.5690   42.9310 S   0  0  0  0  0  0  0  0  0  0  0  0
   58.9434   27.2896   46.3972 H   0  0  0  0  0  0  0  0  0  0  0  0
   57.5791   28.1277   47.2195 H   0  0  0  0  0  0  0  0  0  0  0  0
   55.1530   27.4840   45.5640 H   0  0  0  0  0  0  0  0  0  0  0  0
   57.7603   33.4037   44.9245 H   0  0  0  0  0  0  0  0  0  0  0  0
   57.6127   32.9041   42.3501 H   0  0  0  0  0  0  0  0  0  0  0  0
  1  2  2  0
  2  3  1  0
  3  4  1  0
  4  5  1  0
  5  6  1  0
  6  7  2  0
  6  8  1  0
  8  9  1  0
  9 10  1  0
  2 11  1  0
 11 12  2  3
 12 13  1  0
 13 14  1  0
 14 15  2  0
 15 16  1  0
  9  4  2  0
 16 12  1  0
  3 17  1  0
  3 18  1  0
 10 19  1  0
 14 20  1  0
 15 21  1  0
M  CHG  3   5  -1   8  -1  13  -1
M  END
>  <UniqueID>  (68) 
64

>  <SMILES>  (68) 
O=C(Cc1[n-]c(=O)[n-]c1O)N=c1[n-]ccs1

>  <Energy>  (68) 
79.3507879566118

>  <Genealogy>  (68) 
O=C(Cc1[n-]c(=O)[n-]c1O)N=c1[n-]ccs1 (protonated)
O=C(Cc1[n-]c(=O)[n-]c1O)N=c1[n-]ccs1 (3D coordinates assigned)
O=C(Cc1[n-]c(=O)[n-]c1O)N=c1[n-]ccs1 (optimized conformer: 79.3507879566118 kcal/mol)

>  <smiles>  (68) 
O=C(Cc1[nH]c(=O)[nH]c1O)N=c1[nH]ccs1

>  <score_type>  (68) 
oracle

>  <origin>  (68) 
adg

>  <m_score__min__energy>  (68) 
-11.81

>  <m_primary>  (68) 
energy

$$$$
68:0
     RDKit          3D

 44 46  0  0  0  0  0  0  0  0999 V2000
   62.2850   34.0000   49.0380 C   0  0  0  0  0  0  0  0  0  0  0  0
   61.1700   34.0290   48.0360 C   0  0  0  0  0  0  0  0  0  0  0  0
   61.4330   33.7910   46.6780 C   0  0  0  0  0  0  0  0  0  0  0  0
   60.4010   33.8520   45.7380 C   0  0  0  0  0  0  0  0  0  0  0  0
   59.0920   34.1550   46.1430 C   0  0  0  0  0  0  0  0  0  0  0  0
   57.9820   34.2290   45.1330 C   0  0  0  0  0  0  0  0  0  0  0  0
   56.9020   33.3150   45.5110 N   0  0  0  0  0  0  0  0  0  0  0  0
   57.1640   31.7600   44.7790 S   0  0  0  0  0  0  0  0  0  0  0  0
   57.8110   31.9410   43.4340 O   0  0  0  0  0  0  0  0  0  0  0  0
   55.8370   31.0820   44.5770 O   0  0  0  0  0  0  0  0  0  0  0  0
   58.1910   30.7460   45.7960 C   0  0  0  0  0  0  0  0  0  0  0  0
   58.4600   31.1110   47.1210 C   0  0  0  0  0  0  0  0  0  0  0  0
   59.2730   30.2990   47.9200 C   0  0  0  0  0  0  0  0  0  0  0  0
   59.8330   29.1310   47.3930 C   0  0  0  0  0  0  0  0  0  0  0  0
   59.6010   28.7770   46.0600 C   0  0  0  0  0  0  0  0  0  0  0  0
   60.1840   27.5740   45.5410 N   0  0  0  0  0  0  0  0  0  0  0  0
   59.9470   26.2610   46.0640 C   0  0  0  0  0  0  0  0  0  0  0  0
   60.9230   25.4770   46.2060 O   0  0  0  0  0  0  0  0  0  0  0  0
   58.5790   25.7980   46.3780 C   0  0  0  0  0  0  0  0  0  0  0  0
   57.4590   26.5560   46.0150 C   0  0  0  0  0  0  0  0  0  0  0  0
   56.1900   26.0730   46.3460 C   0  0  0  0  0  0  0  0  0  0  0  0
   55.1610   26.7220   46.0220 O   0  0  0  0  0  0  0  0  0  0  0  0
   56.0650   24.9010   47.0210 N   0  0  0  0  0  0  0  0  0  0  0  0
   57.1620   24.1830   47.3770 C   0  0  0  0  0  0  0  0  0  0  0  0
   57.0270   23.1010   48.0050 O   0  0  0  0  0  0  0  0  0  0  0  0
   58.4030   24.6290   47.0510 N   0  0  0  0  0  0  0  0  0  0  0  0
   58.7580   29.5770   45.2690 C   0  0  0  0  0  0  0  0  0  0  0  0
   58.8350   34.4250   47.4960 C   0  0  0  0  0  0  0  0  0  0  0  0
   59.8670   34.3640   48.4360 C   0  0  0  0  0  0  0  0  0  0  0  0
   61.8648   34.0109   50.0545 H   0  0  0  0  0  0  0  0  0  0  0  0
   62.8807   33.0861   48.8973 H   0  0  0  0  0  0  0  0  0  0  0  0
   62.9274   34.8817   48.8973 H   0  0  0  0  0  0  0  0  0  0  0  0
   62.4568   33.5552   46.3521 H   0  0  0  0  0  0  0  0  0  0  0  0
   60.6155   33.6617   44.6760 H   0  0  0  0  0  0  0  0  0  0  0  0
   57.5927   35.2571   45.0937 H   0  0  0  0  0  0  0  0  0  0  0  0
   58.3713   33.9406   44.1454 H   0  0  0  0  0  0  0  0  0  0  0  0
   56.9420   33.1740   46.5460 H   0  0  0  0  0  0  0  0  0  0  0  0
   58.0321   32.0364   47.5340 H   0  0  0  0  0  0  0  0  0  0  0  0
   59.4719   30.5801   48.9647 H   0  0  0  0  0  0  0  0  0  0  0  0
   60.4586   28.4880   48.0295 H   0  0  0  0  0  0  0  0  0  0  0  0
   57.5754   27.5106   45.4810 H   0  0  0  0  0  0  0  0  0  0  0  0
   58.5420   29.2842   44.2309 H   0  0  0  0  0  0  0  0  0  0  0  0
   57.8161   34.6859   47.8181 H   0  0  0  0  0  0  0  0  0  0  0  0
   59.6574   34.5795   49.4941 H   0  0  0  0  0  0  0  0  0  0  0  0
  1  2  1  0
  2  3  2  0
  3  4  1  0
  4  5  2  0
  5  6  1  0
  6  7  1  0
  7  8  1  0
  8  9  2  0
  8 10  2  0
  8 11  1  0
 11 12  2  0
 12 13  1  0
 13 14  2  0
 14 15  1  0
 15 16  1  0
 16 17  1  0
 17 18  2  0
 17 19  1  0
 19 20  2  0
 20 21  1  0
 21 22  2  0
 21 23  1  0
 23 24  1  0
 24 25  2  0
 24 26  1  0
 15 27  2  0
  5 28  1  0
 28 29  2  0
 29  2  1  0
 27 11  1  0
 26 19  1  0
  1 30  1  0
  1 31  1  0
  1 32  1  0
  3 33  1  0
  4 34  1  0
  6 35  1  0
  6 36  1  0
  7 37  1  0
 12 38  1  0
 13 39  1  0
 14 40  1  0
 20 41  1  0
 27 42  1  0
 28 43  1  0
 29 44  1  0
M  CHG  3  16  -1  23  -1  26  -1
M  END
>  <UniqueID>  (69) 
65

>  <SMILES>  (69) 
Cc1ccc(CNS(=O)(=O)c2cccc([N-]C(=O)c3cc(=O)[n-]c(=O)[n-]3)c2)cc1

>  <Energy>  (69) 
46.698331143307826

>  <Genealogy>  (69) 
Cc1ccc(CNS(=O)(=O)c2cccc([N-]C(=O)c3cc(=O)[n-]c(=O)[n-]3)c2)cc1 (protonated)
Cc1ccc(CNS(=O)(=O)c2cccc([N-]C(=O)c3cc(=O)[n-]c(=O)[n-]3)c2)cc1 (3D coordinates assigned)
Cc1ccc(CNS(=O)(=O)c2cccc([N-]C(=O)c3cc(=O)[n-]c(=O)[n-]3)c2)cc1 (optimized conformer: 46.698331143307826 kcal/mol)

>  <smiles>  (69) 
Cc1ccc(CNS(=O)(=O)c2cccc(NC(=O)c3cc(=O)[nH]c(=O)[nH]3)c2)cc1

>  <score_type>  (69) 
oracle

>  <origin>  (69) 
adg

>  <m_score__min__energy>  (69) 
-15.32

>  <m_primary>  (69) 
energy

$$$$
69:0
     RDKit          3D

 49 51  0  0  0  0  0  0  0  0999 V2000
   64.4320   32.3130   48.9330 C   0  0  0  0  0  0  0  0  0  0  0  0
   62.9750   32.4540   48.6020 C   0  0  0  0  0  0  0  0  0  0  0  0
   62.0060   31.8670   49.4210 C   0  0  0  0  0  0  0  0  0  0  0  0
   60.6510   32.0190   49.1280 C   0  0  0  0  0  0  0  0  0  0  0  0
   60.2320   32.7790   48.0240 C   0  0  0  0  0  0  0  0  0  0  0  0
   58.4880   32.9040   47.7010 S   0  0  0  0  0  0  0  0  0  0  0  0
   58.1300   34.3460   47.4780 O   0  0  0  0  0  0  0  0  0  0  0  0
   57.7200   32.4150   48.8980 O   0  0  0  0  0  0  0  0  0  0  0  0
   58.0390   31.9520   46.3050 N   0  0  1  0  0  0  0  0  0  0  0  0
   57.9870   32.8140   45.1140 C   0  0  0  0  0  0  0  0  0  0  0  0
   57.4230   32.0490   43.9170 C   0  0  0  0  0  0  0  0  0  0  0  0
   58.2030   30.7550   43.6300 C   0  0  0  0  0  0  0  0  0  0  0  0
   58.7220   29.9840   44.8770 C   0  0  2  0  0  0  0  0  0  0  0  0
   57.9280   28.7740   45.2290 N   0  0  0  0  0  0  0  0  0  0  0  0
   58.6160   27.6470   45.6020 C   0  0  0  0  0  0  0  0  0  0  0  0
   57.9480   26.4720   45.9680 C   0  0  0  0  0  0  0  0  0  0  0  0
   58.7150   25.2470   46.3850 C   0  0  0  0  0  0  0  0  0  0  0  0
   56.5510   26.4880   45.9760 C   0  0  0  0  0  0  0  0  0  0  0  0
   55.8950   25.4650   46.3110 O   0  0  0  0  0  0  0  0  0  0  0  0
   55.8930   27.6160   45.6240 N   0  0  0  0  0  0  0  0  0  0  0  0
   56.5520   28.7460   45.2590 C   0  0  0  0  0  0  0  0  0  0  0  0
   55.8720   29.7560   44.9530 O   0  0  0  0  0  0  0  0  0  0  0  0
   59.0180   30.8660   46.1170 C   0  0  0  0  0  0  0  0  0  0  0  0
   61.2100   33.4100   47.2090 C   0  0  0  0  0  0  0  0  0  0  0  0
   60.8590   34.2060   45.9800 C   0  0  0  0  0  0  0  0  0  0  0  0
   62.5730   33.2290   47.5080 C   0  0  0  0  0  0  0  0  0  0  0  0
   64.5603   32.3006   50.0254 H   0  0  0  0  0  0  0  0  0  0  0  0
   64.8153   31.3736   48.5081 H   0  0  0  0  0  0  0  0  0  0  0  0
   64.9883   33.1615   48.5081 H   0  0  0  0  0  0  0  0  0  0  0  0
   62.3137   31.2825   50.3006 H   0  0  0  0  0  0  0  0  0  0  0  0
   59.8998   31.5367   49.7708 H   0  0  0  0  0  0  0  0  0  0  0  0
   57.1000   31.5430   46.4950 H   0  0  0  0  0  0  0  0  0  0  0  0
   57.3437   33.6812   45.3238 H   0  0  0  0  0  0  0  0  0  0  0  0
   59.0078   33.1453   44.8726 H   0  0  0  0  0  0  0  0  0  0  0  0
   56.3741   31.7909   44.1247 H   0  0  0  0  0  0  0  0  0  0  0  0
   57.5101   32.6972   43.0325 H   0  0  0  0  0  0  0  0  0  0  0  0
   57.5409   30.0800   43.0679 H   0  0  0  0  0  0  0  0  0  0  0  0
   59.1016   31.0656   43.0768 H   0  0  0  0  0  0  0  0  0  0  0  0
   59.7021   29.6181   44.5370 H   0  0  0  0  0  0  0  0  0  0  0  0
   59.7158   27.6669   45.6138 H   0  0  0  0  0  0  0  0  0  0  0  0
   58.7494   25.1921   47.4831 H   0  0  0  0  0  0  0  0  0  0  0  0
   58.2170   24.3499   45.9884 H   0  0  0  0  0  0  0  0  0  0  0  0
   59.7395   25.3032   45.9884 H   0  0  0  0  0  0  0  0  0  0  0  0
   59.0064   30.2262   47.0117 H   0  0  0  0  0  0  0  0  0  0  0  0
   59.9998   31.3355   45.9570 H   0  0  0  0  0  0  0  0  0  0  0  0
   60.4320   35.1744   46.2799 H   0  0  0  0  0  0  0  0  0  0  0  0
   61.7661   34.3749   45.3811 H   0  0  0  0  0  0  0  0  0  0  0  0
   60.1225   33.6502   45.3811 H   0  0  0  0  0  0  0  0  0  0  0  0
   63.3345   33.7040   46.8720 H   0  0  0  0  0  0  0  0  0  0  0  0
  1  2  1  0
  2  3  2  0
  3  4  1  0
  4  5  2  0
  5  6  1  0
  6  7  2  0
  6  8  2  0
  6  9  1  0
  9 10  1  0
 10 11  1  0
 11 12  1  0
 12 13  1  0
 13 14  1  0
 14 15  1  0
 15 16  2  0
 16 17  1  0
 16 18  1  0
 18 19  2  0
 18 20  1  0
 20 21  1  0
 21 22  2  0
 13 23  1  0
  5 24  1  0
 24 25  1  0
 24 26  2  0
 26  2  1  0
 23  9  1  0
 21 14  1  0
  1 27  1  0
  1 28  1  0
  1 29  1  0
  3 30  1  0
  4 31  1  0
  9 32  1  1
 10 33  1  0
 10 34  1  0
 11 35  1  0
 11 36  1  0
 12 37  1  0
 12 38  1  0
 13 39  1  6
 15 40  1  0
 17 41  1  0
 17 42  1  0
 17 43  1  0
 23 44  1  0
 23 45  1  0
 25 46  1  0
 25 47  1  0
 25 48  1  0
 26 49  1  0
M  CHG  2   9   1  20  -1
M  END
>  <UniqueID>  (70) 
66

>  <SMILES>  (70) 
Cc1ccc(S(=O)(=O)[N@H+]2CCC[C@H](n3cc(C)c(=O)[n-]c3=O)C2)c(C)c1

>  <Energy>  (70) 
62.34825982049583

>  <Genealogy>  (70) 
Cc1ccc(S(=O)(=O)[NH+]2CCCC(n3cc(C)c(=O)[n-]c3=O)C2)c(C)c1 (protonated)
Cc1ccc(S(=O)(=O)[N@H+]2CCC[C@H](n3cc(C)c(=O)[n-]c3=O)C2)c(C)c1 (chirality)
Cc1ccc(S(=O)(=O)[N@H+]2CCC[C@H](n3cc(C)c(=O)[n-]c3=O)C2)c(C)c1 (3D coordinates assigned)
Cc1ccc(S(=O)(=O)[N@H+]2CCC[C@H](n3cc(C)c(=O)[n-]c3=O)C2)c(C)c1 (nonaromatic ring conformer: 62.34825982049583 kcal/mol)

>  <smiles>  (70) 
Cc1ccc(S(=O)(=O)N2CCCC(n3cc(C)c(=O)[nH]c3=O)C2)c(C)c1

>  <score_type>  (70) 
oracle

>  <origin>  (70) 
adg

>  <m_score__min__energy>  (70) 
-10.68

>  <m_primary>  (70) 
energy

$$$$
70:0
     RDKit          3D

 43 45  0  0  0  0  0  0  0  0999 V2000
   55.1480   28.6030   45.6240 H   0  0  0  0  0  0  0  0  0  0  0  0
   55.3280   29.3310   44.8980 N   0  0  0  0  0  0  0  0  0  0  0  0
   56.5600   30.0480   44.8690 C   0  0  0  0  0  0  0  0  0  0  0  0
   56.6360   31.1160   44.2020 O   0  0  0  0  0  0  0  0  0  0  0  0
   57.7390   29.5530   45.6270 C   0  0  0  0  0  0  0  0  0  0  0  0
   58.8920   30.3610   45.8080 C   0  0  0  0  0  0  0  0  0  0  0  0
   58.9560   31.7830   45.4010 C   0  0  0  0  0  0  0  0  0  0  0  0
   58.8750   32.0124   44.3282 H   0  0  0  0  0  0  0  0  0  0  0  0
   59.1060   32.8120   46.2500 C   0  0  0  0  0  0  0  0  0  0  0  0
   58.2597   33.5050   46.3662 H   0  0  0  0  0  0  0  0  0  0  0  0
   60.3290   33.0820   47.0420 C   0  0  0  0  0  0  0  0  0  0  0  0
   61.5000   33.5510   46.4140 C   0  0  0  0  0  0  0  0  0  0  0  0
   61.5082   33.7157   45.3264 H   0  0  0  0  0  0  0  0  0  0  0  0
   62.6500   33.8080   47.1630 C   0  0  0  0  0  0  0  0  0  0  0  0
   63.5641   34.1594   46.6621 H   0  0  0  0  0  0  0  0  0  0  0  0
   62.6420   33.6200   48.5450 C   0  0  0  0  0  0  0  0  0  0  0  0
   63.5509   33.8185   49.1320 H   0  0  0  0  0  0  0  0  0  0  0  0
   61.4810   33.1800   49.1840 C   0  0  0  0  0  0  0  0  0  0  0  0
   61.4768   33.0385   50.2748 H   0  0  0  0  0  0  0  0  0  0  0  0
   60.3220   32.9180   48.4430 C   0  0  0  0  0  0  0  0  0  0  0  0
   58.8930   32.3450   49.2960 Cl  0  0  0  0  0  0  0  0  0  0  0  0
   60.0250   29.8180   46.4240 C   0  0  0  0  0  0  0  0  0  0  0  0
   60.9384   30.4221   46.5284 H   0  0  0  0  0  0  0  0  0  0  0  0
   59.9940   28.5130   46.9040 C   0  0  0  0  0  0  0  0  0  0  0  0
   60.8805   28.0871   47.3966 H   0  0  0  0  0  0  0  0  0  0  0  0
   58.8720   27.7660   46.7650 N   0  0  0  0  0  0  0  0  0  0  0  0
   57.7490   28.2370   46.1540 C   0  0  0  0  0  0  0  0  0  0  0  0
   56.7110   27.4640   45.9980 N   0  0  0  0  0  0  0  0  0  0  0  0
   56.6970   26.1300   45.4640 C   0  0  0  0  0  0  0  0  0  0  0  0
   55.8470   25.1310   45.9730 C   0  0  0  0  0  0  0  0  0  0  0  0
   55.1893   25.3545   46.8259 H   0  0  0  0  0  0  0  0  0  0  0  0
   55.8340   23.8550   45.4000 C   0  0  0  0  0  0  0  0  0  0  0  0
   55.1750   23.0761   45.8111 H   0  0  0  0  0  0  0  0  0  0  0  0
   56.6570   23.5660   44.3050 C   0  0  0  0  0  0  0  0  0  0  0  0
   56.6300   21.9650   43.5750 S   0  0  0  0  0  0  0  0  0  0  0  0
   55.9420   22.0250   42.2390 O   0  0  0  0  0  0  0  0  0  0  0  0
   58.0360   21.4740   43.3720 O   0  0  0  0  0  0  0  0  0  0  0  0
   55.7810   20.8770   44.6140 N   0  0  0  0  0  0  0  0  0  0  0  0
   54.8080   21.2440   44.7110 H   0  0  0  0  0  0  0  0  0  0  0  0
   57.4760   24.5710   43.7720 C   0  0  0  0  0  0  0  0  0  0  0  0
   58.1118   24.3549   42.9007 H   0  0  0  0  0  0  0  0  0  0  0  0
   57.4880   25.8460   44.3430 C   0  0  0  0  0  0  0  0  0  0  0  0
   58.1230   26.6326   43.9093 H   0  0  0  0  0  0  0  0  0  0  0  0
  1  2  1  0
  2  3  1  0
  3  4  2  0
  3  5  1  0
  5  6  2  0
  6  7  1  0
  7  8  1  0
  7  9  2  3
  9 10  1  0
  9 11  1  0
 11 12  2  0
 12 13  1  0
 12 14  1  0
 14 15  1  0
 14 16  2  0
 16 17  1  0
 16 18  1  0
 18 19  1  0
 18 20  2  0
 20 21  1  0
  6 22  1  0
 22 23  1  0
 22 24  2  0
 24 25  1  0
 24 26  1  0
 26 27  1  0
 27 28  2  0
 28 29  1  0
 29 30  2  0
 30 31  1  0
 30 32  1  0
 32 33  1  0
 32 34  2  0
 34 35  1  0
 35 36  2  0
 35 37  2  0
 35 38  1  0
 38 39  1  0
 34 40  1  0
 40 41  1  0
 40 42  2  0
 42 43  1  0
 27  5  1  0
 42 29  1  0
 20 11  1  0
M  CHG  3   2  -1  26  -1  38  -1
M  END
>  <UniqueID>  (71) 
67

>  <SMILES>  (71) 
[NH-]C(=O)c1c(C=Cc2ccccc2Cl)cc[n-]/c1=N\c1ccc(S([NH-])(=O)=O)cc1

>  <Energy>  (71) 
69.9472171614981

>  <Genealogy>  (71) 
[NH-]C(=O)c1c(C=Cc2ccccc2Cl)cc[n-]c1=Nc1ccc(S([NH-])(=O)=O)cc1 (protonated)
[NH-]C(=O)c1c(C=Cc2ccccc2Cl)cc[n-]/c1=N\c1ccc(S([NH-])(=O)=O)cc1 (cis-trans isomerization)
[NH-]C(=O)c1c(C=Cc2ccccc2Cl)cc[n-]/c1=N\c1ccc(S([NH-])(=O)=O)cc1 (3D coordinates assigned)
[NH-]C(=O)c1c(C=Cc2ccccc2Cl)cc[n-]/c1=N\c1ccc(S([NH-])(=O)=O)cc1 (optimized conformer: 69.9472171614981 kcal/mol)

>  <smiles>  (71) 
NC(=O)c1c(C=Cc2ccccc2Cl)cc[nH]c1=Nc1ccc(S(N)(=O)=O)cc1

>  <score_type>  (71) 
oracle

>  <origin>  (71) 
adg

>  <m_score__min__energy>  (71) 
-15.029999999999999

>  <m_primary>  (71) 
energy

$$$$
71:0
     RDKit          3D

 55 59  0  0  0  0  0  0  0  0999 V2000
   57.0160   31.5940   41.8420 C   0  0  0  0  0  0  0  0  0  0  0  0
   57.4530   31.2080   43.2190 C   0  0  0  0  0  0  0  0  0  0  0  0
   57.8980   32.1820   44.1180 C   0  0  0  0  0  0  0  0  0  0  0  0
   58.3240   31.7820   45.3980 C   0  0  0  0  0  0  0  0  0  0  0  0
   58.8150   32.7310   46.3810 N   0  0  0  0  0  0  0  0  0  0  0  0
   59.1020   34.1040   45.9240 C   0  0  0  0  0  0  0  0  0  0  0  0
   59.7760   34.9570   46.9990 C   0  0  0  0  0  0  0  0  0  0  0  0
   59.1800   34.7390   48.2560 O   0  0  0  0  0  0  0  0  0  0  0  0
   59.5050   33.4390   48.6890 C   0  0  0  0  0  0  0  0  0  0  0  0
   58.8310   32.3760   47.8130 C   0  0  0  0  0  0  0  0  0  0  0  0
   58.2950   30.4560   45.7060 N   0  0  0  0  0  0  0  0  0  0  0  0
   57.8660   29.5140   44.8230 C   0  0  0  0  0  0  0  0  0  0  0  0
   57.8880   28.0780   45.1950 C   0  0  0  0  0  0  0  0  0  0  0  0
   57.9780   27.6860   46.5440 C   0  0  0  0  0  0  0  0  0  0  0  0
   57.9580   26.3310   46.8940 C   0  0  0  0  0  0  0  0  0  0  0  0
   57.8350   25.3480   45.9070 C   0  0  0  0  0  0  0  0  0  0  0  0
   57.8110   23.9680   46.2950 N   0  0  0  0  0  0  0  0  0  0  0  0
   56.7780   23.3540   47.0740 C   0  0  0  0  0  0  0  0  0  0  0  0
   57.0440   22.9660   48.2430 O   0  0  0  0  0  0  0  0  0  0  0  0
   55.4400   23.2200   46.5670 N   0  0  0  0  0  0  0  0  0  0  0  0
   54.8300   24.1600   45.6210 C   0  0  0  0  0  0  0  0  0  0  0  0
   53.4080   23.7430   45.6060 C   0  0  0  0  0  0  0  0  0  0  0  0
   52.3650   24.2880   44.8570 C   0  0  0  0  0  0  0  0  0  0  0  0
   51.0830   23.7310   44.9880 C   0  0  0  0  0  0  0  0  0  0  0  0
   50.8690   22.6440   45.8570 C   0  0  0  0  0  0  0  0  0  0  0  0
   51.9340   22.1100   46.6000 C   0  0  0  0  0  0  0  0  0  0  0  0
   53.1990   22.6810   46.4550 C   0  0  0  0  0  0  0  0  0  0  0  0
   54.4580   22.2940   47.1350 C   0  0  0  0  0  0  0  0  0  0  0  0
   57.7840   25.7300   44.5560 C   0  0  0  0  0  0  0  0  0  0  0  0
   57.7990   27.0820   44.2040 C   0  0  0  0  0  0  0  0  0  0  0  0
   57.4510   29.9010   43.5880 N   0  0  0  0  0  0  0  0  0  0  0  0
   56.1931   32.3209   41.9087 H   0  0  0  0  0  0  0  0  0  0  0  0
   57.8613   32.0457   41.3022 H   0  0  0  0  0  0  0  0  0  0  0  0
   56.6721   30.6994   41.3022 H   0  0  0  0  0  0  0  0  0  0  0  0
   57.9148   33.2433   43.8294 H   0  0  0  0  0  0  0  0  0  0  0  0
   59.7665   34.0516   45.0490 H   0  0  0  0  0  0  0  0  0  0  0  0
   58.1409   34.5792   45.6782 H   0  0  0  0  0  0  0  0  0  0  0  0
   60.8421   34.6915   47.0543 H   0  0  0  0  0  0  0  0  0  0  0  0
   59.6592   36.0178   46.7323 H   0  0  0  0  0  0  0  0  0  0  0  0
   60.5958   33.3064   48.6381 H   0  0  0  0  0  0  0  0  0  0  0  0
   59.1463   33.3168   49.7217 H   0  0  0  0  0  0  0  0  0  0  0  0
   59.3752   31.4275   47.9325 H   0  0  0  0  0  0  0  0  0  0  0  0
   57.7846   32.2949   48.1424 H   0  0  0  0  0  0  0  0  0  0  0  0
   58.0648   28.4510   47.3296 H   0  0  0  0  0  0  0  0  0  0  0  0
   58.0395   26.0377   47.9511 H   0  0  0  0  0  0  0  0  0  0  0  0
   54.9340   25.1973   45.9719 H   0  0  0  0  0  0  0  0  0  0  0  0
   55.2984   24.1385   44.6259 H   0  0  0  0  0  0  0  0  0  0  0  0
   52.5431   25.1355   44.1787 H   0  0  0  0  0  0  0  0  0  0  0  0
   50.2434   24.1449   44.4102 H   0  0  0  0  0  0  0  0  0  0  0  0
   49.8625   22.2110   45.9543 H   0  0  0  0  0  0  0  0  0  0  0  0
   51.7748   21.2609   47.2809 H   0  0  0  0  0  0  0  0  0  0  0  0
   54.3752   22.4253   48.2240 H   0  0  0  0  0  0  0  0  0  0  0  0
   54.7232   21.2370   46.9853 H   0  0  0  0  0  0  0  0  0  0  0  0
   57.7320   24.9608   43.7714 H   0  0  0  0  0  0  0  0  0  0  0  0
   57.7408   27.3705   43.1441 H   0  0  0  0  0  0  0  0  0  0  0  0
  1  2  1  0
  2  3  2  0
  3  4  1  0
  4  5  1  0
  5  6  1  0
  6  7  1  0
  7  8  1  0
  8  9  1  0
  9 10  1  0
  4 11  2  0
 11 12  1  0
 12 13  1  0
 13 14  2  0
 14 15  1  0
 15 16  2  0
 16 17  1  0
 17 18  1  0
 18 19  2  0
 18 20  1  0
 20 21  1  0
 21 22  1  0
 22 23  2  0
 23 24  1  0
 24 25  2  0
 25 26  1  0
 26 27  2  0
 27 28  1  0
 16 29  1  0
 29 30  2  0
 12 31  2  0
 31  2  1  0
 10  5  1  0
 30 13  1  0
 28 20  1  0
 27 22  1  0
  1 32  1  0
  1 33  1  0
  1 34  1  0
  3 35  1  0
  6 36  1  0
  6 37  1  0
  7 38  1  0
  7 39  1  0
  9 40  1  0
  9 41  1  0
 10 42  1  0
 10 43  1  0
 14 44  1  0
 15 45  1  0
 21 46  1  0
 21 47  1  0
 23 48  1  0
 24 49  1  0
 25 50  1  0
 26 51  1  0
 28 52  1  0
 28 53  1  0
 29 54  1  0
 30 55  1  0
M  CHG  1  17  -1
M  END
>  <UniqueID>  (72) 
68

>  <SMILES>  (72) 
Cc1cc(N2CCOCC2)nc(-c2ccc([N-]C(=O)N3Cc4ccccc4C3)cc2)n1

>  <Energy>  (72) 
80.65450927140091

>  <Genealogy>  (72) 
Cc1cc(N2CCOCC2)nc(-c2ccc([N-]C(=O)N3Cc4ccccc4C3)cc2)n1 (protonated)
Cc1cc(N2CCOCC2)nc(-c2ccc([N-]C(=O)N3Cc4ccccc4C3)cc2)n1 (3D coordinates assigned)
Cc1cc(N2CCOCC2)nc(-c2ccc([N-]C(=O)N3Cc4ccccc4C3)cc2)n1 (nonaromatic ring conformer: 80.65450927140091 kcal/mol)

>  <smiles>  (72) 
Cc1cc(N2CCOCC2)nc(-c2ccc(NC(=O)N3Cc4ccccc4C3)cc2)n1

>  <score_type>  (72) 
oracle

>  <origin>  (72) 
adg

>  <m_score__min__energy>  (72) 
-10

>  <m_primary>  (72) 
energy

$$$$
72:0
     RDKit          3D

 61 62  0  0  0  0  0  0  0  0999 V2000
   54.4461   28.1668   54.6650 H   0  0  0  0  0  0  0  0  0  0  0  0
   55.7350   29.3580   53.3070 C   0  0  0  0  0  0  0  0  0  0  0  0
   58.0160   32.3940   43.9680 C   0  0  0  0  0  0  0  0  0  0  0  0
   56.6770   28.6730   52.5440 O   0  0  0  0  0  0  0  0  0  0  0  0
   54.4770   28.6770   53.6910 C   0  0  0  0  0  0  0  0  0  0  0  0
   61.9382   31.7455   47.1733 H   0  0  0  0  0  0  0  0  0  0  0  0
   57.3830   31.1540   53.9180 C   0  0  0  0  0  0  0  0  0  0  0  0
   57.4201   31.5767   54.9329 H   0  0  0  0  0  0  0  0  0  0  0  0
   58.0990   30.3247   53.8208 H   0  0  0  0  0  0  0  0  0  0  0  0
   57.7300   32.1690   52.9760 O   0  0  0  0  0  0  0  0  0  0  0  0
   58.2420   31.9440   51.6870 C   0  0  0  0  0  0  0  0  0  0  0  0
   58.1940   30.6830   51.0620 C   0  0  0  0  0  0  0  0  0  0  0  0
   57.7251   29.8335   51.5802 H   0  0  0  0  0  0  0  0  0  0  0  0
   58.7390   30.5040   49.7860 C   0  0  0  0  0  0  0  0  0  0  0  0
   58.6900   29.5160   49.3049 H   0  0  0  0  0  0  0  0  0  0  0  0
   59.3500   31.5800   49.1130 C   0  0  0  0  0  0  0  0  0  0  0  0
   52.9320   30.9910   52.3120 C   0  0  0  0  0  0  0  0  0  0  0  0
   53.4966   31.5927   53.0394 H   0  0  0  0  0  0  0  0  0  0  0  0
   52.4640   29.7920   52.7140 C   0  0  0  0  0  0  0  0  0  0  0  0
   55.1519   31.3231   53.7513 H   0  0  0  0  0  0  0  0  0  0  0  0
   60.8020   33.6440   46.9840 C   0  0  0  0  0  0  0  0  0  0  0  0
   61.2280   34.4870   47.8160 O   0  0  0  0  0  0  0  0  0  0  0  0
   60.1530   34.1450   45.7190 C   0  0  0  0  0  0  0  0  0  0  0  0
   60.3959   35.2099   45.5891 H   0  0  0  0  0  0  0  0  0  0  0  0
   60.5354   33.5528   44.8745 H   0  0  0  0  0  0  0  0  0  0  0  0
   58.6550   33.9860   45.7720 C   0  0  0  0  0  0  0  0  0  0  0  0
   58.0610   34.2440   46.8530 O   0  0  0  0  0  0  0  0  0  0  0  0
   57.8390   33.5570   44.6150 C   0  0  0  0  0  0  0  0  0  0  0  0
   57.0418   34.2292   44.2648 H   0  0  0  0  0  0  0  0  0  0  0  0
   60.9500   32.2090   47.3100 C   0  0  0  0  0  0  0  0  0  0  0  0
   58.6132   32.4013   43.0442 H   0  0  0  0  0  0  0  0  0  0  0  0
   57.4530   31.0980   44.4260 C   0  0  0  0  0  0  0  0  0  0  0  0
   58.2450   30.2770   45.2480 C   0  0  0  0  0  0  0  0  0  0  0  0
   59.2538   30.6071   45.5367 H   0  0  0  0  0  0  0  0  0  0  0  0
   57.7640   29.0460   45.7020 C   0  0  0  0  0  0  0  0  0  0  0  0
   58.3909   28.4166   46.3507 H   0  0  0  0  0  0  0  0  0  0  0  0
   56.4880   28.6140   45.3330 C   0  0  0  0  0  0  0  0  0  0  0  0
   56.0140   27.3900   45.7900 O   0  0  0  0  0  0  0  0  0  0  0  0
   55.6940   29.4100   44.5000 C   0  0  0  0  0  0  0  0  0  0  0  0
   54.4290   28.9780   44.1190 O   0  0  0  0  0  0  0  0  0  0  0  0
   56.1720   30.6440   44.0440 C   0  0  0  0  0  0  0  0  0  0  0  0
   55.5462   31.2633   43.3845 H   0  0  0  0  0  0  0  0  0  0  0  0
   59.3680   32.8410   49.7300 C   0  0  0  0  0  0  0  0  0  0  0  0
   59.8119   33.6983   49.2027 H   0  0  0  0  0  0  0  0  0  0  0  0
   58.8280   33.0190   51.0070 C   0  0  0  0  0  0  0  0  0  0  0  0
   58.8810   34.2730   51.6050 O   0  0  0  0  0  0  0  0  0  0  0  0
   53.3740   28.6410   52.9310 C   0  0  0  0  0  0  0  0  0  0  0  0
   53.1262   27.6918   52.4334 H   0  0  0  0  0  0  0  0  0  0  0  0
   59.9480   31.4400   47.7630 C   0  0  0  0  0  0  0  0  0  0  0  0
   55.9980   30.6270   53.6540 C   0  0  0  0  0  0  0  0  0  0  0  0
   59.5478   30.6624   47.0959 H   0  0  0  0  0  0  0  0  0  0  0  0
   52.7320   31.5600   50.9320 C   0  0  0  0  0  0  0  0  0  0  0  0
   53.5617   32.2459   50.7058 H   0  0  0  0  0  0  0  0  0  0  0  0
   52.7049   30.7240   50.2176 H   0  0  0  0  0  0  0  0  0  0  0  0
   51.4380   32.3100   50.8220 C   0  0  0  0  0  0  0  0  0  0  0  0
   50.9700   32.9050   51.8270 O   0  0  0  0  0  0  0  0  0  0  0  0
   50.7220   32.3070   49.6310 O   0  0  0  0  0  0  0  0  0  0  0  0
   51.0100   29.6770   53.0860 C   0  0  0  0  0  0  0  0  0  0  0  0
   50.9113   29.6692   54.1815 H   0  0  0  0  0  0  0  0  0  0  0  0
   50.4572   30.5342   52.6742 H   0  0  0  0  0  0  0  0  0  0  0  0
   50.5989   28.7435   52.6742 H   0  0  0  0  0  0  0  0  0  0  0  0
  1  2  1  0
  2  3  1  0
  3  4  1  0
  3  5  2  3
  5  6  1  0
  5  7  1  0
  7  8  1  0
  7  9  1  0
  7 10  1  0
 10 11  1  0
 11 12  2  0
 12 13  1  0
 12 14  1  0
 14 15  1  0
 14 16  2  0
 16 17  1  0
 17 18  1  0
 17 19  2  0
 19 20  1  0
 19 21  1  0
 21 22  2  0
 21 23  1  0
 23 24  1  0
 23 25  1  0
 23 26  1  0
 26 27  2  0
 26 28  1  0
 28 29  1  0
 28 30  2  3
 30 31  1  0
 30 32  1  0
 32 33  2  0
 33 34  1  0
 33 35  1  0
 35 36  1  0
 35 37  2  0
 37 38  1  0
 37 39  1  0
 39 40  1  0
 39 41  2  0
 41 42  1  0
 16 43  1  0
 43 44  1  0
 43 45  2  0
 45 46  1  0
  2 47  2  0
 47 48  1  0
 47 49  1  0
 49 50  2  0
 50 51  1  0
 50 52  1  0
 52 53  1  0
 52 54  1  0
 52 55  1  0
 55 56  2  0
 55 57  1  0
 49 58  1  0
 58 59  1  0
 58 60  1  0
 58 61  1  0
 45 11  1  0
 41 32  1  0
M  CHG  5   4  -1  38  -1  40  -1  46  -1  57  -1
M  END
>  <UniqueID>  (73) 
69

>  <SMILES>  (73) 
C/C(C=CC([O-])=CCOc1ccc(/C=C/C(=O)CC(=O)C=Cc2ccc([O-])c([O-])c2)cc1[O-])=C/CC(=O)[O-]

>  <Energy>  (73) 
70.03498147901901

>  <Genealogy>  (73) 
CC(C=CC([O-])=CCOc1ccc(C=CC(=O)CC(=O)C=Cc2ccc([O-])c([O-])c2)cc1[O-])=CCC(=O)[O-] (protonated)
C/C(C=CC([O-])=CCOc1ccc(/C=C/C(=O)CC(=O)C=Cc2ccc([O-])c([O-])c2)cc1[O-])=C/CC(=O)[O-] (cis-trans isomerization)
C/C(C=CC([O-])=CCOc1ccc(/C=C/C(=O)CC(=O)C=Cc2ccc([O-])c([O-])c2)cc1[O-])=C/CC(=O)[O-] (3D coordinates assigned)
C/C(C=CC([O-])=CCOc1ccc(/C=C/C(=O)CC(=O)C=Cc2ccc([O-])c([O-])c2)cc1[O-])=C/CC(=O)[O-] (optimized conformer: 70.03498147901901 kcal/mol)

>  <smiles>  (73) 
CC(C=CC(O)=CCOc1ccc(C=CC(=O)CC(=O)C=Cc2ccc(O)c(O)c2)cc1O)=CCC(=O)O

>  <score_type>  (73) 
oracle

>  <origin>  (73) 
adg

>  <m_score__min__energy>  (73) 
-26.059999999999999

>  <m_primary>  (73) 
energy

$$$$
73:0
     RDKit          3D

 52 54  0  0  0  0  0  0  0  0999 V2000
   58.2620   30.9870   47.4950 O   0  0  0  0  0  0  0  0  0  0  0  0
   59.4440   31.2070   47.1150 C   0  0  0  0  0  0  0  0  0  0  0  0
   60.5720   30.5050   47.8110 C   0  0  0  0  0  0  0  0  0  0  0  0
   60.7750   29.1950   47.2120 N   0  0  0  0  0  0  0  0  0  0  0  0
   60.2140   28.7980   45.9580 C   0  0  0  0  0  0  0  0  0  0  0  0
   60.8710   28.9750   44.8980 O   0  0  0  0  0  0  0  0  0  0  0  0
   58.8980   28.1200   45.9670 C   0  0  0  0  0  0  0  0  0  0  0  0
   57.9020   28.7750   45.3760 O   0  0  0  0  0  0  0  0  0  0  0  0
   56.6410   28.3590   45.3420 C   0  0  0  0  0  0  0  0  0  0  0  0
   55.7310   29.1650   44.6350 O   0  0  0  0  0  0  0  0  0  0  0  0
   55.9570   30.4660   44.0890 C   0  0  2  0  0  0  0  0  0  0  0  0
   56.5500   30.3480   42.7060 C   0  0  0  0  0  0  0  0  0  0  0  0
   57.4050   31.5920   42.5630 C   0  0  0  0  0  0  0  0  0  0  0  0
   57.7880   32.0340   43.9060 N   0  0  0  0  0  0  0  0  0  0  0  0
   57.0240   31.2280   44.8630 C   0  0  0  0  0  0  0  0  0  0  0  0
   56.3000   27.1560   45.9920 C   0  0  0  0  0  0  0  0  0  0  0  0
   55.0000   26.6680   46.0120 O   0  0  0  0  0  0  0  0  0  0  0  0
   57.3110   26.4170   46.6060 C   0  0  0  0  0  0  0  0  0  0  0  0
   57.0350   25.3250   47.1740 O   0  0  0  0  0  0  0  0  0  0  0  0
   58.6340   26.8690   46.5780 C   0  0  0  0  0  0  0  0  0  0  0  0
   59.6200   26.0480   47.1340 O   0  0  0  0  0  0  0  0  0  0  0  0
   59.6590   32.1040   46.0170 N   0  0  0  0  0  0  0  0  0  0  0  0
   59.6970   33.5650   46.0860 C   0  0  2  0  0  0  0  0  0  0  0  0
   59.9670   34.0140   47.5340 C   0  0  0  0  0  0  0  0  0  0  0  0
   61.4090   33.8360   47.9500 C   0  0  0  0  0  0  0  0  0  0  0  0
   62.3810   33.4650   47.0050 C   0  0  0  0  0  0  0  0  0  0  0  0
   63.7080   33.2690   47.3980 C   0  0  0  0  0  0  0  0  0  0  0  0
   64.0740   33.4470   48.7350 C   0  0  0  0  0  0  0  0  0  0  0  0
   63.1150   33.8150   49.6820 C   0  0  0  0  0  0  0  0  0  0  0  0
   61.7870   34.0050   49.2940 C   0  0  0  0  0  0  0  0  0  0  0  0
   58.4190   34.1670   45.5660 C   0  0  0  0  0  0  0  0  0  0  0  0
   58.4370   34.9730   44.6010 O   0  0  0  0  0  0  0  0  0  0  0  0
   57.2040   33.7980   46.1240 O   0  0  0  0  0  0  0  0  0  0  0  0
   61.4915   31.1002   47.7100 H   0  0  0  0  0  0  0  0  0  0  0  0
   60.3260   30.3854   48.8764 H   0  0  0  0  0  0  0  0  0  0  0  0
   54.9821   30.9748   44.1159 H   0  0  0  0  0  0  0  0  0  0  0  0
   57.1647   29.4398   42.6209 H   0  0  0  0  0  0  0  0  0  0  0  0
   55.7819   30.2712   41.9224 H   0  0  0  0  0  0  0  0  0  0  0  0
   58.3054   31.3607   41.9750 H   0  0  0  0  0  0  0  0  0  0  0  0
   56.8442   32.3840   42.0451 H   0  0  0  0  0  0  0  0  0  0  0  0
   57.5090   33.0390   44.0170 H   0  0  0  0  0  0  0  0  0  0  0  0
   57.6934   30.5193   45.3725 H   0  0  0  0  0  0  0  0  0  0  0  0
   56.5580   31.8744   45.6213 H   0  0  0  0  0  0  0  0  0  0  0  0
   60.5080   26.3750   47.4910 H   0  0  0  0  0  0  0  0  0  0  0  0
   60.5156   33.9243   45.4451 H   0  0  0  0  0  0  0  0  0  0  0  0
   59.7050   35.0784   47.6252 H   0  0  0  0  0  0  0  0  0  0  0  0
   59.3546   33.3815   48.1935 H   0  0  0  0  0  0  0  0  0  0  0  0
   62.0961   33.3283   45.9514 H   0  0  0  0  0  0  0  0  0  0  0  0
   64.4640   32.9747   46.6551 H   0  0  0  0  0  0  0  0  0  0  0  0
   65.1195   33.2970   49.0424 H   0  0  0  0  0  0  0  0  0  0  0  0
   63.4061   33.9551   50.7335 H   0  0  0  0  0  0  0  0  0  0  0  0
   61.0330   34.2882   50.0432 H   0  0  0  0  0  0  0  0  0  0  0  0
  1  2  2  0
  2  3  1  0
  3  4  1  0
  4  5  1  0
  5  6  2  0
  5  7  1  0
  7  8  1  0
  8  9  1  0
  9 10  1  0
 10 11  1  0
 11 12  1  0
 12 13  1  0
 13 14  1  0
 14 15  1  0
  9 16  2  0
 16 17  1  0
 16 18  1  0
 18 19  2  0
 18 20  1  0
 20 21  1  0
  2 22  1  0
 22 23  1  0
 23 24  1  0
 24 25  1  0
 25 26  2  0
 26 27  1  0
 27 28  2  0
 28 29  1  0
 29 30  2  0
 23 31  1  0
 31 32  2  0
 31 33  1  0
 20  7  2  0
 30 25  1  0
 15 11  1  0
  3 34  1  0
  3 35  1  0
 11 36  1  6
 12 37  1  0
 12 38  1  0
 13 39  1  0
 13 40  1  0
 14 41  1  0
 15 42  1  0
 15 43  1  0
 21 44  1  0
 23 45  1  6
 24 46  1  0
 24 47  1  0
 26 48  1  0
 27 49  1  0
 28 50  1  0
 29 51  1  0
 30 52  1  0
M  CHG  4   4  -1  17  -1  22  -1  33  -1
M  END
>  <UniqueID>  (74) 
70

>  <SMILES>  (74) 
O=C(C[N-]C(=O)c1oc(O[C@@H]2CCNC2)c([O-])c(=O)c1O)[N-][C@H](Cc1ccccc1)C(=O)[O-]

>  <Energy>  (74) 
58.43565722594197

>  <Genealogy>  (74) 
O=C(C[N-]C(=O)c1oc(OC2CCNC2)c([O-])c(=O)c1O)[N-]C(Cc1ccccc1)C(=O)[O-] (protonated)
O=C(C[N-]C(=O)c1oc(O[C@@H]2CCNC2)c([O-])c(=O)c1O)[N-][C@H](Cc1ccccc1)C(=O)[O-] (chirality)
O=C(C[N-]C(=O)c1oc(O[C@@H]2CCNC2)c([O-])c(=O)c1O)[N-][C@H](Cc1ccccc1)C(=O)[O-] (3D coordinates assigned)
O=C(C[N-]C(=O)c1oc(O[C@@H]2CCNC2)c([O-])c(=O)c1O)[N-][C@H](Cc1ccccc1)C(=O)[O-] (nonaromatic ring conformer: 58.43565722594197 kcal/mol)

>  <smiles>  (74) 
O=C(CNC(=O)c1oc(OC2CCNC2)c(O)c(=O)c1O)NC(Cc1ccccc1)C(=O)O

>  <score_type>  (74) 
oracle

>  <origin>  (74) 
adg

>  <m_score__min__energy>  (74) 
-15.1

>  <m_primary>  (74) 
energy

$$$$
74:0
     RDKit          3D

 48 51  0  0  0  0  0  0  0  0999 V2000
   59.6690   34.4220   49.3140 O   0  0  0  0  0  0  0  0  0  0  0  0
   59.3990   33.4440   48.5650 C   0  0  0  0  0  0  0  0  0  0  0  0
   58.9900   33.7000   47.1710 C   0  0  0  0  0  0  0  0  0  0  0  0
   57.6420   33.5800   46.7880 C   0  0  0  0  0  0  0  0  0  0  0  0
   56.7010   33.1820   47.6820 F   0  0  0  0  0  0  0  0  0  0  0  0
   57.2630   33.8360   45.4670 C   0  0  0  0  0  0  0  0  0  0  0  0
   58.2220   34.2020   44.5190 C   0  0  0  0  0  0  0  0  0  0  0  0
   59.5650   34.3050   44.8890 C   0  0  0  0  0  0  0  0  0  0  0  0
   59.9540   34.0510   46.2080 C   0  0  0  0  0  0  0  0  0  0  0  0
   61.2620   34.1690   46.5500 F   0  0  0  0  0  0  0  0  0  0  0  0
   59.4880   32.1090   49.0880 N   0  0  0  0  0  0  0  0  0  0  0  0
   60.4450   31.1070   48.6050 C   0  0  0  0  0  0  0  0  0  0  0  0
   60.1180   29.8000   49.3810 C   0  0  2  0  0  0  0  0  0  0  0  0
   59.2520   28.9500   48.6250 O   0  0  0  0  0  0  0  0  0  0  0  0
   59.1240   28.9630   47.2270 C   0  0  0  0  0  0  0  0  0  0  0  0
   60.1770   28.4460   46.4630 C   0  0  0  0  0  0  0  0  0  0  0  0
   60.1050   28.4410   45.0680 C   0  0  0  0  0  0  0  0  0  0  0  0
   58.9760   28.9490   44.4230 C   0  0  0  0  0  0  0  0  0  0  0  0
   57.9030   29.4570   45.1710 C   0  0  0  0  0  0  0  0  0  0  0  0
   56.7020   30.0360   44.4750 C   0  0  0  0  0  0  0  0  0  0  0  0
   55.5300   29.4570   44.9800 O   0  0  0  0  0  0  0  0  0  0  0  0
   57.9860   29.4760   46.5740 C   0  0  0  0  0  0  0  0  0  0  0  0
   59.3830   30.3550   50.5890 C   0  0  2  0  0  0  0  0  0  0  0  0
   58.4460   29.5570   51.4770 C   0  0  0  0  0  0  0  0  0  0  0  0
   57.5440   30.8830   52.2760 S   0  0  0  0  0  0  0  0  0  0  0  0
   58.0250   31.1130   53.6810 O   0  0  0  0  0  0  0  0  0  0  0  0
   56.0620   30.6330   52.2520 O   0  0  0  0  0  0  0  0  0  0  0  0
   58.0040   32.2360   51.1940 C   0  0  0  0  0  0  0  0  0  0  0  0
   58.5580   31.4720   50.0000 C   0  0  1  0  0  0  0  0  0  0  0  0
   56.2066   33.7490   45.1730 H   0  0  0  0  0  0  0  0  0  0  0  0
   57.9195   34.4089   43.4818 H   0  0  0  0  0  0  0  0  0  0  0  0
   60.3196   34.5870   44.1399 H   0  0  0  0  0  0  0  0  0  0  0  0
   60.3227   30.9508   47.5230 H   0  0  0  0  0  0  0  0  0  0  0  0
   61.4843   31.4269   48.7708 H   0  0  0  0  0  0  0  0  0  0  0  0
   61.0005   29.1863   49.6145 H   0  0  0  0  0  0  0  0  0  0  0  0
   61.0679   28.0406   46.9650 H   0  0  0  0  0  0  0  0  0  0  0  0
   60.9394   28.0360   44.4766 H   0  0  0  0  0  0  0  0  0  0  0  0
   58.9273   28.9511   43.3241 H   0  0  0  0  0  0  0  0  0  0  0  0
   56.6728   31.1228   44.6424 H   0  0  0  0  0  0  0  0  0  0  0  0
   56.7731   29.8262   43.3975 H   0  0  0  0  0  0  0  0  0  0  0  0
   55.1530   30.1030   45.6330 H   0  0  0  0  0  0  0  0  0  0  0  0
   57.1578   29.8937   47.1653 H   0  0  0  0  0  0  0  0  0  0  0  0
   60.1966   30.5351   51.3071 H   0  0  0  0  0  0  0  0  0  0  0  0
   57.7796   28.9107   50.8869 H   0  0  0  0  0  0  0  0  0  0  0  0
   58.9487   28.8638   52.1675 H   0  0  0  0  0  0  0  0  0  0  0  0
   57.1318   32.8456   50.9151 H   0  0  0  0  0  0  0  0  0  0  0  0
   58.7064   32.9560   51.6392 H   0  0  0  0  0  0  0  0  0  0  0  0
   57.6593   31.2531   49.4047 H   0  0  0  0  0  0  0  0  0  0  0  0
  1  2  2  0
  2  3  1  0
  3  4  2  0
  4  5  1  0
  4  6  1  0
  6  7  2  0
  7  8  1  0
  8  9  2  0
  9 10  1  0
  2 11  1  0
 11 12  1  0
 12 13  1  0
 13 14  1  0
 14 15  1  0
 15 16  2  0
 16 17  1  0
 17 18  2  0
 18 19  1  0
 19 20  1  0
 20 21  1  0
 19 22  2  0
 13 23  1  0
 23 24  1  0
 24 25  1  0
 25 26  2  0
 25 27  2  0
 25 28  1  0
 28 29  1  0
  9  3  1  0
 29 11  1  0
 22 15  1  0
 29 23  1  0
  6 30  1  0
  7 31  1  0
  8 32  1  0
 12 33  1  0
 12 34  1  0
 13 35  1  1
 16 36  1  0
 17 37  1  0
 18 38  1  0
 20 39  1  0
 20 40  1  0
 21 41  1  0
 22 42  1  0
 23 43  1  1
 24 44  1  0
 24 45  1  0
 28 46  1  0
 28 47  1  0
 29 48  1  6
M  END
>  <UniqueID>  (75) 
71

>  <SMILES>  (75) 
O=C(c1c(F)cccc1F)N1C[C@H](Oc2cccc(CO)c2)[C@@H]2CS(=O)(=O)CC21

>  <Energy>  (75) 
77.8397731942478

>  <Genealogy>  (75) 
O=C(c1c(F)cccc1F)N1C[C@H](Oc2cccc(CO)c2)[C@@H]2CS(=O)(=O)CC21 (chirality)
O=C(c1c(F)cccc1F)N1C[C@H](Oc2cccc(CO)c2)[C@@H]2CS(=O)(=O)CC21 (3D coordinates assigned)
O=C(c1c(F)cccc1F)N1C[C@H](Oc2cccc(CO)c2)[C@@H]2CS(=O)(=O)CC21 (nonaromatic ring conformer: 77.8397731942478 kcal/mol)

>  <smiles>  (75) 
O=C(c1c(F)cccc1F)N1CC(Oc2cccc(CO)c2)C2CS(=O)(=O)CC21

>  <score_type>  (75) 
oracle

>  <origin>  (75) 
adg

>  <m_score__min__energy>  (75) 
-8.7300000000000004

>  <m_primary>  (75) 
energy

$$$$
75:0
     RDKit          3D

 46 47  0  0  0  0  0  0  0  0999 V2000
   55.3170   24.0410   45.8670 C   0  0  0  0  0  0  0  0  0  0  0  0
   55.6730   25.4880   45.8700 C   0  0  0  0  0  0  0  0  0  0  0  0
   54.7660   26.3540   45.9970 O   0  0  0  0  0  0  0  0  0  0  0  0
   57.0330   25.8840   45.6900 N   0  0  0  0  0  0  0  0  0  0  0  0
   58.2940   25.4270   46.7880 S   0  0  0  0  0  0  0  0  0  0  0  0
   57.7580   24.4110   47.7580 O   0  0  0  0  0  0  0  0  0  0  0  0
   59.4220   24.8130   46.0070 O   0  0  0  0  0  0  0  0  0  0  0  0
   58.8920   26.8400   47.6500 C   0  0  0  0  0  0  0  0  0  0  0  0
   58.2020   28.0570   47.5710 C   0  0  0  0  0  0  0  0  0  0  0  0
   58.6590   29.1720   48.2770 C   0  0  0  0  0  0  0  0  0  0  0  0
   59.8160   29.0860   49.0740 C   0  0  0  0  0  0  0  0  0  0  0  0
   60.3070   30.2480   49.7730 N   0  0  0  0  0  0  0  0  0  0  0  0
   60.2850   31.3810   48.8860 C   0  0  0  0  0  0  0  0  0  0  0  0
   59.6460   32.8060   49.4000 S   0  0  0  0  0  0  0  0  0  0  0  0
   60.7970   31.2460   47.5490 N   0  0  0  0  0  0  0  0  0  0  0  0
   60.2720   32.0020   46.4100 C   0  0  0  0  0  0  0  0  0  0  0  0
   59.0640   31.2900   45.8180 C   0  0  0  0  0  0  0  0  0  0  0  0
   59.1460   29.9990   45.2270 C   0  0  0  0  0  0  0  0  0  0  0  0
   60.4130   29.1800   45.3390 C   0  0  0  0  0  0  0  0  0  0  0  0
   58.0240   29.4910   44.5270 C   0  0  0  0  0  0  0  0  0  0  0  0
   58.1100   27.8310   43.5420 Br  0  0  0  0  0  0  0  0  0  0  0  0
   56.8210   30.2240   44.5290 C   0  0  0  0  0  0  0  0  0  0  0  0
   55.5970   29.7320   43.8150 C   0  0  0  0  0  0  0  0  0  0  0  0
   56.7530   31.4060   45.1880 N   0  0  0  0  0  0  0  0  0  0  0  0
   57.8170   31.9480   45.8250 C   0  0  0  0  0  0  0  0  0  0  0  0
   57.6740   33.0500   46.4190 O   0  0  0  0  0  0  0  0  0  0  0  0
   60.5050   27.8630   49.1470 C   0  0  0  0  0  0  0  0  0  0  0  0
   60.0420   26.7480   48.4440 C   0  0  0  0  0  0  0  0  0  0  0  0
   55.2289   23.6829   46.9034 H   0  0  0  0  0  0  0  0  0  0  0  0
   54.3575   23.9005   45.3477 H   0  0  0  0  0  0  0  0  0  0  0  0
   56.1018   23.4714   45.3477 H   0  0  0  0  0  0  0  0  0  0  0  0
   57.2970   28.1345   46.9506 H   0  0  0  0  0  0  0  0  0  0  0  0
   58.1112   30.1235   48.2098 H   0  0  0  0  0  0  0  0  0  0  0  0
   61.2880   30.0990   50.1060 H   0  0  0  0  0  0  0  0  0  0  0  0
   59.7100   30.4220   50.6150 H   0  0  0  0  0  0  0  0  0  0  0  0
   61.4560   30.4610   47.3500 H   0  0  0  0  0  0  0  0  0  0  0  0
   59.9731   33.0056   46.7468 H   0  0  0  0  0  0  0  0  0  0  0  0
   61.0543   32.0813   45.6408 H   0  0  0  0  0  0  0  0  0  0  0  0
   60.6556   29.0232   46.4004 H   0  0  0  0  0  0  0  0  0  0  0  0
   60.2648   28.2064   44.8490 H   0  0  0  0  0  0  0  0  0  0  0  0
   61.2399   29.7149   44.8490 H   0  0  0  0  0  0  0  0  0  0  0  0
   54.8398   29.4276   44.5525 H   0  0  0  0  0  0  0  0  0  0  0  0
   55.1918   30.5371   43.1844 H   0  0  0  0  0  0  0  0  0  0  0  0
   55.8618   28.8704   43.1844 H   0  0  0  0  0  0  0  0  0  0  0  0
   61.4141   27.7834   49.7612 H   0  0  0  0  0  0  0  0  0  0  0  0
   60.5834   25.7931   48.5145 H   0  0  0  0  0  0  0  0  0  0  0  0
  1  2  1  0
  2  3  2  0
  2  4  1  0
  4  5  1  0
  5  6  2  0
  5  7  2  0
  5  8  1  0
  8  9  2  0
  9 10  1  0
 10 11  2  0
 11 12  1  0
 12 13  1  0
 13 14  2  0
 13 15  1  0
 15 16  1  0
 16 17  1  0
 17 18  2  0
 18 19  1  0
 18 20  1  0
 20 21  1  0
 20 22  2  0
 22 23  1  0
 22 24  1  0
 24 25  1  0
 25 26  2  0
 11 27  1  0
 27 28  2  0
 28  8  1  0
 25 17  1  0
  1 29  1  0
  1 30  1  0
  1 31  1  0
  9 32  1  0
 10 33  1  0
 12 34  1  0
 12 35  1  0
 15 36  1  0
 16 37  1  0
 16 38  1  0
 19 39  1  0
 19 40  1  0
 19 41  1  0
 23 42  1  0
 23 43  1  0
 23 44  1  0
 27 45  1  0
 28 46  1  0
M  CHG  3   4  -1  12   1  24  -1
M  END
>  <UniqueID>  (76) 
72

>  <SMILES>  (76) 
CC(=O)[N-]S(=O)(=O)c1ccc([NH2+]C(=S)NCc2c(C)c(Br)c(C)[n-]c2=O)cc1

>  <Energy>  (76) 
49.33346705727814

>  <Genealogy>  (76) 
CC(=O)[N-]S(=O)(=O)c1ccc([NH2+]C(=S)NCc2c(C)c(Br)c(C)[n-]c2=O)cc1 (protonated)
CC(=O)[N-]S(=O)(=O)c1ccc([NH2+]C(=S)NCc2c(C)c(Br)c(C)[n-]c2=O)cc1 (3D coordinates assigned)
CC(=O)[N-]S(=O)(=O)c1ccc([NH2+]C(=S)NCc2c(C)c(Br)c(C)[n-]c2=O)cc1 (optimized conformer: 49.33346705727814 kcal/mol)

>  <smiles>  (76) 
CC(=O)NS(=O)(=O)c1ccc(NC(=S)NCc2c(C)c(Br)c(C)[nH]c2=O)cc1

>  <score_type>  (76) 
oracle

>  <origin>  (76) 
adg

>  <m_score__min__energy>  (76) 
-9.8399999999999999

>  <m_primary>  (76) 
energy

$$$$
76:0
     RDKit          3D

 38 40  0  0  0  0  0  0  0  0999 V2000
   60.1640   29.7790   45.9090 C   0  0  0  0  0  0  0  0  0  0  0  0
   58.7430   29.8140   45.4270 C   0  0  0  0  0  0  0  0  0  0  0  0
   57.9790   28.7250   45.0360 C   0  0  0  0  0  0  0  0  0  0  0  0
   58.4130   27.2890   44.9960 C   0  0  0  0  0  0  0  0  0  0  0  0
   57.4130   26.4700   44.3100 N   0  0  0  0  0  0  0  0  0  0  0  0
   56.7860   25.3010   44.8830 C   0  0  0  0  0  0  0  0  0  0  0  0
   57.2800   24.0050   44.6290 C   0  0  0  0  0  0  0  0  0  0  0  0
   56.6620   22.8860   45.1960 C   0  0  0  0  0  0  0  0  0  0  0  0
   55.5470   23.0430   46.0180 C   0  0  0  0  0  0  0  0  0  0  0  0
   55.0450   24.3190   46.2770 C   0  0  0  0  0  0  0  0  0  0  0  0
   55.6570   25.4480   45.7140 C   0  0  0  0  0  0  0  0  0  0  0  0
   55.1450   26.7190   45.9840 O   0  0  0  0  0  0  0  0  0  0  0  0
   56.7610   29.1450   44.6290 N   0  0  0  0  0  0  0  0  0  0  0  0
   56.8060   30.4810   44.8110 C   0  0  0  0  0  0  0  0  0  0  0  0
   55.8260   31.2330   44.5630 O   0  0  0  0  0  0  0  0  0  0  0  0
   57.9840   30.9240   45.3010 N   0  0  0  0  0  0  0  0  0  0  0  0
   58.3270   32.2800   45.6310 C   0  0  0  0  0  0  0  0  0  0  0  0
   58.4580   33.2490   44.6210 C   0  0  0  0  0  0  0  0  0  0  0  0
   58.8010   34.5650   44.9460 C   0  0  0  0  0  0  0  0  0  0  0  0
   59.0230   34.9230   46.2780 C   0  0  0  0  0  0  0  0  0  0  0  0
   58.9040   33.9650   47.2880 C   0  0  0  0  0  0  0  0  0  0  0  0
   58.5600   32.6470   46.9680 C   0  0  0  0  0  0  0  0  0  0  0  0
   60.1782   29.7786   47.0089 H   0  0  0  0  0  0  0  0  0  0  0  0
   60.6555   28.8685   45.5357 H   0  0  0  0  0  0  0  0  0  0  0  0
   60.6997   30.6642   45.5357 H   0  0  0  0  0  0  0  0  0  0  0  0
   59.3708   27.2152   44.4601 H   0  0  0  0  0  0  0  0  0  0  0  0
   58.5260   26.9228   46.0271 H   0  0  0  0  0  0  0  0  0  0  0  0
   57.1400   26.7710   43.3470 H   0  0  0  0  0  0  0  0  0  0  0  0
   58.1582   23.8732   43.9799 H   0  0  0  0  0  0  0  0  0  0  0  0
   57.0566   21.8795   44.9929 H   0  0  0  0  0  0  0  0  0  0  0  0
   55.0629   22.1609   46.4625 H   0  0  0  0  0  0  0  0  0  0  0  0
   54.1650   24.4397   46.9259 H   0  0  0  0  0  0  0  0  0  0  0  0
   55.1790   27.4620   45.2970 H   0  0  0  0  0  0  0  0  0  0  0  0
   58.2899   32.9707   43.5702 H   0  0  0  0  0  0  0  0  0  0  0  0
   58.8962   35.3197   44.1515 H   0  0  0  0  0  0  0  0  0  0  0  0
   59.2915   35.9591   46.5316 H   0  0  0  0  0  0  0  0  0  0  0  0
   59.0810   34.2473   48.3363 H   0  0  0  0  0  0  0  0  0  0  0  0
   58.4715   31.8949   47.7658 H   0  0  0  0  0  0  0  0  0  0  0  0
  1  2  1  0
  2  3  2  0
  3  4  1  0
  4  5  1  0
  5  6  1  0
  6  7  2  0
  7  8  1  0
  8  9  2  0
  9 10  1  0
 10 11  2  0
 11 12  1  0
  3 13  1  0
 13 14  1  0
 14 15  2  0
 14 16  1  0
 16 17  1  0
 17 18  2  0
 18 19  1  0
 19 20  2  0
 20 21  1  0
 21 22  2  0
 16  2  1  0
 22 17  1  0
 11  6  1  0
  1 23  1  0
  1 24  1  0
  1 25  1  0
  4 26  1  0
  4 27  1  0
  5 28  1  0
  7 29  1  0
  8 30  1  0
  9 31  1  0
 10 32  1  0
 12 33  1  0
 18 34  1  0
 19 35  1  0
 20 36  1  0
 21 37  1  0
 22 38  1  0
M  CHG  1  13  -1
M  END
>  <UniqueID>  (77) 
73

>  <SMILES>  (77) 
Cc1c(CNc2ccccc2O)[n-]c(=O)n1-c1ccccc1

>  <Energy>  (77) 
75.75085890322049

>  <Genealogy>  (77) 
Cc1c(CNc2ccccc2O)[n-]c(=O)n1-c1ccccc1 (protonated)
Cc1c(CNc2ccccc2O)[n-]c(=O)n1-c1ccccc1 (3D coordinates assigned)
Cc1c(CNc2ccccc2O)[n-]c(=O)n1-c1ccccc1 (optimized conformer: 75.75085890322049 kcal/mol)

>  <smiles>  (77) 
Cc1c(CNc2ccccc2O)[nH]c(=O)n1-c1ccccc1

>  <score_type>  (77) 
oracle

>  <origin>  (77) 
adg

>  <m_score__min__energy>  (77) 
-10.26

>  <m_primary>  (77) 
energy

$$$$
77:0
     RDKit          3D

 62 65  0  0  0  0  0  0  0  0999 V2000
   57.5770   30.1270   51.3120 N   0  0  0  0  0  0  0  0  0  0  0  0
   57.4980   31.5910   51.2750 C   0  0  0  0  0  0  0  0  0  0  0  0
   58.0620   32.2160   52.5750 C   0  0  0  0  0  0  0  0  0  0  0  0
   59.5970   32.1410   52.6280 C   0  0  0  0  0  0  0  0  0  0  0  0
   60.2080   32.5340   51.3480 N   0  0  0  0  0  0  0  0  0  0  0  0
   61.6420   32.4260   51.2010 C   0  0  0  0  0  0  0  0  0  0  0  0
   62.3580   32.2300   52.2210 O   0  0  0  0  0  0  0  0  0  0  0  0
   62.3000   32.4850   49.8770 C   0  0  0  0  0  0  0  0  0  0  0  0
   63.2270   33.5150   49.6360 C   0  0  0  0  0  0  0  0  0  0  0  0
   63.8740   33.6180   48.4020 C   0  0  0  0  0  0  0  0  0  0  0  0
   63.6120   32.6870   47.3980 C   0  0  0  0  0  0  0  0  0  0  0  0
   62.6930   31.6560   47.6200 C   0  0  0  0  0  0  0  0  0  0  0  0
   62.0170   31.5460   48.8490 C   0  0  0  0  0  0  0  0  0  0  0  0
   61.0460   30.3980   49.0310 C   0  0  0  0  0  0  0  0  0  0  0  0
   60.4870   29.9750   47.7470 N   0  0  0  0  0  0  0  0  0  0  0  0
   59.3700   29.0820   47.6390 C   0  0  0  0  0  0  0  0  0  0  0  0
   58.6320   28.8620   48.6400 O   0  0  0  0  0  0  0  0  0  0  0  0
   59.0470   28.4440   46.3170 C   0  0  0  0  0  0  0  0  0  0  0  0
   58.0170   29.2430   45.5520 C   0  0  0  0  0  0  0  0  0  0  0  0
   56.8280   28.6240   45.1250 C   0  0  0  0  0  0  0  0  0  0  0  0
   55.8780   29.3420   44.3940 C   0  0  0  0  0  0  0  0  0  0  0  0
   56.1020   30.6870   44.0880 C   0  0  0  0  0  0  0  0  0  0  0  0
   57.2780   31.3170   44.5070 C   0  0  0  0  0  0  0  0  0  0  0  0
   58.2480   30.5980   45.2280 C   0  0  0  0  0  0  0  0  0  0  0  0
   59.4330   31.2190   45.6540 O   0  0  0  0  0  0  0  0  0  0  0  0
   59.5180   32.5200   46.1650 C   0  0  0  0  0  0  0  0  0  0  0  0
   58.4160   33.0410   46.8510 C   0  0  0  0  0  0  0  0  0  0  0  0
   58.4700   34.3220   47.4100 C   0  0  0  0  0  0  0  0  0  0  0  0
   59.6340   35.0890   47.2960 C   0  0  0  0  0  0  0  0  0  0  0  0
   60.7450   34.5730   46.6230 C   0  0  0  0  0  0  0  0  0  0  0  0
   60.6930   33.2940   46.0620 C   0  0  0  0  0  0  0  0  0  0  0  0
   59.3520   33.0910   50.2870 C   0  0  0  0  0  0  0  0  0  0  0  0
   58.1900   32.1340   49.9930 C   0  0  0  0  0  0  0  0  0  0  0  0
   58.1120   29.7900   50.4800 H   0  0  0  0  0  0  0  0  0  0  0  0
   56.6130   29.7200   51.2670 H   0  0  0  0  0  0  0  0  0  0  0  0
   56.4410   31.8916   51.2260 H   0  0  0  0  0  0  0  0  0  0  0  0
   57.7556   33.2713   52.6243 H   0  0  0  0  0  0  0  0  0  0  0  0
   57.6632   31.6471   53.4278 H   0  0  0  0  0  0  0  0  0  0  0  0
   59.9594   32.8157   53.4175 H   0  0  0  0  0  0  0  0  0  0  0  0
   59.8814   31.0991   52.8370 H   0  0  0  0  0  0  0  0  0  0  0  0
   63.4449   34.2472   50.4275 H   0  0  0  0  0  0  0  0  0  0  0  0
   64.5900   34.4336   48.2227 H   0  0  0  0  0  0  0  0  0  0  0  0
   64.1286   32.7632   46.4299 H   0  0  0  0  0  0  0  0  0  0  0  0
   62.4965   30.9225   46.8242 H   0  0  0  0  0  0  0  0  0  0  0  0
   61.5743   29.5495   49.4903 H   0  0  0  0  0  0  0  0  0  0  0  0
   60.2224   30.7351   49.6776 H   0  0  0  0  0  0  0  0  0  0  0  0
   60.9770   30.2770   46.8750 H   0  0  0  0  0  0  0  0  0  0  0  0
   59.9668   28.3797   45.7172 H   0  0  0  0  0  0  0  0  0  0  0  0
   58.6334   27.4430   46.5093 H   0  0  0  0  0  0  0  0  0  0  0  0
   56.6449   27.5670   45.3684 H   0  0  0  0  0  0  0  0  0  0  0  0
   54.9537   28.8484   44.0593 H   0  0  0  0  0  0  0  0  0  0  0  0
   55.3511   31.2517   43.5159 H   0  0  0  0  0  0  0  0  0  0  0  0
   57.4449   32.3785   44.2719 H   0  0  0  0  0  0  0  0  0  0  0  0
   57.5007   32.4392   46.9515 H   0  0  0  0  0  0  0  0  0  0  0  0
   57.5954   34.7269   47.9402 H   0  0  0  0  0  0  0  0  0  0  0  0
   59.6750   36.0967   47.7353 H   0  0  0  0  0  0  0  0  0  0  0  0
   61.6617   35.1745   46.5347 H   0  0  0  0  0  0  0  0  0  0  0  0
   61.5715   32.8893   45.5382 H   0  0  0  0  0  0  0  0  0  0  0  0
   58.9506   34.0613   50.6148 H   0  0  0  0  0  0  0  0  0  0  0  0
   59.9501   33.2237   49.3734 H   0  0  0  0  0  0  0  0  0  0  0  0
   57.4403   32.6699   49.3924 H   0  0  0  0  0  0  0  0  0  0  0  0
   58.6092   31.2686   49.4588 H   0  0  0  0  0  0  0  0  0  0  0  0
  1  2  1  0
  2  3  1  0
  3  4  1  0
  4  5  1  0
  5  6  1  0
  6  7  2  0
  6  8  1  0
  8  9  2  0
  9 10  1  0
 10 11  2  0
 11 12  1  0
 12 13  2  0
 13 14  1  0
 14 15  1  0
 15 16  1  0
 16 17  2  0
 16 18  1  0
 18 19  1  0
 19 20  2  0
 20 21  1  0
 21 22  2  0
 22 23  1  0
 23 24  2  0
 24 25  1  0
 25 26  1  0
 26 27  2  0
 27 28  1  0
 28 29  2  0
 29 30  1  0
 30 31  2  0
  5 32  1  0
 32 33  1  0
 33  2  1  0
 13  8  1  0
 24 19  1  0
 31 26  1  0
  1 34  1  0
  1 35  1  0
  2 36  1  0
  3 37  1  0
  3 38  1  0
  4 39  1  0
  4 40  1  0
  9 41  1  0
 10 42  1  0
 11 43  1  0
 12 44  1  0
 14 45  1  0
 14 46  1  0
 15 47  1  0
 18 48  1  0
 18 49  1  0
 20 50  1  0
 21 51  1  0
 22 52  1  0
 23 53  1  0
 27 54  1  0
 28 55  1  0
 29 56  1  0
 30 57  1  0
 31 58  1  0
 32 59  1  0
 32 60  1  0
 33 61  1  0
 33 62  1  0
M  END
>  <UniqueID>  (78) 
74

>  <SMILES>  (78) 
NC1CCN(C(=O)c2ccccc2CNC(=O)Cc2ccccc2Oc2ccccc2)CC1

>  <Energy>  (78) 
77.65259730085468

>  <Genealogy>  (78) 
NC1CCN(C(=O)c2ccccc2CNC(=O)Cc2ccccc2Oc2ccccc2)CC1 (3D coordinates assigned)
NC1CCN(C(=O)c2ccccc2CNC(=O)Cc2ccccc2Oc2ccccc2)CC1 (nonaromatic ring conformer: 77.65259730085468 kcal/mol)

>  <smiles>  (78) 
NC1CCN(C(=O)c2ccccc2CNC(=O)Cc2ccccc2Oc2ccccc2)CC1

>  <score_type>  (78) 
oracle

>  <origin>  (78) 
adg

>  <m_score__min__energy>  (78) 
-9.0099999999999998

>  <m_primary>  (78) 
energy

$$$$
78:0
     RDKit          3D

 58 61  0  0  0  0  0  0  0  0999 V2000
   59.0340   30.4010   50.7410 C   0  0  0  0  0  0  0  0  0  0  0  0
   59.3620   30.6080   49.2900 C   0  0  0  0  0  0  0  0  0  0  0  0
   59.3570   31.7890   48.8420 O   0  0  0  0  0  0  0  0  0  0  0  0
   59.6710   29.5050   48.4050 N   0  0  0  0  0  0  0  0  0  0  0  0
   60.1500   29.8130   47.0470 C   0  0  0  0  0  0  0  0  0  0  0  0
   60.3120   28.5520   46.1920 C   0  0  0  0  0  0  0  0  0  0  0  0
   59.2070   27.6260   46.4520 N   0  0  0  0  0  0  0  0  0  0  0  0
   58.5620   26.9620   45.3530 C   0  0  0  0  0  0  0  0  0  0  0  0
   58.2880   25.5880   45.4370 C   0  0  0  0  0  0  0  0  0  0  0  0
   57.7560   24.9050   44.3400 C   0  0  0  0  0  0  0  0  0  0  0  0
   57.5060   25.5850   43.1470 C   0  0  0  0  0  0  0  0  0  0  0  0
   57.7700   26.9540   43.0510 C   0  0  0  0  0  0  0  0  0  0  0  0
   58.2770   27.6550   44.1540 C   0  0  0  0  0  0  0  0  0  0  0  0
   58.4980   29.0680   44.0420 N   0  0  0  0  0  0  0  0  0  0  0  0
   57.5860   30.0240   44.6010 C   0  0  0  0  0  0  0  0  0  0  0  0
   56.4370   29.6560   44.9660 O   0  0  0  0  0  0  0  0  0  0  0  0
   57.9720   31.4340   44.7570 C   0  0  0  0  0  0  0  0  0  0  0  0
   58.6560   31.9670   45.8430 C   0  0  0  0  0  0  0  0  0  0  0  0
   58.9490   33.3290   45.6960 C   0  0  0  0  0  0  0  0  0  0  0  0
   59.8290   34.2560   46.9070 S   0  0  0  0  0  0  0  0  0  0  0  0
   58.9000   34.5960   48.0400 O   0  0  0  0  0  0  0  0  0  0  0  0
   60.3080   35.5410   46.2900 O   0  0  0  0  0  0  0  0  0  0  0  0
   61.2000   33.3620   47.5240 N   0  0  0  0  0  0  0  0  0  0  0  0
   62.3980   33.6380   46.7100 C   0  0  0  0  0  0  0  0  0  0  0  0
   63.6750   33.3010   47.4960 C   0  0  0  0  0  0  0  0  0  0  0  0
   63.8300   34.0450   48.7000 O   0  0  0  0  0  0  0  0  0  0  0  0
   62.6070   34.5440   49.2250 C   0  0  0  0  0  0  0  0  0  0  0  0
   61.4090   33.6130   48.9670 C   0  0  0  0  0  0  0  0  0  0  0  0
   58.5020   33.8750   44.4990 C   0  0  0  0  0  0  0  0  0  0  0  0
   57.7460   32.6560   43.6210 S   0  0  0  0  0  0  0  0  0  0  0  0
   58.8880   27.2320   47.8310 C   0  0  0  0  0  0  0  0  0  0  0  0
   59.6300   28.1020   48.8530 C   0  0  0  0  0  0  0  0  0  0  0  0
   59.8012   30.8852   51.3630 H   0  0  0  0  0  0  0  0  0  0  0  0
   58.0509   30.8426   50.9613 H   0  0  0  0  0  0  0  0  0  0  0  0
   59.0096   29.3236   50.9613 H   0  0  0  0  0  0  0  0  0  0  0  0
   59.4258   30.4817   46.5588 H   0  0  0  0  0  0  0  0  0  0  0  0
   61.1371   30.2901   47.1366 H   0  0  0  0  0  0  0  0  0  0  0  0
   60.3113   28.8306   45.1279 H   0  0  0  0  0  0  0  0  0  0  0  0
   61.2626   28.0613   46.4481 H   0  0  0  0  0  0  0  0  0  0  0  0
   58.4932   25.0456   46.3717 H   0  0  0  0  0  0  0  0  0  0  0  0
   57.5340   23.8304   44.4168 H   0  0  0  0  0  0  0  0  0  0  0  0
   57.1003   25.0422   42.2805 H   0  0  0  0  0  0  0  0  0  0  0  0
   57.5792   27.4837   42.1060 H   0  0  0  0  0  0  0  0  0  0  0  0
   59.2660   29.3990   43.4160 H   0  0  0  0  0  0  0  0  0  0  0  0
   58.9388   31.3789   46.7285 H   0  0  0  0  0  0  0  0  0  0  0  0
   62.3635   33.0259   45.7967 H   0  0  0  0  0  0  0  0  0  0  0  0
   62.4125   34.7070   46.4511 H   0  0  0  0  0  0  0  0  0  0  0  0
   63.6512   32.2314   47.7516 H   0  0  0  0  0  0  0  0  0  0  0  0
   64.5246   33.5644   46.8488 H   0  0  0  0  0  0  0  0  0  0  0  0
   62.7206   34.6740   50.3114 H   0  0  0  0  0  0  0  0  0  0  0  0
   62.3967   35.4949   48.7136 H   0  0  0  0  0  0  0  0  0  0  0  0
   61.5911   32.6526   49.4714 H   0  0  0  0  0  0  0  0  0  0  0  0
   60.5069   34.1051   49.3594 H   0  0  0  0  0  0  0  0  0  0  0  0
   58.6217   34.9213   44.1813 H   0  0  0  0  0  0  0  0  0  0  0  0
   57.8049   27.3384   47.9911 H   0  0  0  0  0  0  0  0  0  0  0  0
   59.2055   26.1884   47.9727 H   0  0  0  0  0  0  0  0  0  0  0  0
   59.1101   28.0463   49.8208 H   0  0  0  0  0  0  0  0  0  0  0  0
   60.6606   27.7310   48.9536 H   0  0  0  0  0  0  0  0  0  0  0  0
  1  2  1  0
  2  3  2  0
  2  4  1  0
  4  5  1  0
  5  6  1  0
  6  7  1  0
  7  8  1  0
  8  9  2  0
  9 10  1  0
 10 11  2  0
 11 12  1  0
 12 13  2  0
 13 14  1  0
 14 15  1  0
 15 16  2  0
 15 17  1  0
 17 18  2  0
 18 19  1  0
 19 20  1  0
 20 21  2  0
 20 22  2  0
 20 23  1  0
 23 24  1  0
 24 25  1  0
 25 26  1  0
 26 27  1  0
 27 28  1  0
 19 29  2  0
 29 30  1  0
  7 31  1  0
 31 32  1  0
 32  4  1  0
 13  8  1  0
 30 17  1  0
 28 23  1  0
  1 33  1  0
  1 34  1  0
  1 35  1  0
  5 36  1  0
  5 37  1  0
  6 38  1  0
  6 39  1  0
  9 40  1  0
 10 41  1  0
 11 42  1  0
 12 43  1  0
 14 44  1  0
 18 45  1  0
 24 46  1  0
 24 47  1  0
 25 48  1  0
 25 49  1  0
 27 50  1  0
 27 51  1  0
 28 52  1  0
 28 53  1  0
 29 54  1  0
 31 55  1  0
 31 56  1  0
 32 57  1  0
 32 58  1  0
M  END
>  <UniqueID>  (79) 
75

>  <SMILES>  (79) 
CC(=O)N1CCN(c2ccccc2NC(=O)c2cc(S(=O)(=O)N3CCOCC3)cs2)CC1

>  <Energy>  (79) 
103.5753003328996

>  <Genealogy>  (79) 
CC(=O)N1CCN(c2ccccc2NC(=O)c2cc(S(=O)(=O)N3CCOCC3)cs2)CC1 (3D coordinates assigned)
CC(=O)N1CCN(c2ccccc2NC(=O)c2cc(S(=O)(=O)N3CCOCC3)cs2)CC1 (nonaromatic ring conformer: 103.5753003328996 kcal/mol)

>  <smiles>  (79) 
CC(=O)N1CCN(c2ccccc2NC(=O)c2cc(S(=O)(=O)N3CCOCC3)cs2)CC1

>  <score_type>  (79) 
oracle

>  <origin>  (79) 
adg

>  <m_score__min__energy>  (79) 
-10.5

>  <m_primary>  (79) 
energy

$$$$
79:0
     RDKit          3D

 25 26  0  0  0  0  0  0  0  0999 V2000
   60.5590   27.3140   54.1050 N   0  0  0  0  0  0  0  0  0  0  0  0
   59.4920   27.7620   54.1040 C   0  0  0  0  0  0  0  0  0  0  0  0
   58.1650   28.3190   54.1020 C   0  0  0  0  0  0  0  0  0  0  0  0
   57.2010   27.8360   54.9920 C   0  0  0  0  0  0  0  0  0  0  0  0
   55.9120   28.3760   54.9920 C   0  0  0  0  0  0  0  0  0  0  0  0
   55.5700   29.3980   54.0880 C   0  0  0  0  0  0  0  0  0  0  0  0
   54.2560   29.9780   54.0810 N   0  0  0  0  0  0  0  0  0  0  0  0
   53.1140   29.4750   53.3740 C   0  0  0  0  0  0  0  0  0  0  0  0
   52.6410   28.3580   53.7080 O   0  0  0  0  0  0  0  0  0  0  0  0
   52.4500   30.2420   52.2990 C   0  0  0  0  0  0  0  0  0  0  0  0
   52.4080   29.7700   50.9770 C   0  0  0  0  0  0  0  0  0  0  0  0
   51.7750   30.5350   49.9930 C   0  0  0  0  0  0  0  0  0  0  0  0
   51.7250   30.1150   48.8050 O   0  0  0  0  0  0  0  0  0  0  0  0
   51.2050   31.7670   50.3290 C   0  0  0  0  0  0  0  0  0  0  0  0
   50.5710   32.5400   49.3620 O   0  0  0  0  0  0  0  0  0  0  0  0
   51.2830   32.2160   51.6510 C   0  0  0  0  0  0  0  0  0  0  0  0
   50.7320   33.4400   52.0090 O   0  0  0  0  0  0  0  0  0  0  0  0
   51.9000   31.4540   52.5930 N   0  0  0  0  0  0  0  0  0  0  0  0
   56.5490   29.8960   53.2110 C   0  0  0  0  0  0  0  0  0  0  0  0
   56.1410   31.3070   51.9810 Br  0  0  0  0  0  0  0  0  0  0  0  0
   57.8390   29.3530   53.2160 C   0  0  0  0  0  0  0  0  0  0  0  0
   57.4577   27.0290   55.6940 H   0  0  0  0  0  0  0  0  0  0  0  0
   55.1611   27.9999   55.7025 H   0  0  0  0  0  0  0  0  0  0  0  0
   52.8696   28.8058   50.7178 H   0  0  0  0  0  0  0  0  0  0  0  0
   58.5993   29.7399   52.5215 H   0  0  0  0  0  0  0  0  0  0  0  0
  1  2  3  0
  2  3  1  0
  3  4  2  0
  4  5  1  0
  5  6  2  0
  6  7  1  0
  7  8  1  0
  8  9  2  0
  8 10  1  0
 10 11  2  0
 11 12  1  0
 12 13  2  0
 12 14  1  0
 14 15  1  0
 14 16  2  0
 16 17  1  0
 16 18  1  0
  6 19  1  0
 19 20  1  0
 19 21  2  0
 21  3  1  0
 18 10  1  0
  4 22  1  0
  5 23  1  0
 11 24  1  0
 21 25  1  0
M  CHG  4   7  -1  15  -1  17  -1  18  -1
M  END
>  <UniqueID>  (80) 
76

>  <SMILES>  (80) 
N#Cc1ccc([N-]C(=O)c2cc(=O)c([O-])c([O-])[n-]2)c(Br)c1

>  <Energy>  (80) 
33.47652646639526

>  <Genealogy>  (80) 
N#Cc1ccc([N-]C(=O)c2cc(=O)c([O-])c([O-])[n-]2)c(Br)c1 (protonated)
N#Cc1ccc([N-]C(=O)c2cc(=O)c([O-])c([O-])[n-]2)c(Br)c1 (3D coordinates assigned)
N#Cc1ccc([N-]C(=O)c2cc(=O)c([O-])c([O-])[n-]2)c(Br)c1 (optimized conformer: 33.47652646639526 kcal/mol)

>  <smiles>  (80) 
N#Cc1ccc(NC(=O)c2cc(=O)c(O)c(O)[nH]2)c(Br)c1

>  <score_type>  (80) 
oracle

>  <origin>  (80) 
adg

>  <m_score__min__energy>  (80) 
-17.969999999999999

>  <m_primary>  (80) 
energy

$$$$
80:0
     RDKit          3D

 51 54  0  0  0  0  0  0  0  0999 V2000
   59.8800   26.7960   46.4620 O   0  0  0  0  0  0  0  0  0  0  0  0
   58.8790   27.3310   45.9140 C   0  0  0  0  0  0  0  0  0  0  0  0
   59.0000   28.6670   45.4080 N   0  0  0  0  0  0  0  0  0  0  0  0
   59.0530   29.8710   46.1890 C   0  0  0  0  0  0  0  0  0  0  0  0
   59.9380   29.9910   47.2750 C   0  0  0  0  0  0  0  0  0  0  0  0
   59.9650   31.1570   48.0580 C   0  0  0  0  0  0  0  0  0  0  0  0
   60.9520   31.3030   49.1550 C   0  0  0  0  0  0  0  0  0  0  0  0
   60.6210   31.0340   50.3420 O   0  0  0  0  0  0  0  0  0  0  0  0
   62.2740   31.7940   48.8920 N   0  0  0  0  0  0  0  0  0  0  0  0
   62.6570   32.1780   47.5300 C   0  0  0  0  0  0  0  0  0  0  0  0
   63.7930   33.1720   47.5330 C   0  0  0  0  0  0  0  0  0  0  0  0
   64.4980   33.4620   48.6390 C   0  0  0  0  0  0  0  0  0  0  0  0
   64.1190   32.9340   49.9990 C   0  0  0  0  0  0  0  0  0  0  0  0
   63.3250   31.6320   49.8960 C   0  0  0  0  0  0  0  0  0  0  0  0
   59.0710   32.1980   47.7600 C   0  0  0  0  0  0  0  0  0  0  0  0
   58.1640   32.0710   46.7050 C   0  0  0  0  0  0  0  0  0  0  0  0
   58.1490   30.9120   45.9150 C   0  0  0  0  0  0  0  0  0  0  0  0
   57.2280   30.8060   44.8180 N   0  0  0  0  0  0  0  0  0  0  0  0
   56.1750   29.7850   44.8530 C   0  0  0  0  0  0  0  0  0  0  0  0
   55.4450   29.7190   43.5110 C   0  0  0  0  0  0  0  0  0  0  0  0
   56.4260   29.8300   42.4280 N   0  0  0  0  0  0  0  0  0  0  0  0
   57.0200   31.1790   42.3670 C   0  0  0  0  0  0  0  0  0  0  0  0
   57.2370   31.8190   43.7550 C   0  0  0  0  0  0  0  0  0  0  0  0
   57.6040   26.5910   45.8630 C   0  0  0  0  0  0  0  0  0  0  0  0
   57.4830   25.2250   45.6810 C   0  0  0  0  0  0  0  0  0  0  0  0
   56.1340   24.9490   45.7050 C   0  0  0  0  0  0  0  0  0  0  0  0
   55.5120   26.1600   45.9050 C   0  0  0  0  0  0  0  0  0  0  0  0
   54.1380   26.3370   45.9900 O   0  0  0  0  0  0  0  0  0  0  0  0
   56.3940   27.1710   46.0090 N   0  0  0  0  0  0  0  0  0  0  0  0
   60.6184   29.1606   47.5147 H   0  0  0  0  0  0  0  0  0  0  0  0
   62.9709   31.2785   46.9802 H   0  0  0  0  0  0  0  0  0  0  0  0
   61.7880   32.6493   47.0476 H   0  0  0  0  0  0  0  0  0  0  0  0
   64.0538   33.6789   46.5923 H   0  0  0  0  0  0  0  0  0  0  0  0
   65.3837   34.1080   48.5490 H   0  0  0  0  0  0  0  0  0  0  0  0
   65.0357   32.7482   50.5779 H   0  0  0  0  0  0  0  0  0  0  0  0
   63.4862   33.6845   50.4953 H   0  0  0  0  0  0  0  0  0  0  0  0
   63.9964   30.8131   49.5984 H   0  0  0  0  0  0  0  0  0  0  0  0
   62.8745   31.3931   50.8707 H   0  0  0  0  0  0  0  0  0  0  0  0
   59.0849   33.1192   48.3610 H   0  0  0  0  0  0  0  0  0  0  0  0
   57.4564   32.8859   46.4923 H   0  0  0  0  0  0  0  0  0  0  0  0
   56.6279   28.8056   45.0668 H   0  0  0  0  0  0  0  0  0  0  0  0
   55.4511   30.0488   45.6381 H   0  0  0  0  0  0  0  0  0  0  0  0
   54.9113   28.7607   43.4283 H   0  0  0  0  0  0  0  0  0  0  0  0
   54.7200   30.5433   43.4415 H   0  0  0  0  0  0  0  0  0  0  0  0
   55.9350   29.6470   41.5210 H   0  0  0  0  0  0  0  0  0  0  0  0
   57.9936   31.1082   41.8600 H   0  0  0  0  0  0  0  0  0  0  0  0
   56.3118   31.8203   41.8219 H   0  0  0  0  0  0  0  0  0  0  0  0
   58.2071   32.3375   43.7626 H   0  0  0  0  0  0  0  0  0  0  0  0
   56.4157   32.5262   43.9430 H   0  0  0  0  0  0  0  0  0  0  0  0
   58.3015   24.5029   45.5443 H   0  0  0  0  0  0  0  0  0  0  0  0
   55.6541   23.9661   45.5886 H   0  0  0  0  0  0  0  0  0  0  0  0
  1  2  2  0
  2  3  1  0
  3  4  1  0
  4  5  2  0
  5  6  1  0
  6  7  1  0
  7  8  2  0
  7  9  1  0
  9 10  1  0
 10 11  1  0
 11 12  2  0
 12 13  1  0
 13 14  1  0
  6 15  2  0
 15 16  1  0
 16 17  2  0
 17 18  1  0
 18 19  1  0
 19 20  1  0
 20 21  1  0
 21 22  1  0
 22 23  1  0
  2 24  1  0
 24 25  2  0
 25 26  1  0
 26 27  2  0
 27 28  1  0
 27 29  1  0
 17  4  1  0
 23 18  1  0
 29 24  1  0
 14  9  1  0
  5 30  1  0
 10 31  1  0
 10 32  1  0
 11 33  1  0
 12 34  1  0
 13 35  1  0
 13 36  1  0
 14 37  1  0
 14 38  1  0
 15 39  1  0
 16 40  1  0
 19 41  1  0
 19 42  1  0
 20 43  1  0
 20 44  1  0
 21 45  1  0
 22 46  1  0
 22 47  1  0
 23 48  1  0
 23 49  1  0
 25 50  1  0
 26 51  1  0
M  CHG  3   3  -1  28  -1  29  -1
M  END
>  <UniqueID>  (81) 
77

>  <SMILES>  (81) 
O=C([N-]c1cc(C(=O)N2CC=CCC2)ccc1N1CCNCC1)c1ccc([O-])[n-]1

>  <Energy>  (81) 
94.693912889699

>  <Genealogy>  (81) 
O=C([N-]c1cc(C(=O)N2CC=CCC2)ccc1N1CCNCC1)c1ccc([O-])[n-]1 (protonated)
O=C([N-]c1cc(C(=O)N2CC=CCC2)ccc1N1CCNCC1)c1ccc([O-])[n-]1 (3D coordinates assigned)
O=C([N-]c1cc(C(=O)N2CC=CCC2)ccc1N1CCNCC1)c1ccc([O-])[n-]1 (nonaromatic ring conformer: 94.693912889699 kcal/mol)

>  <smiles>  (81) 
O=C(Nc1cc(C(=O)N2CC=CCC2)ccc1N1CCNCC1)c1ccc(O)[nH]1

>  <score_type>  (81) 
oracle

>  <origin>  (81) 
adg

>  <m_score__min__energy>  (81) 
-14.699999999999999

>  <m_primary>  (81) 
energy

$$$$
81:0
     RDKit          3D

 41 42  0  0  0  0  0  0  0  0999 V2000
   54.3690   24.7470   45.6200 C   0  0  0  0  0  0  0  0  0  0  0  0
   55.1330   25.9450   45.9670 N   0  0  0  0  0  0  0  0  0  0  0  0
   56.4780   25.5800   46.4210 C   0  0  0  0  0  0  0  0  0  0  0  0
   57.5400   26.0950   45.4460 C   0  0  0  0  0  0  0  0  0  0  0  0
   57.1980   27.3920   44.9540 O   0  0  0  0  0  0  0  0  0  0  0  0
   57.6900   28.6190   45.4330 C   0  0  0  0  0  0  0  0  0  0  0  0
   58.5440   28.7140   46.5480 C   0  0  0  0  0  0  0  0  0  0  0  0
   59.0110   29.9570   46.9800 C   0  0  0  0  0  0  0  0  0  0  0  0
   58.6360   31.1340   46.3110 C   0  0  0  0  0  0  0  0  0  0  0  0
   59.1220   32.4610   46.7590 C   0  0  0  0  0  0  0  0  0  0  0  0
   58.3170   33.2570   47.3160 O   0  0  0  0  0  0  0  0  0  0  0  0
   60.4870   32.8620   46.5520 N   0  0  0  0  0  0  0  0  0  0  0  0
   61.0080   34.1370   47.0400 C   0  0  0  0  0  0  0  0  0  0  0  0
   62.1140   33.9020   48.0340 C   0  0  0  0  0  0  0  0  0  0  0  0
   61.9290   34.2440   49.3840 C   0  0  0  0  0  0  0  0  0  0  0  0
   62.9470   34.0100   50.3150 C   0  0  0  0  0  0  0  0  0  0  0  0
   64.1510   33.4320   49.9060 C   0  0  0  0  0  0  0  0  0  0  0  0
   64.3410   33.0870   48.5640 C   0  0  0  0  0  0  0  0  0  0  0  0
   63.3270   33.3180   47.6300 C   0  0  0  0  0  0  0  0  0  0  0  0
   57.7640   31.0410   45.2140 C   0  0  0  0  0  0  0  0  0  0  0  0
   57.2960   29.7960   44.7780 C   0  0  0  0  0  0  0  0  0  0  0  0
   56.2210   29.7240   43.3900 Cl  0  0  0  0  0  0  0  0  0  0  0  0
   54.0452   24.2392   46.5405 H   0  0  0  0  0  0  0  0  0  0  0  0
   53.4864   25.0333   45.0293 H   0  0  0  0  0  0  0  0  0  0  0  0
   55.0009   24.0675   45.0293 H   0  0  0  0  0  0  0  0  0  0  0  0
   55.2300   26.5170   45.0960 H   0  0  0  0  0  0  0  0  0  0  0  0
   56.6555   26.0206   47.4132 H   0  0  0  0  0  0  0  0  0  0  0  0
   56.5476   24.4833   46.4707 H   0  0  0  0  0  0  0  0  0  0  0  0
   58.5080   26.1511   45.9654 H   0  0  0  0  0  0  0  0  0  0  0  0
   57.5991   25.4016   44.5941 H   0  0  0  0  0  0  0  0  0  0  0  0
   58.8459   27.8017   47.0833 H   0  0  0  0  0  0  0  0  0  0  0  0
   59.6787   30.0151   47.8522 H   0  0  0  0  0  0  0  0  0  0  0  0
   61.1250   32.2660   45.9800 H   0  0  0  0  0  0  0  0  0  0  0  0
   61.3994   34.7178   46.1918 H   0  0  0  0  0  0  0  0  0  0  0  0
   60.1954   34.6913   47.5324 H   0  0  0  0  0  0  0  0  0  0  0  0
   60.9811   34.6970   49.7101 H   0  0  0  0  0  0  0  0  0  0  0  0
   62.7989   34.2816   51.3706 H   0  0  0  0  0  0  0  0  0  0  0  0
   64.9499   33.2481   50.6395 H   0  0  0  0  0  0  0  0  0  0  0  0
   65.2901   32.6331   48.2429 H   0  0  0  0  0  0  0  0  0  0  0  0
   63.4787   33.0420   46.5761 H   0  0  0  0  0  0  0  0  0  0  0  0
   57.4457   31.9556   44.6923 H   0  0  0  0  0  0  0  0  0  0  0  0
  1  2  1  0
  2  3  1  0
  3  4  1  0
  4  5  1  0
  5  6  1  0
  6  7  2  0
  7  8  1  0
  8  9  2  0
  9 10  1  0
 10 11  2  0
 10 12  1  0
 12 13  1  0
 13 14  1  0
 14 15  2  0
 15 16  1  0
 16 17  2  0
 17 18  1  0
 18 19  2  0
  9 20  1  0
 20 21  2  0
 21 22  1  0
 21  6  1  0
 19 14  1  0
  1 23  1  0
  1 24  1  0
  1 25  1  0
  2 26  1  0
  3 27  1  0
  3 28  1  0
  4 29  1  0
  4 30  1  0
  7 31  1  0
  8 32  1  0
 12 33  1  0
 13 34  1  0
 13 35  1  0
 15 36  1  0
 16 37  1  0
 17 38  1  0
 18 39  1  0
 19 40  1  0
 20 41  1  0
M  END
>  <UniqueID>  (82) 
78

>  <SMILES>  (82) 
CNCCOc1ccc(C(=O)NCc2ccccc2)cc1Cl

>  <Energy>  (82) 
39.06531849862296

>  <Genealogy>  (82) 
CNCCOc1ccc(C(=O)NCc2ccccc2)cc1Cl (3D coordinates assigned)
CNCCOc1ccc(C(=O)NCc2ccccc2)cc1Cl (optimized conformer: 39.06531849862296 kcal/mol)

>  <smiles>  (82) 
CNCCOc1ccc(C(=O)NCc2ccccc2)cc1Cl

>  <score_type>  (82) 
oracle

>  <origin>  (82) 
adg

>  <m_score__min__energy>  (82) 
-8.3200000000000003

>  <m_primary>  (82) 
energy

$$$$
82:0
     RDKit          3D

 44 46  0  0  0  0  0  0  0  0999 V2000
   62.2490   32.0920   47.5160 C   0  0  0  0  0  0  0  0  0  0  0  0
   61.1110   32.7320   46.9460 O   0  0  0  0  0  0  0  0  0  0  0  0
   59.9950   32.0580   46.4260 C   0  0  0  0  0  0  0  0  0  0  0  0
   59.8960   30.6540   46.4470 C   0  0  0  0  0  0  0  0  0  0  0  0
   58.7690   30.0160   45.9220 C   0  0  0  0  0  0  0  0  0  0  0  0
   58.6820   28.6630   45.9500 N   0  0  0  0  0  0  0  0  0  0  0  0
   57.5910   28.0170   45.4590 C   0  0  0  0  0  0  0  0  0  0  0  0
   57.5250   26.5220   45.5080 C   0  0  0  0  0  0  0  0  0  0  0  0
   56.3820   26.0580   46.3690 C   0  0  0  0  0  0  0  0  0  0  0  0
   56.6360   25.5430   47.4890 O   0  0  0  0  0  0  0  0  0  0  0  0
   55.0110   26.1650   45.9570 N   0  0  0  0  0  0  0  0  0  0  0  0
   54.1180   25.0570   45.6260 C   0  0  0  0  0  0  0  0  0  0  0  0
   54.8710   23.9090   45.0070 C   0  0  0  0  0  0  0  0  0  0  0  0
   55.5150   24.0700   43.7670 C   0  0  0  0  0  0  0  0  0  0  0  0
   56.2270   23.0090   43.2010 C   0  0  0  0  0  0  0  0  0  0  0  0
   56.3180   21.7850   43.8700 C   0  0  0  0  0  0  0  0  0  0  0  0
   57.0310   20.7370   43.2930 O   0  0  0  0  0  0  0  0  0  0  0  0
   55.6950   21.6250   45.1150 C   0  0  0  0  0  0  0  0  0  0  0  0
   54.9810   22.6830   45.6840 C   0  0  0  0  0  0  0  0  0  0  0  0
   56.5710   28.7300   44.9120 N   0  0  0  0  0  0  0  0  0  0  0  0
   56.6080   30.0860   44.8550 C   0  0  0  0  0  0  0  0  0  0  0  0
   55.6390   30.7080   44.3420 O   0  0  0  0  0  0  0  0  0  0  0  0
   57.7210   30.7760   45.3670 C   0  0  0  0  0  0  0  0  0  0  0  0
   57.8180   32.1770   45.3420 C   0  0  0  0  0  0  0  0  0  0  0  0
   58.9540   32.8220   45.8710 C   0  0  0  0  0  0  0  0  0  0  0  0
   59.0890   34.2190   45.8640 O   0  0  0  0  0  0  0  0  0  0  0  0
   59.3450   35.0120   47.0190 C   0  0  0  0  0  0  0  0  0  0  0  0
   62.1802   32.1307   48.6132 H   0  0  0  0  0  0  0  0  0  0  0  0
   62.2825   31.0427   47.1875 H   0  0  0  0  0  0  0  0  0  0  0  0
   63.1630   32.6084   47.1875 H   0  0  0  0  0  0  0  0  0  0  0  0
   60.7111   30.0552   46.8795 H   0  0  0  0  0  0  0  0  0  0  0  0
   57.3863   26.1349   44.4877 H   0  0  0  0  0  0  0  0  0  0  0  0
   58.4635   26.1450   45.9405 H   0  0  0  0  0  0  0  0  0  0  0  0
   53.6256   24.7075   46.5455 H   0  0  0  0  0  0  0  0  0  0  0  0
   53.3761   25.4166   44.8978 H   0  0  0  0  0  0  0  0  0  0  0  0
   55.4580   25.0344   43.2409 H   0  0  0  0  0  0  0  0  0  0  0  0
   56.7178   23.1376   42.2250 H   0  0  0  0  0  0  0  0  0  0  0  0
   57.3780   19.9630   43.8480 H   0  0  0  0  0  0  0  0  0  0  0  0
   55.7682   20.6643   45.6457 H   0  0  0  0  0  0  0  0  0  0  0  0
   54.5030   22.5552   46.6664 H   0  0  0  0  0  0  0  0  0  0  0  0
   57.0029   32.7741   44.9072 H   0  0  0  0  0  0  0  0  0  0  0  0
   59.1525   34.4158   47.9231 H   0  0  0  0  0  0  0  0  0  0  0  0
   60.3948   35.3404   47.0130 H   0  0  0  0  0  0  0  0  0  0  0  0
   58.6854   35.8923   47.0130 H   0  0  0  0  0  0  0  0  0  0  0  0
  1  2  1  0
  2  3  1  0
  3  4  2  0
  4  5  1  0
  5  6  1  0
  6  7  1  0
  7  8  1  0
  8  9  1  0
  9 10  2  0
  9 11  1  0
 11 12  1  0
 12 13  1  0
 13 14  2  0
 14 15  1  0
 15 16  2  0
 16 17  1  0
 16 18  1  0
 18 19  2  0
  7 20  2  0
 20 21  1  0
 21 22  2  0
 21 23  1  0
 23 24  1  0
 24 25  2  0
 25 26  1  0
 26 27  1  0
 25  3  1  0
 23  5  2  0
 19 13  1  0
  1 28  1  0
  1 29  1  0
  1 30  1  0
  4 31  1  0
  8 32  1  0
  8 33  1  0
 12 34  1  0
 12 35  1  0
 14 36  1  0
 15 37  1  0
 17 38  1  0
 18 39  1  0
 19 40  1  0
 24 41  1  0
 27 42  1  0
 27 43  1  0
 27 44  1  0
M  CHG  2   6  -1  11  -1
M  END
>  <UniqueID>  (83) 
79

>  <SMILES>  (83) 
COc1cc2[n-]c(CC(=O)[N-]Cc3ccc(O)cc3)nc(=O)c2cc1OC

>  <Energy>  (83) 
45.183295619034865

>  <Genealogy>  (83) 
COc1cc2[n-]c(CC(=O)[N-]Cc3ccc(O)cc3)nc(=O)c2cc1OC (protonated)
COc1cc2[n-]c(CC(=O)[N-]Cc3ccc(O)cc3)nc(=O)c2cc1OC (3D coordinates assigned)
COc1cc2[n-]c(CC(=O)[N-]Cc3ccc(O)cc3)nc(=O)c2cc1OC (optimized conformer: 45.183295619034865 kcal/mol)

>  <smiles>  (83) 
COc1cc2[nH]c(CC(=O)NCc3ccc(O)cc3)nc(=O)c2cc1OC

>  <score_type>  (83) 
oracle

>  <origin>  (83) 
adg

>  <m_score__min__energy>  (83) 
-10.68

>  <m_primary>  (83) 
energy

$$$$
83:0
     RDKit          3D

 52 56  0  0  0  0  0  0  0  0999 V2000
   56.2440   31.5650   44.4860 O   0  0  0  0  0  0  0  0  0  0  0  0
   57.2860   31.9800   45.0580 C   0  0  0  0  0  0  0  0  0  0  0  0
   57.3020   33.3720   45.6300 C   0  0  0  0  0  0  0  0  0  0  0  0
   58.6100   34.3920   44.8620 S   0  0  0  0  0  0  0  0  0  0  0  0
   59.7420   34.2460   46.2410 C   0  0  0  0  0  0  0  0  0  0  0  0
   59.2990   34.4710   47.5050 N   0  0  0  0  0  0  0  0  0  0  0  0
   60.1280   34.3620   48.5750 C   0  0  0  0  0  0  0  0  0  0  0  0
   59.6760   34.5760   49.7320 O   0  0  0  0  0  0  0  0  0  0  0  0
   61.4740   34.0110   48.3780 C   0  0  0  0  0  0  0  0  0  0  0  0
   62.3850   33.8810   49.4430 C   0  0  0  0  0  0  0  0  0  0  0  0
   63.7150   33.5310   49.1850 C   0  0  0  0  0  0  0  0  0  0  0  0
   64.1440   33.3110   47.8730 C   0  0  0  0  0  0  0  0  0  0  0  0
   63.2470   33.4380   46.8090 C   0  0  0  0  0  0  0  0  0  0  0  0
   61.9130   33.7870   47.0540 C   0  0  0  0  0  0  0  0  0  0  0  0
   61.0400   33.9090   46.0220 N   0  0  0  0  0  0  0  0  0  0  0  0
   58.4480   31.1420   45.0680 N   0  0  0  0  0  0  0  0  0  0  0  0
   58.9380   30.4020   46.1940 C   0  0  0  0  0  0  0  0  0  0  0  0
   59.9070   30.9620   47.0430 C   0  0  0  0  0  0  0  0  0  0  0  0
   60.3350   30.2720   48.1850 C   0  0  0  0  0  0  0  0  0  0  0  0
   61.3050   30.8280   49.0340 C   0  0  0  0  0  0  0  0  0  0  0  0
   61.7210   30.1320   50.1730 C   0  0  0  0  0  0  0  0  0  0  0  0
   61.1730   28.8830   50.4730 C   0  0  0  0  0  0  0  0  0  0  0  0
   60.2050   28.3200   49.6380 C   0  0  0  0  0  0  0  0  0  0  0  0
   59.7780   29.0080   48.4910 C   0  0  0  0  0  0  0  0  0  0  0  0
   58.7960   28.4620   47.6560 C   0  0  0  0  0  0  0  0  0  0  0  0
   58.3610   29.1590   46.5200 C   0  0  0  0  0  0  0  0  0  0  0  0
   57.2970   28.5820   45.6760 C   0  0  0  0  0  0  0  0  0  0  0  0
   56.2940   29.2850   45.3860 O   0  0  0  0  0  0  0  0  0  0  0  0
   57.3600   27.2300   45.2050 N   0  0  0  0  0  0  0  0  0  0  0  0
   57.2440   26.0420   46.0480 C   0  0  0  0  0  0  0  0  0  0  0  0
   55.9870   25.2940   45.7290 C   0  0  0  0  0  0  0  0  0  0  0  0
   55.9170   24.0360   45.1650 C   0  0  0  0  0  0  0  0  0  0  0  0
   54.5720   23.7430   45.0820 C   0  0  0  0  0  0  0  0  0  0  0  0
   53.9090   24.8390   45.5960 C   0  0  0  0  0  0  0  0  0  0  0  0
   54.7800   25.7480   45.9730 O   0  0  0  0  0  0  0  0  0  0  0  0
   56.3258   33.8452   45.4481 H   0  0  0  0  0  0  0  0  0  0  0  0
   57.5059   33.3013   46.7086 H   0  0  0  0  0  0  0  0  0  0  0  0
   62.0518   34.0543   50.4769 H   0  0  0  0  0  0  0  0  0  0  0  0
   64.4259   33.4286   50.0181 H   0  0  0  0  0  0  0  0  0  0  0  0
   65.1912   33.0370   47.6774 H   0  0  0  0  0  0  0  0  0  0  0  0
   63.5890   33.2637   45.7781 H   0  0  0  0  0  0  0  0  0  0  0  0
   60.3328   31.9491   46.8097 H   0  0  0  0  0  0  0  0  0  0  0  0
   61.7382   31.8123   48.8029 H   0  0  0  0  0  0  0  0  0  0  0  0
   62.4826   30.5697   50.8351 H   0  0  0  0  0  0  0  0  0  0  0  0
   61.5050   28.3404   51.3704 H   0  0  0  0  0  0  0  0  0  0  0  0
   59.7766   27.3361   49.8795 H   0  0  0  0  0  0  0  0  0  0  0  0
   58.3626   27.4791   47.8929 H   0  0  0  0  0  0  0  0  0  0  0  0
   58.1099   25.3869   45.8716 H   0  0  0  0  0  0  0  0  0  0  0  0
   57.2142   26.3550   47.1021 H   0  0  0  0  0  0  0  0  0  0  0  0
   56.7574   23.4008   44.8483 H   0  0  0  0  0  0  0  0  0  0  0  0
   54.1191   22.8220   44.6862 H   0  0  0  0  0  0  0  0  0  0  0  0
   52.8164   24.9369   45.6778 H   0  0  0  0  0  0  0  0  0  0  0  0
  1  2  2  0
  2  3  1  0
  3  4  1  0
  4  5  1  0
  5  6  2  0
  6  7  1  0
  7  8  2  0
  7  9  1  0
  9 10  2  0
 10 11  1  0
 11 12  2  0
 12 13  1  0
 13 14  2  0
 14 15  1  0
  2 16  1  0
 16 17  1  0
 17 18  2  0
 18 19  1  0
 19 20  2  0
 20 21  1  0
 21 22  2  0
 22 23  1  0
 23 24  2  0
 24 25  1  0
 25 26  2  0
 26 27  1  0
 27 28  2  0
 27 29  1  0
 29 30  1  0
 30 31  1  0
 31 32  2  0
 32 33  1  0
 33 34  2  0
 34 35  1  0
 15  5  1  0
 26 17  1  0
 35 31  1  0
 14  9  1  0
 24 19  1  0
  3 36  1  0
  3 37  1  0
 10 38  1  0
 11 39  1  0
 12 40  1  0
 13 41  1  0
 18 42  1  0
 20 43  1  0
 21 44  1  0
 22 45  1  0
 23 46  1  0
 25 47  1  0
 30 48  1  0
 30 49  1  0
 32 50  1  0
 33 51  1  0
 34 52  1  0
M  CHG  3  15  -1  16  -1  29  -1
M  END
>  <UniqueID>  (84) 
80

>  <SMILES>  (84) 
O=C(CSc1nc(=O)c2ccccc2[n-]1)[N-]c1cc2ccccc2cc1C(=O)[N-]Cc1ccco1

>  <Energy>  (84) 
94.10975124811758

>  <Genealogy>  (84) 
O=C(CSc1nc(=O)c2ccccc2[n-]1)[N-]c1cc2ccccc2cc1C(=O)[N-]Cc1ccco1 (protonated)
O=C(CSc1nc(=O)c2ccccc2[n-]1)[N-]c1cc2ccccc2cc1C(=O)[N-]Cc1ccco1 (3D coordinates assigned)
O=C(CSc1nc(=O)c2ccccc2[n-]1)[N-]c1cc2ccccc2cc1C(=O)[N-]Cc1ccco1 (optimized conformer: 94.10975124811758 kcal/mol)

>  <smiles>  (84) 
O=C(CSc1nc(=O)c2ccccc2[nH]1)Nc1cc2ccccc2cc1C(=O)NCc1ccco1

>  <score_type>  (84) 
oracle

>  <origin>  (84) 
adg

>  <m_score__min__energy>  (84) 
-14.16

>  <m_primary>  (84) 
energy

$$$$
84:0
     RDKit          3D

 62 65  0  0  0  0  0  0  0  0999 V2000
   57.7840   32.3500   50.6590 N   0  0  0  0  0  0  0  0  0  0  0  0
   57.8260   30.9390   50.8910 C   0  0  0  0  0  0  0  0  0  0  0  0
   56.8980   30.4030   51.5560 O   0  0  0  0  0  0  0  0  0  0  0  0
   58.9420   30.1040   50.3850 C   0  0  0  0  0  0  0  0  0  0  0  0
   60.1560   30.0540   51.0900 C   0  0  0  0  0  0  0  0  0  0  0  0
   61.2100   29.2610   50.6310 C   0  0  0  0  0  0  0  0  0  0  0  0
   61.0660   28.5090   49.4650 C   0  0  0  0  0  0  0  0  0  0  0  0
   59.8650   28.5560   48.7380 C   0  0  0  0  0  0  0  0  0  0  0  0
   59.6720   27.7610   47.5600 N   0  0  0  0  0  0  0  0  0  0  0  0
   59.8910   28.1800   46.2080 C   0  0  0  0  0  0  0  0  0  0  0  0
   60.7720   29.0500   45.9770 O   0  0  0  0  0  0  0  0  0  0  0  0
   59.1630   27.5490   45.0520 C   0  0  0  0  0  0  0  0  0  0  0  0
   58.1810   28.5230   44.4590 C   0  0  0  0  0  0  0  0  0  0  0  0
   57.5490   28.2300   43.2400 C   0  0  0  0  0  0  0  0  0  0  0  0
   56.6430   29.1330   42.6820 C   0  0  0  0  0  0  0  0  0  0  0  0
   56.3740   30.3440   43.3250 C   0  0  0  0  0  0  0  0  0  0  0  0
   57.0220   30.6700   44.5220 C   0  0  0  0  0  0  0  0  0  0  0  0
   56.7020   31.9140   45.1590 N   0  0  0  0  0  0  0  0  0  0  0  0
   57.4580   33.1300   45.0820 C   0  0  0  0  0  0  0  0  0  0  0  0
   56.9920   34.1400   44.4880 O   0  0  0  0  0  0  0  0  0  0  0  0
   58.7850   33.2200   45.7840 C   0  0  0  0  0  0  0  0  0  0  0  0
   58.9710   32.0070   46.7190 C   0  0  0  0  0  0  0  0  0  0  0  0
   60.1820   32.1970   47.6390 C   0  0  0  0  0  0  0  0  0  0  0  0
   60.1030   33.4700   48.3730 N   0  0  0  0  0  0  0  0  0  0  0  0
   60.8590   33.6380   49.5870 C   0  0  0  0  0  0  0  0  0  0  0  0
   60.3170   34.1910   50.5850 O   0  0  0  0  0  0  0  0  0  0  0  0
   62.2590   33.1740   49.6940 C   0  0  0  0  0  0  0  0  0  0  0  0
   62.6710   32.3800   50.7790 C   0  0  0  0  0  0  0  0  0  0  0  0
   63.9930   31.9320   50.8650 C   0  0  0  0  0  0  0  0  0  0  0  0
   64.9100   32.2610   49.8650 C   0  0  0  0  0  0  0  0  0  0  0  0
   64.5070   33.0340   48.7730 C   0  0  0  0  0  0  0  0  0  0  0  0
   63.1860   33.4860   48.6830 C   0  0  0  0  0  0  0  0  0  0  0  0
   59.0670   34.4520   48.0300 C   0  0  0  0  0  0  0  0  0  0  0  0
   58.9510   34.5860   46.5070 C   0  0  0  0  0  0  0  0  0  0  0  0
   57.9170   29.7470   45.0950 C   0  0  0  0  0  0  0  0  0  0  0  0
   58.8020   29.3320   49.2150 C   0  0  0  0  0  0  0  0  0  0  0  0
   58.6010   32.8670   50.2680 H   0  0  0  0  0  0  0  0  0  0  0  0
   56.9560   32.9040   50.9730 H   0  0  0  0  0  0  0  0  0  0  0  0
   60.2774   30.6439   52.0105 H   0  0  0  0  0  0  0  0  0  0  0  0
   62.1565   29.2293   51.1906 H   0  0  0  0  0  0  0  0  0  0  0  0
   61.8953   27.8774   49.1138 H   0  0  0  0  0  0  0  0  0  0  0  0
   59.8912   27.2538   44.2822 H   0  0  0  0  0  0  0  0  0  0  0  0
   58.6167   26.6650   45.4127 H   0  0  0  0  0  0  0  0  0  0  0  0
   57.7689   27.2846   42.7225 H   0  0  0  0  0  0  0  0  0  0  0  0
   56.1398   28.8910   41.7343 H   0  0  0  0  0  0  0  0  0  0  0  0
   55.6484   31.0456   42.8877 H   0  0  0  0  0  0  0  0  0  0  0  0
   59.5929   33.1797   45.0385 H   0  0  0  0  0  0  0  0  0  0  0  0
   58.0677   31.8870   47.3351 H   0  0  0  0  0  0  0  0  0  0  0  0
   59.1402   31.1132   46.1006 H   0  0  0  0  0  0  0  0  0  0  0  0
   60.2161   31.3685   48.3617 H   0  0  0  0  0  0  0  0  0  0  0  0
   61.0901   32.2105   47.0183 H   0  0  0  0  0  0  0  0  0  0  0  0
   61.9496   32.1098   51.5643 H   0  0  0  0  0  0  0  0  0  0  0  0
   64.3108   31.3196   51.7217 H   0  0  0  0  0  0  0  0  0  0  0  0
   65.9505   31.9114   49.9368 H   0  0  0  0  0  0  0  0  0  0  0  0
   65.2293   33.2875   47.9830 H   0  0  0  0  0  0  0  0  0  0  0  0
   62.8709   34.0880   47.8179 H   0  0  0  0  0  0  0  0  0  0  0  0
   58.1017   34.1209   48.4406 H   0  0  0  0  0  0  0  0  0  0  0  0
   59.3407   35.4280   48.4573 H   0  0  0  0  0  0  0  0  0  0  0  0
   58.0765   35.2123   46.2766 H   0  0  0  0  0  0  0  0  0  0  0  0
   59.8875   35.0359   46.1457 H   0  0  0  0  0  0  0  0  0  0  0  0
   58.4130   29.9860   46.0473 H   0  0  0  0  0  0  0  0  0  0  0  0
   57.8465   29.3390   48.6700 H   0  0  0  0  0  0  0  0  0  0  0  0
  1  2  1  0
  2  3  2  0
  2  4  1  0
  4  5  2  0
  5  6  1  0
  6  7  2  0
  7  8  1  0
  8  9  1  0
  9 10  1  0
 10 11  2  0
 10 12  1  0
 12 13  1  0
 13 14  2  0
 14 15  1  0
 15 16  2  0
 16 17  1  0
 17 18  1  0
 18 19  1  0
 19 20  2  0
 19 21  1  0
 21 22  1  0
 22 23  1  0
 23 24  1  0
 24 25  1  0
 25 26  2  0
 25 27  1  0
 27 28  2  0
 28 29  1  0
 29 30  2  0
 30 31  1  0
 31 32  2  0
 24 33  1  0
 33 34  1  0
 17 35  2  0
  8 36  2  0
 36  4  1  0
 35 13  1  0
 34 21  1  0
 32 27  1  0
  1 37  1  0
  1 38  1  0
  5 39  1  0
  6 40  1  0
  7 41  1  0
 12 42  1  0
 12 43  1  0
 14 44  1  0
 15 45  1  0
 16 46  1  0
 21 47  1  0
 22 48  1  0
 22 49  1  0
 23 50  1  0
 23 51  1  0
 28 52  1  0
 29 53  1  0
 30 54  1  0
 31 55  1  0
 32 56  1  0
 33 57  1  0
 33 58  1  0
 34 59  1  0
 34 60  1  0
 35 61  1  0
 36 62  1  0
M  CHG  2   9  -1  18  -1
M  END
>  <UniqueID>  (85) 
81

>  <SMILES>  (85) 
NC(=O)c1cccc([N-]C(=O)Cc2cccc([N-]C(=O)C3CCN(C(=O)c4ccccc4)CC3)c2)c1

>  <Energy>  (85) 
80.64778362255603

>  <Genealogy>  (85) 
NC(=O)c1cccc([N-]C(=O)Cc2cccc([N-]C(=O)C3CCN(C(=O)c4ccccc4)CC3)c2)c1 (protonated)
NC(=O)c1cccc([N-]C(=O)Cc2cccc([N-]C(=O)C3CCN(C(=O)c4ccccc4)CC3)c2)c1 (3D coordinates assigned)
NC(=O)c1cccc([N-]C(=O)Cc2cccc([N-]C(=O)C3CCN(C(=O)c4ccccc4)CC3)c2)c1 (nonaromatic ring conformer: 80.64778362255603 kcal/mol)

>  <smiles>  (85) 
NC(=O)c1cccc(NC(=O)Cc2cccc(NC(=O)C3CCN(C(=O)c4ccccc4)CC3)c2)c1

>  <score_type>  (85) 
oracle

>  <origin>  (85) 
adg

>  <m_score__min__energy>  (85) 
-13.529999999999999

>  <m_primary>  (85) 
energy

$$$$
85:0
     RDKit          3D

 54 57  0  0  0  0  0  0  0  0999 V2000
   59.7160   29.1060   49.3650 C   0  0  0  0  0  0  0  0  0  0  0  0
   59.6390   28.5460   47.9820 C   0  0  0  0  0  0  0  0  0  0  0  0
   58.9500   27.4790   47.6620 O   0  0  0  0  0  0  0  0  0  0  0  0
   59.0900   27.3010   46.3660 C   0  0  0  0  0  0  0  0  0  0  0  0
   58.4660   26.1920   45.6170 C   0  0  0  0  0  0  0  0  0  0  0  0
   58.0270   26.3910   44.2960 C   0  0  0  0  0  0  0  0  0  0  0  0
   57.4390   25.3420   43.5800 C   0  0  0  0  0  0  0  0  0  0  0  0
   57.2850   24.0850   44.1780 C   0  0  0  0  0  0  0  0  0  0  0  0
   56.6730   23.0070   43.4450 C   0  0  0  0  0  0  0  0  0  0  0  0
   56.1820   22.1390   42.8580 N   0  0  0  0  0  0  0  0  0  0  0  0
   57.7190   23.8800   45.4940 C   0  0  0  0  0  0  0  0  0  0  0  0
   58.3060   24.9270   46.2100 C   0  0  0  0  0  0  0  0  0  0  0  0
   59.8650   28.2480   45.7920 N   0  0  0  0  0  0  0  0  0  0  0  0
   60.2170   29.0380   46.8260 C   0  0  0  0  0  0  0  0  0  0  0  0
   61.0600   30.2730   46.6560 C   0  0  0  0  0  0  0  0  0  0  0  0
   60.3340   31.5060   47.0970 N   0  0  1  0  0  0  0  0  0  0  0  0
   61.2240   32.5330   47.6310 C   0  0  0  0  0  0  0  0  0  0  0  0
   62.4270   32.3500   47.7440 O   0  0  0  0  0  0  0  0  0  0  0  0
   60.6570   33.8510   48.0840 C   0  0  0  0  0  0  0  0  0  0  0  0
   59.1880   33.9700   47.6770 C   0  0  0  0  0  0  0  0  0  0  0  0
   59.0170   33.5230   46.2220 C   0  0  0  0  0  0  0  0  0  0  0  0
   59.4930   32.0540   45.9870 C   0  0  2  0  0  0  0  0  0  0  0  0
   58.2760   31.1660   45.7660 C   0  0  0  0  0  0  0  0  0  0  0  0
   57.7660   30.5800   46.7590 O   0  0  0  0  0  0  0  0  0  0  0  0
   57.6920   30.9770   44.4630 N   0  0  0  0  0  0  0  0  0  0  0  0
   56.6510   29.9940   44.2120 C   0  0  0  0  0  0  0  0  0  0  0  0
   56.4250   30.0110   42.7070 C   0  0  0  0  0  0  0  0  0  0  0  0
   57.0310   31.3220   42.2120 C   0  0  0  0  0  0  0  0  0  0  0  0
   58.0340   31.7460   43.2760 C   0  0  0  0  0  0  0  0  0  0  0  0
   59.6041   28.2924   50.0968 H   0  0  0  0  0  0  0  0  0  0  0  0
   60.6901   29.5966   49.5082 H   0  0  0  0  0  0  0  0  0  0  0  0
   58.9105   29.8413   49.5082 H   0  0  0  0  0  0  0  0  0  0  0  0
   58.1464   27.3768   43.8227 H   0  0  0  0  0  0  0  0  0  0  0  0
   57.0977   25.5049   42.5471 H   0  0  0  0  0  0  0  0  0  0  0  0
   57.5976   22.8932   45.9647 H   0  0  0  0  0  0  0  0  0  0  0  0
   58.6447   24.7606   47.2432 H   0  0  0  0  0  0  0  0  0  0  0  0
   61.9754   30.1648   47.2562 H   0  0  0  0  0  0  0  0  0  0  0  0
   61.2986   30.3801   45.5875 H   0  0  0  0  0  0  0  0  0  0  0  0
   59.6960   31.2540   47.8900 H   0  0  0  0  0  0  0  0  0  0  0  0
   60.7362   33.9221   49.1788 H   0  0  0  0  0  0  0  0  0  0  0  0
   61.2248   34.6647   47.6092 H   0  0  0  0  0  0  0  0  0  0  0  0
   58.5749   33.3315   48.3300 H   0  0  0  0  0  0  0  0  0  0  0  0
   58.8664   35.0172   47.7763 H   0  0  0  0  0  0  0  0  0  0  0  0
   57.9528   33.5961   45.9534 H   0  0  0  0  0  0  0  0  0  0  0  0
   59.6386   34.1797   45.5956 H   0  0  0  0  0  0  0  0  0  0  0  0
   60.1390   32.0646   45.0967 H   0  0  0  0  0  0  0  0  0  0  0  0
   56.9782   28.9962   44.5397 H   0  0  0  0  0  0  0  0  0  0  0  0
   55.7290   30.2281   44.7643 H   0  0  0  0  0  0  0  0  0  0  0  0
   56.9270   29.1540   42.2342 H   0  0  0  0  0  0  0  0  0  0  0  0
   55.3564   29.9380   42.4565 H   0  0  0  0  0  0  0  0  0  0  0  0
   57.5377   31.1693   41.2477 H   0  0  0  0  0  0  0  0  0  0  0  0
   56.2592   32.0900   42.0556 H   0  0  0  0  0  0  0  0  0  0  0  0
   59.0593   31.5154   42.9511 H   0  0  0  0  0  0  0  0  0  0  0  0
   57.9932   32.8287   43.4661 H   0  0  0  0  0  0  0  0  0  0  0  0
  1  2  1  0
  2  3  1  0
  3  4  1  0
  4  5  1  0
  5  6  2  0
  6  7  1  0
  7  8  2  0
  8  9  1  0
  9 10  3  0
  8 11  1  0
 11 12  2  0
  4 13  2  0
 13 14  1  0
 14 15  1  0
 15 16  1  0
 16 17  1  0
 17 18  2  0
 17 19  1  0
 19 20  1  0
 20 21  1  0
 21 22  1  0
 22 23  1  0
 23 24  2  0
 23 25  1  0
 25 26  1  0
 26 27  1  0
 27 28  1  0
 28 29  1  0
 14  2  2  0
 22 16  1  0
 29 25  1  0
 12  5  1  0
  1 30  1  0
  1 31  1  0
  1 32  1  0
  6 33  1  0
  7 34  1  0
 11 35  1  0
 12 36  1  0
 15 37  1  0
 15 38  1  0
 16 39  1  1
 19 40  1  0
 19 41  1  0
 20 42  1  0
 20 43  1  0
 21 44  1  0
 21 45  1  0
 22 46  1  6
 26 47  1  0
 26 48  1  0
 27 49  1  0
 27 50  1  0
 28 51  1  0
 28 52  1  0
 29 53  1  0
 29 54  1  0
M  CHG  1  16   1
M  END
>  <UniqueID>  (86) 
82

>  <SMILES>  (86) 
Cc1oc(-c2ccc(C#N)cc2)nc1C[N@H+]1C(=O)CCC[C@@H]1C(=O)N1CCCC1

>  <Energy>  (86) 
95.32196689720683

>  <Genealogy>  (86) 
Cc1oc(-c2ccc(C#N)cc2)nc1C[NH+]1C(=O)CCCC1C(=O)N1CCCC1 (protonated)
Cc1oc(-c2ccc(C#N)cc2)nc1C[N@H+]1C(=O)CCC[C@@H]1C(=O)N1CCCC1 (chirality)
Cc1oc(-c2ccc(C#N)cc2)nc1C[N@H+]1C(=O)CCC[C@@H]1C(=O)N1CCCC1 (3D coordinates assigned)
Cc1oc(-c2ccc(C#N)cc2)nc1C[N@H+]1C(=O)CCC[C@@H]1C(=O)N1CCCC1 (nonaromatic ring conformer: 95.32196689720683 kcal/mol)

>  <smiles>  (86) 
Cc1oc(-c2ccc(C#N)cc2)nc1CN1C(=O)CCCC1C(=O)N1CCCC1

>  <score_type>  (86) 
oracle

>  <origin>  (86) 
adg

>  <m_score__min__energy>  (86) 
-7.4100000000000001

>  <m_primary>  (86) 
energy

$$$$
86:0
     RDKit          3D

 50 52  0  0  0  0  0  0  0  0999 V2000
   57.0870   22.3970   45.0830 C   0  0  0  0  0  0  0  0  0  0  0  0
   57.3170   23.0580   43.7420 C   0  0  0  0  0  0  0  0  0  0  0  0
   56.3970   22.4110   42.7230 C   0  0  0  0  0  0  0  0  0  0  0  0
   57.0190   24.4780   43.7590 N   0  0  0  0  0  0  0  0  0  0  0  0
   57.7500   25.3900   44.5630 C   0  0  0  0  0  0  0  0  0  0  0  0
   58.6770   24.9330   45.2710 O   0  0  0  0  0  0  0  0  0  0  0  0
   57.4690   26.8070   44.5940 C   0  0  0  0  0  0  0  0  0  0  0  0
   57.7710   27.5530   43.4510 C   0  0  0  0  0  0  0  0  0  0  0  0
   57.5060   28.9170   43.4650 C   0  0  0  0  0  0  0  0  0  0  0  0
   56.9500   29.5180   44.6000 C   0  0  0  0  0  0  0  0  0  0  0  0
   56.7210   30.8740   44.5220 O   0  0  0  0  0  0  0  0  0  0  0  0
   57.5820   31.8550   44.9790 C   0  0  0  0  0  0  0  0  0  0  0  0
   57.5070   33.1800   44.6070 C   0  0  0  0  0  0  0  0  0  0  0  0
   58.4220   34.0710   45.1270 C   0  0  0  0  0  0  0  0  0  0  0  0
   59.4180   33.7000   46.0100 C   0  0  0  0  0  0  0  0  0  0  0  0
   60.3730   34.7150   46.5390 C   0  0  0  0  0  0  0  0  0  0  0  0
   61.5000   34.1500   47.2840 C   0  0  0  0  0  0  0  0  0  0  0  0
   62.6120   33.6650   46.5850 C   0  0  0  0  0  0  0  0  0  0  0  0
   63.6660   33.1350   47.2370 N   0  0  0  0  0  0  0  0  0  0  0  0
   63.7090   33.0420   48.5920 C   0  0  0  0  0  0  0  0  0  0  0  0
   64.7070   32.5390   49.2190 N   0  0  0  0  0  0  0  0  0  0  0  0
   62.6410   33.5070   49.2860 N   0  0  0  0  0  0  0  0  0  0  0  0
   61.5720   34.0430   48.6560 C   0  0  0  0  0  0  0  0  0  0  0  0
   60.6140   34.4590   49.3720 N   0  0  0  0  0  0  0  0  0  0  0  0
   59.4670   32.3690   46.3610 C   0  0  0  0  0  0  0  0  0  0  0  0
   58.5720   31.4500   45.8630 C   0  0  0  0  0  0  0  0  0  0  0  0
   56.6650   28.7810   45.6930 N   0  0  0  0  0  0  0  0  0  0  0  0
   56.9300   27.4750   45.6520 C   0  0  0  0  0  0  0  0  0  0  0  0
   57.3334   23.1051   45.8879 H   0  0  0  0  0  0  0  0  0  0  0  0
   56.0319   22.0978   45.1681 H   0  0  0  0  0  0  0  0  0  0  0  0
   57.7284   21.5074   45.1681 H   0  0  0  0  0  0  0  0  0  0  0  0
   58.3805   22.9307   43.4917 H   0  0  0  0  0  0  0  0  0  0  0  0
   55.6052   21.8541   43.2454 H   0  0  0  0  0  0  0  0  0  0  0  0
   55.9429   23.1896   42.0925 H   0  0  0  0  0  0  0  0  0  0  0  0
   56.9762   21.7203   42.0925 H   0  0  0  0  0  0  0  0  0  0  0  0
   56.2370   24.8050   43.1520 H   0  0  0  0  0  0  0  0  0  0  0  0
   58.2074   27.0724   42.5630 H   0  0  0  0  0  0  0  0  0  0  0  0
   57.7345   29.5277   42.5791 H   0  0  0  0  0  0  0  0  0  0  0  0
   56.7301   33.5211   43.9069 H   0  0  0  0  0  0  0  0  0  0  0  0
   58.3559   35.1266   44.8247 H   0  0  0  0  0  0  0  0  0  0  0  0
   60.7737   35.2871   45.6892 H   0  0  0  0  0  0  0  0  0  0  0  0
   59.8088   35.3403   47.2466 H   0  0  0  0  0  0  0  0  0  0  0  0
   62.6257   33.7173   45.4863 H   0  0  0  0  0  0  0  0  0  0  0  0
   64.5100   32.7660   46.7250 H   0  0  0  0  0  0  0  0  0  0  0  0
   65.6790   32.6850   48.8490 H   0  0  0  0  0  0  0  0  0  0  0  0
   62.6540   33.4450   50.3320 H   0  0  0  0  0  0  0  0  0  0  0  0
   59.9700   35.2390   49.1970 H   0  0  0  0  0  0  0  0  0  0  0  0
   60.2453   32.0303   47.0607 H   0  0  0  0  0  0  0  0  0  0  0  0
   58.6413   30.3947   46.1656 H   0  0  0  0  0  0  0  0  0  0  0  0
   56.6929   26.8858   46.5501 H   0  0  0  0  0  0  0  0  0  0  0  0
  1  2  1  0
  2  3  1  0
  2  4  1  0
  4  5  1  0
  5  6  2  0
  5  7  1  0
  7  8  2  0
  8  9  1  0
  9 10  2  0
 10 11  1  0
 11 12  1  0
 12 13  2  0
 13 14  1  0
 14 15  2  0
 15 16  1  0
 16 17  1  0
 17 18  2  0
 18 19  1  0
 19 20  1  0
 20 21  2  3
 20 22  1  0
 22 23  1  0
 23 24  2  3
 15 25  1  0
 25 26  2  0
 10 27  1  0
 27 28  2  0
 28  7  1  0
 26 12  1  0
 23 17  1  0
  1 29  1  0
  1 30  1  0
  1 31  1  0
  2 32  1  0
  3 33  1  0
  3 34  1  0
  3 35  1  0
  4 36  1  0
  8 37  1  0
  9 38  1  0
 13 39  1  0
 14 40  1  0
 16 41  1  0
 16 42  1  0
 18 43  1  0
 19 44  1  0
 21 45  1  0
 22 46  1  0
 24 47  1  0
 25 48  1  0
 26 49  1  0
 28 50  1  0
M  END
>  <smiles>  (87) 
CC(C)NC(=O)c1ccc(Oc2ccc(Cc3c[nH]c(=N)[nH]c3=N)cc2)nc1

>  <score_type>  (87) 
oracle

>  <origin>  (87) 
adg

>  <m_score__min__energy>  (87) 
-8.1199999999999992

>  <m_primary>  (87) 
energy

$$$$
87:0
     RDKit          3D

 37 39  0  0  0  0  0  0  0  0999 V2000
   60.8970   27.7530   45.5090 H   0  0  0  0  0  0  0  0  0  0  0  0
   60.3980   27.0030   45.9740 O   0  0  0  0  0  0  0  0  0  0  0  0
   59.0060   26.9390   45.9620 C   0  0  0  0  0  0  0  0  0  0  0  0
   58.3620   25.8200   46.4990 C   0  0  0  0  0  0  0  0  0  0  0  0
   58.9558   24.9931   46.9156 H   0  0  0  0  0  0  0  0  0  0  0  0
   56.9670   25.7490   46.5080 C   0  0  0  0  0  0  0  0  0  0  0  0
   56.4654   24.8702   46.9395 H   0  0  0  0  0  0  0  0  0  0  0  0
   56.2060   26.7920   45.9700 C   0  0  0  0  0  0  0  0  0  0  0  0
   54.8180   26.7070   45.9960 O   0  0  0  0  0  0  0  0  0  0  0  0
   56.8430   27.9100   45.4030 C   0  0  0  0  0  0  0  0  0  0  0  0
   56.0370   29.0340   44.8830 C   0  0  0  0  0  0  0  0  0  0  0  0
   54.9420   28.9344   44.9144 H   0  0  0  0  0  0  0  0  0  0  0  0
   56.5450   30.1680   44.3750 C   0  0  0  0  0  0  0  0  0  0  0  0
   57.0080   31.1650   45.1510 N   0  0  0  0  0  0  0  0  0  0  0  0
   57.4020   32.1190   44.2740 C   0  0  0  0  0  0  0  0  0  0  0  0
   57.9590   33.2840   44.6350 C   0  0  0  0  0  0  0  0  0  0  0  0
   57.7736   34.1602   43.9963 H   0  0  0  0  0  0  0  0  0  0  0  0
   58.8070   33.4720   45.8350 C   0  0  0  0  0  0  0  0  0  0  0  0
   58.2680   33.4650   47.1340 C   0  0  0  0  0  0  0  0  0  0  0  0
   57.1907   33.2967   47.2795 H   0  0  0  0  0  0  0  0  0  0  0  0
   59.0960   33.6710   48.2400 C   0  0  0  0  0  0  0  0  0  0  0  0
   58.6698   33.6513   49.2539 H   0  0  0  0  0  0  0  0  0  0  0  0
   60.4630   33.9020   48.0650 C   0  0  0  0  0  0  0  0  0  0  0  0
   61.2730   34.1020   49.1760 O   0  0  0  0  0  0  0  0  0  0  0  0
   61.0140   33.9380   46.7770 C   0  0  0  0  0  0  0  0  0  0  0  0
   62.3910   34.1810   46.6450 O   0  0  0  0  0  0  0  0  0  0  0  0
   63.4130   33.3130   47.1240 C   0  0  0  0  0  0  0  0  0  0  0  0
   63.4103   33.3153   48.2240 H   0  0  0  0  0  0  0  0  0  0  0  0
   63.2277   32.2920   46.7590 H   0  0  0  0  0  0  0  0  0  0  0  0
   64.3906   33.6611   46.7590 H   0  0  0  0  0  0  0  0  0  0  0  0
   60.1760   33.7300   45.6630 C   0  0  0  0  0  0  0  0  0  0  0  0
   60.5991   33.7703   44.6484 H   0  0  0  0  0  0  0  0  0  0  0  0
   57.2130   31.7820   42.9790 N   0  0  0  0  0  0  0  0  0  0  0  0
   56.6660   30.5580   43.0550 C   0  0  0  0  0  0  0  0  0  0  0  0
   56.2950   29.9080   42.0420 O   0  0  0  0  0  0  0  0  0  0  0  0
   58.2470   27.9870   45.4250 C   0  0  0  0  0  0  0  0  0  0  0  0
   58.7523   28.8754   45.0182 H   0  0  0  0  0  0  0  0  0  0  0  0
  1  2  1  0
  2  3  1  0
  3  4  2  0
  4  5  1  0
  4  6  1  0
  6  7  1  0
  6  8  2  0
  8  9  1  0
  8 10  1  0
 10 11  1  0
 11 12  1  0
 11 13  2  0
 13 14  1  0
 14 15  1  0
 15 16  2  3
 16 17  1  0
 16 18  1  0
 18 19  2  0
 19 20  1  0
 19 21  1  0
 21 22  1  0
 21 23  2  0
 23 24  1  0
 23 25  1  0
 25 26  1  0
 26 27  1  0
 27 28  1  0
 27 29  1  0
 27 30  1  0
 25 31  2  0
 31 32  1  0
 15 33  1  0
 33 34  1  0
 34 35  2  0
 10 36  2  0
 36 37  1  0
 36  3  1  0
 34 13  1  0
 31 18  1  0
M  CHG  4   9  -1  14  -1  24  -1  33  -1
M  END
>  <UniqueID>  (88) 
83

>  <SMILES>  (88) 
COc1cc(C=c2[n-]c(=O)/c(=C\c3cc(O)ccc3[O-])[n-]2)ccc1[O-]

>  <Energy>  (88) 
81.813913579652

>  <Genealogy>  (88) 
COc1cc(C=c2[n-]c(=O)c(=Cc3cc(O)ccc3[O-])[n-]2)ccc1[O-] (protonated)
COc1cc(C=c2[n-]c(=O)/c(=C\c3cc(O)ccc3[O-])[n-]2)ccc1[O-] (cis-trans isomerization)
COc1cc(C=c2[n-]c(=O)/c(=C\c3cc(O)ccc3[O-])[n-]2)ccc1[O-] (3D coordinates assigned)
COc1cc(C=c2[n-]c(=O)/c(=C\c3cc(O)ccc3[O-])[n-]2)ccc1[O-] (optimized conformer: 81.813913579652 kcal/mol)

>  <smiles>  (88) 
COc1cc(C=c2[nH]c(=O)c(=Cc3cc(O)ccc3O)[nH]2)ccc1O

>  <score_type>  (88) 
oracle

>  <origin>  (88) 
adg

>  <m_score__min__energy>  (88) 
-13.91

>  <m_primary>  (88) 
energy

$$$$
88:0
     RDKit          3D

 54 57  0  0  0  0  0  0  0  0999 V2000
   54.3760   26.7040   45.2320 H   0  0  0  0  0  0  0  0  0  0  0  0
   55.1590   26.5090   45.8410 O   0  0  0  0  0  0  0  0  0  0  0  0
   56.3630   27.2140   45.7910 C   0  0  0  0  0  0  0  0  0  0  0  0
   56.3590   28.4950   45.2340 C   0  0  0  0  0  0  0  0  0  0  0  0
   55.1750   29.0420   44.7550 O   0  0  0  0  0  0  0  0  0  0  0  0
   57.5380   29.2340   45.1570 C   0  0  0  0  0  0  0  0  0  0  0  0
   57.5206   30.2407   44.7139 H   0  0  0  0  0  0  0  0  0  0  0  0
   58.7470   28.7090   45.6380 C   0  0  0  0  0  0  0  0  0  0  0  0
   60.0090   29.5260   45.4860 C   0  0  0  0  0  0  0  0  0  0  0  0
   59.9426   30.1254   44.5661 H   0  0  0  0  0  0  0  0  0  0  0  0
   60.8691   28.8422   45.4345 H   0  0  0  0  0  0  0  0  0  0  0  0
   60.1910   30.4420   46.6580 C   0  0  0  0  0  0  0  0  0  0  0  0
   58.9560   31.0400   47.6310 S   0  0  0  0  0  0  0  0  0  0  0  0
   60.0150   31.9510   48.5780 C   0  0  0  0  0  0  0  0  0  0  0  0
   59.6940   32.6890   49.5980 N   0  0  0  0  0  0  0  0  0  0  0  0
   59.4090   32.2430   50.9320 C   0  0  0  0  0  0  0  0  0  0  0  0
   60.3380   31.7080   51.5940 O   0  0  0  0  0  0  0  0  0  0  0  0
   58.0890   32.5440   51.6130 C   0  0  1  0  0  0  0  0  0  0  0  0
   57.3535   32.7794   50.8296 H   0  0  0  0  0  0  0  0  0  0  0  0
   57.5640   31.3390   52.3750 C   0  0  0  0  0  0  0  0  0  0  0  0
   58.3240   30.7290   53.3920 C   0  0  0  0  0  0  0  0  0  0  0  0
   59.3148   31.1318   53.6490 H   0  0  0  0  0  0  0  0  0  0  0  0
   57.8290   29.6160   54.0770 C   0  0  0  0  0  0  0  0  0  0  0  0
   58.4296   29.1505   54.8723 H   0  0  0  0  0  0  0  0  0  0  0  0
   56.5760   29.0930   53.7560 C   0  0  0  0  0  0  0  0  0  0  0  0
   56.1955   28.2117   54.2932 H   0  0  0  0  0  0  0  0  0  0  0  0
   55.8000   29.6880   52.7500 C   0  0  0  0  0  0  0  0  0  0  0  0
   54.4770   29.0850   52.3590 C   0  0  0  0  0  0  0  0  0  0  0  0
   54.5805   28.5889   51.3827 H   0  0  0  0  0  0  0  0  0  0  0  0
   54.1792   28.3562   53.1272 H   0  0  0  0  0  0  0  0  0  0  0  0
   53.4160   30.1490   52.2630 C   0  0  0  0  0  0  0  0  0  0  0  0
   53.2730   30.9120   51.0920 C   0  0  0  0  0  0  0  0  0  0  0  0
   53.9397   30.7313   50.2359 H   0  0  0  0  0  0  0  0  0  0  0  0
   52.2870   31.9000   51.0100 C   0  0  0  0  0  0  0  0  0  0  0  0
   52.1788   32.4925   50.0896 H   0  0  0  0  0  0  0  0  0  0  0  0
   51.4390   32.1360   52.0950 C   0  0  0  0  0  0  0  0  0  0  0  0
   50.4590   33.1180   52.0130 O   0  0  0  0  0  0  0  0  0  0  0  0
   51.5780   31.3850   53.2670 C   0  0  0  0  0  0  0  0  0  0  0  0
   50.9116   31.5712   54.1221 H   0  0  0  0  0  0  0  0  0  0  0  0
   52.5640   30.3980   53.3510 C   0  0  0  0  0  0  0  0  0  0  0  0
   52.6733   29.8123   54.2757 H   0  0  0  0  0  0  0  0  0  0  0  0
   56.2940   30.8150   52.0720 C   0  0  0  0  0  0  0  0  0  0  0  0
   55.6802   31.2936   51.2947 H   0  0  0  0  0  0  0  0  0  0  0  0
   58.2210   33.7650   52.5320 C   0  0  0  0  0  0  0  0  0  0  0  0
   58.1858   33.4391   53.5820 H   0  0  0  0  0  0  0  0  0  0  0  0
   59.1789   34.2692   52.3365 H   0  0  0  0  0  0  0  0  0  0  0  0
   57.3930   34.4623   52.3365 H   0  0  0  0  0  0  0  0  0  0  0  0
   61.2980   31.7860   48.1880 N   0  0  0  0  0  0  0  0  0  0  0  0
   61.4010   30.9520   47.1200 C   0  0  0  0  0  0  0  0  0  0  0  0
   62.3660   30.6994   46.6564 H   0  0  0  0  0  0  0  0  0  0  0  0
   58.7600   27.4150   46.2090 C   0  0  0  0  0  0  0  0  0  0  0  0
   60.4000   26.6700   46.8970 Br  0  0  0  0  0  0  0  0  0  0  0  0
   57.5650   26.6670   46.2850 C   0  0  0  0  0  0  0  0  0  0  0  0
   57.5780   24.9040   47.0570 Br  0  0  0  0  0  0  0  0  0  0  0  0
  1  2  1  0
  2  3  1  0
  3  4  2  0
  4  5  1  0
  4  6  1  0
  6  7  1  0
  6  8  2  0
  8  9  1  0
  9 10  1  0
  9 11  1  0
  9 12  1  0
 12 13  1  0
 13 14  1  0
 14 15  2  0
 15 16  1  0
 16 17  2  0
 16 18  1  0
 18 19  1  6
 18 20  1  0
 20 21  2  0
 21 22  1  0
 21 23  1  0
 23 24  1  0
 23 25  2  0
 25 26  1  0
 25 27  1  0
 27 28  1  0
 28 29  1  0
 28 30  1  0
 28 31  1  0
 31 32  2  0
 32 33  1  0
 32 34  1  0
 34 35  1  0
 34 36  2  0
 36 37  1  0
 36 38  1  0
 38 39  1  0
 38 40  2  0
 40 41  1  0
 27 42  2  0
 42 43  1  0
 18 44  1  0
 44 45  1  0
 44 46  1  0
 44 47  1  0
 14 48  1  0
 48 49  1  0
 49 50  1  0
  8 51  1  0
 51 52  1  0
 51 53  2  0
 53 54  1  0
 53  3  1  0
 49 12  2  0
 42 20  1  0
 40 31  1  0
M  CHG  3   5  -1  37  -1  48  -1
M  END
>  <UniqueID>  (89) 
84

>  <SMILES>  (89) 
C[C@@H](C(=O)/N=c1/[n-]cc(Cc2cc([O-])c(O)c(Br)c2Br)s1)c1cccc(Cc2ccc([O-])cc2)c1

>  <Energy>  (89) 
93.49856653037482

>  <Genealogy>  (89) 
CC(C(=O)N=c1[n-]cc(Cc2cc([O-])c(O)c(Br)c2Br)s1)c1cccc(Cc2ccc([O-])cc2)c1 (protonated)
C[C@@H](C(=O)N=c1[n-]cc(Cc2cc([O-])c(O)c(Br)c2Br)s1)c1cccc(Cc2ccc([O-])cc2)c1 (chirality)
C[C@@H](C(=O)/N=c1/[n-]cc(Cc2cc([O-])c(O)c(Br)c2Br)s1)c1cccc(Cc2ccc([O-])cc2)c1 (cis-trans isomerization)
C[C@@H](C(=O)/N=c1/[n-]cc(Cc2cc([O-])c(O)c(Br)c2Br)s1)c1cccc(Cc2ccc([O-])cc2)c1 (3D coordinates assigned)
C[C@@H](C(=O)/N=c1/[n-]cc(Cc2cc([O-])c(O)c(Br)c2Br)s1)c1cccc(Cc2ccc([O-])cc2)c1 (optimized conformer: 93.49856653037482 kcal/mol)

>  <smiles>  (89) 
CC(C(=O)N=c1[nH]cc(Cc2cc(O)c(O)c(Br)c2Br)s1)c1cccc(Cc2ccc(O)cc2)c1

>  <score_type>  (89) 
oracle

>  <origin>  (89) 
adg

>  <m_score__min__energy>  (89) 
-20.079999999999998

>  <m_primary>  (89) 
energy

$$$$
89:0
     RDKit          3D

 44 46  0  0  0  0  0  0  0  0999 V2000
   58.3860   31.9890   47.1010 O   0  0  0  0  0  0  0  0  0  0  0  0
   58.5670   32.5820   48.1970 C   0  0  0  0  0  0  0  0  0  0  0  0
   59.2330   33.9200   48.2130 C   0  0  0  0  0  0  0  0  0  0  0  0
   60.7280   33.7480   48.1980 C   0  0  0  0  0  0  0  0  0  0  0  0
   61.3670   33.1920   47.0760 C   0  0  0  0  0  0  0  0  0  0  0  0
   62.7560   33.0370   47.0640 C   0  0  0  0  0  0  0  0  0  0  0  0
   63.5170   33.4520   48.1610 C   0  0  0  0  0  0  0  0  0  0  0  0
   62.8920   34.0360   49.2670 C   0  0  0  0  0  0  0  0  0  0  0  0
   61.5030   34.1870   49.2870 C   0  0  0  0  0  0  0  0  0  0  0  0
   58.2430   31.9470   49.4370 N   0  0  0  0  0  0  0  0  0  0  0  0
   59.0990   31.0970   50.2100 C   0  0  0  0  0  0  0  0  0  0  0  0
   60.4990   31.1480   50.0920 C   0  0  0  0  0  0  0  0  0  0  0  0
   61.3000   30.3130   50.8730 C   0  0  0  0  0  0  0  0  0  0  0  0
   60.7140   29.4120   51.7660 C   0  0  0  0  0  0  0  0  0  0  0  0
   59.3230   29.3440   51.8790 C   0  0  0  0  0  0  0  0  0  0  0  0
   58.5130   30.1840   51.1020 C   0  0  0  0  0  0  0  0  0  0  0  0
   57.1220   30.1150   51.1970 O   0  0  0  0  0  0  0  0  0  0  0  0
   56.2390   30.9820   52.3770 S   0  0  0  0  0  0  0  0  0  0  0  0
   56.7410   30.5730   53.7340 O   0  0  0  0  0  0  0  0  0  0  0  0
   56.4350   32.4630   52.2120 O   0  0  0  0  0  0  0  0  0  0  0  0
   54.5230   30.6010   52.2330 C   0  0  0  0  0  0  0  0  0  0  0  0
   54.0570   29.3250   52.5770 C   0  0  0  0  0  0  0  0  0  0  0  0
   52.7000   29.0180   52.4650 C   0  0  0  0  0  0  0  0  0  0  0  0
   51.8000   29.9750   51.9920 C   0  0  0  0  0  0  0  0  0  0  0  0
   52.2500   31.2570   51.6320 C   0  0  0  0  0  0  0  0  0  0  0  0
   51.2950   32.2660   51.1240 C   0  0  0  0  0  0  0  0  0  0  0  0
   51.0380   32.3410   49.8960 O   0  0  0  0  0  0  0  0  0  0  0  0
   50.6590   33.1390   51.9980 O   0  0  0  0  0  0  0  0  0  0  0  0
   53.6170   31.5630   51.7610 C   0  0  0  0  0  0  0  0  0  0  0  0
   58.9228   34.4925   47.3264 H   0  0  0  0  0  0  0  0  0  0  0  0
   58.9396   34.4598   49.1255 H   0  0  0  0  0  0  0  0  0  0  0  0
   60.7724   32.8782   46.2054 H   0  0  0  0  0  0  0  0  0  0  0  0
   63.2511   32.5879   46.1904 H   0  0  0  0  0  0  0  0  0  0  0  0
   64.6089   33.3189   48.1539 H   0  0  0  0  0  0  0  0  0  0  0  0
   63.4942   34.3769   50.1221 H   0  0  0  0  0  0  0  0  0  0  0  0
   61.0141   34.6504   50.1566 H   0  0  0  0  0  0  0  0  0  0  0  0
   60.9645   31.8478   49.3823 H   0  0  0  0  0  0  0  0  0  0  0  0
   62.3953   30.3644   50.7852 H   0  0  0  0  0  0  0  0  0  0  0  0
   61.3481   28.7559   52.3803 H   0  0  0  0  0  0  0  0  0  0  0  0
   58.8629   28.6305   52.5785 H   0  0  0  0  0  0  0  0  0  0  0  0
   54.7634   28.5623   52.9367 H   0  0  0  0  0  0  0  0  0  0  0  0
   52.3385   28.0190   52.7503 H   0  0  0  0  0  0  0  0  0  0  0  0
   50.7329   29.7242   51.9006 H   0  0  0  0  0  0  0  0  0  0  0  0
   53.9790   32.5656   51.4894 H   0  0  0  0  0  0  0  0  0  0  0  0
  1  2  2  0
  2  3  1  0
  3  4  1  0
  4  5  2  0
  5  6  1  0
  6  7  2  0
  7  8  1  0
  8  9  2  0
  2 10  1  0
 10 11  1  0
 11 12  2  0
 12 13  1  0
 13 14  2  0
 14 15  1  0
 15 16  2  0
 16 17  1  0
 17 18  1  0
 18 19  2  0
 18 20  2  0
 18 21  1  0
 21 22  2  0
 22 23  1  0
 23 24  2  0
 24 25  1  0
 25 26  1  0
 26 27  2  0
 26 28  1  0
 25 29  2  0
  9  4  1  0
 16 11  1  0
 29 21  1  0
  3 30  1  0
  3 31  1  0
  5 32  1  0
  6 33  1  0
  7 34  1  0
  8 35  1  0
  9 36  1  0
 12 37  1  0
 13 38  1  0
 14 39  1  0
 15 40  1  0
 22 41  1  0
 23 42  1  0
 24 43  1  0
 29 44  1  0
M  CHG  2  10  -1  28  -1
M  END
>  <UniqueID>  (90) 
85

>  <SMILES>  (90) 
O=C(Cc1ccccc1)[N-]c1ccccc1OS(=O)(=O)c1cccc(C(=O)[O-])c1

>  <Energy>  (90) 
48.9121384610177

>  <Genealogy>  (90) 
O=C(Cc1ccccc1)[N-]c1ccccc1OS(=O)(=O)c1cccc(C(=O)[O-])c1 (protonated)
O=C(Cc1ccccc1)[N-]c1ccccc1OS(=O)(=O)c1cccc(C(=O)[O-])c1 (3D coordinates assigned)
O=C(Cc1ccccc1)[N-]c1ccccc1OS(=O)(=O)c1cccc(C(=O)[O-])c1 (optimized conformer: 48.9121384610177 kcal/mol)

>  <smiles>  (90) 
O=C(Cc1ccccc1)Nc1ccccc1OS(=O)(=O)c1cccc(C(=O)O)c1

>  <score_type>  (90) 
oracle

>  <origin>  (90) 
adg

>  <m_score__min__energy>  (90) 
-13.42

>  <m_primary>  (90) 
energy

$$$$
90:0
     RDKit          3D

 52 55  0  0  0  0  0  0  0  0999 V2000
   57.6547   35.1097   44.3167 H   0  0  0  0  0  0  0  0  0  0  0  0
   58.3020   34.4340   44.8950 C   0  0  0  0  0  0  0  0  0  0  0  0
   59.4830   34.9000   45.9990 S   0  0  0  0  0  0  0  0  0  0  0  0
   59.9250   33.3250   46.3650 C   0  0  0  0  0  0  0  0  0  0  0  0
   60.8870   33.0430   47.1950 N   0  0  0  0  0  0  0  0  0  0  0  0
   62.2640   33.4600   47.1910 C   0  0  0  0  0  0  0  0  0  0  0  0
   62.8250   33.8490   46.1290 O   0  0  0  0  0  0  0  0  0  0  0  0
   63.0320   33.4370   48.4590 C   0  0  0  0  0  0  0  0  0  0  0  0
   62.6350   34.2360   49.5510 C   0  0  0  0  0  0  0  0  0  0  0  0
   61.7324   34.8597   49.4717 H   0  0  0  0  0  0  0  0  0  0  0  0
   63.3800   34.2410   50.7330 C   0  0  0  0  0  0  0  0  0  0  0  0
   63.0571   34.8633   51.5806 H   0  0  0  0  0  0  0  0  0  0  0  0
   64.5340   33.4590   50.8440 C   0  0  0  0  0  0  0  0  0  0  0  0
   65.3360   33.4670   52.1120 C   0  0  0  0  0  0  0  0  0  0  0  0
   64.6556   33.4602   52.9763 H   0  0  0  0  0  0  0  0  0  0  0  0
   65.9792   32.5752   52.1447 H   0  0  0  0  0  0  0  0  0  0  0  0
   65.9613   34.3714   52.1447 H   0  0  0  0  0  0  0  0  0  0  0  0
   64.9210   32.6390   49.7720 C   0  0  0  0  0  0  0  0  0  0  0  0
   65.8148   32.0042   49.8620 H   0  0  0  0  0  0  0  0  0  0  0  0
   64.1740   32.6270   48.5910 C   0  0  0  0  0  0  0  0  0  0  0  0
   64.4819   31.9785   47.7576 H   0  0  0  0  0  0  0  0  0  0  0  0
   59.1850   32.4290   45.6650 N   0  0  0  0  0  0  0  0  0  0  0  0
   59.2570   31.3930   45.7220 H   0  0  0  0  0  0  0  0  0  0  0  0
   58.2880   33.0420   44.8420 C   0  0  0  0  0  0  0  0  0  0  0  0
   57.3940   32.2760   43.9130 C   0  0  0  0  0  0  0  0  0  0  0  0
   56.4106   32.7669   43.8687 H   0  0  0  0  0  0  0  0  0  0  0  0
   57.8505   32.2560   42.9124 H   0  0  0  0  0  0  0  0  0  0  0  0
   57.2220   30.8630   44.4010 C   0  0  0  0  0  0  0  0  0  0  0  0
   56.0760   30.4700   44.7500 O   0  0  0  0  0  0  0  0  0  0  0  0
   58.3110   29.9300   44.4310 N   0  0  0  0  0  0  0  0  0  0  0  0
   58.3330   28.7570   45.2500 C   0  0  0  0  0  0  0  0  0  0  0  0
   58.2680   27.4930   44.6510 C   0  0  0  0  0  0  0  0  0  0  0  0
   58.1868   27.4079   43.5573 H   0  0  0  0  0  0  0  0  0  0  0  0
   58.3060   26.3390   45.4390 C   0  0  0  0  0  0  0  0  0  0  0  0
   58.2650   25.3474   44.9646 H   0  0  0  0  0  0  0  0  0  0  0  0
   58.3960   26.4450   46.8280 C   0  0  0  0  0  0  0  0  0  0  0  0
   58.4063   25.5371   47.4489 H   0  0  0  0  0  0  0  0  0  0  0  0
   58.4730   27.7030   47.4300 C   0  0  0  0  0  0  0  0  0  0  0  0
   58.5403   27.7814   48.5251 H   0  0  0  0  0  0  0  0  0  0  0  0
   58.4650   28.8720   46.6440 C   0  0  0  0  0  0  0  0  0  0  0  0
   58.5280   30.1530   47.2190 O   0  0  0  0  0  0  0  0  0  0  0  0
   59.3670   30.5340   48.2720 C   0  0  0  0  0  0  0  0  0  0  0  0
   60.6720   30.0260   48.4000 C   0  0  0  0  0  0  0  0  0  0  0  0
   61.0533   29.3047   47.6622 H   0  0  0  0  0  0  0  0  0  0  0  0
   61.4870   30.4330   49.4600 C   0  0  0  0  0  0  0  0  0  0  0  0
   62.5016   30.0209   49.5634 H   0  0  0  0  0  0  0  0  0  0  0  0
   61.0120   31.3650   50.3900 C   0  0  0  0  0  0  0  0  0  0  0  0
   61.6515   31.6813   51.2273 H   0  0  0  0  0  0  0  0  0  0  0  0
   59.7250   31.8940   50.2550 C   0  0  0  0  0  0  0  0  0  0  0  0
   59.3529   32.6287   50.9842 H   0  0  0  0  0  0  0  0  0  0  0  0
   58.9110   31.4890   49.1930 C   0  0  0  0  0  0  0  0  0  0  0  0
   57.9063   31.9220   49.0788 H   0  0  0  0  0  0  0  0  0  0  0  0
  1  2  1  0
  2  3  1  0
  3  4  1  0
  4  5  2  0
  5  6  1  0
  6  7  2  0
  6  8  1  0
  8  9  2  0
  9 10  1  0
  9 11  1  0
 11 12  1  0
 11 13  2  0
 13 14  1  0
 14 15  1  0
 14 16  1  0
 14 17  1  0
 13 18  1  0
 18 19  1  0
 18 20  2  0
 20 21  1  0
  4 22  1  0
 22 23  1  0
 22 24  1  0
 24 25  1  0
 25 26  1  0
 25 27  1  0
 25 28  1  0
 28 29  2  0
 28 30  1  0
 30 31  1  0
 31 32  2  0
 32 33  1  0
 32 34  1  0
 34 35  1  0
 34 36  2  0
 36 37  1  0
 36 38  1  0
 38 39  1  0
 38 40  2  0
 40 41  1  0
 41 42  1  0
 42 43  2  0
 43 44  1  0
 43 45  1  0
 45 46  1  0
 45 47  2  0
 47 48  1  0
 47 49  1  0
 49 50  1  0
 49 51  2  0
 51 52  1  0
 24  2  2  0
 40 31  1  0
 51 42  1  0
 20  8  1  0
M  CHG  1  30  -1
M  END
>  <UniqueID>  (91) 
86

>  <SMILES>  (91) 
Cc1ccc(C(=O)/N=c2\[nH]c(CC(=O)[N-]c3ccccc3Oc3ccccc3)cs2)cc1

>  <Energy>  (91) 
98.56486096735289

>  <Genealogy>  (91) 
Cc1ccc(C(=O)N=c2[nH]c(CC(=O)[N-]c3ccccc3Oc3ccccc3)cs2)cc1 (protonated)
Cc1ccc(C(=O)/N=c2\[nH]c(CC(=O)[N-]c3ccccc3Oc3ccccc3)cs2)cc1 (cis-trans isomerization)
Cc1ccc(C(=O)/N=c2\[nH]c(CC(=O)[N-]c3ccccc3Oc3ccccc3)cs2)cc1 (3D coordinates assigned)
Cc1ccc(C(=O)/N=c2\[nH]c(CC(=O)[N-]c3ccccc3Oc3ccccc3)cs2)cc1 (optimized conformer: 98.56486096735289 kcal/mol)

>  <smiles>  (91) 
Cc1ccc(C(=O)N=c2[nH]c(CC(=O)Nc3ccccc3Oc3ccccc3)cs2)cc1

>  <score_type>  (91) 
oracle

>  <origin>  (91) 
adg

>  <m_score__min__energy>  (91) 
-10.81

>  <m_primary>  (91) 
energy

$$$$
91:0
     RDKit          3D

 41 43  0  0  0  0  0  0  0  0999 V2000
   60.2850   28.7930   48.6590 O   0  0  0  0  0  0  0  0  0  0  0  0
   60.0750   29.1290   47.4620 C   0  0  0  0  0  0  0  0  0  0  0  0
   60.3030   30.5470   47.0340 C   0  0  0  0  0  0  0  0  0  0  0  0
   59.1650   31.4680   47.5010 C   0  0  0  0  0  0  0  0  0  0  0  0
   58.9920   32.6570   46.5880 C   0  0  0  0  0  0  0  0  0  0  0  0
   57.9490   32.6810   45.6470 C   0  0  0  0  0  0  0  0  0  0  0  0
   57.7440   33.8120   44.8510 C   0  0  0  0  0  0  0  0  0  0  0  0
   58.5800   34.9240   44.9850 C   0  0  0  0  0  0  0  0  0  0  0  0
   59.6210   34.9080   45.9190 C   0  0  0  0  0  0  0  0  0  0  0  0
   59.8250   33.7810   46.7220 C   0  0  0  0  0  0  0  0  0  0  0  0
   59.6280   28.1670   46.4980 N   0  0  0  0  0  0  0  0  0  0  0  0
   58.2890   27.6650   46.3710 C   0  0  0  0  0  0  0  0  0  0  0  0
   57.9460   26.3680   46.7810 C   0  0  0  0  0  0  0  0  0  0  0  0
   56.6400   25.8850   46.6020 C   0  0  0  0  0  0  0  0  0  0  0  0
   56.2910   24.4880   47.0560 C   0  0  0  0  0  0  0  0  0  0  0  0
   56.2850   23.5300   45.8840 C   0  0  0  0  0  0  0  0  0  0  0  0
   57.4710   22.9050   45.4610 C   0  0  0  0  0  0  0  0  0  0  0  0
   58.6690   23.1240   46.1320 O   0  0  0  0  0  0  0  0  0  0  0  0
   57.4560   22.0760   44.3850 N   0  0  0  0  0  0  0  0  0  0  0  0
   56.3090   21.8330   43.7020 C   0  0  0  0  0  0  0  0  0  0  0  0
   56.3220   21.0610   42.7100 O   0  0  0  0  0  0  0  0  0  0  0  0
   55.1510   22.4250   44.0880 N   0  0  0  0  0  0  0  0  0  0  0  0
   55.1100   23.2650   45.1530 C   0  0  0  0  0  0  0  0  0  0  0  0
   54.0150   23.8000   45.4730 O   0  0  0  0  0  0  0  0  0  0  0  0
   55.6910   26.7300   45.9950 C   0  0  0  0  0  0  0  0  0  0  0  0
   54.3830   26.3050   45.7940 O   0  0  0  0  0  0  0  0  0  0  0  0
   56.0500   27.9760   45.5910 N   0  0  0  0  0  0  0  0  0  0  0  0
   57.3110   28.4550   45.7530 C   0  0  0  0  0  0  0  0  0  0  0  0
   57.5910   29.6150   45.3500 O   0  0  0  0  0  0  0  0  0  0  0  0
   61.2502   30.9025   47.4659 H   0  0  0  0  0  0  0  0  0  0  0  0
   60.3384   30.5735   45.9349 H   0  0  0  0  0  0  0  0  0  0  0  0
   58.2271   30.8935   47.5182 H   0  0  0  0  0  0  0  0  0  0  0  0
   59.4195   31.8425   48.5035 H   0  0  0  0  0  0  0  0  0  0  0  0
   57.2911   31.8065   45.5361 H   0  0  0  0  0  0  0  0  0  0  0  0
   56.9237   33.8267   44.1183 H   0  0  0  0  0  0  0  0  0  0  0  0
   58.4192   35.8119   44.3558 H   0  0  0  0  0  0  0  0  0  0  0  0
   60.2800   35.7827   46.0222 H   0  0  0  0  0  0  0  0  0  0  0  0
   60.6400   33.7744   47.4607 H   0  0  0  0  0  0  0  0  0  0  0  0
   58.7066   25.7241   47.2466 H   0  0  0  0  0  0  0  0  0  0  0  0
   57.0347   24.1517   47.7934 H   0  0  0  0  0  0  0  0  0  0  0  0
   55.2872   24.5028   47.5056 H   0  0  0  0  0  0  0  0  0  0  0  0
  1  2  2  0
  2  3  1  0
  3  4  1  0
  4  5  1  0
  5  6  2  0
  6  7  1  0
  7  8  2  0
  8  9  1  0
  9 10  2  0
  2 11  1  0
 11 12  1  0
 12 13  2  0
 13 14  1  0
 14 15  1  0
 15 16  1  0
 16 17  2  0
 17 18  1  0
 17 19  1  0
 19 20  1  0
 20 21  2  0
 20 22  1  0
 22 23  1  0
 23 24  2  0
 14 25  2  0
 25 26  1  0
 25 27  1  0
 27 28  1  0
 28 29  2  0
 10  5  1  0
 28 12  1  0
 23 16  1  0
  3 30  1  0
  3 31  1  0
  4 32  1  0
  4 33  1  0
  6 34  1  0
  7 35  1  0
  8 36  1  0
  9 37  1  0
 10 38  1  0
 13 39  1  0
 15 40  1  0
 15 41  1  0
M  CHG  6  11  -1  18  -1  19  -1  22  -1  26  -1  27  -1
M  END
>  <UniqueID>  (92) 
87

>  <SMILES>  (92) 
O=C(CCc1ccccc1)[N-]c1cc(Cc2c([O-])[n-]c(=O)[n-]c2=O)c([O-])[n-]c1=O

>  <Energy>  (92) 
45.92572390480296

>  <Genealogy>  (92) 
O=C(CCc1ccccc1)[N-]c1cc(Cc2c([O-])[n-]c(=O)[n-]c2=O)c([O-])[n-]c1=O (protonated)
O=C(CCc1ccccc1)[N-]c1cc(Cc2c([O-])[n-]c(=O)[n-]c2=O)c([O-])[n-]c1=O (3D coordinates assigned)
O=C(CCc1ccccc1)[N-]c1cc(Cc2c([O-])[n-]c(=O)[n-]c2=O)c([O-])[n-]c1=O (optimized conformer: 45.92572390480296 kcal/mol)

>  <smiles>  (92) 
O=C(CCc1ccccc1)Nc1cc(Cc2c(O)[nH]c(=O)[nH]c2=O)c(O)[nH]c1=O

>  <score_type>  (92) 
oracle

>  <origin>  (92) 
adg

>  <m_score__min__energy>  (92) 
-19.960000000000001

>  <m_primary>  (92) 
energy

$$$$
92:0
     RDKit          3D

 62 66  0  0  0  0  0  0  0  0999 V2000
   59.7130   34.6040   48.9820 C   0  0  0  0  0  0  0  0  0  0  0  0
   59.5540   33.5790   48.1340 C   0  0  0  0  0  0  0  0  0  0  0  0
   59.9290   32.2110   48.5710 C   0  0  0  0  0  0  0  0  0  0  0  0
   61.0340   31.5880   47.9690 C   0  0  0  0  0  0  0  0  0  0  0  0
   61.4440   30.3280   48.4010 C   0  0  0  0  0  0  0  0  0  0  0  0
   60.7830   29.7000   49.4050 N   0  0  0  0  0  0  0  0  0  0  0  0
   59.7060   30.2620   50.0150 C   0  0  0  0  0  0  0  0  0  0  0  0
   59.0560   29.5680   51.0430 C   0  0  0  0  0  0  0  0  0  0  0  0
   57.9400   30.1270   51.6700 C   0  0  0  0  0  0  0  0  0  0  0  0
   57.4630   31.3760   51.2680 C   0  0  0  0  0  0  0  0  0  0  0  0
   58.1030   32.0780   50.2420 C   0  0  0  0  0  0  0  0  0  0  0  0
   59.2410   31.5370   49.6100 C   0  0  0  0  0  0  0  0  0  0  0  0
   58.9280   33.7740   46.8460 N   0  0  0  0  0  0  0  0  0  0  0  0
   59.7690   33.8580   45.6450 C   0  0  0  0  0  0  0  0  0  0  0  0
   58.9220   33.9540   44.3620 C   0  0  0  0  0  0  0  0  0  0  0  0
   57.7910   32.9960   44.3490 N   0  0  0  0  0  0  0  0  0  0  0  0
   58.0310   31.7410   43.6010 C   0  0  0  0  0  0  0  0  0  0  0  0
   58.1980   30.5260   44.4920 C   0  0  0  0  0  0  0  0  0  0  0  0
   58.7770   30.6580   45.7650 C   0  0  0  0  0  0  0  0  0  0  0  0
   58.9210   29.5460   46.5950 C   0  0  0  0  0  0  0  0  0  0  0  0
   58.4920   28.2900   46.1650 C   0  0  0  0  0  0  0  0  0  0  0  0
   57.9160   28.1330   44.8960 C   0  0  0  0  0  0  0  0  0  0  0  0
   57.5190   26.8200   44.4630 N   0  0  0  0  0  0  0  0  0  0  0  0
   58.1660   25.6050   44.8850 C   0  0  0  0  0  0  0  0  0  0  0  0
   59.1670   25.6570   45.6500 O   0  0  0  0  0  0  0  0  0  0  0  0
   57.6830   24.2790   44.4310 C   0  0  0  0  0  0  0  0  0  0  0  0
   58.2030   23.0840   44.9670 C   0  0  0  0  0  0  0  0  0  0  0  0
   57.7250   21.8460   44.5290 C   0  0  0  0  0  0  0  0  0  0  0  0
   56.7220   21.7820   43.5580 C   0  0  0  0  0  0  0  0  0  0  0  0
   56.2600   20.5790   43.1370 F   0  0  0  0  0  0  0  0  0  0  0  0
   56.1900   22.9600   43.0290 C   0  0  0  0  0  0  0  0  0  0  0  0
   56.6620   24.2020   43.4650 C   0  0  0  0  0  0  0  0  0  0  0  0
   57.8000   29.2520   44.0510 C   0  0  0  0  0  0  0  0  0  0  0  0
   57.0520   32.8220   45.6250 C   0  0  0  0  0  0  0  0  0  0  0  0
   57.4710   33.8380   46.6880 C   0  0  0  0  0  0  0  0  0  0  0  0
   59.4390   35.6229   48.6708 H   0  0  0  0  0  0  0  0  0  0  0  0
   60.1175   34.4267   49.9894 H   0  0  0  0  0  0  0  0  0  0  0  0
   61.5759   32.0943   47.1566 H   0  0  0  0  0  0  0  0  0  0  0  0
   62.3078   29.8406   47.9254 H   0  0  0  0  0  0  0  0  0  0  0  0
   59.4250   28.5806   51.3574 H   0  0  0  0  0  0  0  0  0  0  0  0
   57.4361   29.5822   52.4819 H   0  0  0  0  0  0  0  0  0  0  0  0
   56.5801   31.8096   51.7604 H   0  0  0  0  0  0  0  0  0  0  0  0
   57.7162   33.0581   49.9262 H   0  0  0  0  0  0  0  0  0  0  0  0
   60.4072   34.7509   45.7185 H   0  0  0  0  0  0  0  0  0  0  0  0
   60.3766   32.9429   45.5871 H   0  0  0  0  0  0  0  0  0  0  0  0
   58.5194   34.9745   44.2819 H   0  0  0  0  0  0  0  0  0  0  0  0
   59.5763   33.7064   43.5131 H   0  0  0  0  0  0  0  0  0  0  0  0
   57.1760   31.5663   42.9314 H   0  0  0  0  0  0  0  0  0  0  0  0
   58.9744   31.8692   43.0501 H   0  0  0  0  0  0  0  0  0  0  0  0
   59.1192   31.6449   46.1098 H   0  0  0  0  0  0  0  0  0  0  0  0
   59.3739   29.6598   47.5910 H   0  0  0  0  0  0  0  0  0  0  0  0
   58.6062   27.4177   46.8253 H   0  0  0  0  0  0  0  0  0  0  0  0
   56.7530   26.7690   43.7560 H   0  0  0  0  0  0  0  0  0  0  0  0
   58.9897   23.1259   45.7346 H   0  0  0  0  0  0  0  0  0  0  0  0
   58.1398   20.9184   44.9502 H   0  0  0  0  0  0  0  0  0  0  0  0
   55.3977   22.9107   42.2675 H   0  0  0  0  0  0  0  0  0  0  0  0
   56.2323   25.1257   43.0500 H   0  0  0  0  0  0  0  0  0  0  0  0
   57.3942   29.1288   43.0361 H   0  0  0  0  0  0  0  0  0  0  0  0
   55.9762   32.9405   45.4285 H   0  0  0  0  0  0  0  0  0  0  0  0
   57.2846   31.8188   46.0116 H   0  0  0  0  0  0  0  0  0  0  0  0
   57.1764   34.8493   46.3709 H   0  0  0  0  0  0  0  0  0  0  0  0
   56.9782   33.6074   47.6440 H   0  0  0  0  0  0  0  0  0  0  0  0
  1  2  2  0
  2  3  1  0
  3  4  2  0
  4  5  1  0
  5  6  2  0
  6  7  1  0
  7  8  2  0
  8  9  1  0
  9 10  2  0
 10 11  1  0
 11 12  2  0
  2 13  1  0
 13 14  1  0
 14 15  1  0
 15 16  1  0
 16 17  1  0
 17 18  1  0
 18 19  2  0
 19 20  1  0
 20 21  2  0
 21 22  1  0
 22 23  1  0
 23 24  1  0
 24 25  2  0
 24 26  1  0
 26 27  2  0
 27 28  1  0
 28 29  2  0
 29 30  1  0
 29 31  1  0
 31 32  2  0
 22 33  2  0
 16 34  1  0
 34 35  1  0
 12  3  1  0
 35 13  1  0
 12  7  1  0
 33 18  1  0
 32 26  1  0
  1 36  1  0
  1 37  1  0
  4 38  1  0
  5 39  1  0
  8 40  1  0
  9 41  1  0
 10 42  1  0
 11 43  1  0
 14 44  1  0
 14 45  1  0
 15 46  1  0
 15 47  1  0
 17 48  1  0
 17 49  1  0
 19 50  1  0
 20 51  1  0
 21 52  1  0
 23 53  1  0
 27 54  1  0
 28 55  1  0
 31 56  1  0
 32 57  1  0
 33 58  1  0
 34 59  1  0
 34 60  1  0
 35 61  1  0
 35 62  1  0
M  END
>  <UniqueID>  (93) 
88

>  <SMILES>  (93) 
C=C(c1ccnc2ccccc12)N1CCN(Cc2cccc(NC(=O)c3ccc(F)cc3)c2)CC1

>  <Energy>  (93) 
96.43744136619729

>  <Genealogy>  (93) 
C=C(c1ccnc2ccccc12)N1CCN(Cc2cccc(NC(=O)c3ccc(F)cc3)c2)CC1 (3D coordinates assigned)
C=C(c1ccnc2ccccc12)N1CCN(Cc2cccc(NC(=O)c3ccc(F)cc3)c2)CC1 (nonaromatic ring conformer: 96.43744136619729 kcal/mol)

>  <smiles>  (93) 
C=C(c1ccnc2ccccc12)N1CCN(Cc2cccc(NC(=O)c3ccc(F)cc3)c2)CC1

>  <score_type>  (93) 
oracle

>  <origin>  (93) 
adg

>  <m_score__min__energy>  (93) 
-10.220000000000001

>  <m_primary>  (93) 
energy

$$$$
93:0
     RDKit          3D

 63 65  0  0  1  0  0  0  0  0999 V2000
   61.6350   30.8460   47.1190 C   0  0  0  0  0  0  0  0  0  0  0  0
   61.1020   32.1450   46.7850 O   0  0  0  0  0  0  0  0  0  0  0  0
   61.8720   33.2770   47.1990 C   0  0  0  0  0  0  0  0  0  0  0  0
   62.5760   33.8980   46.3340 O   0  0  0  0  0  0  0  0  0  0  0  0
   61.8150   33.6760   48.5990 C   0  0  1  0  0  0  0  0  0  0  0  0
   61.2180   32.6950   49.4800 N   0  0  0  0  0  0  0  0  0  0  0  0
   60.1390   33.0410   50.3340 C   0  0  0  0  0  0  0  0  0  0  0  0
   59.6690   34.1960   50.3190 O   0  0  0  0  0  0  0  0  0  0  0  0
   59.6260   31.9630   51.2270 C   0  0  0  0  0  0  0  0  0  0  0  0
   59.6580   30.7050   50.4410 C   0  0  0  0  0  0  0  0  0  0  0  0
   60.5990   29.7260   50.7920 C   0  0  0  0  0  0  0  0  0  0  0  0
   60.7140   28.5510   50.0820 C   0  0  0  0  0  0  0  0  0  0  0  0
   59.8380   28.4010   49.0010 C   0  0  0  0  0  0  0  0  0  0  0  0
   59.8490   27.2120   48.1480 C   0  0  0  0  0  0  0  0  0  0  0  0
   60.9140   26.7230   47.6820 O   0  0  0  0  0  0  0  0  0  0  0  0
   58.6510   26.5090   47.7760 N   0  0  0  0  0  0  0  0  0  0  0  0
   57.9240   27.0170   46.9200 C   0  0  0  0  0  0  0  0  0  0  0  0
   56.6440   27.0600   46.5640 N   0  0  0  0  0  0  0  0  0  0  0  0
   56.2140   27.7100   45.5550 N   0  0  0  0  0  0  0  0  0  0  0  0
   57.0400   28.3970   44.7860 C   0  0  0  0  0  0  0  0  0  0  0  0
   56.8830   29.2010   43.7260 N   0  0  0  0  0  0  0  0  0  0  0  0
   56.6110   30.5500   43.9540 C   0  0  0  0  0  0  0  0  0  0  0  0
   55.6550   31.0750   44.5350 O   0  0  0  0  0  0  0  0  0  0  0  0
   57.6470   31.5380   43.4200 C   0  0  0  0  0  0  0  0  0  0  0  0
   57.9550   32.3780   44.6340 C   0  0  0  0  0  0  0  0  0  0  0  0
   58.3120   33.7100   44.4310 C   0  0  0  0  0  0  0  0  0  0  0  0
   58.6430   34.5500   45.4900 C   0  0  0  0  0  0  0  0  0  0  0  0
   58.6010   33.9900   46.7350 C   0  0  0  0  0  0  0  0  0  0  0  0
   58.9130   34.7390   47.8240 F   0  0  0  0  0  0  0  0  0  0  0  0
   58.2540   32.6790   46.9720 C   0  0  0  0  0  0  0  0  0  0  0  0
   57.9280   31.8680   45.9080 C   0  0  0  0  0  0  0  0  0  0  0  0
   58.7030   28.1280   45.5450 S   0  0  0  0  0  0  0  0  0  0  0  0
   58.9150   29.3690   48.6620 C   0  0  0  0  0  0  0  0  0  0  0  0
   58.8110   30.5510   49.3870 C   0  0  0  0  0  0  0  0  0  0  0  0
   63.2220   33.8890   49.1270 C   0  0  0  0  0  0  0  0  0  0  0  0
   63.2520   34.2130   50.5990 C   0  0  0  0  0  0  0  0  0  0  0  0
   64.0510   32.6190   48.8830 C   0  0  0  0  0  0  0  0  0  0  0  0
   61.6793   30.7380   48.2128 H   0  0  0  0  0  0  0  0  0  0  0  0
   60.9850   30.0640   46.6994 H   0  0  0  0  0  0  0  0  0  0  0  0
   62.6469   30.7459   46.6994 H   0  0  0  0  0  0  0  0  0  0  0  0
   61.1950   34.5846   48.6039 H   0  0  0  0  0  0  0  0  0  0  0  0
   61.6290   31.7320   49.4420 H   0  0  0  0  0  0  0  0  0  0  0  0
   60.2670   31.8706   52.1161 H   0  0  0  0  0  0  0  0  0  0  0  0
   58.6058   32.1876   51.5717 H   0  0  0  0  0  0  0  0  0  0  0  0
   61.2602   29.9003   51.6537 H   0  0  0  0  0  0  0  0  0  0  0  0
   61.4496   27.7778   50.3486 H   0  0  0  0  0  0  0  0  0  0  0  0
   55.9490   26.4940   47.1960 H   0  0  0  0  0  0  0  0  0  0  0  0
   55.1500   27.7110   45.3080 H   0  0  0  0  0  0  0  0  0  0  0  0
   58.5456   31.0156   43.0600 H   0  0  0  0  0  0  0  0  0  0  0  0
   57.2905   32.1246   42.5605 H   0  0  0  0  0  0  0  0  0  0  0  0
   58.3327   34.1081   43.4058 H   0  0  0  0  0  0  0  0  0  0  0  0
   58.9219   35.6025   45.3336 H   0  0  0  0  0  0  0  0  0  0  0  0
   58.2374   32.2843   47.9986 H   0  0  0  0  0  0  0  0  0  0  0  0
   57.6477   30.8180   46.0780 H   0  0  0  0  0  0  0  0  0  0  0  0
   58.2492   29.2026   47.8024 H   0  0  0  0  0  0  0  0  0  0  0  0
   58.0775   31.3263   49.1207 H   0  0  0  0  0  0  0  0  0  0  0  0
   63.6430   34.7510   48.5887 H   0  0  0  0  0  0  0  0  0  0  0  0
   63.1659   33.2835   51.1809 H   0  0  0  0  0  0  0  0  0  0  0  0
   64.2003   34.7132   50.8451 H   0  0  0  0  0  0  0  0  0  0  0  0
   62.4117   34.8788   50.8451 H   0  0  0  0  0  0  0  0  0  0  0  0
   64.3389   32.1779   49.8487 H   0  0  0  0  0  0  0  0  0  0  0  0
   63.4518   31.8939   48.3128 H   0  0  0  0  0  0  0  0  0  0  0  0
   64.9560   32.8758   48.3128 H   0  0  0  0  0  0  0  0  0  0  0  0
  1  2  1  0
  2  3  1  0
  3  4  2  0
  3  5  1  0
  5  6  1  0
  6  7  1  0
  7  8  2  0
  7  9  1  0
  9 10  1  0
 10 11  2  0
 11 12  1  0
 12 13  2  0
 13 14  1  0
 14 15  2  0
 14 16  1  0
 16 17  2  0
 17 18  1  0
 18 19  1  0
 19 20  1  0
 20 21  2  0
 21 22  1  0
 22 23  2  0
 22 24  1  0
 24 25  1  0
 25 26  2  0
 26 27  1  0
 27 28  2  0
 28 29  1  0
 28 30  1  0
 30 31  2  0
 20 32  1  0
 13 33  1  0
 33 34  2  0
  5 35  1  0
 35 36  1  0
 35 37  1  0
 34 10  1  0
 32 17  1  0
 31 25  1  0
  1 38  1  0
  1 39  1  0
  1 40  1  0
  5 41  1  6
  6 42  1  0
  9 43  1  0
  9 44  1  0
 11 45  1  0
 12 46  1  0
 18 47  1  0
 19 48  1  0
 24 49  1  0
 24 50  1  0
 26 51  1  0
 27 52  1  0
 30 53  1  0
 31 54  1  0
 33 55  1  0
 34 56  1  0
 35 57  1  0
 36 58  1  0
 36 59  1  0
 36 60  1  0
 37 61  1  0
 37 62  1  0
 37 63  1  0
M  END
>  <smiles>  (94) 
COC(=O)C(NC(=O)Cc1ccc(C(=O)N=c2[nH][nH]c(=NC(=O)Cc3ccc(F)cc3)s2)cc1)C(C)C

>  <score_type>  (94) 
oracle

>  <origin>  (94) 
adg

>  <m_score__min__energy>  (94) 
-10.56

>  <m_primary>  (94) 
energy

$$$$
