0:0
     RDKit          3D

 48 51  0  0  1  0  0  0  0  0999 V2000
   55.5360   29.7040   43.9770 C   0  0  0  0  0  0  0  0  0  0  0  0
   56.6280   29.8180   42.9540 C   0  0  0  0  0  0  0  0  0  0  0  0
   57.2390   31.2130   42.8880 C   0  0  0  0  0  0  0  0  0  0  0  0
   56.9110   31.9220   44.0690 O   0  0  0  0  0  0  0  0  0  0  0  0
   57.6350   31.7980   45.2310 C   0  0  0  0  0  0  0  0  0  0  0  0
   57.9400   32.9010   45.9970 C   0  0  0  0  0  0  0  0  0  0  0  0
   58.6780   32.7930   47.1860 C   0  0  0  0  0  0  0  0  0  0  0  0
   58.8930   33.8500   47.8150 N   0  0  0  0  0  0  0  0  0  0  0  0
   60.0720   34.5930   47.8570 C   0  0  0  0  0  0  0  0  0  0  0  0
   61.3500   33.8170   47.9870 C   0  0  0  0  0  0  0  0  0  0  0  0
   62.2130   33.6390   46.9100 C   0  0  0  0  0  0  0  0  0  0  0  0
   63.3990   32.9200   47.0270 C   0  0  0  0  0  0  0  0  0  0  0  0
   63.7480   32.3630   48.2200 C   0  0  0  0  0  0  0  0  0  0  0  0
   62.8790   32.5490   49.2810 C   0  0  0  0  0  0  0  0  0  0  0  0
   61.7420   33.2460   49.1410 N   0  0  0  0  0  0  0  0  0  0  0  0
   59.1010   31.5980   47.5940 N   0  0  0  0  0  0  0  0  0  0  0  0
   59.7920   31.2470   48.6320 N   0  0  0  0  0  0  0  0  0  0  0  0
   59.9410   29.8850   48.5490 C   0  0  0  0  0  0  0  0  0  0  0  0
   59.3170   29.4170   47.4170 C   0  0  0  0  0  0  0  0  0  0  0  0
   59.2540   28.0250   46.9790 C   0  0  0  0  0  0  0  0  0  0  0  0
   57.9810   27.5140   46.7530 C   0  0  0  0  0  0  0  0  0  0  0  0
   57.8210   26.2280   46.3430 C   0  0  0  0  0  0  0  0  0  0  0  0
   58.9280   25.4100   46.1460 C   0  0  0  0  0  0  0  0  0  0  0  0
   60.1870   25.9220   46.3730 C   0  0  0  0  0  0  0  0  0  0  0  0
   60.3410   27.2290   46.7890 C   0  0  0  0  0  0  0  0  0  0  0  0
   58.7830   30.5450   46.8210 C   0  0  0  0  0  0  0  0  0  0  0  0
   58.0810   30.6130   45.6810 N   0  0  0  0  0  0  0  0  0  0  0  0
   55.9724   29.7496   44.9857 H   0  0  0  0  0  0  0  0  0  0  0  0
   54.8243   30.5327   43.8476 H   0  0  0  0  0  0  0  0  0  0  0  0
   55.0109   28.7462   43.8476 H   0  0  0  0  0  0  0  0  0  0  0  0
   57.4215   29.0994   43.2067 H   0  0  0  0  0  0  0  0  0  0  0  0
   56.1813   29.6076   41.9710 H   0  0  0  0  0  0  0  0  0  0  0  0
   58.3324   31.1318   42.7995 H   0  0  0  0  0  0  0  0  0  0  0  0
   56.8421   31.7490   42.0132 H   0  0  0  0  0  0  0  0  0  0  0  0
   57.5962   33.8929   45.6684 H   0  0  0  0  0  0  0  0  0  0  0  0
   60.1304   35.1794   46.9281 H   0  0  0  0  0  0  0  0  0  0  0  0
   60.0032   35.1952   48.7749 H   0  0  0  0  0  0  0  0  0  0  0  0
   61.9500   34.0797   45.9371 H   0  0  0  0  0  0  0  0  0  0  0  0
   64.0566   32.8012   46.1532 H   0  0  0  0  0  0  0  0  0  0  0  0
   64.6800   31.7902   48.3352 H   0  0  0  0  0  0  0  0  0  0  0  0
   63.1266   32.1153   50.2611 H   0  0  0  0  0  0  0  0  0  0  0  0
   60.2320   31.7170   49.4380 H   0  0  0  0  0  0  0  0  0  0  0  0
   60.4788   29.2617   49.2786 H   0  0  0  0  0  0  0  0  0  0  0  0
   57.0992   28.1534   46.9067 H   0  0  0  0  0  0  0  0  0  0  0  0
   56.8101   25.8322   46.1660 H   0  0  0  0  0  0  0  0  0  0  0  0
   58.8006   24.3692   45.8137 H   0  0  0  0  0  0  0  0  0  0  0  0
   61.0724   25.2869   46.2222 H   0  0  0  0  0  0  0  0  0  0  0  0
   61.3495   27.6299   46.9682 H   0  0  0  0  0  0  0  0  0  0  0  0
  1  2  1  0
  2  3  1  0
  3  4  1  0
  4  5  1  0
  5  6  2  0
  6  7  1  0
  7  8  2  0
  8  9  1  0
  9 10  1  0
 10 11  2  0
 11 12  1  0
 12 13  2  0
 13 14  1  0
 14 15  2  0
  7 16  1  0
 16 17  1  0
 17 18  1  0
 18 19  2  0
 19 20  1  0
 20 21  2  0
 21 22  1  0
 22 23  2  0
 23 24  1  0
 24 25  2  0
 19 26  1  0
 26 27  2  0
 27  5  1  0
 15 10  1  0
 26 16  1  0
 25 20  1  0
  1 28  1  0
  1 29  1  0
  1 30  1  0
  2 31  1  0
  2 32  1  0
  3 33  1  0
  3 34  1  0
  6 35  1  0
  9 36  1  0
  9 37  1  0
 11 38  1  0
 12 39  1  0
 13 40  1  0
 14 41  1  0
 17 42  1  0
 18 43  1  0
 21 44  1  0
 22 45  1  0
 23 46  1  0
 24 47  1  0
 25 48  1  0
M  END
>  <smiles>  (1) 
CCCOc1cc(=NCc2ccccn2)n2[nH]cc(-c3ccccc3)c2n1

>  <score_type>  (1) 
oracle

>  <origin>  (1) 
adg

>  <m_score__min__energy>  (1) 
-8.4399999999999995

>  <m_primary>  (1) 
energy

$$$$
1:0
     RDKit          3D

 41 43  0  0  0  0  0  0  0  0999 V2000
   55.9030   30.5000   44.8270 O   0  0  0  0  0  0  0  0  0  0  0  0
   57.0930   30.8920   44.6860 C   0  0  0  0  0  0  0  0  0  0  0  0
   57.3640   32.2490   44.3270 N   0  0  0  0  0  0  0  0  0  0  0  0
   57.7390   33.4610   45.5030 S   0  0  0  0  0  0  0  0  0  0  0  0
   57.7660   34.8140   44.8460 O   0  0  0  0  0  0  0  0  0  0  0  0
   56.6800   33.4650   46.5700 O   0  0  0  0  0  0  0  0  0  0  0  0
   59.2930   33.1120   46.2340 C   0  0  0  0  0  0  0  0  0  0  0  0
   59.6790   31.8850   46.7570 C   0  0  0  0  0  0  0  0  0  0  0  0
   60.9950   31.8840   47.2320 C   0  0  0  0  0  0  0  0  0  0  0  0
   61.6320   33.1100   47.0730 C   0  0  0  0  0  0  0  0  0  0  0  0
   63.2810   33.4720   47.5400 Cl  0  0  0  0  0  0  0  0  0  0  0  0
   60.5760   34.1970   46.3440 S   0  0  0  0  0  0  0  0  0  0  0  0
   58.1840   29.9840   44.8800 N   0  0  0  0  0  0  0  0  0  0  0  0
   57.9820   28.5550   45.1380 C   0  0  0  0  0  0  0  0  0  0  0  0
   58.9560   28.0550   46.2380 C   0  0  0  0  0  0  0  0  0  0  0  0
   59.4540   26.6200   45.9980 C   0  0  0  0  0  0  0  0  0  0  0  0
   58.4170   25.8120   45.3460 N   0  0  0  0  0  0  0  0  0  0  0  0
   57.9340   24.5960   45.9490 C   0  0  0  0  0  0  0  0  0  0  0  0
   58.1690   23.3540   45.3380 C   0  0  0  0  0  0  0  0  0  0  0  0
   57.7070   22.1850   45.9480 C   0  0  0  0  0  0  0  0  0  0  0  0
   57.0350   22.2510   47.1290 N   0  0  0  0  0  0  0  0  0  0  0  0
   56.7950   23.4390   47.7460 C   0  0  0  0  0  0  0  0  0  0  0  0
   57.2420   24.6320   47.1710 C   0  0  0  0  0  0  0  0  0  0  0  0
   57.8430   26.2730   44.0720 C   0  0  0  0  0  0  0  0  0  0  0  0
   58.1370   27.7630   43.8290 C   0  0  0  0  0  0  0  0  0  0  0  0
   59.0191   31.0057   46.7940 H   0  0  0  0  0  0  0  0  0  0  0  0
   61.4761   31.0044   47.6845 H   0  0  0  0  0  0  0  0  0  0  0  0
   59.1460   30.3300   44.6570 H   0  0  0  0  0  0  0  0  0  0  0  0
   56.9608   28.3929   45.5134 H   0  0  0  0  0  0  0  0  0  0  0  0
   59.8263   28.7271   46.2664 H   0  0  0  0  0  0  0  0  0  0  0  0
   58.4034   28.0549   47.1891 H   0  0  0  0  0  0  0  0  0  0  0  0
   60.3456   26.6503   45.3545 H   0  0  0  0  0  0  0  0  0  0  0  0
   59.6985   26.1641   46.9688 H   0  0  0  0  0  0  0  0  0  0  0  0
   58.7140   23.3015   44.3840 H   0  0  0  0  0  0  0  0  0  0  0  0
   57.8870   21.2096   45.4725 H   0  0  0  0  0  0  0  0  0  0  0  0
   56.2477   23.4611   48.6999 H   0  0  0  0  0  0  0  0  0  0  0  0
   57.0531   25.5928   47.6721 H   0  0  0  0  0  0  0  0  0  0  0  0
   58.2769   25.6842   43.2504 H   0  0  0  0  0  0  0  0  0  0  0  0
   56.7521   26.1386   44.1157 H   0  0  0  0  0  0  0  0  0  0  0  0
   59.1660   27.8743   43.4566 H   0  0  0  0  0  0  0  0  0  0  0  0
   57.4249   28.1531   43.0869 H   0  0  0  0  0  0  0  0  0  0  0  0
  1  2  2  0
  2  3  1  0
  3  4  1  0
  4  5  2  0
  4  6  2  0
  4  7  1  0
  7  8  2  0
  8  9  1  0
  9 10  2  0
 10 11  1  0
 10 12  1  0
  2 13  1  0
 13 14  1  0
 14 15  1  0
 15 16  1  0
 16 17  1  0
 17 18  1  0
 18 19  2  0
 19 20  1  0
 20 21  2  0
 21 22  1  0
 22 23  2  0
 17 24  1  0
 24 25  1  0
 12  7  1  0
 25 14  1  0
 23 18  1  0
  8 26  1  0
  9 27  1  0
 13 28  1  0
 14 29  1  0
 15 30  1  0
 15 31  1  0
 16 32  1  0
 16 33  1  0
 19 34  1  0
 20 35  1  0
 22 36  1  0
 23 37  1  0
 24 38  1  0
 24 39  1  0
 25 40  1  0
 25 41  1  0
M  CHG  1   3  -1
M  END
>  <UniqueID>  (2) 
1

>  <SMILES>  (2) 
O=C([N-]S(=O)(=O)c1ccc(Cl)s1)NC1CCN(c2ccncc2)CC1

>  <Energy>  (2) 
76.26598667981494

>  <Genealogy>  (2) 
O=C([N-]S(=O)(=O)c1ccc(Cl)s1)NC1CCN(c2ccncc2)CC1 (protonated)
O=C([N-]S(=O)(=O)c1ccc(Cl)s1)NC1CCN(c2ccncc2)CC1 (3D coordinates assigned)
O=C([N-]S(=O)(=O)c1ccc(Cl)s1)NC1CCN(c2ccncc2)CC1 (nonaromatic ring conformer: 76.26598667981494 kcal/mol)

>  <smiles>  (2) 
O=C(NC1CCN(c2ccncc2)CC1)NS(=O)(=O)c1ccc(Cl)s1

>  <score_type>  (2) 
oracle

>  <origin>  (2) 
adg

>  <m_score__min__energy>  (2) 
-9.6099999999999994

>  <m_primary>  (2) 
energy

$$$$
2:0
     RDKit          3D

 71 74  0  0  0  0  0  0  0  0999 V2000
   60.4819   33.1493   52.7809 H   0  0  0  0  0  0  0  0  0  0  0  0
   59.8450   32.3020   52.4870 C   0  0  0  0  0  0  0  0  0  0  0  0
   58.8990   31.8060   53.3830 C   0  0  0  0  0  0  0  0  0  0  0  0
   58.7797   32.2809   54.3680 H   0  0  0  0  0  0  0  0  0  0  0  0
   58.1010   30.7110   53.0410 C   0  0  0  0  0  0  0  0  0  0  0  0
   57.1670   30.2560   53.9870 O   0  0  0  0  0  0  0  0  0  0  0  0
   55.7550   30.4630   53.9290 C   0  0  0  0  0  0  0  0  0  0  0  0
   55.3160   30.2041   54.9038 H   0  0  0  0  0  0  0  0  0  0  0  0
   55.5722   31.5196   53.6837 H   0  0  0  0  0  0  0  0  0  0  0  0
   55.0990   29.5960   52.8400 C   0  0  0  0  0  0  0  0  0  0  0  0
   55.8284   28.8411   52.5113 H   0  0  0  0  0  0  0  0  0  0  0  0
   54.2001   29.1459   53.2866 H   0  0  0  0  0  0  0  0  0  0  0  0
   54.6360   30.3940   51.6060 C   0  0  0  0  0  0  0  0  0  0  0  0
   55.4949   30.9512   51.2036 H   0  0  0  0  0  0  0  0  0  0  0  0
   54.2403   29.6758   50.8728 H   0  0  0  0  0  0  0  0  0  0  0  0
   53.5080   31.3950   51.9380 C   0  0  0  0  0  0  0  0  0  0  0  0
   53.4485   31.4908   53.0322 H   0  0  0  0  0  0  0  0  0  0  0  0
   53.7724   32.3340   51.4297 H   0  0  0  0  0  0  0  0  0  0  0  0
   52.0970   30.9990   51.4110 C   0  0  0  0  0  0  0  0  0  0  0  0
   51.3730   32.2830   51.0410 C   0  0  0  0  0  0  0  0  0  0  0  0
   51.3950   32.7130   49.8570 O   0  0  0  0  0  0  0  0  0  0  0  0
   50.7610   33.0530   52.0240 O   0  0  0  0  0  0  0  0  0  0  0  0
   51.2850   30.2550   52.4960 C   0  0  0  0  0  0  0  0  0  0  0  0
   51.6291   30.5702   53.4921 H   0  0  0  0  0  0  0  0  0  0  0  0
   50.2173   30.4949   52.3839 H   0  0  0  0  0  0  0  0  0  0  0  0
   51.4308   29.1705   52.3839 H   0  0  0  0  0  0  0  0  0  0  0  0
   52.2010   30.0950   50.1590 C   0  0  0  0  0  0  0  0  0  0  0  0
   52.3215   29.0474   50.4721 H   0  0  0  0  0  0  0  0  0  0  0  0
   51.2854   30.1949   49.5575 H   0  0  0  0  0  0  0  0  0  0  0  0
   53.0700   30.4002   49.5575 H   0  0  0  0  0  0  0  0  0  0  0  0
   58.2600   30.1130   51.7760 C   0  0  0  0  0  0  0  0  0  0  0  0
   57.6361   29.2501   51.5001 H   0  0  0  0  0  0  0  0  0  0  0  0
   59.2080   30.6070   50.8610 C   0  0  0  0  0  0  0  0  0  0  0  0
   59.3750   29.9090   49.5660 C   0  0  0  0  0  0  0  0  0  0  0  0
   60.0140   28.6630   49.5060 C   0  0  0  0  0  0  0  0  0  0  0  0
   60.3758   28.1880   50.4298 H   0  0  0  0  0  0  0  0  0  0  0  0
   60.1930   28.0230   48.2800 C   0  0  0  0  0  0  0  0  0  0  0  0
   60.6898   27.0423   48.2430 H   0  0  0  0  0  0  0  0  0  0  0  0
   59.7420   28.6240   47.0890 C   0  0  0  0  0  0  0  0  0  0  0  0
   59.9150   28.0150   45.8350 O   0  0  0  0  0  0  0  0  0  0  0  0
   60.7490   28.5200   44.7990 C   0  0  0  0  0  0  0  0  0  0  0  0
   61.6100   29.0413   45.2427 H   0  0  0  0  0  0  0  0  0  0  0  0
   61.1061   27.6863   44.1766 H   0  0  0  0  0  0  0  0  0  0  0  0
   60.1757   29.2228   44.1766 H   0  0  0  0  0  0  0  0  0  0  0  0
   59.1020   29.8720   47.1410 C   0  0  0  0  0  0  0  0  0  0  0  0
   58.6780   30.4530   45.9350 O   0  0  0  0  0  0  0  0  0  0  0  0
   57.6760   29.9050   45.0840 C   0  0  0  0  0  0  0  0  0  0  0  0
   56.8744   29.4666   45.6965 H   0  0  0  0  0  0  0  0  0  0  0  0
   57.2589   30.7006   44.4491 H   0  0  0  0  0  0  0  0  0  0  0  0
   58.1208   29.1246   44.4491 H   0  0  0  0  0  0  0  0  0  0  0  0
   58.9070   30.5020   48.3840 C   0  0  0  0  0  0  0  0  0  0  0  0
   58.3829   31.4681   48.4292 H   0  0  0  0  0  0  0  0  0  0  0  0
   59.9920   31.7320   51.2170 C   0  0  0  0  0  0  0  0  0  0  0  0
   60.9510   32.3180   50.3250 N   0  0  0  0  0  0  0  0  0  0  0  0
   61.3800   33.6830   50.3640 C   0  0  0  0  0  0  0  0  0  0  0  0
   62.0250   34.0850   51.3640 O   0  0  0  0  0  0  0  0  0  0  0  0
   61.0990   34.5600   49.2600 N   0  0  0  0  0  0  0  0  0  0  0  0
   60.2320   34.3960   48.3030 C   0  0  0  0  0  0  0  0  0  0  0  0
   60.4380   34.9190   47.0670 N   0  0  0  0  0  0  0  0  0  0  0  0
   59.3650   34.4860   46.3820 C   0  0  0  0  0  0  0  0  0  0  0  0
   59.0690   34.7010   45.0370 C   0  0  0  0  0  0  0  0  0  0  0  0
   59.7128   35.3318   44.4064 H   0  0  0  0  0  0  0  0  0  0  0  0
   57.9160   34.0820   44.5130 C   0  0  0  0  0  0  0  0  0  0  0  0
   57.6532   34.2226   43.4542 H   0  0  0  0  0  0  0  0  0  0  0  0
   57.0950   33.2810   45.3410 C   0  0  0  0  0  0  0  0  0  0  0  0
   56.1994   32.7997   44.9212 H   0  0  0  0  0  0  0  0  0  0  0  0
   57.4170   33.0960   46.6990 C   0  0  0  0  0  0  0  0  0  0  0  0
   56.7862   32.4788   47.3557 H   0  0  0  0  0  0  0  0  0  0  0  0
   58.5650   33.7240   47.1810 C   0  0  0  0  0  0  0  0  0  0  0  0
   59.0930   33.6570   48.4080 N   0  0  0  0  0  0  0  0  0  0  0  0
   58.7210   33.1050   49.2110 H   0  0  0  0  0  0  0  0  0  0  0  0
  1  2  1  0
  2  3  2  0
  3  4  1  0
  3  5  1  0
  5  6  1  0
  6  7  1  0
  7  8  1  0
  7  9  1  0
  7 10  1  0
 10 11  1  0
 10 12  1  0
 10 13  1  0
 13 14  1  0
 13 15  1  0
 13 16  1  0
 16 17  1  0
 16 18  1  0
 16 19  1  0
 19 20  1  0
 20 21  2  0
 20 22  1  0
 19 23  1  0
 23 24  1  0
 23 25  1  0
 23 26  1  0
 19 27  1  0
 27 28  1  0
 27 29  1  0
 27 30  1  0
  5 31  2  0
 31 32  1  0
 31 33  1  0
 33 34  1  0
 34 35  2  0
 35 36  1  0
 35 37  1  0
 37 38  1  0
 37 39  2  0
 39 40  1  0
 40 41  1  0
 41 42  1  0
 41 43  1  0
 41 44  1  0
 39 45  1  0
 45 46  1  0
 46 47  1  0
 47 48  1  0
 47 49  1  0
 47 50  1  0
 45 51  2  0
 51 52  1  0
 33 53  2  0
 53 54  1  0
 54 55  1  0
 55 56  2  0
 55 57  1  0
 57 58  2  0
 58 59  1  0
 59 60  1  0
 60 61  2  0
 61 62  1  0
 61 63  1  0
 63 64  1  0
 63 65  2  0
 65 66  1  0
 65 67  1  0
 67 68  1  0
 67 69  2  0
 69 70  1  0
 70 71  1  0
 53  2  1  0
 70 58  1  0
 51 34  1  0
 69 60  1  0
M  CHG  3  22  -1  54  -1  59  -1
M  END
>  <UniqueID>  (3) 
2

>  <SMILES>  (3) 
COc1ccc(-c2cc(OCCCCC(C)(C)C(=O)[O-])ccc2[N-]C(=O)/N=c2/[n-]c3ccccc3[nH]2)cc1OC

>  <Energy>  (3) 
120.79631619840913

>  <Genealogy>  (3) 
COc1ccc(-c2cc(OCCCCC(C)(C)C(=O)[O-])ccc2[N-]C(=O)N=c2[n-]c3ccccc3[nH]2)cc1OC (protonated)
COc1ccc(-c2cc(OCCCCC(C)(C)C(=O)[O-])ccc2[N-]C(=O)/N=c2/[n-]c3ccccc3[nH]2)cc1OC (cis-trans isomerization)
COc1ccc(-c2cc(OCCCCC(C)(C)C(=O)[O-])ccc2[N-]C(=O)/N=c2/[n-]c3ccccc3[nH]2)cc1OC (3D coordinates assigned)
COc1ccc(-c2cc(OCCCCC(C)(C)C(=O)[O-])ccc2[N-]C(=O)/N=c2/[n-]c3ccccc3[nH]2)cc1OC (optimized conformer: 120.79631619840913 kcal/mol)

>  <smiles>  (3) 
COc1ccc(-c2cc(OCCCCC(C)(C)C(=O)O)ccc2NC(=O)N=c2[nH]c3ccccc3[nH]2)cc1OC

>  <score_type>  (3) 
oracle

>  <origin>  (3) 
adg

>  <m_score__min__energy>  (3) 
-14.970000000000001

>  <m_primary>  (3) 
energy

$$$$
3:0
     RDKit          3D

 46 49  0  0  0  0  0  0  0  0999 V2000
   58.6983   24.3080   47.1590 H   0  0  0  0  0  0  0  0  0  0  0  0
   58.3200   25.2720   46.7880 C   0  0  0  0  0  0  0  0  0  0  0  0
   59.1750   26.3120   46.6030 N   0  0  0  0  0  0  0  0  0  0  0  0
   58.7600   27.5270   46.1450 C   0  0  0  0  0  0  0  0  0  0  0  0
   59.6130   28.5020   45.9870 N   0  0  0  0  0  0  0  0  0  0  0  0
   59.9520   29.5240   46.9390 C   0  0  0  0  0  0  0  0  0  0  0  0
   59.1060   29.8510   48.0120 C   0  0  0  0  0  0  0  0  0  0  0  0
   58.1676   29.2955   48.1566 H   0  0  0  0  0  0  0  0  0  0  0  0
   59.4480   30.8760   48.8960 C   0  0  0  0  0  0  0  0  0  0  0  0
   58.7879   31.1094   49.7444 H   0  0  0  0  0  0  0  0  0  0  0  0
   60.6320   31.6120   48.7080 C   0  0  0  0  0  0  0  0  0  0  0  0
   61.0130   32.6470   49.5780 O   0  0  0  0  0  0  0  0  0  0  0  0
   60.1010   33.4760   50.2910 C   0  0  0  0  0  0  0  0  0  0  0  0
   60.2504   33.3402   51.3723 H   0  0  0  0  0  0  0  0  0  0  0  0
   60.2781   34.5287   50.0258 H   0  0  0  0  0  0  0  0  0  0  0  0
   59.0699   33.1995   50.0258 H   0  0  0  0  0  0  0  0  0  0  0  0
   61.4640   31.3190   47.6160 C   0  0  0  0  0  0  0  0  0  0  0  0
   62.6280   32.0840   47.4450 O   0  0  0  0  0  0  0  0  0  0  0  0
   62.6460   33.4510   47.0510 C   0  0  0  0  0  0  0  0  0  0  0  0
   62.6544   34.0905   47.9460 H   0  0  0  0  0  0  0  0  0  0  0  0
   63.5468   33.6479   46.4512 H   0  0  0  0  0  0  0  0  0  0  0  0
   61.7507   33.6715   46.4512 H   0  0  0  0  0  0  0  0  0  0  0  0
   61.1120   30.2800   46.7310 C   0  0  0  0  0  0  0  0  0  0  0  0
   61.7562   30.0605   45.8668 H   0  0  0  0  0  0  0  0  0  0  0  0
   57.3950   27.7190   45.8240 C   0  0  0  0  0  0  0  0  0  0  0  0
   56.8830   29.0040   45.2950 C   0  0  0  0  0  0  0  0  0  0  0  0
   55.6170   29.2020   44.8690 N   0  0  0  0  0  0  0  0  0  0  0  0
   55.5420   30.4640   44.4750 N   0  0  0  0  0  0  0  0  0  0  0  0
   56.7670   30.9800   44.6650 C   0  0  0  0  0  0  0  0  0  0  0  0
   57.0700   32.2130   44.3930 N   0  0  0  0  0  0  0  0  0  0  0  0
   57.8350   33.0920   45.2340 C   0  0  0  0  0  0  0  0  0  0  0  0
   57.7200   33.0680   46.6380 C   0  0  0  0  0  0  0  0  0  0  0  0
   56.9978   32.3910   47.1177 H   0  0  0  0  0  0  0  0  0  0  0  0
   58.5210   33.9020   47.4230 C   0  0  0  0  0  0  0  0  0  0  0  0
   58.4272   33.8800   48.5188 H   0  0  0  0  0  0  0  0  0  0  0  0
   59.4400   34.7630   46.8200 C   0  0  0  0  0  0  0  0  0  0  0  0
   60.0591   35.4285   47.4396 H   0  0  0  0  0  0  0  0  0  0  0  0
   59.5730   34.7790   45.4290 C   0  0  0  0  0  0  0  0  0  0  0  0
   60.2998   35.4546   44.9542 H   0  0  0  0  0  0  0  0  0  0  0  0
   58.7830   33.9370   44.6400 C   0  0  0  0  0  0  0  0  0  0  0  0
   58.9061   33.9377   43.5469 H   0  0  0  0  0  0  0  0  0  0  0  0
   57.5950   30.0990   45.1730 O   0  0  0  0  0  0  0  0  0  0  0  0
   56.5040   26.6510   46.0270 C   0  0  0  0  0  0  0  0  0  0  0  0
   55.4347   26.7820   45.8047 H   0  0  0  0  0  0  0  0  0  0  0  0
   56.9660   25.4270   46.5080 C   0  0  0  0  0  0  0  0  0  0  0  0
   56.2672   24.5921   46.6646 H   0  0  0  0  0  0  0  0  0  0  0  0
  1  2  1  0
  2  3  1  0
  3  4  1  0
  4  5  2  0
  5  6  1  0
  6  7  2  0
  7  8  1  0
  7  9  1  0
  9 10  1  0
  9 11  2  0
 11 12  1  0
 12 13  1  0
 13 14  1  0
 13 15  1  0
 13 16  1  0
 11 17  1  0
 17 18  1  0
 18 19  1  0
 19 20  1  0
 19 21  1  0
 19 22  1  0
 17 23  2  0
 23 24  1  0
  4 25  1  0
 25 26  1  0
 26 27  2  0
 27 28  1  0
 28 29  1  0
 29 30  2  0
 30 31  1  0
 31 32  2  0
 32 33  1  0
 32 34  1  0
 34 35  1  0
 34 36  2  0
 36 37  1  0
 36 38  1  0
 38 39  1  0
 38 40  2  0
 40 41  1  0
 29 42  1  0
 25 43  2  0
 43 44  1  0
 43 45  1  0
 45 46  1  0
 45  2  2  0
 23  6  1  0
 42 26  1  0
 40 31  1  0
M  CHG  2   3  -1  28  -1
M  END
>  <UniqueID>  (4) 
3

>  <SMILES>  (4) 
COc1ccc(/N=c2\[n-]cccc2-c2n[n-]/c(=N/c3ccccc3)o2)cc1OC

>  <Energy>  (4) 
96.87770579177912

>  <Genealogy>  (4) 
COc1ccc(N=c2[n-]cccc2-c2n[n-]c(=Nc3ccccc3)o2)cc1OC (protonated)
COc1ccc(/N=c2\[n-]cccc2-c2n[n-]/c(=N/c3ccccc3)o2)cc1OC (cis-trans isomerization)
COc1ccc(/N=c2\[n-]cccc2-c2n[n-]/c(=N/c3ccccc3)o2)cc1OC (3D coordinates assigned)
COc1ccc(/N=c2\[n-]cccc2-c2n[n-]/c(=N/c3ccccc3)o2)cc1OC (optimized conformer: 96.87770579177912 kcal/mol)

>  <smiles>  (4) 
COc1ccc(N=c2[nH]cccc2-c2n[nH]c(=Nc3ccccc3)o2)cc1OC

>  <score_type>  (4) 
oracle

>  <origin>  (4) 
adg

>  <m_score__min__energy>  (4) 
-11.140000000000001

>  <m_primary>  (4) 
energy

$$$$
4:0
     RDKit          3D

 42 44  0  0  0  0  0  0  0  0999 V2000
   58.2440   31.9760   42.6760 O   0  0  0  0  0  0  0  0  0  0  0  0
   57.4540   31.3460   43.4290 C   0  0  0  0  0  0  0  0  0  0  0  0
   56.7320   30.1460   42.8950 C   0  0  0  0  0  0  0  0  0  0  0  0
   56.9870   28.9780   43.7530 N   0  0  0  0  0  0  0  0  0  0  0  0
   58.0000   28.1180   43.4310 C   0  0  0  0  0  0  0  0  0  0  0  0
   58.2850   27.0210   44.2430 C   0  0  0  0  0  0  0  0  0  0  0  0
   57.5240   26.8240   45.3910 C   0  0  0  0  0  0  0  0  0  0  0  0
   57.7990   25.7320   46.2210 O   0  0  0  0  0  0  0  0  0  0  0  0
   56.8950   24.6450   46.4160 C   0  0  0  0  0  0  0  0  0  0  0  0
   56.8940   23.7410   45.2130 C   0  0  0  0  0  0  0  0  0  0  0  0
   56.0250   23.9820   44.1350 C   0  0  0  0  0  0  0  0  0  0  0  0
   56.0160   23.1220   43.0330 C   0  0  0  0  0  0  0  0  0  0  0  0
   56.8720   22.0170   42.9990 C   0  0  0  0  0  0  0  0  0  0  0  0
   57.7370   21.7700   44.0690 C   0  0  0  0  0  0  0  0  0  0  0  0
   57.7480   22.6280   45.1740 C   0  0  0  0  0  0  0  0  0  0  0  0
   56.5270   27.6990   45.6900 N   0  0  0  0  0  0  0  0  0  0  0  0
   56.2560   28.7650   44.8940 C   0  0  0  0  0  0  0  0  0  0  0  0
   55.3280   29.5520   45.2210 O   0  0  0  0  0  0  0  0  0  0  0  0
   57.1770   31.8170   44.7580 N   0  0  0  0  0  0  0  0  0  0  0  0
   57.9130   32.8650   45.4100 C   0  0  0  0  0  0  0  0  0  0  0  0
   58.4690   33.8980   44.6390 C   0  0  0  0  0  0  0  0  0  0  0  0
   59.1710   34.9400   45.2520 C   0  0  0  0  0  0  0  0  0  0  0  0
   59.3100   34.9680   46.6430 C   0  0  0  0  0  0  0  0  0  0  0  0
   58.7390   33.9590   47.4220 C   0  0  0  0  0  0  0  0  0  0  0  0
   58.0370   32.9130   46.8120 C   0  0  0  0  0  0  0  0  0  0  0  0
   55.6517   30.3518   42.8726 H   0  0  0  0  0  0  0  0  0  0  0  0
   57.0938   29.9314   41.8786 H   0  0  0  0  0  0  0  0  0  0  0  0
   58.5956   28.2932   42.5230 H   0  0  0  0  0  0  0  0  0  0  0  0
   59.0955   26.3250   43.9812 H   0  0  0  0  0  0  0  0  0  0  0  0
   57.2051   24.0701   47.3011 H   0  0  0  0  0  0  0  0  0  0  0  0
   55.8811   25.0460   46.5617 H   0  0  0  0  0  0  0  0  0  0  0  0
   55.3498   24.8501   44.1585 H   0  0  0  0  0  0  0  0  0  0  0  0
   55.3345   23.3149   42.1914 H   0  0  0  0  0  0  0  0  0  0  0  0
   56.8648   21.3421   42.1304 H   0  0  0  0  0  0  0  0  0  0  0  0
   58.4097   20.9001   44.0421 H   0  0  0  0  0  0  0  0  0  0  0  0
   58.4284   22.4295   46.0152 H   0  0  0  0  0  0  0  0  0  0  0  0
   56.3320   31.4360   45.2420 H   0  0  0  0  0  0  0  0  0  0  0  0
   58.3515   33.8875   43.5453 H   0  0  0  0  0  0  0  0  0  0  0  0
   59.6145   35.7387   44.6393 H   0  0  0  0  0  0  0  0  0  0  0  0
   59.8689   35.7844   47.1237 H   0  0  0  0  0  0  0  0  0  0  0  0
   58.8412   33.9865   48.5169 H   0  0  0  0  0  0  0  0  0  0  0  0
   57.5805   32.1257   47.4299 H   0  0  0  0  0  0  0  0  0  0  0  0
  1  2  2  0
  2  3  1  0
  3  4  1  0
  4  5  1  0
  5  6  2  0
  6  7  1  0
  7  8  1  0
  8  9  1  0
  9 10  1  0
 10 11  2  0
 11 12  1  0
 12 13  2  0
 13 14  1  0
 14 15  2  0
  7 16  2  0
 16 17  1  0
 17 18  2  0
  2 19  1  0
 19 20  1  0
 20 21  2  0
 21 22  1  0
 22 23  2  0
 23 24  1  0
 24 25  2  0
 17  4  1  0
 25 20  1  0
 15 10  1  0
  3 26  1  0
  3 27  1  0
  5 28  1  0
  6 29  1  0
  9 30  1  0
  9 31  1  0
 11 32  1  0
 12 33  1  0
 13 34  1  0
 14 35  1  0
 15 36  1  0
 19 37  1  0
 21 38  1  0
 22 39  1  0
 23 40  1  0
 24 41  1  0
 25 42  1  0
M  END
>  <UniqueID>  (5) 
4

>  <SMILES>  (5) 
O=C(Cn1ccc(OCc2ccccc2)nc1=O)Nc1ccccc1

>  <Energy>  (5) 
46.618453529065484

>  <Genealogy>  (5) 
O=C(Cn1ccc(OCc2ccccc2)nc1=O)Nc1ccccc1 (3D coordinates assigned)
O=C(Cn1ccc(OCc2ccccc2)nc1=O)Nc1ccccc1 (optimized conformer: 46.618453529065484 kcal/mol)

>  <smiles>  (5) 
O=C(Cn1ccc(OCc2ccccc2)nc1=O)Nc1ccccc1

>  <score_type>  (5) 
oracle

>  <origin>  (5) 
adg

>  <m_score__min__energy>  (5) 
-7.9199999999999999

>  <m_primary>  (5) 
energy

$$$$
5:0
     RDKit          3D

 54 57  0  0  0  0  0  0  0  0999 V2000
   51.0330   32.6910   49.9580 O   0  0  0  0  0  0  0  0  0  0  0  0
   51.4060   32.0620   51.1380 C   0  0  0  0  0  0  0  0  0  0  0  0
   50.8410   32.4620   52.3520 C   0  0  0  0  0  0  0  0  0  0  0  0
   51.2160   31.8300   53.5410 C   0  0  0  0  0  0  0  0  0  0  0  0
   52.1560   30.7960   53.5190 C   0  0  0  0  0  0  0  0  0  0  0  0
   52.7290   30.3850   52.3020 C   0  0  0  0  0  0  0  0  0  0  0  0
   53.7580   29.2790   52.2720 C   0  0  0  0  0  0  0  0  0  0  0  0
   55.1410   29.8040   52.1650 N   0  0  0  0  0  0  0  0  0  0  0  0
   56.0730   28.9410   52.9370 C   0  0  0  0  0  0  0  0  0  0  0  0
   57.3290   29.6880   53.4420 C   0  0  0  0  0  0  0  0  0  0  0  0
   57.7220   30.8040   52.5580 N   0  0  0  0  0  0  0  0  0  0  0  0
   58.3280   30.3470   51.2860 C   0  0  0  0  0  0  0  0  0  0  0  0
   59.2850   31.3810   50.7520 C   0  0  0  0  0  0  0  0  0  0  0  0
   60.6350   31.3720   51.1370 C   0  0  0  0  0  0  0  0  0  0  0  0
   61.5080   32.3530   50.6610 C   0  0  0  0  0  0  0  0  0  0  0  0
   61.0440   33.3440   49.7930 C   0  0  0  0  0  0  0  0  0  0  0  0
   59.7060   33.3570   49.3840 C   0  0  0  0  0  0  0  0  0  0  0  0
   59.2740   34.3780   48.5240 O   0  0  0  0  0  0  0  0  0  0  0  0
   58.8430   34.1990   47.2010 C   0  0  0  0  0  0  0  0  0  0  0  0
   57.6990   33.4420   46.8860 C   0  0  0  0  0  0  0  0  0  0  0  0
   57.3120   33.2750   45.5530 C   0  0  0  0  0  0  0  0  0  0  0  0
   58.0670   33.8490   44.5260 C   0  0  0  0  0  0  0  0  0  0  0  0
   59.2150   34.5860   44.8330 C   0  0  0  0  0  0  0  0  0  0  0  0
   59.6050   34.7540   46.1650 C   0  0  0  0  0  0  0  0  0  0  0  0
   58.8230   32.3810   49.8820 C   0  0  0  0  0  0  0  0  0  0  0  0
   56.6250   31.7870   52.3630 C   0  0  0  0  0  0  0  0  0  0  0  0
   55.2200   31.2060   52.6220 C   0  0  0  0  0  0  0  0  0  0  0  0
   52.3480   31.0260   51.1120 C   0  0  0  0  0  0  0  0  0  0  0  0
   50.1004   33.2751   52.3719 H   0  0  0  0  0  0  0  0  0  0  0  0
   50.7706   32.1470   54.4955 H   0  0  0  0  0  0  0  0  0  0  0  0
   52.4488   30.3017   54.4570 H   0  0  0  0  0  0  0  0  0  0  0  0
   53.6729   28.6907   53.1975 H   0  0  0  0  0  0  0  0  0  0  0  0
   53.5622   28.6592   51.3846 H   0  0  0  0  0  0  0  0  0  0  0  0
   55.4220   29.7700   51.1560 H   0  0  0  0  0  0  0  0  0  0  0  0
   55.5343   28.5377   53.8071 H   0  0  0  0  0  0  0  0  0  0  0  0
   56.4190   28.1486   52.2570 H   0  0  0  0  0  0  0  0  0  0  0  0
   57.1202   30.0898   54.4445 H   0  0  0  0  0  0  0  0  0  0  0  0
   58.1603   28.9677   53.4576 H   0  0  0  0  0  0  0  0  0  0  0  0
   58.8724   29.4075   51.4621 H   0  0  0  0  0  0  0  0  0  0  0  0
   57.5273   30.1907   50.5481 H   0  0  0  0  0  0  0  0  0  0  0  0
   61.0064   30.5900   51.8156 H   0  0  0  0  0  0  0  0  0  0  0  0
   62.5635   32.3451   50.9705 H   0  0  0  0  0  0  0  0  0  0  0  0
   61.7346   34.1189   49.4288 H   0  0  0  0  0  0  0  0  0  0  0  0
   57.1079   32.9806   47.6908 H   0  0  0  0  0  0  0  0  0  0  0  0
   56.4117   32.6908   45.3118 H   0  0  0  0  0  0  0  0  0  0  0  0
   57.7585   33.7211   43.4779 H   0  0  0  0  0  0  0  0  0  0  0  0
   59.8121   35.0343   44.0252 H   0  0  0  0  0  0  0  0  0  0  0  0
   60.5151   35.3251   46.4007 H   0  0  0  0  0  0  0  0  0  0  0  0
   57.7634   32.4019   49.5875 H   0  0  0  0  0  0  0  0  0  0  0  0
   56.7857   32.6284   53.0531 H   0  0  0  0  0  0  0  0  0  0  0  0
   56.6553   32.0982   51.3084 H   0  0  0  0  0  0  0  0  0  0  0  0
   55.0059   31.2467   53.7002 H   0  0  0  0  0  0  0  0  0  0  0  0
   54.4832   31.8016   52.0631 H   0  0  0  0  0  0  0  0  0  0  0  0
   52.7914   30.7130   50.1552 H   0  0  0  0  0  0  0  0  0  0  0  0
  1  2  1  0
  2  3  2  0
  3  4  1  0
  4  5  2  0
  5  6  1  0
  6  7  1  0
  7  8  1  0
  8  9  1  0
  9 10  1  0
 10 11  1  0
 11 12  1  0
 12 13  1  0
 13 14  2  0
 14 15  1  0
 15 16  2  0
 16 17  1  0
 17 18  1  0
 18 19  1  0
 19 20  2  0
 20 21  1  0
 21 22  2  0
 22 23  1  0
 23 24  2  0
 17 25  2  0
 11 26  1  0
 26 27  1  0
  6 28  2  0
 28  2  1  0
 27  8  1  0
 25 13  1  0
 24 19  1  0
  3 29  1  0
  4 30  1  0
  5 31  1  0
  7 32  1  0
  7 33  1  0
  8 34  1  0
  9 35  1  0
  9 36  1  0
 10 37  1  0
 10 38  1  0
 12 39  1  0
 12 40  1  0
 14 41  1  0
 15 42  1  0
 16 43  1  0
 20 44  1  0
 21 45  1  0
 22 46  1  0
 23 47  1  0
 24 48  1  0
 25 49  1  0
 26 50  1  0
 26 51  1  0
 27 52  1  0
 27 53  1  0
 28 54  1  0
M  CHG  2   1  -1   8   1
M  END
>  <UniqueID>  (6) 
5

>  <SMILES>  (6) 
[O-]c1cccc(C[NH+]2CCN(Cc3cccc(Oc4ccccc4)c3)CC2)c1

>  <Energy>  (6) 
77.61849465557067

>  <Genealogy>  (6) 
[O-]c1cccc(C[NH+]2CCN(Cc3cccc(Oc4ccccc4)c3)CC2)c1 (protonated)
[O-]c1cccc(C[NH+]2CCN(Cc3cccc(Oc4ccccc4)c3)CC2)c1 (3D coordinates assigned)
[O-]c1cccc(C[NH+]2CCN(Cc3cccc(Oc4ccccc4)c3)CC2)c1 (nonaromatic ring conformer: 77.61849465557067 kcal/mol)

>  <smiles>  (6) 
Oc1cccc(CN2CCN(Cc3cccc(Oc4ccccc4)c3)CC2)c1

>  <score_type>  (6) 
oracle

>  <origin>  (6) 
adg

>  <m_score__min__energy>  (6) 
-11.390000000000001

>  <m_primary>  (6) 
energy

$$$$
6:0
     RDKit          3D

 55 57  0  0  1  0  0  0  0  0999 V2000
   56.1760   25.7760   46.7630 O   0  0  0  0  0  0  0  0  0  0  0  0
   56.3160   25.6650   45.5220 C   0  0  0  0  0  0  0  0  0  0  0  0
   55.6900   24.4680   44.8950 C   0  0  0  0  0  0  0  0  0  0  0  0
   56.4440   24.0170   43.6740 C   0  0  0  0  0  0  0  0  0  0  0  0
   57.0100   22.6320   43.8640 C   0  0  0  0  0  0  0  0  0  0  0  0
   58.3200   22.6310   44.6280 C   0  0  0  0  0  0  0  0  0  0  0  0
   58.3710   21.5430   45.6600 C   0  0  0  0  0  0  0  0  0  0  0  0
   56.9710   21.1760   46.1390 C   0  0  0  0  0  0  0  0  0  0  0  0
   56.4060   22.2910   46.9660 C   0  0  0  0  0  0  0  0  0  0  0  0
   57.3270   23.1880   47.4920 O   0  0  0  0  0  0  0  0  0  0  0  0
   55.1500   22.4300   47.1860 N   0  0  0  0  0  0  0  0  0  0  0  0
   54.7350   23.6210   47.7430 O   0  0  0  0  0  0  0  0  0  0  0  0
   57.0260   26.6230   44.7810 N   0  0  0  0  0  0  0  0  0  0  0  0
   57.6350   27.7870   45.2750 C   0  0  0  0  0  0  0  0  0  0  0  0
   58.4400   27.8880   46.3770 C   0  0  0  0  0  0  0  0  0  0  0  0
   59.0310   29.0560   46.8100 C   0  0  0  0  0  0  0  0  0  0  0  0
   58.8240   30.2670   46.1040 C   0  0  0  0  0  0  0  0  0  0  0  0
   59.3200   31.4420   46.3930 N   0  0  0  0  0  0  0  0  0  0  0  0
   59.0330   32.4820   45.6190 C   0  0  0  0  0  0  0  0  0  0  0  0
   59.3600   33.7270   45.6500 N   0  0  0  0  0  0  0  0  0  0  0  0
   59.5980   34.3050   46.9260 C   0  0  0  0  0  0  0  0  0  0  0  0
   58.7840   35.0610   47.5200 O   0  0  0  0  0  0  0  0  0  0  0  0
   60.9040   33.9540   47.5380 C   0  0  0  0  0  0  0  0  0  0  0  0
   61.9870   33.5990   46.7520 C   0  0  0  0  0  0  0  0  0  0  0  0
   63.1990   33.2820   47.3580 C   0  0  0  0  0  0  0  0  0  0  0  0
   63.3570   33.3100   48.7410 C   0  0  0  0  0  0  0  0  0  0  0  0
   64.8970   32.9080   49.4890 Cl  0  0  0  0  0  0  0  0  0  0  0  0
   62.2480   33.6700   49.4800 C   0  0  0  0  0  0  0  0  0  0  0  0
   61.0270   33.9910   48.9320 C   0  0  0  0  0  0  0  0  0  0  0  0
   57.9200   31.7750   44.2950 S   0  0  0  0  0  0  0  0  0  0  0  0
   58.0190   30.1410   45.0090 C   0  0  0  0  0  0  0  0  0  0  0  0
   57.4300   28.9840   44.5750 C   0  0  0  0  0  0  0  0  0  0  0  0
   55.6769   23.6481   45.6282 H   0  0  0  0  0  0  0  0  0  0  0  0
   54.6697   24.7388   44.5856 H   0  0  0  0  0  0  0  0  0  0  0  0
   55.7605   24.0103   42.8122 H   0  0  0  0  0  0  0  0  0  0  0  0
   57.2777   24.7137   43.5020 H   0  0  0  0  0  0  0  0  0  0  0  0
   56.2787   22.0269   44.4199 H   0  0  0  0  0  0  0  0  0  0  0  0
   57.2093   22.2163   42.8653 H   0  0  0  0  0  0  0  0  0  0  0  0
   59.1456   22.4836   43.9162 H   0  0  0  0  0  0  0  0  0  0  0  0
   58.4091   23.5959   45.1485 H   0  0  0  0  0  0  0  0  0  0  0  0
   58.8454   20.6530   45.2208 H   0  0  0  0  0  0  0  0  0  0  0  0
   58.9517   21.9049   46.5213 H   0  0  0  0  0  0  0  0  0  0  0  0
   56.3215   21.0024   45.2684 H   0  0  0  0  0  0  0  0  0  0  0  0
   57.0252   20.2632   46.7505 H   0  0  0  0  0  0  0  0  0  0  0  0
   57.0350   24.1070   47.8380 H   0  0  0  0  0  0  0  0  0  0  0  0
   54.6920   24.4480   47.1640 H   0  0  0  0  0  0  0  0  0  0  0  0
   57.0960   26.4270   43.7350 H   0  0  0  0  0  0  0  0  0  0  0  0
   58.6288   26.9733   46.9581 H   0  0  0  0  0  0  0  0  0  0  0  0
   59.6663   29.0477   47.7079 H   0  0  0  0  0  0  0  0  0  0  0  0
   59.9700   31.6150   47.2450 H   0  0  0  0  0  0  0  0  0  0  0  0
   61.8902   33.5677   45.6567 H   0  0  0  0  0  0  0  0  0  0  0  0
   64.0555   33.0017   46.7272 H   0  0  0  0  0  0  0  0  0  0  0  0
   62.3463   33.7023   50.5751 H   0  0  0  0  0  0  0  0  0  0  0  0
   60.1744   34.2680   49.5695 H   0  0  0  0  0  0  0  0  0  0  0  0
   56.7955   28.9936   43.6765 H   0  0  0  0  0  0  0  0  0  0  0  0
  1  2  2  0
  2  3  1  0
  3  4  1  0
  4  5  1  0
  5  6  1  0
  6  7  1  0
  7  8  1  0
  8  9  1  0
  9 10  1  0
  9 11  2  0
 11 12  1  0
  2 13  1  0
 13 14  1  0
 14 15  2  0
 15 16  1  0
 16 17  2  0
 17 18  1  0
 18 19  1  0
 19 20  2  0
 20 21  1  0
 21 22  2  0
 21 23  1  0
 23 24  2  0
 24 25  1  0
 25 26  2  0
 26 27  1  0
 26 28  1  0
 28 29  2  0
 19 30  1  0
 30 31  1  0
 31 32  2  0
 32 14  1  0
 31 17  1  0
 29 23  1  0
  3 33  1  0
  3 34  1  0
  4 35  1  0
  4 36  1  0
  5 37  1  0
  5 38  1  0
  6 39  1  0
  6 40  1  0
  7 41  1  0
  7 42  1  0
  8 43  1  0
  8 44  1  0
 10 45  1  0
 12 46  1  0
 13 47  1  0
 15 48  1  0
 16 49  1  0
 18 50  1  0
 24 51  1  0
 25 52  1  0
 28 53  1  0
 29 54  1  0
 32 55  1  0
M  END
>  <smiles>  (7) 
O=C(CCCCCCC(O)=NO)Nc1ccc2[nH]c(=NC(=O)c3ccc(Cl)cc3)sc2c1

>  <score_type>  (7) 
oracle

>  <origin>  (7) 
adg

>  <m_score__min__energy>  (7) 
-9.9700000000000006

>  <m_primary>  (7) 
energy

$$$$
7:0
     RDKit          3D

 44 47  0  0  1  0  0  0  0  0999 V2000
   56.6120   29.7620   42.6950 N   0  0  0  0  0  0  0  0  0  0  0  0
   56.5310   29.7980   44.4240 S   0  0  0  0  0  0  0  0  0  0  0  0
   56.8560   31.1960   44.8610 O   0  0  0  0  0  0  0  0  0  0  0  0
   55.1130   29.4520   44.8390 O   0  0  0  0  0  0  0  0  0  0  0  0
   57.6760   28.6650   45.1170 C   0  0  0  0  0  0  0  0  0  0  0  0
   57.9720   27.5300   44.3880 C   0  0  0  0  0  0  0  0  0  0  0  0
   58.8660   26.6030   44.8830 C   0  0  0  0  0  0  0  0  0  0  0  0
   59.4500   26.8370   46.1140 C   0  0  0  0  0  0  0  0  0  0  0  0
   59.1380   27.9880   46.8320 C   0  0  0  0  0  0  0  0  0  0  0  0
   59.7940   28.1360   48.0880 N   0  0  0  0  0  0  0  0  0  0  0  0
   59.9900   29.3230   48.5900 C   0  0  0  0  0  0  0  0  0  0  0  0
   60.7500   30.2210   47.9380 N   0  0  0  0  0  0  0  0  0  0  0  0
   60.9130   31.4280   48.5110 C   0  0  0  0  0  0  0  0  0  0  0  0
   61.7200   32.3650   47.8070 N   0  0  0  0  0  0  0  0  0  0  0  0
   63.0650   32.4650   47.8950 C   0  0  0  0  0  0  0  0  0  0  0  0
   63.5410   33.4660   47.0940 C   0  0  0  0  0  0  0  0  0  0  0  0
   62.4450   33.9960   46.4940 N   0  0  0  0  0  0  0  0  0  0  0  0
   61.3580   33.3220   46.9330 C   0  0  0  0  0  0  0  0  0  0  0  0
   59.9900   33.6060   46.5100 C   0  0  0  0  0  0  0  0  0  0  0  0
   58.8950   33.2930   47.3230 C   0  0  0  0  0  0  0  0  0  0  0  0
   57.6000   33.5550   46.9390 C   0  0  0  0  0  0  0  0  0  0  0  0
   57.3730   34.1490   45.7020 C   0  0  0  0  0  0  0  0  0  0  0  0
   58.4410   34.4760   44.8650 C   0  0  0  0  0  0  0  0  0  0  0  0
   59.7310   34.2000   45.2790 C   0  0  0  0  0  0  0  0  0  0  0  0
   60.3110   31.7010   49.7190 C   0  0  0  0  0  0  0  0  0  0  0  0
   59.5300   30.7650   50.3800 C   0  0  0  0  0  0  0  0  0  0  0  0
   59.3940   29.5710   49.7690 N   0  0  0  0  0  0  0  0  0  0  0  0
   58.2470   28.9280   46.3560 C   0  0  0  0  0  0  0  0  0  0  0  0
   55.8250   29.2560   42.2710 H   0  0  0  0  0  0  0  0  0  0  0  0
   57.5280   29.3790   42.3640 H   0  0  0  0  0  0  0  0  0  0  0  0
   57.4942   27.3648   43.4111 H   0  0  0  0  0  0  0  0  0  0  0  0
   59.1091   25.6962   44.3098 H   0  0  0  0  0  0  0  0  0  0  0  0
   60.1645   26.1103   46.5280 H   0  0  0  0  0  0  0  0  0  0  0  0
   63.6953   31.8241   48.5290 H   0  0  0  0  0  0  0  0  0  0  0  0
   64.5885   33.7755   46.9638 H   0  0  0  0  0  0  0  0  0  0  0  0
   59.0753   32.8223   48.3007 H   0  0  0  0  0  0  0  0  0  0  0  0
   56.7583   33.2990   47.5993 H   0  0  0  0  0  0  0  0  0  0  0  0
   56.3430   34.3629   45.3806 H   0  0  0  0  0  0  0  0  0  0  0  0
   58.2586   34.9475   43.8880 H   0  0  0  0  0  0  0  0  0  0  0  0
   60.5729   34.4563   44.6190 H   0  0  0  0  0  0  0  0  0  0  0  0
   60.4541   32.6923   50.1738 H   0  0  0  0  0  0  0  0  0  0  0  0
   59.0501   30.9837   51.3453 H   0  0  0  0  0  0  0  0  0  0  0  0
   58.8080   28.8620   50.2600 H   0  0  0  0  0  0  0  0  0  0  0  0
   58.0021   29.8361   46.9264 H   0  0  0  0  0  0  0  0  0  0  0  0
  1  2  1  0
  2  3  2  0
  2  4  2  0
  2  5  1  0
  5  6  2  0
  6  7  1  0
  7  8  2  0
  8  9  1  0
  9 10  1  0
 10 11  2  0
 11 12  1  0
 12 13  2  0
 13 14  1  0
 14 15  1  0
 15 16  2  0
 16 17  1  0
 17 18  2  0
 18 19  1  0
 19 20  2  0
 20 21  1  0
 21 22  2  0
 22 23  1  0
 23 24  2  0
 13 25  1  0
 25 26  2  0
 26 27  1  0
  9 28  2  0
 28  5  1  0
 27 11  1  0
 18 14  1  0
 24 19  1  0
  1 29  1  0
  1 30  1  0
  6 31  1  0
  7 32  1  0
  8 33  1  0
 15 34  1  0
 16 35  1  0
 20 36  1  0
 21 37  1  0
 22 38  1  0
 23 39  1  0
 24 40  1  0
 25 41  1  0
 26 42  1  0
 27 43  1  0
 28 44  1  0
M  END
>  <smiles>  (8) 
NS(=O)(=O)c1cccc(N=c2nc(-n3ccnc3-c3ccccc3)cc[nH]2)c1

>  <score_type>  (8) 
oracle

>  <origin>  (8) 
adg

>  <m_score__min__energy>  (8) 
-9.8499999999999996

>  <m_primary>  (8) 
energy

$$$$
8:0
     RDKit          3D

 56 57  0  0  0  0  0  0  0  0999 V2000
   60.0140   28.6030   44.5080 C   0  0  0  0  0  0  0  0  0  0  0  0
   59.0590   27.6800   45.2130 C   0  0  0  0  0  0  0  0  0  0  0  0
   59.5560   26.4810   45.7550 C   0  0  0  0  0  0  0  0  0  0  0  0
   58.7060   25.5910   46.4160 C   0  0  0  0  0  0  0  0  0  0  0  0
   57.3500   25.8850   46.5400 C   0  0  0  0  0  0  0  0  0  0  0  0
   56.5240   25.0170   47.1760 F   0  0  0  0  0  0  0  0  0  0  0  0
   56.8420   27.0760   46.0190 C   0  0  0  0  0  0  0  0  0  0  0  0
   57.6860   27.9970   45.3790 C   0  0  0  0  0  0  0  0  0  0  0  0
   56.9810   29.5170   44.8050 S   0  0  0  0  0  0  0  0  0  0  0  0
   55.4840   29.4000   44.8210 O   0  0  0  0  0  0  0  0  0  0  0  0
   57.4300   29.8400   43.4090 O   0  0  0  0  0  0  0  0  0  0  0  0
   57.4530   30.8180   45.8470 N   0  0  0  0  0  0  0  0  0  0  0  0
   58.3670   30.6490   46.9320 C   0  0  0  0  0  0  0  0  0  0  0  0
   58.8390   29.5020   47.1620 O   0  0  0  0  0  0  0  0  0  0  0  0
   58.7300   31.7390   47.7360 O   0  0  0  0  0  0  0  0  0  0  0  0
   60.0060   32.3110   47.6780 C   0  0  0  0  0  0  0  0  0  0  0  0
   60.3070   33.2840   46.6750 C   0  0  0  0  0  0  0  0  0  0  0  0
   59.2010   34.0530   45.8930 C   0  0  0  0  0  0  0  0  0  0  0  0
   58.8840   33.3350   44.5680 C   0  0  0  0  0  0  0  0  0  0  0  0
   59.6320   35.5040   45.5420 C   0  0  0  0  0  0  0  0  0  0  0  0
   57.9150   34.1860   46.7450 C   0  0  0  0  0  0  0  0  0  0  0  0
   61.6700   33.5300   46.4010 C   0  0  0  0  0  0  0  0  0  0  0  0
   62.6720   32.9670   47.1770 C   0  0  0  0  0  0  0  0  0  0  0  0
   62.3540   32.1880   48.2810 C   0  0  0  0  0  0  0  0  0  0  0  0
   61.0130   31.8780   48.5960 C   0  0  0  0  0  0  0  0  0  0  0  0
   60.6540   31.1500   49.9230 C   0  0  0  0  0  0  0  0  0  0  0  0
   61.7950   31.2190   50.9730 C   0  0  0  0  0  0  0  0  0  0  0  0
   60.3510   29.6550   49.6780 C   0  0  0  0  0  0  0  0  0  0  0  0
   59.4250   31.8330   50.5670 C   0  0  0  0  0  0  0  0  0  0  0  0
   60.5965   29.1660   45.2521 H   0  0  0  0  0  0  0  0  0  0  0  0
   60.6962   28.0133   43.8781 H   0  0  0  0  0  0  0  0  0  0  0  0
   59.4479   29.3049   43.8781 H   0  0  0  0  0  0  0  0  0  0  0  0
   60.6252   26.2416   45.6574 H   0  0  0  0  0  0  0  0  0  0  0  0
   59.1074   24.6581   46.8385 H   0  0  0  0  0  0  0  0  0  0  0  0
   55.7680   27.2954   46.1110 H   0  0  0  0  0  0  0  0  0  0  0  0
   58.4481   32.3478   44.7811 H   0  0  0  0  0  0  0  0  0  0  0  0
   58.1671   33.9349   43.9882 H   0  0  0  0  0  0  0  0  0  0  0  0
   59.8103   33.2094   43.9882 H   0  0  0  0  0  0  0  0  0  0  0  0
   59.8004   36.0710   46.4695 H   0  0  0  0  0  0  0  0  0  0  0  0
   60.5613   35.4784   44.9540 H   0  0  0  0  0  0  0  0  0  0  0  0
   58.8394   35.9899   44.9540 H   0  0  0  0  0  0  0  0  0  0  0  0
   58.1781   34.1588   47.8127 H   0  0  0  0  0  0  0  0  0  0  0  0
   57.4190   35.1402   46.5138 H   0  0  0  0  0  0  0  0  0  0  0  0
   57.2342   33.3535   46.5138 H   0  0  0  0  0  0  0  0  0  0  0  0
   61.9421   34.1802   45.5565 H   0  0  0  0  0  0  0  0  0  0  0  0
   63.7266   33.1390   46.9157 H   0  0  0  0  0  0  0  0  0  0  0  0
   63.1616   31.8051   48.9223 H   0  0  0  0  0  0  0  0  0  0  0  0
   61.3642   31.1930   51.9848 H   0  0  0  0  0  0  0  0  0  0  0  0
   62.4689   30.3600   50.8392 H   0  0  0  0  0  0  0  0  0  0  0  0
   62.3605   32.1530   50.8392 H   0  0  0  0  0  0  0  0  0  0  0  0
   60.2464   29.1390   50.6438 H   0  0  0  0  0  0  0  0  0  0  0  0
   59.4152   29.5592   49.1079 H   0  0  0  0  0  0  0  0  0  0  0  0
   61.1757   29.2024   49.1079 H   0  0  0  0  0  0  0  0  0  0  0  0
   59.5111   31.7851   51.6626 H   0  0  0  0  0  0  0  0  0  0  0  0
   59.3811   32.8849   50.2482 H   0  0  0  0  0  0  0  0  0  0  0  0
   58.5086   31.3148   50.2482 H   0  0  0  0  0  0  0  0  0  0  0  0
  1  2  1  0
  2  3  2  0
  3  4  1  0
  4  5  2  0
  5  6  1  0
  5  7  1  0
  7  8  2  0
  8  9  1  0
  9 10  2  0
  9 11  2  0
  9 12  1  0
 12 13  1  0
 13 14  2  0
 13 15  1  0
 15 16  1  0
 16 17  2  0
 17 18  1  0
 18 19  1  0
 18 20  1  0
 18 21  1  0
 17 22  1  0
 22 23  2  0
 23 24  1  0
 24 25  2  0
 25 26  1  0
 26 27  1  0
 26 28  1  0
 26 29  1  0
  8  2  1  0
 25 16  1  0
  1 30  1  0
  1 31  1  0
  1 32  1  0
  3 33  1  0
  4 34  1  0
  7 35  1  0
 19 36  1  0
 19 37  1  0
 19 38  1  0
 20 39  1  0
 20 40  1  0
 20 41  1  0
 21 42  1  0
 21 43  1  0
 21 44  1  0
 22 45  1  0
 23 46  1  0
 24 47  1  0
 27 48  1  0
 27 49  1  0
 27 50  1  0
 28 51  1  0
 28 52  1  0
 28 53  1  0
 29 54  1  0
 29 55  1  0
 29 56  1  0
M  CHG  1  12  -1
M  END
>  <UniqueID>  (9) 
6

>  <SMILES>  (9) 
Cc1ccc(F)cc1S(=O)(=O)[N-]C(=O)Oc1c(C(C)(C)C)cccc1C(C)(C)C

>  <Energy>  (9) 
77.74216704393575

>  <Genealogy>  (9) 
Cc1ccc(F)cc1S(=O)(=O)[N-]C(=O)Oc1c(C(C)(C)C)cccc1C(C)(C)C (protonated)
Cc1ccc(F)cc1S(=O)(=O)[N-]C(=O)Oc1c(C(C)(C)C)cccc1C(C)(C)C (3D coordinates assigned)
Cc1ccc(F)cc1S(=O)(=O)[N-]C(=O)Oc1c(C(C)(C)C)cccc1C(C)(C)C (optimized conformer: 77.74216704393575 kcal/mol)

>  <smiles>  (9) 
Cc1ccc(F)cc1S(=O)(=O)NC(=O)Oc1c(C(C)(C)C)cccc1C(C)(C)C

>  <score_type>  (9) 
oracle

>  <origin>  (9) 
adg

>  <m_score__min__energy>  (9) 
-9.9600000000000009

>  <m_primary>  (9) 
energy

$$$$
9:0
     RDKit          3D

 43 45  0  0  0  0  0  0  0  0999 V2000
   62.9260   33.5720   48.4600 C   0  0  0  0  0  0  0  0  0  0  0  0
   61.5440   33.8490   47.9710 C   0  0  0  0  0  0  0  0  0  0  0  0
   60.4640   34.2220   48.7610 C   0  0  0  0  0  0  0  0  0  0  0  0
   59.2730   34.3560   48.0390 C   0  0  0  0  0  0  0  0  0  0  0  0
   59.4160   34.0620   46.6880 C   0  0  0  0  0  0  0  0  0  0  0  0
   58.3460   34.1990   45.6500 C   0  0  0  0  0  0  0  0  0  0  0  0
   57.4200   33.1380   45.7690 O   0  0  0  0  0  0  0  0  0  0  0  0
   58.0840   31.9330   46.0950 C   0  0  0  0  0  0  0  0  0  0  0  0
   57.6890   30.8690   45.1040 C   0  0  0  0  0  0  0  0  0  0  0  0
   57.0550   31.2430   43.9060 C   0  0  0  0  0  0  0  0  0  0  0  0
   56.7240   30.3070   42.9790 N   0  0  0  0  0  0  0  0  0  0  0  0
   56.9880   28.9880   43.1650 C   0  0  0  0  0  0  0  0  0  0  0  0
   57.6090   28.5580   44.3420 C   0  0  0  0  0  0  0  0  0  0  0  0
   57.9590   29.4960   45.3210 C   0  0  0  0  0  0  0  0  0  0  0  0
   58.6410   28.9580   46.5510 C   0  0  0  0  0  0  0  0  0  0  0  0
   57.9240   27.6780   47.0000 C   0  0  0  0  0  0  0  0  0  0  0  0
   57.8190   26.6490   45.9330 N   0  0  0  0  0  0  0  0  0  0  0  0
   56.3290   25.7470   46.0910 S   0  0  0  0  0  0  0  0  0  0  0  0
   56.1920   24.5070   44.8170 C   0  0  0  0  0  0  0  0  0  0  0  0
   56.2960   25.0730   47.4340 O   0  0  0  0  0  0  0  0  0  0  0  0
   55.1570   26.6840   45.9920 O   0  0  0  0  0  0  0  0  0  0  0  0
   58.0100   27.1190   44.5380 C   0  0  0  0  0  0  0  0  0  0  0  0
   61.0200   33.6550   46.3840 S   0  0  0  0  0  0  0  0  0  0  0  0
   62.9324   33.5707   49.5600 H   0  0  0  0  0  0  0  0  0  0  0  0
   63.2558   32.5899   48.0903 H   0  0  0  0  0  0  0  0  0  0  0  0
   63.6088   34.3511   48.0903 H   0  0  0  0  0  0  0  0  0  0  0  0
   60.5377   34.3946   49.8449 H   0  0  0  0  0  0  0  0  0  0  0  0
   58.3199   34.6630   48.4944 H   0  0  0  0  0  0  0  0  0  0  0  0
   57.8231   35.1566   45.7898 H   0  0  0  0  0  0  0  0  0  0  0  0
   58.8053   34.1678   44.6510 H   0  0  0  0  0  0  0  0  0  0  0  0
   59.1721   32.0892   46.0538 H   0  0  0  0  0  0  0  0  0  0  0  0
   57.8018   31.6172   47.1102 H   0  0  0  0  0  0  0  0  0  0  0  0
   56.8252   32.3022   43.7180 H   0  0  0  0  0  0  0  0  0  0  0  0
   56.7133   28.2576   42.3897 H   0  0  0  0  0  0  0  0  0  0  0  0
   59.6921   28.7303   46.3201 H   0  0  0  0  0  0  0  0  0  0  0  0
   58.6023   29.7074   47.3553 H   0  0  0  0  0  0  0  0  0  0  0  0
   58.4797   27.2466   47.8456 H   0  0  0  0  0  0  0  0  0  0  0  0
   56.8978   27.9629   47.2753 H   0  0  0  0  0  0  0  0  0  0  0  0
   56.0825   23.5155   45.2806 H   0  0  0  0  0  0  0  0  0  0  0  0
   55.3118   24.7189   44.1922 H   0  0  0  0  0  0  0  0  0  0  0  0
   57.0972   24.5216   44.1922 H   0  0  0  0  0  0  0  0  0  0  0  0
   59.0726   27.0121   44.2744 H   0  0  0  0  0  0  0  0  0  0  0  0
   57.3634   26.5062   43.8927 H   0  0  0  0  0  0  0  0  0  0  0  0
  1  2  1  0
  2  3  2  0
  3  4  1  0
  4  5  2  0
  5  6  1  0
  6  7  1  0
  7  8  1  0
  8  9  1  0
  9 10  2  0
 10 11  1  0
 11 12  2  0
 12 13  1  0
 13 14  2  0
 14 15  1  0
 15 16  1  0
 16 17  1  0
 17 18  1  0
 18 19  1  0
 18 20  2  0
 18 21  2  0
 17 22  1  0
  5 23  1  0
 23  2  1  0
 14  9  1  0
 22 13  1  0
  1 24  1  0
  1 25  1  0
  1 26  1  0
  3 27  1  0
  4 28  1  0
  6 29  1  0
  6 30  1  0
  8 31  1  0
  8 32  1  0
 10 33  1  0
 12 34  1  0
 15 35  1  0
 15 36  1  0
 16 37  1  0
 16 38  1  0
 19 39  1  0
 19 40  1  0
 19 41  1  0
 22 42  1  0
 22 43  1  0
M  END
>  <UniqueID>  (10) 
7

>  <SMILES>  (10) 
Cc1ccc(COCc2cncc3c2CCN(S(C)(=O)=O)C3)s1

>  <Energy>  (10) 
75.0742364274834

>  <Genealogy>  (10) 
Cc1ccc(COCc2cncc3c2CCN(S(C)(=O)=O)C3)s1 (3D coordinates assigned)
Cc1ccc(COCc2cncc3c2CCN(S(C)(=O)=O)C3)s1 (nonaromatic ring conformer: 75.0742364274834 kcal/mol)

>  <smiles>  (10) 
Cc1ccc(COCc2cncc3c2CCN(S(C)(=O)=O)C3)s1

>  <score_type>  (10) 
oracle

>  <origin>  (10) 
adg

>  <m_score__min__energy>  (10) 
-8.5700000000000003

>  <m_primary>  (10) 
energy

$$$$
10:0
     RDKit          3D

 49 51  0  0  0  0  0  0  0  0999 V2000
   56.4920   22.5820   48.7960 C   0  0  0  0  0  0  0  0  0  0  0  0
   57.3680   21.9250   47.8870 O   0  0  0  0  0  0  0  0  0  0  0  0
   57.0030   21.4770   46.6070 C   0  0  0  0  0  0  0  0  0  0  0  0
   56.6180   20.1410   46.3770 C   0  0  0  0  0  0  0  0  0  0  0  0
   56.2680   19.7150   45.0930 C   0  0  0  0  0  0  0  0  0  0  0  0
   56.3030   20.6100   44.0240 C   0  0  0  0  0  0  0  0  0  0  0  0
   56.6810   21.9370   44.2370 C   0  0  0  0  0  0  0  0  0  0  0  0
   57.0230   22.3860   45.5240 C   0  0  0  0  0  0  0  0  0  0  0  0
   57.4000   23.8370   45.7140 C   0  0  0  0  0  0  0  0  0  0  0  0
   56.3440   24.7150   45.2100 N   0  0  0  0  0  0  0  0  0  0  0  0
   56.0690   26.0370   45.6940 C   0  0  0  0  0  0  0  0  0  0  0  0
   54.8850   26.3420   45.9930 O   0  0  0  0  0  0  0  0  0  0  0  0
   57.1370   27.0320   45.8840 C   0  0  0  0  0  0  0  0  0  0  0  0
   58.0390   26.8970   46.9480 C   0  0  0  0  0  0  0  0  0  0  0  0
   59.0770   27.8180   47.1110 C   0  0  0  0  0  0  0  0  0  0  0  0
   59.2100   28.9050   46.2340 C   0  0  0  0  0  0  0  0  0  0  0  0
   60.3190   29.8050   46.3940 N   0  0  0  0  0  0  0  0  0  0  0  0
   60.3430   30.8970   47.3300 C   0  0  0  0  0  0  0  0  0  0  0  0
   59.4790   30.9660   48.2450 O   0  0  0  0  0  0  0  0  0  0  0  0
   61.4070   31.9250   47.2570 C   0  0  0  0  0  0  0  0  0  0  0  0
   62.7000   31.6020   47.7040 C   0  0  0  0  0  0  0  0  0  0  0  0
   63.7220   32.5540   47.6740 C   0  0  0  0  0  0  0  0  0  0  0  0
   63.4650   33.8400   47.2020 C   0  0  0  0  0  0  0  0  0  0  0  0
   62.1890   34.1790   46.7520 C   0  0  0  0  0  0  0  0  0  0  0  0
   61.1510   33.2300   46.7620 C   0  0  0  0  0  0  0  0  0  0  0  0
   59.7930   33.6310   46.2470 C   0  0  0  0  0  0  0  0  0  0  0  0
   58.2980   29.0430   45.1730 C   0  0  0  0  0  0  0  0  0  0  0  0
   57.2640   28.1170   45.0040 C   0  0  0  0  0  0  0  0  0  0  0  0
   56.7962   22.3538   49.8282 H   0  0  0  0  0  0  0  0  0  0  0  0
   56.5402   23.6685   48.6312 H   0  0  0  0  0  0  0  0  0  0  0  0
   55.4624   22.2315   48.6312 H   0  0  0  0  0  0  0  0  0  0  0  0
   56.5928   19.4282   47.2145 H   0  0  0  0  0  0  0  0  0  0  0  0
   55.9642   18.6712   44.9250 H   0  0  0  0  0  0  0  0  0  0  0  0
   56.0328   20.2704   43.0132 H   0  0  0  0  0  0  0  0  0  0  0  0
   56.7114   22.6376   43.3895 H   0  0  0  0  0  0  0  0  0  0  0  0
   57.5523   24.0334   46.7856 H   0  0  0  0  0  0  0  0  0  0  0  0
   58.3252   24.0386   45.1543 H   0  0  0  0  0  0  0  0  0  0  0  0
   57.9295   26.0633   47.6571 H   0  0  0  0  0  0  0  0  0  0  0  0
   59.7958   27.6898   47.9337 H   0  0  0  0  0  0  0  0  0  0  0  0
   61.1640   29.6370   45.8020 H   0  0  0  0  0  0  0  0  0  0  0  0
   62.9091   30.5900   48.0810 H   0  0  0  0  0  0  0  0  0  0  0  0
   64.7307   32.2884   48.0233 H   0  0  0  0  0  0  0  0  0  0  0  0
   64.2702   34.5892   47.1843 H   0  0  0  0  0  0  0  0  0  0  0  0
   61.9928   35.1976   46.3860 H   0  0  0  0  0  0  0  0  0  0  0  0
   59.1226   33.8290   47.0963 H   0  0  0  0  0  0  0  0  0  0  0  0
   59.8869   34.5398   45.6344 H   0  0  0  0  0  0  0  0  0  0  0  0
   59.3782   32.8170   45.6344 H   0  0  0  0  0  0  0  0  0  0  0  0
   58.3985   29.8844   44.4716 H   0  0  0  0  0  0  0  0  0  0  0  0
   56.5478   28.2398   44.1782 H   0  0  0  0  0  0  0  0  0  0  0  0
  1  2  1  0
  2  3  1  0
  3  4  2  0
  4  5  1  0
  5  6  2  0
  6  7  1  0
  7  8  2  0
  8  9  1  0
  9 10  1  0
 10 11  1  0
 11 12  2  0
 11 13  1  0
 13 14  2  0
 14 15  1  0
 15 16  2  0
 16 17  1  0
 17 18  1  0
 18 19  2  0
 18 20  1  0
 20 21  2  0
 21 22  1  0
 22 23  2  0
 23 24  1  0
 24 25  2  0
 25 26  1  0
 16 27  1  0
 27 28  2  0
  8  3  1  0
 28 13  1  0
 25 20  1  0
  1 29  1  0
  1 30  1  0
  1 31  1  0
  4 32  1  0
  5 33  1  0
  6 34  1  0
  7 35  1  0
  9 36  1  0
  9 37  1  0
 14 38  1  0
 15 39  1  0
 17 40  1  0
 21 41  1  0
 22 42  1  0
 23 43  1  0
 24 44  1  0
 26 45  1  0
 26 46  1  0
 26 47  1  0
 27 48  1  0
 28 49  1  0
M  CHG  1  10  -1
M  END
>  <UniqueID>  (11) 
8

>  <SMILES>  (11) 
COc1ccccc1C[N-]C(=O)c1ccc(NC(=O)c2ccccc2C)cc1

>  <Energy>  (11) 
61.35003144186311

>  <Genealogy>  (11) 
COc1ccccc1C[N-]C(=O)c1ccc(NC(=O)c2ccccc2C)cc1 (protonated)
COc1ccccc1C[N-]C(=O)c1ccc(NC(=O)c2ccccc2C)cc1 (3D coordinates assigned)
COc1ccccc1C[N-]C(=O)c1ccc(NC(=O)c2ccccc2C)cc1 (optimized conformer: 61.35003144186311 kcal/mol)

>  <smiles>  (11) 
COc1ccccc1CNC(=O)c1ccc(NC(=O)c2ccccc2C)cc1

>  <score_type>  (11) 
oracle

>  <origin>  (11) 
adg

>  <m_score__min__energy>  (11) 
-10.16

>  <m_primary>  (11) 
energy

$$$$
11:0
     RDKit          3D

 51 53  0  0  0  0  0  0  0  0999 V2000
   61.9830   33.2680   51.9060 C   0  0  0  0  0  0  0  0  0  0  0  0
   61.8550   33.8400   50.6080 O   0  0  0  0  0  0  0  0  0  0  0  0
   62.3990   33.2870   49.4390 C   0  0  0  0  0  0  0  0  0  0  0  0
   63.6160   33.7420   48.8920 C   0  0  0  0  0  0  0  0  0  0  0  0
   64.1270   33.1650   47.7260 C   0  0  0  0  0  0  0  0  0  0  0  0
   63.4330   32.1320   47.0940 C   0  0  0  0  0  0  0  0  0  0  0  0
   62.2270   31.6730   47.6260 C   0  0  0  0  0  0  0  0  0  0  0  0
   61.7070   32.2450   48.7960 C   0  0  0  0  0  0  0  0  0  0  0  0
   60.4760   31.7490   49.3360 N   0  0  0  0  0  0  0  0  0  0  0  0
   60.4370   30.4260   49.9650 C   0  0  0  0  0  0  0  0  0  0  0  0
   59.9960   29.3960   48.9710 C   0  0  0  0  0  0  0  0  0  0  0  0
   60.5930   28.2870   48.9130 O   0  0  0  0  0  0  0  0  0  0  0  0
   58.9320   29.6960   48.0610 N   0  0  0  0  0  0  0  0  0  0  0  0
   58.5380   28.7680   47.0010 C   0  0  0  0  0  0  0  0  0  0  0  0
   58.0080   29.5190   45.8080 C   0  0  0  0  0  0  0  0  0  0  0  0
   56.7580   29.1960   45.2530 C   0  0  0  0  0  0  0  0  0  0  0  0
   56.2810   29.8910   44.1380 C   0  0  0  0  0  0  0  0  0  0  0  0
   57.0490   30.9050   43.5620 C   0  0  0  0  0  0  0  0  0  0  0  0
   58.2960   31.2290   44.1030 C   0  0  0  0  0  0  0  0  0  0  0  0
   58.7730   30.5430   45.2240 C   0  0  0  0  0  0  0  0  0  0  0  0
   59.0770   32.7820   49.3300 S   0  0  0  0  0  0  0  0  0  0  0  0
   59.2660   33.8950   50.3250 O   0  0  0  0  0  0  0  0  0  0  0  0
   57.8590   31.9990   49.7370 O   0  0  0  0  0  0  0  0  0  0  0  0
   58.8440   33.4700   47.7240 C   0  0  0  0  0  0  0  0  0  0  0  0
   59.8500   34.2430   47.1250 C   0  0  0  0  0  0  0  0  0  0  0  0
   59.6480   34.7960   45.8560 C   0  0  0  0  0  0  0  0  0  0  0  0
   58.4420   34.5830   45.1820 C   0  0  0  0  0  0  0  0  0  0  0  0
   57.4390   33.8100   45.7730 C   0  0  0  0  0  0  0  0  0  0  0  0
   57.6420   33.2480   47.0380 C   0  0  0  0  0  0  0  0  0  0  0  0
   61.8095   34.0431   52.6670 H   0  0  0  0  0  0  0  0  0  0  0  0
   61.2427   32.4634   52.0268 H   0  0  0  0  0  0  0  0  0  0  0  0
   62.9956   32.8557   52.0268 H   0  0  0  0  0  0  0  0  0  0  0  0
   64.1668   34.5561   49.3858 H   0  0  0  0  0  0  0  0  0  0  0  0
   65.0775   33.5255   47.3058 H   0  0  0  0  0  0  0  0  0  0  0  0
   63.8367   31.6794   46.1763 H   0  0  0  0  0  0  0  0  0  0  0  0
   61.6821   30.8591   47.1254 H   0  0  0  0  0  0  0  0  0  0  0  0
   61.4408   30.1690   50.3341 H   0  0  0  0  0  0  0  0  0  0  0  0
   59.7240   30.4465   50.8024 H   0  0  0  0  0  0  0  0  0  0  0  0
   58.4130   30.5920   48.1880 H   0  0  0  0  0  0  0  0  0  0  0  0
   59.4131   28.1757   46.6955 H   0  0  0  0  0  0  0  0  0  0  0  0
   57.7462   28.1077   47.3844 H   0  0  0  0  0  0  0  0  0  0  0  0
   56.1523   28.3928   45.6980 H   0  0  0  0  0  0  0  0  0  0  0  0
   55.2982   29.6385   43.7133 H   0  0  0  0  0  0  0  0  0  0  0  0
   56.6726   31.4485   42.6828 H   0  0  0  0  0  0  0  0  0  0  0  0
   58.9030   32.0246   43.6464 H   0  0  0  0  0  0  0  0  0  0  0  0
   59.7520   30.8061   45.6510 H   0  0  0  0  0  0  0  0  0  0  0  0
   60.7991   34.4145   47.6540 H   0  0  0  0  0  0  0  0  0  0  0  0
   60.4395   35.3995   45.3877 H   0  0  0  0  0  0  0  0  0  0  0  0
   58.2826   35.0237   44.1868 H   0  0  0  0  0  0  0  0  0  0  0  0
   56.4894   33.6433   45.2433 H   0  0  0  0  0  0  0  0  0  0  0  0
   56.8557   32.6298   47.4958 H   0  0  0  0  0  0  0  0  0  0  0  0
  1  2  1  0
  2  3  1  0
  3  4  2  0
  4  5  1  0
  5  6  2  0
  6  7  1  0
  7  8  2  0
  8  9  1  0
  9 10  1  0
 10 11  1  0
 11 12  2  0
 11 13  1  0
 13 14  1  0
 14 15  1  0
 15 16  2  0
 16 17  1  0
 17 18  2  0
 18 19  1  0
 19 20  2  0
  9 21  1  0
 21 22  2  0
 21 23  2  0
 21 24  1  0
 24 25  2  0
 25 26  1  0
 26 27  2  0
 27 28  1  0
 28 29  2  0
  8  3  1  0
 20 15  1  0
 29 24  1  0
  1 30  1  0
  1 31  1  0
  1 32  1  0
  4 33  1  0
  5 34  1  0
  6 35  1  0
  7 36  1  0
 10 37  1  0
 10 38  1  0
 13 39  1  0
 14 40  1  0
 14 41  1  0
 16 42  1  0
 17 43  1  0
 18 44  1  0
 19 45  1  0
 20 46  1  0
 25 47  1  0
 26 48  1  0
 27 49  1  0
 28 50  1  0
 29 51  1  0
M  END
>  <UniqueID>  (12) 
9

>  <SMILES>  (12) 
COc1ccccc1N(CC(=O)NCc1ccccc1)S(=O)(=O)c1ccccc1

>  <Energy>  (12) 
49.58276354782143

>  <Genealogy>  (12) 
COc1ccccc1N(CC(=O)NCc1ccccc1)S(=O)(=O)c1ccccc1 (3D coordinates assigned)
COc1ccccc1N(CC(=O)NCc1ccccc1)S(=O)(=O)c1ccccc1 (optimized conformer: 49.58276354782143 kcal/mol)

>  <smiles>  (12) 
COc1ccccc1N(CC(=O)NCc1ccccc1)S(=O)(=O)c1ccccc1

>  <score_type>  (12) 
oracle

>  <origin>  (12) 
adg

>  <m_score__min__energy>  (12) 
-7.7400000000000002

>  <m_primary>  (12) 
energy

$$$$
12:0
     RDKit          3D

 37 40  0  0  0  0  0  0  0  0999 V2000
   56.7970   25.7380   46.0810 O   0  0  0  0  0  0  0  0  0  0  0  0
   57.0500   26.9690   46.0200 C   0  0  0  0  0  0  0  0  0  0  0  0
   56.2760   27.8040   45.2670 N   0  0  0  0  0  0  0  0  0  0  0  0
   56.5370   29.1490   45.2030 C   0  0  0  0  0  0  0  0  0  0  0  0
   55.5190   30.2090   44.1810 S   0  0  0  0  0  0  0  0  0  0  0  0
   56.9300   31.0090   43.3390 C   0  0  0  0  0  0  0  0  0  0  0  0
   57.5070   32.1200   44.1750 C   0  0  0  0  0  0  0  0  0  0  0  0
   58.5600   32.9110   43.6820 C   0  0  0  0  0  0  0  0  0  0  0  0
   59.1100   33.9240   44.4720 C   0  0  0  0  0  0  0  0  0  0  0  0
   58.6170   34.1560   45.7610 C   0  0  0  0  0  0  0  0  0  0  0  0
   59.3240   35.4120   46.7580 Cl  0  0  0  0  0  0  0  0  0  0  0  0
   57.5730   33.3690   46.2600 C   0  0  0  0  0  0  0  0  0  0  0  0
   57.0200   32.3550   45.4710 C   0  0  0  0  0  0  0  0  0  0  0  0
   57.5830   29.6870   45.8990 N   0  0  0  0  0  0  0  0  0  0  0  0
   58.3660   28.8550   46.6280 C   0  0  0  0  0  0  0  0  0  0  0  0
   58.1180   27.5250   46.7110 C   0  0  0  0  0  0  0  0  0  0  0  0
   59.0750   27.0220   47.5650 C   0  0  0  0  0  0  0  0  0  0  0  0
   59.8600   28.0520   47.9690 N   0  0  0  0  0  0  0  0  0  0  0  0
   59.4310   29.1730   47.3910 N   0  0  0  0  0  0  0  0  0  0  0  0
   60.0380   30.4640   47.6030 C   0  0  0  0  0  0  0  0  0  0  0  0
   59.4540   31.3700   48.5070 C   0  0  0  0  0  0  0  0  0  0  0  0
   60.0380   32.6180   48.7390 C   0  0  0  0  0  0  0  0  0  0  0  0
   61.2160   32.9750   48.0790 C   0  0  0  0  0  0  0  0  0  0  0  0
   61.8130   32.0810   47.1870 C   0  0  0  0  0  0  0  0  0  0  0  0
   61.2300   30.8320   46.9490 C   0  0  0  0  0  0  0  0  0  0  0  0
   57.7109   30.2565   43.1548 H   0  0  0  0  0  0  0  0  0  0  0  0
   56.5715   31.4376   42.3915 H   0  0  0  0  0  0  0  0  0  0  0  0
   58.9524   32.7316   42.6702 H   0  0  0  0  0  0  0  0  0  0  0  0
   59.9323   34.5404   44.0798 H   0  0  0  0  0  0  0  0  0  0  0  0
   57.1867   33.5481   47.2742 H   0  0  0  0  0  0  0  0  0  0  0  0
   56.1997   31.7387   45.8676 H   0  0  0  0  0  0  0  0  0  0  0  0
   59.1835   25.9697   47.8664 H   0  0  0  0  0  0  0  0  0  0  0  0
   58.5298   31.0936   49.0357 H   0  0  0  0  0  0  0  0  0  0  0  0
   59.5689   33.3210   49.4431 H   0  0  0  0  0  0  0  0  0  0  0  0
   61.6730   33.9588   48.2614 H   0  0  0  0  0  0  0  0  0  0  0  0
   62.7434   32.3598   46.6707 H   0  0  0  0  0  0  0  0  0  0  0  0
   61.7058   30.1322   46.2462 H   0  0  0  0  0  0  0  0  0  0  0  0
  1  2  2  0
  2  3  1  0
  3  4  2  0
  4  5  1  0
  5  6  1  0
  6  7  1  0
  7  8  2  0
  8  9  1  0
  9 10  2  0
 10 11  1  0
 10 12  1  0
 12 13  2  0
  4 14  1  0
 14 15  1  0
 15 16  2  0
 16 17  1  0
 17 18  2  0
 18 19  1  0
 19 20  1  0
 20 21  2  0
 21 22  1  0
 22 23  2  0
 23 24  1  0
 24 25  2  0
 16  2  1  0
 25 20  1  0
 13  7  1  0
 19 15  1  0
  6 26  1  0
  6 27  1  0
  8 28  1  0
  9 29  1  0
 12 30  1  0
 13 31  1  0
 17 32  1  0
 21 33  1  0
 22 34  1  0
 23 35  1  0
 24 36  1  0
 25 37  1  0
M  CHG  1  14  -1
M  END
>  <UniqueID>  (13) 
10

>  <SMILES>  (13) 
O=c1nc(SCc2ccc(Cl)cc2)[n-]c2c1cnn2-c1ccccc1

>  <Energy>  (13) 
80.89150421538844

>  <Genealogy>  (13) 
O=c1nc(SCc2ccc(Cl)cc2)[n-]c2c1cnn2-c1ccccc1 (protonated)
O=c1nc(SCc2ccc(Cl)cc2)[n-]c2c1cnn2-c1ccccc1 (3D coordinates assigned)
O=c1nc(SCc2ccc(Cl)cc2)[n-]c2c1cnn2-c1ccccc1 (optimized conformer: 80.89150421538844 kcal/mol)

>  <smiles>  (13) 
O=c1nc(SCc2ccc(Cl)cc2)[nH]c2c1cnn2-c1ccccc1

>  <score_type>  (13) 
oracle

>  <origin>  (13) 
adg

>  <m_score__min__energy>  (13) 
-9.3200000000000003

>  <m_primary>  (13) 
energy

$$$$
13:0
     RDKit          3D

 51 53  0  0  0  0  0  0  0  0999 V2000
   56.7670   25.0890   45.0270 C   0  0  0  0  0  0  0  0  0  0  0  0
   56.9000   26.1600   46.1170 C   0  0  0  0  0  0  0  0  0  0  0  0
   57.5670   25.6000   47.3800 C   0  0  0  0  0  0  0  0  0  0  0  0
   57.6130   27.4070   45.6100 C   0  0  0  0  0  0  0  0  0  0  0  0
   59.0200   27.4050   45.5460 C   0  0  0  0  0  0  0  0  0  0  0  0
   59.7140   28.5150   45.0640 C   0  0  0  0  0  0  0  0  0  0  0  0
   59.0200   29.6450   44.6360 C   0  0  0  0  0  0  0  0  0  0  0  0
   57.6190   29.6830   44.6980 C   0  0  0  0  0  0  0  0  0  0  0  0
   56.8880   30.8880   44.1630 C   0  0  0  0  0  0  0  0  0  0  0  0
   57.8010   32.0270   44.0810 N   0  0  0  0  0  0  0  0  0  0  0  0
   57.6210   33.2130   44.8700 C   0  0  0  0  0  0  0  0  0  0  0  0
   56.5540   33.3990   45.5160 O   0  0  0  0  0  0  0  0  0  0  0  0
   58.6970   34.2600   44.9020 C   0  0  0  0  0  0  0  0  0  0  0  0
   59.1280   34.5880   46.3350 C   0  0  0  0  0  0  0  0  0  0  0  0
   60.1670   33.6250   46.8300 C   0  0  0  0  0  0  0  0  0  0  0  0
   61.5450   33.7960   46.7510 C   0  0  0  0  0  0  0  0  0  0  0  0
   62.1810   32.6890   47.2010 N   0  0  0  0  0  0  0  0  0  0  0  0
   63.6250   32.4680   47.1990 C   0  0  0  0  0  0  0  0  0  0  0  0
   61.2190   31.8050   47.5330 C   0  0  0  0  0  0  0  0  0  0  0  0
   61.3760   30.4960   47.9990 C   0  0  0  0  0  0  0  0  0  0  0  0
   60.2160   29.7460   48.2610 C   0  0  0  0  0  0  0  0  0  0  0  0
   58.9380   30.3070   48.0500 C   0  0  0  0  0  0  0  0  0  0  0  0
   58.8050   31.6230   47.5710 C   0  0  0  0  0  0  0  0  0  0  0  0
   59.9730   32.3470   47.3230 C   0  0  0  0  0  0  0  0  0  0  0  0
   56.9130   28.5600   45.1780 C   0  0  0  0  0  0  0  0  0  0  0  0
   55.5220   28.5960   45.2200 O   0  0  0  0  0  0  0  0  0  0  0  0
   56.6444   24.1016   45.4961 H   0  0  0  0  0  0  0  0  0  0  0  0
   55.8893   25.3093   44.4016 H   0  0  0  0  0  0  0  0  0  0  0  0
   57.6719   25.0880   44.4016 H   0  0  0  0  0  0  0  0  0  0  0  0
   55.8798   26.4658   46.3922 H   0  0  0  0  0  0  0  0  0  0  0  0
   57.0725   26.0151   48.2706 H   0  0  0  0  0  0  0  0  0  0  0  0
   57.4758   24.5038   47.3875 H   0  0  0  0  0  0  0  0  0  0  0  0
   58.6309   25.8795   47.3875 H   0  0  0  0  0  0  0  0  0  0  0  0
   59.5781   26.5179   45.8800 H   0  0  0  0  0  0  0  0  0  0  0  0
   60.8131   28.4982   45.0216 H   0  0  0  0  0  0  0  0  0  0  0  0
   59.5739   30.5122   44.2473 H   0  0  0  0  0  0  0  0  0  0  0  0
   56.4961   30.6616   43.1604 H   0  0  0  0  0  0  0  0  0  0  0  0
   56.0569   31.1375   44.8391 H   0  0  0  0  0  0  0  0  0  0  0  0
   58.7070   31.9050   43.5720 H   0  0  0  0  0  0  0  0  0  0  0  0
   59.5697   33.8911   44.3432 H   0  0  0  0  0  0  0  0  0  0  0  0
   58.2955   35.1774   44.4468 H   0  0  0  0  0  0  0  0  0  0  0  0
   59.5437   35.6061   46.3592 H   0  0  0  0  0  0  0  0  0  0  0  0
   58.2459   34.5100   46.9875 H   0  0  0  0  0  0  0  0  0  0  0  0
   62.0461   34.7008   46.3766 H   0  0  0  0  0  0  0  0  0  0  0  0
   63.9888   32.4123   48.2356 H   0  0  0  0  0  0  0  0  0  0  0  0
   63.8509   31.5248   46.6800 H   0  0  0  0  0  0  0  0  0  0  0  0
   64.1226   33.3004   46.6800 H   0  0  0  0  0  0  0  0  0  0  0  0
   62.3764   30.0662   48.1558 H   0  0  0  0  0  0  0  0  0  0  0  0
   60.3050   28.7147   48.6331 H   0  0  0  0  0  0  0  0  0  0  0  0
   58.0386   29.7102   48.2619 H   0  0  0  0  0  0  0  0  0  0  0  0
   57.8137   32.0670   47.3975 H   0  0  0  0  0  0  0  0  0  0  0  0
  1  2  1  0
  2  3  1  0
  2  4  1  0
  4  5  2  0
  5  6  1  0
  6  7  2  0
  7  8  1  0
  8  9  1  0
  9 10  1  0
 10 11  1  0
 11 12  2  0
 11 13  1  0
 13 14  1  0
 14 15  1  0
 15 16  2  0
 16 17  1  0
 17 18  1  0
 17 19  1  0
 19 20  2  0
 20 21  1  0
 21 22  2  0
 22 23  1  0
 23 24  2  0
  8 25  2  0
 25 26  1  0
 25  4  1  0
 24 15  1  0
 24 19  1  0
  1 27  1  0
  1 28  1  0
  1 29  1  0
  2 30  1  0
  3 31  1  0
  3 32  1  0
  3 33  1  0
  5 34  1  0
  6 35  1  0
  7 36  1  0
  9 37  1  0
  9 38  1  0
 10 39  1  0
 13 40  1  0
 13 41  1  0
 14 42  1  0
 14 43  1  0
 16 44  1  0
 18 45  1  0
 18 46  1  0
 18 47  1  0
 20 48  1  0
 21 49  1  0
 22 50  1  0
 23 51  1  0
M  CHG  1  26  -1
M  END
>  <UniqueID>  (14) 
11

>  <SMILES>  (14) 
CC(C)c1cccc(CNC(=O)CCc2cn(C)c3ccccc23)c1[O-]

>  <Energy>  (14) 
76.78099791557793

>  <Genealogy>  (14) 
CC(C)c1cccc(CNC(=O)CCc2cn(C)c3ccccc23)c1[O-] (protonated)
CC(C)c1cccc(CNC(=O)CCc2cn(C)c3ccccc23)c1[O-] (3D coordinates assigned)
CC(C)c1cccc(CNC(=O)CCc2cn(C)c3ccccc23)c1[O-] (optimized conformer: 76.78099791557793 kcal/mol)

>  <smiles>  (14) 
CC(C)c1cccc(CNC(=O)CCc2cn(C)c3ccccc23)c1O

>  <score_type>  (14) 
oracle

>  <origin>  (14) 
adg

>  <m_score__min__energy>  (14) 
-12.369999999999999

>  <m_primary>  (14) 
energy

$$$$
14:0
     RDKit          3D

 29 31  0  0  0  0  0  0  0  0999 V2000
   63.9180   33.0860   46.4600 N   0  0  0  0  0  0  0  0  0  0  0  0
   63.4790   33.3050   47.6570 C   0  0  0  0  0  0  0  0  0  0  0  0
   62.1300   33.6150   47.8160 C   0  0  0  0  0  0  0  0  0  0  0  0
   61.6030   33.8630   49.0940 C   0  0  0  0  0  0  0  0  0  0  0  0
   59.8740   34.2190   49.2470 S   0  0  0  0  0  0  0  0  0  0  0  0
   58.8680   33.2400   48.1500 C   0  0  0  0  0  0  0  0  0  0  0  0
   58.8920   33.7260   46.7550 C   0  0  0  0  0  0  0  0  0  0  0  0
   59.3300   34.8830   46.1810 C   0  0  0  0  0  0  0  0  0  0  0  0
   59.1200   34.7860   44.8550 N   0  0  0  0  0  0  0  0  0  0  0  0
   58.5600   33.5990   44.5640 C   0  0  0  0  0  0  0  0  0  0  0  0
   58.1620   33.0430   43.3540 C   0  0  0  0  0  0  0  0  0  0  0  0
   57.5930   31.7640   43.3330 C   0  0  0  0  0  0  0  0  0  0  0  0
   57.4600   31.1200   44.5390 C   0  0  0  0  0  0  0  0  0  0  0  0
   56.6730   29.3600   44.5310 Br  0  0  0  0  0  0  0  0  0  0  0  0
   57.8670   31.7070   45.7010 C   0  0  0  0  0  0  0  0  0  0  0  0
   58.4240   32.9570   45.7270 N   0  0  0  0  0  0  0  0  0  0  0  0
   62.4690   33.7780   50.1010 N   0  0  0  0  0  0  0  0  0  0  0  0
   63.7780   33.4790   49.9550 C   0  0  0  0  0  0  0  0  0  0  0  0
   64.2750   33.2440   48.7290 N   0  0  0  0  0  0  0  0  0  0  0  0
   64.8530   32.6160   46.3700 H   0  0  0  0  0  0  0  0  0  0  0  0
   61.4735   33.6658   46.9349 H   0  0  0  0  0  0  0  0  0  0  0  0
   59.2377   32.2041   48.1665 H   0  0  0  0  0  0  0  0  0  0  0  0
   57.8293   33.3116   48.5050 H   0  0  0  0  0  0  0  0  0  0  0  0
   59.7747   35.7408   46.7068 H   0  0  0  0  0  0  0  0  0  0  0  0
   58.2934   33.6050   42.4176 H   0  0  0  0  0  0  0  0  0  0  0  0
   57.2670   31.2956   42.3926 H   0  0  0  0  0  0  0  0  0  0  0  0
   57.7438   31.1587   46.6466 H   0  0  0  0  0  0  0  0  0  0  0  0
   62.1320   33.9350   51.0560 H   0  0  0  0  0  0  0  0  0  0  0  0
   64.4345   33.4281   50.8362 H   0  0  0  0  0  0  0  0  0  0  0  0
  1  2  2  3
  2  3  1  0
  3  4  2  0
  4  5  1  0
  5  6  1  0
  6  7  1  0
  7  8  2  0
  8  9  1  0
  9 10  2  0
 10 11  1  0
 11 12  2  0
 12 13  1  0
 13 14  1  0
 13 15  2  0
 15 16  1  0
  4 17  1  0
 17 18  1  0
 18 19  2  0
 19  2  1  0
 16  7  1  0
 16 10  1  0
  1 20  1  0
  3 21  1  0
  6 22  1  0
  6 23  1  0
  8 24  1  0
 11 25  1  0
 12 26  1  0
 15 27  1  0
 17 28  1  0
 18 29  1  0
M  END
>  <smiles>  (15) 
N=c1cc(SCc2cnc3ccc(Br)cn23)[nH]cn1

>  <score_type>  (15) 
oracle

>  <origin>  (15) 
adg

>  <m_score__min__energy>  (15) 
-7.5800000000000001

>  <m_primary>  (15) 
energy

$$$$
15:0
     RDKit          3D

 41 43  0  0  0  0  0  0  0  0999 V2000
   60.0030   34.5790   48.8200 C   0  0  0  0  0  0  0  0  0  0  0  0
   59.3910   34.5310   47.4610 C   0  0  0  0  0  0  0  0  0  0  0  0
   59.7550   35.3190   46.3870 C   0  0  0  0  0  0  0  0  0  0  0  0
   58.9480   34.9220   45.3420 C   0  0  0  0  0  0  0  0  0  0  0  0
   58.1480   33.9160   45.8500 C   0  0  0  0  0  0  0  0  0  0  0  0
   57.1140   33.1490   45.0880 C   0  0  0  0  0  0  0  0  0  0  0  0
   57.2650   31.7190   45.3360 N   0  0  0  0  0  0  0  0  0  0  0  0
   57.8010   30.8210   44.3490 C   0  0  0  0  0  0  0  0  0  0  0  0
   58.2440   31.2860   43.2630 O   0  0  0  0  0  0  0  0  0  0  0  0
   57.8620   29.3600   44.5910 C   0  0  0  0  0  0  0  0  0  0  0  0
   58.0430   28.8730   45.8980 C   0  0  0  0  0  0  0  0  0  0  0  0
   58.1040   27.4980   46.1430 C   0  0  0  0  0  0  0  0  0  0  0  0
   58.0010   26.5850   45.0830 C   0  0  0  0  0  0  0  0  0  0  0  0
   58.0290   25.1020   45.3460 C   0  0  0  0  0  0  0  0  0  0  0  0
   56.7500   24.4890   44.9540 N   0  0  0  0  0  0  0  0  0  0  0  0
   56.7410   23.5260   43.9840 C   0  0  0  0  0  0  0  0  0  0  0  0
   55.5730   22.9620   43.5800 N   0  0  0  0  0  0  0  0  0  0  0  0
   54.3890   23.3400   44.1220 C   0  0  0  0  0  0  0  0  0  0  0  0
   54.3600   24.3240   45.1050 C   0  0  0  0  0  0  0  0  0  0  0  0
   53.1810   24.7130   45.6490 F   0  0  0  0  0  0  0  0  0  0  0  0
   55.5650   24.9000   45.5150 C   0  0  0  0  0  0  0  0  0  0  0  0
   55.5480   25.7970   46.4010 O   0  0  0  0  0  0  0  0  0  0  0  0
   57.8260   27.0660   43.7770 C   0  0  0  0  0  0  0  0  0  0  0  0
   57.7630   28.4410   43.5320 C   0  0  0  0  0  0  0  0  0  0  0  0
   58.4350   33.7010   47.1120 O   0  0  0  0  0  0  0  0  0  0  0  0
   59.2112   34.5169   49.5811 H   0  0  0  0  0  0  0  0  0  0  0  0
   60.6948   33.7324   48.9407 H   0  0  0  0  0  0  0  0  0  0  0  0
   60.5544   35.5231   48.9407 H   0  0  0  0  0  0  0  0  0  0  0  0
   60.5283   36.1011   46.3690 H   0  0  0  0  0  0  0  0  0  0  0  0
   58.9421   35.3225   44.3175 H   0  0  0  0  0  0  0  0  0  0  0  0
   56.1124   33.4701   45.4100 H   0  0  0  0  0  0  0  0  0  0  0  0
   57.2422   33.3430   44.0129 H   0  0  0  0  0  0  0  0  0  0  0  0
   57.0260   31.3640   46.2900 H   0  0  0  0  0  0  0  0  0  0  0  0
   58.1374   29.5805   46.7350 H   0  0  0  0  0  0  0  0  0  0  0  0
   58.2334   27.1304   47.1716 H   0  0  0  0  0  0  0  0  0  0  0  0
   58.8434   24.6457   44.7641 H   0  0  0  0  0  0  0  0  0  0  0  0
   58.1923   24.9324   46.4205 H   0  0  0  0  0  0  0  0  0  0  0  0
   57.6883   23.2047   43.5263 H   0  0  0  0  0  0  0  0  0  0  0  0
   53.4534   22.8696   43.7852 H   0  0  0  0  0  0  0  0  0  0  0  0
   57.7378   26.3571   42.9406 H   0  0  0  0  0  0  0  0  0  0  0  0
   57.6350   28.8065   42.5024 H   0  0  0  0  0  0  0  0  0  0  0  0
  1  2  1  0
  2  3  2  0
  3  4  1  0
  4  5  2  0
  5  6  1  0
  6  7  1  0
  7  8  1  0
  8  9  2  0
  8 10  1  0
 10 11  2  0
 11 12  1  0
 12 13  2  0
 13 14  1  0
 14 15  1  0
 15 16  1  0
 16 17  2  0
 17 18  1  0
 18 19  2  0
 19 20  1  0
 19 21  1  0
 21 22  2  0
 13 23  1  0
 23 24  2  0
  5 25  1  0
 25  2  1  0
 24 10  1  0
 21 15  1  0
  1 26  1  0
  1 27  1  0
  1 28  1  0
  3 29  1  0
  4 30  1  0
  6 31  1  0
  6 32  1  0
  7 33  1  0
 11 34  1  0
 12 35  1  0
 14 36  1  0
 14 37  1  0
 16 38  1  0
 18 39  1  0
 23 40  1  0
 24 41  1  0
M  END
>  <UniqueID>  (16) 
12

>  <SMILES>  (16) 
Cc1ccc(CNC(=O)c2ccc(Cn3cncc(F)c3=O)cc2)o1

>  <Energy>  (16) 
69.56405228319348

>  <Genealogy>  (16) 
Cc1ccc(CNC(=O)c2ccc(Cn3cncc(F)c3=O)cc2)o1 (3D coordinates assigned)
Cc1ccc(CNC(=O)c2ccc(Cn3cncc(F)c3=O)cc2)o1 (optimized conformer: 69.56405228319348 kcal/mol)

>  <smiles>  (16) 
Cc1ccc(CNC(=O)c2ccc(Cn3cncc(F)c3=O)cc2)o1

>  <score_type>  (16) 
oracle

>  <origin>  (16) 
adg

>  <m_score__min__energy>  (16) 
-7.5199999999999996

>  <m_primary>  (16) 
energy

$$$$
16:0
     RDKit          3D

 53 57  0  0  0  0  0  0  0  0999 V2000
   60.7650   29.0580   47.8740 C   0  0  0  0  0  0  0  0  0  0  0  0
   59.9190   29.7420   46.8360 C   0  0  0  0  0  0  0  0  0  0  0  0
   59.5280   31.0790   46.8530 C   0  0  0  0  0  0  0  0  0  0  0  0
   58.7100   31.2510   45.7530 C   0  0  0  0  0  0  0  0  0  0  0  0
   58.5920   30.0230   45.1230 C   0  0  0  0  0  0  0  0  0  0  0  0
   57.6940   29.7060   43.9620 C   0  0  0  0  0  0  0  0  0  0  0  0
   59.3670   29.1140   45.7650 N   0  0  0  0  0  0  0  0  0  0  0  0
   59.5970   27.7240   45.3460 C   0  0  0  0  0  0  0  0  0  0  0  0
   58.4900   26.8370   45.8500 C   0  0  0  0  0  0  0  0  0  0  0  0
   57.1460   27.1390   45.5730 C   0  0  0  0  0  0  0  0  0  0  0  0
   56.1260   26.3000   46.0320 C   0  0  0  0  0  0  0  0  0  0  0  0
   56.4390   25.1560   46.7710 C   0  0  0  0  0  0  0  0  0  0  0  0
   57.7730   24.8500   47.0530 C   0  0  0  0  0  0  0  0  0  0  0  0
   58.7960   25.6860   46.5970 C   0  0  0  0  0  0  0  0  0  0  0  0
   57.9950   32.4600   45.4570 N   0  0  0  0  0  0  0  0  0  0  0  0
   57.4990   33.3110   46.3760 C   0  0  0  0  0  0  0  0  0  0  0  0
   57.0160   34.4360   45.8110 N   0  0  0  0  0  0  0  0  0  0  0  0
   57.2170   34.3030   44.5080 N   0  0  0  0  0  0  0  0  0  0  0  0
   57.8340   33.1260   44.2940 C   0  0  0  0  0  0  0  0  0  0  0  0
   58.3840   32.7160   42.9630 C   0  0  0  0  0  0  0  0  0  0  0  0
   57.6160   33.0860   47.8520 C   0  0  0  0  0  0  0  0  0  0  0  0
   59.0270   33.0250   48.2370 N   0  0  0  0  0  0  0  0  0  0  0  0
   59.9000   32.1410   47.8310 C   0  0  0  0  0  0  0  0  0  0  0  0
   61.3020   32.2710   48.3000 C   0  0  0  0  0  0  0  0  0  0  0  0
   62.3060   32.7580   47.4420 C   0  0  0  0  0  0  0  0  0  0  0  0
   63.6240   32.8810   47.8910 C   0  0  0  0  0  0  0  0  0  0  0  0
   63.9540   32.5300   49.2030 C   0  0  0  0  0  0  0  0  0  0  0  0
   65.6070   32.6840   49.7650 Cl  0  0  0  0  0  0  0  0  0  0  0  0
   62.9610   32.0580   50.0680 C   0  0  0  0  0  0  0  0  0  0  0  0
   61.6430   31.9330   49.6230 C   0  0  0  0  0  0  0  0  0  0  0  0
   60.4146   29.3413   48.8775 H   0  0  0  0  0  0  0  0  0  0  0  0
   60.6850   27.9677   47.7519 H   0  0  0  0  0  0  0  0  0  0  0  0
   61.8143   29.3646   47.7519 H   0  0  0  0  0  0  0  0  0  0  0  0
   56.7186   29.3617   44.3362 H   0  0  0  0  0  0  0  0  0  0  0  0
   57.5538   30.6090   43.3496 H   0  0  0  0  0  0  0  0  0  0  0  0
   58.1518   28.9151   43.3496 H   0  0  0  0  0  0  0  0  0  0  0  0
   59.6285   27.6765   44.2475 H   0  0  0  0  0  0  0  0  0  0  0  0
   60.5529   27.3771   45.7655 H   0  0  0  0  0  0  0  0  0  0  0  0
   56.8952   28.0392   44.9927 H   0  0  0  0  0  0  0  0  0  0  0  0
   55.0757   26.5408   45.8111 H   0  0  0  0  0  0  0  0  0  0  0  0
   55.6354   24.4965   47.1307 H   0  0  0  0  0  0  0  0  0  0  0  0
   58.0184   23.9494   47.6350 H   0  0  0  0  0  0  0  0  0  0  0  0
   59.8445   25.4425   46.8234 H   0  0  0  0  0  0  0  0  0  0  0  0
   56.9830   35.0290   43.7970 H   0  0  0  0  0  0  0  0  0  0  0  0
   59.2578   32.0646   43.1122 H   0  0  0  0  0  0  0  0  0  0  0  0
   57.6123   32.1710   42.3995 H   0  0  0  0  0  0  0  0  0  0  0  0
   58.6859   33.6112   42.3995 H   0  0  0  0  0  0  0  0  0  0  0  0
   57.1276   33.9139   48.3869 H   0  0  0  0  0  0  0  0  0  0  0  0
   57.1283   32.1352   48.1129 H   0  0  0  0  0  0  0  0  0  0  0  0
   62.0516   33.0438   46.4107 H   0  0  0  0  0  0  0  0  0  0  0  0
   64.4031   33.2548   47.2103 H   0  0  0  0  0  0  0  0  0  0  0  0
   63.2190   31.7845   51.1017 H   0  0  0  0  0  0  0  0  0  0  0  0
   60.8663   31.5680   50.3111 H   0  0  0  0  0  0  0  0  0  0  0  0
  1  2  1  0
  2  3  2  0
  3  4  1  0
  4  5  2  0
  5  6  1  0
  5  7  1  0
  7  8  1  0
  8  9  1  0
  9 10  2  0
 10 11  1  0
 11 12  2  0
 12 13  1  0
 13 14  2  0
  4 15  1  0
 15 16  1  0
 16 17  2  0
 17 18  1  0
 18 19  2  0
 19 20  1  0
 16 21  1  0
 21 22  1  0
 22 23  2  0
 23 24  1  0
 24 25  2  0
 25 26  1  0
 26 27  2  0
 27 28  1  0
 27 29  1  0
 29 30  2  0
  7  2  1  0
 14  9  1  0
 19 15  1  0
 30 24  1  0
 23  3  1  0
  1 31  1  0
  1 32  1  0
  1 33  1  0
  6 34  1  0
  6 35  1  0
  6 36  1  0
  8 37  1  0
  8 38  1  0
 10 39  1  0
 11 40  1  0
 12 41  1  0
 13 42  1  0
 14 43  1  0
 18 44  1  0
 20 45  1  0
 20 46  1  0
 20 47  1  0
 21 48  1  0
 21 49  1  0
 25 50  1  0
 26 51  1  0
 29 52  1  0
 30 53  1  0
M  CHG  1  18   1
M  END
>  <UniqueID>  (17) 
13

>  <SMILES>  (17) 
Cc1c2c(c(C)n1Cc1ccccc1)-n1c(n[nH+]c1C)CN=C2c1ccc(Cl)cc1

>  <Energy>  (17) 
133.79556979385143

>  <Genealogy>  (17) 
Cc1c2c(c(C)n1Cc1ccccc1)-n1c(n[nH+]c1C)CN=C2c1ccc(Cl)cc1 (protonated)
Cc1c2c(c(C)n1Cc1ccccc1)-n1c(n[nH+]c1C)CN=C2c1ccc(Cl)cc1 (3D coordinates assigned)
Cc1c2c(c(C)n1Cc1ccccc1)-n1c(n[nH+]c1C)CN=C2c1ccc(Cl)cc1 (nonaromatic ring conformer: 133.79556979385143 kcal/mol)

>  <smiles>  (17) 
Cc1c2c(c(C)n1Cc1ccccc1)-n1c(C)nnc1CN=C2c1ccc(Cl)cc1

>  <score_type>  (17) 
oracle

>  <origin>  (17) 
adg

>  <m_score__min__energy>  (17) 
-7.0499999999999998

>  <m_primary>  (17) 
energy

$$$$
17:0
     RDKit          3D

 46 49  0  0  0  0  0  0  0  0999 V2000
   55.5210   30.5100   44.4950 O   0  0  0  0  0  0  0  0  0  0  0  0
   56.9490   30.7220   44.0700 S   0  0  0  0  0  0  0  0  0  0  0  0
   56.9480   31.3860   42.7190 O   0  0  0  0  0  0  0  0  0  0  0  0
   57.7530   29.1890   43.9470 N   0  0  0  0  0  0  0  0  0  0  0  0
   58.3810   28.4920   45.0320 C   0  0  0  0  0  0  0  0  0  0  0  0
   57.5680   27.8140   45.9500 C   0  0  0  0  0  0  0  0  0  0  0  0
   58.1370   27.1360   47.0350 C   0  0  0  0  0  0  0  0  0  0  0  0
   59.5220   27.1300   47.2100 C   0  0  0  0  0  0  0  0  0  0  0  0
   60.0730   26.4710   48.2580 F   0  0  0  0  0  0  0  0  0  0  0  0
   60.3450   27.7860   46.2860 C   0  0  0  0  0  0  0  0  0  0  0  0
   59.7800   28.4680   45.2020 C   0  0  0  0  0  0  0  0  0  0  0  0
   57.8000   31.7590   45.2090 C   0  0  0  0  0  0  0  0  0  0  0  0
   58.1400   33.0840   44.8660 C   0  0  0  0  0  0  0  0  0  0  0  0
   58.8240   33.9010   45.7810 C   0  0  0  0  0  0  0  0  0  0  0  0
   59.2000   33.3670   47.0220 C   0  0  0  0  0  0  0  0  0  0  0  0
   58.8260   32.0950   47.3630 C   0  0  0  0  0  0  0  0  0  0  0  0
   58.1330   31.2640   46.4800 C   0  0  0  0  0  0  0  0  0  0  0  0
   59.1930   31.8120   48.7560 C   0  0  0  0  0  0  0  0  0  0  0  0
   59.6400   33.1970   49.2570 C   0  0  0  0  0  0  0  0  0  0  0  0
   59.8810   34.0730   48.0750 N   0  0  1  0  0  0  0  0  0  0  0  0
   61.3370   34.2150   47.7830 C   0  0  0  0  0  0  0  0  0  0  0  0
   62.2170   33.9610   49.0090 C   0  0  0  0  0  0  0  0  0  0  0  0
   63.5540   33.5030   48.4620 C   0  0  0  0  0  0  0  0  0  0  0  0
   63.2420   32.7660   47.1690 C   0  0  0  0  0  0  0  0  0  0  0  0
   61.8340   33.1890   46.7490 C   0  0  0  0  0  0  0  0  0  0  0  0
   56.4760   27.8144   45.8175 H   0  0  0  0  0  0  0  0  0  0  0  0
   57.4912   26.6069   47.7512 H   0  0  0  0  0  0  0  0  0  0  0  0
   61.4375   27.7653   46.4124 H   0  0  0  0  0  0  0  0  0  0  0  0
   60.4293   28.9864   44.4811 H   0  0  0  0  0  0  0  0  0  0  0  0
   57.8680   33.4798   43.8764 H   0  0  0  0  0  0  0  0  0  0  0  0
   59.0614   34.9448   45.5278 H   0  0  0  0  0  0  0  0  0  0  0  0
   57.8535   30.2417   46.7745 H   0  0  0  0  0  0  0  0  0  0  0  0
   58.3310   31.4390   49.3285 H   0  0  0  0  0  0  0  0  0  0  0  0
   59.9618   31.0325   48.8624 H   0  0  0  0  0  0  0  0  0  0  0  0
   58.8531   33.6347   49.8888 H   0  0  0  0  0  0  0  0  0  0  0  0
   60.5613   33.1035   49.8507 H   0  0  0  0  0  0  0  0  0  0  0  0
   59.4330   35.0090   48.2210 H   0  0  0  0  0  0  0  0  0  0  0  0
   61.4241   35.2499   47.4204 H   0  0  0  0  0  0  0  0  0  0  0  0
   62.3373   34.8850   49.5936 H   0  0  0  0  0  0  0  0  0  0  0  0
   61.7733   33.2114   49.6807 H   0  0  0  0  0  0  0  0  0  0  0  0
   64.2031   34.3684   48.2626 H   0  0  0  0  0  0  0  0  0  0  0  0
   64.0848   32.8580   49.1777 H   0  0  0  0  0  0  0  0  0  0  0  0
   63.9685   33.0423   46.3907 H   0  0  0  0  0  0  0  0  0  0  0  0
   63.3014   31.6768   47.3109 H   0  0  0  0  0  0  0  0  0  0  0  0
   61.8608   33.6455   45.7485 H   0  0  0  0  0  0  0  0  0  0  0  0
   61.1617   32.3193   46.7090 H   0  0  0  0  0  0  0  0  0  0  0  0
  1  2  2  0
  2  3  2  0
  2  4  1  0
  4  5  1  0
  5  6  2  0
  6  7  1  0
  7  8  2  0
  8  9  1  0
  8 10  1  0
 10 11  2  0
  2 12  1  0
 12 13  2  0
 13 14  1  0
 14 15  2  0
 15 16  1  0
 16 17  2  0
 16 18  1  0
 18 19  1  0
 19 20  1  0
 20 21  1  0
 21 22  1  0
 22 23  1  0
 23 24  1  0
 24 25  1  0
 11  5  1  0
 17 12  1  0
 25 21  1  0
 20 15  1  0
  6 26  1  0
  7 27  1  0
 10 28  1  0
 11 29  1  0
 13 30  1  0
 14 31  1  0
 17 32  1  0
 18 33  1  0
 18 34  1  0
 19 35  1  0
 19 36  1  0
 20 37  1  1
 21 38  1  0
 22 39  1  0
 22 40  1  0
 23 41  1  0
 23 42  1  0
 24 43  1  0
 24 44  1  0
 25 45  1  0
 25 46  1  0
M  CHG  2   4  -1  20   1
M  END
>  <UniqueID>  (18) 
14

>  <SMILES>  (18) 
O=S(=O)([N-]c1ccc(F)cc1)c1ccc2c(c1)CC[N@H+]2C1CCCC1

>  <Energy>  (18) 
67.99719019971833

>  <Genealogy>  (18) 
O=S(=O)([N-]c1ccc(F)cc1)c1ccc2c(c1)CC[NH+]2C1CCCC1 (protonated)
O=S(=O)([N-]c1ccc(F)cc1)c1ccc2c(c1)CC[N@H+]2C1CCCC1 (chirality)
O=S(=O)([N-]c1ccc(F)cc1)c1ccc2c(c1)CC[N@H+]2C1CCCC1 (3D coordinates assigned)
O=S(=O)([N-]c1ccc(F)cc1)c1ccc2c(c1)CC[N@H+]2C1CCCC1 (nonaromatic ring conformer: 67.99719019971833 kcal/mol)

>  <smiles>  (18) 
O=S(=O)(Nc1ccc(F)cc1)c1ccc2c(c1)CCN2C1CCCC1

>  <score_type>  (18) 
oracle

>  <origin>  (18) 
adg

>  <m_score__min__energy>  (18) 
-8.9000000000000004

>  <m_primary>  (18) 
energy

$$$$
18:0
     RDKit          3D

 49 53  0  0  0  0  0  0  0  0999 V2000
   58.8270   32.4110   45.2620 C   0  0  0  0  0  0  0  0  0  0  0  0
   59.2180   33.2910   46.4040 C   0  0  0  0  0  0  0  0  0  0  0  0
   58.5660   34.4510   46.8210 C   0  0  0  0  0  0  0  0  0  0  0  0
   59.1950   34.9870   47.8920 N   0  0  0  0  0  0  0  0  0  0  0  0
   60.2290   34.1720   48.1520 C   0  0  0  0  0  0  0  0  0  0  0  0
   61.1340   34.3240   49.1500 N   0  0  0  0  0  0  0  0  0  0  0  0
   62.1340   33.4030   49.2880 C   0  0  0  0  0  0  0  0  0  0  0  0
   62.2270   32.3050   48.4040 C   0  0  0  0  0  0  0  0  0  0  0  0
   61.2880   32.1620   47.3560 C   0  0  0  0  0  0  0  0  0  0  0  0
   61.3140   31.0860   46.4540 O   0  0  0  0  0  0  0  0  0  0  0  0
   60.4230   30.0030   46.4580 C   0  0  0  0  0  0  0  0  0  0  0  0
   59.8560   29.6060   47.6750 C   0  0  0  0  0  0  0  0  0  0  0  0
   58.9570   28.5340   47.7260 C   0  0  0  0  0  0  0  0  0  0  0  0
   58.6120   27.8600   46.5520 C   0  0  0  0  0  0  0  0  0  0  0  0
   57.7490   26.8100   46.5830 N   0  0  0  0  0  0  0  0  0  0  0  0
   57.4020   26.1420   45.4470 C   0  0  0  0  0  0  0  0  0  0  0  0
   56.4530   25.0150   45.5310 C   0  0  0  0  0  0  0  0  0  0  0  0
   55.3000   25.2200   46.0000 O   0  0  0  0  0  0  0  0  0  0  0  0
   56.8170   23.6920   45.1000 N   0  0  0  0  0  0  0  0  0  0  0  0
   55.8090   22.8620   44.4280 C   0  0  0  0  0  0  0  0  0  0  0  0
   56.4580   21.8470   43.4590 C   0  0  0  0  0  0  0  0  0  0  0  0
   57.8820   21.5850   43.7400 N   0  0  0  0  0  0  0  0  0  0  0  0
   58.1620   21.6220   45.1780 C   0  0  0  0  0  0  0  0  0  0  0  0
   58.0160   23.0610   45.6730 C   0  0  0  0  0  0  0  0  0  0  0  0
   57.9230   26.5740   44.2170 C   0  0  0  0  0  0  0  0  0  0  0  0
   58.7870   27.6240   44.1820 N   0  0  0  0  0  0  0  0  0  0  0  0
   59.1540   28.2720   45.3190 C   0  0  0  0  0  0  0  0  0  0  0  0
   60.0490   29.3450   45.2720 C   0  0  0  0  0  0  0  0  0  0  0  0
   60.2810   33.1250   47.2730 C   0  0  0  0  0  0  0  0  0  0  0  0
   58.4091   31.4704   45.6502 H   0  0  0  0  0  0  0  0  0  0  0  0
   58.0712   32.9220   44.6474 H   0  0  0  0  0  0  0  0  0  0  0  0
   59.7128   32.1926   44.6474 H   0  0  0  0  0  0  0  0  0  0  0  0
   57.6671   34.8709   46.3461 H   0  0  0  0  0  0  0  0  0  0  0  0
   58.9270   35.8530   48.4090 H   0  0  0  0  0  0  0  0  0  0  0  0
   62.8731   33.5176   50.0946 H   0  0  0  0  0  0  0  0  0  0  0  0
   63.0285   31.5623   48.5305 H   0  0  0  0  0  0  0  0  0  0  0  0
   60.1192   30.1411   48.5993 H   0  0  0  0  0  0  0  0  0  0  0  0
   58.5234   28.2232   48.6880 H   0  0  0  0  0  0  0  0  0  0  0  0
   55.2353   22.3121   45.1886 H   0  0  0  0  0  0  0  0  0  0  0  0
   55.1540   23.5243   43.8429 H   0  0  0  0  0  0  0  0  0  0  0  0
   55.9090   20.8967   43.5329 H   0  0  0  0  0  0  0  0  0  0  0  0
   56.4049   22.2856   42.4516 H   0  0  0  0  0  0  0  0  0  0  0  0
   58.1160   20.6280   43.3850 H   0  0  0  0  0  0  0  0  0  0  0  0
   57.4496   20.9743   45.7099 H   0  0  0  0  0  0  0  0  0  0  0  0
   59.1845   21.2639   45.3684 H   0  0  0  0  0  0  0  0  0  0  0  0
   57.9327   23.0583   46.7698 H   0  0  0  0  0  0  0  0  0  0  0  0
   58.9005   23.6337   45.3573 H   0  0  0  0  0  0  0  0  0  0  0  0
   57.6337   26.0655   43.2855 H   0  0  0  0  0  0  0  0  0  0  0  0
   60.4611   29.6750   44.3070 H   0  0  0  0  0  0  0  0  0  0  0  0
  1  2  1  0
  2  3  2  0
  3  4  1  0
  4  5  1  0
  5  6  2  0
  6  7  1  0
  7  8  2  0
  8  9  1  0
  9 10  1  0
 10 11  1  0
 11 12  2  0
 12 13  1  0
 13 14  2  0
 14 15  1  0
 15 16  2  0
 16 17  1  0
 17 18  2  0
 17 19  1  0
 19 20  1  0
 20 21  1  0
 21 22  1  0
 22 23  1  0
 23 24  1  0
 16 25  1  0
 25 26  2  0
 26 27  1  0
 27 28  2  0
  9 29  2  0
 29  2  1  0
 29  5  1  0
 28 11  1  0
 27 14  1  0
 24 19  1  0
  1 30  1  0
  1 31  1  0
  1 32  1  0
  3 33  1  0
  4 34  1  0
  7 35  1  0
  8 36  1  0
 12 37  1  0
 13 38  1  0
 20 39  1  0
 20 40  1  0
 21 41  1  0
 21 42  1  0
 22 43  1  0
 23 44  1  0
 23 45  1  0
 24 46  1  0
 24 47  1  0
 25 48  1  0
 28 49  1  0
M  END
>  <UniqueID>  (19) 
15

>  <SMILES>  (19) 
Cc1c[nH]c2nccc(Oc3ccc4nc(C(=O)N5CCNCC5)cnc4c3)c12

>  <Energy>  (19) 
106.30993750538039

>  <Genealogy>  (19) 
Cc1c[nH]c2nccc(Oc3ccc4nc(C(=O)N5CCNCC5)cnc4c3)c12 (3D coordinates assigned)
Cc1c[nH]c2nccc(Oc3ccc4nc(C(=O)N5CCNCC5)cnc4c3)c12 (nonaromatic ring conformer: 106.30993750538039 kcal/mol)

>  <smiles>  (19) 
Cc1c[nH]c2nccc(Oc3ccc4nc(C(=O)N5CCNCC5)cnc4c3)c12

>  <score_type>  (19) 
oracle

>  <origin>  (19) 
adg

>  <m_score__min__energy>  (19) 
-8.0800000000000001

>  <m_primary>  (19) 
energy

$$$$
19:0
     RDKit          3D

 55 56  0  0  0  0  0  0  0  0999 V2000
   57.4050   27.7800   45.8980 C   0  0  0  0  0  0  0  0  0  0  0  0
   57.5490   28.0590   44.4630 N   0  0  0  0  0  0  0  0  0  0  0  0
   58.9540   28.3390   44.1410 C   0  0  0  0  0  0  0  0  0  0  0  0
   56.5570   29.4260   44.0220 S   0  0  0  0  0  0  0  0  0  0  0  0
   56.2750   29.3830   42.5450 O   0  0  0  0  0  0  0  0  0  0  0  0
   55.2410   29.3440   44.7460 O   0  0  0  0  0  0  0  0  0  0  0  0
   57.3420   30.9560   44.4200 C   0  0  0  0  0  0  0  0  0  0  0  0
   57.4970   31.9450   43.4410 C   0  0  0  0  0  0  0  0  0  0  0  0
   58.1400   33.1450   43.7510 C   0  0  0  0  0  0  0  0  0  0  0  0
   58.6300   33.3720   45.0410 C   0  0  0  0  0  0  0  0  0  0  0  0
   59.4130   34.9090   45.3880 Cl  0  0  0  0  0  0  0  0  0  0  0  0
   58.4660   32.3920   46.0400 C   0  0  0  0  0  0  0  0  0  0  0  0
   58.9980   32.6050   47.3580 N   0  0  0  0  0  0  0  0  0  0  0  0
   59.3170   31.5370   48.2660 C   0  0  0  0  0  0  0  0  0  0  0  0
   58.9620   30.3540   48.0090 O   0  0  0  0  0  0  0  0  0  0  0  0
   59.9960   31.8280   49.5720 C   0  0  1  0  0  0  0  0  0  0  0  0
   60.5390   33.1480   49.5450 O   0  0  0  0  0  0  0  0  0  0  0  0
   61.3890   33.6140   48.5340 C   0  0  0  0  0  0  0  0  0  0  0  0
   61.0240   34.5700   47.7930 O   0  0  0  0  0  0  0  0  0  0  0  0
   62.7070   32.9130   48.2720 C   0  0  0  0  0  0  0  0  0  0  0  0
   63.3800   32.6120   49.6230 C   0  0  0  0  0  0  0  0  0  0  0  0
   63.6330   33.8130   47.4290 C   0  0  0  0  0  0  0  0  0  0  0  0
   62.4640   31.5950   47.5100 C   0  0  0  0  0  0  0  0  0  0  0  0
   59.0080   31.6670   50.7060 C   0  0  0  0  0  0  0  0  0  0  0  0
   58.5230   32.7870   51.4080 C   0  0  0  0  0  0  0  0  0  0  0  0
   57.5870   32.6260   52.4340 C   0  0  0  0  0  0  0  0  0  0  0  0
   57.1190   31.3510   52.7620 C   0  0  0  0  0  0  0  0  0  0  0  0
   56.2110   31.1970   53.7560 F   0  0  0  0  0  0  0  0  0  0  0  0
   57.5840   30.2350   52.0610 C   0  0  0  0  0  0  0  0  0  0  0  0
   58.5200   30.3910   51.0350 C   0  0  0  0  0  0  0  0  0  0  0  0
   57.8300   31.1810   45.7140 C   0  0  0  0  0  0  0  0  0  0  0  0
   57.8337   28.6106   46.4779 H   0  0  0  0  0  0  0  0  0  0  0  0
   56.3386   27.6721   46.1454 H   0  0  0  0  0  0  0  0  0  0  0  0
   57.9348   26.8483   46.1454 H   0  0  0  0  0  0  0  0  0  0  0  0
   59.5279   28.4534   45.0724 H   0  0  0  0  0  0  0  0  0  0  0  0
   59.3689   27.5059   43.5547 H   0  0  0  0  0  0  0  0  0  0  0  0
   59.0178   29.2675   43.5547 H   0  0  0  0  0  0  0  0  0  0  0  0
   57.1111   31.7761   42.4248 H   0  0  0  0  0  0  0  0  0  0  0  0
   58.2618   33.9162   42.9761 H   0  0  0  0  0  0  0  0  0  0  0  0
   59.1050   33.5870   47.6960 H   0  0  0  0  0  0  0  0  0  0  0  0
   60.8210   31.1180   49.7308 H   0  0  0  0  0  0  0  0  0  0  0  0
   62.7093   32.9120   50.4416 H   0  0  0  0  0  0  0  0  0  0  0  0
   63.5892   31.5346   49.6965 H   0  0  0  0  0  0  0  0  0  0  0  0
   64.3225   33.1743   49.6965 H   0  0  0  0  0  0  0  0  0  0  0  0
   64.2597   34.4221   48.0970 H   0  0  0  0  0  0  0  0  0  0  0  0
   64.2759   33.1854   46.7944 H   0  0  0  0  0  0  0  0  0  0  0  0
   63.0239   34.4735   46.7944 H   0  0  0  0  0  0  0  0  0  0  0  0
   62.3133   30.7774   48.2303 H   0  0  0  0  0  0  0  0  0  0  0  0
   61.5694   31.6964   46.8780 H   0  0  0  0  0  0  0  0  0  0  0  0
   63.3359   31.3707   46.8780 H   0  0  0  0  0  0  0  0  0  0  0  0
   58.8823   33.7936   51.1479 H   0  0  0  0  0  0  0  0  0  0  0  0
   57.2184   33.5045   52.9839 H   0  0  0  0  0  0  0  0  0  0  0  0
   57.2126   29.2318   52.3173 H   0  0  0  0  0  0  0  0  0  0  0  0
   58.8768   29.5098   50.4817 H   0  0  0  0  0  0  0  0  0  0  0  0
   57.7144   30.4025   46.4825 H   0  0  0  0  0  0  0  0  0  0  0  0
  1  2  1  0
  2  3  1  0
  2  4  1  0
  4  5  2  0
  4  6  2  0
  4  7  1  0
  7  8  2  0
  8  9  1  0
  9 10  2  0
 10 11  1  0
 10 12  1  0
 12 13  1  0
 13 14  1  0
 14 15  2  0
 14 16  1  0
 16 17  1  0
 17 18  1  0
 18 19  2  0
 18 20  1  0
 20 21  1  0
 20 22  1  0
 20 23  1  0
 16 24  1  0
 24 25  2  0
 25 26  1  0
 26 27  2  0
 27 28  1  0
 27 29  1  0
 29 30  2  0
 12 31  2  0
 31  7  1  0
 30 24  1  0
  1 32  1  0
  1 33  1  0
  1 34  1  0
  3 35  1  0
  3 36  1  0
  3 37  1  0
  8 38  1  0
  9 39  1  0
 13 40  1  0
 16 41  1  1
 21 42  1  0
 21 43  1  0
 21 44  1  0
 22 45  1  0
 22 46  1  0
 22 47  1  0
 23 48  1  0
 23 49  1  0
 23 50  1  0
 25 51  1  0
 26 52  1  0
 29 53  1  0
 30 54  1  0
 31 55  1  0
M  END
>  <UniqueID>  (20) 
16

>  <SMILES>  (20) 
CN(C)S(=O)(=O)c1ccc(Cl)c(NC(=O)[C@@H](OC(=O)C(C)(C)C)c2ccc(F)cc2)c1

>  <Energy>  (20) 
48.30217460573232

>  <Genealogy>  (20) 
CN(C)S(=O)(=O)c1ccc(Cl)c(NC(=O)[C@@H](OC(=O)C(C)(C)C)c2ccc(F)cc2)c1 (chirality)
CN(C)S(=O)(=O)c1ccc(Cl)c(NC(=O)[C@@H](OC(=O)C(C)(C)C)c2ccc(F)cc2)c1 (3D coordinates assigned)
CN(C)S(=O)(=O)c1ccc(Cl)c(NC(=O)[C@@H](OC(=O)C(C)(C)C)c2ccc(F)cc2)c1 (optimized conformer: 48.30217460573232 kcal/mol)

>  <smiles>  (20) 
CN(C)S(=O)(=O)c1ccc(Cl)c(NC(=O)C(OC(=O)C(C)(C)C)c2ccc(F)cc2)c1

>  <score_type>  (20) 
oracle

>  <origin>  (20) 
adg

>  <m_score__min__energy>  (20) 
-8.9299999999999997

>  <m_primary>  (20) 
energy

$$$$
20:0
     RDKit          3D

 31 32  0  0  0  0  0  0  0  0999 V2000
   57.5880   26.7750   46.8010 O   0  0  0  0  0  0  0  0  0  0  0  0
   56.6880   27.2970   46.0860 C   0  0  0  0  0  0  0  0  0  0  0  0
   55.3910   26.6920   46.0200 N   0  0  0  0  0  0  0  0  0  0  0  0
   55.1600   25.2980   45.6550 C   0  0  0  0  0  0  0  0  0  0  0  0
   56.3470   24.4080   46.0530 C   0  0  0  0  0  0  0  0  0  0  0  0
   57.4080   24.2820   44.9490 C   0  0  0  0  0  0  0  0  0  0  0  0
   57.1400   23.1440   44.0690 N   0  0  0  0  0  0  0  0  0  0  0  0
   57.7730   21.9600   44.0620 C   0  0  0  0  0  0  0  0  0  0  0  0
   57.1970   21.1800   43.0850 C   0  0  0  0  0  0  0  0  0  0  0  0
   56.2020   21.8670   42.4850 N   0  0  0  0  0  0  0  0  0  0  0  0
   56.1950   23.0620   43.1120 C   0  0  0  0  0  0  0  0  0  0  0  0
   56.9770   28.5240   45.3090 C   0  0  0  0  0  0  0  0  0  0  0  0
   55.9270   29.2870   44.7640 C   0  0  0  0  0  0  0  0  0  0  0  0
   56.2000   30.4570   44.0470 C   0  0  0  0  0  0  0  0  0  0  0  0
   57.5190   30.8770   43.8670 C   0  0  0  0  0  0  0  0  0  0  0  0
   58.5690   30.1270   44.4010 C   0  0  0  0  0  0  0  0  0  0  0  0
   58.3030   28.9550   45.1170 C   0  0  0  0  0  0  0  0  0  0  0  0
   54.2560   24.9390   46.1687 H   0  0  0  0  0  0  0  0  0  0  0  0
   55.0379   25.2427   44.5632 H   0  0  0  0  0  0  0  0  0  0  0  0
   56.8223   24.8386   46.9467 H   0  0  0  0  0  0  0  0  0  0  0  0
   55.9500   23.3994   46.2405 H   0  0  0  0  0  0  0  0  0  0  0  0
   57.4097   25.2040   44.3491 H   0  0  0  0  0  0  0  0  0  0  0  0
   58.3850   24.1223   45.4286 H   0  0  0  0  0  0  0  0  0  0  0  0
   58.6040   21.6657   44.7199 H   0  0  0  0  0  0  0  0  0  0  0  0
   57.5011   20.1536   42.8319 H   0  0  0  0  0  0  0  0  0  0  0  0
   55.4970   23.8768   42.8693 H   0  0  0  0  0  0  0  0  0  0  0  0
   54.8855   28.9613   44.9027 H   0  0  0  0  0  0  0  0  0  0  0  0
   55.3735   31.0471   43.6243 H   0  0  0  0  0  0  0  0  0  0  0  0
   57.7312   31.7983   43.3048 H   0  0  0  0  0  0  0  0  0  0  0  0
   59.6080   30.4587   44.2582 H   0  0  0  0  0  0  0  0  0  0  0  0
   59.1348   28.3670   45.5322 H   0  0  0  0  0  0  0  0  0  0  0  0
  1  2  2  0
  2  3  1  0
  3  4  1  0
  4  5  1  0
  5  6  1  0
  6  7  1  0
  7  8  1  0
  8  9  2  0
  9 10  1  0
 10 11  2  0
  2 12  1  0
 12 13  2  0
 13 14  1  0
 14 15  2  0
 15 16  1  0
 16 17  2  0
 11  7  1  0
 17 12  1  0
  4 18  1  0
  4 19  1  0
  5 20  1  0
  5 21  1  0
  6 22  1  0
  6 23  1  0
  8 24  1  0
  9 25  1  0
 11 26  1  0
 13 27  1  0
 14 28  1  0
 15 29  1  0
 16 30  1  0
 17 31  1  0
M  CHG  1   3  -1
M  END
>  <UniqueID>  (21) 
17

>  <SMILES>  (21) 
O=C([N-]CCCn1ccnc1)c1ccccc1

>  <Energy>  (21) 
52.88215238029095

>  <Genealogy>  (21) 
O=C([N-]CCCn1ccnc1)c1ccccc1 (protonated)
O=C([N-]CCCn1ccnc1)c1ccccc1 (3D coordinates assigned)
O=C([N-]CCCn1ccnc1)c1ccccc1 (optimized conformer: 52.88215238029095 kcal/mol)

>  <smiles>  (21) 
O=C(NCCCn1ccnc1)c1ccccc1

>  <score_type>  (21) 
oracle

>  <origin>  (21) 
adg

>  <m_score__min__energy>  (21) 
-7.8099999999999996

>  <m_primary>  (21) 
energy

$$$$
21:0
     RDKit          3D

 26 27  0  0  0  0  0  0  0  0999 V2000
   61.2039   28.5917   45.0966 H   0  0  0  0  0  0  0  0  0  0  0  0
   60.1130   28.4520   45.1160 C   0  0  0  0  0  0  0  0  0  0  0  0
   59.5630   27.3400   45.7610 C   0  0  0  0  0  0  0  0  0  0  0  0
   60.2210   26.6074   46.2512 H   0  0  0  0  0  0  0  0  0  0  0  0
   58.1750   27.1590   45.7830 C   0  0  0  0  0  0  0  0  0  0  0  0
   57.4850   25.7620   46.5880 Cl  0  0  0  0  0  0  0  0  0  0  0  0
   57.3390   28.0930   45.1610 C   0  0  0  0  0  0  0  0  0  0  0  0
   56.2487   27.9483   45.1756 H   0  0  0  0  0  0  0  0  0  0  0  0
   57.8870   29.2130   44.5190 C   0  0  0  0  0  0  0  0  0  0  0  0
   56.8400   30.3960   43.7430 S   0  0  0  0  0  0  0  0  0  0  0  0
   55.5800   30.5950   44.5380 O   0  0  0  0  0  0  0  0  0  0  0  0
   56.4780   29.8970   42.3730 O   0  0  0  0  0  0  0  0  0  0  0  0
   57.6620   31.9180   43.5910 N   0  0  0  0  0  0  0  0  0  0  0  0
   57.9460   32.7430   44.5590 C   0  0  0  0  0  0  0  0  0  0  0  0
   58.8920   33.7490   44.3230 C   0  0  0  0  0  0  0  0  0  0  0  0
   59.3730   33.8352   43.3375 H   0  0  0  0  0  0  0  0  0  0  0  0
   59.2210   34.6410   45.3440 C   0  0  0  0  0  0  0  0  0  0  0  0
   59.9626   35.4337   45.1661 H   0  0  0  0  0  0  0  0  0  0  0  0
   58.6080   34.5250   46.5890 C   0  0  0  0  0  0  0  0  0  0  0  0
   58.8618   35.2227   47.4007 H   0  0  0  0  0  0  0  0  0  0  0  0
   57.6680   33.5140   46.7960 C   0  0  0  0  0  0  0  0  0  0  0  0
   57.1777   33.4147   47.7757 H   0  0  0  0  0  0  0  0  0  0  0  0
   57.3550   32.6500   45.7910 N   0  0  0  0  0  0  0  0  0  0  0  0
   56.6440   31.9170   46.0030 H   0  0  0  0  0  0  0  0  0  0  0  0
   59.2790   29.3860   44.4960 C   0  0  0  0  0  0  0  0  0  0  0  0
   59.7150   30.2592   43.9886 H   0  0  0  0  0  0  0  0  0  0  0  0
  1  2  1  0
  2  3  2  0
  3  4  1  0
  3  5  1  0
  5  6  1  0
  5  7  2  0
  7  8  1  0
  7  9  1  0
  9 10  1  0
 10 11  2  0
 10 12  2  0
 10 13  1  0
 13 14  2  0
 14 15  1  0
 15 16  1  0
 15 17  2  0
 17 18  1  0
 17 19  1  0
 19 20  1  0
 19 21  2  0
 21 22  1  0
 21 23  1  0
 23 24  1  0
  9 25  2  0
 25 26  1  0
 25  2  1  0
 23 14  1  0
M  END
>  <UniqueID>  (22) 
18

>  <SMILES>  (22) 
O=S(=O)(/N=c1/cccc[nH]1)c1cccc(Cl)c1

>  <Energy>  (22) 
31.713655329242112

>  <Genealogy>  (22) 
O=S(=O)(/N=c1/cccc[nH]1)c1cccc(Cl)c1 (cis-trans isomerization)
O=S(=O)(/N=c1/cccc[nH]1)c1cccc(Cl)c1 (3D coordinates assigned)
O=S(=O)(/N=c1/cccc[nH]1)c1cccc(Cl)c1 (optimized conformer: 31.713655329242112 kcal/mol)

>  <smiles>  (22) 
O=S(=O)(N=c1cccc[nH]1)c1cccc(Cl)c1

>  <score_type>  (22) 
oracle

>  <origin>  (22) 
adg

>  <m_score__min__energy>  (22) 
-7.3300000000000001

>  <m_primary>  (22) 
energy

$$$$
22:0
     RDKit          3D

 54 57  0  0  0  0  0  0  0  0999 V2000
   58.0900   32.3240   50.3540 C   0  0  0  0  0  0  0  0  0  0  0  0
   59.0780   31.5810   49.4420 C   0  0  1  0  0  0  0  0  0  0  0  0
   58.5680   31.5440   47.9780 C   0  0  0  0  0  0  0  0  0  0  0  0
   58.9410   32.7650   47.2660 N   0  0  0  0  0  0  0  0  0  0  0  0
   58.4860   33.2260   46.0830 C   0  0  0  0  0  0  0  0  0  0  0  0
   57.4970   32.5430   45.2310 C   0  0  0  0  0  0  0  0  0  0  0  0
   56.2770   32.8210   45.3700 O   0  0  0  0  0  0  0  0  0  0  0  0
   57.8760   31.5820   44.2370 N   0  0  0  0  0  0  0  0  0  0  0  0
   57.0240   31.0840   43.1600 C   0  0  0  0  0  0  0  0  0  0  0  0
   56.2540   29.8390   43.5980 C   0  0  0  0  0  0  0  0  0  0  0  0
   55.9970   29.8950   44.9740 O   0  0  0  0  0  0  0  0  0  0  0  0
   59.1410   34.4130   45.8010 C   0  0  0  0  0  0  0  0  0  0  0  0
   59.9920   34.6830   46.8100 N   0  0  0  0  0  0  0  0  0  0  0  0
   59.8640   33.6540   47.6730 C   0  0  0  0  0  0  0  0  0  0  0  0
   60.5170   33.5540   49.0250 C   0  0  2  0  0  0  0  0  0  0  0  0
   61.9360   34.1430   49.0450 C   0  0  0  0  0  0  0  0  0  0  0  0
   60.4480   32.1570   49.5470 N   0  0  0  0  0  0  0  0  0  0  0  0
   61.6320   31.0710   48.8220 S   0  0  0  0  0  0  0  0  0  0  0  0
   62.3700   30.3160   49.8930 O   0  0  0  0  0  0  0  0  0  0  0  0
   62.6330   31.8390   48.0030 O   0  0  0  0  0  0  0  0  0  0  0  0
   60.8150   29.9480   47.7400 C   0  0  0  0  0  0  0  0  0  0  0  0
   60.7910   30.2120   46.3660 C   0  0  0  0  0  0  0  0  0  0  0  0
   60.1360   29.3420   45.4890 C   0  0  0  0  0  0  0  0  0  0  0  0
   59.4990   28.1900   45.9780 C   0  0  0  0  0  0  0  0  0  0  0  0
   58.8360   27.3050   45.1100 C   0  0  0  0  0  0  0  0  0  0  0  0
   58.7970   27.5490   43.7740 F   0  0  0  0  0  0  0  0  0  0  0  0
   58.2060   26.1620   45.6210 C   0  0  0  0  0  0  0  0  0  0  0  0
   57.3740   25.0520   44.5440 Cl  0  0  0  0  0  0  0  0  0  0  0  0
   58.2360   25.8980   46.9940 C   0  0  0  0  0  0  0  0  0  0  0  0
   58.8930   26.7690   47.8650 C   0  0  0  0  0  0  0  0  0  0  0  0
   59.5280   27.9170   47.3690 C   0  0  0  0  0  0  0  0  0  0  0  0
   60.1890   28.7970   48.2400 C   0  0  0  0  0  0  0  0  0  0  0  0
   58.3463   32.1313   51.4062 H   0  0  0  0  0  0  0  0  0  0  0  0
   58.1480   33.4042   50.1544 H   0  0  0  0  0  0  0  0  0  0  0  0
   57.0683   31.9686   50.1544 H   0  0  0  0  0  0  0  0  0  0  0  0
   59.1426   30.5384   49.7868 H   0  0  0  0  0  0  0  0  0  0  0  0
   59.0102   30.6778   47.4641 H   0  0  0  0  0  0  0  0  0  0  0  0
   57.4710   31.4643   47.9893 H   0  0  0  0  0  0  0  0  0  0  0  0
   56.3070   31.8688   42.8772 H   0  0  0  0  0  0  0  0  0  0  0  0
   57.6624   30.8169   42.3049 H   0  0  0  0  0  0  0  0  0  0  0  0
   55.3010   29.7887   43.0510 H   0  0  0  0  0  0  0  0  0  0  0  0
   56.8570   28.9454   43.3790 H   0  0  0  0  0  0  0  0  0  0  0  0
   56.1500   30.8390   45.2430 H   0  0  0  0  0  0  0  0  0  0  0  0
   58.9916   35.0316   44.9038 H   0  0  0  0  0  0  0  0  0  0  0  0
   60.6090   35.5210   46.8970 H   0  0  0  0  0  0  0  0  0  0  0  0
   59.9422   34.1841   49.7197 H   0  0  0  0  0  0  0  0  0  0  0  0
   62.2622   34.2784   50.0868 H   0  0  0  0  0  0  0  0  0  0  0  0
   62.6252   33.4566   48.5313 H   0  0  0  0  0  0  0  0  0  0  0  0
   61.9365   35.1157   48.5313 H   0  0  0  0  0  0  0  0  0  0  0  0
   61.2907   31.1098   45.9733 H   0  0  0  0  0  0  0  0  0  0  0  0
   60.1196   29.5609   44.4111 H   0  0  0  0  0  0  0  0  0  0  0  0
   57.7395   24.9997   47.3896 H   0  0  0  0  0  0  0  0  0  0  0  0
   58.9127   26.5543   48.9437 H   0  0  0  0  0  0  0  0  0  0  0  0
   60.2161   28.5831   49.3187 H   0  0  0  0  0  0  0  0  0  0  0  0
  1  2  1  0
  2  3  1  0
  3  4  1  0
  4  5  1  0
  5  6  1  0
  6  7  2  0
  6  8  1  0
  8  9  1  0
  9 10  1  0
 10 11  1  0
  5 12  2  0
 12 13  1  0
 13 14  2  0
 14 15  1  0
 15 16  1  0
 15 17  1  0
 17 18  1  0
 18 19  2  0
 18 20  2  0
 18 21  1  0
 21 22  2  0
 22 23  1  0
 23 24  2  0
 24 25  1  0
 25 26  1  0
 25 27  2  0
 27 28  1  0
 27 29  1  0
 29 30  2  0
 30 31  1  0
 31 32  2  0
 17  2  1  0
 32 21  1  0
 14  4  1  0
 31 24  1  0
  1 33  1  0
  1 34  1  0
  1 35  1  0
  2 36  1  1
  3 37  1  0
  3 38  1  0
  9 39  1  0
  9 40  1  0
 10 41  1  0
 10 42  1  0
 11 43  1  0
 12 44  1  0
 13 45  1  0
 15 46  1  1
 16 47  1  0
 16 48  1  0
 16 49  1  0
 22 50  1  0
 23 51  1  0
 29 52  1  0
 30 53  1  0
 32 54  1  0
M  CHG  2   8  -1  13   1
M  END
>  <UniqueID>  (23) 
19

>  <SMILES>  (23) 
C[C@H]1Cn2c(C(=O)[N-]CCO)c[nH+]c2[C@H](C)N1S(=O)(=O)c1ccc2c(F)c(Cl)ccc2c1

>  <Energy>  (23) 
98.82077034985144

>  <Genealogy>  (23) 
CC1Cn2c(C(=O)[N-]CCO)c[nH+]c2C(C)N1S(=O)(=O)c1ccc2c(F)c(Cl)ccc2c1 (protonated)
C[C@H]1Cn2c(C(=O)[N-]CCO)c[nH+]c2[C@H](C)N1S(=O)(=O)c1ccc2c(F)c(Cl)ccc2c1 (chirality)
C[C@H]1Cn2c(C(=O)[N-]CCO)c[nH+]c2[C@H](C)N1S(=O)(=O)c1ccc2c(F)c(Cl)ccc2c1 (3D coordinates assigned)
C[C@H]1Cn2c(C(=O)[N-]CCO)c[nH+]c2[C@H](C)N1S(=O)(=O)c1ccc2c(F)c(Cl)ccc2c1 (nonaromatic ring conformer: 98.82077034985144 kcal/mol)

>  <smiles>  (23) 
CC1Cn2c(C(=O)NCCO)cnc2C(C)N1S(=O)(=O)c1ccc2c(F)c(Cl)ccc2c1

>  <score_type>  (23) 
oracle

>  <origin>  (23) 
adg

>  <m_score__min__energy>  (23) 
-9.3300000000000001

>  <m_primary>  (23) 
energy

$$$$
23:0
     RDKit          3D

 31 32  0  0  0  0  0  0  0  0999 V2000
   58.3146   35.4998   44.8114 H   0  0  0  0  0  0  0  0  0  0  0  0
   58.3160   34.4500   45.1400 C   0  0  0  0  0  0  0  0  0  0  0  0
   59.2120   34.0290   46.1190 C   0  0  0  0  0  0  0  0  0  0  0  0
   59.9188   34.7426   46.5677 H   0  0  0  0  0  0  0  0  0  0  0  0
   59.2060   32.6920   46.5270 C   0  0  0  0  0  0  0  0  0  0  0  0
   60.1310   32.2350   47.6160 C   0  0  0  0  0  0  0  0  0  0  0  0
   59.6821   32.4568   48.5954 H   0  0  0  0  0  0  0  0  0  0  0  0
   60.2968   31.1513   47.5255 H   0  0  0  0  0  0  0  0  0  0  0  0
   61.0924   32.7618   47.5255 H   0  0  0  0  0  0  0  0  0  0  0  0
   58.3090   31.8200   45.9780 N   0  0  0  0  0  0  0  0  0  0  0  0
   58.2990   30.8290   46.3110 H   0  0  0  0  0  0  0  0  0  0  0  0
   57.4320   32.1960   45.0000 C   0  0  0  0  0  0  0  0  0  0  0  0
   56.6120   31.2980   44.5240 N   0  0  0  0  0  0  0  0  0  0  0  0
   56.4810   29.9090   44.8700 C   0  0  0  0  0  0  0  0  0  0  0  0
   55.3570   29.3400   44.8730 O   0  0  0  0  0  0  0  0  0  0  0  0
   57.6920   29.1200   45.1330 C   0  0  0  0  0  0  0  0  0  0  0  0
   58.9240   29.4750   44.7190 N   0  0  0  0  0  0  0  0  0  0  0  0
   59.7640   28.5390   45.1280 N   0  0  0  0  0  0  0  0  0  0  0  0
   61.2020   28.5920   44.8850 C   0  0  0  0  0  0  0  0  0  0  0  0
   61.7359   28.6117   45.8466 H   0  0  0  0  0  0  0  0  0  0  0  0
   61.5101   27.7046   44.3126 H   0  0  0  0  0  0  0  0  0  0  0  0
   61.4439   29.4997   44.3126 H   0  0  0  0  0  0  0  0  0  0  0  0
   59.0920   27.5900   45.8150 C   0  0  0  0  0  0  0  0  0  0  0  0
   59.7020   26.3600   46.4250 C   0  0  0  0  0  0  0  0  0  0  0  0
   59.2100   26.1870   47.7050 F   0  0  0  0  0  0  0  0  0  0  0  0
   61.0790   26.4800   46.4860 F   0  0  0  0  0  0  0  0  0  0  0  0
   59.3860   25.2520   45.6600 F   0  0  0  0  0  0  0  0  0  0  0  0
   57.7510   27.9270   45.8320 C   0  0  0  0  0  0  0  0  0  0  0  0
   56.9209   27.3734   46.2952 H   0  0  0  0  0  0  0  0  0  0  0  0
   57.4210   33.5430   44.5760 C   0  0  0  0  0  0  0  0  0  0  0  0
   56.7100   33.8744   43.8049 H   0  0  0  0  0  0  0  0  0  0  0  0
  1  2  1  0
  2  3  1  0
  3  4  1  0
  3  5  2  0
  5  6  1  0
  6  7  1  0
  6  8  1  0
  6  9  1  0
  5 10  1  0
 10 11  1  0
 10 12  1  0
 12 13  2  0
 13 14  1  0
 14 15  2  0
 14 16  1  0
 16 17  2  0
 17 18  1  0
 18 19  1  0
 19 20  1  0
 19 21  1  0
 19 22  1  0
 18 23  1  0
 23 24  1  0
 24 25  1  0
 24 26  1  0
 24 27  1  0
 23 28  2  0
 28 29  1  0
 12 30  1  0
 30 31  1  0
 30  2  2  0
 28 16  1  0
M  END
>  <UniqueID>  (24) 
20

>  <SMILES>  (24) 
Cc1ccc/c(=N\C(=O)c2cc(C(F)(F)F)n(C)n2)[nH]1

>  <Energy>  (24) 
66.13580490386707

>  <Genealogy>  (24) 
Cc1ccc/c(=N\C(=O)c2cc(C(F)(F)F)n(C)n2)[nH]1 (cis-trans isomerization)
Cc1ccc/c(=N\C(=O)c2cc(C(F)(F)F)n(C)n2)[nH]1 (3D coordinates assigned)
Cc1ccc/c(=N\C(=O)c2cc(C(F)(F)F)n(C)n2)[nH]1 (optimized conformer: 66.13580490386707 kcal/mol)

>  <smiles>  (24) 
Cc1cccc(=NC(=O)c2cc(C(F)(F)F)n(C)n2)[nH]1

>  <score_type>  (24) 
oracle

>  <origin>  (24) 
adg

>  <m_score__min__energy>  (24) 
-5.9000000000000004

>  <m_primary>  (24) 
energy

$$$$
24:0
     RDKit          3D

 54 57  0  0  0  0  0  0  0  0999 V2000
   54.6711   22.7994   46.4915 H   0  0  0  0  0  0  0  0  0  0  0  0
   55.6850   23.1900   46.3200 C   0  0  0  0  0  0  0  0  0  0  0  0
   56.1200   24.2120   47.0700 C   0  0  0  0  0  0  0  0  0  0  0  0
   56.3483   24.0304   48.1306 H   0  0  0  0  0  0  0  0  0  0  0  0
   56.3040   25.5690   46.5280 C   0  0  0  0  0  0  0  0  0  0  0  0
   55.2830   26.2940   46.0110 N   0  0  0  0  0  0  0  0  0  0  0  0
   55.7470   27.4680   45.5950 N   0  0  0  0  0  0  0  0  0  0  0  0
   57.0660   27.4930   45.8560 C   0  0  0  0  0  0  0  0  0  0  0  0
   57.9520   28.5400   45.6220 C   0  0  0  0  0  0  0  0  0  0  0  0
   57.6205   29.4658   45.1290 H   0  0  0  0  0  0  0  0  0  0  0  0
   59.2860   28.3750   46.0370 C   0  0  0  0  0  0  0  0  0  0  0  0
   60.4790   29.6880   45.7730 S   0  0  0  0  0  0  0  0  0  0  0  0
   59.2050   30.9520   45.6260 C   0  0  0  0  0  0  0  0  0  0  0  0
   58.5500   31.1110   44.3950 C   0  0  0  0  0  0  0  0  0  0  0  0
   58.8518   30.5000   43.5315 H   0  0  0  0  0  0  0  0  0  0  0  0
   57.5170   32.0410   44.2610 C   0  0  0  0  0  0  0  0  0  0  0  0
   57.0066   32.1590   43.2938 H   0  0  0  0  0  0  0  0  0  0  0  0
   57.1310   32.8210   45.3520 C   0  0  0  0  0  0  0  0  0  0  0  0
   56.3073   33.5427   45.2483 H   0  0  0  0  0  0  0  0  0  0  0  0
   57.7910   32.6850   46.5760 C   0  0  0  0  0  0  0  0  0  0  0  0
   57.4856   33.3031   47.4331 H   0  0  0  0  0  0  0  0  0  0  0  0
   58.8410   31.7650   46.7190 C   0  0  0  0  0  0  0  0  0  0  0  0
   59.5360   31.6760   48.0170 C   0  0  0  0  0  0  0  0  0  0  0  0
   59.1590   30.7930   48.8370 O   0  0  0  0  0  0  0  0  0  0  0  0
   60.6050   32.5860   48.3720 N   0  0  0  0  0  0  0  0  0  0  0  0
   60.8020   33.8490   47.6400 C   0  0  0  0  0  0  0  0  0  0  0  0
   61.0120   34.6543   48.3593 H   0  0  0  0  0  0  0  0  0  0  0  0
   59.8879   34.0743   47.0711 H   0  0  0  0  0  0  0  0  0  0  0  0
   61.9690   33.7310   46.6660 C   0  0  0  0  0  0  0  0  0  0  0  0
   62.9088   33.6360   47.2296 H   0  0  0  0  0  0  0  0  0  0  0  0
   61.8297   32.8424   46.0328 H   0  0  0  0  0  0  0  0  0  0  0  0
   62.0104   34.6295   46.0328 H   0  0  0  0  0  0  0  0  0  0  0  0
   61.4450   32.3060   49.5440 C   0  0  0  0  0  0  0  0  0  0  0  0
   61.7795   33.2564   49.9853 H   0  0  0  0  0  0  0  0  0  0  0  0
   60.8556   31.7352   50.2766 H   0  0  0  0  0  0  0  0  0  0  0  0
   62.6620   31.4840   49.1420 C   0  0  0  0  0  0  0  0  0  0  0  0
   63.1820   31.1328   50.0455 H   0  0  0  0  0  0  0  0  0  0  0  0
   62.3389   30.6184   48.5450 H   0  0  0  0  0  0  0  0  0  0  0  0
   63.3443   32.1070   48.5450 H   0  0  0  0  0  0  0  0  0  0  0  0
   59.6880   27.1820   46.6860 C   0  0  0  0  0  0  0  0  0  0  0  0
   60.7297   27.0677   47.0203 H   0  0  0  0  0  0  0  0  0  0  0  0
   58.7660   26.1410   46.9070 C   0  0  0  0  0  0  0  0  0  0  0  0
   59.0650   25.2144   47.4189 H   0  0  0  0  0  0  0  0  0  0  0  0
   57.4580   26.3270   46.4530 C   0  0  0  0  0  0  0  0  0  0  0  0
   56.5200   22.5700   45.2710 C   0  0  0  0  0  0  0  0  0  0  0  0
   55.9500   21.9600   44.1930 N   0  0  0  0  0  0  0  0  0  0  0  0
   56.6950   21.3890   43.2080 C   0  0  0  0  0  0  0  0  0  0  0  0
   56.1992   20.9023   42.3552 H   0  0  0  0  0  0  0  0  0  0  0  0
   58.0870   21.4210   43.2800 C   0  0  0  0  0  0  0  0  0  0  0  0
   58.6959   20.9676   42.4839 H   0  0  0  0  0  0  0  0  0  0  0  0
   58.6990   22.0350   44.3740 C   0  0  0  0  0  0  0  0  0  0  0  0
   59.7962   22.0650   44.4458 H   0  0  0  0  0  0  0  0  0  0  0  0
   57.9170   22.6110   45.3770 C   0  0  0  0  0  0  0  0  0  0  0  0
   58.3934   23.0931   46.2434 H   0  0  0  0  0  0  0  0  0  0  0  0
  1  2  1  0
  2  3  2  0
  3  4  1  0
  3  5  1  0
  5  6  1  0
  6  7  1  0
  7  8  2  0
  8  9  1  0
  9 10  1  0
  9 11  2  0
 11 12  1  0
 12 13  1  0
 13 14  2  0
 14 15  1  0
 14 16  1  0
 16 17  1  0
 16 18  2  0
 18 19  1  0
 18 20  1  0
 20 21  1  0
 20 22  2  0
 22 23  1  0
 23 24  2  0
 23 25  1  0
 25 26  1  0
 26 27  1  0
 26 28  1  0
 26 29  1  0
 29 30  1  0
 29 31  1  0
 29 32  1  0
 25 33  1  0
 33 34  1  0
 33 35  1  0
 33 36  1  0
 36 37  1  0
 36 38  1  0
 36 39  1  0
 11 40  1  0
 40 41  1  0
 40 42  2  0
 42 43  1  0
 42 44  1  0
  2 45  1  0
 45 46  2  0
 46 47  1  0
 47 48  1  0
 47 49  2  0
 49 50  1  0
 49 51  1  0
 51 52  1  0
 51 53  2  0
 53 54  1  0
 44  5  2  0
 53 45  1  0
 44  8  1  0
 22 13  1  0
M  CHG  1   6  -1
M  END
>  <UniqueID>  (25) 
21

>  <SMILES>  (25) 
CCN(CC)C(=O)c1ccccc1Sc1ccc2c(/C=C/c3ccccn3)[n-]nc2c1

>  <Energy>  (25) 
94.23595522983851

>  <Genealogy>  (25) 
CCN(CC)C(=O)c1ccccc1Sc1ccc2c(C=Cc3ccccn3)[n-]nc2c1 (protonated)
CCN(CC)C(=O)c1ccccc1Sc1ccc2c(/C=C/c3ccccn3)[n-]nc2c1 (cis-trans isomerization)
CCN(CC)C(=O)c1ccccc1Sc1ccc2c(/C=C/c3ccccn3)[n-]nc2c1 (3D coordinates assigned)
CCN(CC)C(=O)c1ccccc1Sc1ccc2c(/C=C/c3ccccn3)[n-]nc2c1 (optimized conformer: 94.23595522983851 kcal/mol)

>  <smiles>  (25) 
CCN(CC)C(=O)c1ccccc1Sc1ccc2c(C=Cc3ccccn3)[nH]nc2c1

>  <score_type>  (25) 
oracle

>  <origin>  (25) 
adg

>  <m_score__min__energy>  (25) 
-11.69

>  <m_primary>  (25) 
energy

$$$$
25:0
     RDKit          3D

 54 57  0  0  0  0  0  0  0  0999 V2000
   55.7280   25.5500   46.3310 O   0  0  0  0  0  0  0  0  0  0  0  0
   56.7280   25.3710   45.5820 C   0  0  0  0  0  0  0  0  0  0  0  0
   56.8460   24.1070   44.8230 C   0  0  0  0  0  0  0  0  0  0  0  0
   57.8350   23.1670   45.1630 C   0  0  0  0  0  0  0  0  0  0  0  0
   57.9550   21.9770   44.4400 C   0  0  0  0  0  0  0  0  0  0  0  0
   57.1010   21.7190   43.3650 C   0  0  0  0  0  0  0  0  0  0  0  0
   56.1270   22.6560   43.0080 C   0  0  0  0  0  0  0  0  0  0  0  0
   56.0010   23.8460   43.7300 C   0  0  0  0  0  0  0  0  0  0  0  0
   57.7230   26.4040   45.4740 N   0  0  0  0  0  0  0  0  0  0  0  0
   58.1570   26.8530   44.1410 C   0  0  0  0  0  0  0  0  0  0  0  0
   59.0730   28.0820   44.2270 C   0  0  0  0  0  0  0  0  0  0  0  0
   58.4840   29.2000   45.1250 C   0  0  0  0  0  0  0  0  0  0  0  0
   57.4960   30.0790   44.3230 C   0  0  0  0  0  0  0  0  0  0  0  0
   57.0430   31.2500   45.0950 N   0  0  0  0  0  0  0  0  0  0  0  0
   57.3820   32.5320   44.4540 C   0  0  0  0  0  0  0  0  0  0  0  0
   58.1870   33.3950   45.3880 C   0  0  0  0  0  0  0  0  0  0  0  0
   58.8060   34.5610   44.9180 C   0  0  0  0  0  0  0  0  0  0  0  0
   59.5520   35.3430   45.7970 C   0  0  0  0  0  0  0  0  0  0  0  0
   59.6690   34.9680   47.1340 C   0  0  0  0  0  0  0  0  0  0  0  0
   59.0260   33.8050   47.5900 C   0  0  0  0  0  0  0  0  0  0  0  0
   59.1440   33.3800   48.9610 N   0  0  0  0  0  0  0  0  0  0  0  0
   59.9250   33.9200   49.9200 C   0  0  0  0  0  0  0  0  0  0  0  0
   59.7310   33.2190   51.0900 C   0  0  0  0  0  0  0  0  0  0  0  0
   58.8020   32.2500   50.7700 C   0  0  0  0  0  0  0  0  0  0  0  0
   58.4580   32.3690   49.4730 N   0  0  0  0  0  0  0  0  0  0  0  0
   58.2990   33.0550   46.7060 N   0  0  0  0  0  0  0  0  0  0  0  0
   57.8320   28.6520   46.4310 C   0  0  0  0  0  0  0  0  0  0  0  0
   58.1220   27.1670   46.6620 C   0  0  0  0  0  0  0  0  0  0  0  0
   58.5173   23.3692   46.0018 H   0  0  0  0  0  0  0  0  0  0  0  0
   58.7241   21.2414   44.7182 H   0  0  0  0  0  0  0  0  0  0  0  0
   57.1949   20.7798   42.8002 H   0  0  0  0  0  0  0  0  0  0  0  0
   55.4586   22.4564   42.1574 H   0  0  0  0  0  0  0  0  0  0  0  0
   55.2365   24.5825   43.4415 H   0  0  0  0  0  0  0  0  0  0  0  0
   58.7035   26.0346   43.6495 H   0  0  0  0  0  0  0  0  0  0  0  0
   57.2625   27.1313   43.5645 H   0  0  0  0  0  0  0  0  0  0  0  0
   60.0430   27.7706   44.6420 H   0  0  0  0  0  0  0  0  0  0  0  0
   59.1799   28.4908   43.2114 H   0  0  0  0  0  0  0  0  0  0  0  0
   59.3270   29.8279   45.4490 H   0  0  0  0  0  0  0  0  0  0  0  0
   57.9955   30.4293   43.4077 H   0  0  0  0  0  0  0  0  0  0  0  0
   56.6131   29.4669   44.0867 H   0  0  0  0  0  0  0  0  0  0  0  0
   56.0000   31.1960   45.1500 H   0  0  0  0  0  0  0  0  0  0  0  0
   57.9698   32.3373   43.5448 H   0  0  0  0  0  0  0  0  0  0  0  0
   56.4503   33.0584   44.1994 H   0  0  0  0  0  0  0  0  0  0  0  0
   58.7037   34.8565   43.8634 H   0  0  0  0  0  0  0  0  0  0  0  0
   60.0483   36.2558   45.4359 H   0  0  0  0  0  0  0  0  0  0  0  0
   60.2623   35.5799   47.8294 H   0  0  0  0  0  0  0  0  0  0  0  0
   60.6029   34.7764   49.7894 H   0  0  0  0  0  0  0  0  0  0  0  0
   60.2108   33.3933   52.0644 H   0  0  0  0  0  0  0  0  0  0  0  0
   58.4040   31.4970   51.4662 H   0  0  0  0  0  0  0  0  0  0  0  0
   57.8140   32.1940   47.0450 H   0  0  0  0  0  0  0  0  0  0  0  0
   58.2234   29.2234   47.2855 H   0  0  0  0  0  0  0  0  0  0  0  0
   56.7425   28.7643   46.3290 H   0  0  0  0  0  0  0  0  0  0  0  0
   59.1977   27.0268   46.8445 H   0  0  0  0  0  0  0  0  0  0  0  0
   57.5546   26.8124   47.5351 H   0  0  0  0  0  0  0  0  0  0  0  0
  1  2  2  0
  2  3  1  0
  3  4  2  0
  4  5  1  0
  5  6  2  0
  6  7  1  0
  7  8  2  0
  2  9  1  0
  9 10  1  0
 10 11  1  0
 11 12  1  0
 12 13  1  0
 13 14  1  0
 14 15  1  0
 15 16  1  0
 16 17  2  0
 17 18  1  0
 18 19  2  0
 19 20  1  0
 20 21  1  0
 21 22  1  0
 22 23  2  0
 23 24  1  0
 24 25  2  0
 20 26  2  0
 12 27  1  0
 27 28  1  0
  8  3  1  0
 28  9  1  0
 26 16  1  0
 25 21  1  0
  4 29  1  0
  5 30  1  0
  6 31  1  0
  7 32  1  0
  8 33  1  0
 10 34  1  0
 10 35  1  0
 11 36  1  0
 11 37  1  0
 12 38  1  0
 13 39  1  0
 13 40  1  0
 14 41  1  0
 15 42  1  0
 15 43  1  0
 17 44  1  0
 18 45  1  0
 19 46  1  0
 22 47  1  0
 23 48  1  0
 24 49  1  0
 26 50  1  0
 27 51  1  0
 27 52  1  0
 28 53  1  0
 28 54  1  0
M  CHG  1  26   1
M  END
>  <UniqueID>  (26) 
22

>  <SMILES>  (26) 
O=C(c1ccccc1)N1CCC(CNCc2cccc(-n3cccn3)[nH+]2)CC1

>  <Energy>  (26) 
95.57722307132671

>  <Genealogy>  (26) 
O=C(c1ccccc1)N1CCC(CNCc2cccc(-n3cccn3)[nH+]2)CC1 (protonated)
O=C(c1ccccc1)N1CCC(CNCc2cccc(-n3cccn3)[nH+]2)CC1 (3D coordinates assigned)
O=C(c1ccccc1)N1CCC(CNCc2cccc(-n3cccn3)[nH+]2)CC1 (nonaromatic ring conformer: 95.57722307132671 kcal/mol)

>  <smiles>  (26) 
O=C(c1ccccc1)N1CCC(CNCc2cccc(-n3cccn3)n2)CC1

>  <score_type>  (26) 
oracle

>  <origin>  (26) 
adg

>  <m_score__min__energy>  (26) 
-8.2599999999999998

>  <m_primary>  (26) 
energy

$$$$
26:0
     RDKit          3D

 44 46  0  0  1  0  0  0  0  0999 V2000
   59.2870   33.0470   50.4450 C   0  0  0  0  0  0  0  0  0  0  0  0
   59.6370   34.1810   49.7140 O   0  0  0  0  0  0  0  0  0  0  0  0
   60.4980   34.0530   48.6320 C   0  0  0  0  0  0  0  0  0  0  0  0
   61.8680   33.9070   48.8050 C   0  0  0  0  0  0  0  0  0  0  0  0
   62.7370   33.7800   47.7550 C   0  0  0  0  0  0  0  0  0  0  0  0
   62.2160   33.7970   46.4780 C   0  0  0  0  0  0  0  0  0  0  0  0
   60.8410   33.9420   46.2770 C   0  0  0  0  0  0  0  0  0  0  0  0
   59.9940   34.0680   47.3410 C   0  0  0  0  0  0  0  0  0  0  0  0
   58.5330   34.2210   47.1080 C   0  0  0  0  0  0  0  0  0  0  0  0
   57.9060   32.9060   47.1980 N   0  0  0  0  0  0  0  0  0  0  0  0
   58.1040   32.0030   46.2990 C   0  0  0  0  0  0  0  0  0  0  0  0
   57.3650   31.9890   45.1690 N   0  0  0  0  0  0  0  0  0  0  0  0
   57.5540   31.0560   44.2130 C   0  0  0  0  0  0  0  0  0  0  0  0
   56.6800   31.1310   43.0040 C   0  0  0  0  0  0  0  0  0  0  0  0
   56.3180   29.7360   42.6070 C   0  0  0  0  0  0  0  0  0  0  0  0
   57.3940   31.8620   41.8730 C   0  0  0  0  0  0  0  0  0  0  0  0
   58.4950   30.1200   44.3810 N   0  0  0  0  0  0  0  0  0  0  0  0
   59.2590   30.0860   45.4870 C   0  0  0  0  0  0  0  0  0  0  0  0
   59.0740   31.0430   46.4800 C   0  0  0  0  0  0  0  0  0  0  0  0
   59.9600   30.8160   47.5100 C   0  0  0  0  0  0  0  0  0  0  0  0
   60.6680   29.7320   47.1330 N   0  0  0  0  0  0  0  0  0  0  0  0
   60.2600   29.3040   45.9500 N   0  0  0  0  0  0  0  0  0  0  0  0
   60.7820   28.1630   45.2170 C   0  0  0  0  0  0  0  0  0  0  0  0
   59.3553   33.2684   51.5203 H   0  0  0  0  0  0  0  0  0  0  0  0
   58.2565   32.7537   50.1958 H   0  0  0  0  0  0  0  0  0  0  0  0
   59.9729   32.2240   50.1958 H   0  0  0  0  0  0  0  0  0  0  0  0
   62.2717   33.8928   49.8282 H   0  0  0  0  0  0  0  0  0  0  0  0
   63.8181   33.6678   47.9245 H   0  0  0  0  0  0  0  0  0  0  0  0
   62.8872   33.6958   45.6124 H   0  0  0  0  0  0  0  0  0  0  0  0
   60.4374   33.9548   45.2538 H   0  0  0  0  0  0  0  0  0  0  0  0
   58.1043   34.8887   47.8699 H   0  0  0  0  0  0  0  0  0  0  0  0
   58.3549   34.6545   46.1128 H   0  0  0  0  0  0  0  0  0  0  0  0
   55.7650   31.6992   43.2275 H   0  0  0  0  0  0  0  0  0  0  0  0
   56.1600   29.1272   43.5095 H   0  0  0  0  0  0  0  0  0  0  0  0
   55.3944   29.7527   42.0097 H   0  0  0  0  0  0  0  0  0  0  0  0
   57.1332   29.3015   42.0097 H   0  0  0  0  0  0  0  0  0  0  0  0
   58.1035   32.5883   42.2962 H   0  0  0  0  0  0  0  0  0  0  0  0
   57.9394   31.1350   41.2533 H   0  0  0  0  0  0  0  0  0  0  0  0
   56.6544   32.3902   41.2533 H   0  0  0  0  0  0  0  0  0  0  0  0
   58.6380   29.4000   43.6400 H   0  0  0  0  0  0  0  0  0  0  0  0
   60.0669   31.3943   48.4396 H   0  0  0  0  0  0  0  0  0  0  0  0
   61.1313   27.3994   45.9275 H   0  0  0  0  0  0  0  0  0  0  0  0
   59.9882   27.7393   44.5843 H   0  0  0  0  0  0  0  0  0  0  0  0
   61.6216   28.4866   44.5843 H   0  0  0  0  0  0  0  0  0  0  0  0
  1  2  1  0
  2  3  1  0
  3  4  2  0
  4  5  1  0
  5  6  2  0
  6  7  1  0
  7  8  2  0
  8  9  1  0
  9 10  1  0
 10 11  2  0
 11 12  1  0
 12 13  2  0
 13 14  1  0
 14 15  1  0
 14 16  1  0
 13 17  1  0
 17 18  1  0
 18 19  2  0
 19 20  1  0
 20 21  2  0
 21 22  1  0
 22 23  1  0
  8  3  1  0
 19 11  1  0
 22 18  1  0
  1 24  1  0
  1 25  1  0
  1 26  1  0
  4 27  1  0
  5 28  1  0
  6 29  1  0
  7 30  1  0
  9 31  1  0
  9 32  1  0
 14 33  1  0
 15 34  1  0
 15 35  1  0
 15 36  1  0
 16 37  1  0
 16 38  1  0
 16 39  1  0
 17 40  1  0
 20 41  1  0
 23 42  1  0
 23 43  1  0
 23 44  1  0
M  END
>  <smiles>  (27) 
COc1ccccc1CN=c1nc(C(C)C)[nH]c2c1cnn2C

>  <score_type>  (27) 
oracle

>  <origin>  (27) 
adg

>  <m_score__min__energy>  (27) 
-7.1299999999999999

>  <m_primary>  (27) 
energy

$$$$
27:0
     RDKit          3D

 35 37  0  0  0  0  0  0  0  0999 V2000
   55.9380   30.5620   44.5450 O   0  0  0  0  0  0  0  0  0  0  0  0
   57.2350   30.9940   43.9220 S   0  0  0  0  0  0  0  0  0  0  0  0
   57.0160   31.2570   42.4600 O   0  0  0  0  0  0  0  0  0  0  0  0
   58.4120   29.7320   44.1080 N   0  0  0  0  0  0  0  0  0  0  0  0
   58.8950   29.2710   45.3820 C   0  0  0  0  0  0  0  0  0  0  0  0
   58.4590   28.0290   45.8700 C   0  0  0  0  0  0  0  0  0  0  0  0
   58.9030   27.5570   47.1070 C   0  0  0  0  0  0  0  0  0  0  0  0
   59.7850   28.3230   47.8740 C   0  0  0  0  0  0  0  0  0  0  0  0
   60.2260   29.5720   47.4040 C   0  0  0  0  0  0  0  0  0  0  0  0
   61.1260   30.3610   48.1360 O   0  0  0  0  0  0  0  0  0  0  0  0
   61.7250   31.5440   47.6800 C   0  0  0  0  0  0  0  0  0  0  0  0
   63.1190   31.5880   47.5540 C   0  0  0  0  0  0  0  0  0  0  0  0
   63.7510   32.7450   47.0880 C   0  0  0  0  0  0  0  0  0  0  0  0
   62.9910   33.8630   46.7330 C   0  0  0  0  0  0  0  0  0  0  0  0
   61.5980   33.8230   46.8370 C   0  0  0  0  0  0  0  0  0  0  0  0
   60.9630   32.6670   47.3030 C   0  0  0  0  0  0  0  0  0  0  0  0
   59.7970   30.0280   46.1530 C   0  0  0  0  0  0  0  0  0  0  0  0
   57.7910   32.4510   44.7260 C   0  0  0  0  0  0  0  0  0  0  0  0
   58.5160   33.4720   44.1330 C   0  0  0  0  0  0  0  0  0  0  0  0
   58.7890   34.5280   45.0100 C   0  0  0  0  0  0  0  0  0  0  0  0
   58.2770   34.3350   46.2890 C   0  0  0  0  0  0  0  0  0  0  0  0
   57.4840   32.8520   46.3270 S   0  0  0  0  0  0  0  0  0  0  0  0
   58.6960   29.2190   43.2430 H   0  0  0  0  0  0  0  0  0  0  0  0
   57.7619   27.4226   45.2731 H   0  0  0  0  0  0  0  0  0  0  0  0
   58.5580   26.5807   47.4783 H   0  0  0  0  0  0  0  0  0  0  0  0
   60.1347   27.9478   48.8471 H   0  0  0  0  0  0  0  0  0  0  0  0
   63.7204   30.7072   47.8232 H   0  0  0  0  0  0  0  0  0  0  0  0
   64.8471   32.7753   47.0007 H   0  0  0  0  0  0  0  0  0  0  0  0
   63.4895   34.7746   46.3717 H   0  0  0  0  0  0  0  0  0  0  0  0
   61.0003   34.7014   46.5521 H   0  0  0  0  0  0  0  0  0  0  0  0
   59.8658   32.6349   47.3752 H   0  0  0  0  0  0  0  0  0  0  0  0
   60.1687   30.9889   45.7676 H   0  0  0  0  0  0  0  0  0  0  0  0
   58.8428   33.4545   43.0828 H   0  0  0  0  0  0  0  0  0  0  0  0
   59.3543   35.4247   44.7161 H   0  0  0  0  0  0  0  0  0  0  0  0
   58.3743   35.0340   47.1328 H   0  0  0  0  0  0  0  0  0  0  0  0
  1  2  2  0
  2  3  2  0
  2  4  1  0
  4  5  1  0
  5  6  2  0
  6  7  1  0
  7  8  2  0
  8  9  1  0
  9 10  1  0
 10 11  1  0
 11 12  2  0
 12 13  1  0
 13 14  2  0
 14 15  1  0
 15 16  2  0
  9 17  2  0
  2 18  1  0
 18 19  2  0
 19 20  1  0
 20 21  2  0
 21 22  1  0
 17  5  1  0
 22 18  1  0
 16 11  1  0
  4 23  1  0
  6 24  1  0
  7 25  1  0
  8 26  1  0
 12 27  1  0
 13 28  1  0
 14 29  1  0
 15 30  1  0
 16 31  1  0
 17 32  1  0
 19 33  1  0
 20 34  1  0
 21 35  1  0
M  END
>  <UniqueID>  (28) 
23

>  <SMILES>  (28) 
O=S(=O)(Nc1cccc(Oc2ccccc2)c1)c1cccs1

>  <Energy>  (28) 
72.49275528303451

>  <Genealogy>  (28) 
O=S(=O)(Nc1cccc(Oc2ccccc2)c1)c1cccs1 (3D coordinates assigned)
O=S(=O)(Nc1cccc(Oc2ccccc2)c1)c1cccs1 (optimized conformer: 72.49275528303451 kcal/mol)

>  <smiles>  (28) 
O=S(=O)(Nc1cccc(Oc2ccccc2)c1)c1cccs1

>  <score_type>  (28) 
oracle

>  <origin>  (28) 
adg

>  <m_score__min__energy>  (28) 
-8.2699999999999996

>  <m_primary>  (28) 
energy

$$$$
28:0
     RDKit          3D

 34 37  0  0  0  0  0  0  0  0999 V2000
   59.6360   34.9650   48.7190 N   0  0  0  0  0  0  0  0  0  0  0  0
   59.6750   33.9790   48.1140 C   0  0  0  0  0  0  0  0  0  0  0  0
   59.7230   32.7530   47.3620 C   0  0  0  0  0  0  0  0  0  0  0  0
   60.7010   31.7900   47.6500 C   0  0  0  0  0  0  0  0  0  0  0  0
   60.7480   30.5970   46.9230 C   0  0  0  0  0  0  0  0  0  0  0  0
   59.8230   30.3630   45.9000 C   0  0  0  0  0  0  0  0  0  0  0  0
   58.8280   31.3150   45.6250 C   0  0  0  0  0  0  0  0  0  0  0  0
   58.7790   32.5100   46.3550 C   0  0  0  0  0  0  0  0  0  0  0  0
   57.5310   30.8570   44.5330 S   0  0  0  0  0  0  0  0  0  0  0  0
   57.9310   31.0620   43.1000 O   0  0  0  0  0  0  0  0  0  0  0  0
   56.2820   31.6350   44.8400 O   0  0  0  0  0  0  0  0  0  0  0  0
   57.2560   29.1790   44.8600 N   0  0  0  0  0  0  0  0  0  0  0  0
   58.2440   28.3670   45.1060 C   0  0  0  0  0  0  0  0  0  0  0  0
   57.9570   26.9890   45.5490 C   0  0  0  0  0  0  0  0  0  0  0  0
   57.9110   26.7240   46.9310 C   0  0  0  0  0  0  0  0  0  0  0  0
   58.1690   27.6940   47.9020 O   0  0  0  0  0  0  0  0  0  0  0  0
   57.5530   25.1610   47.4330 S   0  0  0  0  0  0  0  0  0  0  0  0
   57.3130   24.1100   46.1410 C   0  0  0  0  0  0  0  0  0  0  0  0
   57.0100   22.7660   46.3770 C   0  0  0  0  0  0  0  0  0  0  0  0
   56.8170   21.8950   45.3050 C   0  0  0  0  0  0  0  0  0  0  0  0
   56.9250   22.3680   43.9960 C   0  0  0  0  0  0  0  0  0  0  0  0
   56.6810   21.2710   42.6480 Cl  0  0  0  0  0  0  0  0  0  0  0  0
   57.2280   23.7140   43.7560 C   0  0  0  0  0  0  0  0  0  0  0  0
   57.4290   24.6180   44.8270 C   0  0  0  0  0  0  0  0  0  0  0  0
   57.7310   25.9890   44.5530 C   0  0  0  0  0  0  0  0  0  0  0  0
   57.7900   26.3500   43.3430 O   0  0  0  0  0  0  0  0  0  0  0  0
   59.9610   28.8870   44.8770 S   0  0  0  0  0  0  0  0  0  0  0  0
   61.4331   31.9740   48.4501 H   0  0  0  0  0  0  0  0  0  0  0  0
   61.5130   29.8416   47.1555 H   0  0  0  0  0  0  0  0  0  0  0  0
   58.0007   33.2564   46.1380 H   0  0  0  0  0  0  0  0  0  0  0  0
   58.3360   28.6680   47.6840 H   0  0  0  0  0  0  0  0  0  0  0  0
   56.9237   22.3951   47.4090 H   0  0  0  0  0  0  0  0  0  0  0  0
   56.5801   20.8370   45.4906 H   0  0  0  0  0  0  0  0  0  0  0  0
   57.3111   24.0743   42.7200 H   0  0  0  0  0  0  0  0  0  0  0  0
  1  2  3  0
  2  3  1  0
  3  4  2  0
  4  5  1  0
  5  6  2  0
  6  7  1  0
  7  8  2  0
  7  9  1  0
  9 10  2  0
  9 11  2  0
  9 12  1  0
 12 13  2  0
 13 14  1  0
 14 15  2  0
 15 16  1  0
 15 17  1  0
 17 18  1  0
 18 19  2  0
 19 20  1  0
 20 21  2  0
 21 22  1  0
 21 23  1  0
 23 24  2  0
 24 25  1  0
 25 26  2  0
 13 27  1  0
  8  3  1  0
 25 14  1  0
 27  6  1  0
 24 18  1  0
  4 28  1  0
  5 29  1  0
  8 30  1  0
 16 31  1  0
 19 32  1  0
 20 33  1  0
 23 34  1  0
M  END
>  <UniqueID>  (29) 
24

>  <SMILES>  (29) 
N#Cc1ccc2c(c1)S(=O)(=O)N=C(c1c(O)sc3ccc(Cl)cc3c1=O)S2

>  <Energy>  (29) 
66.78995635502507

>  <Genealogy>  (29) 
N#Cc1ccc2c(c1)S(=O)(=O)N=C(c1c(O)sc3ccc(Cl)cc3c1=O)S2 (3D coordinates assigned)
N#Cc1ccc2c(c1)S(=O)(=O)N=C(c1c(O)sc3ccc(Cl)cc3c1=O)S2 (nonaromatic ring conformer: 66.78995635502507 kcal/mol)

>  <smiles>  (29) 
N#Cc1ccc2c(c1)S(=O)(=O)N=C(c1c(O)sc3ccc(Cl)cc3c1=O)S2

>  <score_type>  (29) 
oracle

>  <origin>  (29) 
adg

>  <m_score__min__energy>  (29) 
-8.0299999999999994

>  <m_primary>  (29) 
energy

$$$$
29:0
     RDKit          3D

 38 41  0  0  0  0  0  0  0  0999 V2000
   65.3330   32.9360   47.9250 H   0  0  0  0  0  0  0  0  0  0  0  0
   64.8820   33.4770   48.6540 O   0  0  0  0  0  0  0  0  0  0  0  0
   63.5000   33.4540   48.8280 C   0  0  0  0  0  0  0  0  0  0  0  0
   62.9180   34.2410   49.8280 C   0  0  0  0  0  0  0  0  0  0  0  0
   63.5511   34.8764   50.4648 H   0  0  0  0  0  0  0  0  0  0  0  0
   61.5340   34.2210   50.0190 C   0  0  0  0  0  0  0  0  0  0  0  0
   61.0803   34.8365   50.8097 H   0  0  0  0  0  0  0  0  0  0  0  0
   60.7250   33.4210   49.2080 C   0  0  0  0  0  0  0  0  0  0  0  0
   59.6372   33.3990   49.3697 H   0  0  0  0  0  0  0  0  0  0  0  0
   61.2970   32.6450   48.1870 C   0  0  0  0  0  0  0  0  0  0  0  0
   60.4560   31.7650   47.3470 C   0  0  0  0  0  0  0  0  0  0  0  0
   60.5630   30.4280   47.5330 N   0  0  0  0  0  0  0  0  0  0  0  0
   59.8450   29.5540   46.8320 N   0  0  0  0  0  0  0  0  0  0  0  0
   58.9520   29.9320   45.8830 C   0  0  0  0  0  0  0  0  0  0  0  0
   58.4320   28.9740   45.1610 N   0  0  0  0  0  0  0  0  0  0  0  0
   57.8210   27.7380   45.5580 C   0  0  0  0  0  0  0  0  0  0  0  0
   58.5970   26.6830   46.0720 C   0  0  0  0  0  0  0  0  0  0  0  0
   59.6908   26.7838   46.1308 H   0  0  0  0  0  0  0  0  0  0  0  0
   57.9800   25.5070   46.5080 C   0  0  0  0  0  0  0  0  0  0  0  0
   58.5904   24.6744   46.8877 H   0  0  0  0  0  0  0  0  0  0  0  0
   56.5880   25.3880   46.4620 C   0  0  0  0  0  0  0  0  0  0  0  0
   56.1046   24.4591   46.7989 H   0  0  0  0  0  0  0  0  0  0  0  0
   55.8090   26.4490   45.9880 C   0  0  0  0  0  0  0  0  0  0  0  0
   54.4260   26.3360   45.9560 O   0  0  0  0  0  0  0  0  0  0  0  0
   56.4260   27.6270   45.5490 C   0  0  0  0  0  0  0  0  0  0  0  0
   55.8117   28.4684   45.1957 H   0  0  0  0  0  0  0  0  0  0  0  0
   58.6910   31.3260   45.7150 C   0  0  0  0  0  0  0  0  0  0  0  0
   57.5940   31.8360   44.9800 C   0  0  0  0  0  0  0  0  0  0  0  0
   56.8545   31.1401   44.5572 H   0  0  0  0  0  0  0  0  0  0  0  0
   57.4370   33.2080   44.7840 C   0  0  0  0  0  0  0  0  0  0  0  0
   56.5960   33.5834   44.1825 H   0  0  0  0  0  0  0  0  0  0  0  0
   58.3410   34.1030   45.3470 C   0  0  0  0  0  0  0  0  0  0  0  0
   58.2464   35.1802   45.1454 H   0  0  0  0  0  0  0  0  0  0  0  0
   59.3660   33.6350   46.1660 C   0  0  0  0  0  0  0  0  0  0  0  0
   60.0650   34.3490   46.6260 H   0  0  0  0  0  0  0  0  0  0  0  0
   59.5160   32.2540   46.4110 C   0  0  0  0  0  0  0  0  0  0  0  0
   62.6890   32.6520   48.0130 C   0  0  0  0  0  0  0  0  0  0  0  0
   63.1463   32.0252   47.2333 H   0  0  0  0  0  0  0  0  0  0  0  0
  1  2  1  0
  2  3  1  0
  3  4  2  0
  4  5  1  0
  4  6  1  0
  6  7  1  0
  6  8  2  0
  8  9  1  0
  8 10  1  0
 10 11  1  0
 11 12  2  0
 12 13  1  0
 13 14  1  0
 14 15  2  0
 15 16  1  0
 16 17  2  0
 17 18  1  0
 17 19  1  0
 19 20  1  0
 19 21  2  0
 21 22  1  0
 21 23  1  0
 23 24  1  0
 23 25  2  0
 25 26  1  0
 14 27  1  0
 27 28  2  0
 28 29  1  0
 28 30  1  0
 30 31  1  0
 30 32  2  0
 32 33  1  0
 32 34  1  0
 34 35  1  0
 34 36  2  0
 10 37  2  0
 37 38  1  0
 37  3  1  0
 36 11  1  0
 25 16  1  0
 36 27  1  0
M  CHG  2  13  -1  24  -1
M  END
>  <UniqueID>  (30) 
25

>  <SMILES>  (30) 
[O-]c1cccc(/N=c2/[n-]nc(-c3cccc(O)c3)c3ccccc23)c1

>  <Energy>  (30) 
76.32836239198976

>  <Genealogy>  (30) 
[O-]c1cccc(N=c2[n-]nc(-c3cccc(O)c3)c3ccccc23)c1 (protonated)
[O-]c1cccc(/N=c2/[n-]nc(-c3cccc(O)c3)c3ccccc23)c1 (cis-trans isomerization)
[O-]c1cccc(/N=c2/[n-]nc(-c3cccc(O)c3)c3ccccc23)c1 (3D coordinates assigned)
[O-]c1cccc(/N=c2/[n-]nc(-c3cccc(O)c3)c3ccccc23)c1 (optimized conformer: 76.32836239198976 kcal/mol)

>  <smiles>  (30) 
Oc1cccc(N=c2[nH]nc(-c3cccc(O)c3)c3ccccc23)c1

>  <score_type>  (30) 
oracle

>  <origin>  (30) 
adg

>  <m_score__min__energy>  (30) 
-12.779999999999999

>  <m_primary>  (30) 
energy

$$$$
30:0
     RDKit          3D

 32 33  0  0  0  0  0  0  0  0999 V2000
   56.2700   29.7610   42.6630 C   0  0  0  0  0  0  0  0  0  0  0  0
   56.2330   29.8390   44.1600 C   0  0  0  0  0  0  0  0  0  0  0  0
   55.2060   29.4130   44.7570 O   0  0  0  0  0  0  0  0  0  0  0  0
   57.3630   30.4030   44.9470 C   0  0  0  0  0  0  0  0  0  0  0  0
   58.4290   29.5730   45.3410 C   0  0  0  0  0  0  0  0  0  0  0  0
   59.4990   30.0910   46.0720 C   0  0  0  0  0  0  0  0  0  0  0  0
   59.5250   31.4430   46.4170 C   0  0  0  0  0  0  0  0  0  0  0  0
   58.4810   32.2920   46.0370 C   0  0  0  0  0  0  0  0  0  0  0  0
   58.5630   33.6460   46.4010 O   0  0  0  0  0  0  0  0  0  0  0  0
   59.6610   34.5140   46.1170 C   0  0  0  0  0  0  0  0  0  0  0  0
   60.8600   34.1560   46.9560 C   0  0  0  0  0  0  0  0  0  0  0  0
   60.7670   34.1680   48.3580 C   0  0  0  0  0  0  0  0  0  0  0  0
   61.8770   33.8350   49.1410 C   0  0  0  0  0  0  0  0  0  0  0  0
   63.0900   33.4940   48.5310 C   0  0  0  0  0  0  0  0  0  0  0  0
   64.2310   33.1480   49.3390 C   0  0  0  0  0  0  0  0  0  0  0  0
   65.1480   32.8710   49.9880 N   0  0  0  0  0  0  0  0  0  0  0  0
   63.1920   33.4910   47.1360 C   0  0  0  0  0  0  0  0  0  0  0  0
   62.0830   33.8260   46.3500 C   0  0  0  0  0  0  0  0  0  0  0  0
   57.3950   31.7650   45.3100 C   0  0  0  0  0  0  0  0  0  0  0  0
   56.7228   28.8065   42.3567 H   0  0  0  0  0  0  0  0  0  0  0  0
   55.2457   29.8247   42.2671 H   0  0  0  0  0  0  0  0  0  0  0  0
   56.8687   30.5946   42.2671 H   0  0  0  0  0  0  0  0  0  0  0  0
   58.4188   28.5068   45.0705 H   0  0  0  0  0  0  0  0  0  0  0  0
   60.3247   29.4314   46.3773 H   0  0  0  0  0  0  0  0  0  0  0  0
   60.3729   31.8436   46.9920 H   0  0  0  0  0  0  0  0  0  0  0  0
   59.9258   34.4236   45.0532 H   0  0  0  0  0  0  0  0  0  0  0  0
   59.3630   35.5464   46.3522 H   0  0  0  0  0  0  0  0  0  0  0  0
   59.8173   34.4404   48.8417 H   0  0  0  0  0  0  0  0  0  0  0  0
   61.7967   33.8410   50.2381 H   0  0  0  0  0  0  0  0  0  0  0  0
   64.1452   33.2250   46.6557 H   0  0  0  0  0  0  0  0  0  0  0  0
   62.1700   33.8307   45.2535 H   0  0  0  0  0  0  0  0  0  0  0  0
   56.5625   32.4239   45.0223 H   0  0  0  0  0  0  0  0  0  0  0  0
  1  2  1  0
  2  3  2  0
  2  4  1  0
  4  5  2  0
  5  6  1  0
  6  7  2  0
  7  8  1  0
  8  9  1  0
  9 10  1  0
 10 11  1  0
 11 12  2  0
 12 13  1  0
 13 14  2  0
 14 15  1  0
 15 16  3  0
 14 17  1  0
 17 18  2  0
  8 19  2  0
 19  4  1  0
 18 11  1  0
  1 20  1  0
  1 21  1  0
  1 22  1  0
  5 23  1  0
  6 24  1  0
  7 25  1  0
 10 26  1  0
 10 27  1  0
 12 28  1  0
 13 29  1  0
 17 30  1  0
 18 31  1  0
 19 32  1  0
M  END
>  <UniqueID>  (31) 
26

>  <SMILES>  (31) 
CC(=O)c1cccc(OCc2ccc(C#N)cc2)c1

>  <Energy>  (31) 
31.36510122930224

>  <Genealogy>  (31) 
CC(=O)c1cccc(OCc2ccc(C#N)cc2)c1 (3D coordinates assigned)
CC(=O)c1cccc(OCc2ccc(C#N)cc2)c1 (optimized conformer: 31.36510122930224 kcal/mol)

>  <smiles>  (31) 
CC(=O)c1cccc(OCc2ccc(C#N)cc2)c1

>  <score_type>  (31) 
oracle

>  <origin>  (31) 
adg

>  <m_score__min__energy>  (31) 
-7.2599999999999998

>  <m_primary>  (31) 
energy

$$$$
31:0
     RDKit          3D

 39 42  0  0  0  0  0  0  0  0999 V2000
   57.0310   31.7270   41.9950 O   0  0  0  0  0  0  0  0  0  0  0  0
   57.1500   31.3210   43.1810 C   0  0  0  0  0  0  0  0  0  0  0  0
   56.6340   30.1120   43.5270 N   0  0  0  0  0  0  0  0  0  0  0  0
   56.7440   29.6270   44.7920 C   0  0  0  0  0  0  0  0  0  0  0  0
   56.1570   28.3580   45.1160 N   0  0  0  0  0  0  0  0  0  0  0  0
   56.8260   27.3250   45.8590 C   0  0  0  0  0  0  0  0  0  0  0  0
   56.1860   26.0910   46.0520 C   0  0  0  0  0  0  0  0  0  0  0  0
   56.8250   25.0640   46.7530 C   0  0  0  0  0  0  0  0  0  0  0  0
   58.1150   25.2560   47.2530 C   0  0  0  0  0  0  0  0  0  0  0  0
   58.7710   26.4710   47.0460 C   0  0  0  0  0  0  0  0  0  0  0  0
   58.1360   27.5010   46.3460 C   0  0  0  0  0  0  0  0  0  0  0  0
   57.3640   30.3710   45.7470 N   0  0  0  0  0  0  0  0  0  0  0  0
   57.8970   31.5860   45.4590 C   0  0  0  0  0  0  0  0  0  0  0  0
   58.5370   32.3250   46.4590 C   0  0  0  0  0  0  0  0  0  0  0  0
   59.0840   33.5880   46.1680 C   0  0  0  0  0  0  0  0  0  0  0  0
   59.7460   34.3510   47.1420 O   0  0  0  0  0  0  0  0  0  0  0  0
   61.0290   34.0900   47.6450 C   0  0  0  0  0  0  0  0  0  0  0  0
   62.0540   33.7750   46.7450 C   0  0  0  0  0  0  0  0  0  0  0  0
   63.3500   33.5230   47.2080 C   0  0  0  0  0  0  0  0  0  0  0  0
   63.6320   33.5980   48.5740 C   0  0  0  0  0  0  0  0  0  0  0  0
   62.6210   33.9330   49.4790 C   0  0  0  0  0  0  0  0  0  0  0  0
   61.3240   34.1850   49.0190 C   0  0  0  0  0  0  0  0  0  0  0  0
   59.0090   34.0850   44.8620 C   0  0  0  0  0  0  0  0  0  0  0  0
   58.3700   33.3530   43.8560 C   0  0  0  0  0  0  0  0  0  0  0  0
   57.8070   32.1000   44.1500 C   0  0  0  0  0  0  0  0  0  0  0  0
   55.1520   28.2140   44.8670 H   0  0  0  0  0  0  0  0  0  0  0  0
   55.1751   25.9308   45.6491 H   0  0  0  0  0  0  0  0  0  0  0  0
   56.3115   24.1041   46.9109 H   0  0  0  0  0  0  0  0  0  0  0  0
   58.6143   24.4496   47.8101 H   0  0  0  0  0  0  0  0  0  0  0  0
   59.7895   26.6180   47.4345 H   0  0  0  0  0  0  0  0  0  0  0  0
   58.6611   28.4523   46.1749 H   0  0  0  0  0  0  0  0  0  0  0  0
   58.6130   31.9169   47.4777 H   0  0  0  0  0  0  0  0  0  0  0  0
   61.8392   33.7253   45.6673 H   0  0  0  0  0  0  0  0  0  0  0  0
   64.1476   33.2656   46.4956 H   0  0  0  0  0  0  0  0  0  0  0  0
   64.6498   33.3934   48.9375 H   0  0  0  0  0  0  0  0  0  0  0  0
   62.8453   33.9986   50.5539 H   0  0  0  0  0  0  0  0  0  0  0  0
   60.5324   34.4581   49.7323 H   0  0  0  0  0  0  0  0  0  0  0  0
   59.4571   35.0611   44.6242 H   0  0  0  0  0  0  0  0  0  0  0  0
   58.3083   33.7582   42.8352 H   0  0  0  0  0  0  0  0  0  0  0  0
  1  2  2  0
  2  3  1  0
  3  4  2  0
  4  5  1  0
  5  6  1  0
  6  7  2  0
  7  8  1  0
  8  9  2  0
  9 10  1  0
 10 11  2  0
  4 12  1  0
 12 13  1  0
 13 14  2  0
 14 15  1  0
 15 16  1  0
 16 17  1  0
 17 18  2  0
 18 19  1  0
 19 20  2  0
 20 21  1  0
 21 22  2  0
 15 23  2  0
 23 24  1  0
 24 25  2  0
 25  2  1  0
 11  6  1  0
 25 13  1  0
 22 17  1  0
  5 26  1  0
  7 27  1  0
  8 28  1  0
  9 29  1  0
 10 30  1  0
 11 31  1  0
 14 32  1  0
 18 33  1  0
 19 34  1  0
 20 35  1  0
 21 36  1  0
 22 37  1  0
 23 38  1  0
 24 39  1  0
M  CHG  1  12  -1
M  END
>  <UniqueID>  (32) 
27

>  <SMILES>  (32) 
O=c1nc(Nc2ccccc2)[n-]c2cc(Oc3ccccc3)ccc12

>  <Energy>  (32) 
58.54730000532908

>  <Genealogy>  (32) 
O=c1nc(Nc2ccccc2)[n-]c2cc(Oc3ccccc3)ccc12 (protonated)
O=c1nc(Nc2ccccc2)[n-]c2cc(Oc3ccccc3)ccc12 (3D coordinates assigned)
O=c1nc(Nc2ccccc2)[n-]c2cc(Oc3ccccc3)ccc12 (optimized conformer: 58.54730000532908 kcal/mol)

>  <smiles>  (32) 
O=c1nc(Nc2ccccc2)[nH]c2cc(Oc3ccccc3)ccc12

>  <score_type>  (32) 
oracle

>  <origin>  (32) 
adg

>  <m_score__min__energy>  (32) 
-10.57

>  <m_primary>  (32) 
energy

$$$$
32:0
     RDKit          3D

 39 41  0  0  0  0  0  0  0  0999 V2000
   57.4110   28.9670   43.8930 C   0  0  0  0  0  0  0  0  0  0  0  0
   57.3400   30.2640   44.6290 C   0  0  0  0  0  0  0  0  0  0  0  0
   56.3300   31.1490   44.5000 N   0  0  0  0  0  0  0  0  0  0  0  0
   56.6360   32.1850   45.2280 O   0  0  0  0  0  0  0  0  0  0  0  0
   57.7990   32.0270   45.8170 C   0  0  0  0  0  0  0  0  0  0  0  0
   58.4390   33.0410   46.7060 C   0  0  0  0  0  0  0  0  0  0  0  0
   58.3070   30.7930   45.4630 C   0  0  0  0  0  0  0  0  0  0  0  0
   59.6270   30.1830   45.8410 C   0  0  0  0  0  0  0  0  0  0  0  0
   59.6170   28.7280   45.5820 N   0  0  0  0  0  0  0  0  0  0  0  0
   60.9710   28.2610   45.2230 C   0  0  0  0  0  0  0  0  0  0  0  0
   59.1140   27.9950   46.7630 C   0  0  0  0  0  0  0  0  0  0  0  0
   58.2050   26.8850   46.3370 C   0  0  0  0  0  0  0  0  0  0  0  0
   56.8570   27.0640   46.3400 N   0  0  0  0  0  0  0  0  0  0  0  0
   56.0090   26.0690   45.9740 C   0  0  0  0  0  0  0  0  0  0  0  0
   54.7660   26.2780   45.9900 O   0  0  0  0  0  0  0  0  0  0  0  0
   56.5260   24.8220   45.5840 C   0  0  0  0  0  0  0  0  0  0  0  0
   55.7040   23.7490   45.1960 C   0  0  0  0  0  0  0  0  0  0  0  0
   56.2760   22.5300   44.8190 C   0  0  0  0  0  0  0  0  0  0  0  0
   57.6660   22.3720   44.8280 C   0  0  0  0  0  0  0  0  0  0  0  0
   58.4910   23.4330   45.2130 C   0  0  0  0  0  0  0  0  0  0  0  0
   57.9280   24.6560   45.5900 C   0  0  0  0  0  0  0  0  0  0  0  0
   58.7290   25.6860   45.9650 N   0  0  0  0  0  0  0  0  0  0  0  0
   57.4564   28.1380   44.6146 H   0  0  0  0  0  0  0  0  0  0  0  0
   56.5177   28.8546   43.2611 H   0  0  0  0  0  0  0  0  0  0  0  0
   58.3113   28.9528   43.2611 H   0  0  0  0  0  0  0  0  0  0  0  0
   58.2665   32.7678   47.7575 H   0  0  0  0  0  0  0  0  0  0  0  0
   59.5206   33.0719   46.5078 H   0  0  0  0  0  0  0  0  0  0  0  0
   58.0015   34.0306   46.5078 H   0  0  0  0  0  0  0  0  0  0  0  0
   60.4257   30.6511   45.2469 H   0  0  0  0  0  0  0  0  0  0  0  0
   59.8036   30.3526   46.9134 H   0  0  0  0  0  0  0  0  0  0  0  0
   61.5456   28.0628   46.1398 H   0  0  0  0  0  0  0  0  0  0  0  0
   60.8952   27.3371   44.6309 H   0  0  0  0  0  0  0  0  0  0  0  0
   61.4809   29.0352   44.6309 H   0  0  0  0  0  0  0  0  0  0  0  0
   59.9651   27.5741   47.3185 H   0  0  0  0  0  0  0  0  0  0  0  0
   58.5529   28.6910   47.4039 H   0  0  0  0  0  0  0  0  0  0  0  0
   54.6106   23.8687   45.1891 H   0  0  0  0  0  0  0  0  0  0  0  0
   55.6310   21.6926   44.5144 H   0  0  0  0  0  0  0  0  0  0  0  0
   58.1109   21.4107   44.5314 H   0  0  0  0  0  0  0  0  0  0  0  0
   59.5836   23.3055   45.2193 H   0  0  0  0  0  0  0  0  0  0  0  0
  1  2  1  0
  2  3  2  0
  3  4  1  0
  4  5  1  0
  5  6  1  0
  5  7  2  0
  7  8  1  0
  8  9  1  0
  9 10  1  0
  9 11  1  0
 11 12  1  0
 12 13  2  0
 13 14  1  0
 14 15  2  0
 14 16  1  0
 16 17  2  0
 17 18  1  0
 18 19  2  0
 19 20  1  0
 20 21  2  0
 21 22  1  0
  7  2  1  0
 22 12  1  0
 21 16  1  0
  1 23  1  0
  1 24  1  0
  1 25  1  0
  6 26  1  0
  6 27  1  0
  6 28  1  0
  8 29  1  0
  8 30  1  0
 10 31  1  0
 10 32  1  0
 10 33  1  0
 11 34  1  0
 11 35  1  0
 17 36  1  0
 18 37  1  0
 19 38  1  0
 20 39  1  0
M  CHG  1  22  -1
M  END
>  <UniqueID>  (33) 
28

>  <SMILES>  (33) 
Cc1noc(C)c1CN(C)Cc1nc(=O)c2ccccc2[n-]1

>  <Energy>  (33) 
73.08497882018484

>  <Genealogy>  (33) 
Cc1noc(C)c1CN(C)Cc1nc(=O)c2ccccc2[n-]1 (protonated)
Cc1noc(C)c1CN(C)Cc1nc(=O)c2ccccc2[n-]1 (3D coordinates assigned)
Cc1noc(C)c1CN(C)Cc1nc(=O)c2ccccc2[n-]1 (optimized conformer: 73.08497882018484 kcal/mol)

>  <smiles>  (33) 
Cc1noc(C)c1CN(C)Cc1nc(=O)c2ccccc2[nH]1

>  <score_type>  (33) 
oracle

>  <origin>  (33) 
adg

>  <m_score__min__energy>  (33) 
-9.0700000000000003

>  <m_primary>  (33) 
energy

$$$$
33:0
     RDKit          3D

 47 49  0  0  0  0  0  0  0  0999 V2000
   56.7250   30.4450   43.0360 C   0  0  0  0  0  0  0  0  0  0  0  0
   55.4530   30.0580   43.7840 C   0  0  0  0  0  0  0  0  0  0  0  0
   55.7540   29.1970   44.8820 O   0  0  0  0  0  0  0  0  0  0  0  0
   57.0330   28.7320   45.2320 C   0  0  0  0  0  0  0  0  0  0  0  0
   57.4530   27.5050   44.7050 C   0  0  0  0  0  0  0  0  0  0  0  0
   58.7150   26.9930   45.0160 C   0  0  0  0  0  0  0  0  0  0  0  0
   59.5720   27.7030   45.8580 C   0  0  0  0  0  0  0  0  0  0  0  0
   59.1740   28.9380   46.3950 C   0  0  0  0  0  0  0  0  0  0  0  0
   60.0870   29.6860   47.2830 C   0  0  0  0  0  0  0  0  0  0  0  0
   60.8450   30.7280   46.8730 N   0  0  0  0  0  0  0  0  0  0  0  0
   61.5100   31.0790   47.9900 C   0  0  0  0  0  0  0  0  0  0  0  0
   62.4750   32.2250   48.0750 C   0  0  0  0  0  0  0  0  0  0  0  0
   62.0930   33.3580   47.2060 N   0  0  0  0  0  0  0  0  0  0  0  0
   60.9860   34.2200   47.6930 C   0  0  2  0  0  0  0  0  0  0  0  0
   60.8160   34.1790   49.2250 C   0  0  0  0  0  0  0  0  0  0  0  0
   59.6900   34.0140   46.9170 C   0  0  0  0  0  0  0  0  0  0  0  0
   59.6020   34.4970   45.5980 C   0  0  0  0  0  0  0  0  0  0  0  0
   58.4430   34.2980   44.8420 C   0  0  0  0  0  0  0  0  0  0  0  0
   57.3620   33.6040   45.3890 C   0  0  0  0  0  0  0  0  0  0  0  0
   57.4400   33.1040   46.6900 C   0  0  0  0  0  0  0  0  0  0  0  0
   58.5970   33.3000   47.4500 C   0  0  0  0  0  0  0  0  0  0  0  0
   61.1270   30.2640   49.0310 C   0  0  0  0  0  0  0  0  0  0  0  0
   60.2520   29.4130   48.5600 O   0  0  0  0  0  0  0  0  0  0  0  0
   57.9030   29.4490   46.0780 C   0  0  0  0  0  0  0  0  0  0  0  0
   57.5172   30.6860   43.7601 H   0  0  0  0  0  0  0  0  0  0  0  0
   57.0489   29.6048   42.4043 H   0  0  0  0  0  0  0  0  0  0  0  0
   56.5261   31.3233   42.4043 H   0  0  0  0  0  0  0  0  0  0  0  0
   54.9658   30.9687   44.1626 H   0  0  0  0  0  0  0  0  0  0  0  0
   54.7841   29.5262   43.0914 H   0  0  0  0  0  0  0  0  0  0  0  0
   56.7836   26.9392   44.0404 H   0  0  0  0  0  0  0  0  0  0  0  0
   59.0341   26.0277   44.5961 H   0  0  0  0  0  0  0  0  0  0  0  0
   60.5634   27.2936   46.1021 H   0  0  0  0  0  0  0  0  0  0  0  0
   62.5122   32.5772   49.1164 H   0  0  0  0  0  0  0  0  0  0  0  0
   63.4550   31.8602   47.7337 H   0  0  0  0  0  0  0  0  0  0  0  0
   62.9350   33.9460   47.0000 H   0  0  0  0  0  0  0  0  0  0  0  0
   61.7930   32.9520   46.2880 H   0  0  0  0  0  0  0  0  0  0  0  0
   61.2859   35.2555   47.4745 H   0  0  0  0  0  0  0  0  0  0  0  0
   61.7773   34.4108   49.7069 H   0  0  0  0  0  0  0  0  0  0  0  0
   60.0642   34.9216   49.5305 H   0  0  0  0  0  0  0  0  0  0  0  0
   60.4853   33.1753   49.5305 H   0  0  0  0  0  0  0  0  0  0  0  0
   60.4535   35.0364   45.1576 H   0  0  0  0  0  0  0  0  0  0  0  0
   58.3827   34.6885   43.8154 H   0  0  0  0  0  0  0  0  0  0  0  0
   56.4490   33.4512   44.7948 H   0  0  0  0  0  0  0  0  0  0  0  0
   56.5889   32.5543   47.1184 H   0  0  0  0  0  0  0  0  0  0  0  0
   58.6551   32.8944   48.4708 H   0  0  0  0  0  0  0  0  0  0  0  0
   61.4898   30.3182   50.0680 H   0  0  0  0  0  0  0  0  0  0  0  0
   57.5850   30.4165   46.4937 H   0  0  0  0  0  0  0  0  0  0  0  0
  1  2  1  0
  2  3  1  0
  3  4  1  0
  4  5  2  0
  5  6  1  0
  6  7  2  0
  7  8  1  0
  8  9  1  0
  9 10  2  0
 10 11  1  0
 11 12  1  0
 12 13  1  0
 13 14  1  0
 14 15  1  0
 14 16  1  0
 16 17  2  0
 17 18  1  0
 18 19  2  0
 19 20  1  0
 20 21  2  0
 11 22  2  0
 22 23  1  0
  8 24  2  0
 24  4  1  0
 23  9  1  0
 21 16  1  0
  1 25  1  0
  1 26  1  0
  1 27  1  0
  2 28  1  0
  2 29  1  0
  5 30  1  0
  6 31  1  0
  7 32  1  0
 12 33  1  0
 12 34  1  0
 13 35  1  0
 13 36  1  0
 14 37  1  1
 15 38  1  0
 15 39  1  0
 15 40  1  0
 17 41  1  0
 18 42  1  0
 19 43  1  0
 20 44  1  0
 21 45  1  0
 22 46  1  0
 24 47  1  0
M  CHG  1  13   1
M  END
>  <UniqueID>  (34) 
29

>  <SMILES>  (34) 
CCOc1cccc(-c2nc(C[NH2+][C@H](C)c3ccccc3)co2)c1

>  <Energy>  (34) 
80.92832259673682

>  <Genealogy>  (34) 
CCOc1cccc(-c2nc(C[NH2+]C(C)c3ccccc3)co2)c1 (protonated)
CCOc1cccc(-c2nc(C[NH2+][C@H](C)c3ccccc3)co2)c1 (chirality)
CCOc1cccc(-c2nc(C[NH2+][C@H](C)c3ccccc3)co2)c1 (3D coordinates assigned)
CCOc1cccc(-c2nc(C[NH2+][C@H](C)c3ccccc3)co2)c1 (optimized conformer: 80.92832259673682 kcal/mol)

>  <smiles>  (34) 
CCOc1cccc(-c2nc(CNC(C)c3ccccc3)co2)c1

>  <score_type>  (34) 
oracle

>  <origin>  (34) 
adg

>  <m_score__min__energy>  (34) 
-6.0199999999999996

>  <m_primary>  (34) 
energy

$$$$
34:0
     RDKit          3D

 38 40  0  0  1  0  0  0  0  0999 V2000
   54.9690   26.0870   45.9090 O   0  0  0  0  0  0  0  0  0  0  0  0
   56.2950   26.3680   46.2360 N   0  0  0  0  0  0  0  0  0  0  0  0
   56.8210   27.5140   45.9690 C   0  0  0  0  0  0  0  0  0  0  0  0
   56.0350   28.4080   45.2530 O   0  0  0  0  0  0  0  0  0  0  0  0
   58.1840   27.8510   46.4050 C   0  0  0  0  0  0  0  0  0  0  0  0
   58.4830   29.0410   46.8430 C   0  0  0  0  0  0  0  0  0  0  0  0
   58.5340   30.2910   46.1520 C   0  0  0  0  0  0  0  0  0  0  0  0
   59.0980   31.4440   46.7300 C   0  0  0  0  0  0  0  0  0  0  0  0
   59.0150   32.4680   45.8700 N   0  0  0  0  0  0  0  0  0  0  0  0
   59.4940   33.8060   46.1180 C   0  0  0  0  0  0  0  0  0  0  0  0
   60.6510   33.8510   47.0210 C   0  0  0  0  0  0  0  0  0  0  0  0
   60.4300   34.1680   48.3440 C   0  0  0  0  0  0  0  0  0  0  0  0
   61.4340   34.2420   49.2860 C   0  0  0  0  0  0  0  0  0  0  0  0
   62.7310   33.9820   48.8680 C   0  0  0  0  0  0  0  0  0  0  0  0
   63.0030   33.6580   47.5430 C   0  0  0  0  0  0  0  0  0  0  0  0
   64.2750   33.4000   47.1180 F   0  0  0  0  0  0  0  0  0  0  0  0
   61.9530   33.6000   46.6470 C   0  0  0  0  0  0  0  0  0  0  0  0
   58.4250   32.0710   44.7410 C   0  0  0  0  0  0  0  0  0  0  0  0
   58.1230   32.7580   43.5870 C   0  0  0  0  0  0  0  0  0  0  0  0
   57.5010   32.1100   42.5450 C   0  0  0  0  0  0  0  0  0  0  0  0
   57.2080   30.7760   42.7220 C   0  0  0  0  0  0  0  0  0  0  0  0
   57.5110   30.0980   43.8730 C   0  0  0  0  0  0  0  0  0  0  0  0
   58.1270   30.7200   44.9160 C   0  0  0  0  0  0  0  0  0  0  0  0
   54.3670   26.7190   45.4380 H   0  0  0  0  0  0  0  0  0  0  0  0
   55.1170   28.1350   44.8740 H   0  0  0  0  0  0  0  0  0  0  0  0
   58.9687   27.0814   46.3604 H   0  0  0  0  0  0  0  0  0  0  0  0
   58.7359   29.0916   47.9123 H   0  0  0  0  0  0  0  0  0  0  0  0
   59.5401   31.4964   47.7359 H   0  0  0  0  0  0  0  0  0  0  0  0
   59.7833   34.2569   45.1573 H   0  0  0  0  0  0  0  0  0  0  0  0
   58.6780   34.3587   46.6065 H   0  0  0  0  0  0  0  0  0  0  0  0
   59.3981   34.3728   48.6653 H   0  0  0  0  0  0  0  0  0  0  0  0
   61.2142   34.4984   50.3329 H   0  0  0  0  0  0  0  0  0  0  0  0
   63.5555   34.0328   49.5943 H   0  0  0  0  0  0  0  0  0  0  0  0
   62.1640   33.3444   45.5981 H   0  0  0  0  0  0  0  0  0  0  0  0
   58.3788   33.8241   43.4981 H   0  0  0  0  0  0  0  0  0  0  0  0
   57.2488   32.6343   41.6115 H   0  0  0  0  0  0  0  0  0  0  0  0
   56.7101   30.2326   41.9054 H   0  0  0  0  0  0  0  0  0  0  0  0
   57.2521   29.0321   43.9562 H   0  0  0  0  0  0  0  0  0  0  0  0
  1  2  1  0
  2  3  2  0
  3  4  1  0
  3  5  1  0
  5  6  2  0
  6  7  1  0
  7  8  2  0
  8  9  1  0
  9 10  1  0
 10 11  1  0
 11 12  2  0
 12 13  1  0
 13 14  2  0
 14 15  1  0
 15 16  1  0
 15 17  2  0
  9 18  1  0
 18 19  2  0
 19 20  1  0
 20 21  2  0
 21 22  1  0
 22 23  2  0
 23  7  1  0
 17 11  1  0
 23 18  1  0
  1 24  1  0
  4 25  1  0
  5 26  1  0
  6 27  1  0
  8 28  1  0
 10 29  1  0
 10 30  1  0
 12 31  1  0
 13 32  1  0
 14 33  1  0
 17 34  1  0
 19 35  1  0
 20 36  1  0
 21 37  1  0
 22 38  1  0
M  END
>  <smiles>  (35) 
ON=C(O)C=Cc1cn(Cc2cccc(F)c2)c2ccccc12

>  <score_type>  (35) 
oracle

>  <origin>  (35) 
adg

>  <m_score__min__energy>  (35) 
-9.5600000000000005

>  <m_primary>  (35) 
energy

$$$$
35:0
     RDKit          3D

 49 52  0  0  0  0  0  0  0  0999 V2000
   65.0928   34.0021   50.4081 H   0  0  0  0  0  0  0  0  0  0  0  0
   64.1650   33.8230   49.8450 C   0  0  0  0  0  0  0  0  0  0  0  0
   64.2240   33.2970   48.5520 C   0  0  0  0  0  0  0  0  0  0  0  0
   65.1981   33.0588   48.0999 H   0  0  0  0  0  0  0  0  0  0  0  0
   63.0470   33.0730   47.8320 C   0  0  0  0  0  0  0  0  0  0  0  0
   63.0968   32.6527   46.8167 H   0  0  0  0  0  0  0  0  0  0  0  0
   61.8010   33.3830   48.4010 C   0  0  0  0  0  0  0  0  0  0  0  0
   60.5590   33.1290   47.6370 C   0  0  0  0  0  0  0  0  0  0  0  0
   59.7630   34.2300   47.2870 C   0  0  0  0  0  0  0  0  0  0  0  0
   60.0596   35.2397   47.6071 H   0  0  0  0  0  0  0  0  0  0  0  0
   58.6020   34.0580   46.5390 C   0  0  0  0  0  0  0  0  0  0  0  0
   57.9901   34.9314   46.2693 H   0  0  0  0  0  0  0  0  0  0  0  0
   58.2110   32.7840   46.1300 C   0  0  0  0  0  0  0  0  0  0  0  0
   57.2977   32.6607   45.5294 H   0  0  0  0  0  0  0  0  0  0  0  0
   58.9750   31.6530   46.4790 C   0  0  0  0  0  0  0  0  0  0  0  0
   58.5900   30.3500   46.0770 C   0  0  0  0  0  0  0  0  0  0  0  0
   57.5080   30.1920   45.3610 N   0  0  0  0  0  0  0  0  0  0  0  0
   56.6460   29.0470   45.3230 C   0  0  0  0  0  0  0  0  0  0  0  0
   55.4290   29.2110   45.0440 O   0  0  0  0  0  0  0  0  0  0  0  0
   57.1840   27.7230   45.4730 N   0  0  0  0  0  0  0  0  0  0  0  0
   58.2230   27.6140   45.4710 H   0  0  0  0  0  0  0  0  0  0  0  0
   56.3700   26.5510   45.6460 C   0  0  0  0  0  0  0  0  0  0  0  0
   55.1450   26.6690   45.9230 O   0  0  0  0  0  0  0  0  0  0  0  0
   56.9670   25.1990   45.5470 C   0  0  0  0  0  0  0  0  0  0  0  0
   56.1410   24.0900   45.2770 C   0  0  0  0  0  0  0  0  0  0  0  0
   54.8010   24.2430   45.1230 F   0  0  0  0  0  0  0  0  0  0  0  0
   56.6860   22.8070   45.1930 C   0  0  0  0  0  0  0  0  0  0  0  0
   56.0331   21.9463   44.9857 H   0  0  0  0  0  0  0  0  0  0  0  0
   58.0540   22.6140   45.3710 C   0  0  0  0  0  0  0  0  0  0  0  0
   58.4775   21.6005   45.3113 H   0  0  0  0  0  0  0  0  0  0  0  0
   58.8890   23.7040   45.6250 C   0  0  0  0  0  0  0  0  0  0  0  0
   59.9686   23.5442   45.7629 H   0  0  0  0  0  0  0  0  0  0  0  0
   58.3590   25.0070   45.7060 C   0  0  0  0  0  0  0  0  0  0  0  0
   59.1860   26.1230   45.9180 O   0  0  0  0  0  0  0  0  0  0  0  0
   60.5210   26.0610   46.4080 C   0  0  0  0  0  0  0  0  0  0  0  0
   60.5083   26.0616   47.5079 H   0  0  0  0  0  0  0  0  0  0  0  0
   61.0015   25.1396   46.0474 H   0  0  0  0  0  0  0  0  0  0  0  0
   61.0849   26.9339   46.0474 H   0  0  0  0  0  0  0  0  0  0  0  0
   59.3370   29.2750   46.4810 N   0  0  0  0  0  0  0  0  0  0  0  0
   59.0430   28.2970   46.2670 H   0  0  0  0  0  0  0  0  0  0  0  0
   60.4610   29.4220   47.2290 C   0  0  0  0  0  0  0  0  0  0  0  0
   61.0368   28.5336   47.5277 H   0  0  0  0  0  0  0  0  0  0  0  0
   60.8910   30.6860   47.6210 C   0  0  0  0  0  0  0  0  0  0  0  0
   61.8049   30.7938   48.2237 H   0  0  0  0  0  0  0  0  0  0  0  0
   60.1580   31.8240   47.2470 C   0  0  0  0  0  0  0  0  0  0  0  0
   61.7470   33.9000   49.7080 C   0  0  0  0  0  0  0  0  0  0  0  0
   60.5530   34.1790   50.2900 F   0  0  0  0  0  0  0  0  0  0  0  0
   62.9280   34.1220   50.4240 C   0  0  0  0  0  0  0  0  0  0  0  0
   62.8834   34.5323   51.4437 H   0  0  0  0  0  0  0  0  0  0  0  0
  1  2  1  0
  2  3  2  0
  3  4  1  0
  3  5  1  0
  5  6  1  0
  5  7  2  0
  7  8  1  0
  8  9  2  0
  9 10  1  0
  9 11  1  0
 11 12  1  0
 11 13  2  0
 13 14  1  0
 13 15  1  0
 15 16  1  0
 16 17  2  0
 17 18  1  0
 18 19  2  0
 18 20  1  0
 20 21  1  0
 20 22  1  0
 22 23  2  0
 22 24  1  0
 24 25  2  0
 25 26  1  0
 25 27  1  0
 27 28  1  0
 27 29  2  0
 29 30  1  0
 29 31  1  0
 31 32  1  0
 31 33  2  0
 33 34  1  0
 34 35  1  0
 35 36  1  0
 35 37  1  0
 35 38  1  0
 16 39  1  0
 39 40  1  0
 39 41  1  0
 41 42  1  0
 41 43  2  0
 43 44  1  0
 43 45  1  0
  7 46  1  0
 46 47  1  0
 46 48  2  0
 48 49  1  0
 48  2  1  0
 45  8  1  0
 45 15  2  0
 33 24  1  0
M  END
>  <UniqueID>  (36) 
30

>  <SMILES>  (36) 
COc1cccc(F)c1C(=O)NC(=O)/N=c1\[nH]ccc2c(-c3ccccc3F)cccc12

>  <Energy>  (36) 
80.68943606664293

>  <Genealogy>  (36) 
COc1cccc(F)c1C(=O)NC(=O)/N=c1\[nH]ccc2c(-c3ccccc3F)cccc12 (cis-trans isomerization)
COc1cccc(F)c1C(=O)NC(=O)/N=c1\[nH]ccc2c(-c3ccccc3F)cccc12 (3D coordinates assigned)
COc1cccc(F)c1C(=O)NC(=O)/N=c1\[nH]ccc2c(-c3ccccc3F)cccc12 (optimized conformer: 80.68943606664293 kcal/mol)

>  <smiles>  (36) 
COc1cccc(F)c1C(=O)NC(=O)N=c1[nH]ccc2c(-c3ccccc3F)cccc12

>  <score_type>  (36) 
oracle

>  <origin>  (36) 
adg

>  <m_score__min__energy>  (36) 
-8.9600000000000009

>  <m_primary>  (36) 
energy

$$$$
36:0
     RDKit          3D

 37 39  0  0  0  0  0  0  0  0999 V2000
   59.9770   30.4990   48.2920 H   0  0  0  0  0  0  0  0  0  0  0  0
   59.8570   30.0550   47.3550 N   0  0  0  0  0  0  0  0  0  0  0  0
   58.8630   30.3230   46.5630 C   0  0  0  0  0  0  0  0  0  0  0  0
   58.6870   31.6220   46.0170 C   0  0  0  0  0  0  0  0  0  0  0  0
   59.5740   32.6770   46.3050 C   0  0  0  0  0  0  0  0  0  0  0  0
   60.4333   32.5036   46.9694 H   0  0  0  0  0  0  0  0  0  0  0  0
   59.3680   33.9430   45.7510 C   0  0  0  0  0  0  0  0  0  0  0  0
   60.0664   34.7608   45.9820 H   0  0  0  0  0  0  0  0  0  0  0  0
   58.2800   34.1770   44.9050 C   0  0  0  0  0  0  0  0  0  0  0  0
   58.1265   35.1770   44.4733 H   0  0  0  0  0  0  0  0  0  0  0  0
   57.3870   33.1450   44.6060 C   0  0  0  0  0  0  0  0  0  0  0  0
   56.5325   33.3358   43.9401 H   0  0  0  0  0  0  0  0  0  0  0  0
   57.5750   31.8700   45.1500 C   0  0  0  0  0  0  0  0  0  0  0  0
   56.6930   30.8720   44.8490 N   0  0  0  0  0  0  0  0  0  0  0  0
   56.8780   29.6380   45.3780 C   0  0  0  0  0  0  0  0  0  0  0  0
   57.9210   29.3460   46.2120 C   0  0  0  0  0  0  0  0  0  0  0  0
   57.7960   28.0130   46.5570 C   0  0  0  0  0  0  0  0  0  0  0  0
   58.4556   27.4279   47.2148 H   0  0  0  0  0  0  0  0  0  0  0  0
   56.6530   27.5700   45.8910 C   0  0  0  0  0  0  0  0  0  0  0  0
   56.1110   26.2060   45.9540 C   0  0  0  0  0  0  0  0  0  0  0  0
   56.8570   25.2500   46.2960 O   0  0  0  0  0  0  0  0  0  0  0  0
   54.7360   25.9700   45.6310 N   0  0  0  0  0  0  0  0  0  0  0  0
   54.0800   24.6750   45.7750 C   0  0  0  0  0  0  0  0  0  0  0  0
   54.3112   24.2645   46.7690 H   0  0  0  0  0  0  0  0  0  0  0  0
   52.9959   24.8192   45.6569 H   0  0  0  0  0  0  0  0  0  0  0  0
   54.5580   23.6870   44.7020 C   0  0  0  0  0  0  0  0  0  0  0  0
   54.4926   22.6645   45.1022 H   0  0  0  0  0  0  0  0  0  0  0  0
   53.9163   23.8007   43.8158 H   0  0  0  0  0  0  0  0  0  0  0  0
   55.9490   23.9580   44.3050 N   0  0  0  0  0  0  0  0  0  0  0  0
   56.6070   23.5540   45.0110 H   0  0  0  0  0  0  0  0  0  0  0  0
   56.1030   24.9920   44.2400 H   0  0  0  0  0  0  0  0  0  0  0  0
   56.2420   23.3570   43.0010 C   0  0  0  0  0  0  0  0  0  0  0  0
   56.7197   22.3771   43.1479 H   0  0  0  0  0  0  0  0  0  0  0  0
   55.3058   23.2278   42.4381 H   0  0  0  0  0  0  0  0  0  0  0  0
   56.9204   24.0150   42.4381 H   0  0  0  0  0  0  0  0  0  0  0  0
   56.0940   28.5710   45.1700 N   0  0  0  0  0  0  0  0  0  0  0  0
   55.2340   28.5270   44.5770 H   0  0  0  0  0  0  0  0  0  0  0  0
  1  2  1  0
  2  3  2  0
  3  4  1  0
  4  5  2  0
  5  6  1  0
  5  7  1  0
  7  8  1  0
  7  9  2  0
  9 10  1  0
  9 11  1  0
 11 12  1  0
 11 13  2  0
 13 14  1  0
 14 15  1  0
 15 16  2  0
 16 17  1  0
 17 18  1  0
 17 19  2  0
 19 20  1  0
 20 21  2  0
 20 22  1  0
 22 23  1  0
 23 24  1  0
 23 25  1  0
 23 26  1  0
 26 27  1  0
 26 28  1  0
 26 29  1  0
 29 30  1  0
 29 31  1  0
 29 32  1  0
 32 33  1  0
 32 34  1  0
 32 35  1  0
 19 36  1  0
 36 37  1  0
 16  3  1  0
 13  4  1  0
 36 15  1  0
M  CHG  3  14  -1  22  -1  29   1
M  END
>  <UniqueID>  (37) 
31

>  <SMILES>  (37) 
[H]/N=c1/c2ccccc2[n-]c2[nH]c(C(=O)[N-]CC[NH2+]C)cc12

>  <Energy>  (37) 
72.00273559429472

>  <Genealogy>  (37) 
C[NH2+]CC[N-]C(=O)c1cc2c(=N)c3ccccc3[n-]c2[nH]1 (protonated)
[H]/N=c1/c2ccccc2[n-]c2[nH]c(C(=O)[N-]CC[NH2+]C)cc12 (cis-trans isomerization)
[H]/N=c1/c2ccccc2[n-]c2[nH]c(C(=O)[N-]CC[NH2+]C)cc12 (3D coordinates assigned)
[H]/N=c1/c2ccccc2[n-]c2[nH]c(C(=O)[N-]CC[NH2+]C)cc12 (optimized conformer: 72.00273559429472 kcal/mol)

>  <smiles>  (37) 
CNCCNC(=O)c1cc2c(=N)c3ccccc3[nH]c2[nH]1

>  <score_type>  (37) 
oracle

>  <origin>  (37) 
adg

>  <m_score__min__energy>  (37) 
-9.0099999999999998

>  <m_primary>  (37) 
energy

$$$$
37:0
     RDKit          3D

 53 55  0  0  0  0  0  0  0  0999 V2000
   60.7590   26.4690   46.3840 C   0  0  0  0  0  0  0  0  0  0  0  0
   60.1820   27.6270   46.7560 C   0  0  0  0  0  0  0  0  0  0  0  0
   60.3790   28.0670   48.1850 C   0  0  0  0  0  0  0  0  0  0  0  0
   59.3570   28.5180   45.8070 C   0  0  1  0  0  0  0  0  0  0  0  0
   59.5070   28.1930   44.2960 C   0  0  0  0  0  0  0  0  0  0  0  0
   58.4700   27.1830   43.7630 C   0  0  0  0  0  0  0  0  0  0  0  0
   57.7420   26.4010   44.8620 C   0  0  0  0  0  0  0  0  0  0  0  0
   57.2120   27.2740   46.0230 C   0  0  0  0  0  0  0  0  0  0  0  0
   57.9240   28.5700   46.2120 N   0  0  2  0  0  0  0  0  0  0  0  0
   57.2340   29.6760   45.5610 C   0  0  0  0  0  0  0  0  0  0  0  0
   56.1820   29.4740   44.8950 O   0  0  0  0  0  0  0  0  0  0  0  0
   57.7490   31.0590   45.6260 C   0  0  0  0  0  0  0  0  0  0  0  0
   59.0030   31.4630   46.0470 C   0  0  0  0  0  0  0  0  0  0  0  0
   59.0100   32.8380   45.9220 C   0  0  0  0  0  0  0  0  0  0  0  0
   60.1350   33.7590   46.1800 C   0  0  0  0  0  0  0  0  0  0  0  0
   60.0610   34.9430   45.7530 O   0  0  0  0  0  0  0  0  0  0  0  0
   61.3190   33.3360   46.8820 N   0  0  0  0  0  0  0  0  0  0  0  0
   62.6210   33.8790   46.4800 C   0  0  0  0  0  0  0  0  0  0  0  0
   63.7550   33.1690   47.2240 C   0  0  0  0  0  0  0  0  0  0  0  0
   63.5620   33.2440   48.6890 N   0  0  0  0  0  0  0  0  0  0  0  0
   64.5460   32.3910   49.3740 C   0  0  0  0  0  0  0  0  0  0  0  0
   62.1760   32.9540   49.1530 C   0  0  0  0  0  0  0  0  0  0  0  0
   61.2450   32.4430   48.0450 C   0  0  0  0  0  0  0  0  0  0  0  0
   57.7710   33.1880   45.4210 C   0  0  0  0  0  0  0  0  0  0  0  0
   57.0430   32.1070   45.2610 O   0  0  0  0  0  0  0  0  0  0  0  0
   60.6452   26.1043   45.3525 H   0  0  0  0  0  0  0  0  0  0  0  0
   61.3443   25.8875   47.1115 H   0  0  0  0  0  0  0  0  0  0  0  0
   60.0253   27.2771   48.8639 H   0  0  0  0  0  0  0  0  0  0  0  0
   61.4474   28.2554   48.3667 H   0  0  0  0  0  0  0  0  0  0  0  0
   59.8079   28.9894   48.3667 H   0  0  0  0  0  0  0  0  0  0  0  0
   59.7962   29.5201   45.9208 H   0  0  0  0  0  0  0  0  0  0  0  0
   59.4002   29.1295   43.7290 H   0  0  0  0  0  0  0  0  0  0  0  0
   60.4962   27.7293   44.1680 H   0  0  0  0  0  0  0  0  0  0  0  0
   57.7206   27.7337   43.1755 H   0  0  0  0  0  0  0  0  0  0  0  0
   59.0221   26.4470   43.1601 H   0  0  0  0  0  0  0  0  0  0  0  0
   56.8875   25.8803   44.4052 H   0  0  0  0  0  0  0  0  0  0  0  0
   58.4802   25.7123   45.2988 H   0  0  0  0  0  0  0  0  0  0  0  0
   56.1514   27.4923   45.8293 H   0  0  0  0  0  0  0  0  0  0  0  0
   57.3774   26.6950   46.9436 H   0  0  0  0  0  0  0  0  0  0  0  0
   57.8810   28.7680   47.2400 H   0  0  0  0  0  0  0  0  0  0  0  0
   59.8226   30.8232   46.4060 H   0  0  0  0  0  0  0  0  0  0  0  0
   62.7536   33.7356   45.3975 H   0  0  0  0  0  0  0  0  0  0  0  0
   62.6502   34.9501   46.7289 H   0  0  0  0  0  0  0  0  0  0  0  0
   63.7784   32.1125   46.9186 H   0  0  0  0  0  0  0  0  0  0  0  0
   64.7030   33.6665   46.9713 H   0  0  0  0  0  0  0  0  0  0  0  0
   64.4264   32.4947   50.4626 H   0  0  0  0  0  0  0  0  0  0  0  0
   64.3853   31.3417   49.0858 H   0  0  0  0  0  0  0  0  0  0  0  0
   65.5619   32.6990   49.0858 H   0  0  0  0  0  0  0  0  0  0  0  0
   62.2275   32.1896   49.9424 H   0  0  0  0  0  0  0  0  0  0  0  0
   61.7538   33.9038   49.5129 H   0  0  0  0  0  0  0  0  0  0  0  0
   61.5531   31.4298   47.7476 H   0  0  0  0  0  0  0  0  0  0  0  0
   60.2114   32.4209   48.4207 H   0  0  0  0  0  0  0  0  0  0  0  0
   57.4449   34.2132   45.1917 H   0  0  0  0  0  0  0  0  0  0  0  0
  1  2  2  0
  2  3  1  0
  2  4  1  0
  4  5  1  0
  5  6  1  0
  6  7  1  0
  7  8  1  0
  8  9  1  0
  9 10  1  0
 10 11  2  0
 10 12  1  0
 12 13  2  0
 13 14  1  0
 14 15  1  0
 15 16  2  0
 15 17  1  0
 17 18  1  0
 18 19  1  0
 19 20  1  0
 20 21  1  0
 20 22  1  0
 22 23  1  0
 14 24  2  0
 24 25  1  0
  9  4  1  0
 25 12  1  0
 23 17  1  0
  1 26  1  0
  1 27  1  0
  3 28  1  0
  3 29  1  0
  3 30  1  0
  4 31  1  6
  5 32  1  0
  5 33  1  0
  6 34  1  0
  6 35  1  0
  7 36  1  0
  7 37  1  0
  8 38  1  0
  8 39  1  0
  9 40  1  1
 13 41  1  0
 18 42  1  0
 18 43  1  0
 19 44  1  0
 19 45  1  0
 21 46  1  0
 21 47  1  0
 21 48  1  0
 22 49  1  0
 22 50  1  0
 23 51  1  0
 23 52  1  0
 24 53  1  0
M  CHG  1   9   1
M  END
>  <UniqueID>  (38) 
32

>  <SMILES>  (38) 
C=C(C)[C@H]1CCCC[N@@H+]1C(=O)c1cc(C(=O)N2CCN(C)CC2)co1

>  <Energy>  (38) 
102.7313562271174

>  <Genealogy>  (38) 
C=C(C)C1CCCC[NH+]1C(=O)c1cc(C(=O)N2CCN(C)CC2)co1 (protonated)
C=C(C)[C@H]1CCCC[N@@H+]1C(=O)c1cc(C(=O)N2CCN(C)CC2)co1 (chirality)
C=C(C)[C@H]1CCCC[N@@H+]1C(=O)c1cc(C(=O)N2CCN(C)CC2)co1 (3D coordinates assigned)
C=C(C)[C@H]1CCCC[N@@H+]1C(=O)c1cc(C(=O)N2CCN(C)CC2)co1 (nonaromatic ring conformer: 102.7313562271174 kcal/mol)

>  <smiles>  (38) 
C=C(C)C1CCCCN1C(=O)c1cc(C(=O)N2CCN(C)CC2)co1

>  <score_type>  (38) 
oracle

>  <origin>  (38) 
adg

>  <m_score__min__energy>  (38) 
-6.8300000000000001

>  <m_primary>  (38) 
energy

$$$$
38:0
     RDKit          3D

 46 49  0  0  0  0  0  0  0  0999 V2000
   58.7520   34.5730   47.3760 C   0  0  0  0  0  0  0  0  0  0  0  0
   58.4380   33.8550   46.0980 C   0  0  0  0  0  0  0  0  0  0  0  0
   59.1240   34.1760   44.9170 C   0  0  0  0  0  0  0  0  0  0  0  0
   58.8630   33.4700   43.7400 C   0  0  0  0  0  0  0  0  0  0  0  0
   57.9180   32.4430   43.7320 C   0  0  0  0  0  0  0  0  0  0  0  0
   57.2170   32.1160   44.8990 C   0  0  0  0  0  0  0  0  0  0  0  0
   56.2510   31.0560   44.8550 N   0  0  0  0  0  0  0  0  0  0  0  0
   56.5000   29.6680   45.1180 C   0  0  0  0  0  0  0  0  0  0  0  0
   55.5870   28.8330   44.8860 O   0  0  0  0  0  0  0  0  0  0  0  0
   57.7960   29.1870   45.6560 C   0  0  0  0  0  0  0  0  0  0  0  0
   58.6690   30.1340   46.2120 C   0  0  0  0  0  0  0  0  0  0  0  0
   59.8650   29.7210   46.8200 C   0  0  0  0  0  0  0  0  0  0  0  0
   60.7940   30.6960   47.4430 C   0  0  0  0  0  0  0  0  0  0  0  0
   60.9810   31.9550   46.8520 C   0  0  0  0  0  0  0  0  0  0  0  0
   61.8560   32.8710   47.4340 C   0  0  0  0  0  0  0  0  0  0  0  0
   62.5690   32.5270   48.5910 C   0  0  0  0  0  0  0  0  0  0  0  0
   63.4800   33.5250   49.2600 C   0  0  0  0  0  0  0  0  0  0  0  0
   64.7390   33.4430   48.6960 F   0  0  0  0  0  0  0  0  0  0  0  0
   63.5760   33.2650   50.6170 F   0  0  0  0  0  0  0  0  0  0  0  0
   62.9950   34.8120   49.0990 F   0  0  0  0  0  0  0  0  0  0  0  0
   62.3470   31.2640   49.1610 C   0  0  0  0  0  0  0  0  0  0  0  0
   61.4880   30.3830   48.5790 N   0  0  0  0  0  0  0  0  0  0  0  0
   60.1810   28.3990   46.8350 N   0  0  0  0  0  0  0  0  0  0  0  0
   59.3820   27.4500   46.2830 C   0  0  0  0  0  0  0  0  0  0  0  0
   59.7730   26.1080   46.3260 C   0  0  0  0  0  0  0  0  0  0  0  0
   58.9750   25.1250   45.7390 C   0  0  0  0  0  0  0  0  0  0  0  0
   57.7890   25.4790   45.0960 C   0  0  0  0  0  0  0  0  0  0  0  0
   57.3860   26.8170   45.0470 C   0  0  0  0  0  0  0  0  0  0  0  0
   58.1640   27.8200   45.6610 C   0  0  0  0  0  0  0  0  0  0  0  0
   57.5060   32.8050   46.0910 C   0  0  0  0  0  0  0  0  0  0  0  0
   58.4745   33.9386   48.2307 H   0  0  0  0  0  0  0  0  0  0  0  0
   59.8288   34.7938   47.4175 H   0  0  0  0  0  0  0  0  0  0  0  0
   58.1830   35.5135   47.4175 H   0  0  0  0  0  0  0  0  0  0  0  0
   59.8690   34.9853   44.9178 H   0  0  0  0  0  0  0  0  0  0  0  0
   59.4040   33.7244   42.8167 H   0  0  0  0  0  0  0  0  0  0  0  0
   57.7227   31.8871   42.8031 H   0  0  0  0  0  0  0  0  0  0  0  0
   58.4155   31.2036   46.1714 H   0  0  0  0  0  0  0  0  0  0  0  0
   60.4386   32.2184   45.9320 H   0  0  0  0  0  0  0  0  0  0  0  0
   61.9873   33.8662   46.9843 H   0  0  0  0  0  0  0  0  0  0  0  0
   62.8717   30.9835   50.0862 H   0  0  0  0  0  0  0  0  0  0  0  0
   61.3910   29.4410   49.0170 H   0  0  0  0  0  0  0  0  0  0  0  0
   60.7125   25.8263   46.8241 H   0  0  0  0  0  0  0  0  0  0  0  0
   59.2818   24.0696   45.7835 H   0  0  0  0  0  0  0  0  0  0  0  0
   57.1681   24.7024   44.6255 H   0  0  0  0  0  0  0  0  0  0  0  0
   56.4561   27.0889   44.5261 H   0  0  0  0  0  0  0  0  0  0  0  0
   56.9983   32.5191   47.0240 H   0  0  0  0  0  0  0  0  0  0  0  0
  1  2  1  0
  2  3  2  0
  3  4  1  0
  4  5  2  0
  5  6  1  0
  6  7  1  0
  7  8  1  0
  8  9  2  0
  8 10  1  0
 10 11  2  0
 11 12  1  0
 12 13  1  0
 13 14  2  0
 14 15  1  0
 15 16  2  0
 16 17  1  0
 17 18  1  0
 17 19  1  0
 17 20  1  0
 16 21  1  0
 21 22  2  0
 12 23  2  0
 23 24  1  0
 24 25  2  0
 25 26  1  0
 26 27  2  0
 27 28  1  0
 28 29  2  0
  6 30  2  0
 30  2  1  0
 29 10  1  0
 22 13  1  0
 29 24  1  0
  1 31  1  0
  1 32  1  0
  1 33  1  0
  3 34  1  0
  4 35  1  0
  5 36  1  0
 11 37  1  0
 14 38  1  0
 15 39  1  0
 21 40  1  0
 22 41  1  0
 25 42  1  0
 26 43  1  0
 27 44  1  0
 28 45  1  0
 30 46  1  0
M  CHG  2   7  -1  22   1
M  END
>  <UniqueID>  (39) 
33

>  <SMILES>  (39) 
Cc1cccc([N-]C(=O)c2cc(-c3ccc(C(F)(F)F)c[nH+]3)nc3ccccc23)c1

>  <Energy>  (39) 
67.04699477764737

>  <Genealogy>  (39) 
Cc1cccc([N-]C(=O)c2cc(-c3ccc(C(F)(F)F)c[nH+]3)nc3ccccc23)c1 (protonated)
Cc1cccc([N-]C(=O)c2cc(-c3ccc(C(F)(F)F)c[nH+]3)nc3ccccc23)c1 (3D coordinates assigned)
Cc1cccc([N-]C(=O)c2cc(-c3ccc(C(F)(F)F)c[nH+]3)nc3ccccc23)c1 (optimized conformer: 67.04699477764737 kcal/mol)

>  <smiles>  (39) 
Cc1cccc(NC(=O)c2cc(-c3ccc(C(F)(F)F)cn3)nc3ccccc23)c1

>  <score_type>  (39) 
oracle

>  <origin>  (39) 
adg

>  <m_score__min__energy>  (39) 
-8.75

>  <m_primary>  (39) 
energy

$$$$
39:0
     RDKit          3D

 57 60  0  0  0  0  0  0  0  0999 V2000
   57.7570   32.1330   51.0200 C   0  0  0  0  0  0  0  0  0  0  0  0
   58.6520   32.6410   49.9390 C   0  0  0  0  0  0  0  0  0  0  0  0
   59.8630   33.1670   50.2530 N   0  0  0  0  0  0  0  0  0  0  0  0
   60.7140   33.5910   49.2800 C   0  0  0  0  0  0  0  0  0  0  0  0
   62.3250   34.2350   49.7470 S   0  0  0  0  0  0  0  0  0  0  0  0
   63.3230   32.6950   49.5550 C   0  0  2  0  0  0  0  0  0  0  0  0
   64.7690   33.0490   49.2070 C   0  0  0  0  0  0  0  0  0  0  0  0
   62.7120   31.6880   48.6010 C   0  0  0  0  0  0  0  0  0  0  0  0
   63.4000   31.3030   47.6140 O   0  0  0  0  0  0  0  0  0  0  0  0
   61.4350   31.0820   48.8720 N   0  0  0  0  0  0  0  0  0  0  0  0
   60.7850   30.1210   48.0240 C   0  0  0  0  0  0  0  0  0  0  0  0
   61.0630   30.0450   46.6480 C   0  0  0  0  0  0  0  0  0  0  0  0
   60.3690   29.1390   45.8380 C   0  0  0  0  0  0  0  0  0  0  0  0
   59.3710   28.3070   46.3820 C   0  0  0  0  0  0  0  0  0  0  0  0
   58.6100   27.4180   45.5380 N   0  0  0  0  0  0  0  0  0  0  0  0
   58.1000   26.1420   46.0520 C   0  0  0  0  0  0  0  0  0  0  0  0
   58.1210   25.0960   44.9310 C   0  0  0  0  0  0  0  0  0  0  0  0
   57.4530   25.5720   43.7760 O   0  0  0  0  0  0  0  0  0  0  0  0
   58.1390   26.6950   43.2490 C   0  0  0  0  0  0  0  0  0  0  0  0
   58.0970   27.8650   44.2370 C   0  0  0  0  0  0  0  0  0  0  0  0
   59.0840   28.4000   47.7550 C   0  0  0  0  0  0  0  0  0  0  0  0
   59.7840   29.2980   48.5650 C   0  0  0  0  0  0  0  0  0  0  0  0
   60.3410   33.4990   47.9370 C   0  0  0  0  0  0  0  0  0  0  0  0
   59.1020   32.9130   47.6240 C   0  0  0  0  0  0  0  0  0  0  0  0
   58.6650   32.7110   46.2200 C   0  0  0  0  0  0  0  0  0  0  0  0
   58.8990   33.6900   45.2340 C   0  0  0  0  0  0  0  0  0  0  0  0
   58.5100   33.4700   43.9070 C   0  0  0  0  0  0  0  0  0  0  0  0
   57.8920   32.2670   43.5480 C   0  0  0  0  0  0  0  0  0  0  0  0
   57.4020   31.9920   41.8850 Cl  0  0  0  0  0  0  0  0  0  0  0  0
   57.6600   31.2850   44.5170 C   0  0  0  0  0  0  0  0  0  0  0  0
   58.0500   31.5010   45.8440 C   0  0  0  0  0  0  0  0  0  0  0  0
   58.2890   32.5040   48.6380 N   0  0  0  0  0  0  0  0  0  0  0  0
   58.1904   32.3790   52.0007 H   0  0  0  0  0  0  0  0  0  0  0  0
   56.7672   32.6039   50.9280 H   0  0  0  0  0  0  0  0  0  0  0  0
   57.6539   31.0417   50.9280 H   0  0  0  0  0  0  0  0  0  0  0  0
   63.3206   32.1771   50.5255 H   0  0  0  0  0  0  0  0  0  0  0  0
   65.3451   33.1900   50.1334 H   0  0  0  0  0  0  0  0  0  0  0  0
   65.2147   32.2335   48.6186 H   0  0  0  0  0  0  0  0  0  0  0  0
   64.7876   33.9782   48.6186 H   0  0  0  0  0  0  0  0  0  0  0  0
   60.9840   31.2670   49.7970 H   0  0  0  0  0  0  0  0  0  0  0  0
   61.8286   30.6999   46.2065 H   0  0  0  0  0  0  0  0  0  0  0  0
   60.6053   29.0760   44.7655 H   0  0  0  0  0  0  0  0  0  0  0  0
   58.7345   25.8015   46.8835 H   0  0  0  0  0  0  0  0  0  0  0  0
   57.0685   26.2761   46.4099 H   0  0  0  0  0  0  0  0  0  0  0  0
   59.1655   24.8670   44.6730 H   0  0  0  0  0  0  0  0  0  0  0  0
   57.6033   24.1929   45.2864 H   0  0  0  0  0  0  0  0  0  0  0  0
   59.1870   26.4212   43.0573 H   0  0  0  0  0  0  0  0  0  0  0  0
   57.6489   27.0030   42.3136 H   0  0  0  0  0  0  0  0  0  0  0  0
   58.7209   28.6882   43.8588 H   0  0  0  0  0  0  0  0  0  0  0  0
   57.0606   28.2161   44.3496 H   0  0  0  0  0  0  0  0  0  0  0  0
   58.3033   27.7617   48.1946 H   0  0  0  0  0  0  0  0  0  0  0  0
   59.5485   29.3609   49.6376 H   0  0  0  0  0  0  0  0  0  0  0  0
   61.0016   33.8764   47.1425 H   0  0  0  0  0  0  0  0  0  0  0  0
   59.3912   34.6346   45.5089 H   0  0  0  0  0  0  0  0  0  0  0  0
   58.6904   34.2436   43.1461 H   0  0  0  0  0  0  0  0  0  0  0  0
   57.1701   30.3412   44.2356 H   0  0  0  0  0  0  0  0  0  0  0  0
   57.8749   30.7200   46.5986 H   0  0  0  0  0  0  0  0  0  0  0  0
  1  2  1  0
  2  3  2  0
  3  4  1  0
  4  5  1  0
  5  6  1  0
  6  7  1  0
  6  8  1  0
  8  9  2  0
  8 10  1  0
 10 11  1  0
 11 12  2  0
 12 13  1  0
 13 14  2  0
 14 15  1  0
 15 16  1  0
 16 17  1  0
 17 18  1  0
 18 19  1  0
 19 20  1  0
 14 21  1  0
 21 22  2  0
  4 23  2  0
 23 24  1  0
 24 25  1  0
 25 26  2  0
 26 27  1  0
 27 28  2  0
 28 29  1  0
 28 30  1  0
 30 31  2  0
 24 32  2  0
 32  2  1  0
 22 11  1  0
 31 25  1  0
 20 15  1  0
  1 33  1  0
  1 34  1  0
  1 35  1  0
  6 36  1  1
  7 37  1  0
  7 38  1  0
  7 39  1  0
 10 40  1  0
 12 41  1  0
 13 42  1  0
 16 43  1  0
 16 44  1  0
 17 45  1  0
 17 46  1  0
 19 47  1  0
 19 48  1  0
 20 49  1  0
 20 50  1  0
 21 51  1  0
 22 52  1  0
 23 53  1  0
 26 54  1  0
 27 55  1  0
 30 56  1  0
 31 57  1  0
M  END
>  <UniqueID>  (40) 
34

>  <SMILES>  (40) 
Cc1nc(S[C@H](C)C(=O)Nc2ccc(N3CCOCC3)cc2)cc(-c2ccc(Cl)cc2)n1

>  <Energy>  (40) 
67.44895249052225

>  <Genealogy>  (40) 
Cc1nc(S[C@H](C)C(=O)Nc2ccc(N3CCOCC3)cc2)cc(-c2ccc(Cl)cc2)n1 (chirality)
Cc1nc(S[C@H](C)C(=O)Nc2ccc(N3CCOCC3)cc2)cc(-c2ccc(Cl)cc2)n1 (3D coordinates assigned)
Cc1nc(S[C@H](C)C(=O)Nc2ccc(N3CCOCC3)cc2)cc(-c2ccc(Cl)cc2)n1 (nonaromatic ring conformer: 67.44895249052225 kcal/mol)

>  <smiles>  (40) 
Cc1nc(SC(C)C(=O)Nc2ccc(N3CCOCC3)cc2)cc(-c2ccc(Cl)cc2)n1

>  <score_type>  (40) 
oracle

>  <origin>  (40) 
adg

>  <m_score__min__energy>  (40) 
-9.8000000000000007

>  <m_primary>  (40) 
energy

$$$$
40:0
     RDKit          3D

 47 49  0  0  0  0  0  0  0  0999 V2000
   55.5870   29.7230   46.0290 H   0  0  0  0  0  0  0  0  0  0  0  0
   55.9210   29.8710   45.0650 O   0  0  0  0  0  0  0  0  0  0  0  0
   56.6940   30.9530   44.8550 N   0  0  0  0  0  0  0  0  0  0  0  0
   57.8060   31.2360   45.4060 C   0  0  0  0  0  0  0  0  0  0  0  0
   58.3690   32.5450   45.6240 C   0  0  0  0  0  0  0  0  0  0  0  0
   58.6600   32.9960   46.8900 C   0  0  0  0  0  0  0  0  0  0  0  0
   58.3540   32.1050   47.9230 O   0  0  0  0  0  0  0  0  0  0  0  0
   58.4080   32.3030   49.1910 C   0  0  0  0  0  0  0  0  0  0  0  0
    0.0000    0.0000    0.0000 H   0  0  0  0  0  0  0  0  0  0  0  0
   58.8452   31.3030   49.3285 H   0  0  0  0  0  0  0  0  0  0  0  0
   58.4670   32.5180   50.5820 C   0  0  0  0  0  0  0  0  0  0  0  0
   59.2910   33.6040   51.0030 C   0  0  0  0  0  0  0  0  0  0  0  0
   59.8293   34.1952   50.2475 H   0  0  0  0  0  0  0  0  0  0  0  0
   59.4250   33.9230   52.3130 C   0  0  0  0  0  0  0  0  0  0  0  0
   60.0611   34.7623   52.6309 H   0  0  0  0  0  0  0  0  0  0  0  0
   58.7440   33.1680   53.2270 C   0  0  0  0  0  0  0  0  0  0  0  0
   58.8559   33.4306   54.2893 H   0  0  0  0  0  0  0  0  0  0  0  0
   57.9290   32.1040   52.9160 C   0  0  0  0  0  0  0  0  0  0  0  0
   57.4055   31.5314   53.6958 H   0  0  0  0  0  0  0  0  0  0  0  0
   57.8010   31.7920   51.5870 C   0  0  0  0  0  0  0  0  0  0  0  0
   57.1578   30.9480   51.2973 H   0  0  0  0  0  0  0  0  0  0  0  0
   59.1980   34.2040   47.1000 N   0  0  0  0  0  0  0  0  0  0  0  0
   59.4940   35.0730   46.1040 C   0  0  0  0  0  0  0  0  0  0  0  0
   59.9341   36.0615   46.3020 H   0  0  0  0  0  0  0  0  0  0  0  0
   59.2060   34.6360   44.8140 C   0  0  0  0  0  0  0  0  0  0  0  0
   59.4255   35.2973   43.9628 H   0  0  0  0  0  0  0  0  0  0  0  0
   58.6560   33.4030   44.5770 C   0  0  0  0  0  0  0  0  0  0  0  0
   58.4406   33.0924   43.5440 H   0  0  0  0  0  0  0  0  0  0  0  0
   58.5930   30.1150   45.8620 N   0  0  0  0  0  0  0  0  0  0  0  0
   58.1510   29.3950   47.0310 C   0  0  0  0  0  0  0  0  0  0  0  0
   57.0762   29.1853   46.9267 H   0  0  0  0  0  0  0  0  0  0  0  0
   58.3660   30.0275   47.9049 H   0  0  0  0  0  0  0  0  0  0  0  0
   58.8680   28.1040   47.2320 C   0  0  0  0  0  0  0  0  0  0  0  0
   58.2235   27.3982   47.7765 H   0  0  0  0  0  0  0  0  0  0  0  0
   59.7843   28.2595   47.8204 H   0  0  0  0  0  0  0  0  0  0  0  0
   59.2040   27.5460   45.8630 C   0  0  0  0  0  0  0  0  0  0  0  0
   58.3506   27.5475   45.1690 H   0  0  0  0  0  0  0  0  0  0  0  0
   59.6540   26.1120   46.0370 C   0  0  0  0  0  0  0  0  0  0  0  0
   59.7273   25.8783   47.1094 H   0  0  0  0  0  0  0  0  0  0  0  0
   58.9240   25.4387   45.5641 H   0  0  0  0  0  0  0  0  0  0  0  0
   60.6379   25.9765   45.5641 H   0  0  0  0  0  0  0  0  0  0  0  0
   60.3080   28.4190   45.3170 C   0  0  0  0  0  0  0  0  0  0  0  0
   60.6639   28.0084   44.3606 H   0  0  0  0  0  0  0  0  0  0  0  0
   61.1446   28.4497   46.0306 H   0  0  0  0  0  0  0  0  0  0  0  0
   59.7770   29.7980   45.1030 C   0  0  0  0  0  0  0  0  0  0  0  0
   59.5392   29.9111   44.0350 H   0  0  0  0  0  0  0  0  0  0  0  0
   60.5604   30.4884   45.4490 H   0  0  0  0  0  0  0  0  0  0  0  0
  1  2  1  0
  2  3  1  0
  3  4  2  0
  4  5  1  0
  5  6  1  0
  6  7  1  0
  7  8  1  0
  8  9  1  0
  8 10  1  0
  8 11  1  0
 11 12  2  0
 12 13  1  0
 12 14  1  0
 14 15  1  0
 14 16  2  0
 16 17  1  0
 16 18  1  0
 18 19  1  0
 18 20  2  0
 20 21  1  0
  6 22  2  0
 22 23  1  0
 23 24  1  0
 23 25  2  0
 25 26  1  0
 25 27  1  0
 27 28  1  0
  4 29  1  0
 29 30  1  0
 30 31  1  0
 30 32  1  0
 30 33  1  0
 33 34  1  0
 33 35  1  0
 33 36  1  0
 36 37  1  0
 36 38  1  0
 38 39  1  0
 38 40  1  0
 38 41  1  0
 36 42  1  0
 42 43  1  0
 42 44  1  0
 42 45  1  0
 45 46  1  0
 45 47  1  0
 27  5  2  0
 45 29  1  0
 20 11  1  0
M  END
>  <UniqueID>  (41) 
35

>  <SMILES>  (41) 
CC1CCN(/C(=N/O)c2cccnc2OCc2ccccc2)CC1

>  <Energy>  (41) 
274.2879843300673

>  <Genealogy>  (41) 
CC1CCN(/C(=N/O)c2cccnc2OCc2ccccc2)CC1 (cis-trans isomerization)
CC1CCN(/C(=N/O)c2cccnc2OCc2ccccc2)CC1 (3D coordinates assigned)
CC1CCN(/C(=N/O)c2cccnc2OCc2ccccc2)CC1 (nonaromatic ring conformer: 274.2879843300673 kcal/mol)

>  <smiles>  (41) 
CC1CCN(C(=NO)c2cccnc2OCc2ccccc2)CC1

>  <score_type>  (41) 
oracle

>  <origin>  (41) 
adg

>  <m_score__min__energy>  (41) 
-8.1199999999999992

>  <m_primary>  (41) 
energy

$$$$
41:0
     RDKit          3D

 34 35  0  0  0  0  0  0  0  0999 V2000
   58.5540   32.3210   49.5030 C   0  0  0  0  0  0  0  0  0  0  0  0
   59.5760   33.0480   50.2730 N   0  0  0  0  0  0  0  0  0  0  0  0
   59.0640   33.4310   51.5980 C   0  0  0  0  0  0  0  0  0  0  0  0
   60.1580   34.1850   49.5220 C   0  0  0  0  0  0  0  0  0  0  0  0
   61.3200   33.8050   48.6140 C   0  0  0  0  0  0  0  0  0  0  0  0
   62.4370   33.1620   49.1800 C   0  0  0  0  0  0  0  0  0  0  0  0
   63.5590   32.8660   48.4040 C   0  0  0  0  0  0  0  0  0  0  0  0
   63.5840   33.2070   47.0530 C   0  0  0  0  0  0  0  0  0  0  0  0
   62.4760   33.8180   46.4670 C   0  0  0  0  0  0  0  0  0  0  0  0
   61.3280   34.0930   47.2260 C   0  0  0  0  0  0  0  0  0  0  0  0
   59.8980   34.7960   46.3800 S   0  0  0  0  0  0  0  0  0  0  0  0
   59.1750   33.1890   46.0020 C   0  0  0  0  0  0  0  0  0  0  0  0
   59.8410   32.0220   46.4010 C   0  0  0  0  0  0  0  0  0  0  0  0
   59.3030   30.7660   46.1060 C   0  0  0  0  0  0  0  0  0  0  0  0
   58.0890   30.6660   45.4210 C   0  0  0  0  0  0  0  0  0  0  0  0
   57.4150   29.0900   45.0530 Cl  0  0  0  0  0  0  0  0  0  0  0  0
   57.4090   31.8270   45.0370 C   0  0  0  0  0  0  0  0  0  0  0  0
   57.9410   33.0880   45.3280 C   0  0  0  0  0  0  0  0  0  0  0  0
   57.0200   34.5160   44.8710 Cl  0  0  0  0  0  0  0  0  0  0  0  0
   57.8572   31.8253   50.1950 H   0  0  0  0  0  0  0  0  0  0  0  0
   57.9998   33.0290   48.8692 H   0  0  0  0  0  0  0  0  0  0  0  0
   59.0411   31.5653   48.8692 H   0  0  0  0  0  0  0  0  0  0  0  0
   59.6843   32.9670   52.3790 H   0  0  0  0  0  0  0  0  0  0  0  0
   59.1004   34.5254   51.7029 H   0  0  0  0  0  0  0  0  0  0  0  0
   58.0244   33.0870   51.7029 H   0  0  0  0  0  0  0  0  0  0  0  0
   59.3663   34.6295   48.9011 H   0  0  0  0  0  0  0  0  0  0  0  0
   60.5577   34.8858   50.2698 H   0  0  0  0  0  0  0  0  0  0  0  0
   62.4256   32.8897   50.2457 H   0  0  0  0  0  0  0  0  0  0  0  0
   64.4246   32.3629   48.8595 H   0  0  0  0  0  0  0  0  0  0  0  0
   64.4781   32.9941   46.4487 H   0  0  0  0  0  0  0  0  0  0  0  0
   62.5020   34.0868   45.4007 H   0  0  0  0  0  0  0  0  0  0  0  0
   60.7919   32.0949   46.9491 H   0  0  0  0  0  0  0  0  0  0  0  0
   59.8363   29.8545   46.4137 H   0  0  0  0  0  0  0  0  0  0  0  0
   56.4505   31.7479   44.5032 H   0  0  0  0  0  0  0  0  0  0  0  0
  1  2  1  0
  2  3  1  0
  2  4  1  0
  4  5  1  0
  5  6  2  0
  6  7  1  0
  7  8  2  0
  8  9  1  0
  9 10  2  0
 10 11  1  0
 11 12  1  0
 12 13  2  0
 13 14  1  0
 14 15  2  0
 15 16  1  0
 15 17  1  0
 17 18  2  0
 18 19  1  0
 10  5  1  0
 18 12  1  0
  1 20  1  0
  1 21  1  0
  1 22  1  0
  3 23  1  0
  3 24  1  0
  3 25  1  0
  4 26  1  0
  4 27  1  0
  6 28  1  0
  7 29  1  0
  8 30  1  0
  9 31  1  0
 13 32  1  0
 14 33  1  0
 17 34  1  0
M  END
>  <UniqueID>  (42) 
36

>  <SMILES>  (42) 
CN(C)Cc1ccccc1Sc1ccc(Cl)cc1Cl

>  <Energy>  (42) 
35.54722996757393

>  <Genealogy>  (42) 
CN(C)Cc1ccccc1Sc1ccc(Cl)cc1Cl (3D coordinates assigned)
CN(C)Cc1ccccc1Sc1ccc(Cl)cc1Cl (optimized conformer: 35.54722996757393 kcal/mol)

>  <smiles>  (42) 
CN(C)Cc1ccccc1Sc1ccc(Cl)cc1Cl

>  <score_type>  (42) 
oracle

>  <origin>  (42) 
adg

>  <m_score__min__energy>  (42) 
-7.04

>  <m_primary>  (42) 
energy

$$$$
42:0
     RDKit          3D

 33 34  0  0  0  0  0  0  0  0999 V2000
   59.2380   31.5240   47.4390 C   0  0  0  0  0  0  0  0  0  0  0  0
   59.0130   32.7090   46.5390 C   0  0  0  0  0  0  0  0  0  0  0  0
   59.7470   33.8840   46.7650 C   0  0  0  0  0  0  0  0  0  0  0  0
   59.5880   34.9930   45.9300 C   0  0  0  0  0  0  0  0  0  0  0  0
   58.6920   34.9380   44.8610 C   0  0  0  0  0  0  0  0  0  0  0  0
   57.9420   33.7830   44.6340 C   0  0  0  0  0  0  0  0  0  0  0  0
   58.0740   32.6730   45.4800 C   0  0  0  0  0  0  0  0  0  0  0  0
   57.2720   31.5120   45.2250 N   0  0  0  0  0  0  0  0  0  0  0  0
   57.0490   31.0130   43.8980 C   0  0  0  0  0  0  0  0  0  0  0  0
   57.5310   31.6150   42.9000 O   0  0  0  0  0  0  0  0  0  0  0  0
   56.2440   29.7660   43.6830 C   0  0  0  0  0  0  0  0  0  0  0  0
   56.3420   28.9040   44.8160 O   0  0  0  0  0  0  0  0  0  0  0  0
   57.5160   28.2660   45.2530 C   0  0  0  0  0  0  0  0  0  0  0  0
   58.7890   28.8620   45.1330 C   0  0  0  0  0  0  0  0  0  0  0  0
   59.9290   28.1860   45.5780 C   0  0  0  0  0  0  0  0  0  0  0  0
   59.8150   26.9170   46.1470 C   0  0  0  0  0  0  0  0  0  0  0  0
   58.5600   26.3190   46.2740 C   0  0  0  0  0  0  0  0  0  0  0  0
   57.4140   26.9880   45.8300 C   0  0  0  0  0  0  0  0  0  0  0  0
   55.8470   26.2110   45.9990 Cl  0  0  0  0  0  0  0  0  0  0  0  0
   59.1771   31.8446   48.4895 H   0  0  0  0  0  0  0  0  0  0  0  0
   58.4683   30.7631   47.2427 H   0  0  0  0  0  0  0  0  0  0  0  0
   60.2330   31.0982   47.2427 H   0  0  0  0  0  0  0  0  0  0  0  0
   60.4535   33.9321   47.6068 H   0  0  0  0  0  0  0  0  0  0  0  0
   60.1685   35.9088   46.1149 H   0  0  0  0  0  0  0  0  0  0  0  0
   58.5768   35.8067   44.1961 H   0  0  0  0  0  0  0  0  0  0  0  0
   57.2428   33.7434   43.7857 H   0  0  0  0  0  0  0  0  0  0  0  0
   57.0210   30.9050   46.0370 H   0  0  0  0  0  0  0  0  0  0  0  0
   55.1899   30.0386   43.5261 H   0  0  0  0  0  0  0  0  0  0  0  0
   56.6357   29.2385   42.8008 H   0  0  0  0  0  0  0  0  0  0  0  0
   58.8851   29.8631   44.6873 H   0  0  0  0  0  0  0  0  0  0  0  0
   60.9187   28.6559   45.4793 H   0  0  0  0  0  0  0  0  0  0  0  0
   60.7141   26.3878   46.4955 H   0  0  0  0  0  0  0  0  0  0  0  0
   58.4717   25.3193   46.7243 H   0  0  0  0  0  0  0  0  0  0  0  0
  1  2  1  0
  2  3  2  0
  3  4  1  0
  4  5  2  0
  5  6  1  0
  6  7  2  0
  7  8  1  0
  8  9  1  0
  9 10  2  0
  9 11  1  0
 11 12  1  0
 12 13  1  0
 13 14  2  0
 14 15  1  0
 15 16  2  0
 16 17  1  0
 17 18  2  0
 18 19  1  0
  7  2  1  0
 18 13  1  0
  1 20  1  0
  1 21  1  0
  1 22  1  0
  3 23  1  0
  4 24  1  0
  5 25  1  0
  6 26  1  0
  8 27  1  0
 11 28  1  0
 11 29  1  0
 14 30  1  0
 15 31  1  0
 16 32  1  0
 17 33  1  0
M  END
>  <UniqueID>  (43) 
37

>  <SMILES>  (43) 
Cc1ccccc1NC(=O)COc1ccccc1Cl

>  <Energy>  (43) 
38.430004461814875

>  <Genealogy>  (43) 
Cc1ccccc1NC(=O)COc1ccccc1Cl (3D coordinates assigned)
Cc1ccccc1NC(=O)COc1ccccc1Cl (optimized conformer: 38.430004461814875 kcal/mol)

>  <smiles>  (43) 
Cc1ccccc1NC(=O)COc1ccccc1Cl

>  <score_type>  (43) 
oracle

>  <origin>  (43) 
adg

>  <m_score__min__energy>  (43) 
-6.7999999999999998

>  <m_primary>  (43) 
energy

$$$$
43:0
     RDKit          3D

 43 44  0  0  0  0  0  0  0  0999 V2000
   59.9830   35.8400   45.9980 C   0  0  0  0  0  0  0  0  0  0  0  0
   59.6750   34.6200   46.7540 N   0  0  0  0  0  0  0  0  0  0  0  0
   60.1020   34.5270   48.1550 C   0  0  0  0  0  0  0  0  0  0  0  0
   58.9560   33.5250   46.1270 C   0  0  0  0  0  0  0  0  0  0  0  0
   59.1360   32.1950   46.5610 C   0  0  0  0  0  0  0  0  0  0  0  0
   58.4420   31.1430   45.9580 C   0  0  0  0  0  0  0  0  0  0  0  0
   57.5380   31.3950   44.9120 C   0  0  0  0  0  0  0  0  0  0  0  0
   56.8230   30.3410   44.2510 N   0  0  0  0  0  0  0  0  0  0  0  0
   56.8240   28.9540   44.6120 C   0  0  0  0  0  0  0  0  0  0  0  0
   55.8470   28.4570   45.2350 O   0  0  0  0  0  0  0  0  0  0  0  0
   57.9050   28.1210   44.1720 N   0  0  0  0  0  0  0  0  0  0  0  0
   58.1170   26.7690   44.6170 C   0  0  0  0  0  0  0  0  0  0  0  0
   58.9760   26.4760   45.6900 C   0  0  0  0  0  0  0  0  0  0  0  0
   59.1690   25.1530   46.0970 C   0  0  0  0  0  0  0  0  0  0  0  0
   58.5270   24.1120   45.4230 C   0  0  0  0  0  0  0  0  0  0  0  0
   57.7040   24.3800   44.3210 C   0  0  0  0  0  0  0  0  0  0  0  0
   57.0410   23.2920   43.6530 N   0  0  0  0  0  0  0  0  0  0  0  0
   57.3850   21.9060   43.8140 C   0  0  0  0  0  0  0  0  0  0  0  0
   57.1520   21.0010   42.7330 N   0  0  0  0  0  0  0  0  0  0  0  0
   57.8320   21.4570   44.9480 N   0  0  0  0  0  0  0  0  0  0  0  0
   57.4940   25.7160   43.9310 C   0  0  0  0  0  0  0  0  0  0  0  0
   57.3730   32.7070   44.4580 C   0  0  0  0  0  0  0  0  0  0  0  0
   58.0640   33.7610   45.0600 C   0  0  0  0  0  0  0  0  0  0  0  0
   60.1907   36.6626   46.6981 H   0  0  0  0  0  0  0  0  0  0  0  0
   60.8654   35.6660   45.3647 H   0  0  0  0  0  0  0  0  0  0  0  0
   59.1237   36.1057   45.3647 H   0  0  0  0  0  0  0  0  0  0  0  0
   59.2413   34.7145   48.8139 H   0  0  0  0  0  0  0  0  0  0  0  0
   60.5012   33.5208   48.3506 H   0  0  0  0  0  0  0  0  0  0  0  0
   60.8835   35.2760   48.3506 H   0  0  0  0  0  0  0  0  0  0  0  0
   59.8325   31.9831   47.3857 H   0  0  0  0  0  0  0  0  0  0  0  0
   58.6041   30.1115   46.3040 H   0  0  0  0  0  0  0  0  0  0  0  0
   58.5310   28.4990   43.4260 H   0  0  0  0  0  0  0  0  0  0  0  0
   59.4986   27.2913   46.2117 H   0  0  0  0  0  0  0  0  0  0  0  0
   59.8277   24.9313   46.9496 H   0  0  0  0  0  0  0  0  0  0  0  0
   58.6683   23.0743   45.7595 H   0  0  0  0  0  0  0  0  0  0  0  0
   56.2650   23.5240   42.9920 H   0  0  0  0  0  0  0  0  0  0  0  0
   56.7740   21.3510   41.8260 H   0  0  0  0  0  0  0  0  0  0  0  0
   57.3630   19.9820   42.8290 H   0  0  0  0  0  0  0  0  0  0  0  0
   58.5460   20.6960   44.9920 H   0  0  0  0  0  0  0  0  0  0  0  0
   57.5110   21.8730   45.8510 H   0  0  0  0  0  0  0  0  0  0  0  0
   56.8342   25.9367   43.0790 H   0  0  0  0  0  0  0  0  0  0  0  0
   56.6923   32.9112   43.6184 H   0  0  0  0  0  0  0  0  0  0  0  0
   57.9107   34.7882   44.6975 H   0  0  0  0  0  0  0  0  0  0  0  0
  1  2  1  0
  2  3  1  0
  2  4  1  0
  4  5  2  0
  5  6  1  0
  6  7  2  0
  7  8  1  0
  8  9  1  0
  9 10  2  0
  9 11  1  0
 11 12  1  0
 12 13  2  0
 13 14  1  0
 14 15  2  0
 15 16  1  0
 16 17  1  0
 17 18  1  0
 18 19  1  0
 18 20  2  0
 16 21  2  0
  7 22  1  0
 22 23  2  0
 23  4  1  0
 21 12  1  0
  1 24  1  0
  1 25  1  0
  1 26  1  0
  3 27  1  0
  3 28  1  0
  3 29  1  0
  5 30  1  0
  6 31  1  0
 11 32  1  0
 13 33  1  0
 14 34  1  0
 15 35  1  0
 17 36  1  0
 19 37  1  0
 19 38  1  0
 20 39  1  0
 20 40  1  0
 21 41  1  0
 22 42  1  0
 23 43  1  0
M  CHG  2   8  -1  20   1
M  END
>  <UniqueID>  (44) 
38

>  <SMILES>  (44) 
CN(C)c1ccc([N-]C(=O)Nc2cccc(NC(N)=[NH2+])c2)cc1

>  <Energy>  (44) 
53.44075773936426

>  <Genealogy>  (44) 
CN(C)c1ccc([N-]C(=O)Nc2cccc(NC(N)=[NH2+])c2)cc1 (protonated)
CN(C)c1ccc([N-]C(=O)Nc2cccc(NC(N)=[NH2+])c2)cc1 (3D coordinates assigned)
CN(C)c1ccc([N-]C(=O)Nc2cccc(NC(N)=[NH2+])c2)cc1 (optimized conformer: 53.44075773936426 kcal/mol)

>  <smiles>  (44) 
CN(C)c1ccc(NC(=O)Nc2cccc(NC(=N)N)c2)cc1

>  <score_type>  (44) 
oracle

>  <origin>  (44) 
adg

>  <m_score__min__energy>  (44) 
-7.6699999999999999

>  <m_primary>  (44) 
energy

$$$$
44:0
     RDKit          3D

 44 46  0  0  0  0  0  0  0  0999 V2000
   57.3190   34.4950   45.2790 C   0  0  0  0  0  0  0  0  0  0  0  0
   57.6550   33.0550   45.0330 C   0  0  0  0  0  0  0  0  0  0  0  0
   57.9710   32.2090   46.1060 C   0  0  0  0  0  0  0  0  0  0  0  0
   58.3220   30.8760   45.8740 C   0  0  0  0  0  0  0  0  0  0  0  0
   58.3690   30.3690   44.5650 C   0  0  0  0  0  0  0  0  0  0  0  0
   58.7470   29.0000   44.3250 N   0  0  0  0  0  0  0  0  0  0  0  0
   60.0860   28.5080   44.6600 C   0  0  0  0  0  0  0  0  0  0  0  0
   59.9930   27.3000   45.6120 C   0  0  0  0  0  0  0  0  0  0  0  0
   58.7200   26.5400   45.4950 N   0  0  0  0  0  0  0  0  0  0  0  0
   57.7340   26.9010   46.5420 C   0  0  0  0  0  0  0  0  0  0  0  0
   57.3250   25.6640   47.3500 C   0  0  0  0  0  0  0  0  0  0  0  0
   56.4110   24.8060   46.5930 N   0  0  0  0  0  0  0  0  0  0  0  0
   55.2700   25.1950   45.9940 C   0  0  0  0  0  0  0  0  0  0  0  0
   54.8000   26.5040   45.9880 O   0  0  0  0  0  0  0  0  0  0  0  0
   54.6300   24.1280   45.3980 C   0  0  0  0  0  0  0  0  0  0  0  0
   55.4180   23.0200   45.6520 C   0  0  0  0  0  0  0  0  0  0  0  0
   56.4940   23.4710   46.3910 C   0  0  0  0  0  0  0  0  0  0  0  0
   57.5100   22.6480   46.8740 O   0  0  0  0  0  0  0  0  0  0  0  0
   58.1490   26.6100   44.1330 C   0  0  0  0  0  0  0  0  0  0  0  0
   57.7830   28.0550   43.7500 C   0  0  0  0  0  0  0  0  0  0  0  0
   58.0780   31.2260   43.4900 C   0  0  0  0  0  0  0  0  0  0  0  0
   57.7290   32.5600   43.7220 C   0  0  0  0  0  0  0  0  0  0  0  0
   57.2755   34.6815   46.3622 H   0  0  0  0  0  0  0  0  0  0  0  0
   58.0921   35.1342   44.8277 H   0  0  0  0  0  0  0  0  0  0  0  0
   56.3428   34.7260   44.8277 H   0  0  0  0  0  0  0  0  0  0  0  0
   57.9425   32.5963   47.1352 H   0  0  0  0  0  0  0  0  0  0  0  0
   58.5632   30.2193   46.7228 H   0  0  0  0  0  0  0  0  0  0  0  0
   60.6013   28.2031   43.7372 H   0  0  0  0  0  0  0  0  0  0  0  0
   60.6467   29.3123   45.1586 H   0  0  0  0  0  0  0  0  0  0  0  0
   60.8262   26.6174   45.3886 H   0  0  0  0  0  0  0  0  0  0  0  0
   60.0365   27.6961   46.6373 H   0  0  0  0  0  0  0  0  0  0  0  0
   58.1818   27.6430   47.2194 H   0  0  0  0  0  0  0  0  0  0  0  0
   56.8394   27.3184   46.0568 H   0  0  0  0  0  0  0  0  0  0  0  0
   58.2275   25.0886   47.6039 H   0  0  0  0  0  0  0  0  0  0  0  0
   56.8070   26.0020   48.2596 H   0  0  0  0  0  0  0  0  0  0  0  0
   53.6852   24.1533   44.8352 H   0  0  0  0  0  0  0  0  0  0  0  0
   55.2260   21.9860   45.3297 H   0  0  0  0  0  0  0  0  0  0  0  0
   58.1480   22.9490   47.5980 H   0  0  0  0  0  0  0  0  0  0  0  0
   58.8885   26.2260   43.4149 H   0  0  0  0  0  0  0  0  0  0  0  0
   57.2315   26.0036   44.1111 H   0  0  0  0  0  0  0  0  0  0  0  0
   57.7909   28.1519   42.6543 H   0  0  0  0  0  0  0  0  0  0  0  0
   56.7821   28.2844   44.1443 H   0  0  0  0  0  0  0  0  0  0  0  0
   58.1251   30.8449   42.4592 H   0  0  0  0  0  0  0  0  0  0  0  0
   57.5114   33.2245   42.8729 H   0  0  0  0  0  0  0  0  0  0  0  0
  1  2  1  0
  2  3  2  0
  3  4  1  0
  4  5  2  0
  5  6  1  0
  6  7  1  0
  7  8  1  0
  8  9  1  0
  9 10  1  0
 10 11  1  0
 11 12  1  0
 12 13  1  0
 13 14  1  0
 13 15  2  0
 15 16  1  0
 16 17  2  0
 17 18  1  0
  9 19  1  0
 19 20  1  0
  5 21  1  0
 21 22  2  0
 22  2  1  0
 20  6  1  0
 17 12  1  0
  1 23  1  0
  1 24  1  0
  1 25  1  0
  3 26  1  0
  4 27  1  0
  7 28  1  0
  7 29  1  0
  8 30  1  0
  8 31  1  0
 10 32  1  0
 10 33  1  0
 11 34  1  0
 11 35  1  0
 15 36  1  0
 16 37  1  0
 18 38  1  0
 19 39  1  0
 19 40  1  0
 20 41  1  0
 20 42  1  0
 21 43  1  0
 22 44  1  0
M  CHG  1  14  -1
M  END
>  <UniqueID>  (45) 
39

>  <SMILES>  (45) 
Cc1ccc(N2CCN(CCn3c([O-])ccc3O)CC2)cc1

>  <Energy>  (45) 
81.96988652571437

>  <Genealogy>  (45) 
Cc1ccc(N2CCN(CCn3c([O-])ccc3O)CC2)cc1 (protonated)
Cc1ccc(N2CCN(CCn3c([O-])ccc3O)CC2)cc1 (3D coordinates assigned)
Cc1ccc(N2CCN(CCn3c([O-])ccc3O)CC2)cc1 (nonaromatic ring conformer: 81.96988652571437 kcal/mol)

>  <smiles>  (45) 
Cc1ccc(N2CCN(CCn3c(O)ccc3O)CC2)cc1

>  <score_type>  (45) 
oracle

>  <origin>  (45) 
adg

>  <m_score__min__energy>  (45) 
-10.789999999999999

>  <m_primary>  (45) 
energy

$$$$
45:0
     RDKit          3D

 41 43  0  0  0  0  0  0  0  0999 V2000
   59.7450   34.1760   48.7640 N   0  0  0  0  0  0  0  0  0  0  0  0
   59.3200   33.5390   47.8950 C   0  0  0  0  0  0  0  0  0  0  0  0
   58.7910   32.7460   46.8160 C   0  0  0  0  0  0  0  0  0  0  0  0
   57.5530   33.0690   46.2520 C   0  0  0  0  0  0  0  0  0  0  0  0
   57.0370   32.2980   45.2090 C   0  0  0  0  0  0  0  0  0  0  0  0
   57.7520   31.2000   44.7180 C   0  0  0  0  0  0  0  0  0  0  0  0
   57.0490   30.2710   43.3960 Cl  0  0  0  0  0  0  0  0  0  0  0  0
   59.0050   30.8670   45.2790 C   0  0  0  0  0  0  0  0  0  0  0  0
   59.7980   29.6700   44.7950 C   0  0  0  0  0  0  0  0  0  0  0  0
   59.4790   28.4400   45.5610 N   0  0  1  0  0  0  0  0  0  0  0  0
   58.5610   28.7820   46.6870 C   0  0  0  0  0  0  0  0  0  0  0  0
   58.0930   27.5370   47.4900 C   0  0  0  0  0  0  0  0  0  0  0  0
   57.4520   26.5210   46.5240 C   0  0  2  0  0  0  0  0  0  0  0  0
   56.1500   27.0880   45.9450 C   0  0  0  0  0  0  0  0  0  0  0  0
   54.9420   26.3340   46.0480 N   0  0  0  0  0  0  0  0  0  0  0  0
   56.1330   28.1730   45.3060 O   0  0  0  0  0  0  0  0  0  0  0  0
   57.1590   25.1250   47.0700 C   0  0  0  0  0  0  0  0  0  0  0  0
   57.2500   24.2040   45.9190 N   0  0  0  0  0  0  0  0  0  0  0  0
   58.0240   24.8940   44.8690 C   0  0  0  0  0  0  0  0  0  0  0  0
   58.5260   26.1720   45.5110 C   0  0  1  0  0  0  0  0  0  0  0  0
   58.9220   27.3860   44.6660 C   0  0  0  0  0  0  0  0  0  0  0  0
   59.5140   31.6500   46.3310 C   0  0  0  0  0  0  0  0  0  0  0  0
   56.9851   33.9316   46.6306 H   0  0  0  0  0  0  0  0  0  0  0  0
   56.0617   32.5553   44.7701 H   0  0  0  0  0  0  0  0  0  0  0  0
   59.5658   29.4968   43.7338 H   0  0  0  0  0  0  0  0  0  0  0  0
   60.8658   29.8910   44.9401 H   0  0  0  0  0  0  0  0  0  0  0  0
   60.3670   28.0770   45.9840 H   0  0  0  0  0  0  0  0  0  0  0  0
   59.0860   29.4637   47.3723 H   0  0  0  0  0  0  0  0  0  0  0  0
   57.6649   29.2472   46.2505 H   0  0  0  0  0  0  0  0  0  0  0  0
   58.9576   27.0750   47.9890 H   0  0  0  0  0  0  0  0  0  0  0  0
   57.3559   27.8420   48.2474 H   0  0  0  0  0  0  0  0  0  0  0  0
   54.2600   26.3020   45.2590 H   0  0  0  0  0  0  0  0  0  0  0  0
   57.8998   24.8521   47.8360 H   0  0  0  0  0  0  0  0  0  0  0  0
   56.1663   25.0797   47.5417 H   0  0  0  0  0  0  0  0  0  0  0  0
   57.7740   23.3480   46.2180 H   0  0  0  0  0  0  0  0  0  0  0  0
   58.8690   24.2704   44.5416 H   0  0  0  0  0  0  0  0  0  0  0  0
   57.4122   25.0976   43.9778 H   0  0  0  0  0  0  0  0  0  0  0  0
   59.5267   25.9416   45.9054 H   0  0  0  0  0  0  0  0  0  0  0  0
   59.6820   27.0895   43.9281 H   0  0  0  0  0  0  0  0  0  0  0  0
   58.0388   27.7754   44.1384 H   0  0  0  0  0  0  0  0  0  0  0  0
   60.4881   31.3989   46.7761 H   0  0  0  0  0  0  0  0  0  0  0  0
  1  2  3  0
  2  3  1  0
  3  4  2  0
  4  5  1  0
  5  6  2  0
  6  7  1  0
  6  8  1  0
  8  9  1  0
  9 10  1  0
 10 11  1  0
 11 12  1  0
 12 13  1  0
 13 14  1  6
 14 15  1  0
 14 16  2  0
 13 17  1  0
 17 18  1  0
 18 19  1  0
 19 20  1  0
 20 21  1  0
  8 22  2  0
 22  3  1  0
 21 10  1  0
 20 13  1  0
  4 23  1  0
  5 24  1  0
  9 25  1  0
  9 26  1  0
 10 27  1  1
 11 28  1  0
 11 29  1  0
 12 30  1  0
 12 31  1  0
 15 32  1  0
 17 33  1  0
 17 34  1  0
 18 35  1  0
 19 36  1  0
 19 37  1  0
 20 38  1  1
 21 39  1  0
 21 40  1  0
 22 41  1  0
M  CHG  2  10   1  15  -1
M  END
>  <UniqueID>  (46) 
40

>  <SMILES>  (46) 
N#Cc1ccc(Cl)c(C[N@H+]2CC[C@]3(C([NH-])=O)CNCC3C2)c1

>  <Energy>  (46) 
59.96805810685638

>  <Genealogy>  (46) 
N#Cc1ccc(Cl)c(C[NH+]2CCC3(C([NH-])=O)CNCC3C2)c1 (protonated)
N#Cc1ccc(Cl)c(C[N@H+]2CC[C@]3(C([NH-])=O)CNCC3C2)c1 (chirality)
N#Cc1ccc(Cl)c(C[N@H+]2CC[C@]3(C([NH-])=O)CNCC3C2)c1 (3D coordinates assigned)
N#Cc1ccc(Cl)c(C[N@H+]2CC[C@]3(C([NH-])=O)CNCC3C2)c1 (nonaromatic ring conformer: 59.96805810685638 kcal/mol)

>  <smiles>  (46) 
N#Cc1ccc(Cl)c(CN2CCC3(C(N)=O)CNCC3C2)c1

>  <score_type>  (46) 
oracle

>  <origin>  (46) 
adg

>  <m_score__min__energy>  (46) 
-9.0199999999999996

>  <m_primary>  (46) 
energy

$$$$
46:0
     RDKit          3D

 30 31  0  0  0  0  0  0  0  0999 V2000
   58.9030   28.2410   44.4170 C   0  0  0  0  0  0  0  0  0  0  0  0
   58.2110   29.2290   44.4130 C   0  0  0  0  0  0  0  0  0  0  0  0
   57.3620   30.4350   44.4060 C   0  0  1  0  0  0  0  0  0  0  0  0
   55.8980   30.0360   44.0880 C   0  0  0  0  0  0  0  0  0  0  0  0
   55.3000   29.3470   45.1570 O   0  0  0  0  0  0  0  0  0  0  0  0
   57.3900   30.9960   45.7010 O   0  0  0  0  0  0  0  0  0  0  0  0
   57.4130   32.4080   45.5740 C   0  0  1  0  0  0  0  0  0  0  0  0
   58.5020   32.9790   46.3950 N   0  0  0  0  0  0  0  0  0  0  0  0
   59.0030   34.2170   46.0900 C   0  0  0  0  0  0  0  0  0  0  0  0
   60.0060   34.7890   46.8680 C   0  0  0  0  0  0  0  0  0  0  0  0
   60.4780   34.0850   47.9700 C   0  0  0  0  0  0  0  0  0  0  0  0
   61.3860   34.5770   48.6910 O   0  0  0  0  0  0  0  0  0  0  0  0
   59.9530   32.8680   48.2700 N   0  0  0  0  0  0  0  0  0  0  0  0
   58.9700   32.3170   47.5050 C   0  0  0  0  0  0  0  0  0  0  0  0
   58.4950   31.1950   47.8310 O   0  0  0  0  0  0  0  0  0  0  0  0
   57.5850   32.7950   44.1060 C   0  0  0  0  0  0  0  0  0  0  0  0
   57.9510   31.4870   43.4500 C   0  0  2  0  0  0  0  0  0  0  0  0
   57.5050   31.3760   42.1170 O   0  0  0  0  0  0  0  0  0  0  0  0
   59.5341   27.3400   44.4206 H   0  0  0  0  0  0  0  0  0  0  0  0
   55.3173   30.9474   43.8827 H   0  0  0  0  0  0  0  0  0  0  0  0
   55.9082   29.3679   43.2142 H   0  0  0  0  0  0  0  0  0  0  0  0
   55.6920   29.7110   45.9920 H   0  0  0  0  0  0  0  0  0  0  0  0
   56.4581   32.8166   45.9362 H   0  0  0  0  0  0  0  0  0  0  0  0
   58.6088   34.7648   45.2214 H   0  0  0  0  0  0  0  0  0  0  0  0
   60.4166   35.7778   46.6159 H   0  0  0  0  0  0  0  0  0  0  0  0
   60.3060   32.3490   49.1070 H   0  0  0  0  0  0  0  0  0  0  0  0
   56.6490   33.1970   43.6910 H   0  0  0  0  0  0  0  0  0  0  0  0
   58.3370   33.5827   43.9510 H   0  0  0  0  0  0  0  0  0  0  0  0
   59.0369   31.3662   43.3222 H   0  0  0  0  0  0  0  0  0  0  0  0
   57.6110   30.4360   41.8180 H   0  0  0  0  0  0  0  0  0  0  0  0
  1  2  3  0
  3  2  1  1
  3  4  1  0
  4  5  1  0
  3  6  1  0
  6  7  1  0
  7  8  1  0
  8  9  1  0
  9 10  2  0
 10 11  1  0
 11 12  2  0
 11 13  1  0
 13 14  1  0
 14 15  2  0
  7 16  1  0
 16 17  1  0
 17 18  1  0
 17  3  1  0
 14  8  1  0
  1 19  1  0
  4 20  1  0
  4 21  1  0
  5 22  1  0
  7 23  1  1
  9 24  1  0
 10 25  1  0
 13 26  1  0
 16 27  1  0
 16 28  1  0
 17 29  1  6
 18 30  1  0
M  END
>  <UniqueID>  (47) 
41

>  <SMILES>  (47) 
C#C[C@@]1(CO)O[C@@H](n2ccc(=O)[nH]c2=O)CC1O

>  <Energy>  (47) 
36.81023941215818

>  <Genealogy>  (47) 
C#C[C@@]1(CO)O[C@@H](n2ccc(=O)[nH]c2=O)CC1O (chirality)
C#C[C@@]1(CO)O[C@@H](n2ccc(=O)[nH]c2=O)CC1O (3D coordinates assigned)
C#C[C@@]1(CO)O[C@@H](n2ccc(=O)[nH]c2=O)CC1O (nonaromatic ring conformer: 36.81023941215818 kcal/mol)

>  <smiles>  (47) 
C#CC1(CO)OC(n2ccc(=O)[nH]c2=O)CC1O

>  <score_type>  (47) 
oracle

>  <origin>  (47) 
adg

>  <m_score__min__energy>  (47) 
-6.8300000000000001

>  <m_primary>  (47) 
energy

$$$$
47:0
     RDKit          3D

 43 46  0  0  0  0  0  0  0  0999 V2000
   59.6550   35.7350   45.9320 C   0  0  0  0  0  0  0  0  0  0  0  0
   59.1020   34.7960   45.0150 O   0  0  0  0  0  0  0  0  0  0  0  0
   58.8910   33.4390   45.3000 C   0  0  0  0  0  0  0  0  0  0  0  0
   59.6430   32.8490   46.3190 C   0  0  0  0  0  0  0  0  0  0  0  0
   59.4650   31.5040   46.6500 C   0  0  0  0  0  0  0  0  0  0  0  0
   58.5050   30.7220   45.9830 C   0  0  0  0  0  0  0  0  0  0  0  0
   57.7880   31.3020   44.9140 C   0  0  0  0  0  0  0  0  0  0  0  0
   57.9650   32.6540   44.5910 C   0  0  0  0  0  0  0  0  0  0  0  0
   56.6890   30.3160   43.9540 S   0  0  0  0  0  0  0  0  0  0  0  0
   56.7050   30.7570   42.5170 O   0  0  0  0  0  0  0  0  0  0  0  0
   55.2960   30.4210   44.5050 O   0  0  0  0  0  0  0  0  0  0  0  0
   57.2620   28.6320   44.0530 C   0  0  0  0  0  0  0  0  0  0  0  0
   57.7500   28.3540   45.4440 C   0  0  0  0  0  0  0  0  0  0  0  0
   57.6720   27.1750   46.1720 C   0  0  0  0  0  0  0  0  0  0  0  0
   57.1750   25.8630   45.7230 C   0  0  0  0  0  0  0  0  0  0  0  0
   56.0530   25.4690   46.1420 O   0  0  0  0  0  0  0  0  0  0  0  0
   57.9550   25.0360   44.8420 N   0  0  0  0  0  0  0  0  0  0  0  0
   57.5120   23.7720   44.3190 C   0  0  0  0  0  0  0  0  0  0  0  0
   58.2530   22.5930   44.5050 C   0  0  0  0  0  0  0  0  0  0  0  0
   57.8010   21.3910   43.9560 C   0  0  0  0  0  0  0  0  0  0  0  0
   56.6200   21.3800   43.2120 C   0  0  0  0  0  0  0  0  0  0  0  0
   55.9260   22.5340   43.0180 N   0  0  0  0  0  0  0  0  0  0  0  0
   56.3470   23.7160   43.5420 C   0  0  0  0  0  0  0  0  0  0  0  0
   58.0730   27.4110   47.4360 N   0  0  0  0  0  0  0  0  0  0  0  0
   58.4340   28.6820   47.5290 N   0  0  0  0  0  0  0  0  0  0  0  0
   58.8270   29.2810   48.8000 C   0  0  0  0  0  0  0  0  0  0  0  0
   58.2820   29.2860   46.3220 C   0  0  0  0  0  0  0  0  0  0  0  0
   59.4585   35.4014   46.9616 H   0  0  0  0  0  0  0  0  0  0  0  0
   60.7407   35.8087   45.7713 H   0  0  0  0  0  0  0  0  0  0  0  0
   59.1929   36.7202   45.7713 H   0  0  0  0  0  0  0  0  0  0  0  0
   60.3835   33.4505   46.8666 H   0  0  0  0  0  0  0  0  0  0  0  0
   60.0819   31.0516   47.4404 H   0  0  0  0  0  0  0  0  0  0  0  0
   57.3760   33.1037   43.7780 H   0  0  0  0  0  0  0  0  0  0  0  0
   56.4354   27.9480   43.8103 H   0  0  0  0  0  0  0  0  0  0  0  0
   58.0837   28.4803   43.3376 H   0  0  0  0  0  0  0  0  0  0  0  0
   58.8770   25.3910   44.5070 H   0  0  0  0  0  0  0  0  0  0  0  0
   59.1887   22.6166   45.0828 H   0  0  0  0  0  0  0  0  0  0  0  0
   58.3701   20.4621   44.1084 H   0  0  0  0  0  0  0  0  0  0  0  0
   56.2501   20.4374   42.7822 H   0  0  0  0  0  0  0  0  0  0  0  0
   55.7698   24.6335   43.3550 H   0  0  0  0  0  0  0  0  0  0  0  0
   58.4302   28.6762   49.6287 H   0  0  0  0  0  0  0  0  0  0  0  0
   59.9245   29.3165   48.8648 H   0  0  0  0  0  0  0  0  0  0  0  0
   58.4226   30.3019   48.8648 H   0  0  0  0  0  0  0  0  0  0  0  0
  1  2  1  0
  2  3  1  0
  3  4  2  0
  4  5  1  0
  5  6  2  0
  6  7  1  0
  7  8  2  0
  7  9  1  0
  9 10  2  0
  9 11  2  0
  9 12  1  0
 12 13  1  0
 13 14  1  0
 14 15  1  0
 15 16  2  0
 15 17  1  0
 17 18  1  0
 18 19  2  0
 19 20  1  0
 20 21  2  0
 21 22  1  0
 22 23  2  0
 14 24  2  0
 24 25  1  0
 25 26  1  0
 25 27  1  0
  8  3  1  0
 27 13  2  0
 27  6  1  0
 23 18  1  0
  1 28  1  0
  1 29  1  0
  1 30  1  0
  4 31  1  0
  5 32  1  0
  8 33  1  0
 12 34  1  0
 12 35  1  0
 17 36  1  0
 19 37  1  0
 20 38  1  0
 21 39  1  0
 23 40  1  0
 26 41  1  0
 26 42  1  0
 26 43  1  0
M  END
>  <UniqueID>  (48) 
42

>  <SMILES>  (48) 
COc1ccc2c(c1)S(=O)(=O)Cc1c(C(=O)Nc3cccnc3)nn(C)c1-2

>  <Energy>  (48) 
91.00513187719699

>  <Genealogy>  (48) 
COc1ccc2c(c1)S(=O)(=O)Cc1c(C(=O)Nc3cccnc3)nn(C)c1-2 (3D coordinates assigned)
COc1ccc2c(c1)S(=O)(=O)Cc1c(C(=O)Nc3cccnc3)nn(C)c1-2 (nonaromatic ring conformer: 91.00513187719699 kcal/mol)

>  <smiles>  (48) 
COc1ccc2c(c1)S(=O)(=O)Cc1c(C(=O)Nc3cccnc3)nn(C)c1-2

>  <score_type>  (48) 
oracle

>  <origin>  (48) 
adg

>  <m_score__min__energy>  (48) 
-9.4900000000000002

>  <m_primary>  (48) 
energy

$$$$
48:0
     RDKit          3D

 46 48  0  0  0  0  0  0  0  0999 V2000
   55.2330   29.7250   43.5860 C   0  0  0  0  0  0  0  0  0  0  0  0
   55.4540   29.1180   44.8510 O   0  0  0  0  0  0  0  0  0  0  0  0
   56.6720   28.5280   45.2030 C   0  0  0  0  0  0  0  0  0  0  0  0
   56.7080   27.5840   46.0410 O   0  0  0  0  0  0  0  0  0  0  0  0
   57.9460   29.0620   44.6070 C   0  0  2  0  0  0  0  0  0  0  0  0
   59.0650   28.0170   44.6030 C   0  0  0  0  0  0  0  0  0  0  0  0
   60.3360   28.7830   44.9450 C   0  0  0  0  0  0  0  0  0  0  0  0
   59.8830   30.0490   45.6620 C   0  0  0  0  0  0  0  0  0  0  0  0
   58.4660   30.1950   45.3630 N   0  0  0  0  0  0  0  0  0  0  0  0
   57.8220   31.4810   45.3690 C   0  0  0  0  0  0  0  0  0  0  0  0
   56.6700   31.6060   44.8730 O   0  0  0  0  0  0  0  0  0  0  0  0
   58.4870   32.6630   45.9400 C   0  0  0  0  0  0  0  0  0  0  0  0
   58.8480   33.7390   45.1140 C   0  0  0  0  0  0  0  0  0  0  0  0
   59.4760   34.8620   45.6560 C   0  0  0  0  0  0  0  0  0  0  0  0
   59.7550   34.9180   47.0230 C   0  0  0  0  0  0  0  0  0  0  0  0
   59.3880   33.8560   47.8640 C   0  0  0  0  0  0  0  0  0  0  0  0
   59.7420   33.8980   49.3210 C   0  0  0  0  0  0  0  0  0  0  0  0
   60.9310   34.6680   49.4860 O   0  0  0  0  0  0  0  0  0  0  0  0
   62.2190   34.1260   49.6010 C   0  0  0  0  0  0  0  0  0  0  0  0
   62.9150   34.3180   50.8020 C   0  0  0  0  0  0  0  0  0  0  0  0
   64.2010   33.7970   50.9650 C   0  0  0  0  0  0  0  0  0  0  0  0
   64.8060   33.0800   49.9270 C   0  0  0  0  0  0  0  0  0  0  0  0
   66.4210   32.4280   50.1330 Cl  0  0  0  0  0  0  0  0  0  0  0  0
   64.1190   32.8860   48.7230 C   0  0  0  0  0  0  0  0  0  0  0  0
   62.8310   33.4030   48.5580 C   0  0  0  0  0  0  0  0  0  0  0  0
   58.7510   32.7310   47.3160 C   0  0  0  0  0  0  0  0  0  0  0  0
   54.8600   30.7496   43.7311 H   0  0  0  0  0  0  0  0  0  0  0  0
   56.1779   29.7550   43.0236 H   0  0  0  0  0  0  0  0  0  0  0  0
   54.4900   29.1405   43.0236 H   0  0  0  0  0  0  0  0  0  0  0  0
   57.6754   29.3547   43.5817 H   0  0  0  0  0  0  0  0  0  0  0  0
   58.8690   27.2406   45.3572 H   0  0  0  0  0  0  0  0  0  0  0  0
   59.1442   27.5066   43.6318 H   0  0  0  0  0  0  0  0  0  0  0  0
   60.9800   28.1808   45.6028 H   0  0  0  0  0  0  0  0  0  0  0  0
   60.9201   29.0178   44.0429 H   0  0  0  0  0  0  0  0  0  0  0  0
   60.0363   29.9494   46.7467 H   0  0  0  0  0  0  0  0  0  0  0  0
   60.4570   30.9268   45.3304 H   0  0  0  0  0  0  0  0  0  0  0  0
   58.6353   33.6973   44.0356 H   0  0  0  0  0  0  0  0  0  0  0  0
   59.7516   35.7045   45.0047 H   0  0  0  0  0  0  0  0  0  0  0  0
   60.2645   35.7980   47.4425 H   0  0  0  0  0  0  0  0  0  0  0  0
   58.9206   34.3613   49.8873 H   0  0  0  0  0  0  0  0  0  0  0  0
   59.9052   32.8762   49.6943 H   0  0  0  0  0  0  0  0  0  0  0  0
   62.4459   34.8824   51.6214 H   0  0  0  0  0  0  0  0  0  0  0  0
   64.7393   33.9509   51.9119 H   0  0  0  0  0  0  0  0  0  0  0  0
   64.5940   32.3252   47.9046 H   0  0  0  0  0  0  0  0  0  0  0  0
   62.2937   33.2450   47.6113 H   0  0  0  0  0  0  0  0  0  0  0  0
   58.4569   31.8971   47.9704 H   0  0  0  0  0  0  0  0  0  0  0  0
  1  2  1  0
  2  3  1  0
  3  4  2  0
  3  5  1  0
  5  6  1  0
  6  7  1  0
  7  8  1  0
  8  9  1  0
  9 10  1  0
 10 11  2  0
 10 12  1  0
 12 13  2  0
 13 14  1  0
 14 15  2  0
 15 16  1  0
 16 17  1  0
 17 18  1  0
 18 19  1  0
 19 20  2  0
 20 21  1  0
 21 22  2  0
 22 23  1  0
 22 24  1  0
 24 25  2  0
 16 26  2  0
  9  5  1  0
 26 12  1  0
 25 19  1  0
  1 27  1  0
  1 28  1  0
  1 29  1  0
  5 30  1  6
  6 31  1  0
  6 32  1  0
  7 33  1  0
  7 34  1  0
  8 35  1  0
  8 36  1  0
 13 37  1  0
 14 38  1  0
 15 39  1  0
 17 40  1  0
 17 41  1  0
 20 42  1  0
 21 43  1  0
 24 44  1  0
 25 45  1  0
 26 46  1  0
M  END
>  <UniqueID>  (49) 
43

>  <SMILES>  (49) 
COC(=O)[C@@H]1CCCN1C(=O)c1cccc(COc2ccc(Cl)cc2)c1

>  <Energy>  (49) 
51.09158335863146

>  <Genealogy>  (49) 
COC(=O)[C@@H]1CCCN1C(=O)c1cccc(COc2ccc(Cl)cc2)c1 (chirality)
COC(=O)[C@@H]1CCCN1C(=O)c1cccc(COc2ccc(Cl)cc2)c1 (3D coordinates assigned)
COC(=O)[C@@H]1CCCN1C(=O)c1cccc(COc2ccc(Cl)cc2)c1 (nonaromatic ring conformer: 51.09158335863146 kcal/mol)

>  <smiles>  (49) 
COC(=O)C1CCCN1C(=O)c1cccc(COc2ccc(Cl)cc2)c1

>  <score_type>  (49) 
oracle

>  <origin>  (49) 
adg

>  <m_score__min__energy>  (49) 
-9.2100000000000009

>  <m_primary>  (49) 
energy

$$$$
49:0
     RDKit          3D

 38 40  0  0  0  0  0  0  0  0999 V2000
   57.9107   35.3725   45.6609 H   0  0  0  0  0  0  0  0  0  0  0  0
   58.6480   34.6190   45.9750 C   0  0  0  0  0  0  0  0  0  0  0  0
   59.7470   35.0560   46.6090 C   0  0  0  0  0  0  0  0  0  0  0  0
   60.2748   35.9198   46.1786 H   0  0  0  0  0  0  0  0  0  0  0  0
   60.3010   34.4590   47.8470 C   0  0  0  0  0  0  0  0  0  0  0  0
   59.5160   34.4330   49.0120 C   0  0  0  0  0  0  0  0  0  0  0  0
   58.5108   34.8798   49.0070 H   0  0  0  0  0  0  0  0  0  0  0  0
   60.0090   33.8420   50.1740 C   0  0  0  0  0  0  0  0  0  0  0  0
   59.3967   33.8354   51.0878 H   0  0  0  0  0  0  0  0  0  0  0  0
   61.2410   33.2750   50.1820 N   0  0  0  0  0  0  0  0  0  0  0  0
   62.0310   33.2610   49.0780 C   0  0  0  0  0  0  0  0  0  0  0  0
   63.2950   32.6630   49.1400 C   0  0  0  0  0  0  0  0  0  0  0  0
   63.6383   32.2026   50.0782 H   0  0  0  0  0  0  0  0  0  0  0  0
   64.1220   32.6490   48.0140 C   0  0  0  0  0  0  0  0  0  0  0  0
   65.1132   32.1749   48.0664 H   0  0  0  0  0  0  0  0  0  0  0  0
   63.6920   33.2360   46.8220 C   0  0  0  0  0  0  0  0  0  0  0  0
   64.3474   33.2245   45.9386 H   0  0  0  0  0  0  0  0  0  0  0  0
   62.4330   33.8380   46.7460 C   0  0  0  0  0  0  0  0  0  0  0  0
   62.1045   34.3025   45.8045 H   0  0  0  0  0  0  0  0  0  0  0  0
   61.5810   33.8530   47.8710 C   0  0  0  0  0  0  0  0  0  0  0  0
   58.3500   33.2020   45.6650 C   0  0  0  0  0  0  0  0  0  0  0  0
   58.4600   32.1990   46.6400 C   0  0  0  0  0  0  0  0  0  0  0  0
   58.7912   32.4496   47.6586 H   0  0  0  0  0  0  0  0  0  0  0  0
   58.1460   30.8820   46.3070 C   0  0  0  0  0  0  0  0  0  0  0  0
   58.2451   30.0865   47.0602 H   0  0  0  0  0  0  0  0  0  0  0  0
   57.7180   30.5800   45.0540 N   0  0  0  0  0  0  0  0  0  0  0  0
   57.5710   31.5250   44.0820 C   0  0  0  0  0  0  0  0  0  0  0  0
   57.1040   31.1300   42.7700 N   0  0  0  0  0  0  0  0  0  0  0  0
   57.3870   31.9430   41.5810 C   0  0  0  0  0  0  0  0  0  0  0  0
   57.7338   32.9394   41.8922 H   0  0  0  0  0  0  0  0  0  0  0  0
   58.1678   31.4541   40.9799 H   0  0  0  0  0  0  0  0  0  0  0  0
   56.4714   32.0447   40.9799 H   0  0  0  0  0  0  0  0  0  0  0  0
   56.3330   29.8890   42.6330 C   0  0  0  0  0  0  0  0  0  0  0  0
   56.0893   29.4967   43.6313 H   0  0  0  0  0  0  0  0  0  0  0  0
   55.4030   30.0940   42.0825 H   0  0  0  0  0  0  0  0  0  0  0  0
   56.9288   29.1461   42.0825 H   0  0  0  0  0  0  0  0  0  0  0  0
   57.8810   32.8660   44.3880 C   0  0  0  0  0  0  0  0  0  0  0  0
   57.7548   33.6480   43.6247 H   0  0  0  0  0  0  0  0  0  0  0  0
  1  2  1  0
  2  3  2  0
  3  4  1  0
  3  5  1  0
  5  6  2  0
  6  7  1  0
  6  8  1  0
  8  9  1  0
  8 10  2  0
 10 11  1  0
 11 12  2  0
 12 13  1  0
 12 14  1  0
 14 15  1  0
 14 16  2  0
 16 17  1  0
 16 18  1  0
 18 19  1  0
 18 20  2  0
  2 21  1  0
 21 22  2  0
 22 23  1  0
 22 24  1  0
 24 25  1  0
 24 26  2  0
 26 27  1  0
 27 28  1  0
 28 29  1  0
 29 30  1  0
 29 31  1  0
 29 32  1  0
 28 33  1  0
 33 34  1  0
 33 35  1  0
 33 36  1  0
 27 37  2  0
 37 38  1  0
 20  5  1  0
 37 21  1  0
 20 11  1  0
M  END
>  <UniqueID>  (50) 
44

>  <SMILES>  (50) 
CN(C)c1cc(/C=C\c2ccnc3ccccc23)ccn1

>  <Energy>  (50) 
55.2203791051195

>  <Genealogy>  (50) 
CN(C)c1cc(/C=C\c2ccnc3ccccc23)ccn1 (cis-trans isomerization)
CN(C)c1cc(/C=C\c2ccnc3ccccc23)ccn1 (3D coordinates assigned)
CN(C)c1cc(/C=C\c2ccnc3ccccc23)ccn1 (optimized conformer: 55.2203791051195 kcal/mol)

>  <smiles>  (50) 
CN(C)c1cc(C=Cc2ccnc3ccccc23)ccn1

>  <score_type>  (50) 
oracle

>  <origin>  (50) 
adg

>  <m_score__min__energy>  (50) 
-7.4800000000000004

>  <m_primary>  (50) 
energy

$$$$
50:0
     RDKit          3D

 32 33  0  0  0  0  0  0  0  0999 V2000
   56.5590   20.7050   43.0170 N   0  0  0  0  0  0  0  0  0  0  0  0
   57.0380   21.6290   43.7790 C   0  0  0  0  0  0  0  0  0  0  0  0
   56.2380   22.6240   44.1940 N   0  0  0  0  0  0  0  0  0  0  0  0
   56.7290   23.5850   44.9830 C   0  0  0  0  0  0  0  0  0  0  0  0
   58.0680   23.6070   45.4100 C   0  0  0  0  0  0  0  0  0  0  0  0
   58.4130   24.6550   46.2100 O   0  0  0  0  0  0  0  0  0  0  0  0
   58.5180   25.9360   45.7860 C   0  0  0  0  0  0  0  0  0  0  0  0
   59.0130   27.0160   46.4670 C   0  0  0  0  0  0  0  0  0  0  0  0
   59.0840   28.2920   45.9570 C   0  0  0  0  0  0  0  0  0  0  0  0
   58.6360   28.5360   44.6760 C   0  0  0  0  0  0  0  0  0  0  0  0
   58.6840   29.8340   44.0920 N   0  0  0  0  0  0  0  0  0  0  0  0
   57.6550   30.7980   44.2380 C   0  0  0  0  0  0  0  0  0  0  0  0
   56.6380   30.4580   44.9340 O   0  0  0  0  0  0  0  0  0  0  0  0
   57.6910   32.1430   43.6400 C   0  0  0  0  0  0  0  0  0  0  0  0
   57.7950   33.4390   45.0960 Br  0  0  0  0  0  0  0  0  0  0  0  0
   58.1290   27.4800   43.9510 C   0  0  0  0  0  0  0  0  0  0  0  0
   58.0660   26.2080   44.4810 C   0  0  0  0  0  0  0  0  0  0  0  0
   58.8580   22.5830   44.9730 C   0  0  0  0  0  0  0  0  0  0  0  0
   60.0830   22.4160   45.2650 N   0  0  0  0  0  0  0  0  0  0  0  0
   58.3190   21.6160   44.1620 N   0  0  0  0  0  0  0  0  0  0  0  0
   56.9170   19.7260   43.0560 H   0  0  0  0  0  0  0  0  0  0  0  0
   55.2450   22.6040   43.8760 H   0  0  0  0  0  0  0  0  0  0  0  0
   56.0574   24.3918   45.3116 H   0  0  0  0  0  0  0  0  0  0  0  0
   59.3787   26.8523   47.4914 H   0  0  0  0  0  0  0  0  0  0  0  0
   59.4948   29.1106   46.5662 H   0  0  0  0  0  0  0  0  0  0  0  0
   59.5200   30.0700   43.5380 H   0  0  0  0  0  0  0  0  0  0  0  0
   58.5723   32.2398   42.9889 H   0  0  0  0  0  0  0  0  0  0  0  0
   56.7908   32.3182   43.0325 H   0  0  0  0  0  0  0  0  0  0  0  0
   57.7665   27.6549   42.9273 H   0  0  0  0  0  0  0  0  0  0  0  0
   57.6543   25.3899   43.8717 H   0  0  0  0  0  0  0  0  0  0  0  0
   60.8950   22.1790   44.7100 H   0  0  0  0  0  0  0  0  0  0  0  0
   58.9030   20.8190   43.8140 H   0  0  0  0  0  0  0  0  0  0  0  0
  1  2  2  3
  2  3  1  0
  3  4  1  0
  4  5  2  0
  5  6  1  0
  6  7  1  0
  7  8  2  0
  8  9  1  0
  9 10  2  0
 10 11  1  0
 11 12  1  0
 12 13  2  0
 12 14  1  0
 14 15  1  0
 10 16  1  0
 16 17  2  0
  5 18  1  0
 18 19  2  3
 18 20  1  0
 20  2  1  0
 17  7  1  0
  1 21  1  0
  3 22  1  0
  4 23  1  0
  8 24  1  0
  9 25  1  0
 11 26  1  0
 14 27  1  0
 14 28  1  0
 16 29  1  0
 17 30  1  0
 19 31  1  0
 20 32  1  0
M  END
>  <smiles>  (51) 
N=c1[nH]cc(Oc2ccc(NC(=O)CBr)cc2)c(=N)[nH]1

>  <score_type>  (51) 
oracle

>  <origin>  (51) 
adg

>  <m_score__min__energy>  (51) 
-7.8099999999999996

>  <m_primary>  (51) 
energy

$$$$
51:0
     RDKit          3D

 63 65  0  0  1  0  0  0  0  0999 V2000
   56.5110   29.3470   42.6540 N   0  0  0  0  0  0  0  0  0  0  0  0
   56.3370   29.6800   44.0460 C   0  0  0  0  0  0  0  0  0  0  0  0
   55.3170   29.2170   44.5810 O   0  0  0  0  0  0  0  0  0  0  0  0
   57.3520   30.5040   44.6590 C   0  0  0  0  0  0  0  0  0  0  0  0
   57.0550   31.7760   45.0030 N   0  0  0  0  0  0  0  0  0  0  0  0
   57.9270   32.5940   45.5990 C   0  0  0  0  0  0  0  0  0  0  0  0
   57.5640   33.9050   45.9310 C   0  0  0  0  0  0  0  0  0  0  0  0
   58.5260   34.6890   46.5450 C   0  0  0  0  0  0  0  0  0  0  0  0
   59.7870   34.2160   46.8230 C   0  0  0  0  0  0  0  0  0  0  0  0
   60.1540   32.9260   46.4990 C   0  0  0  0  0  0  0  0  0  0  0  0
   59.1940   32.1390   45.8840 C   0  0  0  0  0  0  0  0  0  0  0  0
   59.5100   30.8910   45.5550 N   0  0  0  0  0  0  0  0  0  0  0  0
   58.6110   30.0580   44.9430 C   0  0  0  0  0  0  0  0  0  0  0  0
   59.1520   28.7270   44.5790 C   0  0  0  0  0  0  0  0  0  0  0  0
   58.6720   27.7090   45.5320 C   0  0  0  0  0  0  0  0  0  0  0  0
   58.7040   27.7640   46.8900 C   0  0  0  0  0  0  0  0  0  0  0  0
   58.1890   26.7260   47.6760 C   0  0  0  0  0  0  0  0  0  0  0  0
   57.6250   25.5980   47.1190 C   0  0  0  0  0  0  0  0  0  0  0  0
   57.0760   24.4960   47.8820 C   0  0  0  0  0  0  0  0  0  0  0  0
   57.7650   23.9840   48.8180 O   0  0  0  0  0  0  0  0  0  0  0  0
   55.7980   23.9240   47.6630 N   0  0  0  0  0  0  0  0  0  0  0  0
   55.2560   22.8290   48.4230 C   0  0  0  0  0  0  0  0  0  0  0  0
   55.6370   21.4720   47.8960 C   0  0  0  0  0  0  0  0  0  0  0  0
   54.5070   20.7900   47.1800 C   0  0  0  0  0  0  0  0  0  0  0  0
   54.8080   20.5920   45.6990 C   0  0  0  0  0  0  0  0  0  0  0  0
   56.0380   21.4320   45.3810 C   0  0  0  0  0  0  0  0  0  0  0  0
   55.8330   22.2960   44.1590 C   0  0  0  0  0  0  0  0  0  0  0  0
   55.7310   23.7580   44.5260 C   0  0  0  0  0  0  0  0  0  0  0  0
   54.2940   24.0920   44.8100 C   0  0  0  0  0  0  0  0  0  0  0  0
   53.2900   23.6410   43.9640 O   0  0  0  0  0  0  0  0  0  0  0  0
   53.9820   24.8130   45.8540 N   0  0  0  0  0  0  0  0  0  0  0  0
   54.4640   26.1100   45.9200 O   0  0  0  0  0  0  0  0  0  0  0  0
   57.5920   25.5410   45.7360 C   0  0  0  0  0  0  0  0  0  0  0  0
   58.0990   26.5650   44.9670 C   0  0  0  0  0  0  0  0  0  0  0  0
   55.9190   29.8750   41.9630 H   0  0  0  0  0  0  0  0  0  0  0  0
   57.2020   28.6130   42.3860 H   0  0  0  0  0  0  0  0  0  0  0  0
   56.5587   34.2949   45.7136 H   0  0  0  0  0  0  0  0  0  0  0  0
   58.2734   35.7239   46.8193 H   0  0  0  0  0  0  0  0  0  0  0  0
   60.5163   34.8781   47.3126 H   0  0  0  0  0  0  0  0  0  0  0  0
   61.1607   32.5409   46.7185 H   0  0  0  0  0  0  0  0  0  0  0  0
   58.8176   28.4629   43.5649 H   0  0  0  0  0  0  0  0  0  0  0  0
   60.2509   28.7627   44.6123 H   0  0  0  0  0  0  0  0  0  0  0  0
   59.1443   28.6436   47.3823 H   0  0  0  0  0  0  0  0  0  0  0  0
   58.2358   26.8132   48.7715 H   0  0  0  0  0  0  0  0  0  0  0  0
   55.2330   24.3640   46.8770 H   0  0  0  0  0  0  0  0  0  0  0  0
   55.6190   22.9128   49.4580 H   0  0  0  0  0  0  0  0  0  0  0  0
   54.1608   22.9027   48.3517 H   0  0  0  0  0  0  0  0  0  0  0  0
   56.4772   21.5896   47.1959 H   0  0  0  0  0  0  0  0  0  0  0  0
   55.9103   20.8456   48.7580 H   0  0  0  0  0  0  0  0  0  0  0  0
   54.3353   19.8068   47.6423 H   0  0  0  0  0  0  0  0  0  0  0  0
   53.6158   21.4294   47.2637 H   0  0  0  0  0  0  0  0  0  0  0  0
   55.0112   19.5307   45.4929 H   0  0  0  0  0  0  0  0  0  0  0  0
   53.9520   20.8971   45.0792 H   0  0  0  0  0  0  0  0  0  0  0  0
   56.2572   22.0807   46.2419 H   0  0  0  0  0  0  0  0  0  0  0  0
   56.8737   20.7466   45.1761 H   0  0  0  0  0  0  0  0  0  0  0  0
   56.6842   22.1573   43.4762 H   0  0  0  0  0  0  0  0  0  0  0  0
   54.8914   21.9945   43.6769 H   0  0  0  0  0  0  0  0  0  0  0  0
   56.3396   23.9570   45.4204 H   0  0  0  0  0  0  0  0  0  0  0  0
   56.0988   24.3765   43.6941 H   0  0  0  0  0  0  0  0  0  0  0  0
   52.6760   24.3100   43.5050 H   0  0  0  0  0  0  0  0  0  0  0  0
   54.3480   26.6680   46.7640 H   0  0  0  0  0  0  0  0  0  0  0  0
   57.1527   24.6616   45.2423 H   0  0  0  0  0  0  0  0  0  0  0  0
   58.0517   26.4802   43.8713 H   0  0  0  0  0  0  0  0  0  0  0  0
  1  2  1  0
  2  3  2  0
  2  4  1  0
  4  5  2  0
  5  6  1  0
  6  7  2  0
  7  8  1  0
  8  9  2  0
  9 10  1  0
 10 11  2  0
 11 12  1  0
 12 13  2  0
 13 14  1  0
 14 15  1  0
 15 16  2  0
 16 17  1  0
 17 18  2  0
 18 19  1  0
 19 20  2  0
 19 21  1  0
 21 22  1  0
 22 23  1  0
 23 24  1  0
 24 25  1  0
 25 26  1  0
 26 27  1  0
 27 28  1  0
 28 29  1  0
 29 30  1  0
 29 31  2  0
 31 32  1  0
 18 33  1  0
 33 34  2  0
 13  4  1  0
 34 15  1  0
 11  6  1  0
  1 35  1  0
  1 36  1  0
  7 37  1  0
  8 38  1  0
  9 39  1  0
 10 40  1  0
 14 41  1  0
 14 42  1  0
 16 43  1  0
 17 44  1  0
 21 45  1  0
 22 46  1  0
 22 47  1  0
 23 48  1  0
 23 49  1  0
 24 50  1  0
 24 51  1  0
 25 52  1  0
 25 53  1  0
 26 54  1  0
 26 55  1  0
 27 56  1  0
 27 57  1  0
 28 58  1  0
 28 59  1  0
 30 60  1  0
 32 61  1  0
 33 62  1  0
 34 63  1  0
M  END
>  <smiles>  (52) 
NC(=O)c1nc2ccccc2nc1Cc1ccc(C(=O)NCCCCCCCC(O)=NO)cc1

>  <score_type>  (52) 
oracle

>  <origin>  (52) 
adg

>  <m_score__min__energy>  (52) 
-10.970000000000001

>  <m_primary>  (52) 
energy

$$$$
52:0
     RDKit          3D

 48 49  0  0  0  0  0  0  0  0999 V2000
   59.3550   28.9130   44.6240 C   0  0  0  0  0  0  0  0  0  0  0  0
   58.4780   27.7920   45.0090 N   0  0  0  0  0  0  0  0  0  0  0  0
   57.3970   28.2290   45.9180 C   0  0  0  0  0  0  0  0  0  0  0  0
   56.5730   29.3150   45.2920 C   0  0  0  0  0  0  0  0  0  0  0  0
   55.4700   29.0240   44.7570 O   0  0  0  0  0  0  0  0  0  0  0  0
   57.0580   30.6620   45.2610 N   0  0  0  0  0  0  0  0  0  0  0  0
   57.0210   31.4900   44.0630 C   0  0  0  0  0  0  0  0  0  0  0  0
   58.1690   32.4940   44.0990 C   0  0  0  0  0  0  0  0  0  0  0  0
   57.7090   33.7580   44.7220 N   0  0  0  0  0  0  0  0  0  0  0  0
   58.8080   34.7380   44.8870 C   0  0  0  0  0  0  0  0  0  0  0  0
   59.5250   34.5950   46.2470 C   0  0  0  0  0  0  0  0  0  0  0  0
   59.3500   33.2960   46.7720 O   0  0  0  0  0  0  0  0  0  0  0  0
   57.9910   33.0900   47.1180 C   0  0  0  0  0  0  0  0  0  0  0  0
   57.0120   33.5300   46.0030 C   0  0  0  0  0  0  0  0  0  0  0  0
   59.2480   26.6510   45.5540 C   0  0  0  0  0  0  0  0  0  0  0  0
   58.7220   26.1490   46.8720 C   0  0  0  0  0  0  0  0  0  0  0  0
   59.2140   26.5900   47.9470 O   0  0  0  0  0  0  0  0  0  0  0  0
   57.6260   25.2260   46.8950 N   0  0  0  0  0  0  0  0  0  0  0  0
   57.1920   24.4140   45.7940 C   0  0  0  0  0  0  0  0  0  0  0  0
   58.1000   23.5060   45.2350 C   0  0  0  0  0  0  0  0  0  0  0  0
   57.7190   22.6920   44.1630 C   0  0  0  0  0  0  0  0  0  0  0  0
   56.4220   22.7730   43.6510 C   0  0  0  0  0  0  0  0  0  0  0  0
   56.0570   21.9840   42.6100 F   0  0  0  0  0  0  0  0  0  0  0  0
   55.4970   23.6520   44.2250 C   0  0  0  0  0  0  0  0  0  0  0  0
   54.2290   23.7060   43.7460 F   0  0  0  0  0  0  0  0  0  0  0  0
   55.8720   24.4630   45.3030 C   0  0  0  0  0  0  0  0  0  0  0  0
   54.9320   25.2420   45.8980 F   0  0  0  0  0  0  0  0  0  0  0  0
   59.7399   29.4051   45.5294 H   0  0  0  0  0  0  0  0  0  0  0  0
   60.1971   28.5317   44.0277 H   0  0  0  0  0  0  0  0  0  0  0  0
   58.7823   29.6385   44.0277 H   0  0  0  0  0  0  0  0  0  0  0  0
   56.7479   27.3701   46.1438 H   0  0  0  0  0  0  0  0  0  0  0  0
   57.8518   28.6217   46.8394 H   0  0  0  0  0  0  0  0  0  0  0  0
   57.1212   30.8511   43.1732 H   0  0  0  0  0  0  0  0  0  0  0  0
   56.0640   32.0308   44.0222 H   0  0  0  0  0  0  0  0  0  0  0  0
   59.0002   32.0779   44.6873 H   0  0  0  0  0  0  0  0  0  0  0  0
   58.5077   32.6965   43.0722 H   0  0  0  0  0  0  0  0  0  0  0  0
   59.5423   34.5840   44.0826 H   0  0  0  0  0  0  0  0  0  0  0  0
   58.3683   35.7454   44.8440 H   0  0  0  0  0  0  0  0  0  0  0  0
   60.5994   34.7869   46.1102 H   0  0  0  0  0  0  0  0  0  0  0  0
   59.0930   35.3211   46.9514 H   0  0  0  0  0  0  0  0  0  0  0  0
   57.8380   32.0190   47.3169 H   0  0  0  0  0  0  0  0  0  0  0  0
   57.7793   33.7055   48.0048 H   0  0  0  0  0  0  0  0  0  0  0  0
   56.2558   32.7437   45.8621 H   0  0  0  0  0  0  0  0  0  0  0  0
   56.5444   34.4766   46.3117 H   0  0  0  0  0  0  0  0  0  0  0  0
   59.2107   25.8263   44.8270 H   0  0  0  0  0  0  0  0  0  0  0  0
   60.2744   27.0060   45.7284 H   0  0  0  0  0  0  0  0  0  0  0  0
   59.1195   23.4324   45.6416 H   0  0  0  0  0  0  0  0  0  0  0  0
   58.4409   21.9881   43.7232 H   0  0  0  0  0  0  0  0  0  0  0  0
  1  2  1  0
  2  3  1  0
  3  4  1  0
  4  5  2  0
  4  6  1  0
  6  7  1  0
  7  8  1  0
  8  9  1  0
  9 10  1  0
 10 11  1  0
 11 12  1  0
 12 13  1  0
 13 14  1  0
  2 15  1  0
 15 16  1  0
 16 17  2  0
 16 18  1  0
 18 19  1  0
 19 20  2  0
 20 21  1  0
 21 22  2  0
 22 23  1  0
 22 24  1  0
 24 25  1  0
 24 26  2  0
 26 27  1  0
 14  9  1  0
 26 19  1  0
  1 28  1  0
  1 29  1  0
  1 30  1  0
  3 31  1  0
  3 32  1  0
  7 33  1  0
  7 34  1  0
  8 35  1  0
  8 36  1  0
 10 37  1  0
 10 38  1  0
 11 39  1  0
 11 40  1  0
 13 41  1  0
 13 42  1  0
 14 43  1  0
 14 44  1  0
 15 45  1  0
 15 46  1  0
 20 47  1  0
 21 48  1  0
M  CHG  2   6  -1  18  -1
M  END
>  <UniqueID>  (53) 
45

>  <SMILES>  (53) 
CN(CC(=O)[N-]CCN1CCOCC1)CC(=O)[N-]c1ccc(F)c(F)c1F

>  <Energy>  (53) 
62.14922664189008

>  <Genealogy>  (53) 
CN(CC(=O)[N-]CCN1CCOCC1)CC(=O)[N-]c1ccc(F)c(F)c1F (protonated)
CN(CC(=O)[N-]CCN1CCOCC1)CC(=O)[N-]c1ccc(F)c(F)c1F (3D coordinates assigned)
CN(CC(=O)[N-]CCN1CCOCC1)CC(=O)[N-]c1ccc(F)c(F)c1F (nonaromatic ring conformer: 62.14922664189008 kcal/mol)

>  <smiles>  (53) 
CN(CC(=O)NCCN1CCOCC1)CC(=O)Nc1ccc(F)c(F)c1F

>  <score_type>  (53) 
oracle

>  <origin>  (53) 
adg

>  <m_score__min__energy>  (53) 
-11.52

>  <m_primary>  (53) 
energy

$$$$
53:0
     RDKit          3D

 35 37  0  0  0  0  0  0  0  0999 V2000
   55.3550   31.4630   44.2850 H   0  0  0  0  0  0  0  0  0  0  0  0
   56.3450   31.5480   44.4850 O   0  0  0  0  0  0  0  0  0  0  0  0
   57.1130   30.4540   44.8820 C   0  0  0  0  0  0  0  0  0  0  0  0
   58.5010   30.6250   45.0800 C   0  0  0  0  0  0  0  0  0  0  0  0
   58.9560   31.6136   44.9195 H   0  0  0  0  0  0  0  0  0  0  0  0
   59.3070   29.5450   45.4800 C   0  0  0  0  0  0  0  0  0  0  0  0
   60.3885   29.6714   45.6364 H   0  0  0  0  0  0  0  0  0  0  0  0
   58.6930   28.3100   45.6720 C   0  0  0  0  0  0  0  0  0  0  0  0
   57.3390   28.1300   45.4820 C   0  0  0  0  0  0  0  0  0  0  0  0
   56.5220   29.1860   45.0850 C   0  0  0  0  0  0  0  0  0  0  0  0
   55.1580   28.9870   44.8980 O   0  0  0  0  0  0  0  0  0  0  0  0
   56.9510   26.8160   45.7320 O   0  0  0  0  0  0  0  0  0  0  0  0
   58.0990   26.1100   46.1040 C   0  0  0  0  0  0  0  0  0  0  0  0
   58.1480   24.8070   46.4040 C   0  0  0  0  0  0  0  0  0  0  0  0
   58.6341   24.5099   47.3450 H   0  0  0  0  0  0  0  0  0  0  0  0
   57.5860   23.7420   45.5430 C   0  0  0  0  0  0  0  0  0  0  0  0
   57.4400   23.9040   44.1540 C   0  0  0  0  0  0  0  0  0  0  0  0
   57.7659   24.8392   43.6753 H   0  0  0  0  0  0  0  0  0  0  0  0
   56.8840   22.8850   43.3790 C   0  0  0  0  0  0  0  0  0  0  0  0
   56.7833   23.0161   42.2915 H   0  0  0  0  0  0  0  0  0  0  0  0
   56.4550   21.6990   43.9800 C   0  0  0  0  0  0  0  0  0  0  0  0
   55.9060   20.6930   43.1930 O   0  0  0  0  0  0  0  0  0  0  0  0
   56.5720   21.5220   45.3640 C   0  0  0  0  0  0  0  0  0  0  0  0
   56.1180   20.3140   45.9210 O   0  0  0  0  0  0  0  0  0  0  0  0
   56.8590   19.0960   45.9900 C   0  0  0  0  0  0  0  0  0  0  0  0
   57.3674   18.9284   45.0290 H   0  0  0  0  0  0  0  0  0  0  0  0
   56.1627   18.2718   46.2041 H   0  0  0  0  0  0  0  0  0  0  0  0
   57.9000   19.1570   47.1020 C   0  0  0  0  0  0  0  0  0  0  0  0
   57.3952   19.1274   48.0789 H   0  0  0  0  0  0  0  0  0  0  0  0
   58.5805   18.2972   47.0148 H   0  0  0  0  0  0  0  0  0  0  0  0
   58.4755   20.0904   47.0148 H   0  0  0  0  0  0  0  0  0  0  0  0
   57.1290   22.5560   46.1440 C   0  0  0  0  0  0  0  0  0  0  0  0
   57.2068   22.4335   47.2344 H   0  0  0  0  0  0  0  0  0  0  0  0
   59.2380   27.0280   46.0760 C   0  0  0  0  0  0  0  0  0  0  0  0
   60.4400   26.7650   46.3440 O   0  0  0  0  0  0  0  0  0  0  0  0
  1  2  1  0
  2  3  1  0
  3  4  2  0
  4  5  1  0
  4  6  1  0
  6  7  1  0
  6  8  2  0
  8  9  1  0
  9 10  2  0
 10 11  1  0
  9 12  1  0
 12 13  1  0
 13 14  2  0
 14 15  1  0
 14 16  1  0
 16 17  2  0
 17 18  1  0
 17 19  1  0
 19 20  1  0
 19 21  2  0
 21 22  1  0
 21 23  1  0
 23 24  1  0
 24 25  1  0
 25 26  1  0
 25 27  1  0
 25 28  1  0
 28 29  1  0
 28 30  1  0
 28 31  1  0
 23 32  2  0
 32 33  1  0
 13 34  1  0
 34 35  2  0
 10  3  1  0
 32 16  1  0
 34  8  1  0
M  CHG  2  11  -1  22  -1
M  END
>  <UniqueID>  (54) 
46

>  <SMILES>  (54) 
CCOc1cc(/C=C2\Oc3c(ccc(O)c3[O-])C2=O)ccc1[O-]

>  <Energy>  (54) 
71.03138038172638

>  <Genealogy>  (54) 
CCOc1cc(C=C2Oc3c(ccc(O)c3[O-])C2=O)ccc1[O-] (protonated)
CCOc1cc(/C=C2\Oc3c(ccc(O)c3[O-])C2=O)ccc1[O-] (cis-trans isomerization)
CCOc1cc(/C=C2\Oc3c(ccc(O)c3[O-])C2=O)ccc1[O-] (3D coordinates assigned)
CCOc1cc(/C=C2\Oc3c(ccc(O)c3[O-])C2=O)ccc1[O-] (nonaromatic ring conformer: 71.03138038172638 kcal/mol)

>  <smiles>  (54) 
CCOc1cc(C=C2Oc3c(ccc(O)c3O)C2=O)ccc1O

>  <score_type>  (54) 
oracle

>  <origin>  (54) 
adg

>  <m_score__min__energy>  (54) 
-12.029999999999999

>  <m_primary>  (54) 
energy

$$$$
54:0
     RDKit          3D

 33 35  0  0  0  0  0  0  0  0999 V2000
   55.4600   29.3390   44.9720 O   0  0  0  0  0  0  0  0  0  0  0  0
   56.5570   28.8000   45.2740 C   0  0  0  0  0  0  0  0  0  0  0  0
   57.7410   29.6080   45.3000 N   0  0  0  0  0  0  0  0  0  0  0  0
   57.7790   31.0380   45.4110 C   0  0  0  0  0  0  0  0  0  0  0  0
   57.3850   31.8720   44.3480 C   0  0  0  0  0  0  0  0  0  0  0  0
   57.4170   33.2610   44.4970 C   0  0  0  0  0  0  0  0  0  0  0  0
   57.8260   33.8270   45.7070 C   0  0  0  0  0  0  0  0  0  0  0  0
   58.1960   33.0040   46.7730 C   0  0  0  0  0  0  0  0  0  0  0  0
   58.1660   31.6130   46.6280 C   0  0  0  0  0  0  0  0  0  0  0  0
   56.5860   27.4090   45.6270 N   0  0  0  0  0  0  0  0  0  0  0  0
   57.6800   26.6290   45.7360 C   0  0  0  0  0  0  0  0  0  0  0  0
   57.2660   25.3830   46.1430 C   0  0  0  0  0  0  0  0  0  0  0  0
   58.0940   24.2720   46.3340 O   0  0  0  0  0  0  0  0  0  0  0  0
   57.9130   23.0200   45.7290 C   0  0  0  0  0  0  0  0  0  0  0  0
   57.1560   22.0540   46.3990 C   0  0  0  0  0  0  0  0  0  0  0  0
   56.9510   20.8050   45.8080 C   0  0  0  0  0  0  0  0  0  0  0  0
   57.4740   20.5340   44.5800 N   0  0  0  0  0  0  0  0  0  0  0  0
   58.1960   21.4640   43.8980 C   0  0  0  0  0  0  0  0  0  0  0  0
   58.4240   22.7240   44.4560 C   0  0  0  0  0  0  0  0  0  0  0  0
   55.8900   25.4650   46.2640 C   0  0  0  0  0  0  0  0  0  0  0  0
   55.5030   26.7180   45.9530 N   0  0  0  0  0  0  0  0  0  0  0  0
   57.0512   31.4295   43.3979 H   0  0  0  0  0  0  0  0  0  0  0  0
   57.1196   33.9099   43.6601 H   0  0  0  0  0  0  0  0  0  0  0  0
   57.8566   34.9207   45.8201 H   0  0  0  0  0  0  0  0  0  0  0  0
   58.5114   33.4501   47.7277 H   0  0  0  0  0  0  0  0  0  0  0  0
   58.4476   30.9680   47.4734 H   0  0  0  0  0  0  0  0  0  0  0  0
   58.7175   26.9346   45.5353 H   0  0  0  0  0  0  0  0  0  0  0  0
   56.7243   22.2764   47.3860 H   0  0  0  0  0  0  0  0  0  0  0  0
   56.3654   20.0380   46.3360 H   0  0  0  0  0  0  0  0  0  0  0  0
   57.3110   19.5970   44.1510 H   0  0  0  0  0  0  0  0  0  0  0  0
   58.6013   21.2229   42.9042 H   0  0  0  0  0  0  0  0  0  0  0  0
   59.0002   23.4792   43.9013 H   0  0  0  0  0  0  0  0  0  0  0  0
   55.2227   24.6437   46.5642 H   0  0  0  0  0  0  0  0  0  0  0  0
  1  2  2  0
  2  3  1  0
  3  4  1  0
  4  5  2  0
  5  6  1  0
  6  7  2  0
  7  8  1  0
  8  9  2  0
  2 10  1  0
 10 11  1  0
 11 12  2  0
 12 13  1  0
 13 14  1  0
 14 15  2  0
 15 16  1  0
 16 17  2  0
 17 18  1  0
 18 19  2  0
 12 20  1  0
 20 21  2  0
  9  4  1  0
 21 10  1  0
 19 14  1  0
  5 22  1  0
  6 23  1  0
  7 24  1  0
  8 25  1  0
  9 26  1  0
 11 27  1  0
 15 28  1  0
 16 29  1  0
 17 30  1  0
 18 31  1  0
 19 32  1  0
 20 33  1  0
M  CHG  2   3  -1  17   1
M  END
>  <UniqueID>  (55) 
47

>  <SMILES>  (55) 
O=C([N-]c1ccccc1)n1cc(Oc2cc[nH+]cc2)cn1

>  <Energy>  (55) 
77.33290356020498

>  <Genealogy>  (55) 
O=C([N-]c1ccccc1)n1cc(Oc2cc[nH+]cc2)cn1 (protonated)
O=C([N-]c1ccccc1)n1cc(Oc2cc[nH+]cc2)cn1 (3D coordinates assigned)
O=C([N-]c1ccccc1)n1cc(Oc2cc[nH+]cc2)cn1 (optimized conformer: 77.33290356020498 kcal/mol)

>  <smiles>  (55) 
O=C(Nc1ccccc1)n1cc(Oc2ccncc2)cn1

>  <score_type>  (55) 
oracle

>  <origin>  (55) 
adg

>  <m_score__min__energy>  (55) 
-7.6500000000000004

>  <m_primary>  (55) 
energy

$$$$
55:0
     RDKit          3D

 38 41  0  0  0  0  0  0  0  0999 V2000
   55.8005   24.5498   46.7108 H   0  0  0  0  0  0  0  0  0  0  0  0
   56.2530   25.4980   46.3850 C   0  0  0  0  0  0  0  0  0  0  0  0
   55.5160   26.5600   45.9670 N   0  0  0  0  0  0  0  0  0  0  0  0
   56.4530   27.4720   45.6770 C   0  0  0  0  0  0  0  0  0  0  0  0
   56.2670   28.7650   45.1940 C   0  0  0  0  0  0  0  0  0  0  0  0
   55.2577   29.1535   44.9929 H   0  0  0  0  0  0  0  0  0  0  0  0
   57.4080   29.5620   44.9700 C   0  0  0  0  0  0  0  0  0  0  0  0
   57.2250   30.8870   44.4440 N   0  0  0  0  0  0  0  0  0  0  0  0
   57.6630   31.9980   44.9620 C   0  0  0  0  0  0  0  0  0  0  0  0
   58.3710   32.0050   46.1250 N   0  0  0  0  0  0  0  0  0  0  0  0
   58.8180   33.1620   46.6860 C   0  0  0  0  0  0  0  0  0  0  0  0
   59.5630   33.1160   47.9230 N   0  0  0  0  0  0  0  0  0  0  0  0
   60.9860   33.3400   47.9450 C   0  0  0  0  0  0  0  0  0  0  0  0
   61.6450   33.6130   49.1560 C   0  0  0  0  0  0  0  0  0  0  0  0
   61.0726   33.6536   50.0944 H   0  0  0  0  0  0  0  0  0  0  0  0
   63.0250   33.8330   49.1720 C   0  0  0  0  0  0  0  0  0  0  0  0
   63.5365   34.0450   50.1225 H   0  0  0  0  0  0  0  0  0  0  0  0
   63.7560   33.7840   47.9820 C   0  0  0  0  0  0  0  0  0  0  0  0
   64.8423   33.9565   47.9968 H   0  0  0  0  0  0  0  0  0  0  0  0
   63.1080   33.5160   46.7730 C   0  0  0  0  0  0  0  0  0  0  0  0
   63.6847   33.4782   45.8371 H   0  0  0  0  0  0  0  0  0  0  0  0
   61.7280   33.2960   46.7520 C   0  0  0  0  0  0  0  0  0  0  0  0
   61.2207   33.0877   45.7985 H   0  0  0  0  0  0  0  0  0  0  0  0
   58.8940   32.6550   49.1430 C   0  0  0  0  0  0  0  0  0  0  0  0
   59.4374   33.0295   50.0230 H   0  0  0  0  0  0  0  0  0  0  0  0
   57.8616   33.0343   49.1608 H   0  0  0  0  0  0  0  0  0  0  0  0
   58.8809   31.5552   49.1608 H   0  0  0  0  0  0  0  0  0  0  0  0
   58.5160   34.3800   46.0580 C   0  0  0  0  0  0  0  0  0  0  0  0
   58.8514   35.3331   46.4928 H   0  0  0  0  0  0  0  0  0  0  0  0
   57.7830   34.3590   44.8730 C   0  0  0  0  0  0  0  0  0  0  0  0
   57.5389   35.3012   44.3604 H   0  0  0  0  0  0  0  0  0  0  0  0
   57.3700   33.1750   44.3510 N   0  0  0  0  0  0  0  0  0  0  0  0
   58.7030   29.0120   45.1940 C   0  0  0  0  0  0  0  0  0  0  0  0
   59.5968   29.6174   44.9828 H   0  0  0  0  0  0  0  0  0  0  0  0
   58.8480   27.7010   45.6830 C   0  0  0  0  0  0  0  0  0  0  0  0
   59.8429   27.2728   45.8748 H   0  0  0  0  0  0  0  0  0  0  0  0
   57.6910   26.9640   45.9160 C   0  0  0  0  0  0  0  0  0  0  0  0
   57.5960   25.7050   46.3670 N   0  0  0  0  0  0  0  0  0  0  0  0
  1  2  1  0
  2  3  2  0
  3  4  1  0
  4  5  2  0
  5  6  1  0
  5  7  1  0
  7  8  1  0
  8  9  2  0
  9 10  1  0
 10 11  2  0
 11 12  1  0
 12 13  1  0
 13 14  2  0
 14 15  1  0
 14 16  1  0
 16 17  1  0
 16 18  2  0
 18 19  1  0
 18 20  1  0
 20 21  1  0
 20 22  2  0
 22 23  1  0
 12 24  1  0
 24 25  1  0
 24 26  1  0
 24 27  1  0
 11 28  1  0
 28 29  1  0
 28 30  2  0
 30 31  1  0
 30 32  1  0
  7 33  2  0
 33 34  1  0
 33 35  1  0
 35 36  1  0
 35 37  2  0
 37 38  1  0
 38  2  1  0
 37  4  1  0
 32  9  1  0
 22 13  1  0
M  CHG  2  32  -1  38  -1
M  END
>  <UniqueID>  (56) 
48

>  <SMILES>  (56) 
CN(c1ccccc1)c1cc[n-]/c(=N/c2ccc3[n-]cnc3c2)n1

>  <Energy>  (56) 
91.25929302854885

>  <Genealogy>  (56) 
CN(c1ccccc1)c1cc[n-]c(=Nc2ccc3[n-]cnc3c2)n1 (protonated)
CN(c1ccccc1)c1cc[n-]/c(=N/c2ccc3[n-]cnc3c2)n1 (cis-trans isomerization)
CN(c1ccccc1)c1cc[n-]/c(=N/c2ccc3[n-]cnc3c2)n1 (3D coordinates assigned)
CN(c1ccccc1)c1cc[n-]/c(=N/c2ccc3[n-]cnc3c2)n1 (optimized conformer: 91.25929302854885 kcal/mol)

>  <smiles>  (56) 
CN(c1ccccc1)c1cc[nH]c(=Nc2ccc3[nH]cnc3c2)n1

>  <score_type>  (56) 
oracle

>  <origin>  (56) 
adg

>  <m_score__min__energy>  (56) 
-10.779999999999999

>  <m_primary>  (56) 
energy

$$$$
56:0
     RDKit          3D

 40 43  0  0  0  0  0  0  0  0999 V2000
   59.9780   34.5230   47.0940 O   0  0  0  0  0  0  0  0  0  0  0  0
   60.3020   33.3760   46.6810 C   0  0  0  0  0  0  0  0  0  0  0  0
   61.5860   32.8300   47.0300 N   0  0  0  0  0  0  0  0  0  0  0  0
   62.3570   33.2650   48.1630 C   0  0  0  0  0  0  0  0  0  0  0  0
   61.7830   34.1500   49.0900 C   0  0  0  0  0  0  0  0  0  0  0  0
   62.5210   34.6020   50.1880 C   0  0  0  0  0  0  0  0  0  0  0  0
   63.8440   34.1870   50.3620 C   0  0  0  0  0  0  0  0  0  0  0  0
   64.4320   33.3240   49.4330 C   0  0  0  0  0  0  0  0  0  0  0  0
   63.6970   32.8670   48.3350 C   0  0  0  0  0  0  0  0  0  0  0  0
   59.3730   32.6280   45.7980 C   0  0  0  0  0  0  0  0  0  0  0  0
   58.7850   33.2460   44.6800 C   0  0  0  0  0  0  0  0  0  0  0  0
   57.9140   32.5320   43.8550 C   0  0  0  0  0  0  0  0  0  0  0  0
   57.6220   31.1950   44.1290 C   0  0  0  0  0  0  0  0  0  0  0  0
   58.2060   30.5540   45.2320 C   0  0  0  0  0  0  0  0  0  0  0  0
   57.9110   29.1740   45.5110 N   0  0  0  0  0  0  0  0  0  0  0  0
   58.8290   28.1390   45.8800 C   0  0  0  0  0  0  0  0  0  0  0  0
   60.0760   28.2910   45.9730 O   0  0  0  0  0  0  0  0  0  0  0  0
   58.1140   26.8820   46.0700 C   0  0  0  0  0  0  0  0  0  0  0  0
   58.5810   25.6180   46.4250 C   0  0  0  0  0  0  0  0  0  0  0  0
   57.6450   24.5730   46.5330 C   0  0  0  0  0  0  0  0  0  0  0  0
   56.2760   24.8110   46.2840 C   0  0  0  0  0  0  0  0  0  0  0  0
   55.8310   26.0960   45.9250 C   0  0  0  0  0  0  0  0  0  0  0  0
   54.4850   26.3380   45.6790 O   0  0  0  0  0  0  0  0  0  0  0  0
   56.7770   27.1160   45.8230 C   0  0  0  0  0  0  0  0  0  0  0  0
   56.6320   28.5270   45.4790 C   0  0  0  0  0  0  0  0  0  0  0  0
   55.5440   29.1120   45.2360 O   0  0  0  0  0  0  0  0  0  0  0  0
   59.0820   31.2760   46.0600 C   0  0  0  0  0  0  0  0  0  0  0  0
   62.0340   32.1620   46.3620 H   0  0  0  0  0  0  0  0  0  0  0  0
   60.7460   34.4898   48.9513 H   0  0  0  0  0  0  0  0  0  0  0  0
   62.0595   35.2854   50.9161 H   0  0  0  0  0  0  0  0  0  0  0  0
   64.4220   34.5391   51.2291 H   0  0  0  0  0  0  0  0  0  0  0  0
   65.4758   33.0035   49.5661 H   0  0  0  0  0  0  0  0  0  0  0  0
   64.1670   32.1941   47.6027 H   0  0  0  0  0  0  0  0  0  0  0  0
   59.0127   34.2982   44.4542 H   0  0  0  0  0  0  0  0  0  0  0  0
   57.4558   33.0254   42.9851 H   0  0  0  0  0  0  0  0  0  0  0  0
   56.9306   30.6411   43.4770 H   0  0  0  0  0  0  0  0  0  0  0  0
   59.6501   25.4423   46.6152 H   0  0  0  0  0  0  0  0  0  0  0  0
   57.9822   23.5641   46.8132 H   0  0  0  0  0  0  0  0  0  0  0  0
   55.5530   23.9866   46.3713 H   0  0  0  0  0  0  0  0  0  0  0  0
   59.5464   30.7783   46.9241 H   0  0  0  0  0  0  0  0  0  0  0  0
  1  2  2  0
  2  3  1  0
  3  4  1  0
  4  5  2  0
  5  6  1  0
  6  7  2  0
  7  8  1  0
  8  9  2  0
  2 10  1  0
 10 11  2  0
 11 12  1  0
 12 13  2  0
 13 14  1  0
 14 15  1  0
 15 16  1  0
 16 17  2  0
 16 18  1  0
 18 19  2  0
 19 20  1  0
 20 21  2  0
 21 22  1  0
 22 23  1  0
 22 24  2  0
 24 25  1  0
 25 26  2  0
 14 27  2  0
  9  4  1  0
 27 10  1  0
 25 15  1  0
 24 18  1  0
  3 28  1  0
  5 29  1  0
  6 30  1  0
  7 31  1  0
  8 32  1  0
  9 33  1  0
 11 34  1  0
 12 35  1  0
 13 36  1  0
 19 37  1  0
 20 38  1  0
 21 39  1  0
 27 40  1  0
M  CHG  1  23  -1
M  END
>  <UniqueID>  (57) 
49

>  <SMILES>  (57) 
O=C(Nc1ccccc1)c1cccc(N2C(=O)c3cccc([O-])c3C2=O)c1

>  <Energy>  (57) 
87.88495668095189

>  <Genealogy>  (57) 
O=C(Nc1ccccc1)c1cccc(N2C(=O)c3cccc([O-])c3C2=O)c1 (protonated)
O=C(Nc1ccccc1)c1cccc(N2C(=O)c3cccc([O-])c3C2=O)c1 (3D coordinates assigned)
O=C(Nc1ccccc1)c1cccc(N2C(=O)c3cccc([O-])c3C2=O)c1 (nonaromatic ring conformer: 87.88495668095189 kcal/mol)

>  <smiles>  (57) 
O=C(Nc1ccccc1)c1cccc(N2C(=O)c3cccc(O)c3C2=O)c1

>  <score_type>  (57) 
oracle

>  <origin>  (57) 
adg

>  <m_score__min__energy>  (57) 
-12.789999999999999

>  <m_primary>  (57) 
energy

$$$$
57:0
     RDKit          3D

 55 58  0  0  0  0  0  0  0  0999 V2000
   56.2500   30.2010   52.6940 C   0  0  0  0  0  0  0  0  0  0  0  0
   57.3060   29.6160   51.9380 O   0  0  0  0  0  0  0  0  0  0  0  0
   57.9720   30.2550   50.8800 C   0  0  0  0  0  0  0  0  0  0  0  0
   58.0820   31.6460   50.9100 C   0  0  0  0  0  0  0  0  0  0  0  0
   58.7230   32.3290   49.8750 C   0  0  0  0  0  0  0  0  0  0  0  0
   59.2870   31.6290   48.7960 C   0  0  0  0  0  0  0  0  0  0  0  0
   59.8970   32.3300   47.7010 N   0  0  0  0  0  0  0  0  0  0  0  0
   59.2280   33.0680   46.6690 C   0  0  0  0  0  0  0  0  0  0  0  0
   59.2880   34.3280   46.6530 O   0  0  0  0  0  0  0  0  0  0  0  0
   58.5120   32.3500   45.5920 C   0  0  0  0  0  0  0  0  0  0  0  0
   58.5540   32.8090   44.2640 C   0  0  0  0  0  0  0  0  0  0  0  0
   57.8720   32.1200   43.2600 C   0  0  0  0  0  0  0  0  0  0  0  0
   57.1490   30.9720   43.5880 C   0  0  0  0  0  0  0  0  0  0  0  0
   56.2830   30.0890   42.3470 Cl  0  0  0  0  0  0  0  0  0  0  0  0
   57.1130   30.5370   44.8740 N   0  0  0  0  0  0  0  0  0  0  0  0
   57.7690   31.1880   45.8710 C   0  0  0  0  0  0  0  0  0  0  0  0
   59.1720   30.2220   48.7540 C   0  0  0  0  0  0  0  0  0  0  0  0
   59.7590   29.2570   47.3890 S   0  0  0  0  0  0  0  0  0  0  0  0
   60.4350   30.0960   46.3420 O   0  0  0  0  0  0  0  0  0  0  0  0
   60.7490   28.2500   47.9070 O   0  0  0  0  0  0  0  0  0  0  0  0
   58.4150   28.4220   46.6820 N   0  0  0  0  0  0  0  0  0  0  0  0
   58.4970   27.0190   46.3870 C   0  0  0  0  0  0  0  0  0  0  0  0
   59.7330   26.3670   46.4990 C   0  0  0  0  0  0  0  0  0  0  0  0
   59.8640   25.0260   46.1510 C   0  0  0  0  0  0  0  0  0  0  0  0
   58.7590   24.3130   45.6770 C   0  0  0  0  0  0  0  0  0  0  0  0
   57.5040   24.9400   45.5680 C   0  0  0  0  0  0  0  0  0  0  0  0
   57.3650   26.3040   45.9310 C   0  0  0  0  0  0  0  0  0  0  0  0
   56.0720   26.9980   45.7880 C   0  0  0  0  0  0  0  0  0  0  0  0
   56.0330   28.1790   45.3510 O   0  0  0  0  0  0  0  0  0  0  0  0
   54.8920   26.3580   46.1440 O   0  0  0  0  0  0  0  0  0  0  0  0
   56.3410   24.0720   45.1350 C   0  0  0  0  0  0  0  0  0  0  0  0
   56.7240   23.2080   43.9210 C   0  0  0  0  0  0  0  0  0  0  0  0
   58.1250   22.5510   44.0180 C   0  0  0  0  0  0  0  0  0  0  0  0
   58.8760   22.8530   45.3250 C   0  0  0  0  0  0  0  0  0  0  0  0
   58.5180   29.5470   49.7960 C   0  0  0  0  0  0  0  0  0  0  0  0
   56.4597   30.0849   53.7676 H   0  0  0  0  0  0  0  0  0  0  0  0
   56.1726   31.2706   52.4491 H   0  0  0  0  0  0  0  0  0  0  0  0
   55.3022   29.6993   52.4491 H   0  0  0  0  0  0  0  0  0  0  0  0
   57.6602   32.2086   51.7559 H   0  0  0  0  0  0  0  0  0  0  0  0
   58.7870   33.4267   49.9048 H   0  0  0  0  0  0  0  0  0  0  0  0
   59.1266   33.7147   44.0152 H   0  0  0  0  0  0  0  0  0  0  0  0
   57.9040   32.4782   42.2204 H   0  0  0  0  0  0  0  0  0  0  0  0
   57.7187   30.8046   46.9008 H   0  0  0  0  0  0  0  0  0  0  0  0
   57.6550   29.0030   46.2680 H   0  0  0  0  0  0  0  0  0  0  0  0
   60.6091   26.9217   46.8661 H   0  0  0  0  0  0  0  0  0  0  0  0
   60.8389   24.5261   46.2491 H   0  0  0  0  0  0  0  0  0  0  0  0
   56.0522   23.4146   45.9683 H   0  0  0  0  0  0  0  0  0  0  0  0
   55.5016   24.7241   44.8519 H   0  0  0  0  0  0  0  0  0  0  0  0
   55.9756   22.4084   43.8181 H   0  0  0  0  0  0  0  0  0  0  0  0
   56.7534   23.8827   43.0527 H   0  0  0  0  0  0  0  0  0  0  0  0
   58.0009   21.4611   43.9359 H   0  0  0  0  0  0  0  0  0  0  0  0
   58.7290   22.9750   43.2023 H   0  0  0  0  0  0  0  0  0  0  0  0
   58.4453   22.2494   46.1375 H   0  0  0  0  0  0  0  0  0  0  0  0
   59.9389   22.6044   45.1895 H   0  0  0  0  0  0  0  0  0  0  0  0
   58.4318   28.4509   49.7639 H   0  0  0  0  0  0  0  0  0  0  0  0
  1  2  1  0
  2  3  1  0
  3  4  2  0
  4  5  1  0
  5  6  2  0
  6  7  1  0
  7  8  1  0
  8  9  2  0
  8 10  1  0
 10 11  2  0
 11 12  1  0
 12 13  2  0
 13 14  1  0
 13 15  1  0
 15 16  2  0
  6 17  1  0
 17 18  1  0
 18 19  2  0
 18 20  2  0
 18 21  1  0
 21 22  1  0
 22 23  2  0
 23 24  1  0
 24 25  2  0
 25 26  1  0
 26 27  2  0
 27 28  1  0
 28 29  2  0
 28 30  1  0
 26 31  1  0
 31 32  1  0
 32 33  1  0
 33 34  1  0
 17 35  2  0
 35  3  1  0
 16 10  1  0
 27 22  1  0
 34 25  1  0
  1 36  1  0
  1 37  1  0
  1 38  1  0
  4 39  1  0
  5 40  1  0
 11 41  1  0
 12 42  1  0
 16 43  1  0
 21 44  1  0
 23 45  1  0
 24 46  1  0
 31 47  1  0
 31 48  1  0
 32 49  1  0
 32 50  1  0
 33 51  1  0
 33 52  1  0
 34 53  1  0
 34 54  1  0
 35 55  1  0
M  CHG  2   7  -1  30  -1
M  END
>  <UniqueID>  (58) 
50

>  <SMILES>  (58) 
COc1ccc([N-]C(=O)c2ccc(Cl)nc2)c(S(=O)(=O)Nc2ccc3c(c2C(=O)[O-])CCCC3)c1

>  <Energy>  (58) 
81.6102518413494

>  <Genealogy>  (58) 
COc1ccc([N-]C(=O)c2ccc(Cl)nc2)c(S(=O)(=O)Nc2ccc3c(c2C(=O)[O-])CCCC3)c1 (protonated)
COc1ccc([N-]C(=O)c2ccc(Cl)nc2)c(S(=O)(=O)Nc2ccc3c(c2C(=O)[O-])CCCC3)c1 (3D coordinates assigned)
COc1ccc([N-]C(=O)c2ccc(Cl)nc2)c(S(=O)(=O)Nc2ccc3c(c2C(=O)[O-])CCCC3)c1 (nonaromatic ring conformer: 81.6102518413494 kcal/mol)

>  <smiles>  (58) 
COc1ccc(NC(=O)c2ccc(Cl)nc2)c(S(=O)(=O)Nc2ccc3c(c2C(=O)O)CCCC3)c1

>  <score_type>  (58) 
oracle

>  <origin>  (58) 
adg

>  <m_score__min__energy>  (58) 
-13.029999999999999

>  <m_primary>  (58) 
energy

$$$$
58:0
     RDKit          3D

 32 34  0  0  0  0  0  0  0  0999 V2000
   60.9770   26.1570   46.3740 O   0  0  0  0  0  0  0  0  0  0  0  0
   60.1980   27.1210   46.1410 C   0  0  0  0  0  0  0  0  0  0  0  0
   60.7680   28.4990   45.9960 C   0  0  0  0  0  0  0  0  0  0  0  0
   59.8410   29.4460   45.2840 C   0  0  0  0  0  0  0  0  0  0  0  0
   58.5160   29.2400   45.1550 C   0  0  0  0  0  0  0  0  0  0  0  0
   57.6920   30.2890   44.4320 C   0  0  0  0  0  0  0  0  0  0  0  0
   57.8830   31.6520   45.0510 C   0  0  0  0  0  0  0  0  0  0  0  0
   58.1460   31.7740   46.4280 C   0  0  0  0  0  0  0  0  0  0  0  0
   58.3250   33.0350   47.0030 C   0  0  0  0  0  0  0  0  0  0  0  0
   58.2330   34.1850   46.2140 C   0  0  0  0  0  0  0  0  0  0  0  0
   57.9570   34.0750   44.8480 C   0  0  0  0  0  0  0  0  0  0  0  0
   57.7780   32.8150   44.2680 C   0  0  0  0  0  0  0  0  0  0  0  0
   57.9050   27.9570   45.6290 C   0  0  0  0  0  0  0  0  0  0  0  0
   56.5100   27.7480   45.6090 C   0  0  0  0  0  0  0  0  0  0  0  0
   55.9640   26.5260   46.0110 C   0  0  0  0  0  0  0  0  0  0  0  0
   54.5880   26.3380   45.9840 O   0  0  0  0  0  0  0  0  0  0  0  0
   56.7980   25.4940   46.4390 C   0  0  0  0  0  0  0  0  0  0  0  0
   58.1790   25.6820   46.4760 C   0  0  0  0  0  0  0  0  0  0  0  0
   58.7400   26.9100   46.0820 C   0  0  0  0  0  0  0  0  0  0  0  0
   60.9760   28.8998   46.9991 H   0  0  0  0  0  0  0  0  0  0  0  0
   61.6822   28.4151   45.3900 H   0  0  0  0  0  0  0  0  0  0  0  0
   60.2694   30.3585   44.8437 H   0  0  0  0  0  0  0  0  0  0  0  0
   58.0034   30.3265   43.3777 H   0  0  0  0  0  0  0  0  0  0  0  0
   56.6297   30.0149   44.5120 H   0  0  0  0  0  0  0  0  0  0  0  0
   58.2110   30.8724   47.0548 H   0  0  0  0  0  0  0  0  0  0  0  0
   58.5387   33.1227   48.0785 H   0  0  0  0  0  0  0  0  0  0  0  0
   58.3778   35.1765   46.6678 H   0  0  0  0  0  0  0  0  0  0  0  0
   57.8805   34.9807   44.2284 H   0  0  0  0  0  0  0  0  0  0  0  0
   57.5540   32.7335   43.1941 H   0  0  0  0  0  0  0  0  0  0  0  0
   55.8441   28.5565   45.2730 H   0  0  0  0  0  0  0  0  0  0  0  0
   56.3661   24.5306   46.7478 H   0  0  0  0  0  0  0  0  0  0  0  0
   58.8333   24.8654   46.8152 H   0  0  0  0  0  0  0  0  0  0  0  0
  1  2  2  0
  2  3  1  0
  3  4  1  0
  4  5  2  0
  5  6  1  0
  6  7  1  0
  7  8  2  0
  8  9  1  0
  9 10  2  0
 10 11  1  0
 11 12  2  0
  5 13  1  0
 13 14  2  0
 14 15  1  0
 15 16  1  0
 15 17  2  0
 17 18  1  0
 18 19  2  0
 19  2  1  0
 12  7  1  0
 19 13  1  0
  3 20  1  0
  3 21  1  0
  4 22  1  0
  6 23  1  0
  6 24  1  0
  8 25  1  0
  9 26  1  0
 10 27  1  0
 11 28  1  0
 12 29  1  0
 14 30  1  0
 17 31  1  0
 18 32  1  0
M  CHG  1  16  -1
M  END
>  <UniqueID>  (59) 
51

>  <SMILES>  (59) 
O=C1CC=C(Cc2ccccc2)c2cc([O-])ccc21

>  <Energy>  (59) 
38.61527016962592

>  <Genealogy>  (59) 
O=C1CC=C(Cc2ccccc2)c2cc([O-])ccc21 (protonated)
O=C1CC=C(Cc2ccccc2)c2cc([O-])ccc21 (3D coordinates assigned)
O=C1CC=C(Cc2ccccc2)c2cc([O-])ccc21 (nonaromatic ring conformer: 38.61527016962592 kcal/mol)

>  <smiles>  (59) 
O=C1CC=C(Cc2ccccc2)c2cc(O)ccc21

>  <score_type>  (59) 
oracle

>  <origin>  (59) 
adg

>  <m_score__min__energy>  (59) 
-11.449999999999999

>  <m_primary>  (59) 
energy

$$$$
59:0
     RDKit          3D

 33 34  0  0  0  0  0  0  0  0999 V2000
   54.5890   24.9440   45.6190 C   0  0  0  0  0  0  0  0  0  0  0  0
   54.9900   26.2570   45.9950 O   0  0  0  0  0  0  0  0  0  0  0  0
   56.3190   26.7090   46.0330 C   0  0  0  0  0  0  0  0  0  0  0  0
   57.3600   25.9070   46.5430 C   0  0  0  0  0  0  0  0  0  0  0  0
   58.6620   26.4070   46.6290 C   0  0  0  0  0  0  0  0  0  0  0  0
   58.9400   27.7100   46.2160 C   0  0  0  0  0  0  0  0  0  0  0  0
   57.9200   28.5130   45.6990 C   0  0  0  0  0  0  0  0  0  0  0  0
   56.6170   28.0140   45.5750 C   0  0  0  0  0  0  0  0  0  0  0  0
   55.6030   28.8740   45.0410 N   0  0  0  0  0  0  0  0  0  0  0  0
   55.8590   30.0410   44.2540 C   0  0  0  0  0  0  0  0  0  0  0  0
   55.5820   30.0520   43.0230 O   0  0  0  0  0  0  0  0  0  0  0  0
   56.4510   31.1860   44.8710 N   0  0  0  0  0  0  0  0  0  0  0  0
   57.4380   32.0310   44.2070 C   0  0  0  0  0  0  0  0  0  0  0  0
   58.0610   32.9760   45.1980 C   0  0  0  0  0  0  0  0  0  0  0  0
   58.7980   34.0840   44.7460 C   0  0  0  0  0  0  0  0  0  0  0  0
   59.4180   34.9380   45.6630 C   0  0  0  0  0  0  0  0  0  0  0  0
   59.3110   34.6920   47.0350 C   0  0  0  0  0  0  0  0  0  0  0  0
   58.5850   33.5900   47.4920 C   0  0  0  0  0  0  0  0  0  0  0  0
   57.9630   32.7330   46.5790 C   0  0  0  0  0  0  0  0  0  0  0  0
   54.4057   24.3438   46.5224 H   0  0  0  0  0  0  0  0  0  0  0  0
   53.6667   24.9991   45.0220 H   0  0  0  0  0  0  0  0  0  0  0  0
   55.3847   24.4744   45.0220 H   0  0  0  0  0  0  0  0  0  0  0  0
   57.1460   24.8806   46.8755 H   0  0  0  0  0  0  0  0  0  0  0  0
   59.4691   25.7720   47.0231 H   0  0  0  0  0  0  0  0  0  0  0  0
   59.9631   28.1058   46.2974 H   0  0  0  0  0  0  0  0  0  0  0  0
   58.1418   29.5443   45.3872 H   0  0  0  0  0  0  0  0  0  0  0  0
   58.2218   31.3973   43.7664 H   0  0  0  0  0  0  0  0  0  0  0  0
   56.9401   32.6139   43.4181 H   0  0  0  0  0  0  0  0  0  0  0  0
   58.8873   34.2799   43.6673 H   0  0  0  0  0  0  0  0  0  0  0  0
   59.9913   35.8055   45.3041 H   0  0  0  0  0  0  0  0  0  0  0  0
   59.7986   35.3663   47.7545 H   0  0  0  0  0  0  0  0  0  0  0  0
   58.5024   33.3960   48.5716 H   0  0  0  0  0  0  0  0  0  0  0  0
   57.3944   31.8646   46.9431 H   0  0  0  0  0  0  0  0  0  0  0  0
  1  2  1  0
  2  3  1  0
  3  4  2  0
  4  5  1  0
  5  6  2  0
  6  7  1  0
  7  8  2  0
  8  9  1  0
  9 10  1  0
 10 11  2  0
 10 12  1  0
 12 13  1  0
 13 14  1  0
 14 15  2  0
 15 16  1  0
 16 17  2  0
 17 18  1  0
 18 19  2  0
  8  3  1  0
 19 14  1  0
  1 20  1  0
  1 21  1  0
  1 22  1  0
  4 23  1  0
  5 24  1  0
  6 25  1  0
  7 26  1  0
 13 27  1  0
 13 28  1  0
 15 29  1  0
 16 30  1  0
 17 31  1  0
 18 32  1  0
 19 33  1  0
M  CHG  2   9  -1  12  -1
M  END
>  <UniqueID>  (60) 
52

>  <SMILES>  (60) 
COc1ccccc1[N-]C(=O)[N-]Cc1ccccc1

>  <Energy>  (60) 
34.81254367468122

>  <Genealogy>  (60) 
COc1ccccc1[N-]C(=O)[N-]Cc1ccccc1 (protonated)
COc1ccccc1[N-]C(=O)[N-]Cc1ccccc1 (3D coordinates assigned)
COc1ccccc1[N-]C(=O)[N-]Cc1ccccc1 (optimized conformer: 34.81254367468122 kcal/mol)

>  <smiles>  (60) 
COc1ccccc1NC(=O)NCc1ccccc1

>  <score_type>  (60) 
oracle

>  <origin>  (60) 
adg

>  <m_score__min__energy>  (60) 
-11.43

>  <m_primary>  (60) 
energy

$$$$
60:0
     RDKit          3D

 16 17  0  0  0  0  0  0  0  0999 V2000
   55.6630   29.7040   45.9860 H   0  0  0  0  0  0  0  0  0  0  0  0
   55.5880   29.5720   44.9540 N   0  0  0  0  0  0  0  0  0  0  0  0
   56.2200   30.3080   44.0940 C   0  0  0  0  0  0  0  0  0  0  0  0
   57.0780   31.3850   44.4420 C   0  0  0  0  0  0  0  0  0  0  0  0
   57.4050   31.8550   45.7230 C   0  0  0  0  0  0  0  0  0  0  0  0
   56.9808   31.3782   46.6189 H   0  0  0  0  0  0  0  0  0  0  0  0
   58.2850   32.9470   45.8420 C   0  0  0  0  0  0  0  0  0  0  0  0
   58.5513   33.3255   46.8399 H   0  0  0  0  0  0  0  0  0  0  0  0
   58.8280   33.5600   44.6960 C   0  0  0  0  0  0  0  0  0  0  0  0
   59.5133   34.4136   44.8046 H   0  0  0  0  0  0  0  0  0  0  0  0
   58.4990   33.0870   43.4160 C   0  0  0  0  0  0  0  0  0  0  0  0
   58.9167   33.5556   42.5127 H   0  0  0  0  0  0  0  0  0  0  0  0
   57.6280   32.0070   43.3270 C   0  0  0  0  0  0  0  0  0  0  0  0
   57.0430   31.2160   41.9830 S   0  0  0  0  0  0  0  0  0  0  0  0
   56.0960   30.0860   42.7570 N   0  0  0  0  0  0  0  0  0  0  0  0
   55.5160   29.3480   42.3020 H   0  0  0  0  0  0  0  0  0  0  0  0
  1  2  1  0
  2  3  2  0
  3  4  1  0
  4  5  2  0
  5  6  1  0
  5  7  1  0
  7  8  1  0
  7  9  2  0
  9 10  1  0
  9 11  1  0
 11 12  1  0
 11 13  2  0
 13 14  1  0
 14 15  1  0
 15 16  1  0
 15  3  1  0
 13  4  1  0
M  END
>  <UniqueID>  (61) 
53

>  <SMILES>  (61) 
[H]/N=c1/[nH]sc2ccccc12

>  <Energy>  (61) 
56.7756829378703

>  <Genealogy>  (61) 
[H]/N=c1/[nH]sc2ccccc12 (cis-trans isomerization)
[H]/N=c1/[nH]sc2ccccc12 (3D coordinates assigned)
[H]/N=c1/[nH]sc2ccccc12 (optimized conformer: 56.7756829378703 kcal/mol)

>  <smiles>  (61) 
N=c1[nH]sc2ccccc12

>  <score_type>  (61) 
oracle

>  <origin>  (61) 
adg

>  <m_score__min__energy>  (61) 
-5.4000000000000004

>  <m_primary>  (61) 
energy

$$$$
61:0
     RDKit          3D

 49 52  0  0  0  0  0  0  0  0999 V2000
   61.1440   30.3690   46.5070 C   0  0  0  0  0  0  0  0  0  0  0  0
   61.4470   31.5400   47.4050 C   0  0  0  0  0  0  0  0  0  0  0  0
   61.9520   32.7190   46.8300 C   0  0  0  0  0  0  0  0  0  0  0  0
   62.2820   33.8150   47.6280 C   0  0  0  0  0  0  0  0  0  0  0  0
   62.1190   33.7470   49.0100 C   0  0  0  0  0  0  0  0  0  0  0  0
   61.6310   32.5810   49.6020 C   0  0  0  0  0  0  0  0  0  0  0  0
   61.2920   31.4650   48.8150 C   0  0  0  0  0  0  0  0  0  0  0  0
   60.8190   30.2030   49.5060 C   0  0  0  0  0  0  0  0  0  0  0  0
   59.6790   29.6310   48.7930 N   0  0  0  0  0  0  0  0  0  0  0  0
   59.6470   28.2440   48.4190 C   0  0  0  0  0  0  0  0  0  0  0  0
   60.3100   27.4080   49.0930 O   0  0  0  0  0  0  0  0  0  0  0  0
   58.9270   27.7880   47.2040 C   0  0  0  0  0  0  0  0  0  0  0  0
   59.2430   26.5730   46.5670 C   0  0  0  0  0  0  0  0  0  0  0  0
   58.4800   26.1190   45.4890 C   0  0  0  0  0  0  0  0  0  0  0  0
   57.3880   26.8610   45.0400 C   0  0  0  0  0  0  0  0  0  0  0  0
   57.0680   28.0820   45.6520 C   0  0  0  0  0  0  0  0  0  0  0  0
   55.9170   28.8270   45.2400 N   0  0  0  0  0  0  0  0  0  0  0  0
   55.9420   29.8350   44.2210 C   0  0  0  0  0  0  0  0  0  0  0  0
   55.2560   29.6620   43.1790 O   0  0  0  0  0  0  0  0  0  0  0  0
   56.8070   31.0300   44.3460 C   0  0  0  0  0  0  0  0  0  0  0  0
   57.4040   31.6250   43.2220 C   0  0  0  0  0  0  0  0  0  0  0  0
   58.2010   32.7160   43.3800 N   0  0  0  0  0  0  0  0  0  0  0  0
   58.4380   33.2430   44.6100 C   0  0  0  0  0  0  0  0  0  0  0  0
   59.2570   34.3680   44.7630 C   0  0  0  0  0  0  0  0  0  0  0  0
   59.4870   34.8920   46.0420 C   0  0  0  0  0  0  0  0  0  0  0  0
   58.9000   34.2950   47.1640 C   0  0  0  0  0  0  0  0  0  0  0  0
   58.0810   33.1700   47.0160 C   0  0  0  0  0  0  0  0  0  0  0  0
   57.8490   32.6450   45.7400 C   0  0  0  0  0  0  0  0  0  0  0  0
   57.0570   31.5560   45.5770 N   0  0  0  0  0  0  0  0  0  0  0  0
   57.8540   28.5550   46.7080 C   0  0  0  0  0  0  0  0  0  0  0  0
   60.9154   29.4855   47.1211 H   0  0  0  0  0  0  0  0  0  0  0  0
   60.2782   30.6082   45.8721 H   0  0  0  0  0  0  0  0  0  0  0  0
   62.0172   30.1582   45.8721 H   0  0  0  0  0  0  0  0  0  0  0  0
   62.0884   32.7782   45.7401 H   0  0  0  0  0  0  0  0  0  0  0  0
   62.6714   34.7339   47.1654 H   0  0  0  0  0  0  0  0  0  0  0  0
   62.3755   34.6143   49.6361 H   0  0  0  0  0  0  0  0  0  0  0  0
   61.5103   32.5341   50.6943 H   0  0  0  0  0  0  0  0  0  0  0  0
   61.6395   29.4706   49.5253 H   0  0  0  0  0  0  0  0  0  0  0  0
   60.5110   30.4511   50.5324 H   0  0  0  0  0  0  0  0  0  0  0  0
   58.9450   30.2910   48.4590 H   0  0  0  0  0  0  0  0  0  0  0  0
   60.0971   25.9769   46.9209 H   0  0  0  0  0  0  0  0  0  0  0  0
   58.7413   25.1729   44.9924 H   0  0  0  0  0  0  0  0  0  0  0  0
   56.7767   26.4884   44.2048 H   0  0  0  0  0  0  0  0  0  0  0  0
   57.2277   31.2104   42.2185 H   0  0  0  0  0  0  0  0  0  0  0  0
   59.7183   34.8389   43.8824 H   0  0  0  0  0  0  0  0  0  0  0  0
   60.1309   35.7753   46.1649 H   0  0  0  0  0  0  0  0  0  0  0  0
   59.0832   34.7117   48.1654 H   0  0  0  0  0  0  0  0  0  0  0  0
   57.6218   32.7007   47.8986 H   0  0  0  0  0  0  0  0  0  0  0  0
   57.6324   29.5351   47.1555 H   0  0  0  0  0  0  0  0  0  0  0  0
  1  2  1  0
  2  3  2  0
  3  4  1  0
  4  5  2  0
  5  6  1  0
  6  7  2  0
  7  8  1  0
  8  9  1  0
  9 10  1  0
 10 11  2  0
 10 12  1  0
 12 13  2  0
 13 14  1  0
 14 15  2  0
 15 16  1  0
 16 17  1  0
 17 18  1  0
 18 19  2  0
 18 20  1  0
 20 21  2  0
 21 22  1  0
 22 23  2  0
 23 24  1  0
 24 25  2  0
 25 26  1  0
 26 27  2  0
 27 28  1  0
 28 29  2  0
 16 30  2  0
  7  2  1  0
 30 12  1  0
 29 20  1  0
 28 23  1  0
  1 31  1  0
  1 32  1  0
  1 33  1  0
  3 34  1  0
  4 35  1  0
  5 36  1  0
  6 37  1  0
  8 38  1  0
  8 39  1  0
  9 40  1  0
 13 41  1  0
 14 42  1  0
 15 43  1  0
 21 44  1  0
 24 45  1  0
 25 46  1  0
 26 47  1  0
 27 48  1  0
 30 49  1  0
M  CHG  1  17  -1
M  END
>  <UniqueID>  (62) 
54

>  <SMILES>  (62) 
Cc1ccccc1CNC(=O)c1cccc([N-]C(=O)c2cnc3ccccc3n2)c1

>  <Energy>  (62) 
64.39517691974903

>  <Genealogy>  (62) 
Cc1ccccc1CNC(=O)c1cccc([N-]C(=O)c2cnc3ccccc3n2)c1 (protonated)
Cc1ccccc1CNC(=O)c1cccc([N-]C(=O)c2cnc3ccccc3n2)c1 (3D coordinates assigned)
Cc1ccccc1CNC(=O)c1cccc([N-]C(=O)c2cnc3ccccc3n2)c1 (optimized conformer: 64.39517691974903 kcal/mol)

>  <smiles>  (62) 
Cc1ccccc1CNC(=O)c1cccc(NC(=O)c2cnc3ccccc3n2)c1

>  <score_type>  (62) 
oracle

>  <origin>  (62) 
adg

>  <m_score__min__energy>  (62) 
-11.619999999999999

>  <m_primary>  (62) 
energy

$$$$
62:0
     RDKit          3D

 55 58  0  0  0  0  0  0  0  0999 V2000
   56.8490   20.7100   42.9910 C   0  0  0  0  0  0  0  0  0  0  0  0
   55.9060   21.5850   43.6000 O   0  0  0  0  0  0  0  0  0  0  0  0
   56.2210   22.8470   44.1250 C   0  0  0  0  0  0  0  0  0  0  0  0
   55.7620   23.2770   45.3840 C   0  0  0  0  0  0  0  0  0  0  0  0
   56.1010   24.5460   45.8650 C   0  0  0  0  0  0  0  0  0  0  0  0
   56.9010   25.4110   45.0950 C   0  0  0  0  0  0  0  0  0  0  0  0
   57.2580   26.7220   45.5760 N   0  0  0  0  0  0  0  0  0  0  0  0
   57.9790   26.9290   46.6680 N   0  0  0  0  0  0  0  0  0  0  0  0
   58.1260   28.2630   46.7850 C   0  0  0  0  0  0  0  0  0  0  0  0
   58.7060   28.7910   47.8250 N   0  0  0  0  0  0  0  0  0  0  0  0
   60.3320   28.6110   48.4060 S   0  0  0  0  0  0  0  0  0  0  0  0
   61.1280   29.7950   47.9330 O   0  0  0  0  0  0  0  0  0  0  0  0
   60.9460   27.3670   47.8260 O   0  0  0  0  0  0  0  0  0  0  0  0
   60.3820   28.5860   50.1730 C   0  0  0  0  0  0  0  0  0  0  0  0
   61.2330   27.6850   50.8330 C   0  0  0  0  0  0  0  0  0  0  0  0
   61.2820   27.6560   52.2290 C   0  0  0  0  0  0  0  0  0  0  0  0
   60.4840   28.5230   52.9760 C   0  0  0  0  0  0  0  0  0  0  0  0
   59.6260   29.4160   52.3290 C   0  0  0  0  0  0  0  0  0  0  0  0
   59.5510   29.4370   50.9270 C   0  0  0  0  0  0  0  0  0  0  0  0
   58.6950   30.3820   50.2710 N   0  0  0  0  0  0  0  0  0  0  0  0
   59.0840   31.3850   49.5370 C   0  0  0  0  0  0  0  0  0  0  0  0
   58.1690   32.4960   49.0910 C   0  0  0  0  0  0  0  0  0  0  0  0
   58.6730   33.0980   47.8090 C   0  0  0  0  0  0  0  0  0  0  0  0
   57.7760   33.4500   46.7860 C   0  0  0  0  0  0  0  0  0  0  0  0
   58.2520   33.9850   45.5850 C   0  0  0  0  0  0  0  0  0  0  0  0
   59.6250   34.1600   45.3930 C   0  0  0  0  0  0  0  0  0  0  0  0
   60.5250   33.7990   46.3990 C   0  0  0  0  0  0  0  0  0  0  0  0
   60.0520   33.2660   47.6030 C   0  0  0  0  0  0  0  0  0  0  0  0
   57.4790   28.8670   45.7020 C   0  0  0  0  0  0  0  0  0  0  0  0
   57.4520   30.2600   45.2350 C   0  0  0  0  0  0  0  0  0  0  0  0
   58.5130   30.9160   45.0980 O   0  0  0  0  0  0  0  0  0  0  0  0
   56.2480   30.8200   44.8250 O   0  0  0  0  0  0  0  0  0  0  0  0
   56.9410   27.8650   44.9830 N   0  0  0  0  0  0  0  0  0  0  0  0
   57.3650   24.9700   43.8430 C   0  0  0  0  0  0  0  0  0  0  0  0
   57.0260   23.7020   43.3650 C   0  0  0  0  0  0  0  0  0  0  0  0
   57.4172   20.1828   43.7715 H   0  0  0  0  0  0  0  0  0  0  0  0
   56.3184   19.9771   42.3654 H   0  0  0  0  0  0  0  0  0  0  0  0
   57.5402   21.2939   42.3654 H   0  0  0  0  0  0  0  0  0  0  0  0
   55.1330   22.6113   45.9933 H   0  0  0  0  0  0  0  0  0  0  0  0
   55.7398   24.8702   46.8521 H   0  0  0  0  0  0  0  0  0  0  0  0
   61.8638   26.9991   50.2485 H   0  0  0  0  0  0  0  0  0  0  0  0
   61.9511   26.9482   52.7402 H   0  0  0  0  0  0  0  0  0  0  0  0
   60.5303   28.5035   54.0749 H   0  0  0  0  0  0  0  0  0  0  0  0
   59.0063   30.1058   52.9207 H   0  0  0  0  0  0  0  0  0  0  0  0
   60.1383   31.4232   49.2256 H   0  0  0  0  0  0  0  0  0  0  0  0
   57.1583   32.0925   48.9307 H   0  0  0  0  0  0  0  0  0  0  0  0
   58.1428   33.2742   49.8680 H   0  0  0  0  0  0  0  0  0  0  0  0
   56.6954   33.3041   46.9306 H   0  0  0  0  0  0  0  0  0  0  0  0
   57.5453   34.2682   44.7910 H   0  0  0  0  0  0  0  0  0  0  0  0
   59.9979   34.5826   44.4484 H   0  0  0  0  0  0  0  0  0  0  0  0
   61.6057   33.9339   46.2443 H   0  0  0  0  0  0  0  0  0  0  0  0
   60.7629   32.9774   48.3912 H   0  0  0  0  0  0  0  0  0  0  0  0
   56.4370   27.9660   44.0740 H   0  0  0  0  0  0  0  0  0  0  0  0
   58.0009   25.6297   43.2343 H   0  0  0  0  0  0  0  0  0  0  0  0
   57.3953   23.3730   42.3825 H   0  0  0  0  0  0  0  0  0  0  0  0
  1  2  1  0
  2  3  1  0
  3  4  2  0
  4  5  1  0
  5  6  2  0
  6  7  1  0
  7  8  1  0
  8  9  1  0
  9 10  2  3
 10 11  1  0
 11 12  2  0
 11 13  2  0
 11 14  1  0
 14 15  2  0
 15 16  1  0
 16 17  2  0
 17 18  1  0
 18 19  2  0
 19 20  1  0
 20 21  2  3
 21 22  1  0
 22 23  1  0
 23 24  2  0
 24 25  1  0
 25 26  2  0
 26 27  1  0
 27 28  2  0
  9 29  1  0
 29 30  1  0
 30 31  2  0
 30 32  1  0
 29 33  2  0
  6 34  1  0
 34 35  2  0
 35  3  1  0
 33  7  1  0
 19 14  1  0
 28 23  1  0
  1 36  1  0
  1 37  1  0
  1 38  1  0
  4 39  1  0
  5 40  1  0
 15 41  1  0
 16 42  1  0
 17 43  1  0
 18 44  1  0
 21 45  1  0
 22 46  1  0
 22 47  1  0
 24 48  1  0
 25 49  1  0
 26 50  1  0
 27 51  1  0
 28 52  1  0
 33 53  1  0
 34 54  1  0
 35 55  1  0
M  CHG  3   8  -1  32  -1  33   1
M  END
>  <UniqueID>  (63) 
55

>  <SMILES>  (63) 
COc1ccc(-n2[n-]c(=NS(=O)(=O)c3ccccc3N=CCc3ccccc3)c(C(=O)[O-])[nH+]2)cc1

>  <Energy>  (63) 
120.89140852377976

>  <Genealogy>  (63) 
COc1ccc(-n2[n-]c(=NS(=O)(=O)c3ccccc3N=CCc3ccccc3)c(C(=O)[O-])[nH+]2)cc1 (protonated)
COc1ccc(-n2[n-]c(=NS(=O)(=O)c3ccccc3N=CCc3ccccc3)c(C(=O)[O-])[nH+]2)cc1 (3D coordinates assigned)
COc1ccc(-n2[n-]c(=NS(=O)(=O)c3ccccc3N=CCc3ccccc3)c(C(=O)[O-])[nH+]2)cc1 (optimized conformer: 120.89140852377976 kcal/mol)

>  <smiles>  (63) 
COc1ccc(-n2nc(C(=O)O)c(=NS(=O)(=O)c3ccccc3N=CCc3ccccc3)[nH]2)cc1

>  <score_type>  (63) 
oracle

>  <origin>  (63) 
adg

>  <m_score__min__energy>  (63) 
-10.949999999999999

>  <m_primary>  (63) 
energy

$$$$
63:0
     RDKit          3D

 55 58  0  0  0  0  0  0  0  0999 V2000
   59.5630   35.1270   45.2730 O   0  0  0  0  0  0  0  0  0  0  0  0
   59.4130   34.0580   45.9280 C   0  0  0  0  0  0  0  0  0  0  0  0
   60.3380   33.7480   47.0810 C   0  0  2  0  0  0  0  0  0  0  0  0
   61.7980   34.1540   46.8410 C   0  0  0  0  0  0  0  0  0  0  0  0
   62.6720   32.9680   47.3370 C   0  0  1  0  0  0  0  0  0  0  0  0
   63.6540   32.6600   46.3690 O   0  0  0  0  0  0  0  0  0  0  0  0
   63.3420   33.3090   48.6740 C   0  0  0  0  0  0  0  0  0  0  0  0
   62.7430   34.2320   49.5550 C   0  0  0  0  0  0  0  0  0  0  0  0
   63.3370   34.5480   50.7790 C   0  0  0  0  0  0  0  0  0  0  0  0
   64.5410   33.9360   51.1660 C   0  0  0  0  0  0  0  0  0  0  0  0
   65.1550   34.2570   52.4280 N   0  0  0  0  0  0  0  0  0  0  0  0
   64.7030   33.7950   53.4950 O   0  0  0  0  0  0  0  0  0  0  0  0
   66.2630   35.0780   52.4780 O   0  0  0  0  0  0  0  0  0  0  0  0
   65.1380   33.0050   50.3010 C   0  0  0  0  0  0  0  0  0  0  0  0
   64.5490   32.6950   49.0720 C   0  0  0  0  0  0  0  0  0  0  0  0
   61.7040   31.7750   47.5060 C   0  0  0  0  0  0  0  0  0  0  0  0
   60.3700   32.3170   47.3310 N   0  0  0  0  0  0  0  0  0  0  0  0
   59.2040   31.5000   47.1760 C   0  0  0  0  0  0  0  0  0  0  0  0
   59.2110   30.2920   47.5400 O   0  0  0  0  0  0  0  0  0  0  0  0
   57.9620   32.1090   46.6000 C   0  0  0  0  0  0  0  0  0  0  0  0
   58.3090   33.1710   45.6400 N   0  0  0  0  0  0  0  0  0  0  0  0
   57.4250   33.4160   44.4920 C   0  0  0  0  0  0  0  0  0  0  0  0
   57.8380   32.5770   43.2770 C   0  0  0  0  0  0  0  0  0  0  0  0
   58.4480   31.3130   43.7000 N   0  0  0  0  0  0  0  0  0  0  0  0
   57.2060   30.1380   44.0090 S   0  0  0  0  0  0  0  0  0  0  0  0
   56.0730   30.7770   44.7650 O   0  0  0  0  0  0  0  0  0  0  0  0
   56.6720   29.6290   42.7000 O   0  0  0  0  0  0  0  0  0  0  0  0
   57.8570   28.7850   44.9290 C   0  0  0  0  0  0  0  0  0  0  0  0
   59.2440   28.5830   44.9920 C   0  0  0  0  0  0  0  0  0  0  0  0
   59.7670   27.5080   45.7190 C   0  0  0  0  0  0  0  0  0  0  0  0
   58.9080   26.6340   46.3930 C   0  0  0  0  0  0  0  0  0  0  0  0
   59.4160   25.5880   47.0920 F   0  0  0  0  0  0  0  0  0  0  0  0
   57.5250   26.8370   46.3410 C   0  0  0  0  0  0  0  0  0  0  0  0
   56.9990   27.9100   45.6130 C   0  0  0  0  0  0  0  0  0  0  0  0
   59.9314   34.3277   47.9228 H   0  0  0  0  0  0  0  0  0  0  0  0
   61.9718   34.3323   45.7696 H   0  0  0  0  0  0  0  0  0  0  0  0
   62.0462   35.0826   47.3759 H   0  0  0  0  0  0  0  0  0  0  0  0
   64.5450   32.6870   46.8050 H   0  0  0  0  0  0  0  0  0  0  0  0
   61.7933   34.7107   49.2743 H   0  0  0  0  0  0  0  0  0  0  0  0
   62.8587   35.2814   51.4448 H   0  0  0  0  0  0  0  0  0  0  0  0
   66.0784   32.5149   50.5934 H   0  0  0  0  0  0  0  0  0  0  0  0
   65.0318   31.9638   48.4070 H   0  0  0  0  0  0  0  0  0  0  0  0
   61.9075   31.0066   46.7456 H   0  0  0  0  0  0  0  0  0  0  0  0
   61.8198   31.2975   48.4902 H   0  0  0  0  0  0  0  0  0  0  0  0
   57.3816   31.3297   46.0844 H   0  0  0  0  0  0  0  0  0  0  0  0
   57.3670   32.5456   47.4157 H   0  0  0  0  0  0  0  0  0  0  0  0
   56.3938   33.1555   44.7727 H   0  0  0  0  0  0  0  0  0  0  0  0
   57.4994   34.4791   44.2193 H   0  0  0  0  0  0  0  0  0  0  0  0
   56.9476   32.3617   42.6680 H   0  0  0  0  0  0  0  0  0  0  0  0
   58.5750   33.1451   42.6904 H   0  0  0  0  0  0  0  0  0  0  0  0
   59.0080   30.9350   42.9010 H   0  0  0  0  0  0  0  0  0  0  0  0
   59.9226   29.2722   44.4680 H   0  0  0  0  0  0  0  0  0  0  0  0
   60.8548   27.3501   45.7605 H   0  0  0  0  0  0  0  0  0  0  0  0
   56.8494   26.1516   46.8736 H   0  0  0  0  0  0  0  0  0  0  0  0
   55.9110   28.0680   45.5767 H   0  0  0  0  0  0  0  0  0  0  0  0
  1  2  2  0
  2  3  1  0
  3  4  1  0
  4  5  1  0
  5  6  1  6
  5  7  1  0
  7  8  2  0
  8  9  1  0
  9 10  2  0
 10 11  1  0
 11 12  2  0
 11 13  1  0
 10 14  1  0
 14 15  2  0
  5 16  1  0
 16 17  1  0
 17 18  1  0
 18 19  2  0
 18 20  1  0
 20 21  1  0
 21 22  1  0
 22 23  1  0
 23 24  1  0
 24 25  1  0
 25 26  2  0
 25 27  2  0
 25 28  1  0
 28 29  2  0
 29 30  1  0
 30 31  2  0
 31 32  1  0
 31 33  1  0
 33 34  2  0
 21  2  1  0
 34 28  1  0
 17  3  1  0
 15  7  1  0
  3 35  1  1
  4 36  1  0
  4 37  1  0
  6 38  1  0
  8 39  1  0
  9 40  1  0
 14 41  1  0
 15 42  1  0
 16 43  1  0
 16 44  1  0
 20 45  1  0
 20 46  1  0
 22 47  1  0
 22 48  1  0
 23 49  1  0
 23 50  1  0
 24 51  1  0
 29 52  1  0
 30 53  1  0
 33 54  1  0
 34 55  1  0
M  CHG  2  11   1  13  -1
M  END
>  <UniqueID>  (64) 
56

>  <SMILES>  (64) 
O=C1[C@@H]2C[C@@](O)(c3ccc([N+](=O)[O-])cc3)CN2C(=O)CN1CCNS(=O)(=O)c1ccc(F)cc1

>  <Energy>  (64) 
65.10099006554599

>  <Genealogy>  (64) 
O=C1[C@@H]2C[C@@](O)(c3ccc([N+](=O)[O-])cc3)CN2C(=O)CN1CCNS(=O)(=O)c1ccc(F)cc1 (chirality)
O=C1[C@@H]2C[C@@](O)(c3ccc([N+](=O)[O-])cc3)CN2C(=O)CN1CCNS(=O)(=O)c1ccc(F)cc1 (3D coordinates assigned)
O=C1[C@@H]2C[C@@](O)(c3ccc([N+](=O)[O-])cc3)CN2C(=O)CN1CCNS(=O)(=O)c1ccc(F)cc1 (nonaromatic ring conformer: 65.10099006554599 kcal/mol)

>  <smiles>  (64) 
O=C1C2CC(O)(c3ccc([N+](=O)[O-])cc3)CN2C(=O)CN1CCNS(=O)(=O)c1ccc(F)cc1

>  <score_type>  (64) 
oracle

>  <origin>  (64) 
adg

>  <m_score__min__energy>  (64) 
-9.6899999999999995

>  <m_primary>  (64) 
energy

$$$$
64:0
     RDKit          3D

 40 42  0  0  0  0  0  0  0  0999 V2000
   60.0170   34.2610   49.2720 C   0  0  0  0  0  0  0  0  0  0  0  0
   59.3560   34.9470   48.2170 O   0  0  0  0  0  0  0  0  0  0  0  0
   59.0020   34.3600   46.9940 C   0  0  0  0  0  0  0  0  0  0  0  0
   59.4500   34.8760   45.7450 C   0  0  0  0  0  0  0  0  0  0  0  0
   59.0770   34.2560   44.5390 C   0  0  0  0  0  0  0  0  0  0  0  0
   58.2680   33.1280   44.6130 C   0  0  0  0  0  0  0  0  0  0  0  0
   57.8160   32.3740   43.6030 N   0  0  0  0  0  0  0  0  0  0  0  0
   57.1040   31.4160   44.2510 C   0  0  0  0  0  0  0  0  0  0  0  0
   56.2450   30.0990   43.3930 S   0  0  0  0  0  0  0  0  0  0  0  0
   57.3810   28.7810   43.9480 C   0  0  0  0  0  0  0  0  0  0  0  0
   57.0310   28.3010   45.3230 C   0  0  0  0  0  0  0  0  0  0  0  0
   57.2470   29.0480   46.3150 O   0  0  0  0  0  0  0  0  0  0  0  0
   56.5050   26.9770   45.4980 N   0  0  0  0  0  0  0  0  0  0  0  0
   57.2480   25.7520   45.4380 C   0  0  0  0  0  0  0  0  0  0  0  0
   58.4930   25.6020   46.0730 C   0  0  0  0  0  0  0  0  0  0  0  0
   59.1820   24.3880   45.9950 C   0  0  0  0  0  0  0  0  0  0  0  0
   58.6330   23.3150   45.2930 C   0  0  0  0  0  0  0  0  0  0  0  0
   57.3790   23.4440   44.6820 C   0  0  0  0  0  0  0  0  0  0  0  0
   56.6780   22.0940   43.7960 S   0  0  0  0  0  0  0  0  0  0  0  0
   57.9360   21.0520   43.2380 N   0  0  0  0  0  0  0  0  0  0  0  0
   55.7500   21.3200   44.6900 O   0  0  0  0  0  0  0  0  0  0  0  0
   55.8960   22.6100   42.6190 O   0  0  0  0  0  0  0  0  0  0  0  0
   56.6880   24.6600   44.7630 C   0  0  0  0  0  0  0  0  0  0  0  0
   57.0960   31.5290   45.6040 N   0  0  0  0  0  0  0  0  0  0  0  0
   57.8420   32.6240   45.8030 C   0  0  0  0  0  0  0  0  0  0  0  0
   58.1820   33.2130   47.0180 C   0  0  0  0  0  0  0  0  0  0  0  0
   59.6534   34.6383   50.2392 H   0  0  0  0  0  0  0  0  0  0  0  0
   59.8078   33.1837   49.1966 H   0  0  0  0  0  0  0  0  0  0  0  0
   61.1013   34.4301   49.1966 H   0  0  0  0  0  0  0  0  0  0  0  0
   60.0937   35.7677   45.7230 H   0  0  0  0  0  0  0  0  0  0  0  0
   59.4143   34.6506   43.5692 H   0  0  0  0  0  0  0  0  0  0  0  0
   57.3181   27.9356   43.2470 H   0  0  0  0  0  0  0  0  0  0  0  0
   58.4012   29.1915   43.9739 H   0  0  0  0  0  0  0  0  0  0  0  0
   58.9269   26.4431   46.6335 H   0  0  0  0  0  0  0  0  0  0  0  0
   60.1591   24.2788   46.4883 H   0  0  0  0  0  0  0  0  0  0  0  0
   59.1853   22.3666   45.2191 H   0  0  0  0  0  0  0  0  0  0  0  0
   58.5000   20.7770   44.0750 H   0  0  0  0  0  0  0  0  0  0  0  0
   57.4750   20.1830   42.8820 H   0  0  0  0  0  0  0  0  0  0  0  0
   55.6983   24.7579   44.2930 H   0  0  0  0  0  0  0  0  0  0  0  0
   57.8212   32.7955   47.9696 H   0  0  0  0  0  0  0  0  0  0  0  0
  1  2  1  0
  2  3  1  0
  3  4  2  0
  4  5  1  0
  5  6  2  0
  6  7  1  0
  7  8  1  0
  8  9  1  0
  9 10  1  0
 10 11  1  0
 11 12  2  0
 11 13  1  0
 13 14  1  0
 14 15  2  0
 15 16  1  0
 16 17  2  0
 17 18  1  0
 18 19  1  0
 19 20  1  0
 19 21  2  0
 19 22  2  0
 18 23  2  0
  8 24  2  0
 24 25  1  0
 25 26  2  0
 26  3  1  0
 25  6  1  0
 23 14  1  0
  1 27  1  0
  1 28  1  0
  1 29  1  0
  4 30  1  0
  5 31  1  0
 10 32  1  0
 10 33  1  0
 15 34  1  0
 16 35  1  0
 17 36  1  0
 20 37  1  0
 20 38  1  0
 23 39  1  0
 26 40  1  0
M  CHG  2   7  -1  13  -1
M  END
>  <UniqueID>  (65) 
57

>  <SMILES>  (65) 
COc1ccc2[n-]c(SCC(=O)[N-]c3cccc(S(N)(=O)=O)c3)nc2c1

>  <Energy>  (65) 
73.70937343947585

>  <Genealogy>  (65) 
COc1ccc2[n-]c(SCC(=O)[N-]c3cccc(S(N)(=O)=O)c3)nc2c1 (protonated)
COc1ccc2[n-]c(SCC(=O)[N-]c3cccc(S(N)(=O)=O)c3)nc2c1 (3D coordinates assigned)
COc1ccc2[n-]c(SCC(=O)[N-]c3cccc(S(N)(=O)=O)c3)nc2c1 (optimized conformer: 73.70937343947585 kcal/mol)

>  <smiles>  (65) 
COc1ccc2[nH]c(SCC(=O)Nc3cccc(S(N)(=O)=O)c3)nc2c1

>  <score_type>  (65) 
oracle

>  <origin>  (65) 
adg

>  <m_score__min__energy>  (65) 
-11.85

>  <m_primary>  (65) 
energy

$$$$
65:0
     RDKit          3D

 32 33  0  0  0  0  0  0  0  0999 V2000
   55.1480   29.3460   44.8840 O   0  0  0  0  0  0  0  0  0  0  0  0
   56.4370   29.8040   44.2640 S   0  0  0  0  0  0  0  0  0  0  0  0
   56.3830   29.5230   42.7880 O   0  0  0  0  0  0  0  0  0  0  0  0
   56.6220   31.5110   44.5300 N   0  0  0  0  0  0  0  0  0  0  0  0
   57.6070   32.0500   43.5950 C   0  0  0  0  0  0  0  0  0  0  0  0
   58.2660   33.2890   44.2030 C   0  0  0  0  0  0  0  0  0  0  0  0
   57.4610   33.8470   45.3840 C   0  0  0  0  0  0  0  0  0  0  0  0
   58.2630   33.8650   46.6040 N   0  0  0  0  0  0  0  0  0  0  0  0
   58.3950   32.8520   47.4810 C   0  0  0  0  0  0  0  0  0  0  0  0
   59.2850   33.2410   48.4590 C   0  0  0  0  0  0  0  0  0  0  0  0
   59.6630   34.5220   48.1030 C   0  0  0  0  0  0  0  0  0  0  0  0
   59.0310   34.8800   46.9680 N   0  0  0  0  0  0  0  0  0  0  0  0
   57.7760   28.9240   44.9990 C   0  0  0  0  0  0  0  0  0  0  0  0
   59.0970   29.2540   44.6650 C   0  0  0  0  0  0  0  0  0  0  0  0
   60.1630   28.5350   45.2170 C   0  0  0  0  0  0  0  0  0  0  0  0
   59.9130   27.4800   46.1000 C   0  0  0  0  0  0  0  0  0  0  0  0
   58.5970   27.1420   46.4300 C   0  0  0  0  0  0  0  0  0  0  0  0
   58.3540   26.1140   47.2800 F   0  0  0  0  0  0  0  0  0  0  0  0
   57.5300   27.8610   45.8820 C   0  0  0  0  0  0  0  0  0  0  0  0
   58.3749   31.2888   43.3928 H   0  0  0  0  0  0  0  0  0  0  0  0
   57.1063   32.3261   42.6553 H   0  0  0  0  0  0  0  0  0  0  0  0
   59.2726   33.0192   44.5552 H   0  0  0  0  0  0  0  0  0  0  0  0
   58.3115   34.0658   43.4255 H   0  0  0  0  0  0  0  0  0  0  0  0
   57.1417   34.8730   45.1486 H   0  0  0  0  0  0  0  0  0  0  0  0
   56.5876   33.1991   45.5492 H   0  0  0  0  0  0  0  0  0  0  0  0
   57.8810   31.8810   47.4264 H   0  0  0  0  0  0  0  0  0  0  0  0
   59.6205   32.6600   49.3307 H   0  0  0  0  0  0  0  0  0  0  0  0
   60.3711   35.1525   48.6607 H   0  0  0  0  0  0  0  0  0  0  0  0
   59.2961   30.0805   43.9670 H   0  0  0  0  0  0  0  0  0  0  0  0
   61.1983   28.7999   44.9561 H   0  0  0  0  0  0  0  0  0  0  0  0
   60.7514   26.9161   46.5349 H   0  0  0  0  0  0  0  0  0  0  0  0
   56.4957   27.5929   46.1435 H   0  0  0  0  0  0  0  0  0  0  0  0
  1  2  2  0
  2  3  2  0
  2  4  1  0
  4  5  1  0
  5  6  1  0
  6  7  1  0
  7  8  1  0
  8  9  1  0
  9 10  2  0
 10 11  1  0
 11 12  2  0
  2 13  1  0
 13 14  2  0
 14 15  1  0
 15 16  2  0
 16 17  1  0
 17 18  1  0
 17 19  2  0
 12  8  1  0
 19 13  1  0
  5 20  1  0
  5 21  1  0
  6 22  1  0
  6 23  1  0
  7 24  1  0
  7 25  1  0
  9 26  1  0
 10 27  1  0
 11 28  1  0
 14 29  1  0
 15 30  1  0
 16 31  1  0
 19 32  1  0
M  CHG  1   4  -1
M  END
>  <UniqueID>  (66) 
58

>  <SMILES>  (66) 
O=S(=O)([N-]CCCn1cccn1)c1cccc(F)c1

>  <Energy>  (66) 
53.85445701107131

>  <Genealogy>  (66) 
O=S(=O)([N-]CCCn1cccn1)c1cccc(F)c1 (protonated)
O=S(=O)([N-]CCCn1cccn1)c1cccc(F)c1 (3D coordinates assigned)
O=S(=O)([N-]CCCn1cccn1)c1cccc(F)c1 (optimized conformer: 53.85445701107131 kcal/mol)

>  <smiles>  (66) 
O=S(=O)(NCCCn1cccn1)c1cccc(F)c1

>  <score_type>  (66) 
oracle

>  <origin>  (66) 
adg

>  <m_score__min__energy>  (66) 
-8.1500000000000004

>  <m_primary>  (66) 
energy

$$$$
66:0
     RDKit          3D

 41 42  0  0  0  0  0  0  0  0999 V2000
   57.2139   30.7567   42.7595 H   0  0  0  0  0  0  0  0  0  0  0  0
   56.7390   30.7950   43.7510 C   0  0  0  0  0  0  0  0  0  0  0  0
   55.8150   29.7170   44.1360 C   0  0  0  0  0  0  0  0  0  0  0  0
   54.7230   29.5570   43.5250 O   0  0  0  0  0  0  0  0  0  0  0  0
   56.1540   28.8870   45.2530 N   0  0  0  0  0  0  0  0  0  0  0  0
   57.4130   28.2430   45.4980 C   0  0  0  0  0  0  0  0  0  0  0  0
   58.6340   28.9250   45.3370 C   0  0  0  0  0  0  0  0  0  0  0  0
   58.6356   29.9714   44.9979 H   0  0  0  0  0  0  0  0  0  0  0  0
   59.8450   28.2790   45.6060 C   0  0  0  0  0  0  0  0  0  0  0  0
   60.7957   28.8153   45.4697 H   0  0  0  0  0  0  0  0  0  0  0  0
   59.8490   26.9550   46.0470 C   0  0  0  0  0  0  0  0  0  0  0  0
   60.8029   26.4457   46.2488 H   0  0  0  0  0  0  0  0  0  0  0  0
   58.6440   26.2770   46.2320 C   0  0  0  0  0  0  0  0  0  0  0  0
   58.6508   25.2345   46.5830 H   0  0  0  0  0  0  0  0  0  0  0  0
   57.4260   26.9170   45.9730 C   0  0  0  0  0  0  0  0  0  0  0  0
   55.8930   26.0140   46.2310 S   0  0  0  0  0  0  0  0  0  0  0  0
   56.5020   24.5430   45.4050 C   0  0  0  0  0  0  0  0  0  0  0  0
   56.4120   24.4330   44.0110 C   0  0  0  0  0  0  0  0  0  0  0  0
   55.9648   25.2477   43.4226 H   0  0  0  0  0  0  0  0  0  0  0  0
   56.8910   23.2870   43.3680 C   0  0  0  0  0  0  0  0  0  0  0  0
   56.8231   23.2029   42.2733 H   0  0  0  0  0  0  0  0  0  0  0  0
   57.4560   22.2480   44.1140 C   0  0  0  0  0  0  0  0  0  0  0  0
   57.8342   21.3485   43.6062 H   0  0  0  0  0  0  0  0  0  0  0  0
   57.5400   22.3530   45.5060 C   0  0  0  0  0  0  0  0  0  0  0  0
   57.9822   21.5347   46.0933 H   0  0  0  0  0  0  0  0  0  0  0  0
   57.0620   23.4980   46.1520 C   0  0  0  0  0  0  0  0  0  0  0  0
   57.1258   23.5781   47.2472 H   0  0  0  0  0  0  0  0  0  0  0  0
   57.0230   31.8200   44.5620 C   0  0  0  0  0  0  0  0  0  0  0  0
   56.5655   31.8563   45.5617 H   0  0  0  0  0  0  0  0  0  0  0  0
   57.9570   32.9290   44.1380 C   0  0  0  0  0  0  0  0  0  0  0  0
   57.6363   33.2969   43.1522 H   0  0  0  0  0  0  0  0  0  0  0  0
   58.9724   32.5066   44.1145 H   0  0  0  0  0  0  0  0  0  0  0  0
   57.9810   34.0700   45.0790 N   0  0  0  0  0  0  0  0  0  0  0  0
   57.4070   33.7250   46.3900 C   0  0  0  0  0  0  0  0  0  0  0  0
   58.0556   34.1149   47.1883 H   0  0  0  0  0  0  0  0  0  0  0  0
   56.4056   34.1710   46.4806 H   0  0  0  0  0  0  0  0  0  0  0  0
   57.3309   32.6314   46.4806 H   0  0  0  0  0  0  0  0  0  0  0  0
   59.3270   34.6450   45.2290 C   0  0  0  0  0  0  0  0  0  0  0  0
   59.5652   34.7468   46.2981 H   0  0  0  0  0  0  0  0  0  0  0  0
   60.0639   33.9831   44.7505 H   0  0  0  0  0  0  0  0  0  0  0  0
   59.3582   35.6350   44.7505 H   0  0  0  0  0  0  0  0  0  0  0  0
  1  2  1  0
  2  3  1  0
  3  4  2  0
  3  5  1  0
  5  6  1  0
  6  7  2  0
  7  8  1  0
  7  9  1  0
  9 10  1  0
  9 11  2  0
 11 12  1  0
 11 13  1  0
 13 14  1  0
 13 15  2  0
 15 16  1  0
 16 17  1  0
 17 18  2  0
 18 19  1  0
 18 20  1  0
 20 21  1  0
 20 22  2  0
 22 23  1  0
 22 24  1  0
 24 25  1  0
 24 26  2  0
 26 27  1  0
  2 28  2  0
 28 29  1  0
 28 30  1  0
 30 31  1  0
 30 32  1  0
 30 33  1  0
 33 34  1  0
 34 35  1  0
 34 36  1  0
 34 37  1  0
 33 38  1  0
 38 39  1  0
 38 40  1  0
 38 41  1  0
 15  6  1  0
 26 17  1  0
M  CHG  1   5  -1
M  END
>  <UniqueID>  (67) 
59

>  <SMILES>  (67) 
CN(C)C/C=C/C(=O)[N-]c1ccccc1Sc1ccccc1

>  <Energy>  (67) 
39.77122000677093

>  <Genealogy>  (67) 
CN(C)CC=CC(=O)[N-]c1ccccc1Sc1ccccc1 (protonated)
CN(C)C/C=C/C(=O)[N-]c1ccccc1Sc1ccccc1 (cis-trans isomerization)
CN(C)C/C=C/C(=O)[N-]c1ccccc1Sc1ccccc1 (3D coordinates assigned)
CN(C)C/C=C/C(=O)[N-]c1ccccc1Sc1ccccc1 (optimized conformer: 39.77122000677093 kcal/mol)

>  <smiles>  (67) 
CN(C)CC=CC(=O)Nc1ccccc1Sc1ccccc1

>  <score_type>  (67) 
oracle

>  <origin>  (67) 
adg

>  <m_score__min__energy>  (67) 
-9.4000000000000004

>  <m_primary>  (67) 
energy

$$$$
67:0
     RDKit          3D

 61 64  0  0  0  0  0  0  0  0999 V2000
   56.2430   31.7880   52.2890 N   0  0  0  0  0  0  0  0  0  0  0  0
   57.6110   31.8320   51.8690 C   0  0  0  0  0  0  0  0  0  0  0  0
   58.2700   33.0540   51.7630 C   0  0  0  0  0  0  0  0  0  0  0  0
   59.5620   33.0970   51.3600 N   0  0  0  0  0  0  0  0  0  0  0  0
   60.2480   31.9610   51.0550 C   0  0  0  0  0  0  0  0  0  0  0  0
   61.6510   32.0970   50.6090 C   0  0  0  0  0  0  0  0  0  0  0  0
   61.9430   32.6020   49.3310 C   0  0  0  0  0  0  0  0  0  0  0  0
   63.2720   32.7400   48.9200 C   0  0  0  0  0  0  0  0  0  0  0  0
   64.3140   32.3800   49.7840 C   0  0  0  0  0  0  0  0  0  0  0  0
   65.6020   32.5150   49.3850 F   0  0  0  0  0  0  0  0  0  0  0  0
   64.0260   31.8720   51.0580 C   0  0  0  0  0  0  0  0  0  0  0  0
   62.6980   31.7340   51.4720 C   0  0  0  0  0  0  0  0  0  0  0  0
   59.6360   30.7290   51.1700 N   0  0  0  0  0  0  0  0  0  0  0  0
   60.3650   29.4770   50.8650 C   0  0  0  0  0  0  0  0  0  0  0  0
   60.0690   28.9980   49.4660 C   0  0  0  0  0  0  0  0  0  0  0  0
   60.7830   28.0890   48.9650 O   0  0  0  0  0  0  0  0  0  0  0  0
   58.9540   29.4790   48.6990 N   0  0  0  0  0  0  0  0  0  0  0  0
   58.8800   30.5130   47.6610 C   0  0  1  0  0  0  0  0  0  0  0  0
   58.6970   31.9430   48.2170 C   0  0  0  0  0  0  0  0  0  0  0  0
   58.7350   33.0230   47.1560 C   0  0  0  0  0  0  0  0  0  0  0  0
   57.7060   33.1420   46.2040 C   0  0  0  0  0  0  0  0  0  0  0  0
   57.7760   34.1180   45.2060 C   0  0  0  0  0  0  0  0  0  0  0  0
   58.8890   34.9560   45.1230 C   0  0  0  0  0  0  0  0  0  0  0  0
   59.9380   34.8150   46.0340 C   0  0  0  0  0  0  0  0  0  0  0  0
   59.8620   33.8570   47.0480 C   0  0  0  0  0  0  0  0  0  0  0  0
   60.0510   30.4030   46.7040 C   0  0  0  0  0  0  0  0  0  0  0  0
   61.1380   30.8740   46.9990 O   0  0  0  0  0  0  0  0  0  0  0  0
   59.9120   29.6670   45.3970 C   0  0  0  0  0  0  0  0  0  0  0  0
   58.5330   29.8820   44.8350 C   0  0  0  0  0  0  0  0  0  0  0  0
   58.3110   30.8660   43.8570 C   0  0  0  0  0  0  0  0  0  0  0  0
   57.0340   31.0370   43.3070 C   0  0  0  0  0  0  0  0  0  0  0  0
   55.9790   30.2230   43.7240 C   0  0  0  0  0  0  0  0  0  0  0  0
   56.1970   29.2310   44.6840 C   0  0  0  0  0  0  0  0  0  0  0  0
   57.4700   29.0560   45.2350 C   0  0  0  0  0  0  0  0  0  0  0  0
   58.3190   30.6620   51.5580 C   0  0  0  0  0  0  0  0  0  0  0  0
   57.7320   29.5460   51.6340 O   0  0  0  0  0  0  0  0  0  0  0  0
   55.9860   31.5970   53.2850 H   0  0  0  0  0  0  0  0  0  0  0  0
   55.4690   31.9640   51.6090 H   0  0  0  0  0  0  0  0  0  0  0  0
   57.7399   33.9864   52.0072 H   0  0  0  0  0  0  0  0  0  0  0  0
   60.0320   34.0290   51.2810 H   0  0  0  0  0  0  0  0  0  0  0  0
   61.1254   32.8890   48.6534 H   0  0  0  0  0  0  0  0  0  0  0  0
   63.4996   33.1315   47.9175 H   0  0  0  0  0  0  0  0  0  0  0  0
   64.8452   31.5818   51.7323 H   0  0  0  0  0  0  0  0  0  0  0  0
   62.4728   31.3408   52.4744 H   0  0  0  0  0  0  0  0  0  0  0  0
   61.4456   29.6592   50.9603 H   0  0  0  0  0  0  0  0  0  0  0  0
   60.0371   28.7025   51.5740 H   0  0  0  0  0  0  0  0  0  0  0  0
   57.9595   30.3194   47.0908 H   0  0  0  0  0  0  0  0  0  0  0  0
   57.7245   31.9940   48.7285 H   0  0  0  0  0  0  0  0  0  0  0  0
   59.5415   32.1323   48.8960 H   0  0  0  0  0  0  0  0  0  0  0  0
   56.8415   32.4631   46.2453 H   0  0  0  0  0  0  0  0  0  0  0  0
   56.9525   34.2258   44.4848 H   0  0  0  0  0  0  0  0  0  0  0  0
   58.9399   35.7272   44.3403 H   0  0  0  0  0  0  0  0  0  0  0  0
   60.8258   35.4594   45.9530 H   0  0  0  0  0  0  0  0  0  0  0  0
   60.6888   33.7545   47.7663 H   0  0  0  0  0  0  0  0  0  0  0  0
   60.6598   30.0445   44.6840 H   0  0  0  0  0  0  0  0  0  0  0  0
   60.0713   28.5919   45.5669 H   0  0  0  0  0  0  0  0  0  0  0  0
   59.1423   31.5039   43.5222 H   0  0  0  0  0  0  0  0  0  0  0  0
   56.8624   31.8128   42.5463 H   0  0  0  0  0  0  0  0  0  0  0  0
   54.9752   30.3626   43.2965 H   0  0  0  0  0  0  0  0  0  0  0  0
   55.3657   28.5869   45.0066 H   0  0  0  0  0  0  0  0  0  0  0  0
   57.6395   28.2687   45.9843 H   0  0  0  0  0  0  0  0  0  0  0  0
  1  2  1  0
  2  3  2  0
  3  4  1  0
  4  5  2  0
  5  6  1  0
  6  7  2  0
  7  8  1  0
  8  9  2  0
  9 10  1  0
  9 11  1  0
 11 12  2  0
  5 13  1  0
 13 14  1  0
 14 15  1  0
 15 16  2  0
 15 17  1  0
 17 18  1  0
 18 19  1  0
 19 20  1  0
 20 21  2  0
 21 22  1  0
 22 23  2  0
 23 24  1  0
 24 25  2  0
 18 26  1  0
 26 27  2  0
 26 28  1  0
 28 29  1  0
 29 30  2  0
 30 31  1  0
 31 32  2  0
 32 33  1  0
 33 34  2  0
 13 35  1  0
 35 36  2  0
 35  2  1  0
 12  6  1  0
 25 20  1  0
 34 29  1  0
  1 37  1  0
  1 38  1  0
  3 39  1  0
  4 40  1  0
  7 41  1  0
  8 42  1  0
 11 43  1  0
 12 44  1  0
 14 45  1  0
 14 46  1  0
 18 47  1  6
 19 48  1  0
 19 49  1  0
 21 50  1  0
 22 51  1  0
 23 52  1  0
 24 53  1  0
 25 54  1  0
 28 55  1  0
 28 56  1  0
 30 57  1  0
 31 58  1  0
 32 59  1  0
 33 60  1  0
 34 61  1  0
M  CHG  2   4   1  17  -1
M  END
>  <UniqueID>  (68) 
60

>  <SMILES>  (68) 
Nc1c[nH+]c(-c2ccc(F)cc2)n(CC(=O)[N-][C@@H](Cc2ccccc2)C(=O)Cc2ccccc2)c1=O

>  <Energy>  (68) 
73.70986594520528

>  <Genealogy>  (68) 
Nc1c[nH+]c(-c2ccc(F)cc2)n(CC(=O)[N-]C(Cc2ccccc2)C(=O)Cc2ccccc2)c1=O (protonated)
Nc1c[nH+]c(-c2ccc(F)cc2)n(CC(=O)[N-][C@@H](Cc2ccccc2)C(=O)Cc2ccccc2)c1=O (chirality)
Nc1c[nH+]c(-c2ccc(F)cc2)n(CC(=O)[N-][C@@H](Cc2ccccc2)C(=O)Cc2ccccc2)c1=O (3D coordinates assigned)
Nc1c[nH+]c(-c2ccc(F)cc2)n(CC(=O)[N-][C@@H](Cc2ccccc2)C(=O)Cc2ccccc2)c1=O (optimized conformer: 73.70986594520528 kcal/mol)

>  <smiles>  (68) 
Nc1cnc(-c2ccc(F)cc2)n(CC(=O)NC(Cc2ccccc2)C(=O)Cc2ccccc2)c1=O

>  <score_type>  (68) 
oracle

>  <origin>  (68) 
adg

>  <m_score__min__energy>  (68) 
-9.1400000000000006

>  <m_primary>  (68) 
energy

$$$$
68:0
     RDKit          3D

 36 38  0  0  0  0  0  0  0  0999 V2000
   58.2120   23.2490   44.9680 C   0  0  0  0  0  0  0  0  0  0  0  0
   58.2380   24.6560   45.5550 C   0  0  0  0  0  0  0  0  0  0  0  0
   56.8600   25.2590   45.5720 C   0  0  0  0  0  0  0  0  0  0  0  0
   55.7430   24.5210   45.4380 N   0  0  0  0  0  0  0  0  0  0  0  0
   54.7510   25.4060   45.6630 C   0  0  0  0  0  0  0  0  0  0  0  0
   53.5350   25.0870   45.6200 O   0  0  0  0  0  0  0  0  0  0  0  0
   55.1670   26.6540   45.9540 N   0  0  0  0  0  0  0  0  0  0  0  0
   56.5080   26.5620   45.8890 C   0  0  0  0  0  0  0  0  0  0  0  0
   57.4070   27.6930   46.1920 C   0  0  0  0  0  0  0  0  0  0  0  0
   57.5270   28.7790   45.3110 C   0  0  0  0  0  0  0  0  0  0  0  0
   58.3820   29.8420   45.6150 C   0  0  0  0  0  0  0  0  0  0  0  0
   59.1260   29.8340   46.8080 C   0  0  0  0  0  0  0  0  0  0  0  0
   59.9860   30.8890   47.1520 O   0  0  0  0  0  0  0  0  0  0  0  0
   59.7330   32.2510   46.9310 C   0  0  0  0  0  0  0  0  0  0  0  0
   58.4190   32.7460   46.8240 C   0  0  0  0  0  0  0  0  0  0  0  0
   58.1940   34.1040   46.5870 C   0  0  0  0  0  0  0  0  0  0  0  0
   59.2730   34.9780   46.4410 C   0  0  0  0  0  0  0  0  0  0  0  0
   60.5810   34.4930   46.5250 C   0  0  0  0  0  0  0  0  0  0  0  0
   60.8160   33.1350   46.7650 C   0  0  0  0  0  0  0  0  0  0  0  0
   62.1330   32.6810   46.8390 O   0  0  0  0  0  0  0  0  0  0  0  0
   58.9710   28.7730   47.7050 C   0  0  0  0  0  0  0  0  0  0  0  0
   58.1160   27.7100   47.4020 C   0  0  0  0  0  0  0  0  0  0  0  0
   58.1984   22.5115   45.7840 H   0  0  0  0  0  0  0  0  0  0  0  0
   57.3114   23.1268   44.3483 H   0  0  0  0  0  0  0  0  0  0  0  0
   59.1074   23.0937   44.3483 H   0  0  0  0  0  0  0  0  0  0  0  0
   58.6228   24.6092   46.5844 H   0  0  0  0  0  0  0  0  0  0  0  0
   58.8878   25.2849   44.9287 H   0  0  0  0  0  0  0  0  0  0  0  0
   56.9456   28.7936   44.3773 H   0  0  0  0  0  0  0  0  0  0  0  0
   58.4732   30.6882   44.9182 H   0  0  0  0  0  0  0  0  0  0  0  0
   57.5655   32.0598   46.9276 H   0  0  0  0  0  0  0  0  0  0  0  0
   57.1648   34.4856   46.5152 H   0  0  0  0  0  0  0  0  0  0  0  0
   59.0936   36.0481   46.2599 H   0  0  0  0  0  0  0  0  0  0  0  0
   61.4295   35.1821   46.4019 H   0  0  0  0  0  0  0  0  0  0  0  0
   62.3600   31.7060   46.9960 H   0  0  0  0  0  0  0  0  0  0  0  0
   59.5254   28.7749   48.6551 H   0  0  0  0  0  0  0  0  0  0  0  0
   57.9984   26.8819   48.1165 H   0  0  0  0  0  0  0  0  0  0  0  0
  1  2  1  0
  2  3  1  0
  3  4  1  0
  4  5  1  0
  5  6  2  0
  5  7  1  0
  7  8  1  0
  8  9  1  0
  9 10  2  0
 10 11  1  0
 11 12  2  0
 12 13  1  0
 13 14  1  0
 14 15  2  0
 15 16  1  0
 16 17  2  0
 17 18  1  0
 18 19  2  0
 19 20  1  0
 12 21  1  0
 21 22  2  0
  8  3  2  0
 22  9  1  0
 19 14  1  0
  1 23  1  0
  1 24  1  0
  1 25  1  0
  2 26  1  0
  2 27  1  0
 10 28  1  0
 11 29  1  0
 15 30  1  0
 16 31  1  0
 17 32  1  0
 18 33  1  0
 20 34  1  0
 21 35  1  0
 22 36  1  0
M  CHG  2   4  -1   7  -1
M  END
>  <UniqueID>  (69) 
61

>  <SMILES>  (69) 
CCc1[n-]c(=O)[n-]c1-c1ccc(Oc2ccccc2O)cc1

>  <Energy>  (69) 
74.87347385067861

>  <Genealogy>  (69) 
CCc1[n-]c(=O)[n-]c1-c1ccc(Oc2ccccc2O)cc1 (protonated)
CCc1[n-]c(=O)[n-]c1-c1ccc(Oc2ccccc2O)cc1 (3D coordinates assigned)
CCc1[n-]c(=O)[n-]c1-c1ccc(Oc2ccccc2O)cc1 (optimized conformer: 74.87347385067861 kcal/mol)

>  <smiles>  (69) 
CCc1[nH]c(=O)[nH]c1-c1ccc(Oc2ccccc2O)cc1

>  <score_type>  (69) 
oracle

>  <origin>  (69) 
adg

>  <m_score__min__energy>  (69) 
-10.31

>  <m_primary>  (69) 
energy

$$$$
69:0
     RDKit          3D

 38 40  0  0  0  0  0  0  0  0999 V2000
   59.0040   33.0280   45.7830 C   0  0  0  0  0  0  0  0  0  0  0  0
   58.1990   32.2120   44.8150 C   0  0  0  0  0  0  0  0  0  0  0  0
   58.2050   32.5290   43.4490 C   0  0  0  0  0  0  0  0  0  0  0  0
   57.4150   31.8010   42.5460 C   0  0  0  0  0  0  0  0  0  0  0  0
   57.4600   32.1110   41.0800 C   0  0  0  0  0  0  0  0  0  0  0  0
   56.6360   30.7340   43.0150 C   0  0  0  0  0  0  0  0  0  0  0  0
   56.6380   30.3970   44.3800 C   0  0  0  0  0  0  0  0  0  0  0  0
   55.8710   29.2940   44.8820 N   0  0  0  0  0  0  0  0  0  0  0  0
   56.3930   28.0200   45.2870 C   0  0  0  0  0  0  0  0  0  0  0  0
   55.5900   27.1120   45.6240 O   0  0  0  0  0  0  0  0  0  0  0  0
   57.8010   27.7480   45.3190 N   0  0  0  0  0  0  0  0  0  0  0  0
   58.7950   28.5470   45.9760 C   0  0  0  0  0  0  0  0  0  0  0  0
   59.9450   28.9160   45.2690 C   0  0  0  0  0  0  0  0  0  0  0  0
   60.9150   29.7240   45.8680 C   0  0  0  0  0  0  0  0  0  0  0  0
   60.7570   30.1620   47.1950 C   0  0  0  0  0  0  0  0  0  0  0  0
   61.7770   31.0280   47.8260 C   0  0  0  0  0  0  0  0  0  0  0  0
   62.5900   31.8480   47.1240 N   0  0  0  0  0  0  0  0  0  0  0  0
   63.3480   32.4370   48.0630 C   0  0  0  0  0  0  0  0  0  0  0  0
   62.9840   31.9670   49.3010 C   0  0  0  0  0  0  0  0  0  0  0  0
   61.9900   31.0740   49.1590 N   0  0  0  0  0  0  0  0  0  0  0  0
   59.6170   29.7610   47.9130 C   0  0  0  0  0  0  0  0  0  0  0  0
   58.6490   28.9530   47.3120 C   0  0  0  0  0  0  0  0  0  0  0  0
   57.3940   31.1610   45.2770 C   0  0  0  0  0  0  0  0  0  0  0  0
   58.7308   32.7511   46.8119 H   0  0  0  0  0  0  0  0  0  0  0  0
   60.0751   32.8348   45.6234 H   0  0  0  0  0  0  0  0  0  0  0  0
   58.7963   34.0964   45.6234 H   0  0  0  0  0  0  0  0  0  0  0  0
   58.8334   33.3542   43.0827 H   0  0  0  0  0  0  0  0  0  0  0  0
   57.6167   33.1905   40.9381 H   0  0  0  0  0  0  0  0  0  0  0  0
   58.2870   31.5560   40.6131 H   0  0  0  0  0  0  0  0  0  0  0  0
   56.5093   31.8140   40.6131 H   0  0  0  0  0  0  0  0  0  0  0  0
   56.0192   30.1567   42.3105 H   0  0  0  0  0  0  0  0  0  0  0  0
   60.0862   28.5678   44.2352 H   0  0  0  0  0  0  0  0  0  0  0  0
   61.8081   30.0194   45.2978 H   0  0  0  0  0  0  0  0  0  0  0  0
   64.1366   33.1794   47.8708 H   0  0  0  0  0  0  0  0  0  0  0  0
   63.4345   32.2729   50.2568 H   0  0  0  0  0  0  0  0  0  0  0  0
   59.4863   30.0859   48.9558 H   0  0  0  0  0  0  0  0  0  0  0  0
   57.7682   28.6333   47.8882 H   0  0  0  0  0  0  0  0  0  0  0  0
   57.3562   30.9350   46.3529 H   0  0  0  0  0  0  0  0  0  0  0  0
  1  2  1  0
  2  3  2  0
  3  4  1  0
  4  5  1  0
  4  6  2  0
  6  7  1  0
  7  8  1  0
  8  9  1  0
  9 10  2  0
  9 11  1  0
 11 12  1  0
 12 13  2  0
 13 14  1  0
 14 15  2  0
 15 16  1  0
 16 17  2  0
 17 18  1  0
 18 19  2  0
 19 20  1  0
 15 21  1  0
 21 22  2  0
  7 23  2  0
 23  2  1  0
 22 12  1  0
 20 16  1  0
  1 24  1  0
  1 25  1  0
  1 26  1  0
  3 27  1  0
  5 28  1  0
  5 29  1  0
  5 30  1  0
  6 31  1  0
 13 32  1  0
 14 33  1  0
 18 34  1  0
 19 35  1  0
 21 36  1  0
 22 37  1  0
 23 38  1  0
M  CHG  3   8  -1  11  -1  20  -1
M  END
>  <UniqueID>  (70) 
62

>  <SMILES>  (70) 
Cc1cc(C)cc([N-]C(=O)[N-]c2ccc(-c3ncc[n-]3)cc2)c1

>  <Energy>  (70) 
73.06845527232846

>  <Genealogy>  (70) 
Cc1cc(C)cc([N-]C(=O)[N-]c2ccc(-c3ncc[n-]3)cc2)c1 (protonated)
Cc1cc(C)cc([N-]C(=O)[N-]c2ccc(-c3ncc[n-]3)cc2)c1 (3D coordinates assigned)
Cc1cc(C)cc([N-]C(=O)[N-]c2ccc(-c3ncc[n-]3)cc2)c1 (optimized conformer: 73.06845527232846 kcal/mol)

>  <smiles>  (70) 
Cc1cc(C)cc(NC(=O)Nc2ccc(-c3ncc[nH]3)cc2)c1

>  <score_type>  (70) 
oracle

>  <origin>  (70) 
adg

>  <m_score__min__energy>  (70) 
-11.199999999999999

>  <m_primary>  (70) 
energy

$$$$
70:0
     RDKit          3D

 34 36  0  0  0  0  0  0  0  0999 V2000
   57.0240   33.9880   44.5020 O   0  0  0  0  0  0  0  0  0  0  0  0
   57.8270   33.2000   45.0730 C   0  0  0  0  0  0  0  0  0  0  0  0
   58.8710   33.7190   45.8390 C   0  0  0  0  0  0  0  0  0  0  0  0
   59.7660   32.8380   46.4730 C   0  0  0  0  0  0  0  0  0  0  0  0
   60.8970   33.3300   47.2990 C   0  0  0  0  0  0  0  0  0  0  0  0
   60.7110   33.7670   48.6270 C   0  0  0  0  0  0  0  0  0  0  0  0
   61.7980   34.2160   49.3830 C   0  0  0  0  0  0  0  0  0  0  0  0
   63.0800   34.2280   48.8320 C   0  0  0  0  0  0  0  0  0  0  0  0
   63.2810   33.7860   47.5220 C   0  0  0  0  0  0  0  0  0  0  0  0
   62.1970   33.3350   46.7610 C   0  0  0  0  0  0  0  0  0  0  0  0
   59.6080   31.5230   46.3220 O   0  0  0  0  0  0  0  0  0  0  0  0
   58.6290   30.9840   45.6020 C   0  0  0  0  0  0  0  0  0  0  0  0
   58.5330   29.5930   45.4990 C   0  0  0  0  0  0  0  0  0  0  0  0
   57.4990   29.0040   44.7470 C   0  0  0  0  0  0  0  0  0  0  0  0
   57.3500   27.6160   44.6060 O   0  0  0  0  0  0  0  0  0  0  0  0
   56.9850   26.5150   45.8680 S   0  0  0  0  0  0  0  0  0  0  0  0
   57.5190   27.0770   47.1550 O   0  0  0  0  0  0  0  0  0  0  0  0
   55.4980   26.3420   45.9990 O   0  0  0  0  0  0  0  0  0  0  0  0
   57.7690   24.9410   45.5720 C   0  0  0  0  0  0  0  0  0  0  0  0
   57.1820   23.9780   46.3700 F   0  0  0  0  0  0  0  0  0  0  0  0
   59.1170   25.0130   45.8640 F   0  0  0  0  0  0  0  0  0  0  0  0
   57.6120   24.5910   44.2440 F   0  0  0  0  0  0  0  0  0  0  0  0
   56.5750   29.8300   44.0920 C   0  0  0  0  0  0  0  0  0  0  0  0
   56.6640   31.2210   44.1890 C   0  0  0  0  0  0  0  0  0  0  0  0
   57.6900   31.8100   44.9470 C   0  0  0  0  0  0  0  0  0  0  0  0
   58.9933   34.8069   45.9463 H   0  0  0  0  0  0  0  0  0  0  0  0
   59.7045   33.7545   49.0707 H   0  0  0  0  0  0  0  0  0  0  0  0
   61.6421   34.5610   50.4158 H   0  0  0  0  0  0  0  0  0  0  0  0
   63.9321   34.5854   49.4289 H   0  0  0  0  0  0  0  0  0  0  0  0
   64.2920   33.7926   47.0886 H   0  0  0  0  0  0  0  0  0  0  0  0
   62.3627   32.9811   45.7327 H   0  0  0  0  0  0  0  0  0  0  0  0
   59.2700   28.9550   46.0087 H   0  0  0  0  0  0  0  0  0  0  0  0
   55.7700   29.3775   43.4943 H   0  0  0  0  0  0  0  0  0  0  0  0
   55.9299   31.8558   43.6713 H   0  0  0  0  0  0  0  0  0  0  0  0
  1  2  2  0
  2  3  1  0
  3  4  2  0
  4  5  1  0
  5  6  2  0
  6  7  1  0
  7  8  2  0
  8  9  1  0
  9 10  2  0
  4 11  1  0
 11 12  1  0
 12 13  2  0
 13 14  1  0
 14 15  1  0
 15 16  1  0
 16 17  2  0
 16 18  2  0
 16 19  1  0
 19 20  1  0
 19 21  1  0
 19 22  1  0
 14 23  2  0
 23 24  1  0
 24 25  2  0
 25  2  1  0
 10  5  1  0
 25 12  1  0
  3 26  1  0
  6 27  1  0
  7 28  1  0
  8 29  1  0
  9 30  1  0
 10 31  1  0
 13 32  1  0
 23 33  1  0
 24 34  1  0
M  END
>  <UniqueID>  (71) 
63

>  <SMILES>  (71) 
O=c1cc(-c2ccccc2)oc2cc(OS(=O)(=O)C(F)(F)F)ccc12

>  <Energy>  (71) 
42.17458281382477

>  <Genealogy>  (71) 
O=c1cc(-c2ccccc2)oc2cc(OS(=O)(=O)C(F)(F)F)ccc12 (3D coordinates assigned)
O=c1cc(-c2ccccc2)oc2cc(OS(=O)(=O)C(F)(F)F)ccc12 (optimized conformer: 42.17458281382477 kcal/mol)

>  <smiles>  (71) 
O=c1cc(-c2ccccc2)oc2cc(OS(=O)(=O)C(F)(F)F)ccc12

>  <score_type>  (71) 
oracle

>  <origin>  (71) 
adg

>  <m_score__min__energy>  (71) 
-7.4100000000000001

>  <m_primary>  (71) 
energy

$$$$
71:0
     RDKit          3D

 49 52  0  0  0  0  0  0  0  0999 V2000
   65.0340   31.6170   50.6360 C   0  0  0  0  0  0  0  0  0  0  0  0
   64.1990   32.1050   49.5050 C   0  0  0  0  0  0  0  0  0  0  0  0
   62.9440   31.6790   49.1210 C   0  0  0  0  0  0  0  0  0  0  0  0
   62.5470   32.3860   48.0430 N   0  0  0  0  0  0  0  0  0  0  0  0
   61.3380   32.3020   47.3030 C   0  0  0  0  0  0  0  0  0  0  0  0
   60.9370   31.0940   46.8010 C   0  0  0  0  0  0  0  0  0  0  0  0
   59.7560   30.9400   46.0630 C   0  0  0  0  0  0  0  0  0  0  0  0
   59.4060   29.6650   45.5770 N   0  0  0  0  0  0  0  0  0  0  0  0
   58.1350   29.1590   45.3220 C   0  0  0  0  0  0  0  0  0  0  0  0
   57.1250   29.8610   45.5240 O   0  0  0  0  0  0  0  0  0  0  0  0
   57.8780   27.7970   44.8090 C   0  0  0  0  0  0  0  0  0  0  0  0
   58.0170   27.4790   43.4760 C   0  0  0  0  0  0  0  0  0  0  0  0
   57.7710   26.1900   43.0030 C   0  0  0  0  0  0  0  0  0  0  0  0
   57.3810   25.1940   43.8740 C   0  0  0  0  0  0  0  0  0  0  0  0
   57.1150   23.8120   43.3980 C   0  0  0  0  0  0  0  0  0  0  0  0
   57.2370   25.4890   45.2140 C   0  0  0  0  0  0  0  0  0  0  0  0
   56.8290   24.5070   46.2100 C   0  0  0  0  0  0  0  0  0  0  0  0
   57.7000   23.6220   46.8100 C   0  0  0  0  0  0  0  0  0  0  0  0
   57.0020   22.8620   47.6720 N   0  0  0  0  0  0  0  0  0  0  0  0
   55.7420   23.2540   47.6160 N   0  0  0  0  0  0  0  0  0  0  0  0
   55.5790   24.2550   46.7390 C   0  0  0  0  0  0  0  0  0  0  0  0
   57.4870   26.7740   45.6500 C   0  0  0  0  0  0  0  0  0  0  0  0
   59.0300   32.0920   45.8800 C   0  0  0  0  0  0  0  0  0  0  0  0
   59.4330   33.3250   46.3880 C   0  0  0  0  0  0  0  0  0  0  0  0
   58.6040   34.5420   46.1580 C   0  0  0  0  0  0  0  0  0  0  0  0
   58.9990   35.0750   44.9400 F   0  0  0  0  0  0  0  0  0  0  0  0
   57.2680   34.2230   46.0600 F   0  0  0  0  0  0  0  0  0  0  0  0
   58.8820   35.4590   47.1300 F   0  0  0  0  0  0  0  0  0  0  0  0
   60.5940   33.4450   47.1080 C   0  0  0  0  0  0  0  0  0  0  0  0
   63.5460   33.2450   47.7600 C   0  0  0  0  0  0  0  0  0  0  0  0
   64.5590   33.0810   48.6480 N   0  0  0  0  0  0  0  0  0  0  0  0
   64.5592   31.8945   51.5887 H   0  0  0  0  0  0  0  0  0  0  0  0
   65.1268   30.5225   50.5777 H   0  0  0  0  0  0  0  0  0  0  0  0
   66.0332   32.0733   50.5777 H   0  0  0  0  0  0  0  0  0  0  0  0
   62.3601   30.8886   49.6153 H   0  0  0  0  0  0  0  0  0  0  0  0
   61.5657   30.2101   46.9838 H   0  0  0  0  0  0  0  0  0  0  0  0
   60.2240   29.0080   45.3810 H   0  0  0  0  0  0  0  0  0  0  0  0
   58.3295   28.2603   42.7675 H   0  0  0  0  0  0  0  0  0  0  0  0
   57.8884   25.9671   41.9322 H   0  0  0  0  0  0  0  0  0  0  0  0
   56.9866   23.1446   44.2629 H   0  0  0  0  0  0  0  0  0  0  0  0
   56.1988   23.8038   42.7893 H   0  0  0  0  0  0  0  0  0  0  0  0
   57.9627   23.4643   42.7893 H   0  0  0  0  0  0  0  0  0  0  0  0
   58.7805   23.5502   46.6166 H   0  0  0  0  0  0  0  0  0  0  0  0
   54.9520   22.8560   48.1700 H   0  0  0  0  0  0  0  0  0  0  0  0
   54.6396   24.7709   46.4912 H   0  0  0  0  0  0  0  0  0  0  0  0
   57.3689   26.9945   46.7212 H   0  0  0  0  0  0  0  0  0  0  0  0
   58.0916   32.0385   45.3086 H   0  0  0  0  0  0  0  0  0  0  0  0
   60.9181   34.4148   47.5135 H   0  0  0  0  0  0  0  0  0  0  0  0
   63.5411   33.9704   46.9331 H   0  0  0  0  0  0  0  0  0  0  0  0
  1  2  1  0
  2  3  2  0
  3  4  1  0
  4  5  1  0
  5  6  2  0
  6  7  1  0
  7  8  1  0
  8  9  1  0
  9 10  2  0
  9 11  1  0
 11 12  2  0
 12 13  1  0
 13 14  2  0
 14 15  1  0
 14 16  1  0
 16 17  1  0
 17 18  1  0
 18 19  2  0
 19 20  1  0
 20 21  1  0
 16 22  2  0
  7 23  2  0
 23 24  1  0
 24 25  1  0
 25 26  1  0
 25 27  1  0
 25 28  1  0
 24 29  2  0
  4 30  1  0
 30 31  2  0
 31  2  1  0
 29  5  1  0
 22 11  1  0
 21 17  2  0
  1 32  1  0
  1 33  1  0
  1 34  1  0
  3 35  1  0
  6 36  1  0
  8 37  1  0
 12 38  1  0
 13 39  1  0
 15 40  1  0
 15 41  1  0
 15 42  1  0
 18 43  1  0
 20 44  1  0
 21 45  1  0
 22 46  1  0
 23 47  1  0
 29 48  1  0
 30 49  1  0
M  END
>  <smiles>  (72) 
Cc1cn(-c2cc(NC(=O)c3ccc(C)c(-c4cn[nH]c4)c3)cc(C(F)(F)F)c2)cn1

>  <score_type>  (72) 
oracle

>  <origin>  (72) 
adg

>  <m_score__min__energy>  (72) 
-7.9900000000000002

>  <m_primary>  (72) 
energy

$$$$
72:0
     RDKit          3D

 18 18  0  0  0  0  0  0  0  0999 V2000
   55.1790   26.2280   46.0170 N   0  0  0  0  0  0  0  0  0  0  0  0
   56.8770   26.5220   45.8870 S   0  0  0  0  0  0  0  0  0  0  0  0
   57.3940   27.1220   47.1650 O   0  0  0  0  0  0  0  0  0  0  0  0
   57.5820   25.2190   45.6390 O   0  0  0  0  0  0  0  0  0  0  0  0
   57.1900   27.5990   44.5630 N   0  0  0  0  0  0  0  0  0  0  0  0
   57.4320   29.0100   44.7110 C   0  0  0  0  0  0  0  0  0  0  0  0
   56.6740   29.9170   43.9520 C   0  0  0  0  0  0  0  0  0  0  0  0
   56.8830   31.2940   44.0710 C   0  0  0  0  0  0  0  0  0  0  0  0
   57.8530   31.7810   44.9510 C   0  0  0  0  0  0  0  0  0  0  0  0
   58.1380   33.6630   45.1130 Br  0  0  0  0  0  0  0  0  0  0  0  0
   58.6150   30.8900   45.7110 C   0  0  0  0  0  0  0  0  0  0  0  0
   58.4090   29.5120   45.5940 C   0  0  0  0  0  0  0  0  0  0  0  0
   54.7630   27.0570   46.4970 H   0  0  0  0  0  0  0  0  0  0  0  0
   57.1830   27.1840   43.6040 H   0  0  0  0  0  0  0  0  0  0  0  0
   55.9088   29.5401   43.2575 H   0  0  0  0  0  0  0  0  0  0  0  0
   56.2834   31.9947   43.4714 H   0  0  0  0  0  0  0  0  0  0  0  0
   59.3790   31.2736   46.4032 H   0  0  0  0  0  0  0  0  0  0  0  0
   59.0129   28.8158   46.1945 H   0  0  0  0  0  0  0  0  0  0  0  0
  1  2  1  0
  2  3  2  0
  2  4  2  0
  2  5  1  0
  5  6  1  0
  6  7  2  0
  7  8  1  0
  8  9  2  0
  9 10  1  0
  9 11  1  0
 11 12  2  0
 12  6  1  0
  1 13  1  0
  5 14  1  0
  7 15  1  0
  8 16  1  0
 11 17  1  0
 12 18  1  0
M  CHG  1   1  -1
M  END
>  <UniqueID>  (73) 
64

>  <SMILES>  (73) 
[NH-]S(=O)(=O)Nc1ccc(Br)cc1

>  <Energy>  (73) 
17.036110867649523

>  <Genealogy>  (73) 
[NH-]S(=O)(=O)Nc1ccc(Br)cc1 (protonated)
[NH-]S(=O)(=O)Nc1ccc(Br)cc1 (3D coordinates assigned)
[NH-]S(=O)(=O)Nc1ccc(Br)cc1 (optimized conformer: 17.036110867649523 kcal/mol)

>  <smiles>  (73) 
NS(=O)(=O)Nc1ccc(Br)cc1

>  <score_type>  (73) 
oracle

>  <origin>  (73) 
adg

>  <m_score__min__energy>  (73) 
-8.8499999999999996

>  <m_primary>  (73) 
energy

$$$$
73:0
     RDKit          3D

 41 43  0  0  0  0  0  0  0  0999 V2000
   56.7220   34.7540   44.8500 O   0  0  0  0  0  0  0  0  0  0  0  0
   57.8340   34.1900   44.9030 N   0  0  0  0  0  0  0  0  0  0  0  0
   58.9720   34.9610   44.8500 O   0  0  0  0  0  0  0  0  0  0  0  0
   57.9260   32.7580   45.0180 C   0  0  0  0  0  0  0  0  0  0  0  0
   57.4380   31.9230   43.9980 C   0  0  0  0  0  0  0  0  0  0  0  0
   57.5280   30.5330   44.1130 C   0  0  0  0  0  0  0  0  0  0  0  0
   58.1090   29.9450   45.2510 C   0  0  0  0  0  0  0  0  0  0  0  0
   58.2010   28.5080   45.3700 N   0  0  0  0  0  0  0  0  0  0  0  0
   58.1390   27.8610   46.6880 C   0  0  0  0  0  0  0  0  0  0  0  0
   58.9120   26.5370   46.6650 C   0  0  0  0  0  0  0  0  0  0  0  0
   58.4560   25.6240   45.5890 N   0  0  0  0  0  0  0  0  0  0  0  0
   57.7810   24.3960   46.0700 C   0  0  0  0  0  0  0  0  0  0  0  0
   57.6370   23.3220   45.0080 C   0  0  0  0  0  0  0  0  0  0  0  0
   56.7390   23.4910   43.9420 C   0  0  0  0  0  0  0  0  0  0  0  0
   56.6110   22.4980   42.9710 C   0  0  0  0  0  0  0  0  0  0  0  0
   57.3940   21.3480   43.0610 C   0  0  0  0  0  0  0  0  0  0  0  0
   58.2800   21.2040   44.0820 N   0  0  0  0  0  0  0  0  0  0  0  0
   58.4220   22.1580   45.0420 C   0  0  0  0  0  0  0  0  0  0  0  0
   57.7680   26.2700   44.4470 C   0  0  0  0  0  0  0  0  0  0  0  0
   58.3270   27.6680   44.1700 C   0  0  0  0  0  0  0  0  0  0  0  0
   58.5950   30.7810   46.2710 C   0  0  0  0  0  0  0  0  0  0  0  0
   58.5050   32.1720   46.1550 C   0  0  0  0  0  0  0  0  0  0  0  0
   56.9813   32.3674   43.1014 H   0  0  0  0  0  0  0  0  0  0  0  0
   57.1410   29.8931   43.3063 H   0  0  0  0  0  0  0  0  0  0  0  0
   58.5833   28.5280   47.4414 H   0  0  0  0  0  0  0  0  0  0  0  0
   57.0874   27.6583   46.9391 H   0  0  0  0  0  0  0  0  0  0  0  0
   59.9791   26.7556   46.5117 H   0  0  0  0  0  0  0  0  0  0  0  0
   58.7329   26.0322   47.6258 H   0  0  0  0  0  0  0  0  0  0  0  0
   58.3662   23.9825   46.9046 H   0  0  0  0  0  0  0  0  0  0  0  0
   56.7641   24.6863   46.3728 H   0  0  0  0  0  0  0  0  0  0  0  0
   56.1355   24.4080   43.8725 H   0  0  0  0  0  0  0  0  0  0  0  0
   55.8988   22.6211   42.1418 H   0  0  0  0  0  0  0  0  0  0  0  0
   57.2947   20.5557   42.3045 H   0  0  0  0  0  0  0  0  0  0  0  0
   58.8700   20.3420   44.1280 H   0  0  0  0  0  0  0  0  0  0  0  0
   59.1558   22.0166   45.8492 H   0  0  0  0  0  0  0  0  0  0  0  0
   57.9031   25.6474   43.5503 H   0  0  0  0  0  0  0  0  0  0  0  0
   56.7019   26.3695   44.6992 H   0  0  0  0  0  0  0  0  0  0  0  0
   59.3882   27.5872   43.8919 H   0  0  0  0  0  0  0  0  0  0  0  0
   57.7591   28.1270   43.3473 H   0  0  0  0  0  0  0  0  0  0  0  0
   59.0503   30.3373   47.1687 H   0  0  0  0  0  0  0  0  0  0  0  0
   58.8912   32.8125   46.9616 H   0  0  0  0  0  0  0  0  0  0  0  0
  1  2  2  0
  2  3  1  0
  2  4  1  0
  4  5  2  0
  5  6  1  0
  6  7  2  0
  7  8  1  0
  8  9  1  0
  9 10  1  0
 10 11  1  0
 11 12  1  0
 12 13  1  0
 13 14  2  0
 14 15  1  0
 15 16  2  0
 16 17  1  0
 17 18  2  0
 11 19  1  0
 19 20  1  0
  7 21  1  0
 21 22  2  0
 22  4  1  0
 20  8  1  0
 18 13  1  0
  5 23  1  0
  6 24  1  0
  9 25  1  0
  9 26  1  0
 10 27  1  0
 10 28  1  0
 12 29  1  0
 12 30  1  0
 14 31  1  0
 15 32  1  0
 16 33  1  0
 17 34  1  0
 18 35  1  0
 19 36  1  0
 19 37  1  0
 20 38  1  0
 20 39  1  0
 21 40  1  0
 22 41  1  0
M  CHG  3   2   1   3  -1  17   1
M  END
>  <UniqueID>  (74) 
65

>  <SMILES>  (74) 
O=[N+]([O-])c1ccc(N2CCN(Cc3ccc[nH+]c3)CC2)cc1

>  <Energy>  (74) 
56.385421914341954

>  <Genealogy>  (74) 
O=[N+]([O-])c1ccc(N2CCN(Cc3ccc[nH+]c3)CC2)cc1 (protonated)
O=[N+]([O-])c1ccc(N2CCN(Cc3ccc[nH+]c3)CC2)cc1 (3D coordinates assigned)
O=[N+]([O-])c1ccc(N2CCN(Cc3ccc[nH+]c3)CC2)cc1 (nonaromatic ring conformer: 56.385421914341954 kcal/mol)

>  <smiles>  (74) 
O=[N+]([O-])c1ccc(N2CCN(Cc3cccnc3)CC2)cc1

>  <score_type>  (74) 
oracle

>  <origin>  (74) 
adg

>  <m_score__min__energy>  (74) 
-6.2000000000000002

>  <m_primary>  (74) 
energy

$$$$
74:0
     RDKit          3D

 55 58  0  0  0  0  0  0  0  0999 V2000
   59.9350   35.3310   46.3910 C   0  0  0  0  0  0  0  0  0  0  0  0
   58.6920   34.6710   46.6020 O   0  0  0  0  0  0  0  0  0  0  0  0
   58.3130   33.4700   45.9800 C   0  0  0  0  0  0  0  0  0  0  0  0
   57.7880   33.4400   44.6730 C   0  0  0  0  0  0  0  0  0  0  0  0
   57.4030   32.2280   44.0930 C   0  0  0  0  0  0  0  0  0  0  0  0
   57.5300   31.0370   44.8090 C   0  0  0  0  0  0  0  0  0  0  0  0
   58.0480   31.0520   46.1040 C   0  0  0  0  0  0  0  0  0  0  0  0
   58.4550   32.2610   46.6900 C   0  0  0  0  0  0  0  0  0  0  0  0
   59.0290   32.2460   48.0510 C   0  0  0  0  0  0  0  0  0  0  0  0
   58.1520   32.2970   49.1460 C   0  0  0  0  0  0  0  0  0  0  0  0
   58.6480   32.2920   50.4530 C   0  0  0  0  0  0  0  0  0  0  0  0
   57.7400   32.3490   51.5700 C   0  0  0  0  0  0  0  0  0  0  0  0
   57.0100   32.3950   52.4660 N   0  0  0  0  0  0  0  0  0  0  0  0
   60.0260   32.2340   50.6760 C   0  0  0  0  0  0  0  0  0  0  0  0
   60.9080   32.1720   49.5960 C   0  0  0  0  0  0  0  0  0  0  0  0
   60.4280   32.1610   48.2740 C   0  0  0  0  0  0  0  0  0  0  0  0
   61.4240   32.0630   47.1350 C   0  0  0  0  0  0  0  0  0  0  0  0
   61.7810   30.6700   46.8560 N   0  0  0  0  0  0  0  0  0  0  0  0
   60.8370   29.6470   46.4880 C   0  0  0  0  0  0  0  0  0  0  0  0
   60.1220   28.9820   47.4930 C   0  0  0  0  0  0  0  0  0  0  0  0
   59.2140   27.9720   47.1710 C   0  0  0  0  0  0  0  0  0  0  0  0
   58.9940   27.6090   45.8310 C   0  0  0  0  0  0  0  0  0  0  0  0
   58.0320   26.5320   45.4870 C   0  0  0  0  0  0  0  0  0  0  0  0
   57.0910   26.0860   46.4300 C   0  0  0  0  0  0  0  0  0  0  0  0
   56.1870   25.0720   46.1070 C   0  0  0  0  0  0  0  0  0  0  0  0
   56.1950   24.4770   44.8320 C   0  0  0  0  0  0  0  0  0  0  0  0
   55.2220   23.4010   44.5150 C   0  0  0  0  0  0  0  0  0  0  0  0
   53.9580   23.3340   45.1730 N   0  0  0  0  0  0  0  0  0  0  0  0
   55.5050   22.5250   43.6530 O   0  0  0  0  0  0  0  0  0  0  0  0
   57.1400   24.9260   43.8840 C   0  0  0  0  0  0  0  0  0  0  0  0
   57.1950   24.3960   42.6360 F   0  0  0  0  0  0  0  0  0  0  0  0
   58.0450   25.9410   44.2130 C   0  0  0  0  0  0  0  0  0  0  0  0
   59.7010   28.2860   44.8210 C   0  0  0  0  0  0  0  0  0  0  0  0
   60.6120   29.2950   45.1450 C   0  0  0  0  0  0  0  0  0  0  0  0
   60.3911   35.5732   47.3623 H   0  0  0  0  0  0  0  0  0  0  0  0
   60.6086   34.6717   45.8238 H   0  0  0  0  0  0  0  0  0  0  0  0
   59.7662   36.2583   45.8238 H   0  0  0  0  0  0  0  0  0  0  0  0
   57.6804   34.3761   44.1055 H   0  0  0  0  0  0  0  0  0  0  0  0
   56.9990   32.2130   43.0700 H   0  0  0  0  0  0  0  0  0  0  0  0
   57.2213   30.0854   44.3517 H   0  0  0  0  0  0  0  0  0  0  0  0
   58.1380   30.1123   46.6686 H   0  0  0  0  0  0  0  0  0  0  0  0
   57.0664   32.3412   48.9743 H   0  0  0  0  0  0  0  0  0  0  0  0
   60.4165   32.2372   51.7044 H   0  0  0  0  0  0  0  0  0  0  0  0
   61.9916   32.1313   49.7810 H   0  0  0  0  0  0  0  0  0  0  0  0
   60.9796   32.5064   46.2317 H   0  0  0  0  0  0  0  0  0  0  0  0
   62.3371   32.6029   47.4260 H   0  0  0  0  0  0  0  0  0  0  0  0
   62.7990   30.4300   46.8540 H   0  0  0  0  0  0  0  0  0  0  0  0
   60.2778   29.2587   48.5462 H   0  0  0  0  0  0  0  0  0  0  0  0
   58.6659   27.4556   47.9728 H   0  0  0  0  0  0  0  0  0  0  0  0
   57.0661   26.5397   47.4318 H   0  0  0  0  0  0  0  0  0  0  0  0
   55.4590   24.7339   46.8592 H   0  0  0  0  0  0  0  0  0  0  0  0
   53.2580   22.6030   44.9180 H   0  0  0  0  0  0  0  0  0  0  0  0
   58.7760   26.2804   43.4644 H   0  0  0  0  0  0  0  0  0  0  0  0
   59.5354   28.0189   43.7668 H   0  0  0  0  0  0  0  0  0  0  0  0
   61.1566   29.8172   44.3446 H   0  0  0  0  0  0  0  0  0  0  0  0
  1  2  1  0
  2  3  1  0
  3  4  2  0
  4  5  1  0
  5  6  2  0
  6  7  1  0
  7  8  2  0
  8  9  1  0
  9 10  2  0
 10 11  1  0
 11 12  1  0
 12 13  3  0
 11 14  2  0
 14 15  1  0
 15 16  2  0
 16 17  1  0
 17 18  1  0
 18 19  1  0
 19 20  2  0
 20 21  1  0
 21 22  2  0
 22 23  1  0
 23 24  2  0
 24 25  1  0
 25 26  2  0
 26 27  1  0
 27 28  1  0
 27 29  2  0
 26 30  1  0
 30 31  1  0
 30 32  2  0
 22 33  1  0
 33 34  2  0
  8  3  1  0
 16  9  1  0
 34 19  1  0
 32 23  1  0
  1 35  1  0
  1 36  1  0
  1 37  1  0
  4 38  1  0
  5 39  1  0
  6 40  1  0
  7 41  1  0
 10 42  1  0
 14 43  1  0
 15 44  1  0
 17 45  1  0
 17 46  1  0
 18 47  1  0
 20 48  1  0
 21 49  1  0
 24 50  1  0
 25 51  1  0
 28 52  1  0
 32 53  1  0
 33 54  1  0
 34 55  1  0
M  CHG  1  28  -1
M  END
>  <UniqueID>  (75) 
66

>  <SMILES>  (75) 
COc1ccccc1-c1cc(C#N)ccc1CNc1ccc(-c2ccc(C([NH-])=O)c(F)c2)cc1

>  <Energy>  (75) 
71.43706819251696

>  <Genealogy>  (75) 
COc1ccccc1-c1cc(C#N)ccc1CNc1ccc(-c2ccc(C([NH-])=O)c(F)c2)cc1 (protonated)
COc1ccccc1-c1cc(C#N)ccc1CNc1ccc(-c2ccc(C([NH-])=O)c(F)c2)cc1 (3D coordinates assigned)
COc1ccccc1-c1cc(C#N)ccc1CNc1ccc(-c2ccc(C([NH-])=O)c(F)c2)cc1 (optimized conformer: 71.43706819251696 kcal/mol)

>  <smiles>  (75) 
COc1ccccc1-c1cc(C#N)ccc1CNc1ccc(-c2ccc(C(N)=O)c(F)c2)cc1

>  <score_type>  (75) 
oracle

>  <origin>  (75) 
adg

>  <m_score__min__energy>  (75) 
-10.640000000000001

>  <m_primary>  (75) 
energy

$$$$
75:0
     RDKit          3D

 30 32  0  0  0  0  0  0  0  0999 V2000
   58.8809   33.5997   48.3550 H   0  0  0  0  0  0  0  0  0  0  0  0
   58.7880   33.6060   47.2590 C   0  0  0  0  0  0  0  0  0  0  0  0
   58.1860   32.5670   46.6230 N   0  0  0  0  0  0  0  0  0  0  0  0
   58.0450   32.5260   45.2670 C   0  0  0  0  0  0  0  0  0  0  0  0
   57.3760   31.3530   44.6590 C   0  0  0  0  0  0  0  0  0  0  0  0
   57.0180   30.2830   45.4240 N   0  0  0  0  0  0  0  0  0  0  0  0
   56.4280   29.3120   44.6980 C   0  0  0  0  0  0  0  0  0  0  0  0
   55.9720   28.2230   45.2440 N   0  0  0  0  0  0  0  0  0  0  0  0
   56.7550   27.1030   45.6900 C   0  0  0  0  0  0  0  0  0  0  0  0
   56.2810   26.2800   46.7280 C   0  0  0  0  0  0  0  0  0  0  0  0
   55.3380   26.5319   47.2353 H   0  0  0  0  0  0  0  0  0  0  0  0
   56.9950   25.1480   47.1200 C   0  0  0  0  0  0  0  0  0  0  0  0
   56.6246   24.5237   47.9464 H   0  0  0  0  0  0  0  0  0  0  0  0
   58.1770   24.8070   46.4660 C   0  0  0  0  0  0  0  0  0  0  0  0
   58.7410   23.9160   46.7791 H   0  0  0  0  0  0  0  0  0  0  0  0
   58.6460   25.5950   45.4140 C   0  0  0  0  0  0  0  0  0  0  0  0
   59.5744   25.3125   44.8961 H   0  0  0  0  0  0  0  0  0  0  0  0
   57.9460   26.7470   45.0070 C   0  0  0  0  0  0  0  0  0  0  0  0
   58.4630   27.5380   43.9170 N   0  0  0  0  0  0  0  0  0  0  0  0
   59.2850   28.4560   44.1180 O   0  0  0  0  0  0  0  0  0  0  0  0
   58.1190   27.2380   42.6190 O   0  0  0  0  0  0  0  0  0  0  0  0
   56.2970   29.7440   43.0750 S   0  0  0  0  0  0  0  0  0  0  0  0
   57.0500   31.2310   43.3030 C   0  0  0  0  0  0  0  0  0  0  0  0
   57.2514   31.9784   42.5215 H   0  0  0  0  0  0  0  0  0  0  0  0
   58.5390   33.5950   44.4970 C   0  0  0  0  0  0  0  0  0  0  0  0
   58.4372   33.5830   43.4018 H   0  0  0  0  0  0  0  0  0  0  0  0
   59.1600   34.6720   45.1350 C   0  0  0  0  0  0  0  0  0  0  0  0
   59.5479   35.5134   44.5420 H   0  0  0  0  0  0  0  0  0  0  0  0
   59.2880   34.6800   46.5240 C   0  0  0  0  0  0  0  0  0  0  0  0
   59.7774   35.5233   47.0332 H   0  0  0  0  0  0  0  0  0  0  0  0
  1  2  1  0
  2  3  2  0
  3  4  1  0
  4  5  1  0
  5  6  1  0
  6  7  1  0
  7  8  2  0
  8  9  1  0
  9 10  2  0
 10 11  1  0
 10 12  1  0
 12 13  1  0
 12 14  2  0
 14 15  1  0
 14 16  1  0
 16 17  1  0
 16 18  2  0
 18 19  1  0
 19 20  2  0
 19 21  1  0
  7 22  1  0
 22 23  1  0
 23 24  1  0
  4 25  2  0
 25 26  1  0
 25 27  1  0
 27 28  1  0
 27 29  2  0
 29 30  1  0
 29  2  1  0
 23  5  2  0
 18  9  1  0
M  CHG  3   6  -1  19   1  21  -1
M  END
>  <UniqueID>  (76) 
67

>  <SMILES>  (76) 
O=[N+]([O-])c1ccccc1/N=c1/[n-]c(-c2ccccn2)cs1

>  <Energy>  (76) 
75.84722979296038

>  <Genealogy>  (76) 
O=[N+]([O-])c1ccccc1N=c1[n-]c(-c2ccccn2)cs1 (protonated)
O=[N+]([O-])c1ccccc1/N=c1/[n-]c(-c2ccccn2)cs1 (cis-trans isomerization)
O=[N+]([O-])c1ccccc1/N=c1/[n-]c(-c2ccccn2)cs1 (3D coordinates assigned)
O=[N+]([O-])c1ccccc1/N=c1/[n-]c(-c2ccccn2)cs1 (optimized conformer: 75.84722979296038 kcal/mol)

>  <smiles>  (76) 
O=[N+]([O-])c1ccccc1N=c1[nH]c(-c2ccccn2)cs1

>  <score_type>  (76) 
oracle

>  <origin>  (76) 
adg

>  <m_score__min__energy>  (76) 
-10.17

>  <m_primary>  (76) 
energy

$$$$
76:0
     RDKit          3D

 42 43  0  0  0  0  0  0  0  0999 V2000
   58.9170   34.5210   45.8990 C   0  0  0  0  0  0  0  0  0  0  0  0
   57.8770   33.6620   45.1860 C   0  0  0  0  0  0  0  0  0  0  0  0
   58.1590   32.1710   45.3920 C   0  0  0  0  0  0  0  0  0  0  0  0
   57.3350   31.1920   44.1450 S   0  0  0  0  0  0  0  0  0  0  0  0
   57.3690   31.9430   42.8440 O   0  0  0  0  0  0  0  0  0  0  0  0
   55.9000   30.9630   44.5300 O   0  0  0  0  0  0  0  0  0  0  0  0
   58.1380   29.6680   43.9330 N   0  0  0  0  0  0  0  0  0  0  0  0
   58.1980   28.6410   44.9400 C   0  0  0  0  0  0  0  0  0  0  0  0
   59.3530   28.4260   45.7140 C   0  0  0  0  0  0  0  0  0  0  0  0
   59.3780   27.4170   46.6770 C   0  0  0  0  0  0  0  0  0  0  0  0
   58.2530   26.6180   46.8940 C   0  0  0  0  0  0  0  0  0  0  0  0
   58.3030   25.6580   47.8520 F   0  0  0  0  0  0  0  0  0  0  0  0
   57.0800   26.8320   46.1470 C   0  0  0  0  0  0  0  0  0  0  0  0
   55.8780   25.9910   46.3690 C   0  0  0  0  0  0  0  0  0  0  0  0
   54.7860   26.3160   45.8330 O   0  0  0  0  0  0  0  0  0  0  0  0
   55.9030   24.8460   47.2330 N   0  0  0  0  0  0  0  0  0  0  0  0
   56.1960   23.4960   46.8450 C   0  0  0  0  0  0  0  0  0  0  0  0
   56.7470   22.5670   47.7410 C   0  0  0  0  0  0  0  0  0  0  0  0
   57.0240   21.3030   47.3290 N   0  0  0  0  0  0  0  0  0  0  0  0
   56.7900   20.8980   46.0520 C   0  0  0  0  0  0  0  0  0  0  0  0
   56.2620   21.7990   45.1120 C   0  0  0  0  0  0  0  0  0  0  0  0
   56.0120   21.4410   43.7780 O   0  0  0  0  0  0  0  0  0  0  0  0
   57.0260   21.1750   42.8150 C   0  0  0  0  0  0  0  0  0  0  0  0
   55.9750   23.1030   45.5220 C   0  0  0  0  0  0  0  0  0  0  0  0
   57.0680   27.8410   45.1690 C   0  0  0  0  0  0  0  0  0  0  0  0
   58.7933   34.4188   46.9872 H   0  0  0  0  0  0  0  0  0  0  0  0
   59.9257   34.1893   45.6119 H   0  0  0  0  0  0  0  0  0  0  0  0
   58.7818   35.5742   45.6119 H   0  0  0  0  0  0  0  0  0  0  0  0
   56.8802   33.8979   45.5869 H   0  0  0  0  0  0  0  0  0  0  0  0
   57.9220   33.8807   44.1089 H   0  0  0  0  0  0  0  0  0  0  0  0
   59.2433   31.9969   45.3291 H   0  0  0  0  0  0  0  0  0  0  0  0
   57.7805   31.8737   46.3811 H   0  0  0  0  0  0  0  0  0  0  0  0
   58.7110   29.5570   43.0680 H   0  0  0  0  0  0  0  0  0  0  0  0
   60.2408   29.0567   45.5590 H   0  0  0  0  0  0  0  0  0  0  0  0
   60.2896   27.2495   47.2693 H   0  0  0  0  0  0  0  0  0  0  0  0
   56.9550   22.8634   48.7797 H   0  0  0  0  0  0  0  0  0  0  0  0
   57.0145   19.8631   45.7545 H   0  0  0  0  0  0  0  0  0  0  0  0
   57.9658   20.9285   43.3307 H   0  0  0  0  0  0  0  0  0  0  0  0
   56.7200   20.3267   42.1851 H   0  0  0  0  0  0  0  0  0  0  0  0
   57.1758   22.0642   42.1851 H   0  0  0  0  0  0  0  0  0  0  0  0
   55.5719   23.8264   44.7980 H   0  0  0  0  0  0  0  0  0  0  0  0
   56.1582   28.0064   44.5733 H   0  0  0  0  0  0  0  0  0  0  0  0
  1  2  1  0
  2  3  1  0
  3  4  1  0
  4  5  2  0
  4  6  2  0
  4  7  1  0
  7  8  1  0
  8  9  2  0
  9 10  1  0
 10 11  2  0
 11 12  1  0
 11 13  1  0
 13 14  1  0
 14 15  2  0
 14 16  1  0
 16 17  1  0
 17 18  2  0
 18 19  1  0
 19 20  2  0
 20 21  1  0
 21 22  1  0
 22 23  1  0
 21 24  2  0
 13 25  2  0
 25  8  1  0
 24 17  1  0
  1 26  1  0
  1 27  1  0
  1 28  1  0
  2 29  1  0
  2 30  1  0
  3 31  1  0
  3 32  1  0
  7 33  1  0
  9 34  1  0
 10 35  1  0
 18 36  1  0
 20 37  1  0
 23 38  1  0
 23 39  1  0
 23 40  1  0
 24 41  1  0
 25 42  1  0
M  CHG  1  16  -1
M  END
>  <UniqueID>  (77) 
68

>  <SMILES>  (77) 
CCCS(=O)(=O)Nc1ccc(F)c(C(=O)[N-]c2cncc(OC)c2)c1

>  <Energy>  (77) 
43.214804030807784

>  <Genealogy>  (77) 
CCCS(=O)(=O)Nc1ccc(F)c(C(=O)[N-]c2cncc(OC)c2)c1 (protonated)
CCCS(=O)(=O)Nc1ccc(F)c(C(=O)[N-]c2cncc(OC)c2)c1 (3D coordinates assigned)
CCCS(=O)(=O)Nc1ccc(F)c(C(=O)[N-]c2cncc(OC)c2)c1 (optimized conformer: 43.214804030807784 kcal/mol)

>  <smiles>  (77) 
CCCS(=O)(=O)Nc1ccc(F)c(C(=O)Nc2cncc(OC)c2)c1

>  <score_type>  (77) 
oracle

>  <origin>  (77) 
adg

>  <m_score__min__energy>  (77) 
-10.6

>  <m_primary>  (77) 
energy

$$$$
77:0
     RDKit          3D

 44 45  0  0  0  0  0  0  0  0999 V2000
   64.5360   32.7450   49.0670 C   0  0  0  0  0  0  0  0  0  0  0  0
   63.1120   32.8550   49.6620 C   0  0  0  0  0  0  0  0  0  0  0  0
   62.6760   31.4400   50.0960 C   0  0  0  0  0  0  0  0  0  0  0  0
   63.1940   33.7700   50.9040 C   0  0  0  0  0  0  0  0  0  0  0  0
   62.0830   33.4270   48.6660 C   0  0  0  0  0  0  0  0  0  0  0  0
   62.3280   33.3360   47.2770 C   0  0  0  0  0  0  0  0  0  0  0  0
   61.4140   33.8340   46.3450 C   0  0  0  0  0  0  0  0  0  0  0  0
   60.2390   34.4610   46.7710 C   0  0  0  0  0  0  0  0  0  0  0  0
   59.2710   34.9530   45.7660 C   0  0  0  0  0  0  0  0  0  0  0  0
   58.6100   34.1770   44.8920 C   0  0  0  0  0  0  0  0  0  0  0  0
   57.8650   32.9560   45.2530 C   0  0  0  0  0  0  0  0  0  0  0  0
   56.6050   32.9930   45.2560 O   0  0  0  0  0  0  0  0  0  0  0  0
   58.5580   31.7720   45.6760 N   0  0  0  0  0  0  0  0  0  0  0  0
   57.9740   30.4580   45.6540 C   0  0  0  0  0  0  0  0  0  0  0  0
   56.7960   30.3000   45.2340 O   0  0  0  0  0  0  0  0  0  0  0  0
   58.7610   29.2800   46.0950 C   0  0  0  0  0  0  0  0  0  0  0  0
   58.8850   28.1710   45.2370 C   0  0  0  0  0  0  0  0  0  0  0  0
   59.6250   27.0510   45.6250 C   0  0  0  0  0  0  0  0  0  0  0  0
   60.2390   27.0170   46.8760 C   0  0  0  0  0  0  0  0  0  0  0  0
   60.1210   28.1050   47.7420 C   0  0  0  0  0  0  0  0  0  0  0  0
   59.3890   29.2380   47.3630 C   0  0  0  0  0  0  0  0  0  0  0  0
   59.3440   30.5960   48.4830 Cl  0  0  0  0  0  0  0  0  0  0  0  0
   59.9690   34.5450   48.1450 C   0  0  0  0  0  0  0  0  0  0  0  0
   60.8800   34.0460   49.0800 C   0  0  0  0  0  0  0  0  0  0  0  0
   65.2711   32.6882   49.8833 H   0  0  0  0  0  0  0  0  0  0  0  0
   64.6055   31.8388   48.4473 H   0  0  0  0  0  0  0  0  0  0  0  0
   64.7438   33.6298   48.4473 H   0  0  0  0  0  0  0  0  0  0  0  0
   62.6583   31.3825   51.1944 H   0  0  0  0  0  0  0  0  0  0  0  0
   61.6711   31.2288   49.7015 H   0  0  0  0  0  0  0  0  0  0  0  0
   63.3878   30.6999   49.7015 H   0  0  0  0  0  0  0  0  0  0  0  0
   63.1390   33.1567   51.8155 H   0  0  0  0  0  0  0  0  0  0  0  0
   64.1452   34.3222   50.8904 H   0  0  0  0  0  0  0  0  0  0  0  0
   62.3561   34.4826   50.8904 H   0  0  0  0  0  0  0  0  0  0  0  0
   63.2563   32.8639   46.9229 H   0  0  0  0  0  0  0  0  0  0  0  0
   61.6200   33.7322   45.2693 H   0  0  0  0  0  0  0  0  0  0  0  0
   59.0784   36.0355   45.7323 H   0  0  0  0  0  0  0  0  0  0  0  0
   58.6251   34.4725   43.8325 H   0  0  0  0  0  0  0  0  0  0  0  0
   59.5340   31.8820   46.0290 H   0  0  0  0  0  0  0  0  0  0  0  0
   58.3950   28.1862   44.2523 H   0  0  0  0  0  0  0  0  0  0  0  0
   59.7232   26.1944   44.9419 H   0  0  0  0  0  0  0  0  0  0  0  0
   60.8169   26.1320   47.1808 H   0  0  0  0  0  0  0  0  0  0  0  0
   60.6059   28.0729   48.7288 H   0  0  0  0  0  0  0  0  0  0  0  0
   59.0323   35.0075   48.4894 H   0  0  0  0  0  0  0  0  0  0  0  0
   60.6585   34.1358   50.1537 H   0  0  0  0  0  0  0  0  0  0  0  0
  1  2  1  0
  2  3  1  0
  2  4  1  0
  2  5  1  0
  5  6  2  0
  6  7  1  0
  7  8  2  0
  8  9  1  0
  9 10  2  3
 10 11  1  0
 11 12  2  0
 11 13  1  0
 13 14  1  0
 14 15  2  0
 14 16  1  0
 16 17  2  0
 17 18  1  0
 18 19  2  0
 19 20  1  0
 20 21  2  0
 21 22  1  0
  8 23  1  0
 23 24  2  0
 24  5  1  0
 21 16  1  0
  1 25  1  0
  1 26  1  0
  1 27  1  0
  3 28  1  0
  3 29  1  0
  3 30  1  0
  4 31  1  0
  4 32  1  0
  4 33  1  0
  6 34  1  0
  7 35  1  0
  9 36  1  0
 10 37  1  0
 13 38  1  0
 17 39  1  0
 18 40  1  0
 19 41  1  0
 20 42  1  0
 23 43  1  0
 24 44  1  0
M  END
>  <UniqueID>  (78) 
69

>  <SMILES>  (78) 
CC(C)(C)c1ccc(C=CC(=O)NC(=O)c2ccccc2Cl)cc1

>  <Energy>  (78) 
56.167033461363985

>  <Genealogy>  (78) 
CC(C)(C)c1ccc(C=CC(=O)NC(=O)c2ccccc2Cl)cc1 (3D coordinates assigned)
CC(C)(C)c1ccc(C=CC(=O)NC(=O)c2ccccc2Cl)cc1 (optimized conformer: 56.167033461363985 kcal/mol)

>  <smiles>  (78) 
CC(C)(C)c1ccc(C=CC(=O)NC(=O)c2ccccc2Cl)cc1

>  <score_type>  (78) 
oracle

>  <origin>  (78) 
adg

>  <m_score__min__energy>  (78) 
-8.5999999999999996

>  <m_primary>  (78) 
energy

$$$$
78:0
     RDKit          3D

 35 36  0  0  0  0  0  0  0  0999 V2000
   61.0190   34.2160   48.3550 C   0  0  0  0  0  0  0  0  0  0  0  0
   60.0020   33.5730   47.4480 C   0  0  0  0  0  0  0  0  0  0  0  0
   58.9500   34.3480   46.9350 C   0  0  0  0  0  0  0  0  0  0  0  0
   57.9950   33.7830   46.0880 C   0  0  0  0  0  0  0  0  0  0  0  0
   58.0690   32.4240   45.7380 C   0  0  0  0  0  0  0  0  0  0  0  0
   57.1000   31.8080   44.8650 N   0  0  0  0  0  0  0  0  0  0  0  0
   57.3310   31.4810   43.4570 C   0  0  0  0  0  0  0  0  0  0  0  0
   56.7540   30.1030   43.1220 C   0  0  0  0  0  0  0  0  0  0  0  0
   56.2970   29.4000   44.3700 C   0  0  0  0  0  0  0  0  0  0  0  0
   55.1780   29.7010   44.8650 O   0  0  0  0  0  0  0  0  0  0  0  0
   57.1350   28.4020   45.0560 C   0  0  0  0  0  0  0  0  0  0  0  0
   58.5130   28.2910   44.9970 C   0  0  0  0  0  0  0  0  0  0  0  0
   58.8350   27.2170   45.8000 C   0  0  0  0  0  0  0  0  0  0  0  0
   57.6410   26.7390   46.2990 C   0  0  0  0  0  0  0  0  0  0  0  0
   56.6470   27.4650   45.8380 O   0  0  0  0  0  0  0  0  0  0  0  0
   59.1280   31.6510   46.2350 C   0  0  0  0  0  0  0  0  0  0  0  0
   60.1000   32.2090   47.0830 C   0  0  0  0  0  0  0  0  0  0  0  0
   61.2140   31.3390   47.6040 C   0  0  0  0  0  0  0  0  0  0  0  0
   60.7388   34.0389   49.4039 H   0  0  0  0  0  0  0  0  0  0  0  0
   62.0103   33.7801   48.1616 H   0  0  0  0  0  0  0  0  0  0  0  0
   61.0503   35.2984   48.1616 H   0  0  0  0  0  0  0  0  0  0  0  0
   58.8774   35.4123   47.2034 H   0  0  0  0  0  0  0  0  0  0  0  0
   57.1792   34.4056   45.6919 H   0  0  0  0  0  0  0  0  0  0  0  0
   56.1520   31.5950   45.2510 H   0  0  0  0  0  0  0  0  0  0  0  0
   56.8455   32.2395   42.8254 H   0  0  0  0  0  0  0  0  0  0  0  0
   58.4148   31.4667   43.2695 H   0  0  0  0  0  0  0  0  0  0  0  0
   55.8976   30.2257   42.4426 H   0  0  0  0  0  0  0  0  0  0  0  0
   57.5381   29.4985   42.6428 H   0  0  0  0  0  0  0  0  0  0  0  0
   59.2071   28.9270   44.4281 H   0  0  0  0  0  0  0  0  0  0  0  0
   59.8413   26.8212   46.0019 H   0  0  0  0  0  0  0  0  0  0  0  0
   57.5367   25.8808   46.9792 H   0  0  0  0  0  0  0  0  0  0  0  0
   59.1993   30.5893   45.9563 H   0  0  0  0  0  0  0  0  0  0  0  0
   61.2025   31.3480   48.7039 H   0  0  0  0  0  0  0  0  0  0  0  0
   61.0737   30.3090   47.2443 H   0  0  0  0  0  0  0  0  0  0  0  0
   62.1793   31.7247   47.2443 H   0  0  0  0  0  0  0  0  0  0  0  0
  1  2  1  0
  2  3  2  0
  3  4  1  0
  4  5  2  0
  5  6  1  0
  6  7  1  0
  7  8  1  0
  8  9  1  0
  9 10  2  0
  9 11  1  0
 11 12  2  0
 12 13  1  0
 13 14  2  0
 14 15  1  0
  5 16  1  0
 16 17  2  0
 17 18  1  0
 17  2  1  0
 15 11  1  0
  1 19  1  0
  1 20  1  0
  1 21  1  0
  3 22  1  0
  4 23  1  0
  6 24  1  0
  7 25  1  0
  7 26  1  0
  8 27  1  0
  8 28  1  0
 12 29  1  0
 13 30  1  0
 14 31  1  0
 16 32  1  0
 18 33  1  0
 18 34  1  0
 18 35  1  0
M  END
>  <UniqueID>  (79) 
70

>  <SMILES>  (79) 
Cc1ccc(NCCC(=O)c2ccco2)cc1C

>  <Energy>  (79) 
56.74399126003587

>  <Genealogy>  (79) 
Cc1ccc(NCCC(=O)c2ccco2)cc1C (3D coordinates assigned)
Cc1ccc(NCCC(=O)c2ccco2)cc1C (optimized conformer: 56.74399126003587 kcal/mol)

>  <smiles>  (79) 
Cc1ccc(NCCC(=O)c2ccco2)cc1C

>  <score_type>  (79) 
oracle

>  <origin>  (79) 
adg

>  <m_score__min__energy>  (79) 
-6.7300000000000004

>  <m_primary>  (79) 
energy

$$$$
79:0
     RDKit          3D

 62 66  0  0  1  0  0  0  0  0999 V2000
   56.2560   27.6050   54.9770 C   0  0  0  0  0  0  0  0  0  0  0  0
   56.1790   27.7900   53.5690 O   0  0  0  0  0  0  0  0  0  0  0  0
   56.6030   29.0130   53.0700 C   0  0  0  0  0  0  0  0  0  0  0  0
   57.8120   29.1770   52.4180 C   0  0  0  0  0  0  0  0  0  0  0  0
   58.2030   30.4250   51.9300 C   0  0  0  0  0  0  0  0  0  0  0  0
   57.3910   31.5270   52.0880 C   0  0  0  0  0  0  0  0  0  0  0  0
   56.2020   31.3430   52.7350 N   0  0  0  0  0  0  0  0  0  0  0  0
   55.8180   30.1390   53.2080 C   0  0  0  0  0  0  0  0  0  0  0  0
   54.5690   29.9600   53.8840 N   0  0  0  0  0  0  0  0  0  0  0  0
   53.4350   30.2710   53.3740 C   0  0  0  0  0  0  0  0  0  0  0  0
   52.2890   29.7080   53.9020 C   0  0  0  0  0  0  0  0  0  0  0  0
   51.0890   30.0860   53.3030 C   0  0  0  0  0  0  0  0  0  0  0  0
   51.0820   30.9620   52.2600 N   0  0  0  0  0  0  0  0  0  0  0  0
   52.2250   31.4830   51.7820 C   0  0  0  0  0  0  0  0  0  0  0  0
   52.2570   32.3160   50.7940 N   0  0  0  0  0  0  0  0  0  0  0  0
   53.4110   31.1270   52.3530 N   0  0  0  0  0  0  0  0  0  0  0  0
   57.7280   32.8830   51.6020 C   0  0  0  0  0  0  0  0  0  0  0  0
   59.2110   32.9200   51.2450 C   0  0  0  0  0  0  0  0  0  0  0  0
   59.5710   31.7330   50.5160 N   0  0  0  0  0  0  0  0  0  0  0  0
   59.9600   31.7210   49.1500 C   0  0  0  0  0  0  0  0  0  0  0  0
   59.1580   31.2450   48.1370 C   0  0  0  0  0  0  0  0  0  0  0  0
   59.5600   31.2440   46.8180 C   0  0  0  0  0  0  0  0  0  0  0  0
   58.7160   30.7460   45.7620 N   0  0  0  0  0  0  0  0  0  0  0  0
   58.5990   29.3150   45.6630 C   0  0  0  0  0  0  0  0  0  0  0  0
   57.6390   28.8050   44.6550 C   0  0  0  0  0  0  0  0  0  0  0  0
   56.6830   29.8200   44.0910 C   0  0  0  0  0  0  0  0  0  0  0  0
   55.5190   30.0500   44.9140 N   0  0  0  0  0  0  0  0  0  0  0  0
   57.3790   31.1220   43.7540 C   0  0  0  0  0  0  0  0  0  0  0  0
   58.0830   31.7210   44.9200 C   0  0  0  0  0  0  0  0  0  0  0  0
   60.7920   31.7380   46.5680 N   0  0  0  0  0  0  0  0  0  0  0  0
   61.6040   32.2110   47.5300 C   0  0  0  0  0  0  0  0  0  0  0  0
   62.9130   32.7320   47.2250 C   0  0  0  0  0  0  0  0  0  0  0  0
   63.9660   33.1630   46.9980 N   0  0  0  0  0  0  0  0  0  0  0  0
   61.1710   32.1910   48.7880 N   0  0  0  0  0  0  0  0  0  0  0  0
   59.5220   30.4700   51.2480 C   0  0  0  0  0  0  0  0  0  0  0  0
   55.8813   28.5052   55.4861 H   0  0  0  0  0  0  0  0  0  0  0  0
   55.6439   26.7382   55.2669 H   0  0  0  0  0  0  0  0  0  0  0  0
   57.3023   27.4285   55.2669 H   0  0  0  0  0  0  0  0  0  0  0  0
   58.4756   28.3104   52.2820 H   0  0  0  0  0  0  0  0  0  0  0  0
   52.3220   29.0028   54.7456 H   0  0  0  0  0  0  0  0  0  0  0  0
   50.1397   29.6736   53.6755 H   0  0  0  0  0  0  0  0  0  0  0  0
   50.1780   31.2510   51.8030 H   0  0  0  0  0  0  0  0  0  0  0  0
   53.1350   32.4760   50.2190 H   0  0  0  0  0  0  0  0  0  0  0  0
   54.3090   31.5440   51.9700 H   0  0  0  0  0  0  0  0  0  0  0  0
   57.1268   33.1169   50.7110 H   0  0  0  0  0  0  0  0  0  0  0  0
   57.5120   33.6259   52.3840 H   0  0  0  0  0  0  0  0  0  0  0  0
   59.4143   33.8048   50.6238 H   0  0  0  0  0  0  0  0  0  0  0  0
   59.8041   32.9696   52.1701 H   0  0  0  0  0  0  0  0  0  0  0  0
   58.1620   30.8519   48.3887 H   0  0  0  0  0  0  0  0  0  0  0  0
   59.5923   28.9135   45.4137 H   0  0  0  0  0  0  0  0  0  0  0  0
   58.2078   28.9836   46.6362 H   0  0  0  0  0  0  0  0  0  0  0  0
   58.2180   28.3854   43.8191 H   0  0  0  0  0  0  0  0  0  0  0  0
   57.0159   28.0672   45.1816 H   0  0  0  0  0  0  0  0  0  0  0  0
   56.3092   29.3750   43.1571 H   0  0  0  0  0  0  0  0  0  0  0  0
   54.6470   29.8870   44.4010 H   0  0  0  0  0  0  0  0  0  0  0  0
   55.5810   29.7170   45.8780 H   0  0  0  0  0  0  0  0  0  0  0  0
   58.1155   30.9309   42.9596 H   0  0  0  0  0  0  0  0  0  0  0  0
   56.6062   31.8358   43.4327 H   0  0  0  0  0  0  0  0  0  0  0  0
   58.8528   32.4121   44.5460 H   0  0  0  0  0  0  0  0  0  0  0  0
   57.3255   32.2357   45.5293 H   0  0  0  0  0  0  0  0  0  0  0  0
   59.6182   29.6239   50.5517 H   0  0  0  0  0  0  0  0  0  0  0  0
   60.3460   30.3999   51.9734 H   0  0  0  0  0  0  0  0  0  0  0  0
  1  2  1  0
  2  3  1  0
  3  4  2  0
  4  5  1  0
  5  6  2  0
  6  7  1  0
  7  8  2  0
  8  9  1  0
  9 10  2  0
 10 11  1  0
 11 12  2  0
 12 13  1  0
 13 14  1  0
 14 15  2  3
 14 16  1  0
  6 17  1  0
 17 18  1  0
 18 19  1  0
 19 20  1  0
 20 21  2  0
 21 22  1  0
 22 23  1  0
 23 24  1  0
 24 25  1  0
 25 26  1  0
 26 27  1  0
 26 28  1  0
 28 29  1  0
 22 30  2  0
 30 31  1  0
 31 32  1  0
 32 33  3  0
 31 34  2  0
 19 35  1  0
  8  3  1  0
 16 10  1  0
 34 20  1  0
 35  5  1  0
 29 23  1  0
  1 36  1  0
  1 37  1  0
  1 38  1  0
  4 39  1  0
 11 40  1  0
 12 41  1  0
 13 42  1  0
 15 43  1  0
 16 44  1  0
 17 45  1  0
 17 46  1  0
 18 47  1  0
 18 48  1  0
 21 49  1  0
 24 50  1  0
 24 51  1  0
 25 52  1  0
 25 53  1  0
 26 54  1  0
 27 55  1  0
 27 56  1  0
 28 57  1  0
 28 58  1  0
 29 59  1  0
 29 60  1  0
 35 61  1  0
 35 62  1  0
M  END
>  <smiles>  (80) 
COc1cc2c(nc1N=c1cc[nH]c(=N)[nH]1)CCN(c1cc(N3CCC(N)CC3)nc(C#N)n1)C2

>  <score_type>  (80) 
oracle

>  <origin>  (80) 
adg

>  <m_score__min__energy>  (80) 
-8.7699999999999996

>  <m_primary>  (80) 
energy

$$$$
80:0
     RDKit          3D

 58 60  0  0  0  0  0  0  0  0999 V2000
   64.4420   32.3330   49.5830 C   0  0  0  0  0  0  0  0  0  0  0  0
   63.7480   32.5380   48.2410 C   0  0  0  0  0  0  0  0  0  0  0  0
   63.2100   33.8550   48.1500 O   0  0  0  0  0  0  0  0  0  0  0  0
   61.9360   34.2020   48.6210 C   0  0  0  0  0  0  0  0  0  0  0  0
   61.7860   34.5760   49.8170 O   0  0  0  0  0  0  0  0  0  0  0  0
   60.7940   34.1190   47.7440 N   0  0  0  0  0  0  0  0  0  0  0  0
   59.4460   34.2690   48.3110 C   0  0  0  0  0  0  0  0  0  0  0  0
   58.3670   33.8340   47.3170 C   0  0  0  0  0  0  0  0  0  0  0  0
   58.5320   34.5550   45.9720 C   0  0  0  0  0  0  0  0  0  0  0  0
   57.6010   33.9660   45.0090 N   0  0  0  0  0  0  0  0  0  0  0  0
   57.8950   32.8530   44.1550 C   0  0  0  0  0  0  0  0  0  0  0  0
   58.4930   33.0600   43.0650 O   0  0  0  0  0  0  0  0  0  0  0  0
   57.5070   31.4760   44.5090 C   0  0  0  0  0  0  0  0  0  0  0  0
   56.5060   30.8120   43.7870 C   0  0  0  0  0  0  0  0  0  0  0  0
   56.1110   29.5220   44.1530 C   0  0  0  0  0  0  0  0  0  0  0  0
   56.7150   28.8730   45.2470 C   0  0  0  0  0  0  0  0  0  0  0  0
   56.3570   27.5680   45.6260 O   0  0  0  0  0  0  0  0  0  0  0  0
   57.1960   26.4240   45.4770 C   0  0  0  0  0  0  0  0  0  0  0  0
   57.7220   29.5400   45.9740 C   0  0  0  0  0  0  0  0  0  0  0  0
   58.3770   28.8790   47.0690 N   0  0  0  0  0  0  0  0  0  0  0  0
   59.9720   29.3410   47.5720 S   0  0  0  0  0  0  0  0  0  0  0  0
   60.6800   30.0140   46.4300 O   0  0  0  0  0  0  0  0  0  0  0  0
   60.7420   28.1150   47.9750 O   0  0  0  0  0  0  0  0  0  0  0  0
   59.8490   30.4770   48.9130 C   0  0  0  0  0  0  0  0  0  0  0  0
   58.5990   31.0080   49.2590 C   0  0  0  0  0  0  0  0  0  0  0  0
   58.4900   31.9130   50.3200 C   0  0  0  0  0  0  0  0  0  0  0  0
   59.6320   32.3030   51.0320 C   0  0  0  0  0  0  0  0  0  0  0  0
   59.4700   33.5580   52.4590 Br  0  0  0  0  0  0  0  0  0  0  0  0
   60.8820   31.7790   50.6880 C   0  0  0  0  0  0  0  0  0  0  0  0
   60.9920   30.8650   49.6340 C   0  0  0  0  0  0  0  0  0  0  0  0
   58.1020   30.8420   45.6060 C   0  0  0  0  0  0  0  0  0  0  0  0
   59.9880   34.4960   45.4270 C   0  0  0  0  0  0  0  0  0  0  0  0
   60.9650   33.7300   46.3350 C   0  0  0  0  0  0  0  0  0  0  0  0
   63.7335   32.5423   50.3980 H   0  0  0  0  0  0  0  0  0  0  0  0
   64.7922   31.2931   49.6596 H   0  0  0  0  0  0  0  0  0  0  0  0
   65.3011   33.0158   49.6596 H   0  0  0  0  0  0  0  0  0  0  0  0
   64.4767   32.3884   47.4307 H   0  0  0  0  0  0  0  0  0  0  0  0
   62.9260   31.8124   48.1525 H   0  0  0  0  0  0  0  0  0  0  0  0
   59.3683   33.6493   49.2165 H   0  0  0  0  0  0  0  0  0  0  0  0
   59.2880   35.3314   48.5483 H   0  0  0  0  0  0  0  0  0  0  0  0
   58.4444   32.7488   47.1548 H   0  0  0  0  0  0  0  0  0  0  0  0
   57.3827   34.0932   47.7340 H   0  0  0  0  0  0  0  0  0  0  0  0
   58.3071   35.6206   46.1268 H   0  0  0  0  0  0  0  0  0  0  0  0
   56.0292   31.3080   42.9287 H   0  0  0  0  0  0  0  0  0  0  0  0
   55.3224   29.0100   43.5821 H   0  0  0  0  0  0  0  0  0  0  0  0
   57.4757   26.0426   46.4701 H   0  0  0  0  0  0  0  0  0  0  0  0
   56.6554   25.6425   44.9230 H   0  0  0  0  0  0  0  0  0  0  0  0
   58.1039   26.7048   44.9230 H   0  0  0  0  0  0  0  0  0  0  0  0
   58.0250   27.9520   47.3960 H   0  0  0  0  0  0  0  0  0  0  0  0
   57.7019   30.7125   48.6951 H   0  0  0  0  0  0  0  0  0  0  0  0
   57.5057   32.3193   50.5959 H   0  0  0  0  0  0  0  0  0  0  0  0
   61.7791   32.0853   51.2460 H   0  0  0  0  0  0  0  0  0  0  0  0
   61.9752   30.4491   49.3689 H   0  0  0  0  0  0  0  0  0  0  0  0
   58.8747   31.3681   46.1858 H   0  0  0  0  0  0  0  0  0  0  0  0
   59.9698   34.0023   44.4442 H   0  0  0  0  0  0  0  0  0  0  0  0
   60.3501   35.5333   45.3732 H   0  0  0  0  0  0  0  0  0  0  0  0
   60.7775   32.6507   46.2349 H   0  0  0  0  0  0  0  0  0  0  0  0
   61.9925   33.9739   46.0273 H   0  0  0  0  0  0  0  0  0  0  0  0
  1  2  1  0
  2  3  1  0
  3  4  1  0
  4  5  2  0
  4  6  1  0
  6  7  1  0
  7  8  1  0
  8  9  1  0
  9 10  1  0
 10 11  1  0
 11 12  2  0
 11 13  1  0
 13 14  2  0
 14 15  1  0
 15 16  2  0
 16 17  1  0
 17 18  1  0
 16 19  1  0
 19 20  1  0
 20 21  1  0
 21 22  2  0
 21 23  2  0
 21 24  1  0
 24 25  2  0
 25 26  1  0
 26 27  2  0
 27 28  1  0
 27 29  1  0
 29 30  2  0
 19 31  2  0
  9 32  1  0
 32 33  1  0
 33  6  1  0
 31 13  1  0
 30 24  1  0
  1 34  1  0
  1 35  1  0
  1 36  1  0
  2 37  1  0
  2 38  1  0
  7 39  1  0
  7 40  1  0
  8 41  1  0
  8 42  1  0
  9 43  1  0
 14 44  1  0
 15 45  1  0
 18 46  1  0
 18 47  1  0
 18 48  1  0
 20 49  1  0
 25 50  1  0
 26 51  1  0
 29 52  1  0
 30 53  1  0
 31 54  1  0
 32 55  1  0
 32 56  1  0
 33 57  1  0
 33 58  1  0
M  CHG  1  10  -1
M  END
>  <UniqueID>  (81) 
71

>  <SMILES>  (81) 
CCOC(=O)N1CCC([N-]C(=O)c2ccc(OC)c(NS(=O)(=O)c3ccc(Br)cc3)c2)CC1

>  <Energy>  (81) 
59.424920999538166

>  <Genealogy>  (81) 
CCOC(=O)N1CCC([N-]C(=O)c2ccc(OC)c(NS(=O)(=O)c3ccc(Br)cc3)c2)CC1 (protonated)
CCOC(=O)N1CCC([N-]C(=O)c2ccc(OC)c(NS(=O)(=O)c3ccc(Br)cc3)c2)CC1 (3D coordinates assigned)
CCOC(=O)N1CCC([N-]C(=O)c2ccc(OC)c(NS(=O)(=O)c3ccc(Br)cc3)c2)CC1 (nonaromatic ring conformer: 59.424920999538166 kcal/mol)

>  <smiles>  (81) 
CCOC(=O)N1CCC(NC(=O)c2ccc(OC)c(NS(=O)(=O)c3ccc(Br)cc3)c2)CC1

>  <score_type>  (81) 
oracle

>  <origin>  (81) 
adg

>  <m_score__min__energy>  (81) 
-10.52

>  <m_primary>  (81) 
energy

$$$$
81:0
     RDKit          3D

 40 42  0  0  0  0  0  0  0  0999 V2000
   56.2370   21.4740   42.6310 N   0  0  0  0  0  0  0  0  0  0  0  0
   56.7810   22.2070   43.3420 C   0  0  0  0  0  0  0  0  0  0  0  0
   57.4590   23.1190   44.2270 C   0  0  0  0  0  0  0  0  0  0  0  0
   58.7170   22.7890   44.7470 C   0  0  0  0  0  0  0  0  0  0  0  0
   59.3740   23.6750   45.6040 C   0  0  0  0  0  0  0  0  0  0  0  0
   58.7800   24.8950   45.9420 C   0  0  0  0  0  0  0  0  0  0  0  0
   57.5240   25.2350   45.4210 C   0  0  0  0  0  0  0  0  0  0  0  0
   56.7780   26.7770   45.8280 S   0  0  0  0  0  0  0  0  0  0  0  0
   55.3010   26.5660   46.0090 O   0  0  0  0  0  0  0  0  0  0  0  0
   57.3550   27.3260   47.1030 O   0  0  0  0  0  0  0  0  0  0  0  0
   57.0390   27.9210   44.5490 N   0  0  0  0  0  0  0  0  0  0  0  0
   57.4060   29.2950   44.7650 C   0  0  0  0  0  0  0  0  0  0  0  0
   58.5600   29.5870   45.5090 C   0  0  0  0  0  0  0  0  0  0  0  0
   58.9380   30.9110   45.7480 C   0  0  0  0  0  0  0  0  0  0  0  0
   58.1670   31.9650   45.2450 C   0  0  0  0  0  0  0  0  0  0  0  0
   58.6520   33.6310   45.5420 S   0  0  0  0  0  0  0  0  0  0  0  0
   57.4300   34.4890   45.7170 O   0  0  0  0  0  0  0  0  0  0  0  0
   59.4590   34.1240   44.3740 O   0  0  0  0  0  0  0  0  0  0  0  0
   59.6040   33.6990   46.9910 N   0  0  0  0  0  0  0  0  0  0  0  0
   60.8540   33.3570   47.0500 C   0  0  0  0  0  0  0  0  0  0  0  0
   61.2310   32.1690   47.6020 N   0  0  0  0  0  0  0  0  0  0  0  0
   62.5390   31.8100   47.6640 C   0  0  0  0  0  0  0  0  0  0  0  0
   63.5190   32.6620   47.1570 C   0  0  0  0  0  0  0  0  0  0  0  0
   63.1190   33.8740   46.5960 C   0  0  0  0  0  0  0  0  0  0  0  0
   61.8010   34.1980   46.5530 N   0  0  0  0  0  0  0  0  0  0  0  0
   57.0240   31.6840   44.4860 C   0  0  0  0  0  0  0  0  0  0  0  0
   56.6440   30.3610   44.2460 C   0  0  0  0  0  0  0  0  0  0  0  0
   56.8630   24.3400   44.5670 C   0  0  0  0  0  0  0  0  0  0  0  0
   59.1879   21.8314   44.4803 H   0  0  0  0  0  0  0  0  0  0  0  0
   60.3605   23.4126   46.0138 H   0  0  0  0  0  0  0  0  0  0  0  0
   59.2997   25.5895   46.6184 H   0  0  0  0  0  0  0  0  0  0  0  0
   57.0100   27.5520   43.5710 H   0  0  0  0  0  0  0  0  0  0  0  0
   59.1730   28.7653   45.9079 H   0  0  0  0  0  0  0  0  0  0  0  0
   59.8444   31.1253   46.3333 H   0  0  0  0  0  0  0  0  0  0  0  0
   62.8251   30.8478   48.1138 H   0  0  0  0  0  0  0  0  0  0  0  0
   64.5826   32.3846   47.1986 H   0  0  0  0  0  0  0  0  0  0  0  0
   63.8700   34.5669   46.1887 H   0  0  0  0  0  0  0  0  0  0  0  0
   56.4224   32.5090   44.0768 H   0  0  0  0  0  0  0  0  0  0  0  0
   55.7448   30.1502   43.6485 H   0  0  0  0  0  0  0  0  0  0  0  0
   55.8730   24.5980   44.1628 H   0  0  0  0  0  0  0  0  0  0  0  0
  1  2  3  0
  2  3  1  0
  3  4  2  0
  4  5  1  0
  5  6  2  0
  6  7  1  0
  7  8  1  0
  8  9  2  0
  8 10  2  0
  8 11  1  0
 11 12  1  0
 12 13  2  0
 13 14  1  0
 14 15  2  0
 15 16  1  0
 16 17  2  0
 16 18  2  0
 16 19  1  0
 19 20  2  3
 20 21  1  0
 21 22  2  0
 22 23  1  0
 23 24  2  0
 24 25  1  0
 15 26  1  0
 26 27  2  0
  7 28  2  0
 28  3  1  0
 27 12  1  0
 25 20  1  0
  4 29  1  0
  5 30  1  0
  6 31  1  0
 11 32  1  0
 13 33  1  0
 14 34  1  0
 22 35  1  0
 23 36  1  0
 24 37  1  0
 26 38  1  0
 27 39  1  0
 28 40  1  0
M  CHG  1  25  -1
M  END
>  <UniqueID>  (82) 
72

>  <SMILES>  (82) 
N#Cc1cccc(S(=O)(=O)Nc2ccc(S(=O)(=O)N=c3nccc[n-]3)cc2)c1

>  <Energy>  (82) 
49.40486049779706

>  <Genealogy>  (82) 
N#Cc1cccc(S(=O)(=O)Nc2ccc(S(=O)(=O)N=c3nccc[n-]3)cc2)c1 (protonated)
N#Cc1cccc(S(=O)(=O)Nc2ccc(S(=O)(=O)N=c3nccc[n-]3)cc2)c1 (3D coordinates assigned)
N#Cc1cccc(S(=O)(=O)Nc2ccc(S(=O)(=O)N=c3nccc[n-]3)cc2)c1 (optimized conformer: 49.40486049779706 kcal/mol)

>  <smiles>  (82) 
N#Cc1cccc(S(=O)(=O)Nc2ccc(S(=O)(=O)N=c3nccc[nH]3)cc2)c1

>  <score_type>  (82) 
oracle

>  <origin>  (82) 
adg

>  <m_score__min__energy>  (82) 
-10.619999999999999

>  <m_primary>  (82) 
energy

$$$$
82:0
     RDKit          3D

 35 36  0  0  0  0  0  0  0  0999 V2000
   59.5940   34.5900   47.0050 C   0  0  0  0  0  0  0  0  0  0  0  0
   59.9510   33.7660   45.7600 C   0  0  0  0  0  0  0  0  0  0  0  0
   59.1860   32.5070   45.6280 N   0  0  0  0  0  0  0  0  0  0  0  0
   58.2430   32.5120   44.4850 C   0  0  0  0  0  0  0  0  0  0  0  0
   57.0480   31.5530   44.6640 C   0  0  0  0  0  0  0  0  0  0  0  0
   57.4090   30.3880   45.4830 N   0  0  0  0  0  0  0  0  0  0  0  0
   56.7840   29.1130   45.2270 C   0  0  0  0  0  0  0  0  0  0  0  0
   55.7270   29.0560   44.5410 O   0  0  0  0  0  0  0  0  0  0  0  0
   57.3760   27.8560   45.7310 C   0  0  0  0  0  0  0  0  0  0  0  0
   58.7640   27.7980   45.9400 C   0  0  0  0  0  0  0  0  0  0  0  0
   59.3670   26.6150   46.3730 C   0  0  0  0  0  0  0  0  0  0  0  0
   61.1010   26.5580   46.6290 Cl  0  0  0  0  0  0  0  0  0  0  0  0
   58.5910   25.4760   46.5940 C   0  0  0  0  0  0  0  0  0  0  0  0
   57.2080   25.5170   46.3910 C   0  0  0  0  0  0  0  0  0  0  0  0
   56.2550   24.0710   46.6880 Cl  0  0  0  0  0  0  0  0  0  0  0  0
   56.5900   26.7040   45.9660 C   0  0  0  0  0  0  0  0  0  0  0  0
   55.2010   26.7180   45.8100 O   0  0  0  0  0  0  0  0  0  0  0  0
   58.1710   30.5820   46.7270 C   0  0  0  0  0  0  0  0  0  0  0  0
   58.5910   32.0420   46.8910 C   0  0  0  0  0  0  0  0  0  0  0  0
   59.8431   34.0150   47.9091 H   0  0  0  0  0  0  0  0  0  0  0  0
   60.1657   35.5298   46.9990 H   0  0  0  0  0  0  0  0  0  0  0  0
   58.5174   34.8157   46.9990 H   0  0  0  0  0  0  0  0  0  0  0  0
   59.7567   34.3830   44.8703 H   0  0  0  0  0  0  0  0  0  0  0  0
   61.0097   33.4844   45.8595 H   0  0  0  0  0  0  0  0  0  0  0  0
   57.8534   33.5331   44.3604 H   0  0  0  0  0  0  0  0  0  0  0  0
   58.8035   32.1668   43.6037 H   0  0  0  0  0  0  0  0  0  0  0  0
   56.2261   32.0943   45.1555 H   0  0  0  0  0  0  0  0  0  0  0  0
   56.7423   31.1941   43.6701 H   0  0  0  0  0  0  0  0  0  0  0  0
   59.3806   28.6912   45.7612 H   0  0  0  0  0  0  0  0  0  0  0  0
   59.0687   24.5434   46.9288 H   0  0  0  0  0  0  0  0  0  0  0  0
   54.7400   27.0880   44.9880 H   0  0  0  0  0  0  0  0  0  0  0  0
   57.5437   30.2901   47.5821 H   0  0  0  0  0  0  0  0  0  0  0  0
   59.0771   29.9599   46.6831 H   0  0  0  0  0  0  0  0  0  0  0  0
   57.7106   32.6554   47.1332 H   0  0  0  0  0  0  0  0  0  0  0  0
   59.3244   32.1315   47.7059 H   0  0  0  0  0  0  0  0  0  0  0  0
  1  2  1  0
  2  3  1  0
  3  4  1  0
  4  5  1  0
  5  6  1  0
  6  7  1  0
  7  8  2  0
  7  9  1  0
  9 10  2  0
 10 11  1  0
 11 12  1  0
 11 13  2  0
 13 14  1  0
 14 15  1  0
 14 16  2  0
 16 17  1  0
  6 18  1  0
 18 19  1  0
 19  3  1  0
 16  9  1  0
  1 20  1  0
  1 21  1  0
  1 22  1  0
  2 23  1  0
  2 24  1  0
  4 25  1  0
  4 26  1  0
  5 27  1  0
  5 28  1  0
 10 29  1  0
 13 30  1  0
 17 31  1  0
 18 32  1  0
 18 33  1  0
 19 34  1  0
 19 35  1  0
M  END
>  <UniqueID>  (83) 
73

>  <SMILES>  (83) 
CCN1CCN(C(=O)c2cc(Cl)cc(Cl)c2O)CC1

>  <Energy>  (83) 
48.08539592831348

>  <Genealogy>  (83) 
CCN1CCN(C(=O)c2cc(Cl)cc(Cl)c2O)CC1 (3D coordinates assigned)
CCN1CCN(C(=O)c2cc(Cl)cc(Cl)c2O)CC1 (nonaromatic ring conformer: 48.08539592831348 kcal/mol)

>  <smiles>  (83) 
CCN1CCN(C(=O)c2cc(Cl)cc(Cl)c2O)CC1

>  <score_type>  (83) 
oracle

>  <origin>  (83) 
adg

>  <m_score__min__energy>  (83) 
-7.8600000000000003

>  <m_primary>  (83) 
energy

$$$$
83:0
     RDKit          3D

 55 59  0  0  0  0  0  0  0  0999 V2000
   56.4550   24.7260   44.6520 N   0  0  0  0  0  0  0  0  0  0  0  0
   56.1900   25.7480   46.0230 S   0  0  0  0  0  0  0  0  0  0  0  0
   56.3260   24.9450   47.2850 O   0  0  0  0  0  0  0  0  0  0  0  0
   54.8010   26.3140   45.9580 O   0  0  0  0  0  0  0  0  0  0  0  0
   57.3800   27.0470   46.0230 C   0  0  0  0  0  0  0  0  0  0  0  0
   58.3520   27.1270   47.0280 C   0  0  0  0  0  0  0  0  0  0  0  0
   59.2650   28.1850   47.0360 C   0  0  0  0  0  0  0  0  0  0  0  0
   59.1920   29.1850   46.0610 C   0  0  0  0  0  0  0  0  0  0  0  0
   58.2100   29.1310   45.0660 C   0  0  0  0  0  0  0  0  0  0  0  0
   58.1250   30.2090   44.1230 N   0  0  0  0  0  0  0  0  0  0  0  0
   57.6000   31.8190   44.5000 S   0  0  0  0  0  0  0  0  0  0  0  0
   57.8190   32.7030   43.3060 O   0  0  0  0  0  0  0  0  0  0  0  0
   56.1350   31.7940   44.8290 O   0  0  0  0  0  0  0  0  0  0  0  0
   58.5340   32.4520   45.8540 C   0  0  0  0  0  0  0  0  0  0  0  0
   59.5030   33.4450   45.6500 C   0  0  0  0  0  0  0  0  0  0  0  0
   60.1490   34.0300   46.7410 C   0  0  0  0  0  0  0  0  0  0  0  0
   59.8590   33.6030   48.0490 C   0  0  0  0  0  0  0  0  0  0  0  0
   60.4130   34.2800   49.1860 N   0  0  0  0  0  0  0  0  0  0  0  0
   61.0750   33.8160   50.2180 C   0  0  0  0  0  0  0  0  0  0  0  0
   60.3690   33.6920   51.4410 C   0  0  0  0  0  0  0  0  0  0  0  0
   58.9740   33.8950   51.5240 C   0  0  0  0  0  0  0  0  0  0  0  0
   58.3170   33.7920   52.7520 C   0  0  0  0  0  0  0  0  0  0  0  0
   59.0340   33.5040   53.9130 C   0  0  0  0  0  0  0  0  0  0  0  0
   60.4150   33.3240   53.8530 C   0  0  0  0  0  0  0  0  0  0  0  0
   61.0840   33.4120   52.6270 C   0  0  0  0  0  0  0  0  0  0  0  0
   62.4280   33.2360   52.5900 N   0  0  0  0  0  0  0  0  0  0  0  0
   63.1280   33.2510   51.4280 C   0  0  0  0  0  0  0  0  0  0  0  0
   64.5010   32.9810   51.4620 C   0  0  0  0  0  0  0  0  0  0  0  0
   65.2320   32.8280   50.2750 C   0  0  0  0  0  0  0  0  0  0  0  0
   66.6390   32.5180   50.3090 N   0  0  0  0  0  0  0  0  0  0  0  0
   67.4950   33.4090   50.1230 O   0  0  0  0  0  0  0  0  0  0  0  0
   67.0650   31.2270   50.5210 O   0  0  0  0  0  0  0  0  0  0  0  0
   64.5560   32.9220   49.0510 C   0  0  0  0  0  0  0  0  0  0  0  0
   63.1920   33.2240   49.0090 C   0  0  0  0  0  0  0  0  0  0  0  0
   62.4650   33.4730   50.1940 C   0  0  0  0  0  0  0  0  0  0  0  0
   58.8840   32.6170   48.2500 C   0  0  0  0  0  0  0  0  0  0  0  0
   58.2340   32.0350   47.1580 C   0  0  0  0  0  0  0  0  0  0  0  0
   57.3240   28.0380   45.0350 C   0  0  0  0  0  0  0  0  0  0  0  0
   56.2980   25.3110   43.8010 H   0  0  0  0  0  0  0  0  0  0  0  0
   57.4670   24.4730   44.6530 H   0  0  0  0  0  0  0  0  0  0  0  0
   58.3969   26.3564   47.8117 H   0  0  0  0  0  0  0  0  0  0  0  0
   60.0436   28.2314   47.8117 H   0  0  0  0  0  0  0  0  0  0  0  0
   59.9102   30.0180   46.0765 H   0  0  0  0  0  0  0  0  0  0  0  0
   59.7548   33.7639   44.6278 H   0  0  0  0  0  0  0  0  0  0  0  0
   60.8878   34.8282   46.5766 H   0  0  0  0  0  0  0  0  0  0  0  0
   58.4015   34.1357   50.6161 H   0  0  0  0  0  0  0  0  0  0  0  0
   57.2281   33.9388   52.8038 H   0  0  0  0  0  0  0  0  0  0  0  0
   58.5097   33.4189   54.8762 H   0  0  0  0  0  0  0  0  0  0  0  0
   60.9807   33.1121   54.7723 H   0  0  0  0  0  0  0  0  0  0  0  0
   65.0127   32.8877   52.4313 H   0  0  0  0  0  0  0  0  0  0  0  0
   65.1052   32.7562   48.1125 H   0  0  0  0  0  0  0  0  0  0  0  0
   62.6768   33.2684   48.0381 H   0  0  0  0  0  0  0  0  0  0  0  0
   58.6289   32.2995   49.2718 H   0  0  0  0  0  0  0  0  0  0  0  0
   57.4844   31.2470   47.3226 H   0  0  0  0  0  0  0  0  0  0  0  0
   56.5809   27.9614   44.2276 H   0  0  0  0  0  0  0  0  0  0  0  0
  1  2  1  0
  2  3  2  0
  2  4  2  0
  2  5  1  0
  5  6  2  0
  6  7  1  0
  7  8  2  0
  8  9  1  0
  9 10  1  0
 10 11  1  0
 11 12  2  0
 11 13  2  0
 11 14  1  0
 14 15  2  0
 15 16  1  0
 16 17  2  0
 17 18  1  0
 18 19  2  3
 19 20  1  0
 20 21  2  0
 21 22  1  0
 22 23  2  0
 23 24  1  0
 24 25  2  0
 25 26  1  0
 26 27  1  0
 27 28  2  0
 28 29  1  0
 29 30  1  0
 30 31  2  0
 30 32  1  0
 29 33  2  0
 33 34  1  0
 34 35  2  0
 17 36  1  0
 36 37  2  0
  9 38  2  0
 38  5  1  0
 37 14  1  0
 35 19  1  0
 25 20  1  0
 35 27  1  0
  1 39  1  0
  1 40  1  0
  6 41  1  0
  7 42  1  0
  8 43  1  0
 15 44  1  0
 16 45  1  0
 21 46  1  0
 22 47  1  0
 23 48  1  0
 24 49  1  0
 28 50  1  0
 33 51  1  0
 34 52  1  0
 36 53  1  0
 37 54  1  0
 38 55  1  0
M  CHG  4  10  -1  26  -1  30   1  32  -1
M  END
>  <UniqueID>  (84) 
74

>  <SMILES>  (84) 
NS(=O)(=O)c1cccc([N-]S(=O)(=O)c2ccc(N=c3c4ccccc4[n-]c4cc([N+](=O)[O-])ccc34)cc2)c1

>  <Energy>  (84) 
92.14648922943296

>  <Genealogy>  (84) 
NS(=O)(=O)c1cccc([N-]S(=O)(=O)c2ccc(N=c3c4ccccc4[n-]c4cc([N+](=O)[O-])ccc34)cc2)c1 (protonated)
NS(=O)(=O)c1cccc([N-]S(=O)(=O)c2ccc(N=c3c4ccccc4[n-]c4cc([N+](=O)[O-])ccc34)cc2)c1 (3D coordinates assigned)
NS(=O)(=O)c1cccc([N-]S(=O)(=O)c2ccc(N=c3c4ccccc4[n-]c4cc([N+](=O)[O-])ccc34)cc2)c1 (optimized conformer: 92.14648922943296 kcal/mol)

>  <smiles>  (84) 
NS(=O)(=O)c1cccc(NS(=O)(=O)c2ccc(N=c3c4ccccc4[nH]c4cc([N+](=O)[O-])ccc34)cc2)c1

>  <score_type>  (84) 
oracle

>  <origin>  (84) 
adg

>  <m_score__min__energy>  (84) 
-12.800000000000001

>  <m_primary>  (84) 
energy

$$$$
84:0
     RDKit          3D

 62 65  0  0  0  0  0  0  0  0999 V2000
   65.7850   32.4180   50.2280 C   0  0  0  0  0  0  0  0  0  0  0  0
   65.1920   32.9690   49.0560 O   0  0  0  0  0  0  0  0  0  0  0  0
   63.8210   32.9220   48.7650 C   0  0  0  0  0  0  0  0  0  0  0  0
   62.9540   33.7380   49.5030 C   0  0  0  0  0  0  0  0  0  0  0  0
   61.5790   33.7220   49.2510 C   0  0  0  0  0  0  0  0  0  0  0  0
   61.0540   32.8900   48.2510 C   0  0  0  0  0  0  0  0  0  0  0  0
   59.6380   32.8400   48.0280 N   0  0  0  0  0  0  0  0  0  0  0  0
   58.9210   33.6320   47.2070 C   0  0  0  0  0  0  0  0  0  0  0  0
   59.6200   34.7850   46.0190 S   0  0  0  0  0  0  0  0  0  0  0  0
   58.4500   34.3790   44.6770 C   0  0  0  0  0  0  0  0  0  0  0  0
   57.8870   33.0040   44.8540 C   0  0  0  0  0  0  0  0  0  0  0  0
   56.6380   32.8540   44.9110 O   0  0  0  0  0  0  0  0  0  0  0  0
   58.7730   31.8850   45.0230 N   0  0  0  0  0  0  0  0  0  0  0  0
   58.3270   30.5350   45.2370 C   0  0  0  0  0  0  0  0  0  0  0  0
   58.8010   29.8240   46.3490 C   0  0  0  0  0  0  0  0  0  0  0  0
   58.3530   28.5250   46.6040 C   0  0  0  0  0  0  0  0  0  0  0  0
   57.4450   27.9100   45.7340 C   0  0  0  0  0  0  0  0  0  0  0  0
   56.8550   26.2880   46.0840 S   0  0  0  0  0  0  0  0  0  0  0  0
   55.1310   26.2650   45.9670 N   0  0  0  0  0  0  0  0  0  0  0  0
   57.2690   25.8890   47.4720 O   0  0  0  0  0  0  0  0  0  0  0  0
   57.4320   25.3040   45.1050 O   0  0  0  0  0  0  0  0  0  0  0  0
   56.9940   28.6020   44.6020 C   0  0  0  0  0  0  0  0  0  0  0  0
   57.4380   29.9050   44.3500 C   0  0  0  0  0  0  0  0  0  0  0  0
   57.6020   33.5510   47.4700 N   0  0  0  0  0  0  0  0  0  0  0  0
   57.4600   32.6950   48.4720 N   0  0  0  0  0  0  0  0  0  0  0  0
   58.6940   32.2720   48.8110 C   0  0  0  0  0  0  0  0  0  0  0  0
   58.9550   31.3370   49.9300 C   0  0  0  0  0  0  0  0  0  0  0  0
   58.2830   31.5010   51.1500 C   0  0  0  0  0  0  0  0  0  0  0  0
   58.5310   30.6410   52.2250 C   0  0  0  0  0  0  0  0  0  0  0  0
   57.8400   30.8620   53.4260 O   0  0  0  0  0  0  0  0  0  0  0  0
   56.6000   30.2500   53.7650 C   0  0  0  0  0  0  0  0  0  0  0  0
   59.4610   29.5950   52.0710 C   0  0  0  0  0  0  0  0  0  0  0  0
   60.1290   29.4080   50.8560 C   0  0  0  0  0  0  0  0  0  0  0  0
   61.0510   28.3540   50.7560 O   0  0  0  0  0  0  0  0  0  0  0  0
   61.5550   27.6170   51.8670 C   0  0  0  0  0  0  0  0  0  0  0  0
   59.8590   30.2730   49.7820 C   0  0  0  0  0  0  0  0  0  0  0  0
   61.9160   32.0670   47.5170 C   0  0  0  0  0  0  0  0  0  0  0  0
   63.2900   32.0810   47.7680 C   0  0  0  0  0  0  0  0  0  0  0  0
   65.3125   32.8570   51.1191 H   0  0  0  0  0  0  0  0  0  0  0  0
   65.6389   31.3278   50.2350 H   0  0  0  0  0  0  0  0  0  0  0  0
   66.8616   32.6437   50.2350 H   0  0  0  0  0  0  0  0  0  0  0  0
   63.3580   34.3961   50.2864 H   0  0  0  0  0  0  0  0  0  0  0  0
   60.9065   34.3640   49.8389 H   0  0  0  0  0  0  0  0  0  0  0  0
   57.6267   35.1085   44.6846 H   0  0  0  0  0  0  0  0  0  0  0  0
   58.9891   34.4162   43.7189 H   0  0  0  0  0  0  0  0  0  0  0  0
   59.7900   32.0880   45.1510 H   0  0  0  0  0  0  0  0  0  0  0  0
   59.5310   30.2923   47.0256 H   0  0  0  0  0  0  0  0  0  0  0  0
   58.7149   27.9843   47.4909 H   0  0  0  0  0  0  0  0  0  0  0  0
   54.7780   27.0880   46.5040 H   0  0  0  0  0  0  0  0  0  0  0  0
   56.2888   28.1195   43.9093 H   0  0  0  0  0  0  0  0  0  0  0  0
   57.0894   30.4384   43.4534 H   0  0  0  0  0  0  0  0  0  0  0  0
   57.5523   32.3155   51.2629 H   0  0  0  0  0  0  0  0  0  0  0  0
   56.5021   30.2017   54.8596 H   0  0  0  0  0  0  0  0  0  0  0  0
   55.7724   30.8431   53.3487 H   0  0  0  0  0  0  0  0  0  0  0  0
   56.5674   29.2324   53.3487 H   0  0  0  0  0  0  0  0  0  0  0  0
   59.6643   28.9184   52.9141 H   0  0  0  0  0  0  0  0  0  0  0  0
   61.2283   28.0947   52.8025 H   0  0  0  0  0  0  0  0  0  0  0  0
   61.1715   26.5868   51.8280 H   0  0  0  0  0  0  0  0  0  0  0  0
   62.6542   27.6008   51.8280 H   0  0  0  0  0  0  0  0  0  0  0  0
   60.3608   30.1150   48.8160 H   0  0  0  0  0  0  0  0  0  0  0  0
   61.5091   31.4054   46.7381 H   0  0  0  0  0  0  0  0  0  0  0  0
   63.9600   31.4325   47.1845 H   0  0  0  0  0  0  0  0  0  0  0  0
  1  2  1  0
  2  3  1  0
  3  4  2  0
  4  5  1  0
  5  6  2  0
  6  7  1  0
  7  8  1  0
  8  9  1  0
  9 10  1  0
 10 11  1  0
 11 12  2  0
 11 13  1  0
 13 14  1  0
 14 15  2  0
 15 16  1  0
 16 17  2  0
 17 18  1  0
 18 19  1  0
 18 20  2  0
 18 21  2  0
 17 22  1  0
 22 23  2  0
  8 24  2  0
 24 25  1  0
 25 26  2  0
 26 27  1  0
 27 28  2  0
 28 29  1  0
 29 30  1  0
 30 31  1  0
 29 32  2  0
 32 33  1  0
 33 34  1  0
 34 35  1  0
 33 36  2  0
  6 37  1  0
 37 38  2  0
 38  3  1  0
 26  7  1  0
 36 27  1  0
 23 14  1  0
  1 39  1  0
  1 40  1  0
  1 41  1  0
  4 42  1  0
  5 43  1  0
 10 44  1  0
 10 45  1  0
 13 46  1  0
 15 47  1  0
 16 48  1  0
 19 49  1  0
 22 50  1  0
 23 51  1  0
 28 52  1  0
 31 53  1  0
 31 54  1  0
 31 55  1  0
 32 56  1  0
 35 57  1  0
 35 58  1  0
 35 59  1  0
 36 60  1  0
 37 61  1  0
 38 62  1  0
M  CHG  1  19  -1
M  END
>  <UniqueID>  (85) 
75

>  <SMILES>  (85) 
COc1ccc(-n2c(SCC(=O)Nc3ccc(S([NH-])(=O)=O)cc3)nnc2-c2cc(OC)cc(OC)c2)cc1

>  <Energy>  (85) 
104.77906040302842

>  <Genealogy>  (85) 
COc1ccc(-n2c(SCC(=O)Nc3ccc(S([NH-])(=O)=O)cc3)nnc2-c2cc(OC)cc(OC)c2)cc1 (protonated)
COc1ccc(-n2c(SCC(=O)Nc3ccc(S([NH-])(=O)=O)cc3)nnc2-c2cc(OC)cc(OC)c2)cc1 (3D coordinates assigned)
COc1ccc(-n2c(SCC(=O)Nc3ccc(S([NH-])(=O)=O)cc3)nnc2-c2cc(OC)cc(OC)c2)cc1 (optimized conformer: 104.77906040302842 kcal/mol)

>  <smiles>  (85) 
COc1ccc(-n2c(SCC(=O)Nc3ccc(S(N)(=O)=O)cc3)nnc2-c2cc(OC)cc(OC)c2)cc1

>  <score_type>  (85) 
oracle

>  <origin>  (85) 
adg

>  <m_score__min__energy>  (85) 
-12.029999999999999

>  <m_primary>  (85) 
energy

$$$$
85:0
     RDKit          3D

 34 36  0  0  0  0  0  0  0  0999 V2000
   54.7550   22.6440   46.3800 H   0  0  0  0  0  0  0  0  0  0  0  0
   55.6790   22.9240   46.7790 N   0  0  0  0  0  0  0  0  0  0  0  0
   56.0950   24.1470   46.7100 C   0  0  0  0  0  0  0  0  0  0  0  0
   55.3970   25.1330   46.1090 N   0  0  0  0  0  0  0  0  0  0  0  0
   56.0670   26.3140   46.1780 C   0  0  0  0  0  0  0  0  0  0  0  0
   55.5490   27.4750   45.6180 O   0  0  0  0  0  0  0  0  0  0  0  0
   57.2910   26.2730   46.8480 C   0  0  0  0  0  0  0  0  0  0  0  0
   58.2300   27.4030   46.9750 C   0  0  0  0  0  0  0  0  0  0  0  0
   58.7940   27.7140   48.1290 O   0  0  0  0  0  0  0  0  0  0  0  0
   59.5480   28.7670   47.9440 C   0  0  0  0  0  0  0  0  0  0  0  0
   60.3180   29.4320   48.8940 C   0  0  0  0  0  0  0  0  0  0  0  0
   60.3494   29.0908   49.9393 H   0  0  0  0  0  0  0  0  0  0  0  0
   61.0550   30.5550   48.4740 C   0  0  0  0  0  0  0  0  0  0  0  0
   61.6765   31.1031   49.1974 H   0  0  0  0  0  0  0  0  0  0  0  0
   61.0010   30.9820   47.1290 C   0  0  0  0  0  0  0  0  0  0  0  0
   61.5781   31.8631   46.8119 H   0  0  0  0  0  0  0  0  0  0  0  0
   60.2140   30.2880   46.1920 C   0  0  0  0  0  0  0  0  0  0  0  0
   60.1644   30.6116   45.1419 H   0  0  0  0  0  0  0  0  0  0  0  0
   59.4970   29.1740   46.6380 C   0  0  0  0  0  0  0  0  0  0  0  0
   58.6590   28.2950   45.9760 C   0  0  0  0  0  0  0  0  0  0  0  0
   58.3830   28.2700   44.4840 C   0  0  0  0  0  0  0  0  0  0  0  0
   59.1866   28.8225   43.9752 H   0  0  0  0  0  0  0  0  0  0  0  0
   58.3402   27.2114   44.1881 H   0  0  0  0  0  0  0  0  0  0  0  0
   57.0830   28.8750   44.0950 N   0  0  0  0  0  0  0  0  0  0  0  0
   56.3330   28.2260   44.4330 H   0  0  0  0  0  0  0  0  0  0  0  0
   56.8480   30.1760   44.7470 C   0  0  0  0  0  0  0  0  0  0  0  0
   56.8711   30.0482   45.8393 H   0  0  0  0  0  0  0  0  0  0  0  0
   57.6326   30.8850   44.4441 H   0  0  0  0  0  0  0  0  0  0  0  0
   55.8649   30.5657   44.4441 H   0  0  0  0  0  0  0  0  0  0  0  0
   56.9240   28.9920   42.6360 C   0  0  0  0  0  0  0  0  0  0  0  0
   56.0566   29.6303   42.4117 H   0  0  0  0  0  0  0  0  0  0  0  0
   57.8306   29.4400   42.2031 H   0  0  0  0  0  0  0  0  0  0  0  0
   56.7660   27.9932   42.2031 H   0  0  0  0  0  0  0  0  0  0  0  0
   57.5560   24.6810   47.3390 S   0  0  0  0  0  0  0  0  0  0  0  0
  1  2  1  0
  2  3  2  0
  3  4  1  0
  4  5  1  0
  5  6  1  0
  5  7  2  0
  7  8  1  0
  8  9  1  0
  9 10  1  0
 10 11  2  0
 11 12  1  0
 11 13  1  0
 13 14  1  0
 13 15  2  0
 15 16  1  0
 15 17  1  0
 17 18  1  0
 17 19  2  0
 19 20  1  0
 20 21  1  0
 21 22  1  0
 21 23  1  0
 21 24  1  0
 24 25  1  0
 24 26  1  0
 26 27  1  0
 26 28  1  0
 26 29  1  0
 24 30  1  0
 30 31  1  0
 30 32  1  0
 30 33  1  0
  7 34  1  0
 34  3  1  0
 20  8  2  0
 19 10  1  0
M  CHG  3   4  -1   6  -1  24   1
M  END
>  <UniqueID>  (86) 
76

>  <SMILES>  (86) 
[H]/N=c1\[n-]c([O-])c(-c2oc3ccccc3c2C[NH+](C)C)s1

>  <Energy>  (86) 
105.27139265784928

>  <Genealogy>  (86) 
C[NH+](C)Cc1c(-c2sc(=N)[n-]c2[O-])oc2ccccc12 (protonated)
[H]/N=c1\[n-]c([O-])c(-c2oc3ccccc3c2C[NH+](C)C)s1 (cis-trans isomerization)
[H]/N=c1\[n-]c([O-])c(-c2oc3ccccc3c2C[NH+](C)C)s1 (3D coordinates assigned)
[H]/N=c1\[n-]c([O-])c(-c2oc3ccccc3c2C[NH+](C)C)s1 (optimized conformer: 105.27139265784928 kcal/mol)

>  <smiles>  (86) 
CN(C)Cc1c(-c2sc(=N)[nH]c2O)oc2ccccc12

>  <score_type>  (86) 
oracle

>  <origin>  (86) 
adg

>  <m_score__min__energy>  (86) 
-10.84

>  <m_primary>  (86) 
energy

$$$$
86:0
     RDKit          3D

 41 43  0  0  1  0  0  0  0  0999 V2000
   58.1620   27.3940   43.4720 N   0  0  0  0  0  0  0  0  0  0  0  0
   58.4370   28.4730   44.1190 C   0  0  0  0  0  0  0  0  0  0  0  0
   59.6270   28.5370   44.7350 N   0  0  0  0  0  0  0  0  0  0  0  0
   59.9230   29.6580   45.4130 C   0  0  0  0  0  0  0  0  0  0  0  0
   61.0730   29.6930   45.9960 N   0  0  0  0  0  0  0  0  0  0  0  0
   61.2510   30.4740   47.1710 C   0  0  0  0  0  0  0  0  0  0  0  0
   62.2960   31.4030   47.1250 C   0  0  0  0  0  0  0  0  0  0  0  0
   62.5400   32.2090   48.2260 C   0  0  0  0  0  0  0  0  0  0  0  0
   61.7580   32.1040   49.3790 C   0  0  0  0  0  0  0  0  0  0  0  0
   60.7210   31.1710   49.4020 C   0  0  0  0  0  0  0  0  0  0  0  0
   60.4710   30.3570   48.2940 C   0  0  0  0  0  0  0  0  0  0  0  0
   59.0530   30.6750   45.4660 N   0  0  0  0  0  0  0  0  0  0  0  0
   57.8390   30.6580   44.8590 C   0  0  0  0  0  0  0  0  0  0  0  0
   57.0170   31.7860   44.9560 N   0  0  0  0  0  0  0  0  0  0  0  0
   57.3590   33.1590   44.7560 C   0  0  0  0  0  0  0  0  0  0  0  0
   58.3130   33.6450   45.8320 C   0  0  0  0  0  0  0  0  0  0  0  0
   59.4010   34.3960   45.4310 C   0  0  0  0  0  0  0  0  0  0  0  0
   60.2870   34.8530   46.3940 C   0  0  0  0  0  0  0  0  0  0  0  0
   60.0780   34.5590   47.7330 C   0  0  0  0  0  0  0  0  0  0  0  0
   58.9900   33.8150   48.0940 C   0  0  0  0  0  0  0  0  0  0  0  0
   58.0710   33.3310   47.1610 C   0  0  0  0  0  0  0  0  0  0  0  0
   57.5160   29.5310   44.1670 C   0  0  0  0  0  0  0  0  0  0  0  0
   56.3190   29.3240   43.4500 N   0  0  0  0  0  0  0  0  0  0  0  0
   56.2300   29.0010   42.2570 O   0  0  0  0  0  0  0  0  0  0  0  0
   55.1300   29.5310   44.1340 O   0  0  0  0  0  0  0  0  0  0  0  0
   57.1930   27.2680   43.1120 H   0  0  0  0  0  0  0  0  0  0  0  0
   60.3060   27.7500   44.6970 H   0  0  0  0  0  0  0  0  0  0  0  0
   62.9188   31.4931   46.2227 H   0  0  0  0  0  0  0  0  0  0  0  0
   63.3603   32.9411   48.1915 H   0  0  0  0  0  0  0  0  0  0  0  0
   61.9560   32.7442   50.2513 H   0  0  0  0  0  0  0  0  0  0  0  0
   60.0942   31.0752   50.3009 H   0  0  0  0  0  0  0  0  0  0  0  0
   59.6510   29.6243   48.3219 H   0  0  0  0  0  0  0  0  0  0  0  0
   59.3640   31.5160   46.0210 H   0  0  0  0  0  0  0  0  0  0  0  0
   55.9970   31.6040   45.2160 H   0  0  0  0  0  0  0  0  0  0  0  0
   57.8392   33.2704   43.7726 H   0  0  0  0  0  0  0  0  0  0  0  0
   56.4390   33.7599   44.8063 H   0  0  0  0  0  0  0  0  0  0  0  0
   59.5612   34.6269   44.3675 H   0  0  0  0  0  0  0  0  0  0  0  0
   61.1600   35.4517   46.0947 H   0  0  0  0  0  0  0  0  0  0  0  0
   60.7813   34.9212   48.4973 H   0  0  0  0  0  0  0  0  0  0  0  0
   58.8325   33.5891   49.1590 H   0  0  0  0  0  0  0  0  0  0  0  0
   57.2000   32.7316   47.4644 H   0  0  0  0  0  0  0  0  0  0  0  0
  1  2  2  3
  2  3  1  0
  3  4  1  0
  4  5  2  0
  5  6  1  0
  6  7  2  0
  7  8  1  0
  8  9  2  0
  9 10  1  0
 10 11  2  0
  4 12  1  0
 12 13  1  0
 13 14  1  0
 14 15  1  0
 15 16  1  0
 16 17  2  0
 17 18  1  0
 18 19  2  0
 19 20  1  0
 20 21  2  0
 13 22  2  0
 22 23  1  0
 23 24  2  0
 23 25  1  0
 22  2  1  0
 11  6  1  0
 21 16  1  0
  1 26  1  0
  3 27  1  0
  7 28  1  0
  8 29  1  0
  9 30  1  0
 10 31  1  0
 11 32  1  0
 12 33  1  0
 14 34  1  0
 15 35  1  0
 15 36  1  0
 17 37  1  0
 18 38  1  0
 19 39  1  0
 20 40  1  0
 21 41  1  0
M  CHG  2  23   1  25  -1
M  END
>  <smiles>  (87) 
N=c1[nH]c(=Nc2ccccc2)[nH]c(NCc2ccccc2)c1[N+](=O)[O-]

>  <score_type>  (87) 
oracle

>  <origin>  (87) 
adg

>  <m_score__min__energy>  (87) 
-7.54

>  <m_primary>  (87) 
energy

$$$$
87:0
     RDKit          3D

 58 61  0  0  0  0  0  0  0  0999 V2000
   54.3530   23.9620   46.0540 C   0  0  0  0  0  0  0  0  0  0  0  0
   55.4670   24.9200   46.0010 N   0  0  0  0  0  0  0  0  0  0  0  0
   56.2360   24.7400   44.7510 C   0  0  0  0  0  0  0  0  0  0  0  0
   57.5090   25.6110   44.7380 C   0  0  0  0  0  0  0  0  0  0  0  0
   57.5070   26.5340   45.8870 N   0  0  0  0  0  0  0  0  0  0  0  0
   58.5720   27.5590   45.8220 C   0  0  0  0  0  0  0  0  0  0  0  0
   58.1150   28.8860   45.2500 C   0  0  0  0  0  0  0  0  0  0  0  0
   57.2720   28.9270   44.1290 C   0  0  0  0  0  0  0  0  0  0  0  0
   56.8650   30.1520   43.5990 C   0  0  0  0  0  0  0  0  0  0  0  0
   57.2840   31.3470   44.1860 C   0  0  0  0  0  0  0  0  0  0  0  0
   58.1160   31.3300   45.3190 C   0  0  0  0  0  0  0  0  0  0  0  0
   58.5530   32.5980   45.9550 C   0  0  0  0  0  0  0  0  0  0  0  0
   58.7650   33.7510   45.1790 C   0  0  0  0  0  0  0  0  0  0  0  0
   59.1930   34.9390   45.7780 C   0  0  0  0  0  0  0  0  0  0  0  0
   59.4080   34.9920   47.1560 C   0  0  0  0  0  0  0  0  0  0  0  0
   59.1830   33.8580   47.9500 C   0  0  0  0  0  0  0  0  0  0  0  0
   59.4430   33.9030   49.4330 C   0  0  0  0  0  0  0  0  0  0  0  0
   60.8500   34.2330   49.7000 N   0  0  0  0  0  0  0  0  0  0  0  0
   61.7110   33.4330   48.8650 C   0  0  0  0  0  0  0  0  0  0  0  0
   61.8600   32.0560   49.1080 C   0  0  0  0  0  0  0  0  0  0  0  0
   62.6720   31.2760   48.2790 C   0  0  0  0  0  0  0  0  0  0  0  0
   63.3350   31.8600   47.1960 C   0  0  0  0  0  0  0  0  0  0  0  0
   64.1210   31.1000   46.3950 F   0  0  0  0  0  0  0  0  0  0  0  0
   63.1850   33.2270   46.9380 C   0  0  0  0  0  0  0  0  0  0  0  0
   63.8220   33.7930   45.8840 F   0  0  0  0  0  0  0  0  0  0  0  0
   62.3730   34.0100   47.7650 C   0  0  0  0  0  0  0  0  0  0  0  0
   58.7690   32.6620   47.3430 C   0  0  0  0  0  0  0  0  0  0  0  0
   58.5250   30.0910   45.8450 C   0  0  0  0  0  0  0  0  0  0  0  0
   57.4850   25.7890   47.1610 C   0  0  0  0  0  0  0  0  0  0  0  0
   56.3430   24.7520   47.1760 C   0  0  0  0  0  0  0  0  0  0  0  0
   54.1035   23.7475   47.1036 H   0  0  0  0  0  0  0  0  0  0  0  0
   53.4754   24.3919   45.5490 H   0  0  0  0  0  0  0  0  0  0  0  0
   54.6466   23.0299   45.5490 H   0  0  0  0  0  0  0  0  0  0  0  0
   56.5257   23.6828   44.6590 H   0  0  0  0  0  0  0  0  0  0  0  0
   55.5998   25.0474   43.9080 H   0  0  0  0  0  0  0  0  0  0  0  0
   58.3945   24.9609   44.7959 H   0  0  0  0  0  0  0  0  0  0  0  0
   57.5330   26.1970   43.8074 H   0  0  0  0  0  0  0  0  0  0  0  0
   58.9480   27.7325   46.8411 H   0  0  0  0  0  0  0  0  0  0  0  0
   59.3474   27.1704   45.1454 H   0  0  0  0  0  0  0  0  0  0  0  0
   56.9305   27.9894   43.6660 H   0  0  0  0  0  0  0  0  0  0  0  0
   56.2111   30.1760   42.7148 H   0  0  0  0  0  0  0  0  0  0  0  0
   56.9612   32.3081   43.7594 H   0  0  0  0  0  0  0  0  0  0  0  0
   58.5928   33.7179   44.0931 H   0  0  0  0  0  0  0  0  0  0  0  0
   59.3608   35.8346   45.1618 H   0  0  0  0  0  0  0  0  0  0  0  0
   59.7552   35.9265   47.6210 H   0  0  0  0  0  0  0  0  0  0  0  0
   58.7988   34.6684   49.8902 H   0  0  0  0  0  0  0  0  0  0  0  0
   59.2221   32.9148   49.8627 H   0  0  0  0  0  0  0  0  0  0  0  0
   61.0180   35.2490   49.5080 H   0  0  0  0  0  0  0  0  0  0  0  0
   61.0690   34.0540   50.7090 H   0  0  0  0  0  0  0  0  0  0  0  0
   61.3349   31.5900   49.9548 H   0  0  0  0  0  0  0  0  0  0  0  0
   62.7892   30.2008   48.4795 H   0  0  0  0  0  0  0  0  0  0  0  0
   62.2511   35.0828   47.5545 H   0  0  0  0  0  0  0  0  0  0  0  0
   58.6118   31.7649   47.9599 H   0  0  0  0  0  0  0  0  0  0  0  0
   59.1737   30.0653   46.7330 H   0  0  0  0  0  0  0  0  0  0  0  0
   58.4453   25.2682   47.2897 H   0  0  0  0  0  0  0  0  0  0  0  0
   57.3205   26.5030   47.9814 H   0  0  0  0  0  0  0  0  0  0  0  0
   56.7745   23.7402   47.1624 H   0  0  0  0  0  0  0  0  0  0  0  0
   55.7438   24.9007   48.0864 H   0  0  0  0  0  0  0  0  0  0  0  0
  1  2  1  0
  2  3  1  0
  3  4  1  0
  4  5  1  0
  5  6  1  0
  6  7  1  0
  7  8  2  0
  8  9  1  0
  9 10  2  0
 10 11  1  0
 11 12  1  0
 12 13  2  0
 13 14  1  0
 14 15  2  0
 15 16  1  0
 16 17  1  0
 17 18  1  0
 18 19  1  0
 19 20  2  0
 20 21  1  0
 21 22  2  0
 22 23  1  0
 22 24  1  0
 24 25  1  0
 24 26  2  0
 16 27  2  0
 11 28  2  0
  5 29  1  0
 29 30  1  0
 30  2  1  0
 28  7  1  0
 27 12  1  0
 26 19  1  0
  1 31  1  0
  1 32  1  0
  1 33  1  0
  3 34  1  0
  3 35  1  0
  4 36  1  0
  4 37  1  0
  6 38  1  0
  6 39  1  0
  8 40  1  0
  9 41  1  0
 10 42  1  0
 13 43  1  0
 14 44  1  0
 15 45  1  0
 17 46  1  0
 17 47  1  0
 18 48  1  0
 18 49  1  0
 20 50  1  0
 21 51  1  0
 26 52  1  0
 27 53  1  0
 28 54  1  0
 29 55  1  0
 29 56  1  0
 30 57  1  0
 30 58  1  0
M  CHG  1  18   1
M  END
>  <UniqueID>  (88) 
77

>  <SMILES>  (88) 
CN1CCN(Cc2cccc(-c3cccc(C[NH2+]c4ccc(F)c(F)c4)c3)c2)CC1

>  <Energy>  (88) 
76.26421153498282

>  <Genealogy>  (88) 
CN1CCN(Cc2cccc(-c3cccc(C[NH2+]c4ccc(F)c(F)c4)c3)c2)CC1 (protonated)
CN1CCN(Cc2cccc(-c3cccc(C[NH2+]c4ccc(F)c(F)c4)c3)c2)CC1 (3D coordinates assigned)
CN1CCN(Cc2cccc(-c3cccc(C[NH2+]c4ccc(F)c(F)c4)c3)c2)CC1 (nonaromatic ring conformer: 76.26421153498282 kcal/mol)

>  <smiles>  (88) 
CN1CCN(Cc2cccc(-c3cccc(CNc4ccc(F)c(F)c4)c3)c2)CC1

>  <score_type>  (88) 
oracle

>  <origin>  (88) 
adg

>  <m_score__min__energy>  (88) 
-8.4100000000000001

>  <m_primary>  (88) 
energy

$$$$
88:0
     RDKit          3D

 40 42  0  0  0  0  0  0  0  0999 V2000
   55.7040   30.0800   44.1060 C   0  0  0  0  0  0  0  0  0  0  0  0
   56.8750   30.5200   44.8810 N   0  0  0  0  0  0  0  0  0  0  0  0
   57.4330   31.7840   44.3360 C   0  0  0  0  0  0  0  0  0  0  0  0
   57.0180   32.9670   45.2140 C   0  0  0  0  0  0  0  0  0  0  0  0
   58.2140   33.6340   45.8280 C   0  0  0  0  0  0  0  0  0  0  0  0
   59.0030   34.6190   45.2410 C   0  0  0  0  0  0  0  0  0  0  0  0
   59.9180   35.0800   46.1240 N   0  0  0  0  0  0  0  0  0  0  0  0
   59.7060   34.4030   47.2660 C   0  0  0  0  0  0  0  0  0  0  0  0
   60.3850   34.5530   48.4750 C   0  0  0  0  0  0  0  0  0  0  0  0
   59.9760   33.7560   49.5610 C   0  0  0  0  0  0  0  0  0  0  0  0
   58.9120   32.8380   49.4160 C   0  0  0  0  0  0  0  0  0  0  0  0
   58.3630   31.7690   50.9000 Br  0  0  0  0  0  0  0  0  0  0  0  0
   58.2480   32.7100   48.1820 C   0  0  0  0  0  0  0  0  0  0  0  0
   58.6730   33.5130   47.1260 C   0  0  0  0  0  0  0  0  0  0  0  0
   57.8850   29.4410   44.9460 C   0  0  0  0  0  0  0  0  0  0  0  0
   58.7900   29.6480   46.1300 C   0  0  0  0  0  0  0  0  0  0  0  0
   59.9470   30.4360   45.9980 C   0  0  0  0  0  0  0  0  0  0  0  0
   60.8170   30.5970   47.0790 C   0  0  0  0  0  0  0  0  0  0  0  0
   60.5400   29.9750   48.3000 C   0  0  0  0  0  0  0  0  0  0  0  0
   59.3920   29.1910   48.4400 C   0  0  0  0  0  0  0  0  0  0  0  0
   58.5190   29.0250   47.3600 C   0  0  0  0  0  0  0  0  0  0  0  0
   54.9009   29.7783   44.7945 H   0  0  0  0  0  0  0  0  0  0  0  0
   55.3520   30.9072   43.4721 H   0  0  0  0  0  0  0  0  0  0  0  0
   55.9838   29.2257   43.4721 H   0  0  0  0  0  0  0  0  0  0  0  0
   58.5307   31.7163   44.3127 H   0  0  0  0  0  0  0  0  0  0  0  0
   57.0445   31.9385   43.3186 H   0  0  0  0  0  0  0  0  0  0  0  0
   56.4765   33.6991   44.5969 H   0  0  0  0  0  0  0  0  0  0  0  0
   56.3754   32.5909   46.0237 H   0  0  0  0  0  0  0  0  0  0  0  0
   58.8973   34.9727   44.2048 H   0  0  0  0  0  0  0  0  0  0  0  0
   60.6280   35.8270   45.9550 H   0  0  0  0  0  0  0  0  0  0  0  0
   61.2127   35.2703   48.5766 H   0  0  0  0  0  0  0  0  0  0  0  0
   60.4887   33.8487   50.5298 H   0  0  0  0  0  0  0  0  0  0  0  0
   57.4191   31.9980   48.0552 H   0  0  0  0  0  0  0  0  0  0  0  0
   57.3751   28.4712   45.0434 H   0  0  0  0  0  0  0  0  0  0  0  0
   58.4877   29.4572   44.0260 H   0  0  0  0  0  0  0  0  0  0  0  0
   60.1680   30.9279   45.0393 H   0  0  0  0  0  0  0  0  0  0  0  0
   61.7211   31.2139   46.9694 H   0  0  0  0  0  0  0  0  0  0  0  0
   61.2258   30.1028   49.1505 H   0  0  0  0  0  0  0  0  0  0  0  0
   59.1743   28.7033   49.4017 H   0  0  0  0  0  0  0  0  0  0  0  0
   57.6176   28.4049   47.4738 H   0  0  0  0  0  0  0  0  0  0  0  0
  1  2  1  0
  2  3  1  0
  3  4  1  0
  4  5  1  0
  5  6  2  0
  6  7  1  0
  7  8  1  0
  8  9  2  0
  9 10  1  0
 10 11  2  0
 11 12  1  0
 11 13  1  0
 13 14  2  0
  2 15  1  0
 15 16  1  0
 16 17  2  0
 17 18  1  0
 18 19  2  0
 19 20  1  0
 20 21  2  0
 14  5  1  0
 21 16  1  0
 14  8  1  0
  1 22  1  0
  1 23  1  0
  1 24  1  0
  3 25  1  0
  3 26  1  0
  4 27  1  0
  4 28  1  0
  6 29  1  0
  7 30  1  0
  9 31  1  0
 10 32  1  0
 13 33  1  0
 15 34  1  0
 15 35  1  0
 17 36  1  0
 18 37  1  0
 19 38  1  0
 20 39  1  0
 21 40  1  0
M  END
>  <UniqueID>  (89) 
78

>  <SMILES>  (89) 
CN(CCc1c[nH]c2ccc(Br)cc12)Cc1ccccc1

>  <Energy>  (89) 
71.7304611878869

>  <Genealogy>  (89) 
CN(CCc1c[nH]c2ccc(Br)cc12)Cc1ccccc1 (3D coordinates assigned)
CN(CCc1c[nH]c2ccc(Br)cc12)Cc1ccccc1 (optimized conformer: 71.7304611878869 kcal/mol)

>  <smiles>  (89) 
CN(CCc1c[nH]c2ccc(Br)cc12)Cc1ccccc1

>  <score_type>  (89) 
oracle

>  <origin>  (89) 
adg

>  <m_score__min__energy>  (89) 
-7.7300000000000004

>  <m_primary>  (89) 
energy

$$$$
89:0
     RDKit          3D

 34 36  0  0  0  0  0  0  0  0999 V2000
   55.3920   24.5010   46.6750 O   0  0  0  0  0  0  0  0  0  0  0  0
   56.0620   25.5030   46.3150 C   0  0  0  0  0  0  0  0  0  0  0  0
   55.4300   26.7110   45.9120 N   0  0  0  0  0  0  0  0  0  0  0  0
   56.4150   27.6860   45.6250 C   0  0  0  0  0  0  0  0  0  0  0  0
   56.1040   28.8150   45.1610 O   0  0  0  0  0  0  0  0  0  0  0  0
   57.7920   27.2300   45.8490 C   0  0  0  0  0  0  0  0  0  0  0  0
   58.9160   27.9520   45.7240 C   0  0  0  0  0  0  0  0  0  0  0  0
   59.2280   29.1690   46.4990 C   0  0  0  0  0  0  0  0  0  0  0  0
   60.0970   30.1260   45.9590 C   0  0  0  0  0  0  0  0  0  0  0  0
   60.4460   31.2600   46.6970 C   0  0  0  0  0  0  0  0  0  0  0  0
   59.9490   31.4410   48.0020 C   0  0  0  0  0  0  0  0  0  0  0  0
   60.2700   32.5580   48.7890 O   0  0  0  0  0  0  0  0  0  0  0  0
   59.9150   33.9080   48.4880 C   0  0  0  0  0  0  0  0  0  0  0  0
   59.1010   33.9800   47.2230 C   0  0  0  0  0  0  0  0  0  0  0  0
   59.6470   34.5320   46.0530 C   0  0  0  0  0  0  0  0  0  0  0  0
   58.8870   34.5860   44.8800 C   0  0  0  0  0  0  0  0  0  0  0  0
   57.5840   34.0810   44.8650 C   0  0  0  0  0  0  0  0  0  0  0  0
   57.0390   33.5190   46.0220 C   0  0  0  0  0  0  0  0  0  0  0  0
   57.7950   33.4630   47.1970 C   0  0  0  0  0  0  0  0  0  0  0  0
   59.1020   30.4680   48.5470 C   0  0  0  0  0  0  0  0  0  0  0  0
   58.7520   29.3340   47.8100 C   0  0  0  0  0  0  0  0  0  0  0  0
   57.8570   25.4900   46.2900 S   0  0  0  0  0  0  0  0  0  0  0  0
   59.6605   27.6117   44.9892 H   0  0  0  0  0  0  0  0  0  0  0  0
   60.5069   29.9839   44.9482 H   0  0  0  0  0  0  0  0  0  0  0  0
   61.1128   32.0156   46.2560 H   0  0  0  0  0  0  0  0  0  0  0  0
   59.3247   34.3193   49.3201 H   0  0  0  0  0  0  0  0  0  0  0  0
   60.8371   34.4908   48.3464 H   0  0  0  0  0  0  0  0  0  0  0  0
   60.6751   34.9230   46.0589 H   0  0  0  0  0  0  0  0  0  0  0  0
   59.3156   35.0267   43.9678 H   0  0  0  0  0  0  0  0  0  0  0  0
   56.9874   34.1261   43.9419 H   0  0  0  0  0  0  0  0  0  0  0  0
   56.0140   33.1201   46.0087 H   0  0  0  0  0  0  0  0  0  0  0  0
   57.3656   33.0126   48.1041 H   0  0  0  0  0  0  0  0  0  0  0  0
   58.7082   30.5980   49.5659 H   0  0  0  0  0  0  0  0  0  0  0  0
   58.1017   28.5681   48.2578 H   0  0  0  0  0  0  0  0  0  0  0  0
  1  2  2  0
  2  3  1  0
  3  4  1  0
  4  5  2  0
  4  6  1  0
  6  7  2  3
  7  8  1  0
  8  9  2  0
  9 10  1  0
 10 11  2  0
 11 12  1  0
 12 13  1  0
 13 14  1  0
 14 15  2  0
 15 16  1  0
 16 17  2  0
 17 18  1  0
 18 19  2  0
 11 20  1  0
 20 21  2  0
  6 22  1  0
 22  2  1  0
 21  8  1  0
 19 14  1  0
  7 23  1  0
  9 24  1  0
 10 25  1  0
 13 26  1  0
 13 27  1  0
 15 28  1  0
 16 29  1  0
 17 30  1  0
 18 31  1  0
 19 32  1  0
 20 33  1  0
 21 34  1  0
M  CHG  1   3  -1
M  END
>  <UniqueID>  (90) 
79

>  <SMILES>  (90) 
O=C1[N-]C(=O)C(=Cc2ccc(OCc3ccccc3)cc2)S1

>  <Energy>  (90) 
62.82380258589186

>  <Genealogy>  (90) 
O=C1[N-]C(=O)C(=Cc2ccc(OCc3ccccc3)cc2)S1 (protonated)
O=C1[N-]C(=O)C(=Cc2ccc(OCc3ccccc3)cc2)S1 (3D coordinates assigned)
O=C1[N-]C(=O)C(=Cc2ccc(OCc3ccccc3)cc2)S1 (nonaromatic ring conformer: 62.82380258589186 kcal/mol)

>  <smiles>  (90) 
O=C1NC(=O)C(=Cc2ccc(OCc3ccccc3)cc2)S1

>  <score_type>  (90) 
oracle

>  <origin>  (90) 
adg

>  <m_score__min__energy>  (90) 
-10.539999999999999

>  <m_primary>  (90) 
energy

$$$$
90:0
     RDKit          3D

 32 33  0  0  0  0  0  0  0  0999 V2000
   55.9240   20.4720   43.9490 N   0  0  0  0  0  0  0  0  0  0  0  0
   56.2750   21.7400   43.3970 C   0  0  0  0  0  0  0  0  0  0  0  0
   56.8260   21.7850   42.2640 O   0  0  0  0  0  0  0  0  0  0  0  0
   56.0010   22.9910   44.1450 C   0  0  0  0  0  0  0  0  0  0  0  0
   54.7610   23.1840   44.7770 C   0  0  0  0  0  0  0  0  0  0  0  0
   54.5100   24.3520   45.4990 C   0  0  0  0  0  0  0  0  0  0  0  0
   55.4810   25.3530   45.5920 C   0  0  0  0  0  0  0  0  0  0  0  0
   55.1910   26.5030   46.3270 O   0  0  0  0  0  0  0  0  0  0  0  0
   56.7180   25.1900   44.9420 C   0  0  0  0  0  0  0  0  0  0  0  0
   57.7180   26.2140   45.0580 N   0  0  0  0  0  0  0  0  0  0  0  0
   58.2730   26.7050   46.2830 C   0  0  0  0  0  0  0  0  0  0  0  0
   59.2170   26.0700   46.8220 O   0  0  0  0  0  0  0  0  0  0  0  0
   57.7570   27.9000   46.8870 N   0  0  0  0  0  0  0  0  0  0  0  0
   57.8700   29.2410   46.3850 C   0  0  0  0  0  0  0  0  0  0  0  0
   58.6470   30.2090   47.0490 C   0  0  0  0  0  0  0  0  0  0  0  0
   58.7300   31.5120   46.5550 C   0  0  0  0  0  0  0  0  0  0  0  0
   58.0290   31.8710   45.4020 C   0  0  0  0  0  0  0  0  0  0  0  0
   58.1430   33.6550   44.7300 Br  0  0  0  0  0  0  0  0  0  0  0  0
   57.2320   30.9280   44.7490 C   0  0  0  0  0  0  0  0  0  0  0  0
   57.1390   29.6150   45.2370 C   0  0  0  0  0  0  0  0  0  0  0  0
   56.3060   28.6690   44.5550 N   0  0  0  0  0  0  0  0  0  0  0  0
   56.9780   23.9970   44.2430 C   0  0  0  0  0  0  0  0  0  0  0  0
   56.5530   19.6470   43.8420 H   0  0  0  0  0  0  0  0  0  0  0  0
   53.9831   22.4098   44.7023 H   0  0  0  0  0  0  0  0  0  0  0  0
   53.5395   24.4858   45.9992 H   0  0  0  0  0  0  0  0  0  0  0  0
   55.9160   27.0930   46.7170 H   0  0  0  0  0  0  0  0  0  0  0  0
   59.1930   29.9365   47.9642 H   0  0  0  0  0  0  0  0  0  0  0  0
   59.3491   32.2577   47.0753 H   0  0  0  0  0  0  0  0  0  0  0  0
   56.6734   31.2161   43.8462 H   0  0  0  0  0  0  0  0  0  0  0  0
   55.7210   28.9440   43.7350 H   0  0  0  0  0  0  0  0  0  0  0  0
   56.2730   27.6710   44.8600 H   0  0  0  0  0  0  0  0  0  0  0  0
   57.9586   23.8495   43.7669 H   0  0  0  0  0  0  0  0  0  0  0  0
  1  2  1  0
  2  3  2  0
  2  4  1  0
  4  5  2  0
  5  6  1  0
  6  7  2  0
  7  8  1  0
  7  9  1  0
  9 10  1  0
 10 11  1  0
 11 12  2  0
 11 13  1  0
 13 14  1  0
 14 15  2  0
 15 16  1  0
 16 17  2  0
 17 18  1  0
 17 19  1  0
 19 20  2  0
 20 21  1  0
  9 22  2  0
 22  4  1  0
 20 14  1  0
  1 23  1  0
  5 24  1  0
  6 25  1  0
  8 26  1  0
 15 27  1  0
 16 28  1  0
 19 29  1  0
 21 30  1  0
 21 31  1  0
 22 32  1  0
M  CHG  3   1  -1  10  -1  13  -1
M  END
>  <UniqueID>  (91) 
80

>  <SMILES>  (91) 
[NH-]C(=O)c1ccc(O)c([N-]C(=O)[N-]c2ccc(Br)cc2N)c1

>  <Energy>  (91) 
39.66701317440553

>  <Genealogy>  (91) 
[NH-]C(=O)c1ccc(O)c([N-]C(=O)[N-]c2ccc(Br)cc2N)c1 (protonated)
[NH-]C(=O)c1ccc(O)c([N-]C(=O)[N-]c2ccc(Br)cc2N)c1 (3D coordinates assigned)
[NH-]C(=O)c1ccc(O)c([N-]C(=O)[N-]c2ccc(Br)cc2N)c1 (optimized conformer: 39.66701317440553 kcal/mol)

>  <smiles>  (91) 
NC(=O)c1ccc(O)c(NC(=O)Nc2ccc(Br)cc2N)c1

>  <score_type>  (91) 
oracle

>  <origin>  (91) 
adg

>  <m_score__min__energy>  (91) 
-12.26

>  <m_primary>  (91) 
energy

$$$$
91:0
     RDKit          3D

 28 30  0  0  0  0  0  0  0  0999 V2000
   57.3680   26.2190   47.1370 O   0  0  0  0  0  0  0  0  0  0  0  0
   57.5780   27.4090   46.7780 C   0  0  0  0  0  0  0  0  0  0  0  0
   58.7170   28.0410   47.1750 N   0  0  0  0  0  0  0  0  0  0  0  0
   58.9710   29.3270   46.8030 C   0  0  0  0  0  0  0  0  0  0  0  0
   60.1480   29.9690   47.2190 C   0  0  0  0  0  0  0  0  0  0  0  0
   60.4140   31.2960   46.8400 C   0  0  0  0  0  0  0  0  0  0  0  0
   61.6610   31.9710   47.2820 C   0  0  0  0  0  0  0  0  0  0  0  0
   62.4880   31.3790   48.2550 C   0  0  0  0  0  0  0  0  0  0  0  0
   63.6620   32.0160   48.6700 C   0  0  0  0  0  0  0  0  0  0  0  0
   64.0220   33.2490   48.1210 C   0  0  0  0  0  0  0  0  0  0  0  0
   63.2100   33.8470   47.1550 C   0  0  0  0  0  0  0  0  0  0  0  0
   62.0360   33.2130   46.7370 C   0  0  0  0  0  0  0  0  0  0  0  0
   59.4820   31.9760   46.0350 C   0  0  0  0  0  0  0  0  0  0  0  0
   58.3090   31.3450   45.6160 C   0  0  0  0  0  0  0  0  0  0  0  0
   58.0440   30.0170   45.9960 C   0  0  0  0  0  0  0  0  0  0  0  0
   56.8780   29.3440   45.5980 C   0  0  0  0  0  0  0  0  0  0  0  0
   56.0200   29.9210   44.8750 O   0  0  0  0  0  0  0  0  0  0  0  0
   56.6680   28.0560   45.9960 N   0  0  0  0  0  0  0  0  0  0  0  0
   55.5230   27.4010   45.6030 O   0  0  0  0  0  0  0  0  0  0  0  0
   59.4000   27.5240   47.7740 H   0  0  0  0  0  0  0  0  0  0  0  0
   60.8698   29.4277   47.8483 H   0  0  0  0  0  0  0  0  0  0  0  0
   62.2091   30.4088   48.6920 H   0  0  0  0  0  0  0  0  0  0  0  0
   64.3029   31.5452   49.4300 H   0  0  0  0  0  0  0  0  0  0  0  0
   64.9451   33.7489   48.4496 H   0  0  0  0  0  0  0  0  0  0  0  0
   63.4942   34.8177   46.7226 H   0  0  0  0  0  0  0  0  0  0  0  0
   61.4003   33.6890   45.9759 H   0  0  0  0  0  0  0  0  0  0  0  0
   59.6793   33.0151   45.7327 H   0  0  0  0  0  0  0  0  0  0  0  0
   57.5894   31.8886   44.9863 H   0  0  0  0  0  0  0  0  0  0  0  0
  1  2  2  0
  2  3  1  0
  3  4  1  0
  4  5  2  0
  5  6  1  0
  6  7  1  0
  7  8  2  0
  8  9  1  0
  9 10  2  0
 10 11  1  0
 11 12  2  0
  6 13  2  0
 13 14  1  0
 14 15  2  0
 15 16  1  0
 16 17  2  0
 16 18  1  0
 18 19  1  0
 18  2  1  0
 15  4  1  0
 12  7  1  0
  3 20  1  0
  5 21  1  0
  8 22  1  0
  9 23  1  0
 10 24  1  0
 11 25  1  0
 12 26  1  0
 13 27  1  0
 14 28  1  0
M  CHG  1  19  -1
M  END
>  <UniqueID>  (92) 
81

>  <SMILES>  (92) 
O=c1[nH]c2cc(-c3ccccc3)ccc2c(=O)n1[O-]

>  <Energy>  (92) 
42.01803968695028

>  <Genealogy>  (92) 
O=c1[nH]c2cc(-c3ccccc3)ccc2c(=O)n1[O-] (protonated)
O=c1[nH]c2cc(-c3ccccc3)ccc2c(=O)n1[O-] (3D coordinates assigned)
O=c1[nH]c2cc(-c3ccccc3)ccc2c(=O)n1[O-] (optimized conformer: 42.01803968695028 kcal/mol)

>  <smiles>  (92) 
O=c1[nH]c2cc(-c3ccccc3)ccc2c(=O)n1O

>  <score_type>  (92) 
oracle

>  <origin>  (92) 
adg

>  <m_score__min__energy>  (92) 
-9.8900000000000006

>  <m_primary>  (92) 
energy

$$$$
92:0
     RDKit          3D

 44 46  0  0  0  0  0  0  0  0999 V2000
   58.4910   32.3510   50.5680 O   0  0  0  0  0  0  0  0  0  0  0  0
   59.4990   33.4590   50.4510 S   0  0  0  0  0  0  0  0  0  0  0  0
   59.2210   34.4580   51.5390 O   0  0  0  0  0  0  0  0  0  0  0  0
   61.1530   32.8220   50.7020 C   0  0  0  0  0  0  0  0  0  0  0  0
   61.9300   32.7620   49.4110 C   0  0  0  0  0  0  0  0  0  0  0  0
   62.6930   33.8780   49.0230 C   0  0  0  0  0  0  0  0  0  0  0  0
   63.4620   33.8430   47.8580 C   0  0  0  0  0  0  0  0  0  0  0  0
   63.4810   32.6940   47.0660 C   0  0  0  0  0  0  0  0  0  0  0  0
   62.7260   31.5790   47.4340 C   0  0  0  0  0  0  0  0  0  0  0  0
   61.9480   31.6030   48.5990 C   0  0  0  0  0  0  0  0  0  0  0  0
   61.0350   30.1550   49.0130 Cl  0  0  0  0  0  0  0  0  0  0  0  0
   59.3470   34.2660   48.9190 N   0  0  0  0  0  0  0  0  0  0  0  0
   58.8790   33.6310   47.7160 C   0  0  0  0  0  0  0  0  0  0  0  0
   58.6840   32.2420   47.7080 C   0  0  0  0  0  0  0  0  0  0  0  0
   58.1670   31.6020   46.5770 C   0  0  0  0  0  0  0  0  0  0  0  0
   57.8540   32.3450   45.4260 C   0  0  0  0  0  0  0  0  0  0  0  0
   57.2900   31.7390   44.2570 N   0  0  0  0  0  0  0  0  0  0  0  0
   56.8010   30.0820   44.1310 S   0  0  0  0  0  0  0  0  0  0  0  0
   55.5050   29.8760   44.8640 O   0  0  0  0  0  0  0  0  0  0  0  0
   56.6210   29.7070   42.6860 O   0  0  0  0  0  0  0  0  0  0  0  0
   58.0550   29.0670   44.8360 C   0  0  0  0  0  0  0  0  0  0  0  0
   57.7200   28.0270   45.7160 C   0  0  0  0  0  0  0  0  0  0  0  0
   58.7240   27.2360   46.2820 C   0  0  0  0  0  0  0  0  0  0  0  0
   60.0670   27.4820   45.9760 C   0  0  0  0  0  0  0  0  0  0  0  0
   61.0390   26.7140   46.5270 F   0  0  0  0  0  0  0  0  0  0  0  0
   60.4050   28.5230   45.1060 C   0  0  0  0  0  0  0  0  0  0  0  0
   59.4030   29.3150   44.5390 C   0  0  0  0  0  0  0  0  0  0  0  0
   58.0950   33.7230   45.4160 C   0  0  0  0  0  0  0  0  0  0  0  0
   58.6060   34.3630   46.5480 C   0  0  0  0  0  0  0  0  0  0  0  0
   61.6842   33.4778   51.4075 H   0  0  0  0  0  0  0  0  0  0  0  0
   61.0698   31.7998   51.0997 H   0  0  0  0  0  0  0  0  0  0  0  0
   62.6839   34.7866   49.6429 H   0  0  0  0  0  0  0  0  0  0  0  0
   64.0538   34.7224   47.5640 H   0  0  0  0  0  0  0  0  0  0  0  0
   64.0913   32.6670   46.1512 H   0  0  0  0  0  0  0  0  0  0  0  0
   62.7420   30.6763   46.8057 H   0  0  0  0  0  0  0  0  0  0  0  0
   59.8290   35.1880   48.8350 H   0  0  0  0  0  0  0  0  0  0  0  0
   58.9400   31.6506   48.5995 H   0  0  0  0  0  0  0  0  0  0  0  0
   58.0049   30.5141   46.5884 H   0  0  0  0  0  0  0  0  0  0  0  0
   56.6652   27.8336   45.9611 H   0  0  0  0  0  0  0  0  0  0  0  0
   58.4579   26.4191   46.9689 H   0  0  0  0  0  0  0  0  0  0  0  0
   61.4608   28.7188   44.8676 H   0  0  0  0  0  0  0  0  0  0  0  0
   59.6724   30.1355   43.8576 H   0  0  0  0  0  0  0  0  0  0  0  0
   57.8804   34.3076   44.5093 H   0  0  0  0  0  0  0  0  0  0  0  0
   58.7957   35.4463   46.5248 H   0  0  0  0  0  0  0  0  0  0  0  0
  1  2  2  0
  2  3  2  0
  2  4  1  0
  4  5  1  0
  5  6  2  0
  6  7  1  0
  7  8  2  0
  8  9  1  0
  9 10  2  0
 10 11  1  0
  2 12  1  0
 12 13  1  0
 13 14  2  0
 14 15  1  0
 15 16  2  0
 16 17  1  0
 17 18  1  0
 18 19  2  0
 18 20  2  0
 18 21  1  0
 21 22  2  0
 22 23  1  0
 23 24  2  0
 24 25  1  0
 24 26  1  0
 26 27  2  0
 16 28  1  0
 28 29  2  0
 10  5  1  0
 29 13  1  0
 27 21  1  0
  4 30  1  0
  4 31  1  0
  6 32  1  0
  7 33  1  0
  8 34  1  0
  9 35  1  0
 12 36  1  0
 14 37  1  0
 15 38  1  0
 22 39  1  0
 23 40  1  0
 26 41  1  0
 27 42  1  0
 28 43  1  0
 29 44  1  0
M  CHG  1  17  -1
M  END
>  <UniqueID>  (93) 
82

>  <SMILES>  (93) 
O=S(=O)(Cc1ccccc1Cl)Nc1ccc([N-]S(=O)(=O)c2ccc(F)cc2)cc1

>  <Energy>  (93) 
48.359585851778114

>  <Genealogy>  (93) 
O=S(=O)(Cc1ccccc1Cl)Nc1ccc([N-]S(=O)(=O)c2ccc(F)cc2)cc1 (protonated)
O=S(=O)(Cc1ccccc1Cl)Nc1ccc([N-]S(=O)(=O)c2ccc(F)cc2)cc1 (3D coordinates assigned)
O=S(=O)(Cc1ccccc1Cl)Nc1ccc([N-]S(=O)(=O)c2ccc(F)cc2)cc1 (optimized conformer: 48.359585851778114 kcal/mol)

>  <smiles>  (93) 
O=S(=O)(Cc1ccccc1Cl)Nc1ccc(NS(=O)(=O)c2ccc(F)cc2)cc1

>  <score_type>  (93) 
oracle

>  <origin>  (93) 
adg

>  <m_score__min__energy>  (93) 
-10.65

>  <m_primary>  (93) 
energy

$$$$
93:0
     RDKit          3D

 50 53  0  0  0  0  0  0  0  0999 V2000
   57.3780   19.9360   45.3350 N   0  0  0  0  0  0  0  0  0  0  0  0
   56.1020   20.5360   45.5800 C   0  0  0  0  0  0  0  0  0  0  0  0
   54.7780   19.5710   45.6650 S   0  0  0  0  0  0  0  0  0  0  0  0
   55.9800   22.0040   45.7570 C   0  0  0  0  0  0  0  0  0  0  0  0
   56.1020   22.5920   47.0290 C   0  0  0  0  0  0  0  0  0  0  0  0
   55.9450   23.9720   47.1910 C   0  0  0  0  0  0  0  0  0  0  0  0
   55.6570   24.7870   46.0910 C   0  0  0  0  0  0  0  0  0  0  0  0
   55.5190   26.2000   46.2980 N   0  0  0  0  0  0  0  0  0  0  0  0
   56.3560   27.2370   45.7670 C   0  0  0  0  0  0  0  0  0  0  0  0
   55.8110   28.2440   45.2430 O   0  0  0  0  0  0  0  0  0  0  0  0
   57.8550   27.1470   45.7940 C   0  0  0  0  0  0  0  0  0  0  0  0
   58.5560   27.7350   44.2160 S   0  0  0  0  0  0  0  0  0  0  0  0
   58.2140   29.4620   44.5730 C   0  0  0  0  0  0  0  0  0  0  0  0
   57.0820   30.0840   44.2090 N   0  0  0  0  0  0  0  0  0  0  0  0
   57.1340   31.3270   44.6580 N   0  0  0  0  0  0  0  0  0  0  0  0
   58.3250   31.4550   45.2810 C   0  0  0  0  0  0  0  0  0  0  0  0
   58.7470   32.7110   45.9190 C   0  0  0  0  0  0  0  0  0  0  0  0
   59.2950   33.8230   45.2910 C   0  0  0  0  0  0  0  0  0  0  0  0
   59.5160   34.8960   46.1630 C   0  0  0  0  0  0  0  0  0  0  0  0
   59.1270   34.6420   47.4710 C   0  0  0  0  0  0  0  0  0  0  0  0
   58.4980   33.0840   47.5390 S   0  0  0  0  0  0  0  0  0  0  0  0
   59.0320   30.2960   45.2470 N   0  0  0  0  0  0  0  0  0  0  0  0
   60.2990   29.9560   45.9030 C   0  0  0  0  0  0  0  0  0  0  0  0
   60.1880   30.0910   47.4000 C   0  0  0  0  0  0  0  0  0  0  0  0
   61.1460   30.8250   48.1210 C   0  0  0  0  0  0  0  0  0  0  0  0
   61.0140   30.9890   49.5030 C   0  0  0  0  0  0  0  0  0  0  0  0
   59.9270   30.4250   50.1750 C   0  0  0  0  0  0  0  0  0  0  0  0
   58.9750   29.6870   49.4690 C   0  0  0  0  0  0  0  0  0  0  0  0
   59.0990   29.5250   48.0860 C   0  0  0  0  0  0  0  0  0  0  0  0
   55.5860   24.2130   44.8110 C   0  0  0  0  0  0  0  0  0  0  0  0
   55.7290   22.8330   44.6490 C   0  0  0  0  0  0  0  0  0  0  0  0
   58.2260   20.5200   45.1610 H   0  0  0  0  0  0  0  0  0  0  0  0
   57.4700   18.8980   45.2610 H   0  0  0  0  0  0  0  0  0  0  0  0
   56.3226   21.9614   47.9029 H   0  0  0  0  0  0  0  0  0  0  0  0
   56.0487   24.4199   48.1903 H   0  0  0  0  0  0  0  0  0  0  0  0
   58.2406   27.7683   46.6158 H   0  0  0  0  0  0  0  0  0  0  0  0
   58.1467   26.0972   45.9448 H   0  0  0  0  0  0  0  0  0  0  0  0
   56.2770   29.6730   43.6870 H   0  0  0  0  0  0  0  0  0  0  0  0
   59.5313   33.8568   44.2172 H   0  0  0  0  0  0  0  0  0  0  0  0
   59.9568   35.8512   45.8415 H   0  0  0  0  0  0  0  0  0  0  0  0
   59.2150   35.3395   48.3170 H   0  0  0  0  0  0  0  0  0  0  0  0
   60.5650   28.9179   45.6546 H   0  0  0  0  0  0  0  0  0  0  0  0
   61.0745   30.6497   45.5461 H   0  0  0  0  0  0  0  0  0  0  0  0
   62.0028   31.2720   47.5956 H   0  0  0  0  0  0  0  0  0  0  0  0
   61.7674   31.5632   50.0622 H   0  0  0  0  0  0  0  0  0  0  0  0
   59.8210   30.5624   51.2612 H   0  0  0  0  0  0  0  0  0  0  0  0
   58.1265   29.2326   50.0015 H   0  0  0  0  0  0  0  0  0  0  0  0
   58.3410   28.9520   47.5318 H   0  0  0  0  0  0  0  0  0  0  0  0
   55.4171   24.8530   43.9324 H   0  0  0  0  0  0  0  0  0  0  0  0
   55.6445   22.3905   43.6455 H   0  0  0  0  0  0  0  0  0  0  0  0
  1  2  1  0
  2  3  2  0
  2  4  1  0
  4  5  2  0
  5  6  1  0
  6  7  2  0
  7  8  1  0
  8  9  1  0
  9 10  2  0
  9 11  1  0
 11 12  1  0
 12 13  1  0
 13 14  2  0
 14 15  1  0
 15 16  2  0
 16 17  1  0
 17 18  2  0
 18 19  1  0
 19 20  2  0
 20 21  1  0
 16 22  1  0
 22 23  1  0
 23 24  1  0
 24 25  2  0
 25 26  1  0
 26 27  2  0
 27 28  1  0
 28 29  2  0
  7 30  1  0
 30 31  2  0
 31  4  1  0
 22 13  1  0
 29 24  1  0
 21 17  1  0
  1 32  1  0
  1 33  1  0
  5 34  1  0
  6 35  1  0
 11 36  1  0
 11 37  1  0
 14 38  1  0
 18 39  1  0
 19 40  1  0
 20 41  1  0
 23 42  1  0
 23 43  1  0
 25 44  1  0
 26 45  1  0
 27 46  1  0
 28 47  1  0
 29 48  1  0
 30 49  1  0
 31 50  1  0
M  CHG  2   8  -1  14   1
M  END
>  <UniqueID>  (94) 
83

>  <SMILES>  (94) 
NC(=S)c1ccc([N-]C(=O)CSc2[nH+]nc(-c3cccs3)n2Cc2ccccc2)cc1

>  <Energy>  (94) 
116.52952661366051

>  <Genealogy>  (94) 
NC(=S)c1ccc([N-]C(=O)CSc2[nH+]nc(-c3cccs3)n2Cc2ccccc2)cc1 (protonated)
NC(=S)c1ccc([N-]C(=O)CSc2[nH+]nc(-c3cccs3)n2Cc2ccccc2)cc1 (3D coordinates assigned)
NC(=S)c1ccc([N-]C(=O)CSc2[nH+]nc(-c3cccs3)n2Cc2ccccc2)cc1 (optimized conformer: 116.52952661366051 kcal/mol)

>  <smiles>  (94) 
NC(=S)c1ccc(NC(=O)CSc2nnc(-c3cccs3)n2Cc2ccccc2)cc1

>  <score_type>  (94) 
oracle

>  <origin>  (94) 
adg

>  <m_score__min__energy>  (94) 
-9.4499999999999993

>  <m_primary>  (94) 
energy

$$$$
94:0
     RDKit          3D

 32 34  0  0  0  0  0  0  0  0999 V2000
   58.3940   28.3390   44.1800 O   0  0  0  0  0  0  0  0  0  0  0  0
   59.0890   29.1440   45.2430 S   0  0  2  0  0  0  0  0  0  0  0  0
   60.7780   28.9300   45.0560 S   0  0  0  0  0  0  0  0  0  0  0  0
   58.6050   28.5290   46.8550 C   0  0  0  0  0  0  0  0  0  0  0  0
   59.5010   29.0650   47.9740 C   0  0  0  0  0  0  0  0  0  0  0  0
   59.3720   30.5160   48.1060 N   0  0  0  0  0  0  0  0  0  0  0  0
   59.7880   31.4020   47.2420 C   0  0  0  0  0  0  0  0  0  0  0  0
   61.1290   32.0130   47.4390 C   0  0  0  0  0  0  0  0  0  0  0  0
   61.4970   33.1690   46.7260 C   0  0  0  0  0  0  0  0  0  0  0  0
   62.7620   33.7400   46.9050 C   0  0  0  0  0  0  0  0  0  0  0  0
   63.6740   33.1620   47.7900 C   0  0  0  0  0  0  0  0  0  0  0  0
   63.3240   32.0090   48.4960 C   0  0  0  0  0  0  0  0  0  0  0  0
   62.0620   31.4340   48.3220 C   0  0  0  0  0  0  0  0  0  0  0  0
   58.9550   31.7830   46.0650 C   0  0  0  0  0  0  0  0  0  0  0  0
   58.5370   33.1190   45.9360 C   0  0  0  0  0  0  0  0  0  0  0  0
   57.7650   33.5180   44.8440 C   0  0  0  0  0  0  0  0  0  0  0  0
   57.4030   32.5930   43.8680 C   0  0  0  0  0  0  0  0  0  0  0  0
   57.8090   31.2610   43.9800 C   0  0  0  0  0  0  0  0  0  0  0  0
   58.5870   30.8390   45.0750 C   0  0  0  0  0  0  0  0  0  0  0  0
   57.5679   28.8367   47.0542 H   0  0  0  0  0  0  0  0  0  0  0  0
   58.7033   27.4335   46.8407 H   0  0  0  0  0  0  0  0  0  0  0  0
   59.2114   28.5912   48.9235 H   0  0  0  0  0  0  0  0  0  0  0  0
   60.5465   28.8295   47.7259 H   0  0  0  0  0  0  0  0  0  0  0  0
   60.7855   33.6269   46.0231 H   0  0  0  0  0  0  0  0  0  0  0  0
   63.0385   34.6467   46.3469 H   0  0  0  0  0  0  0  0  0  0  0  0
   64.6668   33.6141   47.9310 H   0  0  0  0  0  0  0  0  0  0  0  0
   64.0437   31.5520   49.1911 H   0  0  0  0  0  0  0  0  0  0  0  0
   61.7953   30.5232   48.8782 H   0  0  0  0  0  0  0  0  0  0  0  0
   58.8207   33.8558   46.7019 H   0  0  0  0  0  0  0  0  0  0  0  0
   57.4417   34.5656   44.7540 H   0  0  0  0  0  0  0  0  0  0  0  0
   56.7964   32.9117   43.0075 H   0  0  0  0  0  0  0  0  0  0  0  0
   57.5183   30.5355   43.2059 H   0  0  0  0  0  0  0  0  0  0  0  0
  1  2  2  0
  2  3  2  0
  2  4  1  1
  4  5  1  0
  5  6  1  0
  6  7  2  0
  7  8  1  0
  8  9  2  0
  9 10  1  0
 10 11  2  0
 11 12  1  0
 12 13  2  0
  7 14  1  0
 14 15  2  0
 15 16  1  0
 16 17  2  0
 17 18  1  0
 18 19  2  0
 19  2  1  0
 13  8  1  0
 19 14  1  0
  4 20  1  0
  4 21  1  0
  5 22  1  0
  5 23  1  0
  9 24  1  0
 10 25  1  0
 11 26  1  0
 12 27  1  0
 13 28  1  0
 15 29  1  0
 16 30  1  0
 17 31  1  0
 18 32  1  0
M  END
>  <UniqueID>  (95) 
84

>  <SMILES>  (95) 
O=[S@]1(=S)CCN=C(c2ccccc2)c2ccccc21

>  <Energy>  (95) 
46.01839700454261

>  <Genealogy>  (95) 
O=[S@]1(=S)CCN=C(c2ccccc2)c2ccccc21 (chirality)
O=[S@]1(=S)CCN=C(c2ccccc2)c2ccccc21 (3D coordinates assigned)
O=[S@]1(=S)CCN=C(c2ccccc2)c2ccccc21 (nonaromatic ring conformer: 46.01839700454261 kcal/mol)

>  <smiles>  (95) 
O=S1(=S)CCN=C(c2ccccc2)c2ccccc21

>  <score_type>  (95) 
oracle

>  <origin>  (95) 
adg

>  <m_score__min__energy>  (95) 
-5.8499999999999996

>  <m_primary>  (95) 
energy

$$$$
