0:0
     RDKit          3D

 34 35  0  0  0  0  0  0  0  0999 V2000
   55.9910   24.1130   44.4350 C   0  0  0  0  0  0  0  0  0  0  0  0
   55.5400   24.8060   46.0120 S   0  0  0  0  0  0  0  0  0  0  0  0
   54.7700   26.0760   45.7890 O   0  0  0  0  0  0  0  0  0  0  0  0
   54.6640   23.8370   46.7550 O   0  0  0  0  0  0  0  0  0  0  0  0
   56.9650   25.1730   46.9350 N   0  0  0  0  0  0  0  0  0  0  0  0
   57.7820   26.3380   46.7700 C   0  0  0  0  0  0  0  0  0  0  0  0
   58.6250   26.6160   47.6640 O   0  0  0  0  0  0  0  0  0  0  0  0
   57.6600   27.2280   45.6010 C   0  0  0  0  0  0  0  0  0  0  0  0
   57.9170   26.7460   44.3090 C   0  0  0  0  0  0  0  0  0  0  0  0
   57.7970   27.5920   43.2050 C   0  0  0  0  0  0  0  0  0  0  0  0
   57.3990   28.9200   43.3780 C   0  0  0  0  0  0  0  0  0  0  0  0
   57.0920   29.4030   44.6630 C   0  0  0  0  0  0  0  0  0  0  0  0
   56.6850   30.7620   44.8780 N   0  0  0  0  0  0  0  0  0  0  0  0
   57.3340   31.9320   44.3640 C   0  0  0  0  0  0  0  0  0  0  0  0
   57.3830   32.0940   43.1160 O   0  0  0  0  0  0  0  0  0  0  0  0
   57.9910   32.9220   45.2500 C   0  0  0  0  0  0  0  0  0  0  0  0
   58.6680   34.0240   44.6980 C   0  0  0  0  0  0  0  0  0  0  0  0
   59.2930   34.9600   45.5290 C   0  0  0  0  0  0  0  0  0  0  0  0
   59.2560   34.8000   46.9170 C   0  0  0  0  0  0  0  0  0  0  0  0
   58.6000   33.7010   47.4750 C   0  0  0  0  0  0  0  0  0  0  0  0
   57.9740   32.7630   46.6480 C   0  0  0  0  0  0  0  0  0  0  0  0
   57.2370   28.5560   45.7690 C   0  0  0  0  0  0  0  0  0  0  0  0
   56.5849   23.2005   44.5918 H   0  0  0  0  0  0  0  0  0  0  0  0
   55.0806   23.8653   43.8695 H   0  0  0  0  0  0  0  0  0  0  0  0
   56.5861   24.8451   43.8695 H   0  0  0  0  0  0  0  0  0  0  0  0
   58.2144   25.6968   44.1651 H   0  0  0  0  0  0  0  0  0  0  0  0
   58.0164   27.2120   42.1963 H   0  0  0  0  0  0  0  0  0  0  0  0
   57.3256   29.5890   42.5079 H   0  0  0  0  0  0  0  0  0  0  0  0
   58.7064   34.1509   43.6060 H   0  0  0  0  0  0  0  0  0  0  0  0
   59.8143   35.8231   45.0894 H   0  0  0  0  0  0  0  0  0  0  0  0
   59.7434   35.5395   47.5694 H   0  0  0  0  0  0  0  0  0  0  0  0
   58.5755   33.5728   48.5672 H   0  0  0  0  0  0  0  0  0  0  0  0
   57.4651   31.8954   47.0932 H   0  0  0  0  0  0  0  0  0  0  0  0
   57.0175   28.9347   46.7782 H   0  0  0  0  0  0  0  0  0  0  0  0
  1  2  1  0
  2  3  2  0
  2  4  2  0
  2  5  1  0
  5  6  1  0
  6  7  2  0
  6  8  1  0
  8  9  2  0
  9 10  1  0
 10 11  2  0
 11 12  1  0
 12 13  1  0
 13 14  1  0
 14 15  2  0
 14 16  1  0
 16 17  2  0
 17 18  1  0
 18 19  2  0
 19 20  1  0
 20 21  2  0
 12 22  2  0
 22  8  1  0
 21 16  1  0
  1 23  1  0
  1 24  1  0
  1 25  1  0
  9 26  1  0
 10 27  1  0
 11 28  1  0
 17 29  1  0
 18 30  1  0
 19 31  1  0
 20 32  1  0
 21 33  1  0
 22 34  1  0
M  CHG  2   5  -1  13  -1
M  END
>  <UniqueID>  (1) 
1

>  <SMILES>  (1) 
CS(=O)(=O)[N-]C(=O)c1cccc([N-]C(=O)c2ccccc2)c1

>  <Energy>  (1) 
45.748164512052384

>  <Genealogy>  (1) 
CS(=O)(=O)[N-]C(=O)c1cccc([N-]C(=O)c2ccccc2)c1 (protonated)
CS(=O)(=O)[N-]C(=O)c1cccc([N-]C(=O)c2ccccc2)c1 (3D coordinates assigned)
CS(=O)(=O)[N-]C(=O)c1cccc([N-]C(=O)c2ccccc2)c1 (optimized conformer: 45.748164512052384 kcal/mol)

>  <smiles>  (1) 
CS(=O)(=O)NC(=O)c1cccc(NC(=O)c2ccccc2)c1

>  <score_type>  (1) 
oracle

>  <origin>  (1) 
adg

>  <m_score__min__energy>  (1) 
-11.380000000000001

>  <m_primary>  (1) 
energy

$$$$
1:0
     RDKit          3D

 47 49  0  0  0  0  0  0  0  0999 V2000
   56.2430   21.4560   45.6480 C   0  0  0  0  0  0  0  0  0  0  0  0
   56.4720   22.9200   45.8580 C   0  0  0  0  0  0  0  0  0  0  0  0
   57.7670   23.4190   46.0210 C   0  0  0  0  0  0  0  0  0  0  0  0
   57.9700   24.7970   46.1900 C   0  0  0  0  0  0  0  0  0  0  0  0
   59.3750   25.3110   46.3820 C   0  0  0  0  0  0  0  0  0  0  0  0
   56.8570   25.6730   46.1450 C   0  0  0  0  0  0  0  0  0  0  0  0
   57.0220   27.1660   46.3140 C   0  0  0  0  0  0  0  0  0  0  0  0
   56.8300   27.8220   45.0260 N   0  0  0  0  0  0  0  0  0  0  0  0
   56.3460   29.1600   44.8450 C   0  0  0  0  0  0  0  0  0  0  0  0
   55.1190   29.3340   44.6200 O   0  0  0  0  0  0  0  0  0  0  0  0
   57.2250   30.3410   44.9680 C   0  0  0  0  0  0  0  0  0  0  0  0
   58.4970   30.2370   45.5520 C   0  0  0  0  0  0  0  0  0  0  0  0
   59.3120   31.3660   45.6790 C   0  0  0  0  0  0  0  0  0  0  0  0
   58.8690   32.6160   45.2080 C   0  0  0  0  0  0  0  0  0  0  0  0
   59.6580   33.8060   45.3450 N   0  0  0  0  0  0  0  0  0  0  0  0
   59.9540   34.6430   46.8340 S   0  0  0  0  0  0  0  0  0  0  0  0
   59.9970   36.1220   46.5680 O   0  0  0  0  0  0  0  0  0  0  0  0
   58.8340   34.3480   47.7920 O   0  0  0  0  0  0  0  0  0  0  0  0
   61.4700   34.0990   47.5480 C   0  0  0  0  0  0  0  0  0  0  0  0
   62.5020   33.6200   46.7300 C   0  0  0  0  0  0  0  0  0  0  0  0
   63.7050   33.1870   47.2980 C   0  0  0  0  0  0  0  0  0  0  0  0
   63.8810   33.2340   48.6830 C   0  0  0  0  0  0  0  0  0  0  0  0
   62.8560   33.7140   49.5040 C   0  0  0  0  0  0  0  0  0  0  0  0
   63.0300   33.7630   50.8490 F   0  0  0  0  0  0  0  0  0  0  0  0
   61.6530   34.1490   48.9380 C   0  0  0  0  0  0  0  0  0  0  0  0
   57.6180   32.7080   44.5890 C   0  0  0  0  0  0  0  0  0  0  0  0
   56.8020   31.5800   44.4650 C   0  0  0  0  0  0  0  0  0  0  0  0
   55.5680   25.1160   45.9910 C   0  0  0  0  0  0  0  0  0  0  0  0
   54.5460   25.8520   45.9870 O   0  0  0  0  0  0  0  0  0  0  0  0
   55.4160   23.7750   45.8470 N   0  0  0  0  0  0  0  0  0  0  0  0
   56.1644   20.9536   46.6234 H   0  0  0  0  0  0  0  0  0  0  0  0
   55.3108   21.3080   45.0831 H   0  0  0  0  0  0  0  0  0  0  0  0
   57.0855   21.0304   45.0831 H   0  0  0  0  0  0  0  0  0  0  0  0
   58.6263   22.7323   46.0168 H   0  0  0  0  0  0  0  0  0  0  0  0
   59.5926   25.3906   47.4573 H   0  0  0  0  0  0  0  0  0  0  0  0
   60.0871   24.6152   45.9143 H   0  0  0  0  0  0  0  0  0  0  0  0
   59.4700   26.3021   45.9143 H   0  0  0  0  0  0  0  0  0  0  0  0
   56.2759   27.5391   47.0310 H   0  0  0  0  0  0  0  0  0  0  0  0
   58.0320   27.3843   46.6912 H   0  0  0  0  0  0  0  0  0  0  0  0
   58.8550   29.2612   45.9120 H   0  0  0  0  0  0  0  0  0  0  0  0
   60.3027   31.2769   46.1486 H   0  0  0  0  0  0  0  0  0  0  0  0
   62.3660   33.5844   45.6390 H   0  0  0  0  0  0  0  0  0  0  0  0
   64.5126   32.8094   46.6537 H   0  0  0  0  0  0  0  0  0  0  0  0
   64.8272   32.8929   49.1283 H   0  0  0  0  0  0  0  0  0  0  0  0
   60.8489   34.5310   49.5841 H   0  0  0  0  0  0  0  0  0  0  0  0
   57.2735   33.6762   44.1965 H   0  0  0  0  0  0  0  0  0  0  0  0
   55.8231   31.6644   43.9704 H   0  0  0  0  0  0  0  0  0  0  0  0
  1  2  1  0
  2  3  2  0
  3  4  1  0
  4  5  1  0
  4  6  2  0
  6  7  1  0
  7  8  1  0
  8  9  1  0
  9 10  2  0
  9 11  1  0
 11 12  2  0
 12 13  1  0
 13 14  2  0
 14 15  1  0
 15 16  1  0
 16 17  2  0
 16 18  2  0
 16 19  1  0
 19 20  2  0
 20 21  1  0
 21 22  2  0
 22 23  1  0
 23 24  1  0
 23 25  2  0
 14 26  1  0
 26 27  2  0
  6 28  1  0
 28 29  2  0
 28 30  1  0
 30  2  1  0
 27 11  1  0
 25 19  1  0
  1 31  1  0
  1 32  1  0
  1 33  1  0
  3 34  1  0
  5 35  1  0
  5 36  1  0
  5 37  1  0
  7 38  1  0
  7 39  1  0
 12 40  1  0
 13 41  1  0
 20 42  1  0
 21 43  1  0
 22 44  1  0
 25 45  1  0
 26 46  1  0
 27 47  1  0
M  CHG  3   8  -1  15  -1  30  -1
M  END
>  <UniqueID>  (2) 
2

>  <SMILES>  (2) 
Cc1cc(C)c(C[N-]C(=O)c2ccc([N-]S(=O)(=O)c3cccc(F)c3)cc2)c(=O)[n-]1

>  <Energy>  (2) 
57.345597077818304

>  <Genealogy>  (2) 
Cc1cc(C)c(C[N-]C(=O)c2ccc([N-]S(=O)(=O)c3cccc(F)c3)cc2)c(=O)[n-]1 (protonated)
Cc1cc(C)c(C[N-]C(=O)c2ccc([N-]S(=O)(=O)c3cccc(F)c3)cc2)c(=O)[n-]1 (3D coordinates assigned)
Cc1cc(C)c(C[N-]C(=O)c2ccc([N-]S(=O)(=O)c3cccc(F)c3)cc2)c(=O)[n-]1 (optimized conformer: 57.345597077818304 kcal/mol)

>  <smiles>  (2) 
Cc1cc(C)c(CNC(=O)c2ccc(NS(=O)(=O)c3cccc(F)c3)cc2)c(=O)[nH]1

>  <score_type>  (2) 
oracle

>  <origin>  (2) 
adg

>  <m_score__min__energy>  (2) 
-13.210000000000001

>  <m_primary>  (2) 
energy

$$$$
2:0
     RDKit          3D

 50 53  0  0  0  0  0  0  0  0999 V2000
   56.4598   33.3619   53.3097 H   0  0  0  0  0  0  0  0  0  0  0  0
   57.0390   32.7910   52.5690 C   0  0  0  0  0  0  0  0  0  0  0  0
   58.2530   33.1550   52.0830 N   0  0  0  0  0  0  0  0  0  0  0  0
   58.5580   32.1600   51.2270 C   0  0  0  0  0  0  0  0  0  0  0  0
   59.7230   32.0400   50.4820 C   0  0  0  0  0  0  0  0  0  0  0  0
   60.5076   32.8099   50.5227 H   0  0  0  0  0  0  0  0  0  0  0  0
   59.8630   30.9020   49.6760 C   0  0  0  0  0  0  0  0  0  0  0  0
   60.7673   30.7687   49.0641 H   0  0  0  0  0  0  0  0  0  0  0  0
   58.8340   29.9190   49.6500 C   0  0  0  0  0  0  0  0  0  0  0  0
   58.9020   28.8310   48.9350 N   0  0  0  0  0  0  0  0  0  0  0  0
   60.0120   28.3340   48.1150 C   0  0  0  0  0  0  0  0  0  0  0  0
   60.8160   29.0846   48.1073 H   0  0  0  0  0  0  0  0  0  0  0  0
   60.3676   27.3876   48.5485 H   0  0  0  0  0  0  0  0  0  0  0  0
   59.5620   28.0670   46.6690 C   0  0  2  0  0  0  0  0  0  0  0  0
   59.9290   27.0673   46.3932 H   0  0  0  0  0  0  0  0  0  0  0  0
   60.1060   29.1360   45.8050 N   0  0  0  0  0  0  0  0  0  0  0  0
   61.0800   28.6210   44.8310 C   0  0  0  0  0  0  0  0  0  0  0  0
   61.9301   28.1715   45.3652 H   0  0  0  0  0  0  0  0  0  0  0  0
   60.5994   27.8591   44.1996 H   0  0  0  0  0  0  0  0  0  0  0  0
   61.4391   29.4471   44.1996 H   0  0  0  0  0  0  0  0  0  0  0  0
   58.9700   29.7910   45.1410 C   0  0  0  0  0  0  0  0  0  0  0  0
   58.8695   29.4191   44.1107 H   0  0  0  0  0  0  0  0  0  0  0  0
   59.1182   30.8800   45.0949 H   0  0  0  0  0  0  0  0  0  0  0  0
   57.7300   29.4490   45.9400 C   0  0  0  0  0  0  0  0  0  0  0  0
   56.8425   29.4126   45.2912 H   0  0  0  0  0  0  0  0  0  0  0  0
   57.5033   30.1942   46.7167 H   0  0  0  0  0  0  0  0  0  0  0  0
   58.0380   28.0860   46.5080 C   0  0  0  0  0  0  0  0  0  0  0  0
   57.7110   27.2949   45.8172 H   0  0  0  0  0  0  0  0  0  0  0  0
   57.5167   27.9040   47.4594 H   0  0  0  0  0  0  0  0  0  0  0  0
   57.7210   30.1170   50.4160 N   0  0  0  0  0  0  0  0  0  0  0  0
   57.6130   31.2190   51.1550 N   0  0  0  0  0  0  0  0  0  0  0  0
   56.6340   31.5910   51.9940 C   0  0  0  0  0  0  0  0  0  0  0  0
   55.3770   30.8530   52.2680 C   0  0  0  0  0  0  0  0  0  0  0  0
   55.3600   29.7610   53.1510 C   0  0  0  0  0  0  0  0  0  0  0  0
   56.2856   29.4544   53.6601 H   0  0  0  0  0  0  0  0  0  0  0  0
   54.1730   29.0620   53.3860 C   0  0  0  0  0  0  0  0  0  0  0  0
   54.1691   28.2057   54.0765 H   0  0  0  0  0  0  0  0  0  0  0  0
   52.9920   29.4460   52.7480 C   0  0  0  0  0  0  0  0  0  0  0  0
   52.0625   28.8873   52.9324 H   0  0  0  0  0  0  0  0  0  0  0  0
   52.9870   30.5440   51.8710 C   0  0  0  0  0  0  0  0  0  0  0  0
   51.8020   30.9580   51.1740 N   0  0  0  0  0  0  0  0  0  0  0  0
   51.3810   32.3050   50.9310 C   0  0  0  0  0  0  0  0  0  0  0  0
   51.4190   32.7930   49.7680 O   0  0  0  0  0  0  0  0  0  0  0  0
   50.8620   33.0760   52.0160 N   0  0  0  0  0  0  0  0  0  0  0  0
   50.2520   32.4710   53.1910 C   0  0  0  0  0  0  0  0  0  0  0  0
   50.6927   32.9081   54.0991 H   0  0  0  0  0  0  0  0  0  0  0  0
   49.1687   32.6615   53.1809 H   0  0  0  0  0  0  0  0  0  0  0  0
   50.4336   31.3861   53.1809 H   0  0  0  0  0  0  0  0  0  0  0  0
   54.1860   31.2250   51.6200 C   0  0  0  0  0  0  0  0  0  0  0  0
   54.1953   32.0620   50.9063 H   0  0  0  0  0  0  0  0  0  0  0  0
  1  2  1  0
  2  3  1  0
  3  4  2  0
  4  5  1  0
  5  6  1  0
  5  7  2  0
  7  8  1  0
  7  9  1  0
  9 10  2  0
 10 11  1  0
 11 12  1  0
 11 13  1  0
 11 14  1  0
 14 15  1  6
 14 16  1  0
 16 17  1  0
 17 18  1  0
 17 19  1  0
 17 20  1  0
 16 21  1  0
 21 22  1  0
 21 23  1  0
 21 24  1  0
 24 25  1  0
 24 26  1  0
 24 27  1  0
 27 28  1  0
 27 29  1  0
  9 30  1  0
 30 31  1  0
 31 32  1  0
 32 33  1  0
 33 34  2  0
 34 35  1  0
 34 36  1  0
 36 37  1  0
 36 38  2  0
 38 39  1  0
 38 40  1  0
 40 41  1  0
 41 42  1  0
 42 43  2  0
 42 44  1  0
 44 45  1  0
 45 46  1  0
 45 47  1  0
 45 48  1  0
 40 49  2  0
 49 50  1  0
 32  2  2  0
 49 33  1  0
 31  4  1  0
 27 14  1  0
M  CHG  3  30  -1  41  -1  44  -1
M  END
>  <UniqueID>  (3) 
3

>  <SMILES>  (3) 
C[N-]C(=O)[N-]c1cccc(-c2cnc3cc/c(=N\C[C@H]4CCCN4C)[n-]n23)c1

>  <Energy>  (3) 
99.82564829265046

>  <Genealogy>  (3) 
C[N-]C(=O)[N-]c1cccc(-c2cnc3ccc(=NCC4CCCN4C)[n-]n23)c1 (protonated)
C[N-]C(=O)[N-]c1cccc(-c2cnc3ccc(=NC[C@H]4CCCN4C)[n-]n23)c1 (chirality)
C[N-]C(=O)[N-]c1cccc(-c2cnc3cc/c(=N\C[C@H]4CCCN4C)[n-]n23)c1 (cis-trans isomerization)
C[N-]C(=O)[N-]c1cccc(-c2cnc3cc/c(=N\C[C@H]4CCCN4C)[n-]n23)c1 (3D coordinates assigned)
C[N-]C(=O)[N-]c1cccc(-c2cnc3cc/c(=N\C[C@H]4CCCN4C)[n-]n23)c1 (nonaromatic ring conformer: 99.82564829265046 kcal/mol)

>  <smiles>  (3) 
CNC(=O)Nc1cccc(-c2cnc3ccc(=NCC4CCCN4C)[nH]n23)c1

>  <score_type>  (3) 
oracle

>  <origin>  (3) 
adg

>  <m_score__min__energy>  (3) 
-13.75

>  <m_primary>  (3) 
energy

$$$$
3:0
     RDKit          3D

 36 38  0  0  0  0  0  0  0  0999 V2000
   58.7860   34.8680   44.8960 C   0  0  0  0  0  0  0  0  0  0  0  0
   58.4110   33.4180   44.8370 C   0  0  0  0  0  0  0  0  0  0  0  0
   58.1490   32.8050   43.6020 C   0  0  0  0  0  0  0  0  0  0  0  0
   57.7560   31.4640   43.5500 C   0  0  0  0  0  0  0  0  0  0  0  0
   57.6000   30.7290   44.7330 C   0  0  0  0  0  0  0  0  0  0  0  0
   57.0540   29.0550   44.6830 S   0  0  0  0  0  0  0  0  0  0  0  0
   57.3570   28.5070   43.3170 O   0  0  0  0  0  0  0  0  0  0  0  0
   55.5720   28.9660   44.9230 O   0  0  0  0  0  0  0  0  0  0  0  0
   57.8840   28.1110   45.8840 N   0  0  0  0  0  0  0  0  0  0  0  0
   58.9040   28.5800   46.5840 N   0  0  0  0  0  0  0  0  0  0  0  0
   59.2280   27.6800   47.5300 C   0  0  0  0  0  0  0  0  0  0  0  0
   60.3660   27.8310   48.4840 C   0  0  0  0  0  0  0  0  0  0  0  0
   58.3930   26.5850   47.4250 C   0  0  0  0  0  0  0  0  0  0  0  0
   57.5540   26.8880   46.3660 C   0  0  0  0  0  0  0  0  0  0  0  0
   56.4620   26.0140   45.9040 C   0  0  0  0  0  0  0  0  0  0  0  0
   56.5820   24.8240   45.2130 C   0  0  0  0  0  0  0  0  0  0  0  0
   55.2950   24.3720   45.0180 C   0  0  0  0  0  0  0  0  0  0  0  0
   54.4700   25.3040   45.6110 C   0  0  0  0  0  0  0  0  0  0  0  0
   55.1940   26.2660   46.1350 O   0  0  0  0  0  0  0  0  0  0  0  0
   57.8560   31.3400   45.9670 C   0  0  0  0  0  0  0  0  0  0  0  0
   58.2490   32.6800   46.0200 C   0  0  0  0  0  0  0  0  0  0  0  0
   58.8675   35.1832   45.9467 H   0  0  0  0  0  0  0  0  0  0  0  0
   59.7524   35.0176   44.3923 H   0  0  0  0  0  0  0  0  0  0  0  0
   58.0133   35.4674   44.3923 H   0  0  0  0  0  0  0  0  0  0  0  0
   58.2532   33.3818   42.6711 H   0  0  0  0  0  0  0  0  0  0  0  0
   57.5688   30.9847   42.5778 H   0  0  0  0  0  0  0  0  0  0  0  0
   59.3580   29.5090   46.4320 H   0  0  0  0  0  0  0  0  0  0  0  0
   59.9885   27.7809   49.5160 H   0  0  0  0  0  0  0  0  0  0  0  0
   61.0922   27.0213   48.3195 H   0  0  0  0  0  0  0  0  0  0  0  0
   60.8560   28.8020   48.3195 H   0  0  0  0  0  0  0  0  0  0  0  0
   58.3942   25.6757   48.0440 H   0  0  0  0  0  0  0  0  0  0  0  0
   57.5128   24.3376   44.8859 H   0  0  0  0  0  0  0  0  0  0  0  0
   54.9881   23.4540   44.4954 H   0  0  0  0  0  0  0  0  0  0  0  0
   53.3717   25.2499   45.6407 H   0  0  0  0  0  0  0  0  0  0  0  0
   57.7474   30.7633   46.8974 H   0  0  0  0  0  0  0  0  0  0  0  0
   58.4323   33.1587   46.9933 H   0  0  0  0  0  0  0  0  0  0  0  0
  1  2  1  0
  2  3  2  0
  3  4  1  0
  4  5  2  0
  5  6  1  0
  6  7  2  0
  6  8  2  0
  6  9  1  0
  9 10  1  0
 10 11  2  0
 11 12  1  0
 11 13  1  0
 13 14  2  0
 14 15  1  0
 15 16  2  0
 16 17  1  0
 17 18  2  0
 18 19  1  0
  5 20  1  0
 20 21  2  0
 21  2  1  0
 14  9  1  0
 19 15  1  0
  1 22  1  0
  1 23  1  0
  1 24  1  0
  3 25  1  0
  4 26  1  0
 10 27  1  0
 12 28  1  0
 12 29  1  0
 12 30  1  0
 13 31  1  0
 16 32  1  0
 17 33  1  0
 18 34  1  0
 20 35  1  0
 21 36  1  0
M  CHG  1  10   1
M  END
>  <UniqueID>  (4) 
4

>  <SMILES>  (4) 
Cc1ccc(S(=O)(=O)n2[nH+]c(C)cc2-c2ccco2)cc1

>  <Energy>  (4) 
96.73860679128603

>  <Genealogy>  (4) 
Cc1ccc(S(=O)(=O)n2[nH+]c(C)cc2-c2ccco2)cc1 (protonated)
Cc1ccc(S(=O)(=O)n2[nH+]c(C)cc2-c2ccco2)cc1 (3D coordinates assigned)
Cc1ccc(S(=O)(=O)n2[nH+]c(C)cc2-c2ccco2)cc1 (optimized conformer: 96.73860679128603 kcal/mol)

>  <smiles>  (4) 
Cc1ccc(S(=O)(=O)n2nc(C)cc2-c2ccco2)cc1

>  <score_type>  (4) 
oracle

>  <origin>  (4) 
adg

>  <m_score__min__energy>  (4) 
-6.5700000000000003

>  <m_primary>  (4) 
energy

$$$$
4:0
     RDKit          3D

 50 53  0  0  0  0  0  0  0  0999 V2000
   60.4190   26.6990   46.0970 C   0  0  0  0  0  0  0  0  0  0  0  0
   60.1790   27.8580   45.1170 C   0  0  0  0  0  0  0  0  0  0  0  0
   58.8990   28.5750   45.3210 N   0  0  0  0  0  0  0  0  0  0  0  0
   57.7610   28.0980   44.5070 C   0  0  0  0  0  0  0  0  0  0  0  0
   56.4280   28.2800   45.2470 C   0  0  0  0  0  0  0  0  0  0  0  0
   55.7770   29.5310   44.8580 N   0  0  0  0  0  0  0  0  0  0  0  0
   56.4020   30.6420   44.2000 C   0  0  0  0  0  0  0  0  0  0  0  0
   56.2830   30.7510   42.9530 O   0  0  0  0  0  0  0  0  0  0  0  0
   57.1950   31.6450   44.9240 C   0  0  0  0  0  0  0  0  0  0  0  0
   57.7670   32.7930   44.3780 C   0  0  0  0  0  0  0  0  0  0  0  0
   58.3870   33.3990   45.4470 C   0  0  0  0  0  0  0  0  0  0  0  0
   59.1130   34.5850   45.5470 C   0  0  0  0  0  0  0  0  0  0  0  0
   59.3090   35.3160   44.5410 O   0  0  0  0  0  0  0  0  0  0  0  0
   59.6070   34.9420   46.7690 N   0  0  0  0  0  0  0  0  0  0  0  0
   59.4070   34.1700   47.8850 C   0  0  0  0  0  0  0  0  0  0  0  0
   59.9250   34.5720   49.1210 C   0  0  0  0  0  0  0  0  0  0  0  0
   59.7140   33.7830   50.2580 C   0  0  0  0  0  0  0  0  0  0  0  0
   58.9850   32.5910   50.1670 C   0  0  0  0  0  0  0  0  0  0  0  0
   58.4610   32.1760   48.9380 C   0  0  0  0  0  0  0  0  0  0  0  0
   58.6700   32.9600   47.7960 C   0  0  0  0  0  0  0  0  0  0  0  0
   58.1740   32.6090   46.5410 C   0  0  0  0  0  0  0  0  0  0  0  0
   57.4660   31.5560   46.2130 O   0  0  0  0  0  0  0  0  0  0  0  0
   58.5860   28.9320   46.7260 C   0  0  0  0  0  0  0  0  0  0  0  0
   59.7300   29.5760   47.4710 C   0  0  0  0  0  0  0  0  0  0  0  0
   60.5710   30.4970   46.8230 C   0  0  0  0  0  0  0  0  0  0  0  0
   61.6290   31.0960   47.5130 C   0  0  0  0  0  0  0  0  0  0  0  0
   61.8490   30.7900   48.8580 C   0  0  0  0  0  0  0  0  0  0  0  0
   61.0060   29.8920   49.5180 C   0  0  0  0  0  0  0  0  0  0  0  0
   59.9470   29.2910   48.8310 C   0  0  0  0  0  0  0  0  0  0  0  0
   60.3422   27.0701   47.1297 H   0  0  0  0  0  0  0  0  0  0  0  0
   59.6638   25.9165   45.9314 H   0  0  0  0  0  0  0  0  0  0  0  0
   61.4228   26.2807   45.9314 H   0  0  0  0  0  0  0  0  0  0  0  0
   61.0004   28.5807   45.2308 H   0  0  0  0  0  0  0  0  0  0  0  0
   60.1346   27.4152   44.1110 H   0  0  0  0  0  0  0  0  0  0  0  0
   57.7293   28.6684   43.5670 H   0  0  0  0  0  0  0  0  0  0  0  0
   57.9030   27.0255   44.3080 H   0  0  0  0  0  0  0  0  0  0  0  0
   55.7635   27.4380   45.0029 H   0  0  0  0  0  0  0  0  0  0  0  0
   56.6296   28.3121   46.3279 H   0  0  0  0  0  0  0  0  0  0  0  0
   57.7311   33.1357   43.3333 H   0  0  0  0  0  0  0  0  0  0  0  0
   60.4979   35.5078   49.1993 H   0  0  0  0  0  0  0  0  0  0  0  0
   60.1232   34.1012   51.2282 H   0  0  0  0  0  0  0  0  0  0  0  0
   58.8236   31.9780   51.0660 H   0  0  0  0  0  0  0  0  0  0  0  0
   57.8882   31.2395   48.8688 H   0  0  0  0  0  0  0  0  0  0  0  0
   57.7383   29.6330   46.7230 H   0  0  0  0  0  0  0  0  0  0  0  0
   58.3592   27.9907   47.2480 H   0  0  0  0  0  0  0  0  0  0  0  0
   60.3956   30.7480   45.7665 H   0  0  0  0  0  0  0  0  0  0  0  0
   62.2887   31.8087   46.9964 H   0  0  0  0  0  0  0  0  0  0  0  0
   62.6863   31.2562   49.3980 H   0  0  0  0  0  0  0  0  0  0  0  0
   61.1758   29.6577   50.5793 H   0  0  0  0  0  0  0  0  0  0  0  0
   59.2802   28.5918   49.3568 H   0  0  0  0  0  0  0  0  0  0  0  0
  1  2  1  0
  2  3  1  0
  3  4  1  0
  4  5  1  0
  5  6  1  0
  6  7  1  0
  7  8  2  0
  7  9  1  0
  9 10  2  0
 10 11  1  0
 11 12  1  0
 12 13  2  0
 12 14  1  0
 14 15  1  0
 15 16  2  0
 16 17  1  0
 17 18  2  0
 18 19  1  0
 19 20  2  0
 20 21  1  0
 21 22  1  0
  3 23  1  0
 23 24  1  0
 24 25  2  0
 25 26  1  0
 26 27  2  0
 27 28  1  0
 28 29  2  0
 22  9  1  0
 29 24  1  0
 21 11  2  0
 20 15  1  0
  1 30  1  0
  1 31  1  0
  1 32  1  0
  2 33  1  0
  2 34  1  0
  4 35  1  0
  4 36  1  0
  5 37  1  0
  5 38  1  0
 10 39  1  0
 16 40  1  0
 17 41  1  0
 18 42  1  0
 19 43  1  0
 23 44  1  0
 23 45  1  0
 25 46  1  0
 26 47  1  0
 27 48  1  0
 28 49  1  0
 29 50  1  0
M  CHG  2   6  -1  14  -1
M  END
>  <UniqueID>  (5) 
5

>  <SMILES>  (5) 
CCN(CC[N-]C(=O)c1cc2c(=O)[n-]c3ccccc3c2o1)Cc1ccccc1

>  <Energy>  (5) 
98.83652657207539

>  <Genealogy>  (5) 
CCN(CC[N-]C(=O)c1cc2c(=O)[n-]c3ccccc3c2o1)Cc1ccccc1 (protonated)
CCN(CC[N-]C(=O)c1cc2c(=O)[n-]c3ccccc3c2o1)Cc1ccccc1 (3D coordinates assigned)
CCN(CC[N-]C(=O)c1cc2c(=O)[n-]c3ccccc3c2o1)Cc1ccccc1 (optimized conformer: 98.83652657207539 kcal/mol)

>  <smiles>  (5) 
CCN(CCNC(=O)c1cc2c(=O)[nH]c3ccccc3c2o1)Cc1ccccc1

>  <score_type>  (5) 
oracle

>  <origin>  (5) 
adg

>  <m_score__min__energy>  (5) 
-10.869999999999999

>  <m_primary>  (5) 
energy

$$$$
5:0
     RDKit          3D

 31 32  0  0  0  0  0  0  0  0999 V2000
   55.2610   29.3340   44.8640 N   0  0  0  0  0  0  0  0  0  0  0  0
   56.9720   29.5000   45.0420 S   0  0  0  0  0  0  0  0  0  0  0  0
   57.3860   28.8720   46.3430 O   0  0  0  0  0  0  0  0  0  0  0  0
   57.6690   28.7880   43.9170 O   0  0  0  0  0  0  0  0  0  0  0  0
   57.4080   31.2130   45.0170 C   0  0  0  0  0  0  0  0  0  0  0  0
   57.7330   31.8620   46.2190 C   0  0  0  0  0  0  0  0  0  0  0  0
   58.0610   33.2280   46.2280 C   0  0  0  0  0  0  0  0  0  0  0  0
   58.4170   33.9050   47.4420 N   0  0  0  0  0  0  0  0  0  0  0  0
   59.6340   33.7220   48.1760 C   0  0  0  0  0  0  0  0  0  0  0  0
   59.7240   34.2210   49.3280 O   0  0  0  0  0  0  0  0  0  0  0  0
   60.7190   32.9560   47.6230 N   0  0  0  0  0  0  0  0  0  0  0  0
   62.0020   32.8080   48.2510 C   0  0  0  0  0  0  0  0  0  0  0  0
   63.0820   33.5830   47.7980 C   0  0  0  0  0  0  0  0  0  0  0  0
   64.3460   33.4430   48.3770 C   0  0  0  0  0  0  0  0  0  0  0  0
   64.5490   32.5160   49.4030 C   0  0  0  0  0  0  0  0  0  0  0  0
   66.1370   32.3390   50.1260 Cl  0  0  0  0  0  0  0  0  0  0  0  0
   63.4860   31.7220   49.8440 C   0  0  0  0  0  0  0  0  0  0  0  0
   62.2190   31.8600   49.2680 C   0  0  0  0  0  0  0  0  0  0  0  0
   58.1130   33.9310   45.0210 C   0  0  0  0  0  0  0  0  0  0  0  0
   57.7950   33.2940   43.8210 C   0  0  0  0  0  0  0  0  0  0  0  0
   57.4360   31.9410   43.8090 C   0  0  0  0  0  0  0  0  0  0  0  0
   57.0410   31.1960   42.2640 Cl  0  0  0  0  0  0  0  0  0  0  0  0
   54.8280   30.1920   45.2740 H   0  0  0  0  0  0  0  0  0  0  0  0
   57.7308   31.2958   47.1621 H   0  0  0  0  0  0  0  0  0  0  0  0
   60.6070   32.5520   46.6670 H   0  0  0  0  0  0  0  0  0  0  0  0
   62.9319   34.3051   46.9819 H   0  0  0  0  0  0  0  0  0  0  0  0
   65.1830   34.0637   48.0245 H   0  0  0  0  0  0  0  0  0  0  0  0
   63.6466   30.9867   50.6462 H   0  0  0  0  0  0  0  0  0  0  0  0
   61.3890   31.2250   49.6113 H   0  0  0  0  0  0  0  0  0  0  0  0
   58.4060   34.9913   45.0171 H   0  0  0  0  0  0  0  0  0  0  0  0
   57.8266   33.8590   42.8777 H   0  0  0  0  0  0  0  0  0  0  0  0
  1  2  1  0
  2  3  2  0
  2  4  2  0
  2  5  1  0
  5  6  2  0
  6  7  1  0
  7  8  1  0
  8  9  1  0
  9 10  2  0
  9 11  1  0
 11 12  1  0
 12 13  2  0
 13 14  1  0
 14 15  2  0
 15 16  1  0
 15 17  1  0
 17 18  2  0
  7 19  2  0
 19 20  1  0
 20 21  2  0
 21 22  1  0
 21  5  1  0
 18 12  1  0
  1 23  1  0
  6 24  1  0
 11 25  1  0
 13 26  1  0
 14 27  1  0
 17 28  1  0
 18 29  1  0
 19 30  1  0
 20 31  1  0
M  CHG  2   1  -1   8  -1
M  END
>  <UniqueID>  (6) 
6

>  <SMILES>  (6) 
[NH-]S(=O)(=O)c1cc([N-]C(=O)Nc2ccc(Cl)cc2)ccc1Cl

>  <Energy>  (6) 
40.95313154729147

>  <Genealogy>  (6) 
[NH-]S(=O)(=O)c1cc([N-]C(=O)Nc2ccc(Cl)cc2)ccc1Cl (protonated)
[NH-]S(=O)(=O)c1cc([N-]C(=O)Nc2ccc(Cl)cc2)ccc1Cl (3D coordinates assigned)
[NH-]S(=O)(=O)c1cc([N-]C(=O)Nc2ccc(Cl)cc2)ccc1Cl (optimized conformer: 40.95313154729147 kcal/mol)

>  <smiles>  (6) 
NS(=O)(=O)c1cc(NC(=O)Nc2ccc(Cl)cc2)ccc1Cl

>  <score_type>  (6) 
oracle

>  <origin>  (6) 
adg

>  <m_score__min__energy>  (6) 
-11.32

>  <m_primary>  (6) 
energy

$$$$
6:0
     RDKit          3D

 60 64  0  0  0  0  0  0  0  0999 V2000
   64.9588   31.7958   49.5514 H   0  0  0  0  0  0  0  0  0  0  0  0
   64.0370   32.2420   49.1500 C   0  0  0  0  0  0  0  0  0  0  0  0
   63.3110   31.5750   48.2150 N   0  0  0  0  0  0  0  0  0  0  0  0
   62.1670   32.0900   47.6810 C   0  0  0  0  0  0  0  0  0  0  0  0
   61.4400   31.3730   46.7220 O   0  0  0  0  0  0  0  0  0  0  0  0
   60.6430   30.2480   46.9770 C   0  0  0  0  0  0  0  0  0  0  0  0
   60.6860   29.1820   46.0720 C   0  0  0  0  0  0  0  0  0  0  0  0
   61.3315   29.2460   45.1836 H   0  0  0  0  0  0  0  0  0  0  0  0
   59.9150   28.0360   46.2880 C   0  0  0  0  0  0  0  0  0  0  0  0
   59.9359   27.2158   45.5553 H   0  0  0  0  0  0  0  0  0  0  0  0
   59.1120   27.9270   47.4390 C   0  0  0  0  0  0  0  0  0  0  0  0
   58.2740   26.7840   47.6800 N   0  0  0  0  0  0  0  0  0  0  0  0
   57.6290   26.0830   46.7930 C   0  0  0  0  0  0  0  0  0  0  0  0
   56.2660   26.0880   46.7390 N   0  0  0  0  0  0  0  0  0  0  0  0
   55.5790   25.3780   45.8040 C   0  0  0  0  0  0  0  0  0  0  0  0
   54.4793   25.4008   45.7945 H   0  0  0  0  0  0  0  0  0  0  0  0
   56.2700   24.6200   44.8560 C   0  0  0  0  0  0  0  0  0  0  0  0
   55.7210   24.0410   44.0988 H   0  0  0  0  0  0  0  0  0  0  0  0
   57.6650   24.6060   44.8810 C   0  0  0  0  0  0  0  0  0  0  0  0
   58.2235   24.0156   44.1397 H   0  0  0  0  0  0  0  0  0  0  0  0
   58.3510   25.3430   45.8490 C   0  0  0  0  0  0  0  0  0  0  0  0
   59.4508   25.3420   45.8695 H   0  0  0  0  0  0  0  0  0  0  0  0
   59.0660   28.9970   48.3410 C   0  0  0  0  0  0  0  0  0  0  0  0
   58.4179   28.9355   49.2277 H   0  0  0  0  0  0  0  0  0  0  0  0
   59.8370   30.1430   48.1240 C   0  0  0  0  0  0  0  0  0  0  0  0
   59.8128   30.9658   48.8537 H   0  0  0  0  0  0  0  0  0  0  0  0
   61.6980   33.3440   48.1200 C   0  0  0  0  0  0  0  0  0  0  0  0
   60.4720   33.9020   47.6070 N   0  0  0  0  0  0  0  0  0  0  0  0
   60.4730   34.6860   46.3670 C   0  0  0  0  0  0  0  0  0  0  0  0
   61.2751   34.3208   45.7088 H   0  0  0  0  0  0  0  0  0  0  0  0
   60.6383   35.7445   46.6164 H   0  0  0  0  0  0  0  0  0  0  0  0
   59.1240   34.5520   45.6420 C   0  0  0  0  0  0  0  0  0  0  0  0
   59.2663   34.7546   44.5702 H   0  0  0  0  0  0  0  0  0  0  0  0
   58.4138   35.2743   46.0708 H   0  0  0  0  0  0  0  0  0  0  0  0
   58.5830   33.1850   45.8130 N   0  0  0  0  0  0  0  0  0  0  0  0
   59.3280   32.5060   45.5200 H   0  0  0  0  0  0  0  0  0  0  0  0
   57.4130   32.9900   44.9250 C   0  0  0  0  0  0  0  0  0  0  0  0
   57.5223   33.6397   44.0441 H   0  0  0  0  0  0  0  0  0  0  0  0
   56.5061   33.2440   45.4933 H   0  0  0  0  0  0  0  0  0  0  0  0
   57.2920   31.5550   44.4630 C   0  0  0  0  0  0  0  0  0  0  0  0
   57.4560   30.5030   45.3810 C   0  0  0  0  0  0  0  0  0  0  0  0
   57.6937   30.7247   46.4319 H   0  0  0  0  0  0  0  0  0  0  0  0
   57.3180   29.1760   44.9630 C   0  0  0  0  0  0  0  0  0  0  0  0
   57.4505   28.3562   45.6844 H   0  0  0  0  0  0  0  0  0  0  0  0
   57.0120   28.8900   43.6300 C   0  0  0  0  0  0  0  0  0  0  0  0
   56.9048   27.8453   43.3028 H   0  0  0  0  0  0  0  0  0  0  0  0
   56.8420   29.9300   42.7120 C   0  0  0  0  0  0  0  0  0  0  0  0
   56.6003   29.7032   41.6631 H   0  0  0  0  0  0  0  0  0  0  0  0
   56.9790   31.2590   43.1260 C   0  0  0  0  0  0  0  0  0  0  0  0
   56.8411   32.0755   42.4019 H   0  0  0  0  0  0  0  0  0  0  0  0
   58.2320   32.9170   47.2370 C   0  0  0  0  0  0  0  0  0  0  0  0
   58.2637   31.8305   47.4055 H   0  0  0  0  0  0  0  0  0  0  0  0
   57.2291   33.3349   47.4088 H   0  0  0  0  0  0  0  0  0  0  0  0
   59.1870   33.5960   48.2410 C   0  0  0  0  0  0  0  0  0  0  0  0
   59.3561   32.9202   49.0923 H   0  0  0  0  0  0  0  0  0  0  0  0
   58.7294   34.5354   48.5848 H   0  0  0  0  0  0  0  0  0  0  0  0
   62.4410   34.0410   49.0850 C   0  0  0  0  0  0  0  0  0  0  0  0
   62.0964   35.0249   49.4359 H   0  0  0  0  0  0  0  0  0  0  0  0
   63.6140   33.4920   49.6010 C   0  0  0  0  0  0  0  0  0  0  0  0
   64.1992   34.0385   50.3552 H   0  0  0  0  0  0  0  0  0  0  0  0
  1  2  1  0
  2  3  2  0
  3  4  1  0
  4  5  1  0
  5  6  1  0
  6  7  2  0
  7  8  1  0
  7  9  1  0
  9 10  1  0
  9 11  2  0
 11 12  1  0
 12 13  2  0
 13 14  1  0
 14 15  1  0
 15 16  1  0
 15 17  2  0
 17 18  1  0
 17 19  1  0
 19 20  1  0
 19 21  2  0
 21 22  1  0
 11 23  1  0
 23 24  1  0
 23 25  2  0
 25 26  1  0
  4 27  2  0
 27 28  1  0
 28 29  1  0
 29 30  1  0
 29 31  1  0
 29 32  1  0
 32 33  1  0
 32 34  1  0
 32 35  1  0
 35 36  1  0
 35 37  1  0
 37 38  1  0
 37 39  1  0
 37 40  1  0
 40 41  2  0
 41 42  1  0
 41 43  1  0
 43 44  1  0
 43 45  2  0
 45 46  1  0
 45 47  1  0
 47 48  1  0
 47 49  2  0
 49 50  1  0
 35 51  1  0
 51 52  1  0
 51 53  1  0
 51 54  1  0
 54 55  1  0
 54 56  1  0
 27 57  1  0
 57 58  1  0
 57 59  2  0
 59 60  1  0
 59  2  1  0
 25  6  1  0
 54 28  1  0
 21 13  1  0
 49 40  1  0
M  CHG  2  14  -1  35   1
M  END
>  <UniqueID>  (7) 
7

>  <SMILES>  (7) 
c1ccc(C[NH+]2CCN(c3cccnc3Oc3ccc(/N=c4/cccc[n-]4)cc3)CC2)cc1

>  <Energy>  (7) 
89.9845027900436

>  <Genealogy>  (7) 
c1ccc(C[NH+]2CCN(c3cccnc3Oc3ccc(N=c4cccc[n-]4)cc3)CC2)cc1 (protonated)
c1ccc(C[NH+]2CCN(c3cccnc3Oc3ccc(/N=c4/cccc[n-]4)cc3)CC2)cc1 (cis-trans isomerization)
c1ccc(C[NH+]2CCN(c3cccnc3Oc3ccc(/N=c4/cccc[n-]4)cc3)CC2)cc1 (3D coordinates assigned)
c1ccc(C[NH+]2CCN(c3cccnc3Oc3ccc(/N=c4/cccc[n-]4)cc3)CC2)cc1 (nonaromatic ring conformer: 89.9845027900436 kcal/mol)

>  <smiles>  (7) 
c1ccc(CN2CCN(c3cccnc3Oc3ccc(N=c4cccc[nH]4)cc3)CC2)cc1

>  <score_type>  (7) 
oracle

>  <origin>  (7) 
adg

>  <m_score__min__energy>  (7) 
-8.7799999999999994

>  <m_primary>  (7) 
energy

$$$$
7:0
     RDKit          3D

 61 64  0  0  0  0  0  0  0  0999 V2000
   57.9780   22.0660   45.5290 C   0  0  0  0  0  0  0  0  0  0  0  0
   57.4750   23.4810   45.5760 C   0  0  0  0  0  0  0  0  0  0  0  0
   56.1050   23.7600   45.6250 C   0  0  0  0  0  0  0  0  0  0  0  0
   55.6500   25.0800   45.6560 C   0  0  0  0  0  0  0  0  0  0  0  0
   56.5550   26.1410   45.6190 C   0  0  0  0  0  0  0  0  0  0  0  0
   56.1250   27.5060   45.6480 N   0  0  0  0  0  0  0  0  0  0  0  0
   56.8890   28.7970   44.7740 S   0  0  0  0  0  0  0  0  0  0  0  0
   57.3690   28.2670   43.4560 O   0  0  0  0  0  0  0  0  0  0  0  0
   55.8680   29.8630   44.5120 O   0  0  0  0  0  0  0  0  0  0  0  0
   58.2230   29.5130   45.6810 C   0  0  0  0  0  0  0  0  0  0  0  0
   59.0610   28.7130   46.4680 C   0  0  0  0  0  0  0  0  0  0  0  0
   60.1180   29.2840   47.1780 C   0  0  0  0  0  0  0  0  0  0  0  0
   60.3610   30.6600   47.1000 C   0  0  0  0  0  0  0  0  0  0  0  0
   61.4840   31.2230   47.7970 N   0  0  0  0  0  0  0  0  0  0  0  0
   62.3220   32.2040   47.1120 C   0  0  0  0  0  0  0  0  0  0  0  0
   63.7520   32.1830   47.6800 C   0  0  0  0  0  0  0  0  0  0  0  0
   63.7850   32.2090   49.1580 N   0  0  0  0  0  0  0  0  0  0  0  0
   63.4750   33.5410   49.7030 C   0  0  0  0  0  0  0  0  0  0  0  0
   62.9570   31.1380   49.7530 C   0  0  0  0  0  0  0  0  0  0  0  0
   61.5070   31.1850   49.2620 C   0  0  0  0  0  0  0  0  0  0  0  0
   59.5450   31.4720   46.2820 C   0  0  0  0  0  0  0  0  0  0  0  0
   59.8640   32.8670   46.1010 N   0  0  0  0  0  0  0  0  0  0  0  0
   59.2060   34.1020   47.1280 S   0  0  0  0  0  0  0  0  0  0  0  0
   57.7750   34.3520   46.7390 O   0  0  0  0  0  0  0  0  0  0  0  0
   60.0000   35.3670   46.9450 O   0  0  0  0  0  0  0  0  0  0  0  0
   59.2490   33.5790   48.8110 C   0  0  0  0  0  0  0  0  0  0  0  0
   58.4500   32.5030   49.2400 C   0  0  0  0  0  0  0  0  0  0  0  0
   58.5010   32.0790   50.5710 C   0  0  0  0  0  0  0  0  0  0  0  0
   59.3420   32.7230   51.4790 C   0  0  0  0  0  0  0  0  0  0  0  0
   59.3880   32.3130   52.7710 F   0  0  0  0  0  0  0  0  0  0  0  0
   60.1360   33.8030   51.0580 C   0  0  0  0  0  0  0  0  0  0  0  0
   60.1010   34.2170   49.7230 C   0  0  0  0  0  0  0  0  0  0  0  0
   58.4630   30.8900   45.5970 C   0  0  0  0  0  0  0  0  0  0  0  0
   57.9300   25.8640   45.5120 C   0  0  0  0  0  0  0  0  0  0  0  0
   58.3890   24.5420   45.4940 C   0  0  0  0  0  0  0  0  0  0  0  0
   58.1116   21.6901   46.5541 H   0  0  0  0  0  0  0  0  0  0  0  0
   57.2491   21.4351   44.9992 H   0  0  0  0  0  0  0  0  0  0  0  0
   58.9416   22.0368   44.9992 H   0  0  0  0  0  0  0  0  0  0  0  0
   55.3801   22.9328   45.6392 H   0  0  0  0  0  0  0  0  0  0  0  0
   54.5705   25.2845   45.7100 H   0  0  0  0  0  0  0  0  0  0  0  0
   58.8850   27.6288   46.5268 H   0  0  0  0  0  0  0  0  0  0  0  0
   60.7637   28.6491   47.8024 H   0  0  0  0  0  0  0  0  0  0  0  0
   62.3554   31.9649   46.0388 H   0  0  0  0  0  0  0  0  0  0  0  0
   61.8937   33.2056   47.2647 H   0  0  0  0  0  0  0  0  0  0  0  0
   64.2536   31.2673   47.3339 H   0  0  0  0  0  0  0  0  0  0  0  0
   64.2622   33.0896   47.3226 H   0  0  0  0  0  0  0  0  0  0  0  0
   63.4848   33.4988   50.8021 H   0  0  0  0  0  0  0  0  0  0  0  0
   64.2290   34.2633   49.3570 H   0  0  0  0  0  0  0  0  0  0  0  0
   62.4795   33.8561   49.3570 H   0  0  0  0  0  0  0  0  0  0  0  0
   63.3908   30.1639   49.4828 H   0  0  0  0  0  0  0  0  0  0  0  0
   62.9485   31.2850   50.8431 H   0  0  0  0  0  0  0  0  0  0  0  0
   60.9725   30.2900   49.6133 H   0  0  0  0  0  0  0  0  0  0  0  0
   61.0166   32.0865   49.6581 H   0  0  0  0  0  0  0  0  0  0  0  0
   60.3070   33.1870   45.2070 H   0  0  0  0  0  0  0  0  0  0  0  0
   57.7843   31.9948   48.5269 H   0  0  0  0  0  0  0  0  0  0  0  0
   57.8770   31.2362   50.9031 H   0  0  0  0  0  0  0  0  0  0  0  0
   60.7849   34.3226   51.7784 H   0  0  0  0  0  0  0  0  0  0  0  0
   60.7432   35.0448   49.3878 H   0  0  0  0  0  0  0  0  0  0  0  0
   57.7991   31.5226   44.9895 H   0  0  0  0  0  0  0  0  0  0  0  0
   58.6499   26.6927   45.4419 H   0  0  0  0  0  0  0  0  0  0  0  0
   59.4665   24.3349   45.4155 H   0  0  0  0  0  0  0  0  0  0  0  0
  1  2  1  0
  2  3  2  0
  3  4  1  0
  4  5  2  0
  5  6  1  0
  6  7  1  0
  7  8  2  0
  7  9  2  0
  7 10  1  0
 10 11  2  0
 11 12  1  0
 12 13  2  0
 13 14  1  0
 14 15  1  0
 15 16  1  0
 16 17  1  0
 17 18  1  0
 17 19  1  0
 19 20  1  0
 13 21  1  0
 21 22  1  0
 22 23  1  0
 23 24  2  0
 23 25  2  0
 23 26  1  0
 26 27  2  0
 27 28  1  0
 28 29  2  0
 29 30  1  0
 29 31  1  0
 31 32  2  0
 21 33  2  0
  5 34  1  0
 34 35  2  0
 35  2  1  0
 33 10  1  0
 20 14  1  0
 32 26  1  0
  1 36  1  0
  1 37  1  0
  1 38  1  0
  3 39  1  0
  4 40  1  0
 11 41  1  0
 12 42  1  0
 15 43  1  0
 15 44  1  0
 16 45  1  0
 16 46  1  0
 18 47  1  0
 18 48  1  0
 18 49  1  0
 19 50  1  0
 19 51  1  0
 20 52  1  0
 20 53  1  0
 22 54  1  0
 27 55  1  0
 28 56  1  0
 31 57  1  0
 32 58  1  0
 33 59  1  0
 34 60  1  0
 35 61  1  0
M  CHG  1   6  -1
M  END
>  <UniqueID>  (8) 
8

>  <SMILES>  (8) 
Cc1ccc([N-]S(=O)(=O)c2ccc(N3CCN(C)CC3)c(NS(=O)(=O)c3ccc(F)cc3)c2)cc1

>  <Energy>  (8) 
79.61560678501519

>  <Genealogy>  (8) 
Cc1ccc([N-]S(=O)(=O)c2ccc(N3CCN(C)CC3)c(NS(=O)(=O)c3ccc(F)cc3)c2)cc1 (protonated)
Cc1ccc([N-]S(=O)(=O)c2ccc(N3CCN(C)CC3)c(NS(=O)(=O)c3ccc(F)cc3)c2)cc1 (3D coordinates assigned)
Cc1ccc([N-]S(=O)(=O)c2ccc(N3CCN(C)CC3)c(NS(=O)(=O)c3ccc(F)cc3)c2)cc1 (nonaromatic ring conformer: 79.61560678501519 kcal/mol)

>  <smiles>  (8) 
Cc1ccc(NS(=O)(=O)c2ccc(N3CCN(C)CC3)c(NS(=O)(=O)c3ccc(F)cc3)c2)cc1

>  <score_type>  (8) 
oracle

>  <origin>  (8) 
adg

>  <m_score__min__energy>  (8) 
-10.81

>  <m_primary>  (8) 
energy

$$$$
8:0
     RDKit          3D

 49 50  0  0  0  0  0  0  0  0999 V2000
   55.8030   23.5070   44.1030 C   0  0  0  0  0  0  0  0  0  0  0  0
   55.5760   23.9770   45.5370 C   0  0  0  0  0  0  0  0  0  0  0  0
   54.5240   25.0850   45.5970 C   0  0  0  0  0  0  0  0  0  0  0  0
   55.1470   26.3440   45.9960 N   0  0  0  0  0  0  0  0  0  0  0  0
   56.5550   26.6150   46.0090 C   0  0  0  0  0  0  0  0  0  0  0  0
   57.0840   27.0120   47.0810 O   0  0  0  0  0  0  0  0  0  0  0  0
   57.4060   26.4930   44.7750 C   0  0  0  0  0  0  0  0  0  0  0  0
   58.4640   27.4510   44.7790 O   0  0  0  0  0  0  0  0  0  0  0  0
   58.3150   28.8390   44.9490 C   0  0  0  0  0  0  0  0  0  0  0  0
   57.4660   29.6050   44.1270 C   0  0  0  0  0  0  0  0  0  0  0  0
   57.3440   30.9820   44.3190 C   0  0  0  0  0  0  0  0  0  0  0  0
   58.0650   31.6170   45.3370 C   0  0  0  0  0  0  0  0  0  0  0  0
   57.9890   33.3660   45.5400 S   0  0  0  0  0  0  0  0  0  0  0  0
   56.6760   33.8540   44.9970 O   0  0  0  0  0  0  0  0  0  0  0  0
   59.1020   34.0300   44.7760 O   0  0  0  0  0  0  0  0  0  0  0  0
   58.1020   33.7840   47.2270 N   0  0  0  0  0  0  0  0  0  0  0  0
   59.2350   34.6810   47.4840 C   0  0  0  0  0  0  0  0  0  0  0  0
   60.5250   33.9090   47.5670 C   0  0  0  0  0  0  0  0  0  0  0  0
   60.7270   32.9600   48.5840 C   0  0  0  0  0  0  0  0  0  0  0  0
   61.9460   32.2800   48.6820 C   0  0  0  0  0  0  0  0  0  0  0  0
   62.9650   32.5340   47.7600 C   0  0  0  0  0  0  0  0  0  0  0  0
   62.7650   33.4610   46.7350 C   0  0  0  0  0  0  0  0  0  0  0  0
   61.5500   34.1450   46.6340 C   0  0  0  0  0  0  0  0  0  0  0  0
   58.8950   30.8620   46.1710 C   0  0  0  0  0  0  0  0  0  0  0  0
   59.0470   29.4830   45.9690 C   0  0  0  0  0  0  0  0  0  0  0  0
   59.9610   28.7050   46.8750 C   0  0  0  0  0  0  0  0  0  0  0  0
   56.2814   22.5165   44.1132 H   0  0  0  0  0  0  0  0  0  0  0  0
   54.8369   23.4422   43.5811 H   0  0  0  0  0  0  0  0  0  0  0  0
   56.4544   24.2235   43.5811 H   0  0  0  0  0  0  0  0  0  0  0  0
   55.2347   23.1253   46.1437 H   0  0  0  0  0  0  0  0  0  0  0  0
   56.5242   24.3762   45.9264 H   0  0  0  0  0  0  0  0  0  0  0  0
   54.0638   25.2045   44.6050 H   0  0  0  0  0  0  0  0  0  0  0  0
   53.7547   24.8130   46.3347 H   0  0  0  0  0  0  0  0  0  0  0  0
   57.8379   25.4821   44.7359 H   0  0  0  0  0  0  0  0  0  0  0  0
   56.7719   26.6791   43.8956 H   0  0  0  0  0  0  0  0  0  0  0  0
   56.8938   29.1136   43.3263 H   0  0  0  0  0  0  0  0  0  0  0  0
   56.6795   31.5698   43.6687 H   0  0  0  0  0  0  0  0  0  0  0  0
   57.2260   34.3060   47.4620 H   0  0  0  0  0  0  0  0  0  0  0  0
   59.3062   35.4141   46.6670 H   0  0  0  0  0  0  0  0  0  0  0  0
   59.0684   35.1903   48.4446 H   0  0  0  0  0  0  0  0  0  0  0  0
   59.9236   32.7511   49.3057 H   0  0  0  0  0  0  0  0  0  0  0  0
   62.1023   31.5450   49.4853 H   0  0  0  0  0  0  0  0  0  0  0  0
   63.9251   32.0034   47.8417 H   0  0  0  0  0  0  0  0  0  0  0  0
   63.5654   33.6535   46.0053 H   0  0  0  0  0  0  0  0  0  0  0  0
   61.3953   34.8704   45.8217 H   0  0  0  0  0  0  0  0  0  0  0  0
   59.4340   31.3547   46.9936 H   0  0  0  0  0  0  0  0  0  0  0  0
   59.7081   28.9203   47.9237 H   0  0  0  0  0  0  0  0  0  0  0  0
   59.8396   27.6289   46.6820 H   0  0  0  0  0  0  0  0  0  0  0  0
   61.0039   28.9967   46.6820 H   0  0  0  0  0  0  0  0  0  0  0  0
  1  2  1  0
  2  3  1  0
  3  4  1  0
  4  5  1  0
  5  6  2  0
  5  7  1  0
  7  8  1  0
  8  9  1  0
  9 10  2  0
 10 11  1  0
 11 12  2  0
 12 13  1  0
 13 14  2  0
 13 15  2  0
 13 16  1  0
 16 17  1  0
 17 18  1  0
 18 19  2  0
 19 20  1  0
 20 21  2  0
 21 22  1  0
 22 23  2  0
 12 24  1  0
 24 25  2  0
 25 26  1  0
 25  9  1  0
 23 18  1  0
  1 27  1  0
  1 28  1  0
  1 29  1  0
  2 30  1  0
  2 31  1  0
  3 32  1  0
  3 33  1  0
  7 34  1  0
  7 35  1  0
 10 36  1  0
 11 37  1  0
 16 38  1  0
 17 39  1  0
 17 40  1  0
 19 41  1  0
 20 42  1  0
 21 43  1  0
 22 44  1  0
 23 45  1  0
 24 46  1  0
 26 47  1  0
 26 48  1  0
 26 49  1  0
M  CHG  1   4  -1
M  END
>  <UniqueID>  (9) 
9

>  <SMILES>  (9) 
CCC[N-]C(=O)COc1ccc(S(=O)(=O)NCc2ccccc2)cc1C

>  <Energy>  (9) 
35.54720537498091

>  <Genealogy>  (9) 
CCC[N-]C(=O)COc1ccc(S(=O)(=O)NCc2ccccc2)cc1C (protonated)
CCC[N-]C(=O)COc1ccc(S(=O)(=O)NCc2ccccc2)cc1C (3D coordinates assigned)
CCC[N-]C(=O)COc1ccc(S(=O)(=O)NCc2ccccc2)cc1C (optimized conformer: 35.54720537498091 kcal/mol)

>  <smiles>  (9) 
CCCNC(=O)COc1ccc(S(=O)(=O)NCc2ccccc2)cc1C

>  <score_type>  (9) 
oracle

>  <origin>  (9) 
adg

>  <m_score__min__energy>  (9) 
-9.9100000000000001

>  <m_primary>  (9) 
energy

$$$$
9:0
     RDKit          3D

 50 53  0  0  1  0  0  0  0  0999 V2000
   56.3800   22.6910   42.6230 C   0  0  0  0  0  0  0  0  0  0  0  0
   56.4550   23.7540   43.6630 C   0  0  0  0  0  0  0  0  0  0  0  0
   57.3740   24.7770   43.5150 C   0  0  0  0  0  0  0  0  0  0  0  0
   57.4720   25.7720   44.4530 C   0  0  0  0  0  0  0  0  0  0  0  0
   56.6330   25.7390   45.5530 C   0  0  0  0  0  0  0  0  0  0  0  0
   56.7010   26.7520   46.5510 N   0  0  0  0  0  0  0  0  0  0  0  0
   57.4210   27.8180   46.4600 C   0  0  0  0  0  0  0  0  0  0  0  0
   58.6000   27.8960   47.1430 C   0  0  0  0  0  0  0  0  0  0  0  0
   59.3450   29.0420   47.0280 C   0  0  0  0  0  0  0  0  0  0  0  0
   60.6400   29.1500   47.7670 C   0  0  0  0  0  0  0  0  0  0  0  0
   58.8870   30.0390   46.2490 N   0  0  0  0  0  0  0  0  0  0  0  0
   57.7390   29.9790   45.5760 C   0  0  0  0  0  0  0  0  0  0  0  0
   57.0530   30.8510   44.7210 C   0  0  0  0  0  0  0  0  0  0  0  0
   57.6400   32.4330   44.3290 S   0  0  0  0  0  0  0  0  0  0  0  0
   57.6930   32.6440   42.8250 O   0  0  0  0  0  0  0  0  0  0  0  0
   56.6470   33.4560   44.8430 O   0  0  0  0  0  0  0  0  0  0  0  0
   59.2050   32.7290   44.9210 N   0  0  0  0  0  0  0  0  0  0  0  0
   59.2500   34.0010   45.5840 C   0  0  0  0  0  0  0  0  0  0  0  0
   59.3560   33.7470   47.0590 C   0  0  0  0  0  0  0  0  0  0  0  0
   60.2660   34.3950   47.8560 C   0  0  0  0  0  0  0  0  0  0  0  0
   60.3640   34.1590   49.2210 C   0  0  0  0  0  0  0  0  0  0  0  0
   59.4910   33.2310   49.7430 C   0  0  0  0  0  0  0  0  0  0  0  0
   58.5660   32.5630   48.9700 C   0  0  0  0  0  0  0  0  0  0  0  0
   58.4820   32.8110   47.6120 C   0  0  0  0  0  0  0  0  0  0  0  0
   55.9220   30.1700   44.3670 C   0  0  0  0  0  0  0  0  0  0  0  0
   55.9000   28.9440   44.9660 N   0  0  0  0  0  0  0  0  0  0  0  0
   57.0070   28.8490   45.6920 N   0  0  0  0  0  0  0  0  0  0  0  0
   55.7030   24.7040   45.7030 C   0  0  0  0  0  0  0  0  0  0  0  0
   55.6020   23.7000   44.7610 C   0  0  0  0  0  0  0  0  0  0  0  0
   56.3106   21.7067   43.1091 H   0  0  0  0  0  0  0  0  0  0  0  0
   55.4911   22.8537   41.9958 H   0  0  0  0  0  0  0  0  0  0  0  0
   57.2829   22.7273   41.9958 H   0  0  0  0  0  0  0  0  0  0  0  0
   58.0336   24.7924   42.6348 H   0  0  0  0  0  0  0  0  0  0  0  0
   58.2053   26.5831   44.3332 H   0  0  0  0  0  0  0  0  0  0  0  0
   58.9443   27.0605   47.7702 H   0  0  0  0  0  0  0  0  0  0  0  0
   60.4467   29.1339   48.8498 H   0  0  0  0  0  0  0  0  0  0  0  0
   61.2877   28.3028   47.4975 H   0  0  0  0  0  0  0  0  0  0  0  0
   61.1384   30.0928   47.4975 H   0  0  0  0  0  0  0  0  0  0  0  0
   59.6340   31.9410   45.4150 H   0  0  0  0  0  0  0  0  0  0  0  0
   60.1247   34.5719   45.2390 H   0  0  0  0  0  0  0  0  0  0  0  0
   58.3444   34.5834   45.3589 H   0  0  0  0  0  0  0  0  0  0  0  0
   60.9436   35.1294   47.3961 H   0  0  0  0  0  0  0  0  0  0  0  0
   61.0980   34.6841   49.8500 H   0  0  0  0  0  0  0  0  0  0  0  0
   59.5336   33.0140   50.8205 H   0  0  0  0  0  0  0  0  0  0  0  0
   57.8914   31.8292   49.4353 H   0  0  0  0  0  0  0  0  0  0  0  0
   57.7466   32.2849   46.9856 H   0  0  0  0  0  0  0  0  0  0  0  0
   55.1409   30.5552   43.6951 H   0  0  0  0  0  0  0  0  0  0  0  0
   55.1400   28.2180   44.8640 H   0  0  0  0  0  0  0  0  0  0  0  0
   55.0436   24.6904   46.5834 H   0  0  0  0  0  0  0  0  0  0  0  0
   54.8720   22.8850   44.8745 H   0  0  0  0  0  0  0  0  0  0  0  0
  1  2  1  0
  2  3  2  0
  3  4  1  0
  4  5  2  0
  5  6  1  0
  6  7  2  0
  7  8  1  0
  8  9  2  0
  9 10  1  0
  9 11  1  0
 11 12  2  0
 12 13  1  0
 13 14  1  0
 14 15  2  0
 14 16  2  0
 14 17  1  0
 17 18  1  0
 18 19  1  0
 19 20  2  0
 20 21  1  0
 21 22  2  0
 22 23  1  0
 23 24  2  0
 13 25  2  0
 25 26  1  0
 26 27  1  0
  5 28  1  0
 28 29  2  0
 29  2  1  0
 27  7  1  0
 27 12  1  0
 24 19  1  0
  1 30  1  0
  1 31  1  0
  1 32  1  0
  3 33  1  0
  4 34  1  0
  8 35  1  0
 10 36  1  0
 10 37  1  0
 10 38  1  0
 17 39  1  0
 18 40  1  0
 18 41  1  0
 20 42  1  0
 21 43  1  0
 22 44  1  0
 23 45  1  0
 24 46  1  0
 25 47  1  0
 26 48  1  0
 28 49  1  0
 29 50  1  0
M  END
>  <smiles>  (10) 
Cc1ccc(N=c2cc(C)nc3c(S(=O)(=O)NCc4ccccc4)c[nH]n23)cc1

>  <score_type>  (10) 
oracle

>  <origin>  (10) 
adg

>  <m_score__min__energy>  (10) 
-9.4700000000000006

>  <m_primary>  (10) 
energy

$$$$
10:0
     RDKit          3D

 48 51  0  0  0  0  0  0  0  0999 V2000
   59.1240   32.5310   40.7900 H   0  0  0  0  0  0  0  0  0  0  0  0
   58.1680   32.8280   40.9470 O   0  0  0  0  0  0  0  0  0  0  0  0
   57.3600   32.2560   41.9100 N   0  0  0  0  0  0  0  0  0  0  0  0
   56.4350   31.8850   41.5970 H   0  0  0  0  0  0  0  0  0  0  0  0
   57.7090   32.1710   43.1650 C   0  0  0  0  0  0  0  0  0  0  0  0
   57.5420   30.8950   43.9000 C   0  0  0  0  0  0  0  0  0  0  0  0
   56.2830   30.2880   44.0200 C   0  0  0  0  0  0  0  0  0  0  0  0
   55.4094   30.7330   43.5212 H   0  0  0  0  0  0  0  0  0  0  0  0
   56.1400   29.1500   44.7520 N   0  0  0  0  0  0  0  0  0  0  0  0
   57.1910   28.5530   45.3750 C   0  0  0  0  0  0  0  0  0  0  0  0
   56.9530   27.4000   46.1390 O   0  0  0  0  0  0  0  0  0  0  0  0
   57.3810   26.1060   45.8110 C   0  0  0  0  0  0  0  0  0  0  0  0
   58.5640   25.5600   46.3410 C   0  0  0  0  0  0  0  0  0  0  0  0
   59.1750   26.1522   47.0381 H   0  0  0  0  0  0  0  0  0  0  0  0
   58.9680   24.2690   45.9870 C   0  0  0  0  0  0  0  0  0  0  0  0
   59.8885   23.8455   46.4151 H   0  0  0  0  0  0  0  0  0  0  0  0
   58.2030   23.5130   45.0880 C   0  0  0  0  0  0  0  0  0  0  0  0
   58.5980   22.2160   44.7270 C   0  0  0  0  0  0  0  0  0  0  0  0
   59.5137   21.7822   45.1551 H   0  0  0  0  0  0  0  0  0  0  0  0
   57.8310   21.4740   43.8250 C   0  0  0  0  0  0  0  0  0  0  0  0
   58.1443   20.4572   43.5457 H   0  0  0  0  0  0  0  0  0  0  0  0
   56.6660   22.0200   43.2760 C   0  0  0  0  0  0  0  0  0  0  0  0
   56.0664   21.4320   42.5656 H   0  0  0  0  0  0  0  0  0  0  0  0
   56.2620   23.3110   43.6280 C   0  0  0  0  0  0  0  0  0  0  0  0
   55.3450   23.7365   43.1942 H   0  0  0  0  0  0  0  0  0  0  0  0
   57.0240   24.0660   44.5340 C   0  0  0  0  0  0  0  0  0  0  0  0
   56.6270   25.3630   44.8950 C   0  0  0  0  0  0  0  0  0  0  0  0
   55.7176   25.7984   44.4553 H   0  0  0  0  0  0  0  0  0  0  0  0
   58.4670   29.1330   45.2830 C   0  0  0  0  0  0  0  0  0  0  0  0
   59.3237   28.6723   45.7966 H   0  0  0  0  0  0  0  0  0  0  0  0
   58.6390   30.2980   44.5350 C   0  0  0  0  0  0  0  0  0  0  0  0
   59.6382   30.7489   44.4436 H   0  0  0  0  0  0  0  0  0  0  0  0
   58.3040   33.2930   43.8340 N   0  0  0  0  0  0  0  0  0  0  0  0
   59.1350   33.7520   43.3990 H   0  0  0  0  0  0  0  0  0  0  0  0
   57.6070   33.9990   44.9080 C   0  0  0  0  0  0  0  0  0  0  0  0
   57.5515   35.0690   44.6588 H   0  0  0  0  0  0  0  0  0  0  0  0
   56.5971   33.5749   45.0094 H   0  0  0  0  0  0  0  0  0  0  0  0
   58.3310   33.8350   46.2180 C   0  0  0  0  0  0  0  0  0  0  0  0
   59.3660   34.7170   46.5750 C   0  0  0  0  0  0  0  0  0  0  0  0
   59.6866   35.4994   45.8714 H   0  0  0  0  0  0  0  0  0  0  0  0
   59.9890   34.6030   47.8210 C   0  0  0  0  0  0  0  0  0  0  0  0
   60.7962   35.2975   48.0969 H   0  0  0  0  0  0  0  0  0  0  0  0
   59.5880   33.6080   48.7170 C   0  0  0  0  0  0  0  0  0  0  0  0
   60.0791   33.5200   49.6973 H   0  0  0  0  0  0  0  0  0  0  0  0
   58.5630   32.7250   48.3670 C   0  0  0  0  0  0  0  0  0  0  0  0
   58.2491   31.9412   49.0721 H   0  0  0  0  0  0  0  0  0  0  0  0
   57.9350   32.8360   47.1210 C   0  0  0  0  0  0  0  0  0  0  0  0
   57.1291   32.1386   46.8488 H   0  0  0  0  0  0  0  0  0  0  0  0
  1  2  1  0
  2  3  1  0
  3  4  1  0
  3  5  2  0
  5  6  1  0
  6  7  2  0
  7  8  1  0
  7  9  1  0
  9 10  2  0
 10 11  1  0
 11 12  1  0
 12 13  2  0
 13 14  1  0
 13 15  1  0
 15 16  1  0
 15 17  2  0
 17 18  1  0
 18 19  1  0
 18 20  2  0
 20 21  1  0
 20 22  1  0
 22 23  1  0
 22 24  2  0
 24 25  1  0
 24 26  1  0
 26 27  2  0
 27 28  1  0
 10 29  1  0
 29 30  1  0
 29 31  2  0
 31 32  1  0
  5 33  1  0
 33 34  1  0
 33 35  1  0
 35 36  1  0
 35 37  1  0
 35 38  1  0
 38 39  2  0
 39 40  1  0
 39 41  1  0
 41 42  1  0
 41 43  2  0
 43 44  1  0
 43 45  1  0
 45 46  1  0
 45 47  2  0
 47 48  1  0
 31  6  1  0
 47 38  1  0
 27 12  1  0
 26 17  1  0
M  CHG  1   3   1
M  END
>  <UniqueID>  (11) 
10

>  <SMILES>  (11) 
O/[NH+]=C(\NCc1ccccc1)c1ccc(Oc2ccc3ccccc3c2)nc1

>  <Energy>  (11) 
68.31667237981677

>  <Genealogy>  (11) 
O[NH+]=C(NCc1ccccc1)c1ccc(Oc2ccc3ccccc3c2)nc1 (protonated)
O/[NH+]=C(\NCc1ccccc1)c1ccc(Oc2ccc3ccccc3c2)nc1 (cis-trans isomerization)
O/[NH+]=C(\NCc1ccccc1)c1ccc(Oc2ccc3ccccc3c2)nc1 (3D coordinates assigned)
O/[NH+]=C(\NCc1ccccc1)c1ccc(Oc2ccc3ccccc3c2)nc1 (optimized conformer: 68.31667237981677 kcal/mol)

>  <smiles>  (11) 
ON=C(NCc1ccccc1)c1ccc(Oc2ccc3ccccc3c2)nc1

>  <score_type>  (11) 
oracle

>  <origin>  (11) 
adg

>  <m_score__min__energy>  (11) 
-7.1100000000000003

>  <m_primary>  (11) 
energy

$$$$
11:0
     RDKit          3D

 43 46  0  0  0  0  0  0  0  0999 V2000
   57.3600   20.3460   44.5100 N   0  0  0  0  0  0  0  0  0  0  0  0
   56.9790   21.4930   43.7440 C   0  0  0  0  0  0  0  0  0  0  0  0
   56.3030   21.3250   42.6940 O   0  0  0  0  0  0  0  0  0  0  0  0
   57.3750   22.8640   44.1510 C   0  0  0  0  0  0  0  0  0  0  0  0
   56.9900   23.9880   43.3990 C   0  0  0  0  0  0  0  0  0  0  0  0
   57.3760   25.2720   43.7920 C   0  0  0  0  0  0  0  0  0  0  0  0
   58.1680   25.4640   44.9370 C   0  0  0  0  0  0  0  0  0  0  0  0
   58.5540   26.8410   45.3370 C   0  0  0  0  0  0  0  0  0  0  0  0
   59.5400   27.0830   46.3090 C   0  0  0  0  0  0  0  0  0  0  0  0
   59.8640   28.3980   46.6440 C   0  0  0  0  0  0  0  0  0  0  0  0
   60.7490   28.6180   47.5150 O   0  0  0  0  0  0  0  0  0  0  0  0
   59.2020   29.4560   46.0020 C   0  0  0  0  0  0  0  0  0  0  0  0
   59.4800   30.8040   46.2920 C   0  0  0  0  0  0  0  0  0  0  0  0
   58.7980   31.8420   45.6220 C   0  0  0  0  0  0  0  0  0  0  0  0
   59.0840   33.2280   45.9220 N   0  0  0  0  0  0  0  0  0  0  0  0
   59.2040   34.2720   44.9140 C   0  0  0  0  0  0  0  0  0  0  0  0
   59.6790   35.5150   45.6530 C   0  0  0  0  0  0  0  0  0  0  0  0
   59.3850   35.2560   47.1260 C   0  0  0  0  0  0  0  0  0  0  0  0
   59.2880   33.7440   47.2680 C   0  0  0  0  0  0  0  0  0  0  0  0
   57.8330   31.5000   44.6540 C   0  0  0  0  0  0  0  0  0  0  0  0
   57.5540   30.1630   44.3630 C   0  0  0  0  0  0  0  0  0  0  0  0
   58.2310   29.1400   45.0300 C   0  0  0  0  0  0  0  0  0  0  0  0
   57.9530   27.8720   44.7420 O   0  0  0  0  0  0  0  0  0  0  0  0
   58.5510   24.3390   45.6910 C   0  0  0  0  0  0  0  0  0  0  0  0
   58.1640   23.0560   45.2970 C   0  0  0  0  0  0  0  0  0  0  0  0
   58.0460   20.4100   45.2930 H   0  0  0  0  0  0  0  0  0  0  0  0
   57.0170   19.3990   44.2330 H   0  0  0  0  0  0  0  0  0  0  0  0
   56.3797   23.8553   42.4935 H   0  0  0  0  0  0  0  0  0  0  0  0
   57.0567   26.1417   43.1990 H   0  0  0  0  0  0  0  0  0  0  0  0
   60.0518   26.2429   46.8013 H   0  0  0  0  0  0  0  0  0  0  0  0
   60.2378   31.0520   47.0498 H   0  0  0  0  0  0  0  0  0  0  0  0
   59.9361   33.9802   44.1466 H   0  0  0  0  0  0  0  0  0  0  0  0
   58.2472   34.4489   44.4009 H   0  0  0  0  0  0  0  0  0  0  0  0
   60.7576   35.6649   45.4977 H   0  0  0  0  0  0  0  0  0  0  0  0
   59.1719   36.4215   45.2908 H   0  0  0  0  0  0  0  0  0  0  0  0
   60.1983   35.6486   47.7540 H   0  0  0  0  0  0  0  0  0  0  0  0
   58.4586   35.7539   47.4483 H   0  0  0  0  0  0  0  0  0  0  0  0
   60.2172   33.3397   47.6958 H   0  0  0  0  0  0  0  0  0  0  0  0
   58.4669   33.4538   47.9400 H   0  0  0  0  0  0  0  0  0  0  0  0
   57.2926   32.2961   44.1208 H   0  0  0  0  0  0  0  0  0  0  0  0
   56.7971   29.9145   43.6045 H   0  0  0  0  0  0  0  0  0  0  0  0
   59.1598   24.4711   46.5976 H   0  0  0  0  0  0  0  0  0  0  0  0
   58.4808   22.1861   45.8910 H   0  0  0  0  0  0  0  0  0  0  0  0
  1  2  1  0
  2  3  2  0
  2  4  1  0
  4  5  2  0
  5  6  1  0
  6  7  2  0
  7  8  1  0
  8  9  2  0
  9 10  1  0
 10 11  2  0
 10 12  1  0
 12 13  2  0
 13 14  1  0
 14 15  1  0
 15 16  1  0
 16 17  1  0
 17 18  1  0
 18 19  1  0
 14 20  2  0
 20 21  1  0
 21 22  2  0
 22 23  1  0
  7 24  1  0
 24 25  2  0
 25  4  1  0
 23  8  1  0
 22 12  1  0
 19 15  1  0
  1 26  1  0
  1 27  1  0
  5 28  1  0
  6 29  1  0
  9 30  1  0
 13 31  1  0
 16 32  1  0
 16 33  1  0
 17 34  1  0
 17 35  1  0
 18 36  1  0
 18 37  1  0
 19 38  1  0
 19 39  1  0
 20 40  1  0
 21 41  1  0
 24 42  1  0
 25 43  1  0
M  END
>  <UniqueID>  (12) 
11

>  <SMILES>  (12) 
NC(=O)c1ccc(-c2cc(=O)c3cc(N4CCCC4)ccc3o2)cc1

>  <Energy>  (12) 
57.89573381888652

>  <Genealogy>  (12) 
NC(=O)c1ccc(-c2cc(=O)c3cc(N4CCCC4)ccc3o2)cc1 (3D coordinates assigned)
NC(=O)c1ccc(-c2cc(=O)c3cc(N4CCCC4)ccc3o2)cc1 (nonaromatic ring conformer: 57.89573381888652 kcal/mol)

>  <smiles>  (12) 
NC(=O)c1ccc(-c2cc(=O)c3cc(N4CCCC4)ccc3o2)cc1

>  <score_type>  (12) 
oracle

>  <origin>  (12) 
adg

>  <m_score__min__energy>  (12) 
-8.5399999999999991

>  <m_primary>  (12) 
energy

$$$$
12:0
     RDKit          3D

 25 26  0  0  0  0  0  0  0  0999 V2000
   60.0010   35.9159   46.5984 H   0  0  0  0  0  0  0  0  0  0  0  0
   59.4060   35.0320   46.3250 C   0  0  0  0  0  0  0  0  0  0  0  0
   59.1870   34.7260   44.9780 C   0  0  0  0  0  0  0  0  0  0  0  0
   59.6170   35.3647   44.1924 H   0  0  0  0  0  0  0  0  0  0  0  0
   58.4220   33.6090   44.6290 C   0  0  0  0  0  0  0  0  0  0  0  0
   58.2694   33.3588   43.5688 H   0  0  0  0  0  0  0  0  0  0  0  0
   57.8490   32.8070   45.6250 C   0  0  0  0  0  0  0  0  0  0  0  0
   57.1200   31.6300   45.2480 N   0  0  0  0  0  0  0  0  0  0  0  0
   57.5570   30.4190   45.0170 C   0  0  0  0  0  0  0  0  0  0  0  0
   56.7200   29.2650   44.9710 C   0  0  0  0  0  0  0  0  0  0  0  0
   55.2930   29.3390   44.8600 N   0  0  0  0  0  0  0  0  0  0  0  0
   54.7500   28.5240   44.4970 H   0  0  0  0  0  0  0  0  0  0  0  0
   54.7920   30.2510   44.9170 H   0  0  0  0  0  0  0  0  0  0  0  0
   57.3220   28.0020   44.8820 C   0  0  0  0  0  0  0  0  0  0  0  0
   56.6977   27.0967   44.9089 H   0  0  0  0  0  0  0  0  0  0  0  0
   58.7020   27.8850   44.7600 C   0  0  0  0  0  0  0  0  0  0  0  0
   59.1729   26.8926   44.7028 H   0  0  0  0  0  0  0  0  0  0  0  0
   59.4810   29.0370   44.7110 C   0  0  0  0  0  0  0  0  0  0  0  0
   60.5698   28.9569   44.5762 H   0  0  0  0  0  0  0  0  0  0  0  0
   58.9020   30.2600   44.8290 N   0  0  0  0  0  0  0  0  0  0  0  0
   59.5230   31.1010   44.8210 H   0  0  0  0  0  0  0  0  0  0  0  0
   58.1050   33.0970   46.9770 C   0  0  0  0  0  0  0  0  0  0  0  0
   57.7028   32.4420   47.7639 H   0  0  0  0  0  0  0  0  0  0  0  0
   58.8690   34.2150   47.3240 C   0  0  0  0  0  0  0  0  0  0  0  0
   59.0476   34.4518   48.3832 H   0  0  0  0  0  0  0  0  0  0  0  0
  1  2  1  0
  2  3  2  0
  3  4  1  0
  3  5  1  0
  5  6  1  0
  5  7  2  0
  7  8  1  0
  8  9  2  0
  9 10  1  0
 10 11  1  0
 11 12  1  0
 11 13  1  0
 10 14  2  0
 14 15  1  0
 14 16  1  0
 16 17  1  0
 16 18  2  0
 18 19  1  0
 18 20  1  0
 20 21  1  0
  7 22  1  0
 22 23  1  0
 22 24  2  0
 24 25  1  0
 24  2  1  0
 20  9  1  0
M  END
>  <UniqueID>  (13) 
12

>  <SMILES>  (13) 
Nc1ccc[nH]/c1=N/c1ccccc1

>  <Energy>  (13) 
42.891137497704044

>  <Genealogy>  (13) 
Nc1ccc[nH]/c1=N/c1ccccc1 (cis-trans isomerization)
Nc1ccc[nH]/c1=N/c1ccccc1 (3D coordinates assigned)
Nc1ccc[nH]/c1=N/c1ccccc1 (optimized conformer: 42.891137497704044 kcal/mol)

>  <smiles>  (13) 
Nc1ccc[nH]c1=Nc1ccccc1

>  <score_type>  (13) 
oracle

>  <origin>  (13) 
adg

>  <m_score__min__energy>  (13) 
-6.6600000000000001

>  <m_primary>  (13) 
energy

$$$$
13:0
     RDKit          3D

 26 28  0  0  0  0  0  0  0  0999 V2000
   59.6480   34.6570   48.4490 C   0  0  0  0  0  0  0  0  0  0  0  0
   59.4950   33.2790   48.3300 C   0  0  0  0  0  0  0  0  0  0  0  0
   58.9930   33.0810   47.0630 C   0  0  0  0  0  0  0  0  0  0  0  0
   58.6440   31.9070   46.4000 C   0  0  0  0  0  0  0  0  0  0  0  0
   58.1400   32.0070   45.0810 C   0  0  0  0  0  0  0  0  0  0  0  0
   57.7520   30.7850   44.3310 C   0  0  0  0  0  0  0  0  0  0  0  0
   58.3540   29.5470   44.6170 C   0  0  0  0  0  0  0  0  0  0  0  0
   57.9730   28.4110   43.9000 C   0  0  0  0  0  0  0  0  0  0  0  0
   57.0240   28.4970   42.9290 N   0  0  0  0  0  0  0  0  0  0  0  0
   56.4240   29.6810   42.6310 C   0  0  0  0  0  0  0  0  0  0  0  0
   56.7760   30.8430   43.3220 C   0  0  0  0  0  0  0  0  0  0  0  0
   58.0090   33.2910   44.4820 C   0  0  0  0  0  0  0  0  0  0  0  0
   58.3720   34.4550   45.1830 C   0  0  0  0  0  0  0  0  0  0  0  0
   58.8620   34.3090   46.4770 C   0  0  0  0  0  0  0  0  0  0  0  0
   59.2600   35.2820   47.3140 N   0  0  0  0  0  0  0  0  0  0  0  0
   60.0321   35.1682   49.3440 H   0  0  0  0  0  0  0  0  0  0  0  0
   59.7254   32.5130   49.0851 H   0  0  0  0  0  0  0  0  0  0  0  0
   58.7570   30.9279   46.8884 H   0  0  0  0  0  0  0  0  0  0  0  0
   59.1214   29.4737   45.4017 H   0  0  0  0  0  0  0  0  0  0  0  0
   58.4427   27.4413   44.1215 H   0  0  0  0  0  0  0  0  0  0  0  0
   56.7500   27.6380   42.4020 H   0  0  0  0  0  0  0  0  0  0  0  0
   55.6583   29.7236   41.8424 H   0  0  0  0  0  0  0  0  0  0  0  0
   56.2910   31.7995   43.0771 H   0  0  0  0  0  0  0  0  0  0  0  0
   57.6186   33.3744   43.4570 H   0  0  0  0  0  0  0  0  0  0  0  0
   58.2717   35.4491   44.7229 H   0  0  0  0  0  0  0  0  0  0  0  0
   59.2680   36.3100   47.1300 H   0  0  0  0  0  0  0  0  0  0  0  0
  1  2  2  0
  2  3  1  0
  3  4  2  0
  4  5  1  0
  5  6  1  0
  6  7  2  0
  7  8  1  0
  8  9  2  0
  9 10  1  0
 10 11  2  0
  5 12  2  0
 12 13  1  0
 13 14  2  0
 14 15  1  0
 15  1  1  0
 14  3  1  0
 11  6  1  0
  1 16  1  0
  2 17  1  0
  4 18  1  0
  7 19  1  0
  8 20  1  0
  9 21  1  0
 10 22  1  0
 11 23  1  0
 12 24  1  0
 13 25  1  0
 15 26  1  0
M  CHG  1   9   1
M  END
>  <UniqueID>  (14) 
13

>  <SMILES>  (14) 
c1cc2cc(-c3cc[nH+]cc3)ccc2[nH]1

>  <Energy>  (14) 
66.26007338911138

>  <Genealogy>  (14) 
c1cc2cc(-c3cc[nH+]cc3)ccc2[nH]1 (protonated)
c1cc2cc(-c3cc[nH+]cc3)ccc2[nH]1 (3D coordinates assigned)
c1cc2cc(-c3cc[nH+]cc3)ccc2[nH]1 (optimized conformer: 66.26007338911138 kcal/mol)

>  <smiles>  (14) 
c1cc(-c2ccc3[nH]ccc3c2)ccn1

>  <score_type>  (14) 
oracle

>  <origin>  (14) 
adg

>  <m_score__min__energy>  (14) 
-5.2599999999999998

>  <m_primary>  (14) 
energy

$$$$
14:0
     RDKit          3D

 54 57  0  0  0  0  0  0  0  0999 V2000
   58.2230   29.1960   47.6120 N   0  0  0  0  0  0  0  0  0  0  0  0
   58.1810   30.4830   46.9770 C   0  0  0  0  0  0  0  0  0  0  0  0
   57.7810   30.6450   45.6430 C   0  0  0  0  0  0  0  0  0  0  0  0
   57.3870   29.5920   44.6850 C   0  0  0  0  0  0  0  0  0  0  0  0
   56.1590   29.3120   44.6210 O   0  0  0  0  0  0  0  0  0  0  0  0
   58.3390   28.9530   43.7770 N   0  0  0  0  0  0  0  0  0  0  0  0
   57.7580   27.8030   43.0190 C   0  0  0  0  0  0  0  0  0  0  0  0
   57.9780   26.4180   43.6810 C   0  0  0  0  0  0  0  0  0  0  0  0
   58.2020   26.5070   45.1980 C   0  0  0  0  0  0  0  0  0  0  0  0
   59.3990   27.4400   45.5020 C   0  0  0  0  0  0  0  0  0  0  0  0
   59.6030   28.5490   44.4420 C   0  0  0  0  0  0  0  0  0  0  0  0
   58.4900   25.2140   45.6850 O   0  0  0  0  0  0  0  0  0  0  0  0
   57.7080   25.0540   46.8240 C   0  0  0  0  0  0  0  0  0  0  0  0
   56.6280   26.0860   46.7470 C   0  0  0  0  0  0  0  0  0  0  0  0
   57.0350   27.0210   45.8010 O   0  0  0  0  0  0  0  0  0  0  0  0
   57.9700   32.2620   45.2280 S   0  0  0  0  0  0  0  0  0  0  0  0
   58.4990   32.7080   46.7530 C   0  0  0  0  0  0  0  0  0  0  0  0
   58.8720   34.2560   47.1430 S   0  0  0  0  0  0  0  0  0  0  0  0
   58.5750   31.6440   47.5990 N   0  0  0  0  0  0  0  0  0  0  0  0
   59.1070   31.7360   48.9730 C   0  0  0  0  0  0  0  0  0  0  0  0
   60.2940   30.7830   49.1810 C   0  0  0  0  0  0  0  0  0  0  0  0
   61.1330   30.5870   47.9130 C   0  0  0  0  0  0  0  0  0  0  0  0
   62.0800   31.7450   47.7300 C   0  0  0  0  0  0  0  0  0  0  0  0
   61.7980   32.7450   46.7830 C   0  0  0  0  0  0  0  0  0  0  0  0
   62.6480   33.8470   46.6480 C   0  0  0  0  0  0  0  0  0  0  0  0
   63.7750   33.9650   47.4670 C   0  0  0  0  0  0  0  0  0  0  0  0
   64.0560   32.9820   48.4200 C   0  0  0  0  0  0  0  0  0  0  0  0
   63.2090   31.8760   48.5570 C   0  0  0  0  0  0  0  0  0  0  0  0
   58.8300   28.9880   48.4320 H   0  0  0  0  0  0  0  0  0  0  0  0
   57.6950   28.3870   47.2230 H   0  0  0  0  0  0  0  0  0  0  0  0
   58.5880   29.6770   43.0670 H   0  0  0  0  0  0  0  0  0  0  0  0
   56.6750   27.9685   42.9209 H   0  0  0  0  0  0  0  0  0  0  0  0
   58.2786   27.7724   42.0505 H   0  0  0  0  0  0  0  0  0  0  0  0
   57.0910   25.7950   43.4935 H   0  0  0  0  0  0  0  0  0  0  0  0
   58.8864   25.9825   43.2391 H   0  0  0  0  0  0  0  0  0  0  0  0
   59.2284   27.9183   46.4777 H   0  0  0  0  0  0  0  0  0  0  0  0
   60.3049   26.8161   45.4955 H   0  0  0  0  0  0  0  0  0  0  0  0
   60.0370   29.4309   44.9359 H   0  0  0  0  0  0  0  0  0  0  0  0
   60.2694   28.1447   43.6658 H   0  0  0  0  0  0  0  0  0  0  0  0
   57.2690   24.0456   46.8448 H   0  0  0  0  0  0  0  0  0  0  0  0
   58.3080   25.1740   47.7381 H   0  0  0  0  0  0  0  0  0  0  0  0
   55.6806   25.6208   46.4370 H   0  0  0  0  0  0  0  0  0  0  0  0
   56.4631   26.5598   47.7259 H   0  0  0  0  0  0  0  0  0  0  0  0
   59.4398   32.7678   49.1593 H   0  0  0  0  0  0  0  0  0  0  0  0
   58.3078   31.4505   49.6729 H   0  0  0  0  0  0  0  0  0  0  0  0
   60.9409   31.1954   49.9693 H   0  0  0  0  0  0  0  0  0  0  0  0
   59.8834   29.8012   49.4593 H   0  0  0  0  0  0  0  0  0  0  0  0
   61.7112   29.6554   48.0006 H   0  0  0  0  0  0  0  0  0  0  0  0
   60.4613   30.5324   47.0436 H   0  0  0  0  0  0  0  0  0  0  0  0
   60.9053   32.6602   46.1458 H   0  0  0  0  0  0  0  0  0  0  0  0
   62.4300   34.6211   45.8975 H   0  0  0  0  0  0  0  0  0  0  0  0
   64.4419   34.8333   47.3611 H   0  0  0  0  0  0  0  0  0  0  0  0
   64.9435   33.0776   49.0629 H   0  0  0  0  0  0  0  0  0  0  0  0
   63.4274   31.1078   49.3134 H   0  0  0  0  0  0  0  0  0  0  0  0
  1  2  1  0
  2  3  2  0
  3  4  1  0
  4  5  2  0
  4  6  1  0
  6  7  1  0
  7  8  1  0
  8  9  1  0
  9 10  1  0
 10 11  1  0
  9 12  1  0
 12 13  1  0
 13 14  1  0
 14 15  1  0
  3 16  1  0
 16 17  1  0
 17 18  2  0
 17 19  1  0
 19 20  1  0
 20 21  1  0
 21 22  1  0
 22 23  1  0
 23 24  2  0
 24 25  1  0
 25 26  2  0
 26 27  1  0
 27 28  2  0
 19  2  1  0
 28 23  1  0
 11  6  1  0
 15  9  1  0
  1 29  1  0
  1 30  1  0
  6 31  1  0
  7 32  1  0
  7 33  1  0
  8 34  1  0
  8 35  1  0
 10 36  1  0
 10 37  1  0
 11 38  1  0
 11 39  1  0
 13 40  1  0
 13 41  1  0
 14 42  1  0
 14 43  1  0
 20 44  1  0
 20 45  1  0
 21 46  1  0
 21 47  1  0
 22 48  1  0
 22 49  1  0
 24 50  1  0
 25 51  1  0
 26 52  1  0
 27 53  1  0
 28 54  1  0
M  CHG  1   6   1
M  END
>  <UniqueID>  (15) 
14

>  <SMILES>  (15) 
Nc1c(C(=O)[NH+]2CCC3(CC2)OCCO3)sc(=S)n1CCCc1ccccc1

>  <Energy>  (15) 
101.75151608450923

>  <Genealogy>  (15) 
Nc1c(C(=O)[NH+]2CCC3(CC2)OCCO3)sc(=S)n1CCCc1ccccc1 (protonated)
Nc1c(C(=O)[NH+]2CCC3(CC2)OCCO3)sc(=S)n1CCCc1ccccc1 (3D coordinates assigned)
Nc1c(C(=O)[NH+]2CCC3(CC2)OCCO3)sc(=S)n1CCCc1ccccc1 (nonaromatic ring conformer: 101.75151608450923 kcal/mol)

>  <smiles>  (15) 
Nc1c(C(=O)N2CCC3(CC2)OCCO3)sc(=S)n1CCCc1ccccc1

>  <score_type>  (15) 
oracle

>  <origin>  (15) 
adg

>  <m_score__min__energy>  (15) 
-6.9299999999999997

>  <m_primary>  (15) 
energy

$$$$
15:0
     RDKit          3D

 31 33  0  0  0  0  0  0  0  0999 V2000
   59.6350   34.2350   48.8460 C   0  0  0  0  0  0  0  0  0  0  0  0
   60.9110   33.8420   47.6110 S   0  0  0  0  0  0  0  0  0  0  0  0
   59.7140   33.5290   46.3110 C   0  0  0  0  0  0  0  0  0  0  0  0
   59.2810   34.4820   45.4640 N   0  0  0  0  0  0  0  0  0  0  0  0
   58.4650   33.8770   44.6150 N   0  0  0  0  0  0  0  0  0  0  0  0
   58.4070   32.5700   44.9410 C   0  0  0  0  0  0  0  0  0  0  0  0
   57.5440   31.5810   44.2550 C   0  0  0  0  0  0  0  0  0  0  0  0
   57.4530   31.5390   42.8550 C   0  0  0  0  0  0  0  0  0  0  0  0
   56.6430   30.6230   42.2630 N   0  0  0  0  0  0  0  0  0  0  0  0
   55.9130   29.7460   43.0000 C   0  0  0  0  0  0  0  0  0  0  0  0
   55.9950   29.7850   44.3910 C   0  0  0  0  0  0  0  0  0  0  0  0
   56.8050   30.7010   44.9850 N   0  0  0  0  0  0  0  0  0  0  0  0
   59.1860   32.3210   46.0190 N   0  0  0  0  0  0  0  0  0  0  0  0
   59.4930   31.0620   46.6390 C   0  0  0  0  0  0  0  0  0  0  0  0
   60.0050   30.0020   45.8730 C   0  0  0  0  0  0  0  0  0  0  0  0
   60.3140   28.7800   46.4800 C   0  0  0  0  0  0  0  0  0  0  0  0
   60.1200   28.6130   47.8530 C   0  0  0  0  0  0  0  0  0  0  0  0
   59.6160   29.6660   48.6220 C   0  0  0  0  0  0  0  0  0  0  0  0
   59.3050   30.8880   48.0180 C   0  0  0  0  0  0  0  0  0  0  0  0
   60.0508   34.1069   49.8563 H   0  0  0  0  0  0  0  0  0  0  0  0
   59.3056   35.2762   48.7143 H   0  0  0  0  0  0  0  0  0  0  0  0
   58.7769   33.5595   48.7143 H   0  0  0  0  0  0  0  0  0  0  0  0
   57.9500   34.3650   43.8500 H   0  0  0  0  0  0  0  0  0  0  0  0
   58.0338   32.2432   42.2411 H   0  0  0  0  0  0  0  0  0  0  0  0
   55.2625   29.0111   42.5032 H   0  0  0  0  0  0  0  0  0  0  0  0
   55.4101   29.0816   45.0019 H   0  0  0  0  0  0  0  0  0  0  0  0
   60.1636   30.1330   44.7924 H   0  0  0  0  0  0  0  0  0  0  0  0
   60.7099   27.9505   45.8757 H   0  0  0  0  0  0  0  0  0  0  0  0
   60.3640   27.6521   48.3296 H   0  0  0  0  0  0  0  0  0  0  0  0
   59.4640   29.5331   49.7033 H   0  0  0  0  0  0  0  0  0  0  0  0
   58.9116   31.7157   48.6263 H   0  0  0  0  0  0  0  0  0  0  0  0
  1  2  1  0
  2  3  1  0
  3  4  2  0
  4  5  1  0
  5  6  2  0
  6  7  1  0
  7  8  2  0
  8  9  1  0
  9 10  2  0
 10 11  1  0
 11 12  2  0
  6 13  1  0
 13 14  1  0
 14 15  2  0
 15 16  1  0
 16 17  2  0
 17 18  1  0
 18 19  2  0
 13  3  1  0
 19 14  1  0
 12  7  1  0
  1 20  1  0
  1 21  1  0
  1 22  1  0
  5 23  1  0
  8 24  1  0
 10 25  1  0
 11 26  1  0
 15 27  1  0
 16 28  1  0
 17 29  1  0
 18 30  1  0
 19 31  1  0
M  CHG  1   5   1
M  END
>  <UniqueID>  (16) 
15

>  <SMILES>  (16) 
CSc1n[nH+]c(-c2cnccn2)n1-c1ccccc1

>  <Energy>  (16) 
74.78968054911425

>  <Genealogy>  (16) 
CSc1n[nH+]c(-c2cnccn2)n1-c1ccccc1 (protonated)
CSc1n[nH+]c(-c2cnccn2)n1-c1ccccc1 (3D coordinates assigned)
CSc1n[nH+]c(-c2cnccn2)n1-c1ccccc1 (optimized conformer: 74.78968054911425 kcal/mol)

>  <smiles>  (16) 
CSc1nnc(-c2cnccn2)n1-c1ccccc1

>  <score_type>  (16) 
oracle

>  <origin>  (16) 
adg

>  <m_score__min__energy>  (16) 
-5.2400000000000002

>  <m_primary>  (16) 
energy

$$$$
16:0
     RDKit          3D

 30 31  0  0  0  0  0  0  0  0999 V2000
   59.5526   35.7540   44.2567 H   0  0  0  0  0  0  0  0  0  0  0  0
   59.2640   35.0420   45.0440 C   0  0  0  0  0  0  0  0  0  0  0  0
   59.9860   34.9900   46.2350 C   0  0  0  0  0  0  0  0  0  0  0  0
   60.8440   35.6614   46.3867 H   0  0  0  0  0  0  0  0  0  0  0  0
   59.6220   34.0870   47.2360 C   0  0  0  0  0  0  0  0  0  0  0  0
   60.1964   34.0518   48.1735 H   0  0  0  0  0  0  0  0  0  0  0  0
   58.5250   33.2200   47.0560 C   0  0  0  0  0  0  0  0  0  0  0  0
   58.1470   32.3050   48.0520 O   0  0  0  0  0  0  0  0  0  0  0  0
   58.8220   32.1260   49.2930 C   0  0  0  0  0  0  0  0  0  0  0  0
   58.1222   32.3116   50.1211 H   0  0  0  0  0  0  0  0  0  0  0  0
   59.2024   31.0959   49.3583 H   0  0  0  0  0  0  0  0  0  0  0  0
   59.6628   32.8322   49.3583 H   0  0  0  0  0  0  0  0  0  0  0  0
   57.7940   33.2780   45.8420 C   0  0  0  0  0  0  0  0  0  0  0  0
   56.6640   32.4330   45.5750 N   0  0  0  0  0  0  0  0  0  0  0  0
   56.6630   31.5450   44.6660 N   0  0  0  0  0  0  0  0  0  0  0  0
   57.4480   30.3490   44.7620 C   0  0  0  0  0  0  0  0  0  0  0  0
   57.3270   29.3580   43.7700 C   0  0  0  0  0  0  0  0  0  0  0  0
   56.3670   29.5370   42.6200 C   0  0  0  0  0  0  0  0  0  0  0  0
   55.3566   29.7254   43.0118 H   0  0  0  0  0  0  0  0  0  0  0  0
   56.6869   30.3910   42.0049 H   0  0  0  0  0  0  0  0  0  0  0  0
   56.3576   28.6251   42.0049 H   0  0  0  0  0  0  0  0  0  0  0  0
   58.0880   28.1840   43.9170 C   0  0  0  0  0  0  0  0  0  0  0  0
   58.0020   27.2490   43.0770 O   0  0  0  0  0  0  0  0  0  0  0  0
   58.9230   28.0470   44.9770 N   0  0  0  0  0  0  0  0  0  0  0  0
   59.0390   29.0220   45.9120 C   0  0  0  0  0  0  0  0  0  0  0  0
   59.7292   28.8906   46.7584 H   0  0  0  0  0  0  0  0  0  0  0  0
   58.3060   30.1600   45.8070 N   0  0  0  0  0  0  0  0  0  0  0  0
   58.4100   30.8890   46.5480 H   0  0  0  0  0  0  0  0  0  0  0  0
   58.1750   34.1910   44.8500 C   0  0  0  0  0  0  0  0  0  0  0  0
   57.6095   34.2376   43.9077 H   0  0  0  0  0  0  0  0  0  0  0  0
  1  2  1  0
  2  3  2  0
  3  4  1  0
  3  5  1  0
  5  6  1  0
  5  7  2  0
  7  8  1  0
  8  9  1  0
  9 10  1  0
  9 11  1  0
  9 12  1  0
  7 13  1  0
 13 14  1  0
 14 15  2  0
 15 16  1  0
 16 17  2  0
 17 18  1  0
 18 19  1  0
 18 20  1  0
 18 21  1  0
 17 22  1  0
 22 23  2  0
 22 24  1  0
 24 25  2  0
 25 26  1  0
 25 27  1  0
 27 28  1  0
 13 29  2  0
 29 30  1  0
 29  2  1  0
 27 16  1  0
M  END
>  <UniqueID>  (17) 
16

>  <SMILES>  (17) 
COc1ccccc1/N=N/c1[nH]cnc(=O)c1C

>  <Energy>  (17) 
32.59431775985791

>  <Genealogy>  (17) 
COc1ccccc1/N=N/c1[nH]cnc(=O)c1C (cis-trans isomerization)
COc1ccccc1/N=N/c1[nH]cnc(=O)c1C (3D coordinates assigned)
COc1ccccc1/N=N/c1[nH]cnc(=O)c1C (optimized conformer: 32.59431775985791 kcal/mol)

>  <smiles>  (17) 
COc1ccccc1N=Nc1[nH]cnc(=O)c1C

>  <score_type>  (17) 
oracle

>  <origin>  (17) 
adg

>  <m_score__min__energy>  (17) 
-6.54

>  <m_primary>  (17) 
energy

$$$$
17:0
     RDKit          3D

 32 34  0  0  0  0  0  0  0  0999 V2000
   64.1460   33.0980   48.2790 C   0  0  0  0  0  0  0  0  0  0  0  0
   63.5300   33.3970   49.4970 C   0  0  0  0  0  0  0  0  0  0  0  0
   62.2010   33.8330   49.5220 C   0  0  0  0  0  0  0  0  0  0  0  0
   61.4770   33.9630   48.3250 C   0  0  0  0  0  0  0  0  0  0  0  0
   60.0650   34.4750   48.3470 C   0  0  0  0  0  0  0  0  0  0  0  0
   59.4350   34.2420   47.0520 N   0  0  0  0  0  0  0  0  0  0  0  0
   58.9190   33.0810   46.6070 C   0  0  0  0  0  0  0  0  0  0  0  0
   58.5060   33.3090   45.3050 C   0  0  0  0  0  0  0  0  0  0  0  0
   57.8790   32.3360   44.3750 C   0  0  0  0  0  0  0  0  0  0  0  0
   57.9450   32.5300   42.9820 C   0  0  0  0  0  0  0  0  0  0  0  0
   57.3520   31.6120   42.1100 C   0  0  0  0  0  0  0  0  0  0  0  0
   56.6880   30.4920   42.6150 C   0  0  0  0  0  0  0  0  0  0  0  0
   56.6140   30.2890   43.9940 C   0  0  0  0  0  0  0  0  0  0  0  0
   57.2040   31.2040   44.8710 C   0  0  0  0  0  0  0  0  0  0  0  0
   58.8010   34.5950   45.0150 N   0  0  0  0  0  0  0  0  0  0  0  0
   59.3690   35.1370   46.0810 N   0  0  0  0  0  0  0  0  0  0  0  0
   62.1090   33.6770   47.1030 C   0  0  0  0  0  0  0  0  0  0  0  0
   63.4380   33.2400   47.0830 C   0  0  0  0  0  0  0  0  0  0  0  0
   65.1895   32.7504   48.2618 H   0  0  0  0  0  0  0  0  0  0  0  0
   64.0907   33.2894   50.4372 H   0  0  0  0  0  0  0  0  0  0  0  0
   61.7213   34.0748   50.4819 H   0  0  0  0  0  0  0  0  0  0  0  0
   59.4979   33.9489   49.1290 H   0  0  0  0  0  0  0  0  0  0  0  0
   60.0732   35.5545   48.5581 H   0  0  0  0  0  0  0  0  0  0  0  0
   58.8408   32.1375   47.1670 H   0  0  0  0  0  0  0  0  0  0  0  0
   58.4666   33.4097   42.5770 H   0  0  0  0  0  0  0  0  0  0  0  0
   57.4086   31.7724   41.0232 H   0  0  0  0  0  0  0  0  0  0  0  0
   56.2237   29.7705   41.9267 H   0  0  0  0  0  0  0  0  0  0  0  0
   56.0903   29.4071   44.3916 H   0  0  0  0  0  0  0  0  0  0  0  0
   57.1405   31.0385   45.9566 H   0  0  0  0  0  0  0  0  0  0  0  0
   58.6510   35.0990   44.1140 H   0  0  0  0  0  0  0  0  0  0  0  0
   61.5571   33.7971   46.1591 H   0  0  0  0  0  0  0  0  0  0  0  0
   63.9258   33.0080   46.1248 H   0  0  0  0  0  0  0  0  0  0  0  0
  1  2  2  0
  2  3  1  0
  3  4  2  0
  4  5  1  0
  5  6  1  0
  6  7  1  0
  7  8  2  0
  8  9  1  0
  9 10  2  0
 10 11  1  0
 11 12  2  0
 12 13  1  0
 13 14  2  0
  8 15  1  0
 15 16  2  0
  4 17  1  0
 17 18  2  0
 18  1  1  0
 16  6  1  0
 14  9  1  0
  1 19  1  0
  2 20  1  0
  3 21  1  0
  5 22  1  0
  5 23  1  0
  7 24  1  0
 10 25  1  0
 11 26  1  0
 12 27  1  0
 13 28  1  0
 14 29  1  0
 15 30  1  0
 17 31  1  0
 18 32  1  0
M  CHG  1  15   1
M  END
>  <UniqueID>  (18) 
17

>  <SMILES>  (18) 
c1ccc(Cn2cc(-c3ccccc3)[nH+]n2)cc1

>  <Energy>  (18) 
70.55024803203644

>  <Genealogy>  (18) 
c1ccc(Cn2cc(-c3ccccc3)[nH+]n2)cc1 (protonated)
c1ccc(Cn2cc(-c3ccccc3)[nH+]n2)cc1 (3D coordinates assigned)
c1ccc(Cn2cc(-c3ccccc3)[nH+]n2)cc1 (optimized conformer: 70.55024803203644 kcal/mol)

>  <smiles>  (18) 
c1ccc(Cn2cc(-c3ccccc3)nn2)cc1

>  <score_type>  (18) 
oracle

>  <origin>  (18) 
adg

>  <m_score__min__energy>  (18) 
-6.2000000000000002

>  <m_primary>  (18) 
energy

$$$$
18:0
     RDKit          3D

 44 47  0  0  1  0  0  0  0  0999 V2000
   55.2890   26.6170   46.0080 N   0  0  0  0  0  0  0  0  0  0  0  0
   56.8530   25.9610   45.9180 S   0  0  0  0  0  0  0  0  0  0  0  0
   57.0250   24.7100   46.7240 O   0  0  0  0  0  0  0  0  0  0  0  0
   57.1500   25.5760   44.4750 O   0  0  0  0  0  0  0  0  0  0  0  0
   58.1180   27.0850   46.3540 C   0  0  0  0  0  0  0  0  0  0  0  0
   59.0860   27.4720   45.4620 C   0  0  0  0  0  0  0  0  0  0  0  0
   60.0600   28.3610   45.8620 C   0  0  0  0  0  0  0  0  0  0  0  0
   60.0970   28.8870   47.1560 C   0  0  0  0  0  0  0  0  0  0  0  0
   61.1330   29.8000   47.4970 N   0  0  0  0  0  0  0  0  0  0  0  0
   60.9860   31.0150   47.0850 C   0  0  0  0  0  0  0  0  0  0  0  0
   59.9280   31.4310   46.3640 N   0  0  0  0  0  0  0  0  0  0  0  0
   59.8830   32.7240   45.9880 C   0  0  0  0  0  0  0  0  0  0  0  0
   58.8680   33.1480   45.2900 N   0  0  0  0  0  0  0  0  0  0  0  0
   58.1160   32.2750   44.4370 C   0  0  0  0  0  0  0  0  0  0  0  0
   58.1260   32.4450   43.0460 C   0  0  0  0  0  0  0  0  0  0  0  0
   57.3730   31.5600   42.2680 C   0  0  0  0  0  0  0  0  0  0  0  0
   56.6440   30.5520   42.8640 C   0  0  0  0  0  0  0  0  0  0  0  0
   56.6570   30.4130   44.2480 C   0  0  0  0  0  0  0  0  0  0  0  0
   55.8940   29.3690   44.7670 O   0  0  0  0  0  0  0  0  0  0  0  0
   57.3920   31.2710   45.0400 C   0  0  0  0  0  0  0  0  0  0  0  0
   60.8560   33.5990   46.3100 N   0  0  0  0  0  0  0  0  0  0  0  0
   61.9440   33.2200   47.0370 C   0  0  0  0  0  0  0  0  0  0  0  0
   63.0370   33.8830   47.4860 N   0  0  0  0  0  0  0  0  0  0  0  0
   63.8200   33.0080   48.1730 C   0  0  0  0  0  0  0  0  0  0  0  0
   63.1910   31.7580   48.1500 C   0  0  0  0  0  0  0  0  0  0  0  0
   62.0140   31.8950   47.4370 C   0  0  0  0  0  0  0  0  0  0  0  0
   59.1170   28.4870   48.0390 C   0  0  0  0  0  0  0  0  0  0  0  0
   58.1320   27.5860   47.6280 C   0  0  0  0  0  0  0  0  0  0  0  0
   54.9180   26.6310   46.9700 H   0  0  0  0  0  0  0  0  0  0  0  0
   55.1540   27.4930   45.4570 H   0  0  0  0  0  0  0  0  0  0  0  0
   59.0846   27.0758   44.4358 H   0  0  0  0  0  0  0  0  0  0  0  0
   60.8322   28.6660   45.1404 H   0  0  0  0  0  0  0  0  0  0  0  0
   59.1730   30.7530   46.1140 H   0  0  0  0  0  0  0  0  0  0  0  0
   58.7098   33.2520   42.5792 H   0  0  0  0  0  0  0  0  0  0  0  0
   57.3620   31.6684   41.1734 H   0  0  0  0  0  0  0  0  0  0  0  0
   56.0536   29.8595   42.2461 H   0  0  0  0  0  0  0  0  0  0  0  0
   56.1410   28.4380   44.4070 H   0  0  0  0  0  0  0  0  0  0  0  0
   57.3994   31.1550   46.1338 H   0  0  0  0  0  0  0  0  0  0  0  0
   60.8390   34.6030   46.0280 H   0  0  0  0  0  0  0  0  0  0  0  0
   63.2350   34.9070   47.3220 H   0  0  0  0  0  0  0  0  0  0  0  0
   64.7781   33.2416   48.6604 H   0  0  0  0  0  0  0  0  0  0  0  0
   63.5651   30.8339   48.6149 H   0  0  0  0  0  0  0  0  0  0  0  0
   59.1107   28.8774   49.0674 H   0  0  0  0  0  0  0  0  0  0  0  0
   57.3541   27.2736   48.3402 H   0  0  0  0  0  0  0  0  0  0  0  0
  1  2  1  0
  2  3  2  0
  2  4  2  0
  2  5  1  0
  5  6  2  0
  6  7  1  0
  7  8  2  0
  8  9  1  0
  9 10  2  0
 10 11  1  0
 11 12  1  0
 12 13  2  0
 13 14  1  0
 14 15  2  0
 15 16  1  0
 16 17  2  0
 17 18  1  0
 18 19  1  0
 18 20  2  0
 12 21  1  0
 21 22  1  0
 22 23  1  0
 23 24  1  0
 24 25  2  0
 25 26  1  0
  8 27  1  0
 27 28  2  0
 28  5  1  0
 26 10  1  0
 20 14  1  0
 26 22  2  0
  1 29  1  0
  1 30  1  0
  6 31  1  0
  7 32  1  0
 11 33  1  0
 15 34  1  0
 16 35  1  0
 17 36  1  0
 19 37  1  0
 20 38  1  0
 21 39  1  0
 23 40  1  0
 24 41  1  0
 25 42  1  0
 27 43  1  0
 28 44  1  0
M  END
>  <smiles>  (19) 
NS(=O)(=O)c1ccc(N=c2[nH]c(=Nc3cccc(O)c3)[nH]c3[nH]ccc23)cc1

>  <score_type>  (19) 
oracle

>  <origin>  (19) 
adg

>  <m_score__min__energy>  (19) 
-9.4600000000000009

>  <m_primary>  (19) 
energy

$$$$
19:0
     RDKit          3D

 53 57  0  0  0  0  0  0  0  0999 V2000
   57.2610   30.5860   43.9580 C   0  0  0  0  0  0  0  0  0  0  0  0
   56.9810   30.1410   45.2810 O   0  0  0  0  0  0  0  0  0  0  0  0
   57.8200   29.3020   46.0280 C   0  0  0  0  0  0  0  0  0  0  0  0
   57.7690   27.8990   45.9260 C   0  0  0  0  0  0  0  0  0  0  0  0
   58.6400   27.1070   46.6810 C   0  0  0  0  0  0  0  0  0  0  0  0
   59.5630   27.7040   47.5450 C   0  0  0  0  0  0  0  0  0  0  0  0
   59.6050   29.1020   47.6830 C   0  0  0  0  0  0  0  0  0  0  0  0
   60.5530   29.7460   48.5510 N   0  0  0  0  0  0  0  0  0  0  0  0
   61.0050   29.2100   49.8050 C   0  0  0  0  0  0  0  0  0  0  0  0
   60.5030   28.1530   50.2780 O   0  0  0  0  0  0  0  0  0  0  0  0
   62.0150   29.9630   50.6070 C   0  0  0  0  0  0  0  0  0  0  0  0
   61.2240   31.4440   51.3140 S   0  0  0  0  0  0  0  0  0  0  0  0
   61.2480   32.3550   49.7620 C   0  0  0  0  0  0  0  0  0  0  0  0
   60.0840   32.4400   49.0510 N   0  0  0  0  0  0  0  0  0  0  0  0
   60.0850   33.1400   47.8950 C   0  0  0  0  0  0  0  0  0  0  0  0
   61.2000   33.7620   47.4130 C   0  0  0  0  0  0  0  0  0  0  0  0
   60.9480   34.3990   46.2470 N   0  0  0  0  0  0  0  0  0  0  0  0
   59.6360   34.1590   46.0090 C   0  0  0  0  0  0  0  0  0  0  0  0
   58.8820   34.6000   44.9220 C   0  0  0  0  0  0  0  0  0  0  0  0
   57.5220   34.2350   44.8730 C   0  0  0  0  0  0  0  0  0  0  0  0
   56.9510   33.4450   45.8980 C   0  0  0  0  0  0  0  0  0  0  0  0
   57.7300   33.0090   46.9860 C   0  0  0  0  0  0  0  0  0  0  0  0
   59.0700   33.3870   47.0050 C   0  0  0  0  0  0  0  0  0  0  0  0
   62.3890   33.6840   48.1250 C   0  0  0  0  0  0  0  0  0  0  0  0
   63.4290   34.2520   47.6890 O   0  0  0  0  0  0  0  0  0  0  0  0
   62.4020   32.9740   49.3040 N   0  0  0  0  0  0  0  0  0  0  0  0
   63.6210   32.8900   50.0670 C   0  0  0  0  0  0  0  0  0  0  0  0
   64.6120   31.9600   49.7190 C   0  0  0  0  0  0  0  0  0  0  0  0
   65.7780   31.8560   50.4850 C   0  0  0  0  0  0  0  0  0  0  0  0
   65.9610   32.6820   51.5990 C   0  0  0  0  0  0  0  0  0  0  0  0
   64.9800   33.6180   51.9430 C   0  0  0  0  0  0  0  0  0  0  0  0
   63.8140   33.7250   51.1780 C   0  0  0  0  0  0  0  0  0  0  0  0
   58.7420   29.8890   46.9050 C   0  0  0  0  0  0  0  0  0  0  0  0
   57.8464   31.5163   44.0003 H   0  0  0  0  0  0  0  0  0  0  0  0
   57.8367   29.8144   43.4257 H   0  0  0  0  0  0  0  0  0  0  0  0
   56.3163   30.7711   43.4257 H   0  0  0  0  0  0  0  0  0  0  0  0
   57.0421   27.4242   45.2506 H   0  0  0  0  0  0  0  0  0  0  0  0
   58.5988   26.0112   46.5948 H   0  0  0  0  0  0  0  0  0  0  0  0
   60.2599   27.0763   48.1197 H   0  0  0  0  0  0  0  0  0  0  0  0
   60.8490   30.7170   48.3100 H   0  0  0  0  0  0  0  0  0  0  0  0
   62.3931   29.3237   51.4183 H   0  0  0  0  0  0  0  0  0  0  0  0
   62.8548   30.2614   49.9623 H   0  0  0  0  0  0  0  0  0  0  0  0
   61.6130   34.9510   45.6610 H   0  0  0  0  0  0  0  0  0  0  0  0
   59.3343   35.2130   44.1285 H   0  0  0  0  0  0  0  0  0  0  0  0
   56.8986   34.5675   44.0299 H   0  0  0  0  0  0  0  0  0  0  0  0
   55.8876   33.1687   45.8442 H   0  0  0  0  0  0  0  0  0  0  0  0
   57.2976   32.3942   47.7892 H   0  0  0  0  0  0  0  0  0  0  0  0
   64.4719   31.3111   48.8419 H   0  0  0  0  0  0  0  0  0  0  0  0
   66.5518   31.1238   50.2110 H   0  0  0  0  0  0  0  0  0  0  0  0
   66.8756   32.5956   52.2040 H   0  0  0  0  0  0  0  0  0  0  0  0
   65.1258   34.2707   52.8163 H   0  0  0  0  0  0  0  0  0  0  0  0
   63.0466   34.4654   51.4479 H   0  0  0  0  0  0  0  0  0  0  0  0
   58.7901   30.9850   46.9849 H   0  0  0  0  0  0  0  0  0  0  0  0
  1  2  1  0
  2  3  1  0
  3  4  2  0
  4  5  1  0
  5  6  2  0
  6  7  1  0
  7  8  1  0
  8  9  1  0
  9 10  2  0
  9 11  1  0
 11 12  1  0
 12 13  1  0
 13 14  2  0
 14 15  1  0
 15 16  2  0
 16 17  1  0
 17 18  1  0
 18 19  2  0
 19 20  1  0
 20 21  2  0
 21 22  1  0
 22 23  2  0
 16 24  1  0
 24 25  2  0
 24 26  1  0
 26 27  1  0
 27 28  2  0
 28 29  1  0
 29 30  2  0
 30 31  1  0
 31 32  2  0
  7 33  2  0
 33  3  1  0
 26 13  1  0
 32 27  1  0
 23 15  1  0
 23 18  1  0
  1 34  1  0
  1 35  1  0
  1 36  1  0
  4 37  1  0
  5 38  1  0
  6 39  1  0
  8 40  1  0
 11 41  1  0
 11 42  1  0
 17 43  1  0
 19 44  1  0
 20 45  1  0
 21 46  1  0
 22 47  1  0
 28 48  1  0
 29 49  1  0
 30 50  1  0
 31 51  1  0
 32 52  1  0
 33 53  1  0
M  END
>  <UniqueID>  (20) 
18

>  <SMILES>  (20) 
COc1cccc(NC(=O)CSc2nc3c([nH]c4ccccc43)c(=O)n2-c2ccccc2)c1

>  <Energy>  (20) 
109.35950981976352

>  <Genealogy>  (20) 
COc1cccc(NC(=O)CSc2nc3c([nH]c4ccccc43)c(=O)n2-c2ccccc2)c1 (3D coordinates assigned)
COc1cccc(NC(=O)CSc2nc3c([nH]c4ccccc43)c(=O)n2-c2ccccc2)c1 (optimized conformer: 109.35950981976352 kcal/mol)

>  <smiles>  (20) 
COc1cccc(NC(=O)CSc2nc3c([nH]c4ccccc43)c(=O)n2-c2ccccc2)c1

>  <score_type>  (20) 
oracle

>  <origin>  (20) 
adg

>  <m_score__min__energy>  (20) 
-8.5299999999999994

>  <m_primary>  (20) 
energy

$$$$
20:0
     RDKit          3D

 46 48  0  0  0  0  0  0  0  0999 V2000
   59.8714   25.6144   47.3340 H   0  0  0  0  0  0  0  0  0  0  0  0
   59.4740   26.5240   46.8600 C   0  0  0  0  0  0  0  0  0  0  0  0
   58.1040   26.7880   46.8950 C   0  0  0  0  0  0  0  0  0  0  0  0
   57.4227   26.0856   47.3975 H   0  0  0  0  0  0  0  0  0  0  0  0
   57.5950   27.9430   46.2930 C   0  0  0  0  0  0  0  0  0  0  0  0
   56.5145   28.1465   46.3278 H   0  0  0  0  0  0  0  0  0  0  0  0
   58.4570   28.8480   45.6420 C   0  0  0  0  0  0  0  0  0  0  0  0
   57.9200   30.0760   45.0020 C   0  0  0  0  0  0  0  0  0  0  0  0
   57.5950   31.0910   45.7550 N   0  0  0  0  0  0  0  0  0  0  0  0
   58.3600   32.2930   45.9230 C   0  0  0  0  0  0  0  0  0  0  0  0
   57.9850   33.4140   45.1780 C   0  0  0  0  0  0  0  0  0  0  0  0
   57.1018   33.3712   44.5237 H   0  0  0  0  0  0  0  0  0  0  0  0
   58.7310   34.5830   45.2660 C   0  0  0  0  0  0  0  0  0  0  0  0
   58.4351   35.4719   44.6896 H   0  0  0  0  0  0  0  0  0  0  0  0
   59.8520   34.6240   46.0850 C   0  0  0  0  0  0  0  0  0  0  0  0
   60.4620   35.5378   46.1391 H   0  0  0  0  0  0  0  0  0  0  0  0
   60.2050   33.4960   46.8440 C   0  0  0  0  0  0  0  0  0  0  0  0
   61.4440   33.5670   47.6540 C   0  0  0  0  0  0  0  0  0  0  0  0
   61.4150   34.1100   48.9490 C   0  0  0  0  0  0  0  0  0  0  0  0
   60.4665   34.4768   49.3683 H   0  0  0  0  0  0  0  0  0  0  0  0
   62.5870   34.1860   49.7070 C   0  0  0  0  0  0  0  0  0  0  0  0
   62.5578   34.6065   50.7231 H   0  0  0  0  0  0  0  0  0  0  0  0
   63.7970   33.7280   49.1750 C   0  0  0  0  0  0  0  0  0  0  0  0
   64.7181   33.7851   49.7737 H   0  0  0  0  0  0  0  0  0  0  0  0
   63.8350   33.1980   47.8830 C   0  0  0  0  0  0  0  0  0  0  0  0
   64.7872   32.8407   47.4638 H   0  0  0  0  0  0  0  0  0  0  0  0
   62.6650   33.1210   47.1220 C   0  0  0  0  0  0  0  0  0  0  0  0
   62.7007   32.7095   46.1025 H   0  0  0  0  0  0  0  0  0  0  0  0
   59.4200   32.3630   46.8030 N   0  0  0  0  0  0  0  0  0  0  0  0
   59.6910   31.2390   47.7180 C   0  0  0  0  0  0  0  0  0  0  0  0
   59.6075   31.5851   48.7588 H   0  0  0  0  0  0  0  0  0  0  0  0
   58.9607   30.4361   47.5389 H   0  0  0  0  0  0  0  0  0  0  0  0
   60.7069   30.8572   47.5389 H   0  0  0  0  0  0  0  0  0  0  0  0
   57.7790   30.1260   43.5700 N   0  0  0  0  0  0  0  0  0  0  0  0
   58.5300   29.6770   42.9970 H   0  0  0  0  0  0  0  0  0  0  0  0
   56.5090   30.4710   42.9270 C   0  0  0  0  0  0  0  0  0  0  0  0
   56.5589   30.2000   41.8621 H   0  0  0  0  0  0  0  0  0  0  0  0
   56.3393   31.5519   43.0401 H   0  0  0  0  0  0  0  0  0  0  0  0
   55.3500   29.7240   43.5790 C   0  0  0  0  0  0  0  0  0  0  0  0
   55.4440   29.7846   44.6733 H   0  0  0  0  0  0  0  0  0  0  0  0
   54.3985   30.1793   43.2670 H   0  0  0  0  0  0  0  0  0  0  0  0
   55.3716   28.6694   43.2670 H   0  0  0  0  0  0  0  0  0  0  0  0
   59.8380   28.5710   45.6190 C   0  0  0  0  0  0  0  0  0  0  0  0
   60.5266   29.2700   45.1218 H   0  0  0  0  0  0  0  0  0  0  0  0
   60.3400   27.4150   46.2230 C   0  0  0  0  0  0  0  0  0  0  0  0
   61.4198   27.2066   46.1965 H   0  0  0  0  0  0  0  0  0  0  0  0
  1  2  1  0
  2  3  2  0
  3  4  1  0
  3  5  1  0
  5  6  1  0
  5  7  2  0
  7  8  1  0
  8  9  2  0
  9 10  1  0
 10 11  2  0
 11 12  1  0
 11 13  1  0
 13 14  1  0
 13 15  2  0
 15 16  1  0
 15 17  1  0
 17 18  1  0
 18 19  2  0
 19 20  1  0
 19 21  1  0
 21 22  1  0
 21 23  2  0
 23 24  1  0
 23 25  1  0
 25 26  1  0
 25 27  2  0
 27 28  1  0
 17 29  2  0
 29 30  1  0
 30 31  1  0
 30 32  1  0
 30 33  1  0
  8 34  1  0
 34 35  1  0
 34 36  1  0
 36 37  1  0
 36 38  1  0
 36 39  1  0
 39 40  1  0
 39 41  1  0
 39 42  1  0
  7 43  1  0
 43 44  1  0
 43 45  2  0
 45 46  1  0
 45  2  1  0
 29 10  1  0
 27 18  1  0
M  CHG  1  29   1
M  END
>  <UniqueID>  (21) 
19

>  <SMILES>  (21) 
CCN/C(=N\c1cccc(-c2ccccc2)[n+]1C)c1ccccc1

>  <Energy>  (21) 
68.27817885779446

>  <Genealogy>  (21) 
CCN/C(=N\c1cccc(-c2ccccc2)[n+]1C)c1ccccc1 (cis-trans isomerization)
CCN/C(=N\c1cccc(-c2ccccc2)[n+]1C)c1ccccc1 (3D coordinates assigned)
CCN/C(=N\c1cccc(-c2ccccc2)[n+]1C)c1ccccc1 (optimized conformer: 68.27817885779446 kcal/mol)

>  <smiles>  (21) 
CCNC(=Nc1cccc(-c2ccccc2)[n+]1C)c1ccccc1

>  <score_type>  (21) 
oracle

>  <origin>  (21) 
adg

>  <m_score__min__energy>  (21) 
-7.46

>  <m_primary>  (21) 
energy

$$$$
21:0
     RDKit          3D

 33 35  0  0  0  0  0  0  0  0999 V2000
   55.8940   29.0770   44.6980 C   0  0  0  0  0  0  0  0  0  0  0  0
   56.8800   28.1790   45.3190 N   0  0  0  0  0  0  0  0  0  0  0  0
   56.4740   27.0130   45.9350 C   0  0  0  0  0  0  0  0  0  0  0  0
   55.2530   26.7080   45.9990 O   0  0  0  0  0  0  0  0  0  0  0  0
   57.3870   26.1620   46.4890 N   0  0  0  0  0  0  0  0  0  0  0  0
   58.7100   26.4490   46.4530 C   0  0  0  0  0  0  0  0  0  0  0  0
   59.5500   25.6540   46.9560 O   0  0  0  0  0  0  0  0  0  0  0  0
   59.1020   27.6020   45.8710 N   0  0  0  0  0  0  0  0  0  0  0  0
   60.3280   28.1190   45.6940 C   0  0  0  0  0  0  0  0  0  0  0  0
   60.2640   29.3040   45.0540 N   0  0  0  0  0  0  0  0  0  0  0  0
   58.9480   29.5540   44.8330 C   0  0  0  0  0  0  0  0  0  0  0  0
   58.4510   30.7800   44.1050 C   0  0  0  0  0  0  0  0  0  0  0  0
   58.7160   32.0090   44.8810 N   0  0  0  0  0  0  0  0  0  0  0  0
   58.1570   31.9560   46.2460 C   0  0  0  0  0  0  0  0  0  0  0  0
   57.3860   33.2470   46.4960 C   0  0  0  0  0  0  0  0  0  0  0  0
   57.7580   34.1500   45.3400 C   0  0  0  0  0  0  0  0  0  0  0  0
   58.8520   34.9310   45.6760 F   0  0  0  0  0  0  0  0  0  0  0  0
   56.6980   34.9610   44.9720 F   0  0  0  0  0  0  0  0  0  0  0  0
   58.1270   33.1870   44.2320 C   0  0  0  0  0  0  0  0  0  0  0  0
   58.2260   28.4620   45.3320 C   0  0  0  0  0  0  0  0  0  0  0  0
   55.3246   29.5956   45.4834 H   0  0  0  0  0  0  0  0  0  0  0  0
   56.4148   29.8175   44.0731 H   0  0  0  0  0  0  0  0  0  0  0  0
   55.2053   28.4894   44.0731 H   0  0  0  0  0  0  0  0  0  0  0  0
   61.2606   27.6398   46.0267 H   0  0  0  0  0  0  0  0  0  0  0  0
   61.0790   29.8950   44.7780 H   0  0  0  0  0  0  0  0  0  0  0  0
   58.9625   30.8521   43.1338 H   0  0  0  0  0  0  0  0  0  0  0  0
   57.3640   30.6846   43.9660 H   0  0  0  0  0  0  0  0  0  0  0  0
   57.4796   31.0942   46.3377 H   0  0  0  0  0  0  0  0  0  0  0  0
   58.9658   31.8478   46.9836 H   0  0  0  0  0  0  0  0  0  0  0  0
   56.3028   33.0558   46.5052 H   0  0  0  0  0  0  0  0  0  0  0  0
   57.6328   33.6959   47.4694 H   0  0  0  0  0  0  0  0  0  0  0  0
   57.2297   32.8991   43.6645 H   0  0  0  0  0  0  0  0  0  0  0  0
   58.8339   33.6464   43.5254 H   0  0  0  0  0  0  0  0  0  0  0  0
  1  2  1  0
  2  3  1  0
  3  4  2  0
  3  5  1  0
  5  6  1  0
  6  7  2  0
  6  8  1  0
  8  9  1  0
  9 10  2  0
 10 11  1  0
 11 12  1  0
 12 13  1  0
 13 14  1  0
 14 15  1  0
 15 16  1  0
 16 17  1  0
 16 18  1  0
 16 19  1  0
 11 20  2  0
 20  2  1  0
 20  8  1  0
 19 13  1  0
  1 21  1  0
  1 22  1  0
  1 23  1  0
  9 24  1  0
 10 25  1  0
 12 26  1  0
 12 27  1  0
 14 28  1  0
 14 29  1  0
 15 30  1  0
 15 31  1  0
 19 32  1  0
 19 33  1  0
M  CHG  2   5  -1  10   1
M  END
>  <UniqueID>  (22) 
20

>  <SMILES>  (22) 
Cn1c(=O)[n-]c(=O)n2c[nH+]c(CN3CCC(F)(F)C3)c12

>  <Energy>  (22) 
82.6041047696063

>  <Genealogy>  (22) 
Cn1c(=O)[n-]c(=O)n2c[nH+]c(CN3CCC(F)(F)C3)c12 (protonated)
Cn1c(=O)[n-]c(=O)n2c[nH+]c(CN3CCC(F)(F)C3)c12 (3D coordinates assigned)
Cn1c(=O)[n-]c(=O)n2c[nH+]c(CN3CCC(F)(F)C3)c12 (nonaromatic ring conformer: 82.6041047696063 kcal/mol)

>  <smiles>  (22) 
Cn1c(=O)[nH]c(=O)n2cnc(CN3CCC(F)(F)C3)c12

>  <score_type>  (22) 
oracle

>  <origin>  (22) 
adg

>  <m_score__min__energy>  (22) 
-5.71

>  <m_primary>  (22) 
energy

$$$$
22:0
     RDKit          3D

 59 61  0  0  0  0  0  0  0  0999 V2000
   54.0100   23.8590   46.1480 C   0  0  0  0  0  0  0  0  0  0  0  0
   54.8030   24.8080   45.2580 C   0  0  0  0  0  0  0  0  0  0  0  0
   55.2850   25.9130   46.0190 O   0  0  0  0  0  0  0  0  0  0  0  0
   56.6400   26.1930   46.2520 C   0  0  0  0  0  0  0  0  0  0  0  0
   57.4540   27.1100   45.6090 C   0  0  0  0  0  0  0  0  0  0  0  0
   57.1480   27.8100   44.4000 N   0  0  0  0  0  0  0  0  0  0  0  0
   56.4660   29.4010   44.3510 S   0  0  0  0  0  0  0  0  0  0  0  0
   56.0540   29.7660   42.9550 O   0  0  0  0  0  0  0  0  0  0  0  0
   55.2400   29.4220   45.2210 O   0  0  0  0  0  0  0  0  0  0  0  0
   57.6310   30.5650   44.9710 C   0  0  0  0  0  0  0  0  0  0  0  0
   57.6780   31.8660   44.4520 C   0  0  0  0  0  0  0  0  0  0  0  0
   58.5770   32.8000   44.9720 C   0  0  0  0  0  0  0  0  0  0  0  0
   59.4410   32.4520   46.0260 C   0  0  0  0  0  0  0  0  0  0  0  0
   60.3900   33.4540   46.5670 C   0  0  0  0  0  0  0  0  0  0  0  0
   59.9670   34.6020   46.8780 O   0  0  0  0  0  0  0  0  0  0  0  0
   61.7780   33.1350   46.7620 N   0  0  0  0  0  0  0  0  0  0  0  0
   62.7700   34.1500   47.1080 C   0  0  0  0  0  0  0  0  0  0  0  0
   63.3410   33.8770   48.4730 C   0  0  0  0  0  0  0  0  0  0  0  0
   64.4820   33.0730   48.6220 C   0  0  0  0  0  0  0  0  0  0  0  0
   64.9980   32.8090   49.8950 C   0  0  0  0  0  0  0  0  0  0  0  0
   64.3700   33.3330   51.0360 C   0  0  0  0  0  0  0  0  0  0  0  0
   64.9490   33.0810   52.3970 C   0  0  0  0  0  0  0  0  0  0  0  0
   63.2360   34.1460   50.8870 C   0  0  0  0  0  0  0  0  0  0  0  0
   62.7200   34.4090   49.6140 C   0  0  0  0  0  0  0  0  0  0  0  0
   59.3990   31.1400   46.5320 C   0  0  0  0  0  0  0  0  0  0  0  0
   58.4960   30.2080   46.0110 C   0  0  0  0  0  0  0  0  0  0  0  0
   58.7080   26.9190   46.1740 C   0  0  0  0  0  0  0  0  0  0  0  0
   60.0010   27.5280   45.7430 C   0  0  0  0  0  0  0  0  0  0  0  0
   58.6280   25.9730   47.1330 N   0  0  0  0  0  0  0  0  0  0  0  0
   57.3740   25.5500   47.1800 N   0  0  0  0  0  0  0  0  0  0  0  0
   56.9130   24.4780   48.0580 C   0  0  0  0  0  0  0  0  0  0  0  0
   57.0110   23.1330   47.3470 C   0  0  0  0  0  0  0  0  0  0  0  0
   57.0260   22.1120   48.2790 F   0  0  0  0  0  0  0  0  0  0  0  0
   54.2076   24.0955   47.2039 H   0  0  0  0  0  0  0  0  0  0  0  0
   52.9357   23.9741   45.9413 H   0  0  0  0  0  0  0  0  0  0  0  0
   54.3141   22.8223   45.9413 H   0  0  0  0  0  0  0  0  0  0  0  0
   55.6563   24.2682   44.8214 H   0  0  0  0  0  0  0  0  0  0  0  0
   54.1459   25.1828   44.4594 H   0  0  0  0  0  0  0  0  0  0  0  0
   57.0039   32.1529   43.6315 H   0  0  0  0  0  0  0  0  0  0  0  0
   58.6096   33.8168   44.5535 H   0  0  0  0  0  0  0  0  0  0  0  0
   62.0950   32.1400   46.7170 H   0  0  0  0  0  0  0  0  0  0  0  0
   63.5811   34.1330   46.3652 H   0  0  0  0  0  0  0  0  0  0  0  0
   62.2852   35.1374   47.1135 H   0  0  0  0  0  0  0  0  0  0  0  0
   64.9726   32.6487   47.7336 H   0  0  0  0  0  0  0  0  0  0  0  0
   65.8997   32.1882   50.0025 H   0  0  0  0  0  0  0  0  0  0  0  0
   64.2279   33.3949   53.1661 H   0  0  0  0  0  0  0  0  0  0  0  0
   65.1634   32.0082   52.5114 H   0  0  0  0  0  0  0  0  0  0  0  0
   65.8802   33.6552   52.5114 H   0  0  0  0  0  0  0  0  0  0  0  0
   62.7511   34.5781   51.7748 H   0  0  0  0  0  0  0  0  0  0  0  0
   61.8227   35.0361   49.5063 H   0  0  0  0  0  0  0  0  0  0  0  0
   60.0812   30.8453   47.3430 H   0  0  0  0  0  0  0  0  0  0  0  0
   58.4656   29.1879   46.4214 H   0  0  0  0  0  0  0  0  0  0  0  0
   60.5895   27.8052   46.6301 H   0  0  0  0  0  0  0  0  0  0  0  0
   60.5658   26.8013   45.1407 H   0  0  0  0  0  0  0  0  0  0  0  0
   59.8004   28.4263   45.1407 H   0  0  0  0  0  0  0  0  0  0  0  0
   57.5377   24.4564   48.9632 H   0  0  0  0  0  0  0  0  0  0  0  0
   55.8632   24.6639   48.3290 H   0  0  0  0  0  0  0  0  0  0  0  0
   56.1443   23.0075   46.6814 H   0  0  0  0  0  0  0  0  0  0  0  0
   57.9386   23.1003   46.7567 H   0  0  0  0  0  0  0  0  0  0  0  0
  1  2  1  0
  2  3  1  0
  3  4  1  0
  4  5  2  0
  5  6  1  0
  6  7  1  0
  7  8  2  0
  7  9  2  0
  7 10  1  0
 10 11  2  0
 11 12  1  0
 12 13  2  0
 13 14  1  0
 14 15  2  0
 14 16  1  0
 16 17  1  0
 17 18  1  0
 18 19  2  0
 19 20  1  0
 20 21  2  0
 21 22  1  0
 21 23  1  0
 23 24  2  0
 13 25  1  0
 25 26  2  0
  5 27  1  0
 27 28  1  0
 27 29  2  0
 29 30  1  0
 30 31  1  0
 31 32  1  0
 32 33  1  0
 30  4  1  0
 26 10  1  0
 24 18  1  0
  1 34  1  0
  1 35  1  0
  1 36  1  0
  2 37  1  0
  2 38  1  0
 11 39  1  0
 12 40  1  0
 16 41  1  0
 17 42  1  0
 17 43  1  0
 19 44  1  0
 20 45  1  0
 22 46  1  0
 22 47  1  0
 22 48  1  0
 23 49  1  0
 24 50  1  0
 25 51  1  0
 26 52  1  0
 28 53  1  0
 28 54  1  0
 28 55  1  0
 31 56  1  0
 31 57  1  0
 32 58  1  0
 32 59  1  0
M  CHG  1   6  -1
M  END
>  <UniqueID>  (23) 
21

>  <SMILES>  (23) 
CCOc1c([N-]S(=O)(=O)c2ccc(C(=O)NCc3ccc(C)cc3)cc2)c(C)nn1CCF

>  <Energy>  (23) 
92.16494628104195

>  <Genealogy>  (23) 
CCOc1c([N-]S(=O)(=O)c2ccc(C(=O)NCc3ccc(C)cc3)cc2)c(C)nn1CCF (protonated)
CCOc1c([N-]S(=O)(=O)c2ccc(C(=O)NCc3ccc(C)cc3)cc2)c(C)nn1CCF (3D coordinates assigned)
CCOc1c([N-]S(=O)(=O)c2ccc(C(=O)NCc3ccc(C)cc3)cc2)c(C)nn1CCF (optimized conformer: 92.16494628104195 kcal/mol)

>  <smiles>  (23) 
CCOc1c(NS(=O)(=O)c2ccc(C(=O)NCc3ccc(C)cc3)cc2)c(C)nn1CCF

>  <score_type>  (23) 
oracle

>  <origin>  (23) 
adg

>  <m_score__min__energy>  (23) 
-10.85

>  <m_primary>  (23) 
energy

$$$$
23:0
     RDKit          3D

 58 61  0  0  0  0  0  0  0  0999 V2000
   55.1660   26.6720   46.3510 O   0  0  0  0  0  0  0  0  0  0  0  0
   56.2910   26.3310   45.8940 C   0  0  0  0  0  0  0  0  0  0  0  0
   56.9080   25.1050   46.3110 N   0  0  0  0  0  0  0  0  0  0  0  0
   57.2850   24.0080   45.4680 C   0  0  0  0  0  0  0  0  0  0  0  0
   58.5070   23.3260   45.6300 C   0  0  0  0  0  0  0  0  0  0  0  0
   58.8240   22.2450   44.8010 C   0  0  0  0  0  0  0  0  0  0  0  0
   57.9240   21.8280   43.8180 C   0  0  0  0  0  0  0  0  0  0  0  0
   56.6990   22.4840   43.6680 C   0  0  0  0  0  0  0  0  0  0  0  0
   56.3780   23.5650   44.4960 C   0  0  0  0  0  0  0  0  0  0  0  0
   57.0200   27.2560   44.9570 C   0  0  2  0  0  0  0  0  0  0  0  0
   58.5250   27.2260   45.2330 C   0  0  0  0  0  0  0  0  0  0  0  0
   59.2830   28.2170   44.3330 C   0  0  0  0  0  0  0  0  0  0  0  0
   58.7160   29.5970   44.2820 N   0  0  2  0  0  0  0  0  0  0  0  0
   59.2540   30.6100   45.2480 C   0  0  0  0  0  0  0  0  0  0  0  0
   59.7060   29.9880   46.5930 C   0  0  0  0  0  0  0  0  0  0  0  0
   60.5670   30.9970   47.3710 C   0  0  0  0  0  0  0  0  0  0  0  0
   60.0280   32.3630   47.2520 N   0  0  0  0  0  0  0  0  0  0  0  0
   60.9120   33.4980   47.3380 C   0  0  0  0  0  0  0  0  0  0  0  0
   60.7570   34.4670   46.5460 O   0  0  0  0  0  0  0  0  0  0  0  0
   62.0130   33.5440   48.3260 C   0  0  0  0  0  0  0  0  0  0  0  0
   63.2740   33.0140   48.0010 C   0  0  0  0  0  0  0  0  0  0  0  0
   64.3210   33.0660   48.9280 C   0  0  0  0  0  0  0  0  0  0  0  0
   64.1210   33.6550   50.1780 C   0  0  0  0  0  0  0  0  0  0  0  0
   65.1380   33.7060   51.0740 F   0  0  0  0  0  0  0  0  0  0  0  0
   62.8770   34.2010   50.5030 C   0  0  0  0  0  0  0  0  0  0  0  0
   61.8270   34.1510   49.5800 C   0  0  0  0  0  0  0  0  0  0  0  0
   58.6300   32.5470   46.8370 C   0  0  0  0  0  0  0  0  0  0  0  0
   58.3550   31.8540   45.4880 C   0  0  0  0  0  0  0  0  0  0  0  0
   57.2360   29.6310   44.1370 C   0  0  0  0  0  0  0  0  0  0  0  0
   56.4880   28.6830   45.0870 C   0  0  0  0  0  0  0  0  0  0  0  0
   59.2137   23.6445   46.4105 H   0  0  0  0  0  0  0  0  0  0  0  0
   59.7841   21.7223   44.9236 H   0  0  0  0  0  0  0  0  0  0  0  0
   58.1793   20.9830   43.1616 H   0  0  0  0  0  0  0  0  0  0  0  0
   55.9871   22.1502   42.8987 H   0  0  0  0  0  0  0  0  0  0  0  0
   55.4075   24.0704   44.3833 H   0  0  0  0  0  0  0  0  0  0  0  0
   56.8450   26.9090   43.9279 H   0  0  0  0  0  0  0  0  0  0  0  0
   58.9029   26.2104   45.0440 H   0  0  0  0  0  0  0  0  0  0  0  0
   58.6896   27.5162   46.2812 H   0  0  0  0  0  0  0  0  0  0  0  0
   59.2856   27.8130   43.3099 H   0  0  0  0  0  0  0  0  0  0  0  0
   60.2872   28.3175   44.7706 H   0  0  0  0  0  0  0  0  0  0  0  0
   59.0520   29.9620   43.3570 H   0  0  0  0  0  0  0  0  0  0  0  0
   60.1443   30.9909   44.7262 H   0  0  0  0  0  0  0  0  0  0  0  0
   60.2956   29.0806   46.3957 H   0  0  0  0  0  0  0  0  0  0  0  0
   58.8188   29.7313   47.1905 H   0  0  0  0  0  0  0  0  0  0  0  0
   61.5909   30.9794   46.9694 H   0  0  0  0  0  0  0  0  0  0  0  0
   60.5613   30.7124   48.4335 H   0  0  0  0  0  0  0  0  0  0  0  0
   63.4382   32.5567   47.0142 H   0  0  0  0  0  0  0  0  0  0  0  0
   65.3031   32.6422   48.6715 H   0  0  0  0  0  0  0  0  0  0  0  0
   62.7229   34.6707   51.4857 H   0  0  0  0  0  0  0  0  0  0  0  0
   60.8511   34.5888   49.8368 H   0  0  0  0  0  0  0  0  0  0  0  0
   58.4238   33.6228   46.7367 H   0  0  0  0  0  0  0  0  0  0  0  0
   57.9774   32.0974   47.5998 H   0  0  0  0  0  0  0  0  0  0  0  0
   58.5354   32.5776   44.6794 H   0  0  0  0  0  0  0  0  0  0  0  0
   57.3114   31.5065   45.5043 H   0  0  0  0  0  0  0  0  0  0  0  0
   56.9842   29.3526   43.1030 H   0  0  0  0  0  0  0  0  0  0  0  0
   56.9167   30.6520   44.3933 H   0  0  0  0  0  0  0  0  0  0  0  0
   55.4168   28.6930   44.8373 H   0  0  0  0  0  0  0  0  0  0  0  0
   56.6424   29.0248   46.1211 H   0  0  0  0  0  0  0  0  0  0  0  0
  1  2  2  0
  2  3  1  0
  3  4  1  0
  4  5  2  0
  5  6  1  0
  6  7  2  0
  7  8  1  0
  8  9  2  0
  2 10  1  0
 10 11  1  0
 11 12  1  0
 12 13  1  0
 13 14  1  0
 14 15  1  0
 15 16  1  0
 16 17  1  0
 17 18  1  0
 18 19  2  0
 18 20  1  0
 20 21  2  0
 21 22  1  0
 22 23  2  0
 23 24  1  0
 23 25  1  0
 25 26  2  0
 17 27  1  0
 27 28  1  0
 13 29  1  0
 29 30  1  0
  9  4  1  0
 30 10  1  0
 28 14  1  0
 26 20  1  0
  5 31  1  0
  6 32  1  0
  7 33  1  0
  8 34  1  0
  9 35  1  0
 10 36  1  1
 11 37  1  0
 11 38  1  0
 12 39  1  0
 12 40  1  0
 13 41  1  1
 14 42  1  0
 15 43  1  0
 15 44  1  0
 16 45  1  0
 16 46  1  0
 21 47  1  0
 22 48  1  0
 25 49  1  0
 26 50  1  0
 27 51  1  0
 27 52  1  0
 28 53  1  0
 28 54  1  0
 29 55  1  0
 29 56  1  0
 30 57  1  0
 30 58  1  0
M  CHG  2   3  -1  13   1
M  END
>  <UniqueID>  (24) 
22

>  <SMILES>  (24) 
O=C([N-]c1ccccc1)C1CC[NH+](C2CCN(C(=O)c3ccc(F)cc3)CC2)CC1

>  <Energy>  (24) 
85.71169488326538

>  <Genealogy>  (24) 
O=C([N-]c1ccccc1)C1CC[NH+](C2CCN(C(=O)c3ccc(F)cc3)CC2)CC1 (protonated)
O=C([N-]c1ccccc1)C1CC[NH+](C2CCN(C(=O)c3ccc(F)cc3)CC2)CC1 (3D coordinates assigned)
O=C([N-]c1ccccc1)C1CC[NH+](C2CCN(C(=O)c3ccc(F)cc3)CC2)CC1 (nonaromatic ring conformer: 85.71169488326538 kcal/mol)

>  <smiles>  (24) 
O=C(Nc1ccccc1)C1CCN(C2CCN(C(=O)c3ccc(F)cc3)CC2)CC1

>  <score_type>  (24) 
oracle

>  <origin>  (24) 
adg

>  <m_score__min__energy>  (24) 
-8.9800000000000004

>  <m_primary>  (24) 
energy

$$$$
24:0
     RDKit          3D

 48 51  0  0  0  0  0  0  0  0999 V2000
   59.0920   24.8090   45.9660 C   0  0  0  0  0  0  0  0  0  0  0  0
   59.8460   25.9680   46.3040 O   0  0  0  0  0  0  0  0  0  0  0  0
   59.4910   27.2770   45.9430 C   0  0  0  0  0  0  0  0  0  0  0  0
   60.3930   28.3550   46.0260 C   0  0  0  0  0  0  0  0  0  0  0  0
   59.9900   29.6410   45.6530 C   0  0  0  0  0  0  0  0  0  0  0  0
   58.6870   29.8670   45.1900 C   0  0  0  0  0  0  0  0  0  0  0  0
   58.1870   31.4900   44.7080 S   0  0  0  0  0  0  0  0  0  0  0  0
   56.6970   31.6150   44.8700 O   0  0  0  0  0  0  0  0  0  0  0  0
   58.5160   31.7020   43.2560 O   0  0  0  0  0  0  0  0  0  0  0  0
   58.9760   32.7160   45.6680 N   0  0  0  0  0  0  0  0  0  0  0  0
   58.5340   32.6320   47.0740 C   0  0  0  0  0  0  0  0  0  0  0  0
   58.9090   33.8870   47.8920 C   0  0  0  0  0  0  0  0  0  0  0  0
   60.0260   34.7150   47.2300 C   0  0  0  0  0  0  0  0  0  0  0  0
   61.3580   33.9970   47.3290 C   0  0  0  0  0  0  0  0  0  0  0  0
   62.3090   33.7920   46.3270 C   0  0  0  0  0  0  0  0  0  0  0  0
   63.3330   33.0390   46.7870 N   0  0  0  0  0  0  0  0  0  0  0  0
   63.0390   32.7530   48.0660 C   0  0  0  0  0  0  0  0  0  0  0  0
   63.7900   31.9840   48.9530 C   0  0  0  0  0  0  0  0  0  0  0  0
   63.2830   31.7940   50.2510 C   0  0  0  0  0  0  0  0  0  0  0  0
   62.0490   32.3670   50.6280 C   0  0  0  0  0  0  0  0  0  0  0  0
   61.3110   33.1380   49.7100 C   0  0  0  0  0  0  0  0  0  0  0  0
   61.8420   33.3150   48.4320 C   0  0  0  0  0  0  0  0  0  0  0  0
   59.6420   35.0930   45.7760 C   0  0  0  0  0  0  0  0  0  0  0  0
   58.7280   34.0510   45.1040 C   0  0  0  0  0  0  0  0  0  0  0  0
   57.7870   28.7960   45.1080 C   0  0  0  0  0  0  0  0  0  0  0  0
   58.1890   27.5090   45.4820 C   0  0  0  0  0  0  0  0  0  0  0  0
   58.7635   24.3040   46.8864 H   0  0  0  0  0  0  0  0  0  0  0  0
   58.2121   25.1034   45.3752 H   0  0  0  0  0  0  0  0  0  0  0  0
   59.7178   24.1239   45.3752 H   0  0  0  0  0  0  0  0  0  0  0  0
   61.4185   28.1849   46.3856 H   0  0  0  0  0  0  0  0  0  0  0  0
   60.6991   30.4790   45.7234 H   0  0  0  0  0  0  0  0  0  0  0  0
   57.4406   32.5133   47.0928 H   0  0  0  0  0  0  0  0  0  0  0  0
   59.0442   31.7718   47.5321 H   0  0  0  0  0  0  0  0  0  0  0  0
   58.0154   34.5201   47.9950 H   0  0  0  0  0  0  0  0  0  0  0  0
   59.2815   33.5476   48.8698 H   0  0  0  0  0  0  0  0  0  0  0  0
   60.1428   35.6625   47.7764 H   0  0  0  0  0  0  0  0  0  0  0  0
   62.2349   34.1889   45.3038 H   0  0  0  0  0  0  0  0  0  0  0  0
   64.1750   32.7330   46.2490 H   0  0  0  0  0  0  0  0  0  0  0  0
   64.7488   31.5397   48.6476 H   0  0  0  0  0  0  0  0  0  0  0  0
   63.8517   31.1949   50.9774 H   0  0  0  0  0  0  0  0  0  0  0  0
   61.6617   32.2100   51.6455 H   0  0  0  0  0  0  0  0  0  0  0  0
   60.3467   33.5865   49.9912 H   0  0  0  0  0  0  0  0  0  0  0  0
   59.1182   36.0601   45.7921 H   0  0  0  0  0  0  0  0  0  0  0  0
   60.5728   35.1394   45.1916 H   0  0  0  0  0  0  0  0  0  0  0  0
   57.6768   34.3271   45.2736 H   0  0  0  0  0  0  0  0  0  0  0  0
   58.9424   34.0294   44.0253 H   0  0  0  0  0  0  0  0  0  0  0  0
   56.7616   28.9676   44.7486 H   0  0  0  0  0  0  0  0  0  0  0  0
   57.4771   26.6732   45.4134 H   0  0  0  0  0  0  0  0  0  0  0  0
  1  2  1  0
  2  3  1  0
  3  4  2  0
  4  5  1  0
  5  6  2  0
  6  7  1  0
  7  8  2  0
  7  9  2  0
  7 10  1  0
 10 11  1  0
 11 12  1  0
 12 13  1  0
 13 14  1  0
 14 15  2  0
 15 16  1  0
 16 17  1  0
 17 18  2  0
 18 19  1  0
 19 20  2  0
 20 21  1  0
 21 22  2  0
 13 23  1  0
 23 24  1  0
  6 25  1  0
 25 26  2  0
 26  3  1  0
 24 10  1  0
 22 14  1  0
 22 17  1  0
  1 27  1  0
  1 28  1  0
  1 29  1  0
  4 30  1  0
  5 31  1  0
 11 32  1  0
 11 33  1  0
 12 34  1  0
 12 35  1  0
 13 36  1  0
 15 37  1  0
 16 38  1  0
 18 39  1  0
 19 40  1  0
 20 41  1  0
 21 42  1  0
 23 43  1  0
 23 44  1  0
 24 45  1  0
 24 46  1  0
 25 47  1  0
 26 48  1  0
M  END
>  <UniqueID>  (25) 
23

>  <SMILES>  (25) 
COc1ccc(S(=O)(=O)N2CCC(c3c[nH]c4ccccc34)CC2)cc1

>  <Energy>  (25) 
87.93582896949424

>  <Genealogy>  (25) 
COc1ccc(S(=O)(=O)N2CCC(c3c[nH]c4ccccc34)CC2)cc1 (3D coordinates assigned)
COc1ccc(S(=O)(=O)N2CCC(c3c[nH]c4ccccc34)CC2)cc1 (nonaromatic ring conformer: 87.93582896949424 kcal/mol)

>  <smiles>  (25) 
COc1ccc(S(=O)(=O)N2CCC(c3c[nH]c4ccccc34)CC2)cc1

>  <score_type>  (25) 
oracle

>  <origin>  (25) 
adg

>  <m_score__min__energy>  (25) 
-9.0099999999999998

>  <m_primary>  (25) 
energy

$$$$
25:0
     RDKit          3D

 39 41  0  0  0  0  0  0  0  0999 V2000
   58.3340   25.0180   45.5730 O   0  0  0  0  0  0  0  0  0  0  0  0
   58.2860   26.1050   46.2090 C   0  0  0  0  0  0  0  0  0  0  0  0
   58.8830   26.2100   47.5060 N   0  0  0  0  0  0  0  0  0  0  0  0
   60.2330   26.7110   47.7360 C   0  0  0  0  0  0  0  0  0  0  0  0
   60.2010   28.1930   47.9940 C   0  0  0  0  0  0  0  0  0  0  0  0
   59.7680   28.6950   49.2330 C   0  0  0  0  0  0  0  0  0  0  0  0
   59.7640   30.0730   49.4710 C   0  0  0  0  0  0  0  0  0  0  0  0
   60.1930   30.9570   48.4770 C   0  0  0  0  0  0  0  0  0  0  0  0
   60.6300   30.4650   47.2450 C   0  0  0  0  0  0  0  0  0  0  0  0
   60.6370   29.0880   47.0030 C   0  0  0  0  0  0  0  0  0  0  0  0
   57.6150   27.2730   45.6180 C   0  0  0  0  0  0  0  0  0  0  0  0
   58.2260   28.3230   44.9490 C   0  0  0  0  0  0  0  0  0  0  0  0
   57.2910   29.2080   44.5340 N   0  0  0  0  0  0  0  0  0  0  0  0
   57.5350   30.4030   43.7290 C   0  0  0  0  0  0  0  0  0  0  0  0
   57.7970   31.5800   44.6270 C   0  0  0  0  0  0  0  0  0  0  0  0
   57.7790   31.4260   46.0230 C   0  0  0  0  0  0  0  0  0  0  0  0
   57.9810   32.5310   46.8560 C   0  0  0  0  0  0  0  0  0  0  0  0
   58.1920   33.7970   46.3010 C   0  0  0  0  0  0  0  0  0  0  0  0
   58.1970   33.9600   44.9140 C   0  0  0  0  0  0  0  0  0  0  0  0
   57.9950   32.8570   44.0780 C   0  0  0  0  0  0  0  0  0  0  0  0
   56.0940   28.7220   44.9180 C   0  0  0  0  0  0  0  0  0  0  0  0
   54.8750   29.3370   44.6530 O   0  0  0  0  0  0  0  0  0  0  0  0
   56.2580   27.5360   45.5930 C   0  0  0  0  0  0  0  0  0  0  0  0
   55.2460   26.7520   46.1330 O   0  0  0  0  0  0  0  0  0  0  0  0
   60.6665   26.1997   48.6082 H   0  0  0  0  0  0  0  0  0  0  0  0
   60.8451   26.5155   46.8432 H   0  0  0  0  0  0  0  0  0  0  0  0
   59.4312   28.0020   50.0180 H   0  0  0  0  0  0  0  0  0  0  0  0
   59.4228   30.4617   50.4418 H   0  0  0  0  0  0  0  0  0  0  0  0
   60.1865   32.0408   48.6651 H   0  0  0  0  0  0  0  0  0  0  0  0
   60.9691   31.1617   46.4642 H   0  0  0  0  0  0  0  0  0  0  0  0
   60.9853   28.7040   46.0328 H   0  0  0  0  0  0  0  0  0  0  0  0
   59.3086   28.4214   44.7810 H   0  0  0  0  0  0  0  0  0  0  0  0
   58.4094   30.2353   43.0830 H   0  0  0  0  0  0  0  0  0  0  0  0
   56.6495   30.6097   43.1099 H   0  0  0  0  0  0  0  0  0  0  0  0
   57.6054   30.4327   46.4626 H   0  0  0  0  0  0  0  0  0  0  0  0
   57.9739   32.4042   47.9486 H   0  0  0  0  0  0  0  0  0  0  0  0
   58.3541   34.6649   46.9571 H   0  0  0  0  0  0  0  0  0  0  0  0
   58.3600   34.9569   44.4785 H   0  0  0  0  0  0  0  0  0  0  0  0
   57.9912   32.9905   42.9861 H   0  0  0  0  0  0  0  0  0  0  0  0
  1  2  2  0
  2  3  1  0
  3  4  1  0
  4  5  1  0
  5  6  2  0
  6  7  1  0
  7  8  2  0
  8  9  1  0
  9 10  2  0
  2 11  1  0
 11 12  2  0
 12 13  1  0
 13 14  1  0
 14 15  1  0
 15 16  2  0
 16 17  1  0
 17 18  2  0
 18 19  1  0
 19 20  2  0
 13 21  1  0
 21 22  1  0
 21 23  2  0
 23 24  1  0
 10  5  1  0
 23 11  1  0
 20 15  1  0
  4 25  1  0
  4 26  1  0
  6 27  1  0
  7 28  1  0
  8 29  1  0
  9 30  1  0
 10 31  1  0
 12 32  1  0
 14 33  1  0
 14 34  1  0
 16 35  1  0
 17 36  1  0
 18 37  1  0
 19 38  1  0
 20 39  1  0
M  CHG  3   3  -1  22  -1  24  -1
M  END
>  <UniqueID>  (26) 
24

>  <SMILES>  (26) 
O=C([N-]Cc1ccccc1)c1cn(Cc2ccccc2)c([O-])c1[O-]

>  <Energy>  (26) 
66.14166126734847

>  <Genealogy>  (26) 
O=C([N-]Cc1ccccc1)c1cn(Cc2ccccc2)c([O-])c1[O-] (protonated)
O=C([N-]Cc1ccccc1)c1cn(Cc2ccccc2)c([O-])c1[O-] (3D coordinates assigned)
O=C([N-]Cc1ccccc1)c1cn(Cc2ccccc2)c([O-])c1[O-] (optimized conformer: 66.14166126734847 kcal/mol)

>  <smiles>  (26) 
O=C(NCc1ccccc1)c1cn(Cc2ccccc2)c(O)c1O

>  <score_type>  (26) 
oracle

>  <origin>  (26) 
adg

>  <m_score__min__energy>  (26) 
-16

>  <m_primary>  (26) 
energy

$$$$
26:0
     RDKit          3D

 48 51  0  0  0  0  0  0  0  0999 V2000
   62.6440   31.2100   47.9800 C   0  0  0  0  0  0  0  0  0  0  0  0
   63.6660   32.1040   48.5190 N   0  0  0  0  0  0  0  0  0  0  0  0
   63.1460   33.7540   48.3570 S   0  0  0  0  0  0  0  0  0  0  0  0
   63.0750   34.3870   49.7190 O   0  0  0  0  0  0  0  0  0  0  0  0
   64.1360   34.5240   47.5270 O   0  0  0  0  0  0  0  0  0  0  0  0
   61.5510   33.8180   47.6110 C   0  0  0  0  0  0  0  0  0  0  0  0
   60.4030   33.7560   48.4120 C   0  0  0  0  0  0  0  0  0  0  0  0
   59.1340   33.7780   47.8260 C   0  0  0  0  0  0  0  0  0  0  0  0
   59.0060   33.8550   46.4350 C   0  0  0  0  0  0  0  0  0  0  0  0
   57.3800   33.8570   45.6800 S   0  0  0  0  0  0  0  0  0  0  0  0
   57.3620   32.0760   45.5300 C   0  0  0  0  0  0  0  0  0  0  0  0
   56.5020   31.4720   44.6740 N   0  0  0  0  0  0  0  0  0  0  0  0
   56.4750   30.1460   44.5610 N   0  0  0  0  0  0  0  0  0  0  0  0
   57.2950   29.3480   45.2970 C   0  0  0  0  0  0  0  0  0  0  0  0
   57.2570   27.8880   45.0580 C   0  0  0  0  0  0  0  0  0  0  0  0
   57.8000   27.3610   43.8740 C   0  0  0  0  0  0  0  0  0  0  0  0
   57.7840   25.9810   43.6430 C   0  0  0  0  0  0  0  0  0  0  0  0
   57.2380   25.1180   44.5980 C   0  0  0  0  0  0  0  0  0  0  0  0
   56.7150   25.6310   45.7870 C   0  0  0  0  0  0  0  0  0  0  0  0
   56.7300   27.0090   46.0220 C   0  0  0  0  0  0  0  0  0  0  0  0
   58.1700   29.9650   46.2210 C   0  0  0  0  0  0  0  0  0  0  0  0
   59.0330   29.2050   47.1540 C   0  0  0  0  0  0  0  0  0  0  0  0
   59.0970   29.5410   48.5190 C   0  0  0  0  0  0  0  0  0  0  0  0
   59.9270   28.8220   49.3840 C   0  0  0  0  0  0  0  0  0  0  0  0
   60.7110   27.7750   48.8940 C   0  0  0  0  0  0  0  0  0  0  0  0
   60.6710   27.4490   47.5350 C   0  0  0  0  0  0  0  0  0  0  0  0
   59.8420   28.1640   46.6660 C   0  0  0  0  0  0  0  0  0  0  0  0
   58.1850   31.3210   46.2980 N   0  0  0  0  0  0  0  0  0  0  0  0
   60.1500   33.9190   45.6310 C   0  0  0  0  0  0  0  0  0  0  0  0
   61.4200   33.8960   46.2170 C   0  0  0  0  0  0  0  0  0  0  0  0
   62.0995   30.7337   48.8086 H   0  0  0  0  0  0  0  0  0  0  0  0
   61.9402   31.7876   47.3628 H   0  0  0  0  0  0  0  0  0  0  0  0
   63.1228   30.4356   47.3628 H   0  0  0  0  0  0  0  0  0  0  0  0
   64.5250   31.9970   47.9320 H   0  0  0  0  0  0  0  0  0  0  0  0
   60.5006   33.6898   49.5057 H   0  0  0  0  0  0  0  0  0  0  0  0
   58.2355   33.7347   48.4591 H   0  0  0  0  0  0  0  0  0  0  0  0
   58.2397   28.0364   43.1253 H   0  0  0  0  0  0  0  0  0  0  0  0
   58.2012   25.5749   42.7097 H   0  0  0  0  0  0  0  0  0  0  0  0
   57.2204   24.0339   44.4126 H   0  0  0  0  0  0  0  0  0  0  0  0
   56.2908   24.9500   46.5395 H   0  0  0  0  0  0  0  0  0  0  0  0
   56.3279   27.4079   46.9650 H   0  0  0  0  0  0  0  0  0  0  0  0
   58.4912   30.3731   48.9071 H   0  0  0  0  0  0  0  0  0  0  0  0
   59.9628   29.0812   50.4524 H   0  0  0  0  0  0  0  0  0  0  0  0
   61.3597   27.2071   49.5771 H   0  0  0  0  0  0  0  0  0  0  0  0
   61.2932   26.6282   47.1489 H   0  0  0  0  0  0  0  0  0  0  0  0
   59.8225   27.9111   45.5957 H   0  0  0  0  0  0  0  0  0  0  0  0
   60.0503   33.9874   44.5377 H   0  0  0  0  0  0  0  0  0  0  0  0
   62.3178   33.9392   45.5830 H   0  0  0  0  0  0  0  0  0  0  0  0
  1  2  1  0
  2  3  1  0
  3  4  2  0
  3  5  2  0
  3  6  1  0
  6  7  2  0
  7  8  1  0
  8  9  2  0
  9 10  1  0
 10 11  1  0
 11 12  2  0
 12 13  1  0
 13 14  2  0
 14 15  1  0
 15 16  2  0
 16 17  1  0
 17 18  2  0
 18 19  1  0
 19 20  2  0
 14 21  1  0
 21 22  1  0
 22 23  2  0
 23 24  1  0
 24 25  2  0
 25 26  1  0
 26 27  2  0
 21 28  2  0
  9 29  1  0
 29 30  2  0
 30  6  1  0
 28 11  1  0
 20 15  1  0
 27 22  1  0
  1 31  1  0
  1 32  1  0
  1 33  1  0
  2 34  1  0
  7 35  1  0
  8 36  1  0
 16 37  1  0
 17 38  1  0
 18 39  1  0
 19 40  1  0
 20 41  1  0
 23 42  1  0
 24 43  1  0
 25 44  1  0
 26 45  1  0
 27 46  1  0
 29 47  1  0
 30 48  1  0
M  END
>  <UniqueID>  (27) 
25

>  <SMILES>  (27) 
CNS(=O)(=O)c1ccc(Sc2nnc(-c3ccccc3)c(-c3ccccc3)n2)cc1

>  <Energy>  (27) 
58.60558954971957

>  <Genealogy>  (27) 
CNS(=O)(=O)c1ccc(Sc2nnc(-c3ccccc3)c(-c3ccccc3)n2)cc1 (3D coordinates assigned)
CNS(=O)(=O)c1ccc(Sc2nnc(-c3ccccc3)c(-c3ccccc3)n2)cc1 (optimized conformer: 58.60558954971957 kcal/mol)

>  <smiles>  (27) 
CNS(=O)(=O)c1ccc(Sc2nnc(-c3ccccc3)c(-c3ccccc3)n2)cc1

>  <score_type>  (27) 
oracle

>  <origin>  (27) 
adg

>  <m_score__min__energy>  (27) 
-10.02

>  <m_primary>  (27) 
energy

$$$$
27:0
     RDKit          3D

 26 27  0  0  0  0  0  0  0  0999 V2000
   55.7561   24.4263   46.7769 H   0  0  0  0  0  0  0  0  0  0  0  0
   55.9690   25.4390   46.4040 C   0  0  0  0  0  0  0  0  0  0  0  0
   55.0390   26.3310   46.0080 N   0  0  0  0  0  0  0  0  0  0  0  0
   55.6620   27.4360   45.6300 N   0  0  0  0  0  0  0  0  0  0  0  0
   55.1600   28.2680   45.2550 H   0  0  0  0  0  0  0  0  0  0  0  0
   56.9900   27.2530   45.7840 C   0  0  0  0  0  0  0  0  0  0  0  0
   57.9270   28.1100   45.4970 N   0  0  0  0  0  0  0  0  0  0  0  0
   58.5540   29.0760   46.3610 C   0  0  0  0  0  0  0  0  0  0  0  0
   59.2020   28.6980   47.3730 O   0  0  0  0  0  0  0  0  0  0  0  0
   58.4750   30.5250   46.0210 C   0  0  0  0  0  0  0  0  0  0  0  0
   59.4980   31.3910   46.4570 C   0  0  0  0  0  0  0  0  0  0  0  0
   60.3400   30.9875   47.0385 H   0  0  0  0  0  0  0  0  0  0  0  0
   59.4560   32.7550   46.1600 C   0  0  0  0  0  0  0  0  0  0  0  0
   60.7410   33.8140   46.7140 Cl  0  0  0  0  0  0  0  0  0  0  0  0
   58.3950   33.2770   45.4240 C   0  0  0  0  0  0  0  0  0  0  0  0
   58.3640   34.3519   45.1922 H   0  0  0  0  0  0  0  0  0  0  0  0
   57.3710   32.4390   44.9800 C   0  0  0  0  0  0  0  0  0  0  0  0
   56.5362   32.8587   44.3995 H   0  0  0  0  0  0  0  0  0  0  0  0
   57.3970   31.0590   45.2690 C   0  0  0  0  0  0  0  0  0  0  0  0
   56.3750   30.2050   44.8170 O   0  0  0  0  0  0  0  0  0  0  0  0
   56.1760   29.8210   43.4610 C   0  0  0  0  0  0  0  0  0  0  0  0
   55.6701   28.8448   43.4268 H   0  0  0  0  0  0  0  0  0  0  0  0
   55.5546   30.5739   42.9541 H   0  0  0  0  0  0  0  0  0  0  0  0
   57.1495   29.7474   42.9541 H   0  0  0  0  0  0  0  0  0  0  0  0
   57.2290   25.9880   46.2710 C   0  0  0  0  0  0  0  0  0  0  0  0
   58.1987   25.5224   46.5009 H   0  0  0  0  0  0  0  0  0  0  0  0
  1  2  1  0
  2  3  1  0
  3  4  1  0
  4  5  1  0
  4  6  1  0
  6  7  2  0
  7  8  1  0
  8  9  2  0
  8 10  1  0
 10 11  2  0
 11 12  1  0
 11 13  1  0
 13 14  1  0
 13 15  2  0
 15 16  1  0
 15 17  1  0
 17 18  1  0
 17 19  2  0
 19 20  1  0
 20 21  1  0
 21 22  1  0
 21 23  1  0
 21 24  1  0
  6 25  1  0
 25 26  1  0
 25  2  2  0
 19 10  1  0
M  CHG  1   3  -1
M  END
>  <UniqueID>  (28) 
26

>  <SMILES>  (28) 
COc1ccc(Cl)cc1C(=O)/N=c1/cc[n-][nH]1

>  <Energy>  (28) 
63.74754499624689

>  <Genealogy>  (28) 
COc1ccc(Cl)cc1C(=O)N=c1cc[n-][nH]1 (protonated)
COc1ccc(Cl)cc1C(=O)/N=c1/cc[n-][nH]1 (cis-trans isomerization)
COc1ccc(Cl)cc1C(=O)/N=c1/cc[n-][nH]1 (3D coordinates assigned)
COc1ccc(Cl)cc1C(=O)/N=c1/cc[n-][nH]1 (optimized conformer: 63.74754499624689 kcal/mol)

>  <smiles>  (28) 
COc1ccc(Cl)cc1C(=O)N=c1cc[nH][nH]1

>  <score_type>  (28) 
oracle

>  <origin>  (28) 
adg

>  <m_score__min__energy>  (28) 
-9.1400000000000006

>  <m_primary>  (28) 
energy

$$$$
28:0
     RDKit          3D

 40 41  0  0  0  0  0  0  0  0999 V2000
   64.4000   33.4130   50.9850 C   0  0  0  0  0  0  0  0  0  0  0  0
   63.1580   33.8640   50.4560 O   0  0  0  0  0  0  0  0  0  0  0  0
   62.8250   33.8470   49.0930 C   0  0  0  0  0  0  0  0  0  0  0  0
   63.7290   33.4200   48.1010 C   0  0  0  0  0  0  0  0  0  0  0  0
   63.3500   33.4270   46.7560 C   0  0  0  0  0  0  0  0  0  0  0  0
   62.0730   33.8530   46.3880 C   0  0  0  0  0  0  0  0  0  0  0  0
   61.1590   34.2740   47.3660 C   0  0  0  0  0  0  0  0  0  0  0  0
   59.7950   34.7600   46.9590 C   0  0  0  0  0  0  0  0  0  0  0  0
   58.8870   33.6280   46.7910 N   0  0  0  0  0  0  0  0  0  0  0  0
   58.7530   32.9310   45.5420 C   0  0  0  0  0  0  0  0  0  0  0  0
   59.2510   33.4280   44.4950 O   0  0  0  0  0  0  0  0  0  0  0  0
   58.0240   31.6420   45.4590 C   0  0  0  0  0  0  0  0  0  0  0  0
   58.3580   30.5880   46.3270 C   0  0  0  0  0  0  0  0  0  0  0  0
   57.6720   29.3710   46.2650 C   0  0  0  0  0  0  0  0  0  0  0  0
   56.6310   29.1890   45.3400 C   0  0  0  0  0  0  0  0  0  0  0  0
   55.8980   27.9610   45.2400 N   0  0  0  0  0  0  0  0  0  0  0  0
   56.4320   26.4110   45.8050 S   0  0  0  0  0  0  0  0  0  0  0  0
   57.4840   25.6450   44.5910 C   0  0  0  0  0  0  0  0  0  0  0  0
   55.2470   25.5350   46.1010 O   0  0  0  0  0  0  0  0  0  0  0  0
   57.2180   26.6040   47.0710 O   0  0  0  0  0  0  0  0  0  0  0  0
   56.2910   30.2420   44.4820 C   0  0  0  0  0  0  0  0  0  0  0  0
   56.9750   31.4590   44.5410 C   0  0  0  0  0  0  0  0  0  0  0  0
   61.5460   34.2730   48.7160 C   0  0  0  0  0  0  0  0  0  0  0  0
   64.3576   33.4284   52.0841 H   0  0  0  0  0  0  0  0  0  0  0  0
   64.5946   32.3868   50.6399 H   0  0  0  0  0  0  0  0  0  0  0  0
   65.2077   34.0752   50.6399 H   0  0  0  0  0  0  0  0  0  0  0  0
   64.7357   33.0802   48.3856 H   0  0  0  0  0  0  0  0  0  0  0  0
   64.0607   33.0956   45.9846 H   0  0  0  0  0  0  0  0  0  0  0  0
   61.7818   33.8588   45.3273 H   0  0  0  0  0  0  0  0  0  0  0  0
   59.4006   35.4301   47.7371 H   0  0  0  0  0  0  0  0  0  0  0  0
   59.8760   35.3007   46.0045 H   0  0  0  0  0  0  0  0  0  0  0  0
   58.2890   33.3580   47.6040 H   0  0  0  0  0  0  0  0  0  0  0  0
   59.1660   30.7217   47.0614 H   0  0  0  0  0  0  0  0  0  0  0  0
   57.9493   28.5516   46.9445 H   0  0  0  0  0  0  0  0  0  0  0  0
   58.2726   25.0708   45.0992 H   0  0  0  0  0  0  0  0  0  0  0  0
   56.8861   24.9693   43.9617 H   0  0  0  0  0  0  0  0  0  0  0  0
   57.9435   26.4215   43.9617 H   0  0  0  0  0  0  0  0  0  0  0  0
   55.4770   30.1098   43.7540 H   0  0  0  0  0  0  0  0  0  0  0  0
   56.6910   32.2790   43.8650 H   0  0  0  0  0  0  0  0  0  0  0  0
   60.8363   34.6107   49.4856 H   0  0  0  0  0  0  0  0  0  0  0  0
  1  2  1  0
  2  3  1  0
  3  4  2  0
  4  5  1  0
  5  6  2  0
  6  7  1  0
  7  8  1  0
  8  9  1  0
  9 10  1  0
 10 11  2  0
 10 12  1  0
 12 13  2  0
 13 14  1  0
 14 15  2  0
 15 16  1  0
 16 17  1  0
 17 18  1  0
 17 19  2  0
 17 20  2  0
 15 21  1  0
 21 22  2  0
  7 23  2  0
 23  3  1  0
 22 12  1  0
  1 24  1  0
  1 25  1  0
  1 26  1  0
  4 27  1  0
  5 28  1  0
  6 29  1  0
  8 30  1  0
  8 31  1  0
  9 32  1  0
 13 33  1  0
 14 34  1  0
 18 35  1  0
 18 36  1  0
 18 37  1  0
 21 38  1  0
 22 39  1  0
 23 40  1  0
M  CHG  1  16  -1
M  END
>  <UniqueID>  (29) 
27

>  <SMILES>  (29) 
COc1cccc(CNC(=O)c2ccc([N-]S(C)(=O)=O)cc2)c1

>  <Energy>  (29) 
38.403623734287216

>  <Genealogy>  (29) 
COc1cccc(CNC(=O)c2ccc([N-]S(C)(=O)=O)cc2)c1 (protonated)
COc1cccc(CNC(=O)c2ccc([N-]S(C)(=O)=O)cc2)c1 (3D coordinates assigned)
COc1cccc(CNC(=O)c2ccc([N-]S(C)(=O)=O)cc2)c1 (optimized conformer: 38.403623734287216 kcal/mol)

>  <smiles>  (29) 
COc1cccc(CNC(=O)c2ccc(NS(C)(=O)=O)cc2)c1

>  <score_type>  (29) 
oracle

>  <origin>  (29) 
adg

>  <m_score__min__energy>  (29) 
-9.1199999999999992

>  <m_primary>  (29) 
energy

$$$$
29:0
     RDKit          3D

 42 44  0  0  0  0  0  0  0  0999 V2000
   58.1500   30.7240   47.0820 O   0  0  0  0  0  0  0  0  0  0  0  0
   57.8500   31.4570   46.1000 C   0  0  0  0  0  0  0  0  0  0  0  0
   56.9370   30.9680   45.1090 N   0  0  0  0  0  0  0  0  0  0  0  0
   57.2150   29.8210   44.2520 C   0  0  0  0  0  0  0  0  0  0  0  0
   58.2340   28.9220   44.8970 C   0  0  0  0  0  0  0  0  0  0  0  0
   59.6040   29.1480   44.6850 C   0  0  0  0  0  0  0  0  0  0  0  0
   60.5560   28.2980   45.2570 C   0  0  0  0  0  0  0  0  0  0  0  0
   60.1470   27.2140   46.0390 C   0  0  0  0  0  0  0  0  0  0  0  0
   61.0710   26.3890   46.5900 F   0  0  0  0  0  0  0  0  0  0  0  0
   58.7850   26.9790   46.2500 C   0  0  0  0  0  0  0  0  0  0  0  0
   57.8310   27.8280   45.6810 C   0  0  0  0  0  0  0  0  0  0  0  0
   58.4410   32.8130   45.9630 C   0  0  0  0  0  0  0  0  0  0  0  0
   58.6680   33.3400   44.6780 C   0  0  0  0  0  0  0  0  0  0  0  0
   59.2270   34.6090   44.5160 C   0  0  0  0  0  0  0  0  0  0  0  0
   59.5650   35.3710   45.6320 C   0  0  0  0  0  0  0  0  0  0  0  0
   59.3430   34.8710   46.9150 C   0  0  0  0  0  0  0  0  0  0  0  0
   58.7750   33.5930   47.0970 C   0  0  0  0  0  0  0  0  0  0  0  0
   58.5200   33.0840   48.3810 O   0  0  0  0  0  0  0  0  0  0  0  0
   59.5140   32.6400   49.2980 C   0  0  0  0  0  0  0  0  0  0  0  0
   60.8500   32.6690   48.6170 C   0  0  0  0  0  0  0  0  0  0  0  0
   61.7220   33.7520   48.8220 C   0  0  0  0  0  0  0  0  0  0  0  0
   62.9880   33.7580   48.2280 C   0  0  0  0  0  0  0  0  0  0  0  0
   63.3970   32.6800   47.4380 C   0  0  0  0  0  0  0  0  0  0  0  0
   62.5410   31.5920   47.2440 C   0  0  0  0  0  0  0  0  0  0  0  0
   61.2740   31.5810   47.8370 C   0  0  0  0  0  0  0  0  0  0  0  0
   56.2851   29.2566   44.0882 H   0  0  0  0  0  0  0  0  0  0  0  0
   57.6121   30.1803   43.2911 H   0  0  0  0  0  0  0  0  0  0  0  0
   59.9296   29.9973   44.0664 H   0  0  0  0  0  0  0  0  0  0  0  0
   61.6277   28.4827   45.0913 H   0  0  0  0  0  0  0  0  0  0  0  0
   58.4636   26.1251   46.8644 H   0  0  0  0  0  0  0  0  0  0  0  0
   56.7603   27.6386   45.8479 H   0  0  0  0  0  0  0  0  0  0  0  0
   58.4021   32.7455   43.7915 H   0  0  0  0  0  0  0  0  0  0  0  0
   59.4008   35.0077   43.5056 H   0  0  0  0  0  0  0  0  0  0  0  0
   60.0080   36.3693   45.5011 H   0  0  0  0  0  0  0  0  0  0  0  0
   59.6130   35.4781   47.7916 H   0  0  0  0  0  0  0  0  0  0  0  0
   59.5315   33.3048   50.1742 H   0  0  0  0  0  0  0  0  0  0  0  0
   59.2859   31.6158   49.6283 H   0  0  0  0  0  0  0  0  0  0  0  0
   61.4077   34.5975   49.4516 H   0  0  0  0  0  0  0  0  0  0  0  0
   63.6631   34.6126   48.3828 H   0  0  0  0  0  0  0  0  0  0  0  0
   64.3920   32.6877   46.9691 H   0  0  0  0  0  0  0  0  0  0  0  0
   62.8643   30.7429   46.6239 H   0  0  0  0  0  0  0  0  0  0  0  0
   60.6080   30.7176   47.6919 H   0  0  0  0  0  0  0  0  0  0  0  0
  1  2  2  0
  2  3  1  0
  3  4  1  0
  4  5  1  0
  5  6  2  0
  6  7  1  0
  7  8  2  0
  8  9  1  0
  8 10  1  0
 10 11  2  0
  2 12  1  0
 12 13  2  0
 13 14  1  0
 14 15  2  0
 15 16  1  0
 16 17  2  0
 17 18  1  0
 18 19  1  0
 19 20  1  0
 20 21  2  0
 21 22  1  0
 22 23  2  0
 23 24  1  0
 24 25  2  0
 11  5  1  0
 17 12  1  0
 25 20  1  0
  4 26  1  0
  4 27  1  0
  6 28  1  0
  7 29  1  0
 10 30  1  0
 11 31  1  0
 13 32  1  0
 14 33  1  0
 15 34  1  0
 16 35  1  0
 19 36  1  0
 19 37  1  0
 21 38  1  0
 22 39  1  0
 23 40  1  0
 24 41  1  0
 25 42  1  0
M  CHG  1   3  -1
M  END
>  <UniqueID>  (30) 
28

>  <SMILES>  (30) 
O=C([N-]Cc1ccc(F)cc1)c1ccccc1OCc1ccccc1

>  <Energy>  (30) 
43.76591347601342

>  <Genealogy>  (30) 
O=C([N-]Cc1ccc(F)cc1)c1ccccc1OCc1ccccc1 (protonated)
O=C([N-]Cc1ccc(F)cc1)c1ccccc1OCc1ccccc1 (3D coordinates assigned)
O=C([N-]Cc1ccc(F)cc1)c1ccccc1OCc1ccccc1 (optimized conformer: 43.76591347601342 kcal/mol)

>  <smiles>  (30) 
O=C(NCc1ccc(F)cc1)c1ccccc1OCc1ccccc1

>  <score_type>  (30) 
oracle

>  <origin>  (30) 
adg

>  <m_score__min__energy>  (30) 
-9.8000000000000007

>  <m_primary>  (30) 
energy

$$$$
30:0
     RDKit          3D

 49 52  0  0  0  0  0  0  0  0999 V2000
   54.3760   28.9440   44.4900 H   0  0  0  0  0  0  0  0  0  0  0  0
   55.1450   29.5950   44.5910 O   0  0  0  0  0  0  0  0  0  0  0  0
   56.3870   29.1850   45.0740 C   0  0  0  0  0  0  0  0  0  0  0  0
   57.4890   30.0490   45.0270 C   0  0  0  0  0  0  0  0  0  0  0  0
   57.3759   31.0594   44.6072 H   0  0  0  0  0  0  0  0  0  0  0  0
   58.7320   29.6310   45.5120 C   0  0  0  0  0  0  0  0  0  0  0  0
   59.5920   30.3160   45.4775 H   0  0  0  0  0  0  0  0  0  0  0  0
   58.8870   28.3400   46.0430 C   0  0  0  0  0  0  0  0  0  0  0  0
   60.2170   27.8990   46.5970 C   0  0  0  0  0  0  0  0  0  0  0  0
   60.2838   26.8027   46.5359 H   0  0  0  0  0  0  0  0  0  0  0  0
   61.0124   28.3736   46.0036 H   0  0  0  0  0  0  0  0  0  0  0  0
   60.3870   28.3280   48.0600 C   0  0  0  0  0  0  0  0  0  0  0  0
   60.8452   27.5019   48.6235 H   0  0  0  0  0  0  0  0  0  0  0  0
   61.0271   29.2222   48.0846 H   0  0  0  0  0  0  0  0  0  0  0  0
   59.2410   33.2720   48.7540 N   0  0  0  0  0  0  0  0  0  0  0  0
   58.9100   32.1510   49.3260 C   0  0  0  0  0  0  0  0  0  0  0  0
   58.2230   32.1330   50.5000 N   0  0  0  0  0  0  0  0  0  0  0  0
   57.8410   30.9510   51.0580 C   0  0  0  0  0  0  0  0  0  0  0  0
   57.1420   30.9180   52.1550 N   0  0  0  0  0  0  0  0  0  0  0  0
   55.8600   30.2910   52.3170 C   0  0  0  0  0  0  0  0  0  0  0  0
   55.7160   29.0930   53.0410 C   0  0  0  0  0  0  0  0  0  0  0  0
   56.5959   28.6237   53.5053 H   0  0  0  0  0  0  0  0  0  0  0  0
   54.4570   28.4970   53.1720 C   0  0  0  0  0  0  0  0  0  0  0  0
   54.3447   27.5722   53.7570 H   0  0  0  0  0  0  0  0  0  0  0  0
   53.3420   29.0760   52.5600 C   0  0  0  0  0  0  0  0  0  0  0  0
   52.3509   28.6118   52.6708 H   0  0  0  0  0  0  0  0  0  0  0  0
   53.4860   30.2450   51.8070 C   0  0  0  0  0  0  0  0  0  0  0  0
   52.6101   30.6936   51.3155 H   0  0  0  0  0  0  0  0  0  0  0  0
   54.7440   30.8450   51.6780 C   0  0  0  0  0  0  0  0  0  0  0  0
   54.8565   31.7560   51.0718 H   0  0  0  0  0  0  0  0  0  0  0  0
   58.1420   29.7870   50.4290 N   0  0  0  0  0  0  0  0  0  0  0  0
   58.8270   29.7950   49.2580 C   0  0  0  0  0  0  0  0  0  0  0  0
   59.1020   28.6670   48.6740 N   0  0  0  0  0  0  0  0  0  0  0  0
   58.8600   33.6860   47.4330 C   0  0  0  0  0  0  0  0  0  0  0  0
   57.7090   33.1390   46.8520 C   0  0  0  0  0  0  0  0  0  0  0  0
   57.1056   32.4106   47.4135 H   0  0  0  0  0  0  0  0  0  0  0  0
   57.3230   33.5150   45.5600 C   0  0  0  0  0  0  0  0  0  0  0  0
   56.4083   33.0959   45.1153 H   0  0  0  0  0  0  0  0  0  0  0  0
   58.1000   34.4230   44.8350 C   0  0  0  0  0  0  0  0  0  0  0  0
   57.7910   34.7261   43.8237 H   0  0  0  0  0  0  0  0  0  0  0  0
   59.2690   34.9460   45.3940 C   0  0  0  0  0  0  0  0  0  0  0  0
   59.8848   35.6537   44.8196 H   0  0  0  0  0  0  0  0  0  0  0  0
   59.6560   34.5690   46.6850 C   0  0  0  0  0  0  0  0  0  0  0  0
   60.5872   34.9658   47.1156 H   0  0  0  0  0  0  0  0  0  0  0  0
   59.2050   30.9810   48.7080 N   0  0  0  0  0  0  0  0  0  0  0  0
   57.7770   27.4800   46.0970 C   0  0  0  0  0  0  0  0  0  0  0  0
   57.8859   26.4720   46.5238 H   0  0  0  0  0  0  0  0  0  0  0  0
   56.5350   27.8990   45.6110 C   0  0  0  0  0  0  0  0  0  0  0  0
   55.4460   27.0360   45.6660 O   0  0  0  0  0  0  0  0  0  0  0  0
  1  2  1  0
  2  3  1  0
  3  4  2  0
  4  5  1  0
  4  6  1  0
  6  7  1  0
  6  8  2  0
  8  9  1  0
  9 10  1  0
  9 11  1  0
  9 12  1  0
 12 13  1  0
 12 14  1  0
 12 15  1  0
 15 16  2  0
 16 17  1  0
 17 18  1  0
 18 19  2  3
 19 20  1  0
 20 21  2  0
 21 22  1  0
 21 23  1  0
 23 24  1  0
 23 25  2  0
 25 26  1  0
 25 27  1  0
 27 28  1  0
 27 29  2  0
 29 30  1  0
 18 31  1  0
 31 32  1  0
 32 33  2  0
 33 34  1  0
 34 35  2  0
 35 36  1  0
 35 37  1  0
 37 38  1  0
 37 39  2  0
 39 40  1  0
 39 41  1  0
 41 42  1  0
 41 43  2  0
 43 44  1  0
 32 45  1  0
  8 46  1  0
 46 47  1  0
 46 48  2  0
 48 49  1  0
 48  3  1  0
 45 16  1  0
 29 20  1  0
 43 34  1  0
M  CHG  4  17  -1  31  -1  45  -1  49  -1
M  END
>  <UniqueID>  (31) 
29

>  <SMILES>  (31) 
[O-]c1cc(CC/N=c2/[n-]c(=Nc3ccccc3)[n-]/c(=N\c3ccccc3)[n-]2)ccc1O

>  <Energy>  (31) 
63.0326087788312

>  <Genealogy>  (31) 
[O-]c1cc(CCN=c2[n-]c(=Nc3ccccc3)[n-]c(=Nc3ccccc3)[n-]2)ccc1O (protonated)
[O-]c1cc(CC/N=c2/[n-]c(=Nc3ccccc3)[n-]/c(=N\c3ccccc3)[n-]2)ccc1O (cis-trans isomerization)
[O-]c1cc(CC/N=c2/[n-]c(=Nc3ccccc3)[n-]/c(=N\c3ccccc3)[n-]2)ccc1O (3D coordinates assigned)
[O-]c1cc(CC/N=c2/[n-]c(=Nc3ccccc3)[n-]/c(=N\c3ccccc3)[n-]2)ccc1O (optimized conformer: 63.0326087788312 kcal/mol)

>  <smiles>  (31) 
Oc1ccc(CCN=c2[nH]c(=Nc3ccccc3)[nH]c(=Nc3ccccc3)[nH]2)cc1O

>  <score_type>  (31) 
oracle

>  <origin>  (31) 
adg

>  <m_score__min__energy>  (31) 
-16.260000000000002

>  <m_primary>  (31) 
energy

$$$$
31:0
     RDKit          3D

 42 44  0  0  0  0  0  0  0  0999 V2000
   58.2314   32.2356   42.5899 H   0  0  0  0  0  0  0  0  0  0  0  0
   57.7800   32.2290   43.5930 C   0  0  0  0  0  0  0  0  0  0  0  0
   57.2690   30.9400   44.1020 C   0  0  0  0  0  0  0  0  0  0  0  0
   56.1070   30.8990   44.5900 O   0  0  0  0  0  0  0  0  0  0  0  0
   58.0300   29.7320   43.9530 N   0  0  0  0  0  0  0  0  0  0  0  0
   58.7170   29.6830   43.1660 H   0  0  0  0  0  0  0  0  0  0  0  0
   57.8670   28.5750   44.7940 C   0  0  0  0  0  0  0  0  0  0  0  0
   56.6020   28.1670   45.2430 C   0  0  0  0  0  0  0  0  0  0  0  0
   55.7032   28.7167   44.9268 H   0  0  0  0  0  0  0  0  0  0  0  0
   56.4860   27.0950   46.0670 N   0  0  0  0  0  0  0  0  0  0  0  0
   57.5770   26.3880   46.4660 C   0  0  0  0  0  0  0  0  0  0  0  0
   57.4540   25.2430   47.3890 C   0  0  0  0  0  0  0  0  0  0  0  0
   57.7396   25.4095   48.4381 H   0  0  0  0  0  0  0  0  0  0  0  0
   57.0230   24.0150   47.0570 C   0  0  0  0  0  0  0  0  0  0  0  0
   56.7415   23.3367   47.8760 H   0  0  0  0  0  0  0  0  0  0  0  0
   56.8980   23.5050   45.6740 C   0  0  0  0  0  0  0  0  0  0  0  0
   57.9300   22.7350   45.1090 C   0  0  0  0  0  0  0  0  0  0  0  0
   58.8436   22.5366   45.6887 H   0  0  0  0  0  0  0  0  0  0  0  0
   57.8030   22.2200   43.8160 C   0  0  0  0  0  0  0  0  0  0  0  0
   58.6226   21.6338   43.3749 H   0  0  0  0  0  0  0  0  0  0  0  0
   56.6370   22.4490   43.0840 C   0  0  0  0  0  0  0  0  0  0  0  0
   56.5395   22.0465   42.0649 H   0  0  0  0  0  0  0  0  0  0  0  0
   55.5940   23.1890   43.6450 C   0  0  0  0  0  0  0  0  0  0  0  0
   54.6744   23.3629   43.0670 H   0  0  0  0  0  0  0  0  0  0  0  0
   55.7120   23.7110   44.9390 C   0  0  0  0  0  0  0  0  0  0  0  0
   54.3730   24.6440   45.5980 Cl  0  0  0  0  0  0  0  0  0  0  0  0
   58.8140   26.7890   46.0730 N   0  0  0  0  0  0  0  0  0  0  0  0
   58.9830   27.8590   45.2520 C   0  0  0  0  0  0  0  0  0  0  0  0
   60.1480   28.1950   44.9060 O   0  0  0  0  0  0  0  0  0  0  0  0
   57.7360   33.3930   44.2600 C   0  0  0  0  0  0  0  0  0  0  0  0
   57.1865   34.2242   43.7940 H   0  0  0  0  0  0  0  0  0  0  0  0
   58.3690   33.6450   45.5730 C   0  0  0  0  0  0  0  0  0  0  0  0
   58.0210   32.8940   46.7100 C   0  0  0  0  0  0  0  0  0  0  0  0
   57.2717   32.0928   46.6292 H   0  0  0  0  0  0  0  0  0  0  0  0
   58.6240   33.1620   47.9430 C   0  0  0  0  0  0  0  0  0  0  0  0
   58.3637   32.5585   48.8250 H   0  0  0  0  0  0  0  0  0  0  0  0
   59.5570   34.1960   48.0550 C   0  0  0  0  0  0  0  0  0  0  0  0
   60.0360   34.4014   49.0237 H   0  0  0  0  0  0  0  0  0  0  0  0
   59.8820   34.9690   46.9380 C   0  0  0  0  0  0  0  0  0  0  0  0
   60.6094   35.7891   47.0299 H   0  0  0  0  0  0  0  0  0  0  0  0
   59.2830   34.7010   45.7020 C   0  0  0  0  0  0  0  0  0  0  0  0
   59.5301   35.3212   44.8278 H   0  0  0  0  0  0  0  0  0  0  0  0
  1  2  1  0
  2  3  1  0
  3  4  2  0
  3  5  1  0
  5  6  1  0
  5  7  1  0
  7  8  2  0
  8  9  1  0
  8 10  1  0
 10 11  1  0
 11 12  1  0
 12 13  1  0
 12 14  2  0
 14 15  1  0
 14 16  1  0
 16 17  2  0
 17 18  1  0
 17 19  1  0
 19 20  1  0
 19 21  2  0
 21 22  1  0
 21 23  1  0
 23 24  1  0
 23 25  2  0
 25 26  1  0
 11 27  2  0
 27 28  1  0
 28 29  2  0
  2 30  2  0
 30 31  1  0
 30 32  1  0
 32 33  2  0
 33 34  1  0
 33 35  1  0
 35 36  1  0
 35 37  2  0
 37 38  1  0
 37 39  1  0
 39 40  1  0
 39 41  2  0
 41 42  1  0
 28  7  1  0
 41 32  1  0
 25 16  1  0
M  CHG  1  10  -1
M  END
>  <UniqueID>  (32) 
30

>  <SMILES>  (32) 
O=C(/C=C\c1ccccc1)Nc1c[n-]c(/C=C\c2ccccc2Cl)nc1=O

>  <Energy>  (32) 
65.28389676462284

>  <Genealogy>  (32) 
O=C(C=Cc1ccccc1)Nc1c[n-]c(C=Cc2ccccc2Cl)nc1=O (protonated)
O=C(/C=C\c1ccccc1)Nc1c[n-]c(/C=C\c2ccccc2Cl)nc1=O (cis-trans isomerization)
O=C(/C=C\c1ccccc1)Nc1c[n-]c(/C=C\c2ccccc2Cl)nc1=O (3D coordinates assigned)
O=C(/C=C\c1ccccc1)Nc1c[n-]c(/C=C\c2ccccc2Cl)nc1=O (optimized conformer: 65.28389676462284 kcal/mol)

>  <smiles>  (32) 
O=C(C=Cc1ccccc1)Nc1c[nH]c(C=Cc2ccccc2Cl)nc1=O

>  <score_type>  (32) 
oracle

>  <origin>  (32) 
adg

>  <m_score__min__energy>  (32) 
-10.94

>  <m_primary>  (32) 
energy

$$$$
32:0
     RDKit          3D

 46 49  0  0  0  0  0  0  0  0999 V2000
   65.9910   32.2610   50.2410 C   0  0  0  0  0  0  0  0  0  0  0  0
   65.3620   33.4210   49.7070 O   0  0  0  0  0  0  0  0  0  0  0  0
   64.1240   33.4190   49.0500 C   0  0  0  0  0  0  0  0  0  0  0  0
   62.9800   33.7520   49.7830 C   0  0  0  0  0  0  0  0  0  0  0  0
   61.7220   33.7650   49.1740 C   0  0  0  0  0  0  0  0  0  0  0  0
   61.5850   33.4520   47.8110 C   0  0  0  0  0  0  0  0  0  0  0  0
   60.2810   33.4580   47.1970 N   0  0  0  0  0  0  0  0  0  0  0  0
   59.5830   34.6210   47.0340 C   0  0  0  0  0  0  0  0  0  0  0  0
   58.3290   34.6010   46.4310 C   0  0  0  0  0  0  0  0  0  0  0  0
   57.7910   33.3890   46.0080 C   0  0  0  0  0  0  0  0  0  0  0  0
   56.6770   33.3780   45.4200 O   0  0  0  0  0  0  0  0  0  0  0  0
   58.5200   32.2060   46.2260 C   0  0  0  0  0  0  0  0  0  0  0  0
   58.0280   30.8720   45.8210 C   0  0  0  0  0  0  0  0  0  0  0  0
   57.2310   30.7870   44.8470 O   0  0  0  0  0  0  0  0  0  0  0  0
   58.4730   29.6770   46.4840 N   0  0  0  0  0  0  0  0  0  0  0  0
   57.8230   28.3790   46.2680 C   0  0  1  0  0  0  0  0  0  0  0  0
   58.0380   27.8890   44.8700 C   0  0  0  0  0  0  0  0  0  0  0  0
   57.4550   26.8330   44.3860 N   0  0  0  0  0  0  0  0  0  0  0  0
   57.5560   25.4720   44.8400 C   0  0  0  0  0  0  0  0  0  0  0  0
   57.4090   24.4670   43.8730 C   0  0  0  0  0  0  0  0  0  0  0  0
   57.4270   23.1190   44.2320 C   0  0  0  0  0  0  0  0  0  0  0  0
   57.5640   22.7550   45.5690 C   0  0  0  0  0  0  0  0  0  0  0  0
   57.6840   23.7400   46.5510 C   0  0  0  0  0  0  0  0  0  0  0  0
   57.6950   25.0980   46.2070 C   0  0  0  0  0  0  0  0  0  0  0  0
   57.7790   26.0450   47.2800 N   0  0  0  0  0  0  0  0  0  0  0  0
   58.3480   27.3510   47.2170 C   0  0  0  0  0  0  0  0  0  0  0  0
   59.3240   27.6320   47.9620 O   0  0  0  0  0  0  0  0  0  0  0  0
   59.7490   32.2950   46.8040 N   0  0  0  0  0  0  0  0  0  0  0  0
   62.7350   33.1060   47.0760 C   0  0  0  0  0  0  0  0  0  0  0  0
   63.9920   33.0920   47.6880 C   0  0  0  0  0  0  0  0  0  0  0  0
   65.9676   32.3042   51.3399 H   0  0  0  0  0  0  0  0  0  0  0  0
   65.4562   31.3631   49.8979 H   0  0  0  0  0  0  0  0  0  0  0  0
   67.0353   32.2193   49.8979 H   0  0  0  0  0  0  0  0  0  0  0  0
   63.0714   34.0062   50.8493 H   0  0  0  0  0  0  0  0  0  0  0  0
   60.8318   34.0224   49.7667 H   0  0  0  0  0  0  0  0  0  0  0  0
   60.0122   35.5731   47.3794 H   0  0  0  0  0  0  0  0  0  0  0  0
   57.7671   35.5361   46.2897 H   0  0  0  0  0  0  0  0  0  0  0  0
   59.3480   29.7210   47.0530 H   0  0  0  0  0  0  0  0  0  0  0  0
   56.7473   28.5291   46.4420 H   0  0  0  0  0  0  0  0  0  0  0  0
   58.7241   28.4511   44.2194 H   0  0  0  0  0  0  0  0  0  0  0  0
   57.2777   24.7454   42.8169 H   0  0  0  0  0  0  0  0  0  0  0  0
   57.3329   22.3430   43.4581 H   0  0  0  0  0  0  0  0  0  0  0  0
   57.5777   21.6919   45.8513 H   0  0  0  0  0  0  0  0  0  0  0  0
   57.7710   23.4463   47.6075 H   0  0  0  0  0  0  0  0  0  0  0  0
   62.6437   32.8445   46.0114 H   0  0  0  0  0  0  0  0  0  0  0  0
   64.8829   32.8238   47.1012 H   0  0  0  0  0  0  0  0  0  0  0  0
  1  2  1  0
  2  3  1  0
  3  4  2  0
  4  5  1  0
  5  6  2  0
  6  7  1  0
  7  8  1  0
  8  9  2  0
  9 10  1  0
 10 11  2  0
 10 12  1  0
 12 13  1  0
 13 14  2  0
 13 15  1  0
 15 16  1  0
 16 17  1  0
 17 18  2  0
 18 19  1  0
 19 20  2  0
 20 21  1  0
 21 22  2  0
 22 23  1  0
 23 24  2  0
 24 25  1  0
 25 26  1  0
 26 27  2  0
 12 28  2  0
  6 29  1  0
 29 30  2  0
 30  3  1  0
 28  7  1  0
 26 16  1  0
 24 19  1  0
  1 31  1  0
  1 32  1  0
  1 33  1  0
  4 34  1  0
  5 35  1  0
  8 36  1  0
  9 37  1  0
 15 38  1  0
 16 39  1  1
 17 40  1  0
 20 41  1  0
 21 42  1  0
 22 43  1  0
 23 44  1  0
 29 45  1  0
 30 46  1  0
M  CHG  1  25  -1
M  END
>  <UniqueID>  (33) 
31

>  <SMILES>  (33) 
COc1ccc(-n2ccc(=O)c(C(=O)N[C@H]3C=Nc4ccccc4[N-]C3=O)n2)cc1

>  <Energy>  (33) 
67.83994075692925

>  <Genealogy>  (33) 
COc1ccc(-n2ccc(=O)c(C(=O)NC3C=Nc4ccccc4[N-]C3=O)n2)cc1 (protonated)
COc1ccc(-n2ccc(=O)c(C(=O)N[C@H]3C=Nc4ccccc4[N-]C3=O)n2)cc1 (chirality)
COc1ccc(-n2ccc(=O)c(C(=O)N[C@H]3C=Nc4ccccc4[N-]C3=O)n2)cc1 (3D coordinates assigned)
COc1ccc(-n2ccc(=O)c(C(=O)N[C@H]3C=Nc4ccccc4[N-]C3=O)n2)cc1 (nonaromatic ring conformer: 67.83994075692925 kcal/mol)

>  <smiles>  (33) 
COc1ccc(-n2ccc(=O)c(C(=O)NC3C=Nc4ccccc4NC3=O)n2)cc1

>  <score_type>  (33) 
oracle

>  <origin>  (33) 
adg

>  <m_score__min__energy>  (33) 
-8.5899999999999999

>  <m_primary>  (33) 
energy

$$$$
33:0
     RDKit          3D

 24 25  0  0  0  0  0  0  0  0999 V2000
   58.2054   35.1209   44.3988 H   0  0  0  0  0  0  0  0  0  0  0  0
   58.1850   34.1540   44.9230 C   0  0  0  0  0  0  0  0  0  0  0  0
   57.4120   33.1030   44.4190 C   0  0  0  0  0  0  0  0  0  0  0  0
   56.8344   33.2420   43.4932 H   0  0  0  0  0  0  0  0  0  0  0  0
   57.3710   31.8680   45.0930 C   0  0  0  0  0  0  0  0  0  0  0  0
   56.6100   30.7550   44.6000 N   0  0  0  0  0  0  0  0  0  0  0  0
   56.9140   29.3640   44.7750 C   0  0  0  0  0  0  0  0  0  0  0  0
   58.0560   28.9200   44.4820 O   0  0  0  0  0  0  0  0  0  0  0  0
   55.9150   28.4400   45.2310 N   0  0  0  0  0  0  0  0  0  0  0  0
   56.1160   27.2200   45.6310 C   0  0  0  0  0  0  0  0  0  0  0  0
   55.1380   26.3600   45.9980 N   0  0  0  0  0  0  0  0  0  0  0  0
   55.6050   25.1710   46.3750 N   0  0  0  0  0  0  0  0  0  0  0  0
   56.9520   25.0780   46.2960 C   0  0  0  0  0  0  0  0  0  0  0  0
   57.7210   23.8770   46.7260 C   0  0  0  0  0  0  0  0  0  0  0  0
   57.7489   23.8335   47.8248 H   0  0  0  0  0  0  0  0  0  0  0  0
   57.2346   22.9710   46.3354 H   0  0  0  0  0  0  0  0  0  0  0  0
   58.7474   23.9396   46.3354 H   0  0  0  0  0  0  0  0  0  0  0  0
   57.6410   26.5240   45.7670 S   0  0  0  0  0  0  0  0  0  0  0  0
   58.1420   31.6940   46.2490 C   0  0  0  0  0  0  0  0  0  0  0  0
   58.1404   30.7227   46.7652 H   0  0  0  0  0  0  0  0  0  0  0  0
   58.9140   32.7460   46.7520 C   0  0  0  0  0  0  0  0  0  0  0  0
   59.5073   32.6039   47.6673 H   0  0  0  0  0  0  0  0  0  0  0  0
   58.9320   33.9780   46.0920 C   0  0  0  0  0  0  0  0  0  0  0  0
   59.9040   35.2960   46.7210 Cl  0  0  0  0  0  0  0  0  0  0  0  0
  1  2  1  0
  2  3  2  0
  3  4  1  0
  3  5  1  0
  5  6  1  0
  6  7  1  0
  7  8  2  0
  7  9  1  0
  9 10  2  0
 10 11  1  0
 11 12  1  0
 12 13  2  0
 13 14  1  0
 14 15  1  0
 14 16  1  0
 14 17  1  0
 13 18  1  0
  5 19  2  0
 19 20  1  0
 19 21  1  0
 21 22  1  0
 21 23  2  0
 23 24  1  0
 23  2  1  0
 18 10  1  0
M  CHG  2   6  -1  11  -1
M  END
>  <UniqueID>  (34) 
32

>  <SMILES>  (34) 
Cc1n[n-]/c(=N\C(=O)[N-]c2ccc(Cl)cc2)s1

>  <Energy>  (34) 
62.390561417963845

>  <Genealogy>  (34) 
Cc1n[n-]c(=NC(=O)[N-]c2ccc(Cl)cc2)s1 (protonated)
Cc1n[n-]/c(=N\C(=O)[N-]c2ccc(Cl)cc2)s1 (cis-trans isomerization)
Cc1n[n-]/c(=N\C(=O)[N-]c2ccc(Cl)cc2)s1 (3D coordinates assigned)
Cc1n[n-]/c(=N\C(=O)[N-]c2ccc(Cl)cc2)s1 (optimized conformer: 62.390561417963845 kcal/mol)

>  <smiles>  (34) 
Cc1n[nH]c(=NC(=O)Nc2ccc(Cl)cc2)s1

>  <score_type>  (34) 
oracle

>  <origin>  (34) 
adg

>  <m_score__min__energy>  (34) 
-10.1

>  <m_primary>  (34) 
energy

$$$$
34:0
     RDKit          3D

 28 29  0  0  0  0  0  0  0  0999 V2000
   58.1500   29.0300   45.6480 C   0  0  0  0  0  0  0  0  0  0  0  0
   57.0220   29.8950   45.6100 O   0  0  0  0  0  0  0  0  0  0  0  0
   56.6220   30.5560   44.4440 C   0  0  0  0  0  0  0  0  0  0  0  0
   55.4630   30.3880   43.9740 O   0  0  0  0  0  0  0  0  0  0  0  0
   57.5960   31.4330   43.7250 C   0  0  0  0  0  0  0  0  0  0  0  0
   57.3950   32.8950   44.1220 C   0  0  0  0  0  0  0  0  0  0  0  0
   57.9480   33.1330   45.4540 N   0  0  0  0  0  0  0  0  0  0  0  0
   57.6820   32.3960   46.5270 N   0  0  0  0  0  0  0  0  0  0  0  0
   58.4460   32.8870   47.5240 C   0  0  0  0  0  0  0  0  0  0  0  0
   58.5120   32.4340   48.8400 C   0  0  0  0  0  0  0  0  0  0  0  0
   59.3980   33.0990   49.7060 C   0  0  0  0  0  0  0  0  0  0  0  0
   60.1810   34.1780   49.2410 C   0  0  0  0  0  0  0  0  0  0  0  0
   60.0710   34.5870   47.9030 C   0  0  0  0  0  0  0  0  0  0  0  0
   59.2010   33.9170   47.1060 N   0  0  0  0  0  0  0  0  0  0  0  0
   58.8790   34.0470   45.8080 C   0  0  0  0  0  0  0  0  0  0  0  0
   59.3850   34.8960   45.0260 O   0  0  0  0  0  0  0  0  0  0  0  0
   58.4189   28.8238   46.6945 H   0  0  0  0  0  0  0  0  0  0  0  0
   57.9053   28.0858   45.1394 H   0  0  0  0  0  0  0  0  0  0  0  0
   58.9984   29.5112   45.1394 H   0  0  0  0  0  0  0  0  0  0  0  0
   58.6198   31.1252   43.9840 H   0  0  0  0  0  0  0  0  0  0  0  0
   57.4322   31.3330   42.6419 H   0  0  0  0  0  0  0  0  0  0  0  0
   57.9056   33.5433   43.3947 H   0  0  0  0  0  0  0  0  0  0  0  0
   56.3185   33.1210   44.1328 H   0  0  0  0  0  0  0  0  0  0  0  0
   57.0200   31.5890   46.5660 H   0  0  0  0  0  0  0  0  0  0  0  0
   57.8965   31.5910   49.1871 H   0  0  0  0  0  0  0  0  0  0  0  0
   59.4818   32.7760   50.7542 H   0  0  0  0  0  0  0  0  0  0  0  0
   60.8726   34.6946   49.9228 H   0  0  0  0  0  0  0  0  0  0  0  0
   60.6703   35.4231   47.5133 H   0  0  0  0  0  0  0  0  0  0  0  0
  1  2  1  0
  2  3  1  0
  3  4  2  0
  3  5  1  0
  5  6  1  0
  6  7  1  0
  7  8  1  0
  8  9  2  0
  9 10  1  0
 10 11  2  0
 11 12  1  0
 12 13  2  0
 13 14  1  0
 14 15  1  0
 15 16  2  0
 15  7  1  0
 14  9  1  0
  1 17  1  0
  1 18  1  0
  1 19  1  0
  5 20  1  0
  5 21  1  0
  6 22  1  0
  6 23  1  0
  8 24  1  0
 10 25  1  0
 11 26  1  0
 12 27  1  0
 13 28  1  0
M  CHG  1   8   1
M  END
>  <UniqueID>  (35) 
33

>  <SMILES>  (35) 
COC(=O)CCn1[nH+]c2ccccn2c1=O

>  <Energy>  (35) 
66.62344787981797

>  <Genealogy>  (35) 
COC(=O)CCn1[nH+]c2ccccn2c1=O (protonated)
COC(=O)CCn1[nH+]c2ccccn2c1=O (3D coordinates assigned)
COC(=O)CCn1[nH+]c2ccccn2c1=O (optimized conformer: 66.62344787981797 kcal/mol)

>  <smiles>  (35) 
COC(=O)CCn1nc2ccccn2c1=O

>  <score_type>  (35) 
oracle

>  <origin>  (35) 
adg

>  <m_score__min__energy>  (35) 
-4.71

>  <m_primary>  (35) 
energy

$$$$
35:0
     RDKit          3D

 55 59  0  0  0  0  0  0  0  0999 V2000
   60.4680   27.5910   44.7340 H   0  0  0  0  0  0  0  0  0  0  0  0
   60.0870   28.5270   44.4680 N   0  0  0  0  0  0  0  0  0  0  0  0
   58.8490   28.8510   44.6680 C   0  0  0  0  0  0  0  0  0  0  0  0
   58.4400   30.1380   44.5000 N   0  0  0  0  0  0  0  0  0  0  0  0
   57.1290   30.4860   44.7130 C   0  0  0  0  0  0  0  0  0  0  0  0
   56.7350   31.7130   44.5550 N   0  0  0  0  0  0  0  0  0  0  0  0
   56.9910   32.7850   45.5150 C   0  0  0  0  0  0  0  0  0  0  0  0
   56.4268   33.6822   45.2206 H   0  0  0  0  0  0  0  0  0  0  0  0
   56.6725   32.4613   46.5169 H   0  0  0  0  0  0  0  0  0  0  0  0
   58.4960   33.1110   45.5380 C   0  0  2  0  0  0  0  0  0  0  0  0
   58.7540   32.8480   44.5015 H   0  0  0  0  0  0  0  0  0  0  0  0
   59.3250   32.3000   46.4530 N   0  0  0  0  0  0  0  0  0  0  0  0
   58.7470   31.9380   47.7820 C   0  0  0  0  0  0  0  0  0  0  0  0
   58.9091   32.7876   48.4616 H   0  0  0  0  0  0  0  0  0  0  0  0
   57.6884   31.7080   47.5908 H   0  0  0  0  0  0  0  0  0  0  0  0
   59.3220   30.6940   48.4470 C   0  0  0  0  0  0  0  0  0  0  0  0
   59.9730   30.8000   49.6900 C   0  0  0  0  0  0  0  0  0  0  0  0
   60.0640   31.7826   50.1761 H   0  0  0  0  0  0  0  0  0  0  0  0
   60.5040   29.6690   50.3110 C   0  0  0  0  0  0  0  0  0  0  0  0
   60.9958   29.7622   51.2905 H   0  0  0  0  0  0  0  0  0  0  0  0
   60.4140   28.4200   49.6950 C   0  0  0  0  0  0  0  0  0  0  0  0
   60.8214   27.5307   50.1983 H   0  0  0  0  0  0  0  0  0  0  0  0
   59.8050   28.2930   48.4340 C   0  0  0  0  0  0  0  0  0  0  0  0
   59.7260   26.9730   47.7670 C   0  0  0  0  0  0  0  0  0  0  0  0
   58.9020   26.1060   48.1660 O   0  0  0  0  0  0  0  0  0  0  0  0
   60.5810   26.6620   46.6670 N   0  0  0  0  0  0  0  0  0  0  0  0
   60.2330   26.7180   45.6840 H   0  0  0  0  0  0  0  0  0  0  0  0
   59.2770   29.4400   47.8130 C   0  0  0  0  0  0  0  0  0  0  0  0
   58.8217   29.3541   46.8154 H   0  0  0  0  0  0  0  0  0  0  0  0
   60.5860   33.0510   46.5320 C   0  0  0  0  0  0  0  0  0  0  0  0
   61.2598   32.7410   45.7197 H   0  0  0  0  0  0  0  0  0  0  0  0
   61.0932   32.8591   47.4890 H   0  0  0  0  0  0  0  0  0  0  0  0
   60.2440   34.5340   46.3900 C   0  0  0  0  0  0  0  0  0  0  0  0
   60.9541   35.0289   45.7112 H   0  0  0  0  0  0  0  0  0  0  0  0
   60.3023   35.0601   47.3543 H   0  0  0  0  0  0  0  0  0  0  0  0
   58.8340   34.5740   45.8080 C   0  0  0  0  0  0  0  0  0  0  0  0
   58.8137   35.1571   44.8755 H   0  0  0  0  0  0  0  0  0  0  0  0
   58.1129   35.0537   46.4861 H   0  0  0  0  0  0  0  0  0  0  0  0
   56.2220   29.5390   45.0940 N   0  0  0  0  0  0  0  0  0  0  0  0
   56.6560   28.2660   45.2540 C   0  0  0  0  0  0  0  0  0  0  0  0
   55.9040   27.2180   45.6260 N   0  0  0  0  0  0  0  0  0  0  0  0
   56.8300   26.2160   45.6240 C   0  0  0  0  0  0  0  0  0  0  0  0
   56.5050   24.8140   45.9970 C   0  0  0  0  0  0  0  0  0  0  0  0
   56.2650   24.5170   47.3540 C   0  0  0  0  0  0  0  0  0  0  0  0
   56.3131   25.3218   48.1023 H   0  0  0  0  0  0  0  0  0  0  0  0
   55.9670   23.2150   47.7610 C   0  0  0  0  0  0  0  0  0  0  0  0
   55.7841   23.0003   48.8242 H   0  0  0  0  0  0  0  0  0  0  0  0
   55.9010   22.1880   46.8230 C   0  0  0  0  0  0  0  0  0  0  0  0
   55.6712   21.1621   47.1466 H   0  0  0  0  0  0  0  0  0  0  0  0
   56.1260   22.4590   45.4740 C   0  0  0  0  0  0  0  0  0  0  0  0
   56.0677   21.6443   44.7372 H   0  0  0  0  0  0  0  0  0  0  0  0
   56.4260   23.7610   45.0480 C   0  0  0  0  0  0  0  0  0  0  0  0
   56.6470   24.0030   43.3180 Cl  0  0  0  0  0  0  0  0  0  0  0  0
   58.0710   26.6460   45.2760 N   0  0  0  0  0  0  0  0  0  0  0  0
   57.9250   27.9340   45.0480 N   0  0  0  0  0  0  0  0  0  0  0  0
  1  2  1  0
  2  3  2  0
  3  4  1  0
  4  5  1  0
  5  6  2  3
  6  7  1  0
  7  8  1  0
  7  9  1  0
  7 10  1  0
 10 11  1  6
 10 12  1  0
 12 13  1  0
 13 14  1  0
 13 15  1  0
 13 16  1  0
 16 17  2  0
 17 18  1  0
 17 19  1  0
 19 20  1  0
 19 21  2  0
 21 22  1  0
 21 23  1  0
 23 24  1  0
 24 25  2  0
 24 26  1  0
 26 27  1  0
 23 28  2  0
 28 29  1  0
 12 30  1  0
 30 31  1  0
 30 32  1  0
 30 33  1  0
 33 34  1  0
 33 35  1  0
 33 36  1  0
 36 37  1  0
 36 38  1  0
  5 39  1  0
 39 40  2  0
 40 41  1  0
 41 42  1  0
 42 43  1  0
 43 44  2  0
 44 45  1  0
 44 46  1  0
 46 47  1  0
 46 48  2  0
 48 49  1  0
 48 50  1  0
 50 51  1  0
 50 52  2  0
 52 53  1  0
 42 54  2  0
 54 55  1  0
 55  3  1  0
 36 10  1  0
 55 40  1  0
 28 16  1  0
 52 43  1  0
M  CHG  3   4  -1  26  -1  41  -1
M  END
>  <UniqueID>  (36) 
34

>  <SMILES>  (36) 
[H]/N=c1/[n-]c(=NC[C@H]2CCCN2Cc2cccc(C([NH-])=O)c2)nc2[n-]c(-c3ccccc3Cl)nn12

>  <Energy>  (36) 
119.32666194822133

>  <Genealogy>  (36) 
N=c1[n-]c(=NCC2CCCN2Cc2cccc(C([NH-])=O)c2)nc2[n-]c(-c3ccccc3Cl)nn12 (protonated)
N=c1[n-]c(=NC[C@H]2CCCN2Cc2cccc(C([NH-])=O)c2)nc2[n-]c(-c3ccccc3Cl)nn12 (chirality)
[H]/N=c1/[n-]c(=NC[C@H]2CCCN2Cc2cccc(C([NH-])=O)c2)nc2[n-]c(-c3ccccc3Cl)nn12 (cis-trans isomerization)
[H]/N=c1/[n-]c(=NC[C@H]2CCCN2Cc2cccc(C([NH-])=O)c2)nc2[n-]c(-c3ccccc3Cl)nn12 (3D coordinates assigned)
[H]/N=c1/[n-]c(=NC[C@H]2CCCN2Cc2cccc(C([NH-])=O)c2)nc2[n-]c(-c3ccccc3Cl)nn12 (nonaromatic ring conformer: 119.32666194822133 kcal/mol)

>  <smiles>  (36) 
N=c1[nH]c(=NCC2CCCN2Cc2cccc(C(N)=O)c2)nc2[nH]c(-c3ccccc3Cl)nn12

>  <score_type>  (36) 
oracle

>  <origin>  (36) 
adg

>  <m_score__min__energy>  (36) 
-14.380000000000001

>  <m_primary>  (36) 
energy

$$$$
36:0
     RDKit          3D

 40 42  0  0  0  0  0  0  0  0999 V2000
   57.0060   22.6640   43.6020 C   0  0  0  0  0  0  0  0  0  0  0  0
   57.0140   23.9500   42.9910 O   0  0  0  0  0  0  0  0  0  0  0  0
   57.3660   25.1380   43.6490 C   0  0  0  0  0  0  0  0  0  0  0  0
   57.8110   26.2800   42.9570 C   0  0  0  0  0  0  0  0  0  0  0  0
   58.1490   27.4420   43.6590 C   0  0  0  0  0  0  0  0  0  0  0  0
   58.0410   27.4840   45.0570 C   0  0  0  0  0  0  0  0  0  0  0  0
   58.4150   28.7150   45.7970 C   0  0  0  0  0  0  0  0  0  0  0  0
   59.4590   28.6550   46.7260 C   0  0  0  0  0  0  0  0  0  0  0  0
   59.8240   29.7920   47.4400 C   0  0  0  0  0  0  0  0  0  0  0  0
   59.1910   30.9880   47.2350 N   0  0  0  0  0  0  0  0  0  0  0  0
   59.6100   32.1640   48.0240 C   0  0  0  0  0  0  0  0  0  0  0  0
   61.0350   32.5830   47.6990 C   0  0  0  0  0  0  0  0  0  0  0  0
   62.1390   32.0640   48.4260 C   0  0  0  0  0  0  0  0  0  0  0  0
   61.9560   30.8750   49.7150 Cl  0  0  0  0  0  0  0  0  0  0  0  0
   63.4390   32.4840   48.1230 C   0  0  0  0  0  0  0  0  0  0  0  0
   63.6650   33.4040   47.1030 C   0  0  0  0  0  0  0  0  0  0  0  0
   62.5950   33.9070   46.3660 C   0  0  0  0  0  0  0  0  0  0  0  0
   61.2870   33.5020   46.6500 C   0  0  0  0  0  0  0  0  0  0  0  0
   59.9990   34.1520   45.6430 Cl  0  0  0  0  0  0  0  0  0  0  0  0
   58.1500   31.0710   46.3410 C   0  0  0  0  0  0  0  0  0  0  0  0
   57.5370   32.1630   46.1800 O   0  0  0  0  0  0  0  0  0  0  0  0
   57.7510   29.9430   45.5990 C   0  0  0  0  0  0  0  0  0  0  0  0
   56.6980   30.0710   44.6140 C   0  0  0  0  0  0  0  0  0  0  0  0
   55.8560   30.1730   43.8270 N   0  0  0  0  0  0  0  0  0  0  0  0
   57.6080   26.3400   45.7460 C   0  0  0  0  0  0  0  0  0  0  0  0
   57.2700   25.1790   45.0450 C   0  0  0  0  0  0  0  0  0  0  0  0
   57.0067   22.7779   44.6961 H   0  0  0  0  0  0  0  0  0  0  0  0
   56.1044   22.1159   43.2910 H   0  0  0  0  0  0  0  0  0  0  0  0
   57.9007   22.1047   43.2910 H   0  0  0  0  0  0  0  0  0  0  0  0
   57.8933   26.2588   41.8603 H   0  0  0  0  0  0  0  0  0  0  0  0
   58.5017   28.3283   43.1112 H   0  0  0  0  0  0  0  0  0  0  0  0
   59.9923   27.7074   46.8923 H   0  0  0  0  0  0  0  0  0  0  0  0
   60.6344   29.7287   48.1812 H   0  0  0  0  0  0  0  0  0  0  0  0
   58.9329   33.0018   47.8014 H   0  0  0  0  0  0  0  0  0  0  0  0
   59.5675   31.8939   49.0895 H   0  0  0  0  0  0  0  0  0  0  0  0
   64.2890   32.0840   48.6953 H   0  0  0  0  0  0  0  0  0  0  0  0
   64.6899   33.7343   46.8786 H   0  0  0  0  0  0  0  0  0  0  0  0
   62.7803   34.6273   45.5555 H   0  0  0  0  0  0  0  0  0  0  0  0
   57.5344   26.3574   46.8434 H   0  0  0  0  0  0  0  0  0  0  0  0
   56.9258   24.2905   45.5946 H   0  0  0  0  0  0  0  0  0  0  0  0
  1  2  1  0
  2  3  1  0
  3  4  2  0
  4  5  1  0
  5  6  2  0
  6  7  1  0
  7  8  1  0
  8  9  2  0
  9 10  1  0
 10 11  1  0
 11 12  1  0
 12 13  2  0
 13 14  1  0
 13 15  1  0
 15 16  2  0
 16 17  1  0
 17 18  2  0
 18 19  1  0
 10 20  1  0
 20 21  2  0
 20 22  1  0
 22 23  1  0
 23 24  3  0
  6 25  1  0
 25 26  2  0
 26  3  1  0
 22  7  2  0
 18 12  1  0
  1 27  1  0
  1 28  1  0
  1 29  1  0
  4 30  1  0
  5 31  1  0
  8 32  1  0
  9 33  1  0
 11 34  1  0
 11 35  1  0
 15 36  1  0
 16 37  1  0
 17 38  1  0
 25 39  1  0
 26 40  1  0
M  END
>  <UniqueID>  (37) 
35

>  <SMILES>  (37) 
COc1ccc(-c2ccn(Cc3c(Cl)cccc3Cl)c(=O)c2C#N)cc1

>  <Energy>  (37) 
56.65102670303317

>  <Genealogy>  (37) 
COc1ccc(-c2ccn(Cc3c(Cl)cccc3Cl)c(=O)c2C#N)cc1 (3D coordinates assigned)
COc1ccc(-c2ccn(Cc3c(Cl)cccc3Cl)c(=O)c2C#N)cc1 (optimized conformer: 56.65102670303317 kcal/mol)

>  <smiles>  (37) 
COc1ccc(-c2ccn(Cc3c(Cl)cccc3Cl)c(=O)c2C#N)cc1

>  <score_type>  (37) 
oracle

>  <origin>  (37) 
adg

>  <m_score__min__energy>  (37) 
-7.5700000000000003

>  <m_primary>  (37) 
energy

$$$$
37:0
     RDKit          3D

 59 61  0  0  0  0  0  0  0  0999 V2000
   56.6700   24.7650   45.4270 C   0  0  0  0  0  0  0  0  0  0  0  0
   58.1310   25.0190   45.0750 C   0  0  0  0  0  0  0  0  0  0  0  0
   58.9580   25.9090   46.3800 S   0  0  0  0  0  0  0  0  0  0  0  0
   58.4540   25.4280   47.7130 O   0  0  0  0  0  0  0  0  0  0  0  0
   60.4340   25.6580   46.3050 O   0  0  0  0  0  0  0  0  0  0  0  0
   58.6190   27.6280   46.2120 C   0  0  0  0  0  0  0  0  0  0  0  0
   59.5710   28.5800   46.5860 C   0  0  0  0  0  0  0  0  0  0  0  0
   59.3170   29.9360   46.3950 C   0  0  0  0  0  0  0  0  0  0  0  0
   58.1090   30.3610   45.8230 C   0  0  0  0  0  0  0  0  0  0  0  0
   57.8800   31.8320   45.5690 C   0  0  0  0  0  0  0  0  0  0  0  0
   58.4950   32.6690   46.6670 C   0  0  0  0  0  0  0  0  0  0  0  0
   58.4270   32.1970   47.9900 C   0  0  0  0  0  0  0  0  0  0  0  0
   59.0230   32.9070   49.0450 C   0  0  0  0  0  0  0  0  0  0  0  0
   58.9410   32.3770   50.4640 C   0  0  1  0  0  0  0  0  0  0  0  0
   57.6080   31.9480   50.7060 O   0  0  0  0  0  0  0  0  0  0  0  0
   57.4790   31.4330   52.0180 C   0  0  1  0  0  0  0  0  0  0  0  0
   55.9870   31.3330   52.3660 C   0  0  0  0  0  0  0  0  0  0  0  0
   55.3710   30.3460   51.5860 O   0  0  0  0  0  0  0  0  0  0  0  0
   58.2480   30.0810   52.1670 C   0  0  1  0  0  0  0  0  0  0  0  0
   57.3710   28.9820   52.1730 O   0  0  0  0  0  0  0  0  0  0  0  0
   59.2940   29.9060   51.0440 C   0  0  1  0  0  0  0  0  0  0  0  0
   58.6650   29.4190   49.8820 O   0  0  0  0  0  0  0  0  0  0  0  0
   59.9870   31.2480   50.7530 C   0  0  1  0  0  0  0  0  0  0  0  0
   60.9110   31.0840   49.7040 O   0  0  0  0  0  0  0  0  0  0  0  0
   59.6710   34.1210   48.7700 C   0  0  0  0  0  0  0  0  0  0  0  0
   59.7280   34.6120   47.4660 C   0  0  0  0  0  0  0  0  0  0  0  0
   59.1430   33.9010   46.4120 C   0  0  0  0  0  0  0  0  0  0  0  0
   59.2500   34.5990   44.8000 Cl  0  0  0  0  0  0  0  0  0  0  0  0
   57.1400   29.4070   45.4490 C   0  0  0  0  0  0  0  0  0  0  0  0
   55.9360   29.8480   44.8780 O   0  0  0  0  0  0  0  0  0  0  0  0
   55.7010   29.9860   43.4810 C   0  0  0  0  0  0  0  0  0  0  0  0
   57.4070   28.0410   45.6480 C   0  0  0  0  0  0  0  0  0  0  0  0
   56.5545   24.7449   46.5207 H   0  0  0  0  0  0  0  0  0  0  0  0
   56.0467   25.5683   45.0072 H   0  0  0  0  0  0  0  0  0  0  0  0
   56.3544   23.7985   45.0072 H   0  0  0  0  0  0  0  0  0  0  0  0
   58.6368   24.0544   44.9210 H   0  0  0  0  0  0  0  0  0  0  0  0
   58.1700   25.6256   44.1582 H   0  0  0  0  0  0  0  0  0  0  0  0
   60.5233   28.2577   47.0323 H   0  0  0  0  0  0  0  0  0  0  0  0
   60.0699   30.6797   46.6952 H   0  0  0  0  0  0  0  0  0  0  0  0
   58.3370   32.1072   44.6070 H   0  0  0  0  0  0  0  0  0  0  0  0
   56.7966   32.0212   45.5466 H   0  0  0  0  0  0  0  0  0  0  0  0
   57.8982   31.2560   48.2020 H   0  0  0  0  0  0  0  0  0  0  0  0
   59.2007   33.1866   51.1619 H   0  0  0  0  0  0  0  0  0  0  0  0
   57.9459   32.1138   52.7450 H   0  0  0  0  0  0  0  0  0  0  0  0
   55.8790   31.0747   53.4298 H   0  0  0  0  0  0  0  0  0  0  0  0
   55.5065   32.3014   52.1627 H   0  0  0  0  0  0  0  0  0  0  0  0
   56.0300   30.1040   50.8820 H   0  0  0  0  0  0  0  0  0  0  0  0
   58.7676   30.1161   53.1359 H   0  0  0  0  0  0  0  0  0  0  0  0
   57.0090   28.8990   51.2540 H   0  0  0  0  0  0  0  0  0  0  0  0
   60.0557   29.1820   51.3690 H   0  0  0  0  0  0  0  0  0  0  0  0
   57.6980   29.6200   49.9690 H   0  0  0  0  0  0  0  0  0  0  0  0
   60.5435   31.5709   51.6452 H   0  0  0  0  0  0  0  0  0  0  0  0
   60.5960   30.3150   49.1650 H   0  0  0  0  0  0  0  0  0  0  0  0
   60.1371   34.6891   49.5885 H   0  0  0  0  0  0  0  0  0  0  0  0
   60.2370   35.5660   47.2642 H   0  0  0  0  0  0  0  0  0  0  0  0
   54.7627   30.5370   43.3197 H   0  0  0  0  0  0  0  0  0  0  0  0
   56.5341   30.5383   43.0218 H   0  0  0  0  0  0  0  0  0  0  0  0
   55.6245   28.9893   43.0218 H   0  0  0  0  0  0  0  0  0  0  0  0
   56.6567   27.2907   45.3578 H   0  0  0  0  0  0  0  0  0  0  0  0
  1  2  1  0
  2  3  1  0
  3  4  2  0
  3  5  2  0
  3  6  1  0
  6  7  2  0
  7  8  1  0
  8  9  2  0
  9 10  1  0
 10 11  1  0
 11 12  2  0
 12 13  1  0
 13 14  1  0
 14 15  1  0
 15 16  1  0
 16 17  1  0
 17 18  1  0
 16 19  1  0
 19 20  1  0
 19 21  1  0
 21 22  1  0
 21 23  1  0
 23 24  1  0
 13 25  2  0
 25 26  1  0
 26 27  2  0
 27 28  1  0
  9 29  1  0
 29 30  1  0
 30 31  1  0
 29 32  2  0
 32  6  1  0
 27 11  1  0
 23 14  1  0
  1 33  1  0
  1 34  1  0
  1 35  1  0
  2 36  1  0
  2 37  1  0
  7 38  1  0
  8 39  1  0
 10 40  1  0
 10 41  1  0
 12 42  1  0
 14 43  1  1
 16 44  1  1
 17 45  1  0
 17 46  1  0
 18 47  1  0
 19 48  1  1
 20 49  1  0
 21 50  1  1
 22 51  1  0
 23 52  1  1
 24 53  1  0
 25 54  1  0
 26 55  1  0
 31 56  1  0
 31 57  1  0
 31 58  1  0
 32 59  1  0
M  END
>  <UniqueID>  (38) 
36

>  <SMILES>  (38) 
CCS(=O)(=O)c1ccc(Cc2cc([C@H]3O[C@@H](CO)C(O)C(O)C3O)ccc2Cl)c(OC)c1

>  <Energy>  (38) 
66.68475137275182

>  <Genealogy>  (38) 
CCS(=O)(=O)c1ccc(Cc2cc([C@H]3O[C@@H](CO)C(O)C(O)C3O)ccc2Cl)c(OC)c1 (chirality)
CCS(=O)(=O)c1ccc(Cc2cc([C@H]3O[C@@H](CO)C(O)C(O)C3O)ccc2Cl)c(OC)c1 (3D coordinates assigned)
CCS(=O)(=O)c1ccc(Cc2cc([C@H]3O[C@@H](CO)C(O)C(O)C3O)ccc2Cl)c(OC)c1 (nonaromatic ring conformer: 66.68475137275182 kcal/mol)

>  <smiles>  (38) 
CCS(=O)(=O)c1ccc(Cc2cc(C3OC(CO)C(O)C(O)C3O)ccc2Cl)c(OC)c1

>  <score_type>  (38) 
oracle

>  <origin>  (38) 
adg

>  <m_score__min__energy>  (38) 
-9.1199999999999992

>  <m_primary>  (38) 
energy

$$$$
38:0
     RDKit          3D

 33 35  0  0  0  0  0  0  0  0999 V2000
   55.1964   28.9738   44.4123 H   0  0  0  0  0  0  0  0  0  0  0  0
   56.1370   29.2560   44.9080 C   0  0  0  0  0  0  0  0  0  0  0  0
   56.5690   30.5410   44.8570 N   0  0  0  0  0  0  0  0  0  0  0  0
   57.7300   30.9240   45.4550 C   0  0  0  0  0  0  0  0  0  0  0  0
   58.1250   32.1650   45.4260 N   0  0  0  0  0  0  0  0  0  0  0  0
   58.7020   32.9130   46.5120 C   0  0  0  0  0  0  0  0  0  0  0  0
   58.6960   32.4120   47.8280 C   0  0  0  0  0  0  0  0  0  0  0  0
   58.2677   31.4197   48.0327 H   0  0  0  0  0  0  0  0  0  0  0  0
   59.2300   33.1660   48.8750 C   0  0  0  0  0  0  0  0  0  0  0  0
   59.2345   32.7598   49.8973 H   0  0  0  0  0  0  0  0  0  0  0  0
   59.7580   34.4340   48.6270 C   0  0  0  0  0  0  0  0  0  0  0  0
   60.1860   35.0225   49.4520 H   0  0  0  0  0  0  0  0  0  0  0  0
   59.7430   34.9560   47.3310 C   0  0  0  0  0  0  0  0  0  0  0  0
   60.1540   35.9584   47.1404 H   0  0  0  0  0  0  0  0  0  0  0  0
   59.2060   34.2080   46.2700 C   0  0  0  0  0  0  0  0  0  0  0  0
   59.1930   34.7830   44.8790 C   0  0  0  0  0  0  0  0  0  0  0  0
   59.1682   35.8812   44.9364 H   0  0  0  0  0  0  0  0  0  0  0  0
   60.0986   34.4643   44.3420 H   0  0  0  0  0  0  0  0  0  0  0  0
   58.3028   34.4237   44.3420 H   0  0  0  0  0  0  0  0  0  0  0  0
   58.4680   30.0040   46.1340 N   0  0  0  0  0  0  0  0  0  0  0  0
   59.3530   30.2910   46.6100 H   0  0  0  0  0  0  0  0  0  0  0  0
   58.0740   28.7050   46.2080 C   0  0  0  0  0  0  0  0  0  0  0  0
   58.6907   27.9770   46.7555 H   0  0  0  0  0  0  0  0  0  0  0  0
   56.8850   28.2870   45.5900 C   0  0  0  0  0  0  0  0  0  0  0  0
   56.4360   26.8730   45.6580 C   0  0  0  0  0  0  0  0  0  0  0  0
   57.2100   25.7590   45.3720 C   0  0  0  0  0  0  0  0  0  0  0  0
   58.2632   25.7530   45.0545 H   0  0  0  0  0  0  0  0  0  0  0  0
   56.3990   24.6590   45.5640 C   0  0  0  0  0  0  0  0  0  0  0  0
   56.6789   23.6040   45.4278 H   0  0  0  0  0  0  0  0  0  0  0  0
   55.1690   25.1410   45.9600 C   0  0  0  0  0  0  0  0  0  0  0  0
   54.2945   24.5171   46.1965 H   0  0  0  0  0  0  0  0  0  0  0  0
   55.1940   26.4840   46.0150 N   0  0  0  0  0  0  0  0  0  0  0  0
   54.3960   27.0900   46.3050 H   0  0  0  0  0  0  0  0  0  0  0  0
  1  2  1  0
  2  3  2  0
  3  4  1  0
  4  5  2  0
  5  6  1  0
  6  7  2  0
  7  8  1  0
  7  9  1  0
  9 10  1  0
  9 11  2  0
 11 12  1  0
 11 13  1  0
 13 14  1  0
 13 15  2  0
 15 16  1  0
 16 17  1  0
 16 18  1  0
 16 19  1  0
  4 20  1  0
 20 21  1  0
 20 22  1  0
 22 23  1  0
 22 24  2  0
 24 25  1  0
 25 26  2  0
 26 27  1  0
 26 28  1  0
 28 29  1  0
 28 30  2  0
 30 31  1  0
 30 32  1  0
 32 33  1  0
 24  2  1  0
 32 25  1  0
 15  6  1  0
M  END
>  <UniqueID>  (39) 
37

>  <SMILES>  (39) 
Cc1ccccc1/N=c1\ncc(-c2ccc[nH]2)c[nH]1

>  <Energy>  (39) 
69.98814939603098

>  <Genealogy>  (39) 
Cc1ccccc1/N=c1\ncc(-c2ccc[nH]2)c[nH]1 (cis-trans isomerization)
Cc1ccccc1/N=c1\ncc(-c2ccc[nH]2)c[nH]1 (3D coordinates assigned)
Cc1ccccc1/N=c1\ncc(-c2ccc[nH]2)c[nH]1 (optimized conformer: 69.98814939603098 kcal/mol)

>  <smiles>  (39) 
Cc1ccccc1N=c1ncc(-c2ccc[nH]2)c[nH]1

>  <score_type>  (39) 
oracle

>  <origin>  (39) 
adg

>  <m_score__min__energy>  (39) 
-6.9699999999999998

>  <m_primary>  (39) 
energy

$$$$
39:0
     RDKit          3D

 59 62  0  0  0  0  0  0  0  0999 V2000
   57.0920   21.9020   43.1220 C   0  0  0  0  0  0  0  0  0  0  0  0
   56.3210   22.7160   44.1230 C   0  0  0  0  0  0  0  0  0  0  0  0
   54.9610   22.6670   44.0920 N   0  0  0  0  0  0  0  0  0  0  0  0
   54.1850   23.3750   44.9590 C   0  0  0  0  0  0  0  0  0  0  0  0
   52.8950   23.2940   44.8900 N   0  0  0  0  0  0  0  0  0  0  0  0
   54.7840   24.1800   45.9280 C   0  0  0  0  0  0  0  0  0  0  0  0
   56.1760   24.2570   45.9880 C   0  0  0  0  0  0  0  0  0  0  0  0
   56.9670   23.5420   45.0750 C   0  0  0  0  0  0  0  0  0  0  0  0
   58.4700   23.6140   45.1850 C   0  0  0  0  0  0  0  0  0  0  0  0
   58.8710   24.7940   45.9520 N   0  0  0  0  0  0  0  0  0  0  0  0
   58.6550   26.1210   45.4510 C   0  0  0  0  0  0  0  0  0  0  0  0
   58.1330   26.2830   44.3140 O   0  0  0  0  0  0  0  0  0  0  0  0
   59.1200   27.3210   46.2440 C   0  0  1  0  0  0  0  0  0  0  0  0
   60.2520   26.9330   47.1870 C   0  0  0  0  0  0  0  0  0  0  0  0
   61.0480   26.0200   46.8380 O   0  0  0  0  0  0  0  0  0  0  0  0
   60.4300   27.4980   48.4960 N   0  0  0  0  0  0  0  0  0  0  0  0
   60.3850   29.1690   48.9650 S   0  0  0  0  0  0  0  0  0  0  0  0
   59.0520   29.5100   49.5690 O   0  0  0  0  0  0  0  0  0  0  0  0
   61.4450   29.3970   50.0050 O   0  0  0  0  0  0  0  0  0  0  0  0
   60.7290   30.2070   47.5510 C   0  0  0  0  0  0  0  0  0  0  0  0
   61.4250   31.4750   47.9800 C   0  0  0  0  0  0  0  0  0  0  0  0
   62.7990   31.6210   47.7110 C   0  0  0  0  0  0  0  0  0  0  0  0
   63.4670   32.7990   48.0560 C   0  0  0  0  0  0  0  0  0  0  0  0
   62.7740   33.8430   48.6700 C   0  0  0  0  0  0  0  0  0  0  0  0
   61.4070   33.7160   48.9360 C   0  0  0  0  0  0  0  0  0  0  0  0
   60.7250   32.5420   48.5920 C   0  0  0  0  0  0  0  0  0  0  0  0
   59.0020   32.4520   48.9420 Cl  0  0  0  0  0  0  0  0  0  0  0  0
   59.5010   28.4860   45.2870 C   0  0  0  0  0  0  0  0  0  0  0  0
   58.4720   29.5190   45.6150 C   0  0  0  0  0  0  0  0  0  0  0  0
   58.3570   30.8490   44.9680 C   0  0  0  0  0  0  0  0  0  0  0  0
   58.6290   32.0240   45.6960 C   0  0  0  0  0  0  0  0  0  0  0  0
   58.5250   33.2780   45.0840 C   0  0  0  0  0  0  0  0  0  0  0  0
   58.8840   34.7310   45.9980 Cl  0  0  0  0  0  0  0  0  0  0  0  0
   58.1450   33.3740   43.7430 C   0  0  0  0  0  0  0  0  0  0  0  0
   57.8710   32.2150   43.0110 C   0  0  0  0  0  0  0  0  0  0  0  0
   57.3900   32.3370   41.3290 Cl  0  0  0  0  0  0  0  0  0  0  0  0
   57.9780   30.9590   43.6170 C   0  0  0  0  0  0  0  0  0  0  0  0
   57.6900   29.1370   46.5640 N   0  0  0  0  0  0  0  0  0  0  0  0
   58.0340   27.8770   46.9730 O   0  0  0  0  0  0  0  0  0  0  0  0
   57.7551   21.2020   43.6514 H   0  0  0  0  0  0  0  0  0  0  0  0
   56.3905   21.3365   42.4910 H   0  0  0  0  0  0  0  0  0  0  0  0
   57.6947   22.5718   42.4910 H   0  0  0  0  0  0  0  0  0  0  0  0
   52.3430   23.9000   44.2420 H   0  0  0  0  0  0  0  0  0  0  0  0
   54.1652   24.7485   46.6378 H   0  0  0  0  0  0  0  0  0  0  0  0
   56.6564   24.8818   46.7554 H   0  0  0  0  0  0  0  0  0  0  0  0
   58.8398   22.7101   45.6913 H   0  0  0  0  0  0  0  0  0  0  0  0
   58.8981   23.6839   44.1741 H   0  0  0  0  0  0  0  0  0  0  0  0
   59.3520   24.6750   46.8720 H   0  0  0  0  0  0  0  0  0  0  0  0
   61.3754   29.6595   46.8493 H   0  0  0  0  0  0  0  0  0  0  0  0
   59.7781   30.4713   47.0653 H   0  0  0  0  0  0  0  0  0  0  0  0
   63.3507   30.8022   47.2259 H   0  0  0  0  0  0  0  0  0  0  0  0
   64.5411   32.9035   47.8431 H   0  0  0  0  0  0  0  0  0  0  0  0
   63.3036   34.7670   48.9451 H   0  0  0  0  0  0  0  0  0  0  0  0
   60.8644   34.5426   49.4180 H   0  0  0  0  0  0  0  0  0  0  0  0
   60.5162   28.8555   45.4941 H   0  0  0  0  0  0  0  0  0  0  0  0
   59.5120   28.1976   44.2255 H   0  0  0  0  0  0  0  0  0  0  0  0
   58.9253   31.9552   46.7531 H   0  0  0  0  0  0  0  0  0  0  0  0
   58.0615   34.3605   43.2637 H   0  0  0  0  0  0  0  0  0  0  0  0
   57.7645   30.0511   43.0338 H   0  0  0  0  0  0  0  0  0  0  0  0
  1  2  1  0
  2  3  1  0
  3  4  1  0
  4  5  2  3
  4  6  1  0
  6  7  2  0
  7  8  1  0
  8  9  1  0
  9 10  1  0
 10 11  1  0
 11 12  2  0
 13 11  1  6
 13 14  1  0
 14 15  2  0
 14 16  1  0
 16 17  1  0
 17 18  2  0
 17 19  2  0
 17 20  1  0
 20 21  1  0
 21 22  2  0
 22 23  1  0
 23 24  2  0
 24 25  1  0
 25 26  2  0
 26 27  1  0
 13 28  1  0
 28 29  1  0
 29 30  1  0
 30 31  2  0
 31 32  1  0
 32 33  1  0
 32 34  2  0
 34 35  1  0
 35 36  1  0
 35 37  2  0
 29 38  2  0
 38 39  1  0
  8  2  2  0
 39 13  1  0
 26 21  1  0
 37 30  1  0
  1 40  1  0
  1 41  1  0
  1 42  1  0
  5 43  1  0
  6 44  1  0
  7 45  1  0
  9 46  1  0
  9 47  1  0
 10 48  1  0
 20 49  1  0
 20 50  1  0
 22 51  1  0
 23 52  1  0
 24 53  1  0
 25 54  1  0
 28 55  1  0
 28 56  1  0
 31 57  1  0
 34 58  1  0
 37 59  1  0
M  CHG  2   3  -1  16  -1
M  END
>  <UniqueID>  (40) 
38

>  <SMILES>  (40) 
Cc1[n-]c(=N)ccc1CNC(=O)[C@@]1(C(=O)[N-]S(=O)(=O)Cc2ccccc2Cl)CC(c2cc(Cl)cc(Cl)c2)=NO1

>  <Energy>  (40) 
77.39277138515412

>  <Genealogy>  (40) 
Cc1[n-]c(=N)ccc1CNC(=O)C1(C(=O)[N-]S(=O)(=O)Cc2ccccc2Cl)CC(c2cc(Cl)cc(Cl)c2)=NO1 (protonated)
Cc1[n-]c(=N)ccc1CNC(=O)[C@@]1(C(=O)[N-]S(=O)(=O)Cc2ccccc2Cl)CC(c2cc(Cl)cc(Cl)c2)=NO1 (chirality)
Cc1[n-]c(=N)ccc1CNC(=O)[C@@]1(C(=O)[N-]S(=O)(=O)Cc2ccccc2Cl)CC(c2cc(Cl)cc(Cl)c2)=NO1 (3D coordinates assigned)
Cc1[n-]c(=N)ccc1CNC(=O)[C@@]1(C(=O)[N-]S(=O)(=O)Cc2ccccc2Cl)CC(c2cc(Cl)cc(Cl)c2)=NO1 (nonaromatic ring conformer: 77.39277138515412 kcal/mol)

>  <smiles>  (40) 
Cc1[nH]c(=N)ccc1CNC(=O)C1(C(=O)NS(=O)(=O)Cc2ccccc2Cl)CC(c2cc(Cl)cc(Cl)c2)=NO1

>  <score_type>  (40) 
oracle

>  <origin>  (40) 
adg

>  <m_score__min__energy>  (40) 
-13.140000000000001

>  <m_primary>  (40) 
energy

$$$$
40:0
     RDKit          3D

 42 44  0  0  0  0  0  0  0  0999 V2000
   57.8150   31.3300   52.6420 C   0  0  0  0  0  0  0  0  0  0  0  0
   57.7270   29.9310   53.1890 C   0  0  0  0  0  0  0  0  0  0  0  0
   58.8070   29.3930   53.9070 C   0  0  0  0  0  0  0  0  0  0  0  0
   58.7410   28.0950   54.4160 C   0  0  0  0  0  0  0  0  0  0  0  0
   57.5840   27.3220   54.2330 C   0  0  0  0  0  0  0  0  0  0  0  0
   57.4810   25.9880   54.7520 N   0  0  0  0  0  0  0  0  0  0  0  0
   56.9350   24.8530   54.0660 C   0  0  0  0  0  0  0  0  0  0  0  0
   55.7160   24.5790   54.2310 O   0  0  0  0  0  0  0  0  0  0  0  0
   57.7690   23.9680   53.2190 C   0  0  0  0  0  0  0  0  0  0  0  0
   59.0730   24.3460   52.8480 C   0  0  0  0  0  0  0  0  0  0  0  0
   59.8530   23.5060   52.0510 C   0  0  0  0  0  0  0  0  0  0  0  0
   59.3480   22.2740   51.6240 C   0  0  0  0  0  0  0  0  0  0  0  0
   60.1320   21.4440   50.8310 O   0  0  0  0  0  0  0  0  0  0  0  0
   58.0590   21.8780   51.9980 C   0  0  0  0  0  0  0  0  0  0  0  0
   57.5630   20.6470   51.5720 O   0  0  0  0  0  0  0  0  0  0  0  0
   57.2750   22.7220   52.7980 C   0  0  0  0  0  0  0  0  0  0  0  0
   56.5190   27.8420   53.4910 C   0  0  0  0  0  0  0  0  0  0  0  0
   56.5850   29.1400   52.9500 C   0  0  0  0  0  0  0  0  0  0  0  0
   55.4850   29.6980   52.2120 N   0  0  0  0  0  0  0  0  0  0  0  0
   54.1060   29.7090   52.6060 C   0  0  0  0  0  0  0  0  0  0  0  0
   53.7410   29.0960   53.6450 O   0  0  0  0  0  0  0  0  0  0  0  0
   53.1000   30.3950   51.7600 C   0  0  0  0  0  0  0  0  0  0  0  0
   52.6940   29.8330   50.5350 C   0  0  0  0  0  0  0  0  0  0  0  0
   51.7440   30.4790   49.7370 C   0  0  0  0  0  0  0  0  0  0  0  0
   51.3540   29.9100   48.5310 O   0  0  0  0  0  0  0  0  0  0  0  0
   51.1890   31.6940   50.1530 C   0  0  0  0  0  0  0  0  0  0  0  0
   50.2440   32.3370   49.3590 O   0  0  0  0  0  0  0  0  0  0  0  0
   51.5850   32.2620   51.3690 C   0  0  0  0  0  0  0  0  0  0  0  0
   51.0370   33.4700   51.7860 O   0  0  0  0  0  0  0  0  0  0  0  0
   52.5350   31.6170   52.1680 C   0  0  0  0  0  0  0  0  0  0  0  0
   57.8601   32.0472   53.4748 H   0  0  0  0  0  0  0  0  0  0  0  0
   58.7210   31.4264   52.0256 H   0  0  0  0  0  0  0  0  0  0  0  0
   56.9282   31.5392   52.0256 H   0  0  0  0  0  0  0  0  0  0  0  0
   59.7110   29.9983   54.0694 H   0  0  0  0  0  0  0  0  0  0  0  0
   59.5989   27.6764   54.9626 H   0  0  0  0  0  0  0  0  0  0  0  0
   59.4803   25.3095   53.1882 H   0  0  0  0  0  0  0  0  0  0  0  0
   60.8675   23.8142   51.7582 H   0  0  0  0  0  0  0  0  0  0  0  0
   58.1290   20.0070   51.0280 H   0  0  0  0  0  0  0  0  0  0  0  0
   56.2651   22.4058   53.0983 H   0  0  0  0  0  0  0  0  0  0  0  0
   55.6196   27.2300   53.3282 H   0  0  0  0  0  0  0  0  0  0  0  0
   53.1273   28.8781   50.2026 H   0  0  0  0  0  0  0  0  0  0  0  0
   52.8426   32.0688   53.1226 H   0  0  0  0  0  0  0  0  0  0  0  0
  1  2  1  0
  2  3  2  0
  3  4  1  0
  4  5  2  0
  5  6  1  0
  6  7  1  0
  7  8  2  0
  7  9  1  0
  9 10  2  0
 10 11  1  0
 11 12  2  0
 12 13  1  0
 12 14  1  0
 14 15  1  0
 14 16  2  0
  5 17  1  0
 17 18  2  0
 18 19  1  0
 19 20  1  0
 20 21  2  0
 20 22  1  0
 22 23  2  0
 23 24  1  0
 24 25  1  0
 24 26  2  0
 26 27  1  0
 26 28  1  0
 28 29  1  0
 28 30  2  0
 18  2  1  0
 30 22  1  0
 16  9  1  0
  1 31  1  0
  1 32  1  0
  1 33  1  0
  3 34  1  0
  4 35  1  0
 10 36  1  0
 11 37  1  0
 15 38  1  0
 16 39  1  0
 17 40  1  0
 23 41  1  0
 30 42  1  0
M  CHG  6   6  -1  13  -1  19  -1  25  -1  27  -1  29  -1
M  END
>  <UniqueID>  (41) 
39

>  <SMILES>  (41) 
Cc1ccc([N-]C(=O)c2ccc([O-])c(O)c2)cc1[N-]C(=O)c1cc([O-])c([O-])c([O-])c1

>  <Energy>  (41) 
56.88707564194756

>  <Genealogy>  (41) 
Cc1ccc([N-]C(=O)c2ccc([O-])c(O)c2)cc1[N-]C(=O)c1cc([O-])c([O-])c([O-])c1 (protonated)
Cc1ccc([N-]C(=O)c2ccc([O-])c(O)c2)cc1[N-]C(=O)c1cc([O-])c([O-])c([O-])c1 (3D coordinates assigned)
Cc1ccc([N-]C(=O)c2ccc([O-])c(O)c2)cc1[N-]C(=O)c1cc([O-])c([O-])c([O-])c1 (optimized conformer: 56.88707564194756 kcal/mol)

>  <smiles>  (41) 
Cc1ccc(NC(=O)c2ccc(O)c(O)c2)cc1NC(=O)c1cc(O)c(O)c(O)c1

>  <score_type>  (41) 
oracle

>  <origin>  (41) 
adg

>  <m_score__min__energy>  (41) 
-21.010000000000002

>  <m_primary>  (41) 
energy

$$$$
41:0
     RDKit          3D

 68 70  0  0  0  0  0  0  0  0999 V2000
   58.7499   32.0542   43.6831 H   0  0  0  0  0  0  0  0  0  0  0  0
   58.1160   31.7310   44.5220 C   0  0  0  0  0  0  0  0  0  0  0  0
   57.5840   30.3500   44.5250 C   0  0  0  0  0  0  0  0  0  0  0  0
   56.4460   30.1240   45.0200 O   0  0  0  0  0  0  0  0  0  0  0  0
   58.4110   29.2600   44.0350 N   0  0  0  0  0  0  0  0  0  0  0  0
   58.4940   29.3740   42.9970 H   0  0  0  0  0  0  0  0  0  0  0  0
   59.7800   29.3330   44.5730 C   0  0  0  0  0  0  0  0  0  0  0  0
   60.4077   28.6011   44.0436 H   0  0  0  0  0  0  0  0  0  0  0  0
   60.1465   30.3592   44.4230 H   0  0  0  0  0  0  0  0  0  0  0  0
   59.8310   29.0320   46.0720 C   0  0  0  0  0  0  0  0  0  0  0  0
   60.8822   28.9469   46.3847 H   0  0  0  0  0  0  0  0  0  0  0  0
   59.3305   29.8520   46.6077 H   0  0  0  0  0  0  0  0  0  0  0  0
   59.1350   27.7790   46.3890 N   0  0  0  0  0  0  0  0  0  0  0  0
   59.4380   27.1320   47.6430 C   0  0  0  0  0  0  0  0  0  0  0  0
   58.8300   26.0760   47.9670 O   0  0  0  0  0  0  0  0  0  0  0  0
   60.4040   27.6890   48.4990 O   0  0  0  0  0  0  0  0  0  0  0  0
   60.2340   28.8270   49.3560 C   0  0  0  0  0  0  0  0  0  0  0  0
   61.2410   29.9340   48.9850 C   0  0  0  0  0  0  0  0  0  0  0  0
   61.6484   30.3819   49.9034 H   0  0  0  0  0  0  0  0  0  0  0  0
   62.0609   29.5006   48.3935 H   0  0  0  0  0  0  0  0  0  0  0  0
   60.7321   30.7093   48.3935 H   0  0  0  0  0  0  0  0  0  0  0  0
   58.7880   29.3540   49.2820 C   0  0  0  0  0  0  0  0  0  0  0  0
   58.3971   29.4965   50.3003 H   0  0  0  0  0  0  0  0  0  0  0  0
   58.7748   30.3147   48.7464 H   0  0  0  0  0  0  0  0  0  0  0  0
   58.1597   28.6270   48.7464 H   0  0  0  0  0  0  0  0  0  0  0  0
   60.5170   28.3590   50.7930 C   0  0  0  0  0  0  0  0  0  0  0  0
   60.0829   29.0768   51.5046 H   0  0  0  0  0  0  0  0  0  0  0  0
   60.0667   27.3679   50.9512 H   0  0  0  0  0  0  0  0  0  0  0  0
   61.6038   28.2974   50.9512 H   0  0  0  0  0  0  0  0  0  0  0  0
   57.8670   27.4490   45.7180 C   0  0  0  0  0  0  0  0  0  0  0  0
   57.7316   26.3576   45.7405 H   0  0  0  0  0  0  0  0  0  0  0  0
   57.0627   27.9723   46.2559 H   0  0  0  0  0  0  0  0  0  0  0  0
   57.8250   27.9200   44.2500 C   0  0  0  0  0  0  0  0  0  0  0  0
   58.3822   27.1958   43.6376 H   0  0  0  0  0  0  0  0  0  0  0  0
   56.7645   27.9853   43.9653 H   0  0  0  0  0  0  0  0  0  0  0  0
   57.8520   32.6010   45.5060 C   0  0  0  0  0  0  0  0  0  0  0  0
   56.8262   32.9846   45.6086 H   0  0  0  0  0  0  0  0  0  0  0  0
   58.8820   33.0680   46.4610 C   0  0  0  0  0  0  0  0  0  0  0  0
   58.5970   34.0070   47.4650 C   0  0  0  0  0  0  0  0  0  0  0  0
   57.5786   34.4107   47.5639 H   0  0  0  0  0  0  0  0  0  0  0  0
   59.6010   34.4310   48.3390 C   0  0  0  0  0  0  0  0  0  0  0  0
   59.3562   35.1325   49.1501 H   0  0  0  0  0  0  0  0  0  0  0  0
   60.9160   33.9720   48.1930 C   0  0  0  0  0  0  0  0  0  0  0  0
   62.2150   34.5860   49.2890 S   0  0  0  0  0  0  0  0  0  0  0  0
   62.2950   33.1310   50.3620 C   0  0  0  0  0  0  0  0  0  0  0  0
   63.5480   32.4960   50.4340 C   0  0  0  0  0  0  0  0  0  0  0  0
   64.3990   32.9153   49.8772 H   0  0  0  0  0  0  0  0  0  0  0  0
   63.7300   31.3470   51.1970 C   0  0  0  0  0  0  0  0  0  0  0  0
   64.7152   30.8589   51.2321 H   0  0  0  0  0  0  0  0  0  0  0  0
   62.6640   30.8170   51.9150 C   0  0  0  0  0  0  0  0  0  0  0  0
   62.7979   29.8910   52.4935 H   0  0  0  0  0  0  0  0  0  0  0  0
   61.4240   31.4580   51.9030 C   0  0  0  0  0  0  0  0  0  0  0  0
   60.5903   31.0303   52.4793 H   0  0  0  0  0  0  0  0  0  0  0  0
   61.2190   32.6440   51.1660 C   0  0  0  0  0  0  0  0  0  0  0  0
   59.8400   33.2910   51.2870 C   0  0  0  0  0  0  0  0  0  0  0  0
   59.8464   34.1369   50.5838 H   0  0  0  0  0  0  0  0  0  0  0  0
   58.6740   32.4130   50.8030 C   0  0  0  0  0  0  0  0  0  0  0  0
   58.1352   32.0073   51.6720 H   0  0  0  0  0  0  0  0  0  0  0  0
   57.9861   33.0193   50.1954 H   0  0  0  0  0  0  0  0  0  0  0  0
   59.0666   31.5843   50.1954 H   0  0  0  0  0  0  0  0  0  0  0  0
   59.6120   33.8430   52.6960 C   0  0  0  0  0  0  0  0  0  0  0  0
   59.9219   33.0927   53.4383 H   0  0  0  0  0  0  0  0  0  0  0  0
   60.2052   34.7594   52.8312 H   0  0  0  0  0  0  0  0  0  0  0  0
   58.5450   34.0736   52.8312 H   0  0  0  0  0  0  0  0  0  0  0  0
   61.1870   32.9690   47.2420 C   0  0  0  0  0  0  0  0  0  0  0  0
   62.7630   32.1910   47.1350 Cl  0  0  0  0  0  0  0  0  0  0  0  0
   60.1730   32.5270   46.3830 C   0  0  0  0  0  0  0  0  0  0  0  0
   60.3919   31.7469   45.6390 H   0  0  0  0  0  0  0  0  0  0  0  0
  1  2  1  0
  2  3  1  0
  3  4  2  0
  3  5  1  0
  5  6  1  0
  5  7  1  0
  7  8  1  0
  7  9  1  0
  7 10  1  0
 10 11  1  0
 10 12  1  0
 10 13  1  0
 13 14  1  0
 14 15  2  0
 14 16  1  0
 16 17  1  0
 17 18  1  0
 18 19  1  0
 18 20  1  0
 18 21  1  0
 17 22  1  0
 22 23  1  0
 22 24  1  0
 22 25  1  0
 17 26  1  0
 26 27  1  0
 26 28  1  0
 26 29  1  0
 13 30  1  0
 30 31  1  0
 30 32  1  0
 30 33  1  0
 33 34  1  0
 33 35  1  0
  2 36  2  0
 36 37  1  0
 36 38  1  0
 38 39  2  0
 39 40  1  0
 39 41  1  0
 41 42  1  0
 41 43  2  0
 43 44  1  0
 44 45  1  0
 45 46  2  0
 46 47  1  0
 46 48  1  0
 48 49  1  0
 48 50  2  0
 50 51  1  0
 50 52  1  0
 52 53  1  0
 52 54  2  0
 54 55  1  0
 55 56  1  0
 55 57  1  0
 57 58  1  0
 57 59  1  0
 57 60  1  0
 55 61  1  0
 61 62  1  0
 61 63  1  0
 61 64  1  0
 43 65  1  0
 65 66  1  0
 65 67  2  0
 67 68  1  0
 33  5  1  0
 67 38  1  0
 54 45  1  0
M  CHG  1   5   1
M  END
>  <UniqueID>  (42) 
40

>  <SMILES>  (42) 
CC(C)c1ccccc1Sc1ccc(/C=C/C(=O)[NH+]2CCN(C(=O)OC(C)(C)C)CC2)cc1Cl

>  <Energy>  (42) 
76.73474556718058

>  <Genealogy>  (42) 
CC(C)c1ccccc1Sc1ccc(C=CC(=O)[NH+]2CCN(C(=O)OC(C)(C)C)CC2)cc1Cl (protonated)
CC(C)c1ccccc1Sc1ccc(/C=C/C(=O)[NH+]2CCN(C(=O)OC(C)(C)C)CC2)cc1Cl (cis-trans isomerization)
CC(C)c1ccccc1Sc1ccc(/C=C/C(=O)[NH+]2CCN(C(=O)OC(C)(C)C)CC2)cc1Cl (3D coordinates assigned)
CC(C)c1ccccc1Sc1ccc(/C=C/C(=O)[NH+]2CCN(C(=O)OC(C)(C)C)CC2)cc1Cl (nonaromatic ring conformer: 76.73474556718058 kcal/mol)

>  <smiles>  (42) 
CC(C)c1ccccc1Sc1ccc(C=CC(=O)N2CCN(C(=O)OC(C)(C)C)CC2)cc1Cl

>  <score_type>  (42) 
oracle

>  <origin>  (42) 
adg

>  <m_score__min__energy>  (42) 
-8.5999999999999996

>  <m_primary>  (42) 
energy

$$$$
42:0
     RDKit          3D

 52 55  0  0  0  0  0  0  0  0999 V2000
   55.5410   29.8120   43.5280 C   0  0  0  0  0  0  0  0  0  0  0  0
   56.3800   30.5230   44.5100 N   0  0  0  0  0  0  0  0  0  0  0  0
   57.3860   31.3300   43.8000 C   0  0  0  0  0  0  0  0  0  0  0  0
   57.0390   29.5730   45.4360 C   0  0  0  0  0  0  0  0  0  0  0  0
   57.7990   28.4880   44.6640 C   0  0  0  0  0  0  0  0  0  0  0  0
   58.5870   27.2850   45.7990 S   0  0  0  0  0  0  0  0  0  0  0  0
   59.5270   28.5070   46.7170 C   0  0  0  0  0  0  0  0  0  0  0  0
   59.5620   28.4630   48.1160 C   0  0  0  0  0  0  0  0  0  0  0  0
   60.3070   29.4060   48.8300 C   0  0  0  0  0  0  0  0  0  0  0  0
   61.0450   30.3910   48.1510 C   0  0  0  0  0  0  0  0  0  0  0  0
   61.8280   31.3910   48.9140 C   0  0  0  0  0  0  0  0  0  0  0  0
   63.1410   31.2530   49.2220 N   0  0  0  0  0  0  0  0  0  0  0  0
   63.4390   32.3560   49.9350 C   0  0  0  0  0  0  0  0  0  0  0  0
   64.6620   32.6550   50.4400 N   0  0  0  0  0  0  0  0  0  0  0  0
   64.8250   33.8300   51.1160 C   0  0  0  0  0  0  0  0  0  0  0  0
   63.7470   34.7230   51.2690 C   0  0  0  0  0  0  0  0  0  0  0  0
   62.5030   34.3780   50.7260 C   0  0  0  0  0  0  0  0  0  0  0  0
   62.3950   33.1850   50.0940 N   0  0  0  0  0  0  0  0  0  0  0  0
   61.3650   32.5830   49.4680 C   0  0  0  0  0  0  0  0  0  0  0  0
   60.0600   33.1530   49.3010 N   0  0  0  0  0  0  0  0  0  0  0  0
   59.5130   33.5000   48.0180 C   0  0  0  0  0  0  0  0  0  0  0  0
   60.1870   34.3840   47.1520 C   0  0  0  0  0  0  0  0  0  0  0  0
   59.6260   34.7260   45.9190 C   0  0  0  0  0  0  0  0  0  0  0  0
   58.3870   34.2010   45.5420 C   0  0  0  0  0  0  0  0  0  0  0  0
   57.7050   33.3360   46.4010 C   0  0  0  0  0  0  0  0  0  0  0  0
   58.2620   32.9900   47.6350 C   0  0  0  0  0  0  0  0  0  0  0  0
   61.0000   30.4330   46.7460 C   0  0  0  0  0  0  0  0  0  0  0  0
   60.2500   29.4910   46.0340 C   0  0  0  0  0  0  0  0  0  0  0  0
   54.8054   29.1886   44.0574 H   0  0  0  0  0  0  0  0  0  0  0  0
   55.0152   30.5437   42.8970 H   0  0  0  0  0  0  0  0  0  0  0  0
   56.1765   29.1733   42.8970 H   0  0  0  0  0  0  0  0  0  0  0  0
   58.0267   31.8440   44.5317 H   0  0  0  0  0  0  0  0  0  0  0  0
   58.0035   30.6739   43.1689 H   0  0  0  0  0  0  0  0  0  0  0  0
   56.8795   32.0751   43.1689 H   0  0  0  0  0  0  0  0  0  0  0  0
   57.7471   30.1241   46.0723 H   0  0  0  0  0  0  0  0  0  0  0  0
   56.2649   29.0885   46.0492 H   0  0  0  0  0  0  0  0  0  0  0  0
   57.0938   27.9539   44.0103 H   0  0  0  0  0  0  0  0  0  0  0  0
   58.5892   28.9739   44.0728 H   0  0  0  0  0  0  0  0  0  0  0  0
   59.0019   27.6844   48.6546 H   0  0  0  0  0  0  0  0  0  0  0  0
   60.3158   29.3771   49.9296 H   0  0  0  0  0  0  0  0  0  0  0  0
   63.7840   30.4680   48.9750 H   0  0  0  0  0  0  0  0  0  0  0  0
   65.8064   34.0811   51.5446 H   0  0  0  0  0  0  0  0  0  0  0  0
   63.8796   35.6742   51.8053 H   0  0  0  0  0  0  0  0  0  0  0  0
   61.6402   35.0551   50.8102 H   0  0  0  0  0  0  0  0  0  0  0  0
   59.5220   33.4040   50.1620 H   0  0  0  0  0  0  0  0  0  0  0  0
   61.1586   34.8064   47.4479 H   0  0  0  0  0  0  0  0  0  0  0  0
   60.1607   35.4100   45.2435 H   0  0  0  0  0  0  0  0  0  0  0  0
   57.9490   34.4688   44.5692 H   0  0  0  0  0  0  0  0  0  0  0  0
   56.7278   32.9265   46.1055 H   0  0  0  0  0  0  0  0  0  0  0  0
   57.7172   32.3140   48.3104 H   0  0  0  0  0  0  0  0  0  0  0  0
   61.5577   31.2109   46.2039 H   0  0  0  0  0  0  0  0  0  0  0  0
   60.2286   29.5240   44.9347 H   0  0  0  0  0  0  0  0  0  0  0  0
  1  2  1  0
  2  3  1  0
  2  4  1  0
  4  5  1  0
  5  6  1  0
  6  7  1  0
  7  8  2  0
  8  9  1  0
  9 10  2  0
 10 11  1  0
 11 12  1  0
 12 13  2  0
 13 14  1  0
 14 15  2  0
 15 16  1  0
 16 17  2  0
 17 18  1  0
 18 19  1  0
 19 20  1  0
 20 21  1  0
 21 22  2  0
 22 23  1  0
 23 24  2  0
 24 25  1  0
 25 26  2  0
 10 27  1  0
 27 28  2  0
 28  7  1  0
 19 11  2  0
 26 21  1  0
 18 13  1  0
  1 29  1  0
  1 30  1  0
  1 31  1  0
  3 32  1  0
  3 33  1  0
  3 34  1  0
  4 35  1  0
  4 36  1  0
  5 37  1  0
  5 38  1  0
  8 39  1  0
  9 40  1  0
 12 41  1  0
 15 42  1  0
 16 43  1  0
 17 44  1  0
 20 45  1  0
 22 46  1  0
 23 47  1  0
 24 48  1  0
 25 49  1  0
 26 50  1  0
 27 51  1  0
 28 52  1  0
M  CHG  1  12   1
M  END
>  <UniqueID>  (43) 
41

>  <SMILES>  (43) 
CN(C)CCSc1ccc(-c2[nH+]c3ncccn3c2Nc2ccccc2)cc1

>  <Energy>  (43) 
98.84544435283053

>  <Genealogy>  (43) 
CN(C)CCSc1ccc(-c2[nH+]c3ncccn3c2Nc2ccccc2)cc1 (protonated)
CN(C)CCSc1ccc(-c2[nH+]c3ncccn3c2Nc2ccccc2)cc1 (3D coordinates assigned)
CN(C)CCSc1ccc(-c2[nH+]c3ncccn3c2Nc2ccccc2)cc1 (optimized conformer: 98.84544435283053 kcal/mol)

>  <smiles>  (43) 
CN(C)CCSc1ccc(-c2nc3ncccn3c2Nc2ccccc2)cc1

>  <score_type>  (43) 
oracle

>  <origin>  (43) 
adg

>  <m_score__min__energy>  (43) 
-6.8499999999999996

>  <m_primary>  (43) 
energy

$$$$
43:0
     RDKit          3D

 51 53  0  0  1  0  0  0  0  0999 V2000
   55.3560   24.2470   45.6210 C   0  0  0  0  0  0  0  0  0  0  0  0
   55.8970   25.6460   45.6210 C   0  0  0  0  0  0  0  0  0  0  0  0
   55.2070   26.6230   46.0000 O   0  0  0  0  0  0  0  0  0  0  0  0
   57.2300   25.8460   45.1750 N   0  0  0  0  0  0  0  0  0  0  0  0
   57.7860   27.1660   45.1570 C   0  0  0  0  0  0  0  0  0  0  0  0
   59.1720   27.2380   45.2860 C   0  0  0  0  0  0  0  0  0  0  0  0
   59.7900   28.4630   45.2780 C   0  0  0  0  0  0  0  0  0  0  0  0
   58.9950   29.5860   45.1410 C   0  0  0  0  0  0  0  0  0  0  0  0
   57.6180   29.5080   45.0130 C   0  0  0  0  0  0  0  0  0  0  0  0
   62.2180   34.2190   50.5020 N   0  0  0  0  0  0  0  0  0  0  0  0
   61.2020   33.7990   49.8350 C   0  0  0  0  0  0  0  0  0  0  0  0
   58.1360   31.9720   46.4130 N   0  0  0  0  0  0  0  0  0  0  0  0
   58.6280   33.1450   46.7760 C   0  0  0  0  0  0  0  0  0  0  0  0
   59.3940   33.2480   47.9920 C   0  0  0  0  0  0  0  0  0  0  0  0
   57.6830   34.1840   44.8330 C   0  0  0  0  0  0  0  0  0  0  0  0
   57.2030   32.9690   44.5070 N   0  0  0  0  0  0  0  0  0  0  0  0
   57.4210   31.8730   45.2790 C   0  0  0  0  0  0  0  0  0  0  0  0
   56.9150   30.7350   44.8770 N   0  0  0  0  0  0  0  0  0  0  0  0
   63.5550   33.6550   50.2630 C   0  0  0  0  0  0  0  0  0  0  0  0
   63.2700   32.2540   49.7050 C   0  0  0  0  0  0  0  0  0  0  0  0
   63.7420   32.1900   48.3480 N   0  0  0  0  0  0  0  0  0  0  0  0
   62.7490   31.5410   47.5380 C   0  0  0  0  0  0  0  0  0  0  0  0
   64.0940   33.4730   47.8220 C   0  0  0  0  0  0  0  0  0  0  0  0
   60.9530   34.1890   48.0390 S   0  0  0  0  0  0  0  0  0  0  0  0
   58.4210   34.2730   46.0080 C   0  0  0  0  0  0  0  0  0  0  0  0
   59.2550   32.7860   49.2410 C   0  0  0  0  0  0  0  0  0  0  0  0
   60.1410   33.0510   50.1600 N   0  0  0  0  0  0  0  0  0  0  0  0
   57.0010   28.2760   45.0210 C   0  0  0  0  0  0  0  0  0  0  0  0
   55.2238   23.9050   46.6581 H   0  0  0  0  0  0  0  0  0  0  0  0
   54.3861   24.2290   45.1025 H   0  0  0  0  0  0  0  0  0  0  0  0
   56.0614   23.5811   45.1025 H   0  0  0  0  0  0  0  0  0  0  0  0
   57.8270   25.0360   44.8510 H   0  0  0  0  0  0  0  0  0  0  0  0
   59.7665   26.3187   45.3935 H   0  0  0  0  0  0  0  0  0  0  0  0
   60.8821   28.5489   45.3773 H   0  0  0  0  0  0  0  0  0  0  0  0
   59.4731   30.5766   45.1334 H   0  0  0  0  0  0  0  0  0  0  0  0
   57.4999   35.0646   44.1997 H   0  0  0  0  0  0  0  0  0  0  0  0
   56.6480   32.9150   43.6180 H   0  0  0  0  0  0  0  0  0  0  0  0
   64.1109   34.2615   49.5328 H   0  0  0  0  0  0  0  0  0  0  0  0
   64.1744   33.6319   51.1717 H   0  0  0  0  0  0  0  0  0  0  0  0
   63.7916   31.5006   50.3136 H   0  0  0  0  0  0  0  0  0  0  0  0
   62.1889   32.0532   49.7342 H   0  0  0  0  0  0  0  0  0  0  0  0
   62.0060   31.0554   48.1877 H   0  0  0  0  0  0  0  0  0  0  0  0
   62.2489   32.2871   46.9030 H   0  0  0  0  0  0  0  0  0  0  0  0
   63.2317   30.7835   46.9030 H   0  0  0  0  0  0  0  0  0  0  0  0
   64.2851   34.1696   48.6516 H   0  0  0  0  0  0  0  0  0  0  0  0
   64.9999   33.3803   47.2050 H   0  0  0  0  0  0  0  0  0  0  0  0
   63.2676   33.8556   47.2050 H   0  0  0  0  0  0  0  0  0  0  0  0
   58.8389   35.2400   46.3247 H   0  0  0  0  0  0  0  0  0  0  0  0
   58.3784   32.1724   49.4961 H   0  0  0  0  0  0  0  0  0  0  0  0
   60.0570   32.6930   51.1720 H   0  0  0  0  0  0  0  0  0  0  0  0
   55.9090   28.1887   44.9209 H   0  0  0  0  0  0  0  0  0  0  0  0
  1  2  1  0
  2  3  2  0
  2  4  1  0
  4  5  1  0
  5  6  2  0
  6  7  1  0
  7  8  2  0
  8  9  1  0
  9 10  1  0
 10 11  2  0
 11 12  1  0
 12 13  2  0
 13 14  1  0
 14 15  2  0
 15 16  1  0
 16 17  1  0
 17 18  2  0
 18 19  1  0
 19 20  1  0
 20 21  1  0
 21 22  1  0
 21 23  1  0
 17 24  1  0
 13 25  1  0
 25 26  2  0
 26 27  1  0
  9 28  2  0
 28  5  1  0
 27 11  1  0
 24 14  1  0
  1 29  1  0
  1 30  1  0
  1 31  1  0
  4 32  1  0
  6 33  1  0
  7 34  1  0
  8 35  1  0
 15 36  1  0
 16 37  1  0
 19 38  1  0
 19 39  1  0
 20 40  1  0
 20 41  1  0
 22 42  1  0
 22 43  1  0
 22 44  1  0
 23 45  1  0
 23 46  1  0
 23 47  1  0
 25 48  1  0
 26 49  1  0
 27 50  1  0
 28 51  1  0
M  END
>  <smiles>  (44) 
CC(=O)Nc1cccc(N=c2nc(-c3c[nH]c(=NCCN(C)C)s3)cc[nH]2)c1

>  <score_type>  (44) 
oracle

>  <origin>  (44) 
adg

>  <m_score__min__energy>  (44) 
-8.6199999999999992

>  <m_primary>  (44) 
energy

$$$$
44:0
     RDKit          3D

 43 46  0  0  0  0  0  0  0  0999 V2000
   54.6310   26.3140   45.9980 O   0  0  0  0  0  0  0  0  0  0  0  0
   55.7910   25.8280   46.0220 C   0  0  0  0  0  0  0  0  0  0  0  0
   55.9570   24.4660   46.4440 N   0  0  0  0  0  0  0  0  0  0  0  0
   56.4100   23.3480   45.6150 C   0  0  0  0  0  0  0  0  0  0  0  0
   57.9310   23.1530   45.8130 C   0  0  0  0  0  0  0  0  0  0  0  0
   58.6320   22.4920   44.6090 C   0  0  0  0  0  0  0  0  0  0  0  0
   57.6770   21.6030   43.8070 C   0  0  0  0  0  0  0  0  0  0  0  0
   56.4890   22.4110   43.2460 C   0  0  0  0  0  0  0  0  0  0  0  0
   56.0830   23.6050   44.1340 C   0  0  0  0  0  0  0  0  0  0  0  0
   56.9220   26.6880   45.6410 C   0  0  0  0  0  0  0  0  0  0  0  0
   57.9340   26.3850   44.7480 C   0  0  0  0  0  0  0  0  0  0  0  0
   58.7350   27.5050   44.6940 C   0  0  0  0  0  0  0  0  0  0  0  0
   58.1600   28.4280   45.5520 C   0  0  0  0  0  0  0  0  0  0  0  0
   58.6410   29.8070   45.8320 C   0  0  0  0  0  0  0  0  0  0  0  0
   59.8890   30.0320   46.4560 C   0  0  0  0  0  0  0  0  0  0  0  0
   60.6230   29.0740   46.8150 O   0  0  0  0  0  0  0  0  0  0  0  0
   60.2990   31.3010   46.6980 N   0  0  0  0  0  0  0  0  0  0  0  0
   59.5370   32.3700   46.3640 C   0  0  0  0  0  0  0  0  0  0  0  0
   59.9910   33.6670   46.6280 C   0  0  0  0  0  0  0  0  0  0  0  0
   59.2000   34.7670   46.2850 C   0  0  0  0  0  0  0  0  0  0  0  0
   57.9550   34.5740   45.6790 C   0  0  0  0  0  0  0  0  0  0  0  0
   57.4950   33.2800   45.4130 C   0  0  0  0  0  0  0  0  0  0  0  0
   58.2820   32.1630   45.7530 C   0  0  0  0  0  0  0  0  0  0  0  0
   57.8600   30.8850   45.5030 N   0  0  0  0  0  0  0  0  0  0  0  0
   56.6450   30.6820   44.8810 O   0  0  0  0  0  0  0  0  0  0  0  0
   57.0780   27.9120   46.0900 O   0  0  0  0  0  0  0  0  0  0  0  0
   55.8842   22.4314   45.9206 H   0  0  0  0  0  0  0  0  0  0  0  0
   58.3885   24.1388   45.9832 H   0  0  0  0  0  0  0  0  0  0  0  0
   58.0599   22.4773   46.6714 H   0  0  0  0  0  0  0  0  0  0  0  0
   59.0225   23.2803   43.9486 H   0  0  0  0  0  0  0  0  0  0  0  0
   59.4440   21.8578   44.9944 H   0  0  0  0  0  0  0  0  0  0  0  0
   58.2284   21.1503   42.9698 H   0  0  0  0  0  0  0  0  0  0  0  0
   57.2803   20.8281   44.4795 H   0  0  0  0  0  0  0  0  0  0  0  0
   56.7665   22.7941   42.2529 H   0  0  0  0  0  0  0  0  0  0  0  0
   55.6258   21.7305   43.2043 H   0  0  0  0  0  0  0  0  0  0  0  0
   56.6272   24.5002   43.7987 H   0  0  0  0  0  0  0  0  0  0  0  0
   54.9962   23.7476   44.0420 H   0  0  0  0  0  0  0  0  0  0  0  0
   58.0711   25.4440   44.1950 H   0  0  0  0  0  0  0  0  0  0  0  0
   59.6458   27.6389   44.0919 H   0  0  0  0  0  0  0  0  0  0  0  0
   60.9701   33.8208   47.1053 H   0  0  0  0  0  0  0  0  0  0  0  0
   59.5576   35.7864   46.4922 H   0  0  0  0  0  0  0  0  0  0  0  0
   57.3353   35.4423   45.4106 H   0  0  0  0  0  0  0  0  0  0  0  0
   56.5144   33.1345   44.9363 H   0  0  0  0  0  0  0  0  0  0  0  0
  1  2  2  0
  2  3  1  0
  3  4  1  0
  4  5  1  0
  5  6  1  0
  6  7  1  0
  7  8  1  0
  8  9  1  0
  2 10  1  0
 10 11  2  0
 11 12  1  0
 12 13  2  0
 13 14  1  0
 14 15  1  0
 15 16  2  0
 15 17  1  0
 17 18  1  0
 18 19  2  0
 19 20  1  0
 20 21  2  0
 21 22  1  0
 22 23  2  0
 23 24  1  0
 24 25  1  0
 13 26  1  0
  9  4  1  0
 26 10  1  0
 24 14  2  0
 23 18  1  0
  4 27  1  0
  5 28  1  0
  5 29  1  0
  6 30  1  0
  6 31  1  0
  7 32  1  0
  7 33  1  0
  8 34  1  0
  8 35  1  0
  9 36  1  0
  9 37  1  0
 11 38  1  0
 12 39  1  0
 19 40  1  0
 20 41  1  0
 21 42  1  0
 22 43  1  0
M  CHG  4   3  -1  17  -1  24   1  25  -1
M  END
>  <UniqueID>  (45) 
42

>  <SMILES>  (45) 
O=C([N-]C1CCCCC1)c1ccc(-c2c(=O)[n-]c3ccccc3[n+]2[O-])o1

>  <Energy>  (45) 
87.38411623556465

>  <Genealogy>  (45) 
O=C([N-]C1CCCCC1)c1ccc(-c2c(=O)[n-]c3ccccc3[n+]2[O-])o1 (protonated)
O=C([N-]C1CCCCC1)c1ccc(-c2c(=O)[n-]c3ccccc3[n+]2[O-])o1 (3D coordinates assigned)
O=C([N-]C1CCCCC1)c1ccc(-c2c(=O)[n-]c3ccccc3[n+]2[O-])o1 (nonaromatic ring conformer: 87.38411623556465 kcal/mol)

>  <smiles>  (45) 
O=C(NC1CCCCC1)c1ccc(-c2c(=O)[nH]c3ccccc3[n+]2[O-])o1

>  <score_type>  (45) 
oracle

>  <origin>  (45) 
adg

>  <m_score__min__energy>  (45) 
-12.32

>  <m_primary>  (45) 
energy

$$$$
45:0
     RDKit          3D

 52 54  0  0  0  0  0  0  0  0999 V2000
   64.8140   32.7640   49.9190 C   0  0  0  0  0  0  0  0  0  0  0  0
   63.7990   33.7620   49.9530 O   0  0  0  0  0  0  0  0  0  0  0  0
   62.6990   33.8030   49.0830 C   0  0  0  0  0  0  0  0  0  0  0  0
   61.4530   34.1670   49.6030 C   0  0  0  0  0  0  0  0  0  0  0  0
   60.3250   34.2180   48.7770 C   0  0  0  0  0  0  0  0  0  0  0  0
   60.4300   33.9120   47.4110 C   0  0  0  0  0  0  0  0  0  0  0  0
   59.2660   33.9520   46.5620 N   0  0  0  0  0  0  0  0  0  0  0  0
   58.0900   33.1360   46.9040 C   0  0  0  0  0  0  0  0  0  0  0  0
   57.0840   33.0920   45.7470 C   0  0  0  0  0  0  0  0  0  0  0  0
   57.7990   32.9120   44.4730 N   0  0  0  0  0  0  0  0  0  0  0  0
   57.3980   31.9170   43.5100 C   0  0  0  0  0  0  0  0  0  0  0  0
   57.5620   32.1450   42.2810 O   0  0  0  0  0  0  0  0  0  0  0  0
   56.7620   30.6190   43.9430 C   0  0  0  0  0  0  0  0  0  0  0  0
   57.4320   30.0380   45.1920 C   0  0  0  0  0  0  0  0  0  0  0  0
   59.1220   29.4560   44.8090 S   0  0  0  0  0  0  0  0  0  0  0  0
   59.8470   30.0720   46.3260 C   0  0  0  0  0  0  0  0  0  0  0  0
   61.0450   30.4620   46.3240 O   0  0  0  0  0  0  0  0  0  0  0  0
   59.0690   30.0710   47.5290 N   0  0  0  0  0  0  0  0  0  0  0  0
   59.4790   30.5430   48.8210 C   0  0  0  0  0  0  0  0  0  0  0  0
   60.7620   30.2130   49.2770 C   0  0  0  0  0  0  0  0  0  0  0  0
   61.1990   30.6400   50.5330 C   0  0  0  0  0  0  0  0  0  0  0  0
   60.3520   31.3920   51.3510 C   0  0  0  0  0  0  0  0  0  0  0  0
   59.0590   31.7050   50.9170 C   0  0  0  0  0  0  0  0  0  0  0  0
   57.8920   32.7070   52.0480 Br  0  0  0  0  0  0  0  0  0  0  0  0
   58.6190   31.2760   49.6600 C   0  0  0  0  0  0  0  0  0  0  0  0
   58.9150   33.8110   44.1370 C   0  0  0  0  0  0  0  0  0  0  0  0
   59.2730   34.7260   45.3140 C   0  0  0  0  0  0  0  0  0  0  0  0
   61.6800   33.5420   46.8890 C   0  0  0  0  0  0  0  0  0  0  0  0
   62.8070   33.4900   47.7140 C   0  0  0  0  0  0  0  0  0  0  0  0
   65.0930   32.4896   50.9470 H   0  0  0  0  0  0  0  0  0  0  0  0
   64.4369   31.8753   49.3918 H   0  0  0  0  0  0  0  0  0  0  0  0
   65.6963   33.1561   49.3918 H   0  0  0  0  0  0  0  0  0  0  0  0
   61.3590   34.4153   50.6705 H   0  0  0  0  0  0  0  0  0  0  0  0
   59.3497   34.4996   49.2006 H   0  0  0  0  0  0  0  0  0  0  0  0
   58.4192   32.1113   47.1313 H   0  0  0  0  0  0  0  0  0  0  0  0
   57.5956   33.5894   47.7757 H   0  0  0  0  0  0  0  0  0  0  0  0
   56.3897   32.2523   45.8982 H   0  0  0  0  0  0  0  0  0  0  0  0
   56.5213   34.0367   45.7181 H   0  0  0  0  0  0  0  0  0  0  0  0
   55.6994   30.8004   44.1623 H   0  0  0  0  0  0  0  0  0  0  0  0
   56.8823   29.8932   43.1252 H   0  0  0  0  0  0  0  0  0  0  0  0
   57.4854   30.8160   45.9678 H   0  0  0  0  0  0  0  0  0  0  0  0
   56.8365   29.1841   45.5473 H   0  0  0  0  0  0  0  0  0  0  0  0
   61.4300   29.6133   48.6413 H   0  0  0  0  0  0  0  0  0  0  0  0
   62.2114   30.3839   50.8786 H   0  0  0  0  0  0  0  0  0  0  0  0
   60.7012   31.7377   52.3352 H   0  0  0  0  0  0  0  0  0  0  0  0
   57.5978   31.5124   49.3265 H   0  0  0  0  0  0  0  0  0  0  0  0
   59.7951   33.2056   43.8743 H   0  0  0  0  0  0  0  0  0  0  0  0
   58.6071   34.4421   43.2903 H   0  0  0  0  0  0  0  0  0  0  0  0
   60.2741   35.1529   45.1540 H   0  0  0  0  0  0  0  0  0  0  0  0
   58.5328   35.5367   45.3837 H   0  0  0  0  0  0  0  0  0  0  0  0
   61.7730   33.2910   45.8221 H   0  0  0  0  0  0  0  0  0  0  0  0
   63.7819   33.2036   47.2926 H   0  0  0  0  0  0  0  0  0  0  0  0
  1  2  1  0
  2  3  1  0
  3  4  2  0
  4  5  1  0
  5  6  2  0
  6  7  1  0
  7  8  1  0
  8  9  1  0
  9 10  1  0
 10 11  1  0
 11 12  2  0
 11 13  1  0
 13 14  1  0
 14 15  1  0
 15 16  1  0
 16 17  2  0
 16 18  1  0
 18 19  1  0
 19 20  2  0
 20 21  1  0
 21 22  2  0
 22 23  1  0
 23 24  1  0
 23 25  2  0
 10 26  1  0
 26 27  1  0
  6 28  1  0
 28 29  2  0
 29  3  1  0
 27  7  1  0
 25 19  1  0
  1 30  1  0
  1 31  1  0
  1 32  1  0
  4 33  1  0
  5 34  1  0
  8 35  1  0
  8 36  1  0
  9 37  1  0
  9 38  1  0
 13 39  1  0
 13 40  1  0
 14 41  1  0
 14 42  1  0
 20 43  1  0
 21 44  1  0
 22 45  1  0
 25 46  1  0
 26 47  1  0
 26 48  1  0
 27 49  1  0
 27 50  1  0
 28 51  1  0
 29 52  1  0
M  CHG  1  18  -1
M  END
>  <UniqueID>  (46) 
43

>  <SMILES>  (46) 
COc1ccc(N2CCN(C(=O)CCSC(=O)[N-]c3cccc(Br)c3)CC2)cc1

>  <Energy>  (46) 
56.90338409328785

>  <Genealogy>  (46) 
COc1ccc(N2CCN(C(=O)CCSC(=O)[N-]c3cccc(Br)c3)CC2)cc1 (protonated)
COc1ccc(N2CCN(C(=O)CCSC(=O)[N-]c3cccc(Br)c3)CC2)cc1 (3D coordinates assigned)
COc1ccc(N2CCN(C(=O)CCSC(=O)[N-]c3cccc(Br)c3)CC2)cc1 (nonaromatic ring conformer: 56.90338409328785 kcal/mol)

>  <smiles>  (46) 
COc1ccc(N2CCN(C(=O)CCSC(=O)Nc3cccc(Br)c3)CC2)cc1

>  <score_type>  (46) 
oracle

>  <origin>  (46) 
adg

>  <m_score__min__energy>  (46) 
-10.85

>  <m_primary>  (46) 
energy

$$$$
46:0
     RDKit          3D

 40 42  0  0  0  0  0  0  0  0999 V2000
   56.1910   29.9940   43.8810 C   0  0  0  0  0  0  0  0  0  0  0  0
   56.4340   31.2540   44.5710 N   0  0  0  0  0  0  0  0  0  0  0  0
   57.4140   32.2240   44.1800 C   0  0  0  0  0  0  0  0  0  0  0  0
   57.5760   32.4610   42.9540 O   0  0  0  0  0  0  0  0  0  0  0  0
   58.2200   32.9710   45.1660 C   0  0  0  0  0  0  0  0  0  0  0  0
   58.5190   34.3380   45.0380 C   0  0  0  0  0  0  0  0  0  0  0  0
   59.2520   34.8540   46.1000 C   0  0  0  0  0  0  0  0  0  0  0  0
   59.5210   33.6210   47.2110 S   0  0  0  0  0  0  0  0  0  0  0  0
   58.6960   32.4240   46.3590 C   0  0  0  0  0  0  0  0  0  0  0  0
   58.6020   31.0400   46.7360 N   0  0  0  0  0  0  0  0  0  0  0  0
   59.6170   30.0670   46.4380 C   0  0  0  0  0  0  0  0  0  0  0  0
   60.7830   30.4470   46.1430 O   0  0  0  0  0  0  0  0  0  0  0  0
   59.3270   28.6140   46.5200 C   0  0  0  0  0  0  0  0  0  0  0  0
   59.7500   27.8510   47.6240 C   0  0  0  0  0  0  0  0  0  0  0  0
   59.4750   26.4820   47.6850 C   0  0  0  0  0  0  0  0  0  0  0  0
   58.7730   25.8480   46.6550 C   0  0  0  0  0  0  0  0  0  0  0  0
   58.5210   24.4410   46.7580 N   0  0  0  0  0  0  0  0  0  0  0  0
   56.9650   23.6910   46.5930 S   0  0  0  0  0  0  0  0  0  0  0  0
   56.8070   22.6240   47.6390 O   0  0  0  0  0  0  0  0  0  0  0  0
   55.8890   24.7290   46.7420 O   0  0  0  0  0  0  0  0  0  0  0  0
   56.8360   22.9590   45.0060 C   0  0  0  0  0  0  0  0  0  0  0  0
   56.1800   23.4970   43.9100 C   0  0  0  0  0  0  0  0  0  0  0  0
   56.2540   22.6800   42.7760 C   0  0  0  0  0  0  0  0  0  0  0  0
   56.9650   21.5040   42.9820 C   0  0  0  0  0  0  0  0  0  0  0  0
   57.5040   21.4810   44.5760 S   0  0  0  0  0  0  0  0  0  0  0  0
   58.3330   26.6090   45.5580 C   0  0  0  0  0  0  0  0  0  0  0  0
   58.6040   27.9790   45.4950 C   0  0  0  0  0  0  0  0  0  0  0  0
   56.0368   29.1946   44.6208 H   0  0  0  0  0  0  0  0  0  0  0  0
   55.2945   30.0881   43.2506 H   0  0  0  0  0  0  0  0  0  0  0  0
   57.0582   29.7480   43.2506 H   0  0  0  0  0  0  0  0  0  0  0  0
   58.2020   34.9440   44.1764 H   0  0  0  0  0  0  0  0  0  0  0  0
   59.5978   35.8937   46.1973 H   0  0  0  0  0  0  0  0  0  0  0  0
   57.7770   30.7400   47.3000 H   0  0  0  0  0  0  0  0  0  0  0  0
   60.3005   28.3350   48.4442 H   0  0  0  0  0  0  0  0  0  0  0  0
   59.8144   25.8970   48.5525 H   0  0  0  0  0  0  0  0  0  0  0  0
   55.6564   24.4642   43.9294 H   0  0  0  0  0  0  0  0  0  0  0  0
   55.7929   22.9439   41.8128 H   0  0  0  0  0  0  0  0  0  0  0  0
   57.1450   20.7210   42.2307 H   0  0  0  0  0  0  0  0  0  0  0  0
   57.7726   26.1241   44.7451 H   0  0  0  0  0  0  0  0  0  0  0  0
   58.2482   28.5657   44.6353 H   0  0  0  0  0  0  0  0  0  0  0  0
  1  2  1  0
  2  3  1  0
  3  4  2  0
  3  5  1  0
  5  6  1  0
  6  7  2  0
  7  8  1  0
  8  9  1  0
  9 10  1  0
 10 11  1  0
 11 12  2  0
 11 13  1  0
 13 14  2  0
 14 15  1  0
 15 16  2  0
 16 17  1  0
 17 18  1  0
 18 19  2  0
 18 20  2  0
 18 21  1  0
 21 22  2  0
 22 23  1  0
 23 24  2  0
 24 25  1  0
 16 26  1  0
 26 27  2  0
  9  5  2  0
 27 13  1  0
 25 21  1  0
  1 28  1  0
  1 29  1  0
  1 30  1  0
  6 31  1  0
  7 32  1  0
 10 33  1  0
 14 34  1  0
 15 35  1  0
 22 36  1  0
 23 37  1  0
 24 38  1  0
 26 39  1  0
 27 40  1  0
M  CHG  2   2  -1  17  -1
M  END
>  <UniqueID>  (47) 
44

>  <SMILES>  (47) 
C[N-]C(=O)c1ccsc1NC(=O)c1ccc([N-]S(=O)(=O)c2cccs2)cc1

>  <Energy>  (47) 
106.05640700352028

>  <Genealogy>  (47) 
C[N-]C(=O)c1ccsc1NC(=O)c1ccc([N-]S(=O)(=O)c2cccs2)cc1 (protonated)
C[N-]C(=O)c1ccsc1NC(=O)c1ccc([N-]S(=O)(=O)c2cccs2)cc1 (3D coordinates assigned)
C[N-]C(=O)c1ccsc1NC(=O)c1ccc([N-]S(=O)(=O)c2cccs2)cc1 (optimized conformer: 106.05640700352028 kcal/mol)

>  <smiles>  (47) 
CNC(=O)c1ccsc1NC(=O)c1ccc(NS(=O)(=O)c2cccs2)cc1

>  <score_type>  (47) 
oracle

>  <origin>  (47) 
adg

>  <m_score__min__energy>  (47) 
-12.26

>  <m_primary>  (47) 
energy

$$$$
47:0
     RDKit          3D

 49 51  0  0  0  0  0  0  0  0999 V2000
   59.1761   27.4590   54.6706 H   0  0  0  0  0  0  0  0  0  0  0  0
   58.9330   28.4330   54.2210 C   0  0  0  0  0  0  0  0  0  0  0  0
   59.7360   29.5410   54.4840 C   0  0  0  0  0  0  0  0  0  0  0  0
   60.6077   29.4424   55.1476 H   0  0  0  0  0  0  0  0  0  0  0  0
   59.4360   30.7750   53.9070 C   0  0  0  0  0  0  0  0  0  0  0  0
   60.0712   31.6460   54.1258 H   0  0  0  0  0  0  0  0  0  0  0  0
   58.3300   30.9190   53.0480 C   0  0  0  0  0  0  0  0  0  0  0  0
   58.0750   32.2530   52.4420 C   0  0  0  0  0  0  0  0  0  0  0  0
   56.9740   32.8210   52.6720 O   0  0  0  0  0  0  0  0  0  0  0  0
   59.0140   32.9210   51.5840 N   0  0  0  0  0  0  0  0  0  0  0  0
   58.9640   33.0440   50.1550 C   0  0  0  0  0  0  0  0  0  0  0  0
   59.6270   34.1130   49.5520 C   0  0  0  0  0  0  0  0  0  0  0  0
   60.2486   34.7840   50.1630 H   0  0  0  0  0  0  0  0  0  0  0  0
   59.5080   34.3380   48.1800 C   0  0  0  0  0  0  0  0  0  0  0  0
   60.0201   35.1995   47.7267 H   0  0  0  0  0  0  0  0  0  0  0  0
   58.7410   33.4780   47.3640 C   0  0  0  0  0  0  0  0  0  0  0  0
   58.5780   33.8000   45.8640 C   0  0  0  0  0  0  0  0  0  0  0  0
   59.5540   34.9330   45.4780 C   0  0  0  0  0  0  0  0  0  0  0  0
   59.9549   35.3984   46.3905 H   0  0  0  0  0  0  0  0  0  0  0  0
   60.3816   34.5176   44.8843 H   0  0  0  0  0  0  0  0  0  0  0  0
   59.0207   35.6900   44.8843 H   0  0  0  0  0  0  0  0  0  0  0  0
   57.1480   34.2640   45.4960 C   0  0  0  0  0  0  0  0  0  0  0  0
   56.5747   34.4500   46.4162 H   0  0  0  0  0  0  0  0  0  0  0  0
   57.2037   35.1902   44.9051 H   0  0  0  0  0  0  0  0  0  0  0  0
   56.6493   33.4816   44.9051 H   0  0  0  0  0  0  0  0  0  0  0  0
   58.8940   32.5420   45.0260 C   0  0  0  0  0  0  0  0  0  0  0  0
   59.1061   31.6975   45.6981 H   0  0  0  0  0  0  0  0  0  0  0  0
   58.0294   32.2974   44.3915 H   0  0  0  0  0  0  0  0  0  0  0  0
   59.7716   32.7350   44.3915 H   0  0  0  0  0  0  0  0  0  0  0  0
   58.1340   32.3580   47.9780 C   0  0  0  0  0  0  0  0  0  0  0  0
   57.5609   31.6475   47.3642 H   0  0  0  0  0  0  0  0  0  0  0  0
   58.2520   32.1410   49.3540 C   0  0  0  0  0  0  0  0  0  0  0  0
   57.7834   31.2566   49.8105 H   0  0  0  0  0  0  0  0  0  0  0  0
   57.4990   29.7970   52.8040 C   0  0  0  0  0  0  0  0  0  0  0  0
   56.3400   29.9270   51.9710 N   0  0  0  0  0  0  0  0  0  0  0  0
   55.1970   29.5020   52.3360 N   0  0  0  0  0  0  0  0  0  0  0  0
   54.0090   30.2880   52.1830 C   0  0  0  0  0  0  0  0  0  0  0  0
   53.6330   30.7040   50.9000 C   0  0  0  0  0  0  0  0  0  0  0  0
   54.2259   30.3916   50.0277 H   0  0  0  0  0  0  0  0  0  0  0  0
   52.5070   31.5150   50.7220 C   0  0  0  0  0  0  0  0  0  0  0  0
   52.2194   31.8421   49.7119 H   0  0  0  0  0  0  0  0  0  0  0  0
   51.7470   31.9100   51.8270 C   0  0  0  0  0  0  0  0  0  0  0  0
   50.6310   32.7180   51.6500 O   0  0  0  0  0  0  0  0  0  0  0  0
   52.1100   31.4900   53.1110 C   0  0  0  0  0  0  0  0  0  0  0  0
   51.5092   31.7969   53.9798 H   0  0  0  0  0  0  0  0  0  0  0  0
   53.2350   30.6810   53.2910 C   0  0  0  0  0  0  0  0  0  0  0  0
   53.5166   30.3503   54.3016 H   0  0  0  0  0  0  0  0  0  0  0  0
   57.8210   28.5580   53.3880 C   0  0  0  0  0  0  0  0  0  0  0  0
   57.1901   27.6799   53.1859 H   0  0  0  0  0  0  0  0  0  0  0  0
  1  2  1  0
  2  3  2  0
  3  4  1  0
  3  5  1  0
  5  6  1  0
  5  7  2  0
  7  8  1  0
  8  9  2  0
  8 10  1  0
 10 11  1  0
 11 12  2  0
 12 13  1  0
 12 14  1  0
 14 15  1  0
 14 16  2  0
 16 17  1  0
 17 18  1  0
 18 19  1  0
 18 20  1  0
 18 21  1  0
 17 22  1  0
 22 23  1  0
 22 24  1  0
 22 25  1  0
 17 26  1  0
 26 27  1  0
 26 28  1  0
 26 29  1  0
 16 30  1  0
 30 31  1  0
 30 32  2  0
 32 33  1  0
  7 34  1  0
 34 35  1  0
 35 36  2  0
 36 37  1  0
 37 38  2  0
 38 39  1  0
 38 40  1  0
 40 41  1  0
 40 42  2  0
 42 43  1  0
 42 44  1  0
 44 45  1  0
 44 46  2  0
 46 47  1  0
 34 48  2  0
 48 49  1  0
 48  2  1  0
 32 11  1  0
 46 37  1  0
M  CHG  2  10  -1  43  -1
M  END
>  <UniqueID>  (48) 
45

>  <SMILES>  (48) 
CC(C)(C)c1ccc([N-]C(=O)c2ccccc2/N=N/c2ccc([O-])cc2)cc1

>  <Energy>  (48) 
58.68584015154195

>  <Genealogy>  (48) 
CC(C)(C)c1ccc([N-]C(=O)c2ccccc2N=Nc2ccc([O-])cc2)cc1 (protonated)
CC(C)(C)c1ccc([N-]C(=O)c2ccccc2/N=N/c2ccc([O-])cc2)cc1 (cis-trans isomerization)
CC(C)(C)c1ccc([N-]C(=O)c2ccccc2/N=N/c2ccc([O-])cc2)cc1 (3D coordinates assigned)
CC(C)(C)c1ccc([N-]C(=O)c2ccccc2/N=N/c2ccc([O-])cc2)cc1 (optimized conformer: 58.68584015154195 kcal/mol)

>  <smiles>  (48) 
CC(C)(C)c1ccc(NC(=O)c2ccccc2N=Nc2ccc(O)cc2)cc1

>  <score_type>  (48) 
oracle

>  <origin>  (48) 
adg

>  <m_score__min__energy>  (48) 
-13.44

>  <m_primary>  (48) 
energy

$$$$
48:0
     RDKit          3D

 51 55  0  0  0  0  0  0  0  0999 V2000
   65.2437   33.7785   50.5734 H   0  0  0  0  0  0  0  0  0  0  0  0
   64.1460   33.7200   50.5340 C   0  0  0  0  0  0  0  0  0  0  0  0
   63.4300   33.6950   51.6860 N   0  0  0  0  0  0  0  0  0  0  0  0
   62.0730   33.6260   51.6840 C   0  0  0  0  0  0  0  0  0  0  0  0
   61.3800   33.6100   52.9000 C   0  0  0  0  0  0  0  0  0  0  0  0
   61.9355   33.6503   53.8486 H   0  0  0  0  0  0  0  0  0  0  0  0
   59.9840   33.5430   52.9120 C   0  0  0  0  0  0  0  0  0  0  0  0
   59.1210   33.5230   54.4400 Cl  0  0  0  0  0  0  0  0  0  0  0  0
   59.2760   33.4920   51.7100 C   0  0  0  0  0  0  0  0  0  0  0  0
   58.1773   33.4405   51.7239 H   0  0  0  0  0  0  0  0  0  0  0  0
   59.9560   33.5060   50.4890 C   0  0  0  0  0  0  0  0  0  0  0  0
   59.3896   33.4630   49.5470 H   0  0  0  0  0  0  0  0  0  0  0  0
   61.3650   33.5750   50.4580 C   0  0  0  0  0  0  0  0  0  0  0  0
   56.2870   27.1730   45.6020 C   0  0  0  0  0  0  0  0  0  0  0  0
   56.0620   28.4080   45.2600 N   0  0  0  0  0  0  0  0  0  0  0  0
   60.6150   32.4890   47.6000 C   0  0  0  0  0  0  0  0  0  0  0  0
   59.2840   32.7270   47.2240 C   0  0  0  0  0  0  0  0  0  0  0  0
   58.8482   33.7282   47.3569 H   0  0  0  0  0  0  0  0  0  0  0  0
   58.5090   31.6970   46.6810 C   0  0  0  0  0  0  0  0  0  0  0  0
   57.4582   31.8845   46.4153 H   0  0  0  0  0  0  0  0  0  0  0  0
   59.0670   30.4220   46.4730 C   0  0  0  0  0  0  0  0  0  0  0  0
   58.2850   29.3380   45.9420 N   0  0  0  0  0  0  0  0  0  0  0  0
   58.7290   28.3930   45.8840 H   0  0  0  0  0  0  0  0  0  0  0  0
   56.9860   29.5040   45.3500 C   0  0  0  0  0  0  0  0  0  0  0  0
   56.6730   30.6030   44.8200 O   0  0  0  0  0  0  0  0  0  0  0  0
   61.4450   33.5450   48.1080 N   0  0  0  0  0  0  0  0  0  0  0  0
   62.0910   33.5820   49.2440 C   0  0  0  0  0  0  0  0  0  0  0  0
   55.2990   26.3820   46.1040 N   0  0  0  0  0  0  0  0  0  0  0  0
   55.5210   25.1100   46.4370 N   0  0  0  0  0  0  0  0  0  0  0  0
   56.7440   24.5300   46.2920 C   0  0  0  0  0  0  0  0  0  0  0  0
   56.9290   23.1060   46.6760 C   0  0  0  0  0  0  0  0  0  0  0  0
   56.5170   22.6660   47.9490 C   0  0  0  0  0  0  0  0  0  0  0  0
   56.0558   23.3783   48.6490 H   0  0  0  0  0  0  0  0  0  0  0  0
   56.6890   21.3320   48.3310 C   0  0  0  0  0  0  0  0  0  0  0  0
   56.3591   20.9985   49.3259 H   0  0  0  0  0  0  0  0  0  0  0  0
   57.2790   20.4230   47.4510 C   0  0  0  0  0  0  0  0  0  0  0  0
   57.4092   19.3726   47.7504 H   0  0  0  0  0  0  0  0  0  0  0  0
   57.7040   20.8480   46.1900 C   0  0  0  0  0  0  0  0  0  0  0  0
   58.1745   20.1323   45.4998 H   0  0  0  0  0  0  0  0  0  0  0  0
   57.5330   22.1800   45.8030 C   0  0  0  0  0  0  0  0  0  0  0  0
   57.8726   22.5077   44.8094 H   0  0  0  0  0  0  0  0  0  0  0  0
   57.7890   25.2980   45.7580 C   0  0  0  0  0  0  0  0  0  0  0  0
   58.7852   24.8543   45.6142 H   0  0  0  0  0  0  0  0  0  0  0  0
   63.4980   33.6720   49.3000 C   0  0  0  0  0  0  0  0  0  0  0  0
   64.0842   33.7043   48.3697 H   0  0  0  0  0  0  0  0  0  0  0  0
   60.4030   30.1950   46.8370 C   0  0  0  0  0  0  0  0  0  0  0  0
   60.8455   29.1979   46.6957 H   0  0  0  0  0  0  0  0  0  0  0  0
   61.1760   31.2270   47.3780 C   0  0  0  0  0  0  0  0  0  0  0  0
   62.2311   31.0454   47.6304 H   0  0  0  0  0  0  0  0  0  0  0  0
   57.5560   26.6270   45.4110 C   0  0  0  0  0  0  0  0  0  0  0  0
   58.3661   27.2405   44.9899 H   0  0  0  0  0  0  0  0  0  0  0  0
  1  2  1  0
  2  3  1  0
  3  4  1  0
  4  5  2  0
  5  6  1  0
  5  7  1  0
  7  8  1  0
  7  9  2  0
  9 10  1  0
  9 11  1  0
 11 12  1  0
 11 13  2  0
 13 14  1  0
 14 15  2  0
 15 16  1  0
 16 17  2  0
 17 18  1  0
 17 19  1  0
 19 20  1  0
 19 21  2  0
 21 22  1  0
 22 23  1  0
 22 24  1  0
 24 25  2  0
 24 26  1  0
 26 27  2  0
 27 28  1  0
 28 29  1  0
 29 30  2  0
 30 31  1  0
 31 32  2  0
 32 33  1  0
 32 34  1  0
 34 35  1  0
 34 36  2  0
 36 37  1  0
 36 38  1  0
 38 39  1  0
 38 40  2  0
 40 41  1  0
 30 42  1  0
 42 43  1  0
 42 44  2  0
 44 45  1  0
 21 46  1  0
 46 47  1  0
 46 48  2  0
 48 49  1  0
 14 50  1  0
 50 51  1  0
 50  2  2  0
 13  4  1  0
 48 16  1  0
 44 27  1  0
 40 31  1  0
M  CHG  2   3  -1  28  -1
M  END
>  <UniqueID>  (49) 
46

>  <SMILES>  (49) 
O=C(/N=c1/ccc(-c2ccccc2)n[n-]1)Nc1ccc(/N=c2\cc[n-]c3cc(Cl)ccc23)cc1

>  <Energy>  (49) 
85.54018780373333

>  <Genealogy>  (49) 
O=C(N=c1ccc(-c2ccccc2)n[n-]1)Nc1ccc(N=c2cc[n-]c3cc(Cl)ccc23)cc1 (protonated)
O=C(/N=c1/ccc(-c2ccccc2)n[n-]1)Nc1ccc(/N=c2\cc[n-]c3cc(Cl)ccc23)cc1 (cis-trans isomerization)
O=C(/N=c1/ccc(-c2ccccc2)n[n-]1)Nc1ccc(/N=c2\cc[n-]c3cc(Cl)ccc23)cc1 (3D coordinates assigned)
O=C(/N=c1/ccc(-c2ccccc2)n[n-]1)Nc1ccc(/N=c2\cc[n-]c3cc(Cl)ccc23)cc1 (optimized conformer: 85.54018780373333 kcal/mol)

>  <smiles>  (49) 
O=C(N=c1ccc(-c2ccccc2)n[nH]1)Nc1ccc(N=c2cc[nH]c3cc(Cl)ccc23)cc1

>  <score_type>  (49) 
oracle

>  <origin>  (49) 
adg

>  <m_score__min__energy>  (49) 
-11.01

>  <m_primary>  (49) 
energy

$$$$
49:0
     RDKit          3D

 16 16  0  0  0  0  0  0  0  0999 V2000
   51.4030   32.7100   50.0510 O   0  0  0  0  0  0  0  0  0  0  0  0
   51.2990   32.2640   51.2260 C   0  0  0  0  0  0  0  0  0  0  0  0
   50.2690   32.7310   52.0340 O   0  0  0  0  0  0  0  0  0  0  0  0
   52.2570   31.2590   51.7370 C   0  0  0  0  0  0  0  0  0  0  0  0
   51.8240   29.9550   52.0360 C   0  0  0  0  0  0  0  0  0  0  0  0
   52.7270   29.0060   52.5200 C   0  0  0  0  0  0  0  0  0  0  0  0
   54.0670   29.3420   52.7110 C   0  0  0  0  0  0  0  0  0  0  0  0
   54.5210   30.6430   52.4180 C   0  0  0  0  0  0  0  0  0  0  0  0
   55.8900   31.0350   52.5980 N   0  0  0  0  0  0  0  0  0  0  0  0
   56.8430   30.6600   51.8400 C   0  0  0  0  0  0  0  0  0  0  0  0
   58.0480   30.1870   50.8820 S   0  0  0  0  0  0  0  0  0  0  0  0
   53.6110   31.5920   51.9330 C   0  0  0  0  0  0  0  0  0  0  0  0
   50.7690   29.6811   51.8880 H   0  0  0  0  0  0  0  0  0  0  0  0
   52.3796   27.9884   52.7518 H   0  0  0  0  0  0  0  0  0  0  0  0
   54.7720   28.5884   53.0918 H   0  0  0  0  0  0  0  0  0  0  0  0
   53.9588   32.6098   51.7025 H   0  0  0  0  0  0  0  0  0  0  0  0
  1  2  2  0
  2  3  1  0
  2  4  1  0
  4  5  2  0
  5  6  1  0
  6  7  2  0
  7  8  1  0
  8  9  1  0
  9 10  2  0
 10 11  2  0
  8 12  2  0
 12  4  1  0
  5 13  1  0
  6 14  1  0
  7 15  1  0
 12 16  1  0
M  CHG  1   3  -1
M  END
>  <UniqueID>  (50) 
47

>  <SMILES>  (50) 
O=C([O-])c1cccc(N=C=S)c1

>  <Energy>  (50) 
16.28018096596234

>  <Genealogy>  (50) 
O=C([O-])c1cccc(N=C=S)c1 (protonated)
O=C([O-])c1cccc(N=C=S)c1 (3D coordinates assigned)
O=C([O-])c1cccc(N=C=S)c1 (optimized conformer: 16.28018096596234 kcal/mol)

>  <smiles>  (50) 
O=C(O)c1cccc(N=C=S)c1

>  <score_type>  (50) 
oracle

>  <origin>  (50) 
adg

>  <m_score__min__energy>  (50) 
-9.0500000000000007

>  <m_primary>  (50) 
energy

$$$$
50:0
     RDKit          3D

 51 53  0  0  0  0  0  0  0  0999 V2000
   62.9830   32.0800   48.6780 C   0  0  0  0  0  0  0  0  0  0  0  0
   62.9130   33.4500   48.1430 N   0  0  0  0  0  0  0  0  0  0  0  0
   62.0810   34.2900   49.0330 C   0  0  0  0  0  0  0  0  0  0  0  0
   60.9430   33.5050   49.7180 C   0  0  0  0  0  0  0  0  0  0  0  0
   59.6940   33.3480   48.8350 C   0  0  0  0  0  0  0  0  0  0  0  0
   60.0100   33.1010   47.4160 N   0  0  0  0  0  0  0  0  0  0  0  0
   59.2590   32.0980   46.7160 C   0  0  0  0  0  0  0  0  0  0  0  0
   59.3770   30.7630   47.1230 C   0  0  0  0  0  0  0  0  0  0  0  0
   58.6260   29.7620   46.5080 C   0  0  0  0  0  0  0  0  0  0  0  0
   57.7430   30.0790   45.4670 C   0  0  0  0  0  0  0  0  0  0  0  0
   56.9490   29.0090   44.8180 C   0  0  0  0  0  0  0  0  0  0  0  0
   56.8650   28.9780   43.5610 O   0  0  0  0  0  0  0  0  0  0  0  0
   56.3110   27.9690   45.5720 N   0  0  0  0  0  0  0  0  0  0  0  0
   56.7170   26.5930   45.6320 C   0  0  0  0  0  0  0  0  0  0  0  0
   57.3980   26.0410   44.5410 C   0  0  0  0  0  0  0  0  0  0  0  0
   57.7970   24.7020   44.5590 C   0  0  0  0  0  0  0  0  0  0  0  0
   57.5110   23.8970   45.6690 C   0  0  0  0  0  0  0  0  0  0  0  0
   57.9980   22.2050   45.6890 S   0  0  0  0  0  0  0  0  0  0  0  0
   59.7210   22.1000   45.6070 N   0  0  0  0  0  0  0  0  0  0  0  0
   57.3920   21.4860   44.5170 O   0  0  0  0  0  0  0  0  0  0  0  0
   57.5190   21.5520   46.9550 O   0  0  0  0  0  0  0  0  0  0  0  0
   56.8030   24.4370   46.7510 C   0  0  0  0  0  0  0  0  0  0  0  0
   56.4010   25.7770   46.7320 C   0  0  0  0  0  0  0  0  0  0  0  0
   57.6030   31.4190   45.0710 C   0  0  0  0  0  0  0  0  0  0  0  0
   58.3600   32.4390   45.6760 C   0  0  0  0  0  0  0  0  0  0  0  0
   58.2020   33.8000   45.2210 N   0  0  0  0  0  0  0  0  0  0  0  0
   59.0620   34.3410   44.4960 O   0  0  0  0  0  0  0  0  0  0  0  0
   57.0450   34.4920   45.4960 O   0  0  0  0  0  0  0  0  0  0  0  0
   60.9490   33.9420   46.6570 C   0  0  0  0  0  0  0  0  0  0  0  0
   62.3950   33.4200   46.7570 C   0  0  0  0  0  0  0  0  0  0  0  0
   62.9812   32.1152   49.7774 H   0  0  0  0  0  0  0  0  0  0  0  0
   62.1131   31.5048   48.3281 H   0  0  0  0  0  0  0  0  0  0  0  0
   63.9070   31.5965   48.3281 H   0  0  0  0  0  0  0  0  0  0  0  0
   62.7271   34.7209   49.8120 H   0  0  0  0  0  0  0  0  0  0  0  0
   61.6140   35.0660   48.4087 H   0  0  0  0  0  0  0  0  0  0  0  0
   61.3163   32.5029   49.9758 H   0  0  0  0  0  0  0  0  0  0  0  0
   60.6425   34.0775   50.6079 H   0  0  0  0  0  0  0  0  0  0  0  0
   59.1030   32.5010   49.2136 H   0  0  0  0  0  0  0  0  0  0  0  0
   59.1386   34.2962   48.8848 H   0  0  0  0  0  0  0  0  0  0  0  0
   60.0696   30.5014   47.9366 H   0  0  0  0  0  0  0  0  0  0  0  0
   58.7271   28.7187   46.8415 H   0  0  0  0  0  0  0  0  0  0  0  0
   57.6207   26.6656   43.6633 H   0  0  0  0  0  0  0  0  0  0  0  0
   58.3371   24.2790   43.6992 H   0  0  0  0  0  0  0  0  0  0  0  0
   59.9640   21.0840   45.6250 H   0  0  0  0  0  0  0  0  0  0  0  0
   56.5624   23.8050   47.6186 H   0  0  0  0  0  0  0  0  0  0  0  0
   55.8365   26.1928   47.5796 H   0  0  0  0  0  0  0  0  0  0  0  0
   56.8893   31.6755   44.2742 H   0  0  0  0  0  0  0  0  0  0  0  0
   60.6456   33.9493   45.5997 H   0  0  0  0  0  0  0  0  0  0  0  0
   60.9214   34.9555   47.0837 H   0  0  0  0  0  0  0  0  0  0  0  0
   62.4216   32.3824   46.3927 H   0  0  0  0  0  0  0  0  0  0  0  0
   63.0314   34.0786   46.1477 H   0  0  0  0  0  0  0  0  0  0  0  0
  1  2  1  0
  2  3  1  0
  3  4  1  0
  4  5  1  0
  5  6  1  0
  6  7  1  0
  7  8  2  0
  8  9  1  0
  9 10  2  0
 10 11  1  0
 11 12  2  0
 11 13  1  0
 13 14  1  0
 14 15  2  0
 15 16  1  0
 16 17  2  0
 17 18  1  0
 18 19  1  0
 18 20  2  0
 18 21  2  0
 17 22  1  0
 22 23  2  0
 10 24  1  0
 24 25  2  0
 25 26  1  0
 26 27  2  0
 26 28  1  0
  6 29  1  0
 29 30  1  0
 30  2  1  0
 25  7  1  0
 23 14  1  0
  1 31  1  0
  1 32  1  0
  1 33  1  0
  3 34  1  0
  3 35  1  0
  4 36  1  0
  4 37  1  0
  5 38  1  0
  5 39  1  0
  8 40  1  0
  9 41  1  0
 15 42  1  0
 16 43  1  0
 19 44  1  0
 22 45  1  0
 23 46  1  0
 24 47  1  0
 29 48  1  0
 29 49  1  0
 30 50  1  0
 30 51  1  0
M  CHG  4  13  -1  19  -1  26   1  28  -1
M  END
>  <UniqueID>  (51) 
48

>  <SMILES>  (51) 
CN1CCCN(c2ccc(C(=O)[N-]c3ccc(S([NH-])(=O)=O)cc3)cc2[N+](=O)[O-])CC1

>  <Energy>  (51) 
74.62798657208647

>  <Genealogy>  (51) 
CN1CCCN(c2ccc(C(=O)[N-]c3ccc(S([NH-])(=O)=O)cc3)cc2[N+](=O)[O-])CC1 (protonated)
CN1CCCN(c2ccc(C(=O)[N-]c3ccc(S([NH-])(=O)=O)cc3)cc2[N+](=O)[O-])CC1 (3D coordinates assigned)
CN1CCCN(c2ccc(C(=O)[N-]c3ccc(S([NH-])(=O)=O)cc3)cc2[N+](=O)[O-])CC1 (nonaromatic ring conformer: 74.62798657208647 kcal/mol)

>  <smiles>  (51) 
CN1CCCN(c2ccc(C(=O)Nc3ccc(S(N)(=O)=O)cc3)cc2[N+](=O)[O-])CC1

>  <score_type>  (51) 
oracle

>  <origin>  (51) 
adg

>  <m_score__min__energy>  (51) 
-9.3900000000000006

>  <m_primary>  (51) 
energy

$$$$
51:0
     RDKit          3D

 62 66  0  0  0  0  0  0  0  0999 V2000
   59.3920   35.0220   47.6850 C   0  0  0  0  0  0  0  0  0  0  0  0
   59.6540   35.7850   46.3900 C   0  0  0  0  0  0  0  0  0  0  0  0
   59.4410   34.9450   45.2550 O   0  0  0  0  0  0  0  0  0  0  0  0
   58.8900   33.6530   45.2850 C   0  0  0  0  0  0  0  0  0  0  0  0
   59.6490   32.6270   45.8600 C   0  0  0  0  0  0  0  0  0  0  0  0
   59.1510   31.3240   45.9230 C   0  0  0  0  0  0  0  0  0  0  0  0
   57.8840   31.0190   45.4050 C   0  0  0  0  0  0  0  0  0  0  0  0
   57.3270   29.6520   45.4810 C   0  0  0  0  0  0  0  0  0  0  0  0
   56.0540   29.3530   45.1250 N   0  0  0  0  0  0  0  0  0  0  0  0
   55.8620   28.0450   45.2460 N   0  0  0  0  0  0  0  0  0  0  0  0
   57.0180   27.5150   45.6710 C   0  0  0  0  0  0  0  0  0  0  0  0
   57.9750   28.4760   45.8310 C   0  0  0  0  0  0  0  0  0  0  0  0
   59.3950   28.1600   46.2490 C   0  0  1  0  0  0  0  0  0  0  0  0
   59.6180   28.3630   47.7390 C   0  0  0  0  0  0  0  0  0  0  0  0
   59.0480   29.4780   48.3710 C   0  0  0  0  0  0  0  0  0  0  0  0
   59.2380   29.6950   49.7350 C   0  0  0  0  0  0  0  0  0  0  0  0
   60.0180   28.8090   50.4950 C   0  0  0  0  0  0  0  0  0  0  0  0
   60.1870   28.9860   51.8770 O   0  0  0  0  0  0  0  0  0  0  0  0
   59.2360   29.5700   52.7240 C   0  0  0  0  0  0  0  0  0  0  0  0
   58.5900   28.8540   53.5390 O   0  0  0  0  0  0  0  0  0  0  0  0
   58.9290   31.0150   52.6130 C   0  0  0  0  0  0  0  0  0  0  0  0
   59.9710   31.9410   52.8080 C   0  0  0  0  0  0  0  0  0  0  0  0
   59.7290   33.3120   52.7290 C   0  0  0  0  0  0  0  0  0  0  0  0
   58.4470   33.7810   52.4450 C   0  0  0  0  0  0  0  0  0  0  0  0
   57.4030   32.8800   52.2380 C   0  0  0  0  0  0  0  0  0  0  0  0
   57.6270   31.4920   52.3040 C   0  0  0  0  0  0  0  0  0  0  0  0
   56.4720   30.5590   52.0430 C   0  0  0  0  0  0  0  0  0  0  0  0
   60.6120   27.7010   49.8770 C   0  0  0  0  0  0  0  0  0  0  0  0
   61.3860   26.8340   50.6640 O   0  0  0  0  0  0  0  0  0  0  0  0
   60.8830   26.0670   51.7520 C   0  0  0  0  0  0  0  0  0  0  0  0
   60.4240   27.4900   48.4960 C   0  0  0  0  0  0  0  0  0  0  0  0
   59.7670   26.7050   45.8460 C   0  0  0  0  0  0  0  0  0  0  0  0
   58.6340   25.7220   46.0690 C   0  0  0  0  0  0  0  0  0  0  0  0
   58.8880   24.5260   46.3690 O   0  0  0  0  0  0  0  0  0  0  0  0
   57.2760   26.1250   45.8500 N   0  0  0  0  0  0  0  0  0  0  0  0
   57.1130   32.0510   44.8460 C   0  0  0  0  0  0  0  0  0  0  0  0
   57.6110   33.3560   44.7800 C   0  0  0  0  0  0  0  0  0  0  0  0
   59.6149   35.6712   48.5446 H   0  0  0  0  0  0  0  0  0  0  0  0
   58.3366   34.7141   47.7220 H   0  0  0  0  0  0  0  0  0  0  0  0
   60.0356   34.1307   47.7220 H   0  0  0  0  0  0  0  0  0  0  0  0
   58.9719   36.6462   46.3344 H   0  0  0  0  0  0  0  0  0  0  0  0
   60.7003   36.1246   46.3862 H   0  0  0  0  0  0  0  0  0  0  0  0
   60.6469   32.8492   46.2660 H   0  0  0  0  0  0  0  0  0  0  0  0
   59.7577   30.5300   46.3829 H   0  0  0  0  0  0  0  0  0  0  0  0
   60.0520   28.8660   45.7199 H   0  0  0  0  0  0  0  0  0  0  0  0
   58.4455   30.1877   47.7850 H   0  0  0  0  0  0  0  0  0  0  0  0
   58.7734   30.5666   50.2192 H   0  0  0  0  0  0  0  0  0  0  0  0
   60.9869   31.5793   53.0250 H   0  0  0  0  0  0  0  0  0  0  0  0
   60.5510   34.0248   52.8910 H   0  0  0  0  0  0  0  0  0  0  0  0
   58.2589   34.8631   52.3842 H   0  0  0  0  0  0  0  0  0  0  0  0
   56.3932   33.2582   52.0207 H   0  0  0  0  0  0  0  0  0  0  0  0
   56.0514   30.2192   53.0009 H   0  0  0  0  0  0  0  0  0  0  0  0
   55.6965   31.0872   51.4688 H   0  0  0  0  0  0  0  0  0  0  0  0
   56.8253   29.6898   51.4688 H   0  0  0  0  0  0  0  0  0  0  0  0
   61.1882   26.5324   52.7008 H   0  0  0  0  0  0  0  0  0  0  0  0
   59.7849   26.0304   51.6981 H   0  0  0  0  0  0  0  0  0  0  0  0
   61.2870   25.0453   51.6981 H   0  0  0  0  0  0  0  0  0  0  0  0
   60.9115   26.6352   48.0045 H   0  0  0  0  0  0  0  0  0  0  0  0
   60.0360   26.6943   44.7794 H   0  0  0  0  0  0  0  0  0  0  0  0
   60.6065   26.3907   46.4835 H   0  0  0  0  0  0  0  0  0  0  0  0
   56.1081   31.8308   44.4565 H   0  0  0  0  0  0  0  0  0  0  0  0
   57.0003   34.1534   44.3315 H   0  0  0  0  0  0  0  0  0  0  0  0
  1  2  1  0
  2  3  1  0
  3  4  1  0
  4  5  2  0
  5  6  1  0
  6  7  2  0
  7  8  1  0
  8  9  2  0
  9 10  1  0
 10 11  1  0
 11 12  2  0
 12 13  1  0
 13 14  1  0
 14 15  2  0
 15 16  1  0
 16 17  2  0
 17 18  1  0
 18 19  1  0
 19 20  2  0
 19 21  1  0
 21 22  2  0
 22 23  1  0
 23 24  2  0
 24 25  1  0
 25 26  2  0
 26 27  1  0
 17 28  1  0
 28 29  1  0
 29 30  1  0
 28 31  2  0
 13 32  1  0
 32 33  1  0
 33 34  2  0
 33 35  1  0
  7 36  1  0
 36 37  2  0
 37  4  1  0
 12  8  1  0
 31 14  1  0
 35 11  1  0
 26 21  1  0
  1 38  1  0
  1 39  1  0
  1 40  1  0
  2 41  1  0
  2 42  1  0
  5 43  1  0
  6 44  1  0
 13 45  1  6
 15 46  1  0
 16 47  1  0
 22 48  1  0
 23 49  1  0
 24 50  1  0
 25 51  1  0
 27 52  1  0
 27 53  1  0
 27 54  1  0
 30 55  1  0
 30 56  1  0
 30 57  1  0
 31 58  1  0
 32 59  1  0
 32 60  1  0
 36 61  1  0
 37 62  1  0
M  CHG  2  10  -1  35  -1
M  END
>  <UniqueID>  (52) 
49

>  <SMILES>  (52) 
CCOc1ccc(-c2n[n-]c3c2[C@@H](c2ccc(OC(=O)c4ccccc4C)c(OC)c2)CC(=O)[N-]3)cc1

>  <Energy>  (52) 
113.65094194477949

>  <Genealogy>  (52) 
CCOc1ccc(-c2n[n-]c3c2C(c2ccc(OC(=O)c4ccccc4C)c(OC)c2)CC(=O)[N-]3)cc1 (protonated)
CCOc1ccc(-c2n[n-]c3c2[C@@H](c2ccc(OC(=O)c4ccccc4C)c(OC)c2)CC(=O)[N-]3)cc1 (chirality)
CCOc1ccc(-c2n[n-]c3c2[C@@H](c2ccc(OC(=O)c4ccccc4C)c(OC)c2)CC(=O)[N-]3)cc1 (3D coordinates assigned)
CCOc1ccc(-c2n[n-]c3c2[C@@H](c2ccc(OC(=O)c4ccccc4C)c(OC)c2)CC(=O)[N-]3)cc1 (nonaromatic ring conformer: 113.65094194477949 kcal/mol)

>  <smiles>  (52) 
CCOc1ccc(-c2n[nH]c3c2C(c2ccc(OC(=O)c4ccccc4C)c(OC)c2)CC(=O)N3)cc1

>  <score_type>  (52) 
oracle

>  <origin>  (52) 
adg

>  <m_score__min__energy>  (52) 
-11.529999999999999

>  <m_primary>  (52) 
energy

$$$$
52:0
     RDKit          3D

 28 30  0  0  0  0  0  0  0  0999 V2000
   58.2693   34.7218   44.2185 H   0  0  0  0  0  0  0  0  0  0  0  0
   58.2100   33.7380   44.7070 C   0  0  0  0  0  0  0  0  0  0  0  0
   57.4190   32.7290   44.1500 C   0  0  0  0  0  0  0  0  0  0  0  0
   56.8496   32.9258   43.2296 H   0  0  0  0  0  0  0  0  0  0  0  0
   57.3470   31.4630   44.7600 C   0  0  0  0  0  0  0  0  0  0  0  0
   56.5010   30.3900   44.1840 C   0  0  0  0  0  0  0  0  0  0  0  0
   56.3100   30.3610   42.9390 O   0  0  0  0  0  0  0  0  0  0  0  0
   55.9330   29.3460   44.9890 N   0  0  0  0  0  0  0  0  0  0  0  0
   56.4990   28.2050   45.2590 C   0  0  0  0  0  0  0  0  0  0  0  0
   57.8320   27.9700   45.1130 N   0  0  0  0  0  0  0  0  0  0  0  0
   57.9480   26.6970   45.5300 C   0  0  0  0  0  0  0  0  0  0  0  0
   59.1060   25.9230   45.5910 C   0  0  0  0  0  0  0  0  0  0  0  0
   60.0796   26.3283   45.2781 H   0  0  0  0  0  0  0  0  0  0  0  0
   58.9840   24.6030   46.0680 C   0  0  0  0  0  0  0  0  0  0  0  0
   59.8751   23.9612   46.1320 H   0  0  0  0  0  0  0  0  0  0  0  0
   57.7250   24.0970   46.4650 C   0  0  0  0  0  0  0  0  0  0  0  0
   57.6427   23.0643   46.8347 H   0  0  0  0  0  0  0  0  0  0  0  0
   56.5760   24.9070   46.3900 C   0  0  0  0  0  0  0  0  0  0  0  0
   55.5899   24.5285   46.6970 H   0  0  0  0  0  0  0  0  0  0  0  0
   56.7350   26.2070   45.9120 C   0  0  0  0  0  0  0  0  0  0  0  0
   55.8020   27.1540   45.7520 N   0  0  0  0  0  0  0  0  0  0  0  0
   54.7800   27.0940   45.9570 H   0  0  0  0  0  0  0  0  0  0  0  0
   58.0560   31.2380   45.9520 C   0  0  0  0  0  0  0  0  0  0  0  0
   57.9895   30.2600   46.4512 H   0  0  0  0  0  0  0  0  0  0  0  0
   58.8460   32.2500   46.5080 C   0  0  0  0  0  0  0  0  0  0  0  0
   59.4048   32.0631   47.4369 H   0  0  0  0  0  0  0  0  0  0  0  0
   58.9260   33.4990   45.8840 C   0  0  0  0  0  0  0  0  0  0  0  0
   60.0060   34.8790   46.6440 Br  0  0  0  0  0  0  0  0  0  0  0  0
  1  2  1  0
  2  3  2  0
  3  4  1  0
  3  5  1  0
  5  6  1  0
  6  7  2  0
  6  8  1  0
  8  9  2  0
  9 10  1  0
 10 11  1  0
 11 12  2  0
 12 13  1  0
 12 14  1  0
 14 15  1  0
 14 16  2  0
 16 17  1  0
 16 18  1  0
 18 19  1  0
 18 20  2  0
 20 21  1  0
 21 22  1  0
  5 23  2  0
 23 24  1  0
 23 25  1  0
 25 26  1  0
 25 27  2  0
 27 28  1  0
 27  2  1  0
 21  9  1  0
 20 11  1  0
M  CHG  1  10  -1
M  END
>  <UniqueID>  (53) 
50

>  <SMILES>  (53) 
O=C(/N=c1\[n-]c2ccccc2[nH]1)c1ccc(Br)cc1

>  <Energy>  (53) 
74.81874768007702

>  <Genealogy>  (53) 
O=C(N=c1[n-]c2ccccc2[nH]1)c1ccc(Br)cc1 (protonated)
O=C(/N=c1\[n-]c2ccccc2[nH]1)c1ccc(Br)cc1 (cis-trans isomerization)
O=C(/N=c1\[n-]c2ccccc2[nH]1)c1ccc(Br)cc1 (3D coordinates assigned)
O=C(/N=c1\[n-]c2ccccc2[nH]1)c1ccc(Br)cc1 (optimized conformer: 74.81874768007702 kcal/mol)

>  <smiles>  (53) 
O=C(N=c1[nH]c2ccccc2[nH]1)c1ccc(Br)cc1

>  <score_type>  (53) 
oracle

>  <origin>  (53) 
adg

>  <m_score__min__energy>  (53) 
-9.1099999999999994

>  <m_primary>  (53) 
energy

$$$$
53:0
     RDKit          3D

 48 52  0  0  0  0  0  0  0  0999 V2000
   59.6010   26.4620   47.9240 C   0  0  0  0  0  0  0  0  0  0  0  0
   58.3670   26.3210   47.2290 O   0  0  0  0  0  0  0  0  0  0  0  0
   58.1010   25.3490   46.2490 C   0  0  0  0  0  0  0  0  0  0  0  0
   58.9870   24.2710   46.0370 C   0  0  0  0  0  0  0  0  0  0  0  0
   58.7130   23.3060   45.0700 C   0  0  0  0  0  0  0  0  0  0  0  0
   57.5560   23.3960   44.3000 C   0  0  0  0  0  0  0  0  0  0  0  0
   56.6680   24.4540   44.4930 C   0  0  0  0  0  0  0  0  0  0  0  0
   56.9230   25.4450   45.4630 C   0  0  0  0  0  0  0  0  0  0  0  0
   55.9460   26.5580   45.6290 C   0  0  0  0  0  0  0  0  0  0  0  0
   54.7670   26.3000   45.9950 O   0  0  0  0  0  0  0  0  0  0  0  0
   56.3410   27.9200   45.4180 N   0  0  0  0  0  0  0  0  0  0  0  0
   57.6590   28.4670   45.5680 C   0  0  0  0  0  0  0  0  0  0  0  0
   58.5550   28.3780   44.4730 C   0  0  0  0  0  0  0  0  0  0  0  0
   59.8540   28.9160   44.5550 C   0  0  0  0  0  0  0  0  0  0  0  0
   60.2120   29.5480   45.7400 C   0  0  0  0  0  0  0  0  0  0  0  0
   61.3440   30.1270   46.0530 O   0  0  0  0  0  0  0  0  0  0  0  0
   61.1940   30.5920   47.2860 C   0  0  0  0  0  0  0  0  0  0  0  0
   62.2630   31.3200   48.0100 C   0  0  0  0  0  0  0  0  0  0  0  0
   62.9840   32.3260   47.3450 C   0  0  0  0  0  0  0  0  0  0  0  0
   63.9980   33.0300   47.9990 C   0  0  0  0  0  0  0  0  0  0  0  0
   64.3110   32.7390   49.3320 C   0  0  0  0  0  0  0  0  0  0  0  0
   65.3300   33.4410   49.9980 C   0  0  0  0  0  0  0  0  0  0  0  0
   65.6320   33.1420   51.3300 C   0  0  0  0  0  0  0  0  0  0  0  0
   64.9240   32.1450   52.0050 C   0  0  0  0  0  0  0  0  0  0  0  0
   63.9090   31.4390   51.3540 C   0  0  0  0  0  0  0  0  0  0  0  0
   63.5940   31.7290   50.0160 C   0  0  0  0  0  0  0  0  0  0  0  0
   62.5760   31.0270   49.3510 C   0  0  0  0  0  0  0  0  0  0  0  0
   59.9580   30.3210   47.7870 N   0  0  0  0  0  0  0  0  0  0  0  0
   59.3540   29.6570   46.7900 C   0  0  0  0  0  0  0  0  0  0  0  0
   58.0630   29.1380   46.7500 C   0  0  0  0  0  0  0  0  0  0  0  0
   59.4158   26.4408   49.0081 H   0  0  0  0  0  0  0  0  0  0  0  0
   60.2725   25.6347   47.6505 H   0  0  0  0  0  0  0  0  0  0  0  0
   60.0685   27.4194   47.6505 H   0  0  0  0  0  0  0  0  0  0  0  0
   59.9028   24.1919   46.6411 H   0  0  0  0  0  0  0  0  0  0  0  0
   59.4121   22.4711   44.9144 H   0  0  0  0  0  0  0  0  0  0  0  0
   57.3422   22.6315   43.5385 H   0  0  0  0  0  0  0  0  0  0  0  0
   55.7565   24.5161   43.8803 H   0  0  0  0  0  0  0  0  0  0  0  0
   58.2311   27.8818   43.5463 H   0  0  0  0  0  0  0  0  0  0  0  0
   60.5582   28.8390   43.7135 H   0  0  0  0  0  0  0  0  0  0  0  0
   62.7472   32.5620   46.2970 H   0  0  0  0  0  0  0  0  0  0  0  0
   64.5523   33.8156   47.4647 H   0  0  0  0  0  0  0  0  0  0  0  0
   65.8908   34.2268   49.4707 H   0  0  0  0  0  0  0  0  0  0  0  0
   66.4300   33.6939   51.8482 H   0  0  0  0  0  0  0  0  0  0  0  0
   65.1664   31.9147   53.0530 H   0  0  0  0  0  0  0  0  0  0  0  0
   63.3553   30.6543   51.8904 H   0  0  0  0  0  0  0  0  0  0  0  0
   62.0184   30.2416   49.8822 H   0  0  0  0  0  0  0  0  0  0  0  0
   59.5510   30.5590   48.7180 H   0  0  0  0  0  0  0  0  0  0  0  0
   57.3800   29.2447   47.6056 H   0  0  0  0  0  0  0  0  0  0  0  0
  1  2  1  0
  2  3  1  0
  3  4  2  0
  4  5  1  0
  5  6  2  0
  6  7  1  0
  7  8  2  0
  8  9  1  0
  9 10  2  0
  9 11  1  0
 11 12  1  0
 12 13  2  0
 13 14  1  0
 14 15  2  0
 15 16  1  0
 16 17  1  0
 17 18  1  0
 18 19  2  0
 19 20  1  0
 20 21  2  0
 21 22  1  0
 22 23  2  0
 23 24  1  0
 24 25  2  0
 25 26  1  0
 26 27  2  0
 17 28  2  0
 28 29  1  0
 29 30  2  0
  8  3  1  0
 30 12  1  0
 29 15  1  0
 27 18  1  0
 26 21  1  0
  1 31  1  0
  1 32  1  0
  1 33  1  0
  4 34  1  0
  5 35  1  0
  6 36  1  0
  7 37  1  0
 13 38  1  0
 14 39  1  0
 19 40  1  0
 20 41  1  0
 22 42  1  0
 23 43  1  0
 24 44  1  0
 25 45  1  0
 27 46  1  0
 28 47  1  0
 30 48  1  0
M  CHG  2  11  -1  28   1
M  END
>  <UniqueID>  (54) 
51

>  <SMILES>  (54) 
COc1ccccc1C(=O)[N-]c1ccc2oc(-c3ccc4ccccc4c3)[nH+]c2c1

>  <Energy>  (54) 
104.06048098185292

>  <Genealogy>  (54) 
COc1ccccc1C(=O)[N-]c1ccc2oc(-c3ccc4ccccc4c3)[nH+]c2c1 (protonated)
COc1ccccc1C(=O)[N-]c1ccc2oc(-c3ccc4ccccc4c3)[nH+]c2c1 (3D coordinates assigned)
COc1ccccc1C(=O)[N-]c1ccc2oc(-c3ccc4ccccc4c3)[nH+]c2c1 (optimized conformer: 104.06048098185292 kcal/mol)

>  <smiles>  (54) 
COc1ccccc1C(=O)Nc1ccc2oc(-c3ccc4ccccc4c3)nc2c1

>  <score_type>  (54) 
oracle

>  <origin>  (54) 
adg

>  <m_score__min__energy>  (54) 
-8.5500000000000007

>  <m_primary>  (54) 
energy

$$$$
54:0
     RDKit          3D

 42 43  0  0  0  0  0  0  0  0999 V2000
   56.6170   30.5750   43.4990 C   0  0  0  0  0  0  0  0  0  0  0  0
   56.4390   31.4880   44.5760 O   0  0  0  0  0  0  0  0  0  0  0  0
   57.4480   32.3170   45.0950 C   0  0  0  0  0  0  0  0  0  0  0  0
   57.5520   33.6740   44.7290 C   0  0  0  0  0  0  0  0  0  0  0  0
   58.5320   34.4880   45.3040 C   0  0  0  0  0  0  0  0  0  0  0  0
   59.4120   33.9620   46.2510 C   0  0  0  0  0  0  0  0  0  0  0  0
   59.3250   32.6180   46.6160 C   0  0  0  0  0  0  0  0  0  0  0  0
   58.3640   31.7820   46.0260 C   0  0  0  0  0  0  0  0  0  0  0  0
   58.3010   30.4050   46.4280 N   0  0  0  0  0  0  0  0  0  0  0  0
   59.4680   29.5870   46.6180 C   0  0  0  0  0  0  0  0  0  0  0  0
   60.6160   30.1090   46.6210 O   0  0  0  0  0  0  0  0  0  0  0  0
   59.3270   28.1180   46.8880 C   0  0  1  0  0  0  0  0  0  0  0  0
   60.1920   27.7220   48.0860 C   0  0  0  0  0  0  0  0  0  0  0  0
   57.9540   27.8210   47.1450 O   0  0  0  0  0  0  0  0  0  0  0  0
   57.0180   27.5290   46.1460 C   0  0  0  0  0  0  0  0  0  0  0  0
   56.3740   28.4650   45.5950 O   0  0  0  0  0  0  0  0  0  0  0  0
   56.7850   26.1170   45.7500 C   0  0  0  0  0  0  0  0  0  0  0  0
   57.8910   25.3000   45.4510 C   0  0  0  0  0  0  0  0  0  0  0  0
   57.7120   23.9670   45.0760 C   0  0  0  0  0  0  0  0  0  0  0  0
   56.4300   23.4280   44.9930 C   0  0  0  0  0  0  0  0  0  0  0  0
   55.3090   24.2190   45.2850 C   0  0  0  0  0  0  0  0  0  0  0  0
   53.9290   23.6330   45.1920 C   0  0  0  0  0  0  0  0  0  0  0  0
   55.4860   25.5640   45.6640 C   0  0  0  0  0  0  0  0  0  0  0  0
   54.3650   26.3400   45.9500 O   0  0  0  0  0  0  0  0  0  0  0  0
   56.8131   29.5694   43.8994 H   0  0  0  0  0  0  0  0  0  0  0  0
   55.7062   30.5531   42.8826 H   0  0  0  0  0  0  0  0  0  0  0  0
   57.4693   30.8968   42.8826 H   0  0  0  0  0  0  0  0  0  0  0  0
   56.8580   34.0949   43.9866 H   0  0  0  0  0  0  0  0  0  0  0  0
   58.6098   35.5450   45.0096 H   0  0  0  0  0  0  0  0  0  0  0  0
   60.1751   34.6077   46.7102 H   0  0  0  0  0  0  0  0  0  0  0  0
   60.0139   32.2110   47.3709 H   0  0  0  0  0  0  0  0  0  0  0  0
   57.3770   30.0230   46.7300 H   0  0  0  0  0  0  0  0  0  0  0  0
   59.6648   27.5449   46.0120 H   0  0  0  0  0  0  0  0  0  0  0  0
   59.6609   27.9652   49.0181 H   0  0  0  0  0  0  0  0  0  0  0  0
   60.3947   26.6414   48.0507 H   0  0  0  0  0  0  0  0  0  0  0  0
   61.1424   28.2747   48.0507 H   0  0  0  0  0  0  0  0  0  0  0  0
   58.9074   25.7159   45.5134 H   0  0  0  0  0  0  0  0  0  0  0  0
   58.5861   23.3403   44.8453 H   0  0  0  0  0  0  0  0  0  0  0  0
   56.2962   22.3770   44.6970 H   0  0  0  0  0  0  0  0  0  0  0  0
   53.5331   23.4649   46.2044 H   0  0  0  0  0  0  0  0  0  0  0  0
   53.2706   24.3292   44.6517 H   0  0  0  0  0  0  0  0  0  0  0  0
   53.9727   22.6758   44.6517 H   0  0  0  0  0  0  0  0  0  0  0  0
  1  2  1  0
  2  3  1  0
  3  4  2  0
  4  5  1  0
  5  6  2  0
  6  7  1  0
  7  8  2  0
  8  9  1  0
  9 10  1  0
 10 11  2  0
 10 12  1  0
 12 13  1  0
 12 14  1  0
 14 15  1  0
 15 16  2  0
 15 17  1  0
 17 18  2  0
 18 19  1  0
 19 20  2  0
 20 21  1  0
 21 22  1  0
 21 23  2  0
 23 24  1  0
  8  3  1  0
 23 17  1  0
  1 25  1  0
  1 26  1  0
  1 27  1  0
  4 28  1  0
  5 29  1  0
  6 30  1  0
  7 31  1  0
  9 32  1  0
 12 33  1  6
 13 34  1  0
 13 35  1  0
 13 36  1  0
 18 37  1  0
 19 38  1  0
 20 39  1  0
 22 40  1  0
 22 41  1  0
 22 42  1  0
M  CHG  1  24  -1
M  END
>  <UniqueID>  (55) 
52

>  <SMILES>  (55) 
COc1ccccc1NC(=O)[C@@H](C)OC(=O)c1cccc(C)c1[O-]

>  <Energy>  (55) 
43.872818527435804

>  <Genealogy>  (55) 
COc1ccccc1NC(=O)C(C)OC(=O)c1cccc(C)c1[O-] (protonated)
COc1ccccc1NC(=O)[C@@H](C)OC(=O)c1cccc(C)c1[O-] (chirality)
COc1ccccc1NC(=O)[C@@H](C)OC(=O)c1cccc(C)c1[O-] (3D coordinates assigned)
COc1ccccc1NC(=O)[C@@H](C)OC(=O)c1cccc(C)c1[O-] (optimized conformer: 43.872818527435804 kcal/mol)

>  <smiles>  (55) 
COc1ccccc1NC(=O)C(C)OC(=O)c1cccc(C)c1O

>  <score_type>  (55) 
oracle

>  <origin>  (55) 
adg

>  <m_score__min__energy>  (55) 
-11.550000000000001

>  <m_primary>  (55) 
energy

$$$$
55:0
     RDKit          3D

 24 25  0  0  0  0  0  0  0  0999 V2000
   55.8080   29.3060   45.2350 O   0  0  0  0  0  0  0  0  0  0  0  0
   56.7350   29.9800   44.7130 C   0  0  0  0  0  0  0  0  0  0  0  0
   56.5300   31.3800   44.4920 N   0  0  0  0  0  0  0  0  0  0  0  0
   57.3880   32.4290   44.9530 C   0  0  0  0  0  0  0  0  0  0  0  0
   58.2530   33.1390   44.1360 C   0  0  0  0  0  0  0  0  0  0  0  0
   58.9140   34.1730   44.8120 C   0  0  0  0  0  0  0  0  0  0  0  0
   58.5530   34.2860   46.1500 C   0  0  0  0  0  0  0  0  0  0  0  0
   57.4080   33.1020   46.4970 S   0  0  0  0  0  0  0  0  0  0  0  0
   57.9360   29.3300   44.2660 N   0  0  0  0  0  0  0  0  0  0  0  0
   58.4010   28.0690   44.7810 C   0  0  0  0  0  0  0  0  0  0  0  0
   57.7640   26.8620   44.4350 C   0  0  0  0  0  0  0  0  0  0  0  0
   58.2130   25.6480   44.9640 C   0  0  0  0  0  0  0  0  0  0  0  0
   59.2920   25.6280   45.8510 C   0  0  0  0  0  0  0  0  0  0  0  0
   59.7250   24.4500   46.3640 F   0  0  0  0  0  0  0  0  0  0  0  0
   59.9180   26.8210   46.2150 C   0  0  0  0  0  0  0  0  0  0  0  0
   59.4730   28.0390   45.6900 C   0  0  0  0  0  0  0  0  0  0  0  0
   60.0970   29.1880   46.0550 F   0  0  0  0  0  0  0  0  0  0  0  0
   58.4047   32.9147   43.0698 H   0  0  0  0  0  0  0  0  0  0  0  0
   59.6495   34.8334   44.3295 H   0  0  0  0  0  0  0  0  0  0  0  0
   58.9491   35.0250   46.8621 H   0  0  0  0  0  0  0  0  0  0  0  0
   58.4390   29.7510   43.4540 H   0  0  0  0  0  0  0  0  0  0  0  0
   56.9079   26.8741   43.7444 H   0  0  0  0  0  0  0  0  0  0  0  0
   57.7162   24.7081   44.6815 H   0  0  0  0  0  0  0  0  0  0  0  0
   60.7644   26.8036   46.9173 H   0  0  0  0  0  0  0  0  0  0  0  0
  1  2  2  0
  2  3  1  0
  3  4  1  0
  4  5  2  0
  5  6  1  0
  6  7  2  0
  7  8  1  0
  2  9  1  0
  9 10  1  0
 10 11  2  0
 11 12  1  0
 12 13  2  0
 13 14  1  0
 13 15  1  0
 15 16  2  0
 16 17  1  0
  8  4  1  0
 16 10  1  0
  5 18  1  0
  6 19  1  0
  7 20  1  0
  9 21  1  0
 11 22  1  0
 12 23  1  0
 15 24  1  0
M  CHG  1   3  -1
M  END
>  <UniqueID>  (56) 
53

>  <SMILES>  (56) 
O=C([N-]c1cccs1)Nc1ccc(F)cc1F

>  <Energy>  (56) 
57.23892766471552

>  <Genealogy>  (56) 
O=C([N-]c1cccs1)Nc1ccc(F)cc1F (protonated)
O=C([N-]c1cccs1)Nc1ccc(F)cc1F (3D coordinates assigned)
O=C([N-]c1cccs1)Nc1ccc(F)cc1F (optimized conformer: 57.23892766471552 kcal/mol)

>  <smiles>  (56) 
O=C(Nc1cccs1)Nc1ccc(F)cc1F

>  <score_type>  (56) 
oracle

>  <origin>  (56) 
adg

>  <m_score__min__energy>  (56) 
-7.79

>  <m_primary>  (56) 
energy

$$$$
56:0
     RDKit          3D

 23 24  0  0  0  0  0  0  0  0999 V2000
   51.0960   33.0690   51.6300 O   0  0  0  0  0  0  0  0  0  0  0  0
   51.3920   32.2070   50.7610 C   0  0  0  0  0  0  0  0  0  0  0  0
   50.8710   32.3240   49.4770 O   0  0  0  0  0  0  0  0  0  0  0  0
   52.3290   31.0840   51.1000 C   0  0  2  0  0  0  0  0  0  0  0  0
   51.6270   30.0500   51.9970 C   0  0  0  0  0  0  0  0  0  0  0  0
   52.6060   29.0470   52.5510 C   0  0  0  0  0  0  0  0  0  0  0  0
   52.1250   27.8610   53.1270 C   0  0  0  0  0  0  0  0  0  0  0  0
   53.0110   26.9410   53.6940 C   0  0  0  0  0  0  0  0  0  0  0  0
   54.3840   27.2010   53.6960 C   0  0  0  0  0  0  0  0  0  0  0  0
   54.8730   28.3850   53.1370 C   0  0  0  0  0  0  0  0  0  0  0  0
   53.9910   29.3230   52.5780 C   0  0  0  0  0  0  0  0  0  0  0  0
   54.5450   30.5670   51.9230 C   0  0  0  0  0  0  0  0  0  0  0  0
   53.5270   31.6170   51.7670 N   0  0  0  0  0  0  0  0  0  0  0  0
   52.6342   30.5815   50.1703 H   0  0  0  0  0  0  0  0  0  0  0  0
   51.1397   30.5735   52.8327 H   0  0  0  0  0  0  0  0  0  0  0  0
   50.8861   29.5106   51.3887 H   0  0  0  0  0  0  0  0  0  0  0  0
   51.0446   27.6545   53.1322 H   0  0  0  0  0  0  0  0  0  0  0  0
   52.6272   26.0112   54.1392 H   0  0  0  0  0  0  0  0  0  0  0  0
   55.0805   26.4732   54.1379 H   0  0  0  0  0  0  0  0  0  0  0  0
   55.9551   28.5829   53.1351 H   0  0  0  0  0  0  0  0  0  0  0  0
   55.3645   30.9584   52.5437 H   0  0  0  0  0  0  0  0  0  0  0  0
   54.8983   30.2894   50.9190 H   0  0  0  0  0  0  0  0  0  0  0  0
   53.2710   31.9720   52.7200 H   0  0  0  0  0  0  0  0  0  0  0  0
  1  2  2  0
  2  3  1  0
  2  4  1  0
  4  5  1  0
  5  6  1  0
  6  7  2  0
  7  8  1  0
  8  9  2  0
  9 10  1  0
 10 11  2  0
 11 12  1  0
 12 13  1  0
 13  4  1  0
 11  6  1  0
  4 14  1  6
  5 15  1  0
  5 16  1  0
  7 17  1  0
  8 18  1  0
  9 19  1  0
 10 20  1  0
 12 21  1  0
 12 22  1  0
 13 23  1  0
M  CHG  1   3  -1
M  END
>  <UniqueID>  (57) 
54

>  <SMILES>  (57) 
O=C([O-])[C@@H]1Cc2ccccc2CN1

>  <Energy>  (57) 
24.885669702587556

>  <Genealogy>  (57) 
O=C([O-])C1Cc2ccccc2CN1 (protonated)
O=C([O-])[C@@H]1Cc2ccccc2CN1 (chirality)
O=C([O-])[C@@H]1Cc2ccccc2CN1 (3D coordinates assigned)
O=C([O-])[C@@H]1Cc2ccccc2CN1 (nonaromatic ring conformer: 24.885669702587556 kcal/mol)

>  <smiles>  (57) 
O=C(O)C1Cc2ccccc2CN1

>  <score_type>  (57) 
oracle

>  <origin>  (57) 
adg

>  <m_score__min__energy>  (57) 
-8.9000000000000004

>  <m_primary>  (57) 
energy

$$$$
57:0
     RDKit          3D

 43 46  0  0  0  0  0  0  0  0999 V2000
   55.8620   30.0670   43.3010 C   0  0  0  0  0  0  0  0  0  0  0  0
   56.0390   30.0540   44.7130 O   0  0  0  0  0  0  0  0  0  0  0  0
   57.1360   29.4730   45.3640 C   0  0  0  0  0  0  0  0  0  0  0  0
   58.3380   30.1710   45.6200 C   0  0  0  0  0  0  0  0  0  0  0  0
   59.4160   29.5300   46.2780 C   0  0  0  0  0  0  0  0  0  0  0  0
   60.7090   30.2700   46.5310 C   0  0  0  0  0  0  0  0  0  0  0  0
   60.7200   30.9310   47.8480 N   0  0  0  0  0  0  0  0  0  0  0  0
   61.1460   32.3470   47.7780 C   0  0  2  0  0  0  0  0  0  0  0  0
   60.4320   33.1930   48.8640 C   0  0  0  0  0  0  0  0  0  0  0  0
   58.9010   33.2000   48.6920 C   0  0  0  0  0  0  0  0  0  0  0  0
   58.5410   33.3940   47.2530 C   0  0  0  0  0  0  0  0  0  0  0  0
   57.3180   33.6880   46.7860 N   0  0  0  0  0  0  0  0  0  0  0  0
   57.4890   33.6850   45.4450 C   0  0  0  0  0  0  0  0  0  0  0  0
   58.7630   33.3910   45.1020 N   0  0  0  0  0  0  0  0  0  0  0  0
   59.4010   33.1910   46.2440 N   0  0  0  0  0  0  0  0  0  0  0  0
   60.8310   32.9320   46.3810 C   0  0  0  0  0  0  0  0  0  0  0  0
   59.2850   28.1850   46.6820 C   0  0  0  0  0  0  0  0  0  0  0  0
   58.0880   27.5220   46.4180 C   0  0  0  0  0  0  0  0  0  0  0  0
   57.0540   28.1460   45.7820 C   0  0  0  0  0  0  0  0  0  0  0  0
   55.9790   27.2990   45.6270 O   0  0  0  0  0  0  0  0  0  0  0  0
   56.2740   26.0170   46.1830 C   0  0  0  0  0  0  0  0  0  0  0  0
   57.7150   26.1200   46.7390 C   0  0  0  0  0  0  0  0  0  0  0  0
   54.7902   30.1457   43.0665 H   0  0  0  0  0  0  0  0  0  0  0  0
   56.3953   30.9284   42.8725 H   0  0  0  0  0  0  0  0  0  0  0  0
   56.2637   29.1369   42.8725 H   0  0  0  0  0  0  0  0  0  0  0  0
   58.4371   31.2205   45.3057 H   0  0  0  0  0  0  0  0  0  0  0  0
   61.5424   29.5535   46.4866 H   0  0  0  0  0  0  0  0  0  0  0  0
   60.8107   31.0482   45.7602 H   0  0  0  0  0  0  0  0  0  0  0  0
   61.3480   30.3880   48.4860 H   0  0  0  0  0  0  0  0  0  0  0  0
   62.2310   32.3844   47.9552 H   0  0  0  0  0  0  0  0  0  0  0  0
   60.6743   32.7758   49.8525 H   0  0  0  0  0  0  0  0  0  0  0  0
   60.7848   34.2303   48.7662 H   0  0  0  0  0  0  0  0  0  0  0  0
   58.4921   32.2407   49.0422 H   0  0  0  0  0  0  0  0  0  0  0  0
   58.4786   34.0273   49.2812 H   0  0  0  0  0  0  0  0  0  0  0  0
   56.4430   33.8710   47.3240 H   0  0  0  0  0  0  0  0  0  0  0  0
   56.6884   33.8962   44.7208 H   0  0  0  0  0  0  0  0  0  0  0  0
   61.1440   32.2136   45.6091 H   0  0  0  0  0  0  0  0  0  0  0  0
   61.3765   33.8797   46.2617 H   0  0  0  0  0  0  0  0  0  0  0  0
   60.1107   27.6700   47.1949 H   0  0  0  0  0  0  0  0  0  0  0  0
   55.5675   25.7784   46.9917 H   0  0  0  0  0  0  0  0  0  0  0  0
   56.1864   25.2194   45.4305 H   0  0  0  0  0  0  0  0  0  0  0  0
   57.7353   25.9425   47.8244 H   0  0  0  0  0  0  0  0  0  0  0  0
   58.4028   25.3758   46.3111 H   0  0  0  0  0  0  0  0  0  0  0  0
  1  2  1  0
  2  3  1  0
  3  4  2  0
  4  5  1  0
  5  6  1  0
  6  7  1  0
  7  8  1  0
  8  9  1  0
  9 10  1  0
 10 11  1  0
 11 12  2  0
 12 13  1  0
 13 14  2  0
 14 15  1  0
 15 16  1  0
  5 17  2  0
 17 18  1  0
 18 19  2  0
 19 20  1  0
 20 21  1  0
 21 22  1  0
 19  3  1  0
 16  8  1  0
 22 18  1  0
 15 11  1  0
  1 23  1  0
  1 24  1  0
  1 25  1  0
  4 26  1  0
  6 27  1  0
  6 28  1  0
  7 29  1  0
  8 30  1  1
  9 31  1  0
  9 32  1  0
 10 33  1  0
 10 34  1  0
 12 35  1  0
 13 36  1  0
 16 37  1  0
 16 38  1  0
 17 39  1  0
 21 40  1  0
 21 41  1  0
 22 42  1  0
 22 43  1  0
M  CHG  1  12   1
M  END
>  <UniqueID>  (58) 
55

>  <SMILES>  (58) 
COc1cc(CN[C@@H]2CCc3[nH+]cnn3C2)cc2c1OCC2

>  <Energy>  (58) 
96.13549908333226

>  <Genealogy>  (58) 
COc1cc(CNC2CCc3[nH+]cnn3C2)cc2c1OCC2 (protonated)
COc1cc(CN[C@@H]2CCc3[nH+]cnn3C2)cc2c1OCC2 (chirality)
COc1cc(CN[C@@H]2CCc3[nH+]cnn3C2)cc2c1OCC2 (3D coordinates assigned)
COc1cc(CN[C@@H]2CCc3[nH+]cnn3C2)cc2c1OCC2 (nonaromatic ring conformer: 96.13549908333226 kcal/mol)

>  <smiles>  (58) 
COc1cc(CNC2CCc3ncnn3C2)cc2c1OCC2

>  <score_type>  (58) 
oracle

>  <origin>  (58) 
adg

>  <m_score__min__energy>  (58) 
-6.25

>  <m_primary>  (58) 
energy

$$$$
58:0
     RDKit          3D

 27 28  0  0  0  0  0  0  0  0999 V2000
   54.7600   26.3210   45.9920 N   0  0  0  0  0  0  0  0  0  0  0  0
   56.2910   25.5510   46.2130 S   0  0  0  0  0  0  0  0  0  0  0  0
   56.6450   24.7700   44.9790 O   0  0  0  0  0  0  0  0  0  0  0  0
   56.2090   24.6010   47.3760 O   0  0  0  0  0  0  0  0  0  0  0  0
   57.5240   26.7690   46.5220 C   0  0  0  0  0  0  0  0  0  0  0  0
   58.6710   26.4390   47.2550 C   0  0  0  0  0  0  0  0  0  0  0  0
   59.6580   27.4010   47.4890 C   0  0  0  0  0  0  0  0  0  0  0  0
   59.5070   28.7080   47.0020 C   0  0  0  0  0  0  0  0  0  0  0  0
   60.5460   29.6730   47.2370 N   0  0  0  0  0  0  0  0  0  0  0  0
   60.3330   31.0950   47.2390 C   0  0  0  0  0  0  0  0  0  0  0  0
   59.1670   31.5610   47.3530 O   0  0  0  0  0  0  0  0  0  0  0  0
   61.4660   32.0310   47.1510 C   0  0  0  0  0  0  0  0  0  0  0  0
   61.4020   33.3800   46.8550 C   0  0  0  0  0  0  0  0  0  0  0  0
   62.7040   33.8310   46.8960 C   0  0  0  0  0  0  0  0  0  0  0  0
   63.4800   32.7360   47.2150 C   0  0  0  0  0  0  0  0  0  0  0  0
   62.7140   31.6790   47.3610 O   0  0  0  0  0  0  0  0  0  0  0  0
   58.3670   29.0280   46.2420 C   0  0  0  0  0  0  0  0  0  0  0  0
   57.3810   28.0640   46.0070 C   0  0  0  0  0  0  0  0  0  0  0  0
   54.7000   27.0870   46.6990 H   0  0  0  0  0  0  0  0  0  0  0  0
   58.7956   25.4192   47.6480 H   0  0  0  0  0  0  0  0  0  0  0  0
   60.5593   27.1313   48.0590 H   0  0  0  0  0  0  0  0  0  0  0  0
   61.4860   29.3150   47.5220 H   0  0  0  0  0  0  0  0  0  0  0  0
   60.5006   33.9701   46.6332 H   0  0  0  0  0  0  0  0  0  0  0  0
   63.0538   34.8575   46.7115 H   0  0  0  0  0  0  0  0  0  0  0  0
   64.5740   32.7464   47.3297 H   0  0  0  0  0  0  0  0  0  0  0  0
   58.2505   30.0415   45.8305 H   0  0  0  0  0  0  0  0  0  0  0  0
   56.4904   28.3236   45.4159 H   0  0  0  0  0  0  0  0  0  0  0  0
  1  2  1  0
  2  3  2  0
  2  4  2  0
  2  5  1  0
  5  6  2  0
  6  7  1  0
  7  8  2  0
  8  9  1  0
  9 10  1  0
 10 11  2  0
 10 12  1  0
 12 13  2  0
 13 14  1  0
 14 15  2  0
 15 16  1  0
  8 17  1  0
 17 18  2  0
 18  5  1  0
 16 12  1  0
  1 19  1  0
  6 20  1  0
  7 21  1  0
  9 22  1  0
 13 23  1  0
 14 24  1  0
 15 25  1  0
 17 26  1  0
 18 27  1  0
M  CHG  1   1  -1
M  END
>  <UniqueID>  (59) 
56

>  <SMILES>  (59) 
[NH-]S(=O)(=O)c1ccc(NC(=O)c2ccco2)cc1

>  <Energy>  (59) 
56.08002000867052

>  <Genealogy>  (59) 
[NH-]S(=O)(=O)c1ccc(NC(=O)c2ccco2)cc1 (protonated)
[NH-]S(=O)(=O)c1ccc(NC(=O)c2ccco2)cc1 (3D coordinates assigned)
[NH-]S(=O)(=O)c1ccc(NC(=O)c2ccco2)cc1 (optimized conformer: 56.08002000867052 kcal/mol)

>  <smiles>  (59) 
NS(=O)(=O)c1ccc(NC(=O)c2ccco2)cc1

>  <score_type>  (59) 
oracle

>  <origin>  (59) 
adg

>  <m_score__min__energy>  (59) 
-8.8800000000000008

>  <m_primary>  (59) 
energy

$$$$
59:0
     RDKit          3D

 29 30  0  0  0  0  0  0  0  0999 V2000
   57.5960   24.6300   47.1340 C   0  0  0  0  0  0  0  0  0  0  0  0
   57.6200   25.8040   46.2010 C   0  0  0  0  0  0  0  0  0  0  0  0
   57.7960   25.6090   44.8230 C   0  0  0  0  0  0  0  0  0  0  0  0
   57.7830   26.7010   43.9500 C   0  0  0  0  0  0  0  0  0  0  0  0
   57.5650   27.9990   44.4350 C   0  0  0  0  0  0  0  0  0  0  0  0
   57.5780   29.1050   43.5170 N   0  0  0  0  0  0  0  0  0  0  0  0
   56.7620   30.2760   43.6500 C   0  0  0  0  0  0  0  0  0  0  0  0
   55.8320   30.3180   44.5010 O   0  0  0  0  0  0  0  0  0  0  0  0
   56.9850   31.3610   42.7940 O   0  0  0  0  0  0  0  0  0  0  0  0
   57.9960   32.3400   43.0150 C   0  0  0  0  0  0  0  0  0  0  0  0
   57.9750   32.7970   44.4400 C   0  0  0  0  0  0  0  0  0  0  0  0
   57.4290   33.9830   44.9160 C   0  0  0  0  0  0  0  0  0  0  0  0
   57.5820   34.1810   46.2520 N   0  0  0  0  0  0  0  0  0  0  0  0
   58.2500   33.1680   46.8480 C   0  0  0  0  0  0  0  0  0  0  0  0
   58.6810   31.9850   45.7320 S   0  0  0  0  0  0  0  0  0  0  0  0
   57.3950   28.1920   45.8180 C   0  0  0  0  0  0  0  0  0  0  0  0
   57.4090   27.1010   46.6910 C   0  0  0  0  0  0  0  0  0  0  0  0
   57.6033   24.9880   48.1741 H   0  0  0  0  0  0  0  0  0  0  0  0
   56.6856   24.0388   46.9561 H   0  0  0  0  0  0  0  0  0  0  0  0
   58.4815   24.0021   46.9561 H   0  0  0  0  0  0  0  0  0  0  0  0
   57.9448   24.5933   44.4279 H   0  0  0  0  0  0  0  0  0  0  0  0
   57.9451   26.5409   42.8738 H   0  0  0  0  0  0  0  0  0  0  0  0
   58.1490   29.0190   42.6450 H   0  0  0  0  0  0  0  0  0  0  0  0
   58.9798   31.9030   42.7887 H   0  0  0  0  0  0  0  0  0  0  0  0
   57.8070   33.2032   42.3599 H   0  0  0  0  0  0  0  0  0  0  0  0
   56.9142   34.7038   44.2638 H   0  0  0  0  0  0  0  0  0  0  0  0
   58.4815   33.1231   47.9224 H   0  0  0  0  0  0  0  0  0  0  0  0
   57.2502   29.2078   46.2146 H   0  0  0  0  0  0  0  0  0  0  0  0
   57.2537   27.2603   47.7683 H   0  0  0  0  0  0  0  0  0  0  0  0
  1  2  1  0
  2  3  2  0
  3  4  1  0
  4  5  2  0
  5  6  1  0
  6  7  1  0
  7  8  2  0
  7  9  1  0
  9 10  1  0
 10 11  1  0
 11 12  2  0
 12 13  1  0
 13 14  2  0
 14 15  1  0
  5 16  1  0
 16 17  2  0
 17  2  1  0
 15 11  1  0
  1 18  1  0
  1 19  1  0
  1 20  1  0
  3 21  1  0
  4 22  1  0
  6 23  1  0
 10 24  1  0
 10 25  1  0
 12 26  1  0
 14 27  1  0
 16 28  1  0
 17 29  1  0
M  END
>  <UniqueID>  (60) 
57

>  <SMILES>  (60) 
Cc1ccc(NC(=O)OCc2cncs2)cc1

>  <Energy>  (60) 
58.96358058912843

>  <Genealogy>  (60) 
Cc1ccc(NC(=O)OCc2cncs2)cc1 (3D coordinates assigned)
Cc1ccc(NC(=O)OCc2cncs2)cc1 (optimized conformer: 58.96358058912843 kcal/mol)

>  <smiles>  (60) 
Cc1ccc(NC(=O)OCc2cncs2)cc1

>  <score_type>  (60) 
oracle

>  <origin>  (60) 
adg

>  <m_score__min__energy>  (60) 
-6.21

>  <m_primary>  (60) 
energy

$$$$
60:0
     RDKit          3D

 47 48  0  0  0  0  0  0  0  0999 V2000
   64.0870   33.0530   49.0130 C   0  0  0  0  0  0  0  0  0  0  0  0
   63.3950   33.2610   47.7000 C   0  0  0  0  0  0  0  0  0  0  0  0
   64.0540   33.0780   46.6400 O   0  0  0  0  0  0  0  0  0  0  0  0
   61.9650   33.6600   47.6200 C   0  0  0  0  0  0  0  0  0  0  0  0
   61.2540   33.9620   48.7970 C   0  0  0  0  0  0  0  0  0  0  0  0
   59.9150   34.3530   48.7360 C   0  0  0  0  0  0  0  0  0  0  0  0
   59.2630   34.4380   47.5050 C   0  0  0  0  0  0  0  0  0  0  0  0
   59.9400   34.1160   46.3250 C   0  0  0  0  0  0  0  0  0  0  0  0
   59.2530   34.2470   45.0750 N   0  0  0  0  0  0  0  0  0  0  0  0
   58.2960   33.3310   44.5260 C   0  0  0  0  0  0  0  0  0  0  0  0
   58.4310   32.9610   43.3290 O   0  0  0  0  0  0  0  0  0  0  0  0
   57.0570   32.9210   45.2720 C   0  0  0  0  0  0  0  0  0  0  0  0
   57.0330   31.5050   45.4370 O   0  0  0  0  0  0  0  0  0  0  0  0
   56.4850   30.6330   44.4900 C   0  0  0  0  0  0  0  0  0  0  0  0
   55.2760   30.2830   44.5600 O   0  0  0  0  0  0  0  0  0  0  0  0
   57.3360   30.1240   43.3690 C   0  0  0  0  0  0  0  0  0  0  0  0
   57.0380   28.7200   43.0660 N   0  0  0  0  0  0  0  0  0  0  0  0
   58.1290   27.6410   43.8940 S   0  0  0  0  0  0  0  0  0  0  0  0
   59.1770   27.1600   42.9310 O   0  0  0  0  0  0  0  0  0  0  0  0
   57.3860   26.4460   44.4270 O   0  0  0  0  0  0  0  0  0  0  0  0
   58.9250   28.5050   45.2060 C   0  0  0  0  0  0  0  0  0  0  0  0
   60.2030   29.0560   45.0360 C   0  0  0  0  0  0  0  0  0  0  0  0
   60.8300   29.7190   46.0960 C   0  0  0  0  0  0  0  0  0  0  0  0
   60.1790   29.8460   47.3340 C   0  0  0  0  0  0  0  0  0  0  0  0
   60.8560   30.5280   48.4860 C   0  0  0  0  0  0  0  0  0  0  0  0
   58.9090   29.2740   47.5070 C   0  0  0  0  0  0  0  0  0  0  0  0
   58.2840   28.6140   46.4460 C   0  0  0  0  0  0  0  0  0  0  0  0
   61.2980   33.7560   46.3820 C   0  0  0  0  0  0  0  0  0  0  0  0
   63.3862   33.2637   49.8343 H   0  0  0  0  0  0  0  0  0  0  0  0
   64.4328   32.0112   49.0842 H   0  0  0  0  0  0  0  0  0  0  0  0
   64.9499   33.7315   49.0842 H   0  0  0  0  0  0  0  0  0  0  0  0
   61.7573   33.8894   49.7724 H   0  0  0  0  0  0  0  0  0  0  0  0
   59.3720   34.5949   49.6616 H   0  0  0  0  0  0  0  0  0  0  0  0
   58.2119   34.7597   47.4630 H   0  0  0  0  0  0  0  0  0  0  0  0
   57.0509   33.4031   46.2607 H   0  0  0  0  0  0  0  0  0  0  0  0
   56.1711   33.2328   44.6993 H   0  0  0  0  0  0  0  0  0  0  0  0
   57.1471   30.7317   42.4718 H   0  0  0  0  0  0  0  0  0  0  0  0
   58.3903   30.1961   43.6743 H   0  0  0  0  0  0  0  0  0  0  0  0
   56.0790   28.5190   43.4330 H   0  0  0  0  0  0  0  0  0  0  0  0
   60.7141   28.9666   44.0661 H   0  0  0  0  0  0  0  0  0  0  0  0
   61.8361   30.1423   45.9596 H   0  0  0  0  0  0  0  0  0  0  0  0
   60.4604   30.1295   49.4319 H   0  0  0  0  0  0  0  0  0  0  0  0
   61.9394   30.3445   48.4354 H   0  0  0  0  0  0  0  0  0  0  0  0
   60.6646   31.6100   48.4354 H   0  0  0  0  0  0  0  0  0  0  0  0
   58.4039   29.3456   48.4815 H   0  0  0  0  0  0  0  0  0  0  0  0
   57.2838   28.1780   46.5855 H   0  0  0  0  0  0  0  0  0  0  0  0
   61.8454   33.5472   45.4510 H   0  0  0  0  0  0  0  0  0  0  0  0
  1  2  1  0
  2  3  2  0
  2  4  1  0
  4  5  2  0
  5  6  1  0
  6  7  2  0
  7  8  1  0
  8  9  1  0
  9 10  1  0
 10 11  2  0
 10 12  1  0
 12 13  1  0
 13 14  1  0
 14 15  2  0
 14 16  1  0
 16 17  1  0
 17 18  1  0
 18 19  2  0
 18 20  2  0
 18 21  1  0
 21 22  2  0
 22 23  1  0
 23 24  2  0
 24 25  1  0
 24 26  1  0
 26 27  2  0
  8 28  2  0
 28  4  1  0
 27 21  1  0
  1 29  1  0
  1 30  1  0
  1 31  1  0
  5 32  1  0
  6 33  1  0
  7 34  1  0
 12 35  1  0
 12 36  1  0
 16 37  1  0
 16 38  1  0
 17 39  1  0
 22 40  1  0
 23 41  1  0
 25 42  1  0
 25 43  1  0
 25 44  1  0
 26 45  1  0
 27 46  1  0
 28 47  1  0
M  CHG  1   9  -1
M  END
>  <UniqueID>  (61) 
58

>  <SMILES>  (61) 
CC(=O)c1cccc([N-]C(=O)COC(=O)CNS(=O)(=O)c2ccc(C)cc2)c1

>  <Energy>  (61) 
43.29991459564977

>  <Genealogy>  (61) 
CC(=O)c1cccc([N-]C(=O)COC(=O)CNS(=O)(=O)c2ccc(C)cc2)c1 (protonated)
CC(=O)c1cccc([N-]C(=O)COC(=O)CNS(=O)(=O)c2ccc(C)cc2)c1 (3D coordinates assigned)
CC(=O)c1cccc([N-]C(=O)COC(=O)CNS(=O)(=O)c2ccc(C)cc2)c1 (optimized conformer: 43.29991459564977 kcal/mol)

>  <smiles>  (61) 
CC(=O)c1cccc(NC(=O)COC(=O)CNS(=O)(=O)c2ccc(C)cc2)c1

>  <score_type>  (61) 
oracle

>  <origin>  (61) 
adg

>  <m_score__min__energy>  (61) 
-10.82

>  <m_primary>  (61) 
energy

$$$$
61:0
     RDKit          3D

 59 62  0  0  0  0  0  0  0  0999 V2000
   57.0310   28.2770   45.6380 C   0  0  0  0  0  0  0  0  0  0  0  0
   57.6100   28.6890   44.3470 N   0  0  0  0  0  0  0  0  0  0  0  0
   56.6620   29.4880   43.5330 C   0  0  0  0  0  0  0  0  0  0  0  0
   56.8580   31.0100   43.6820 C   0  0  0  0  0  0  0  0  0  0  0  0
   57.4260   31.3110   45.0040 N   0  0  0  0  0  0  0  0  0  0  0  0
   57.3200   32.7360   45.3890 C   0  0  0  0  0  0  0  0  0  0  0  0
   58.1660   33.1170   46.5870 C   0  0  0  0  0  0  0  0  0  0  0  0
   58.1470   32.3300   47.7490 C   0  0  0  0  0  0  0  0  0  0  0  0
   58.9260   32.6800   48.8550 C   0  0  0  0  0  0  0  0  0  0  0  0
   59.7270   33.8310   48.8270 C   0  0  0  0  0  0  0  0  0  0  0  0
   60.5230   34.1650   49.9800 N   0  0  0  0  0  0  0  0  0  0  0  0
   60.1830   33.7860   51.3220 C   0  0  0  0  0  0  0  0  0  0  0  0
   58.8950   34.0740   51.7940 C   0  0  0  0  0  0  0  0  0  0  0  0
   58.5090   33.6940   53.0790 C   0  0  0  0  0  0  0  0  0  0  0  0
   59.4100   33.0290   53.9090 C   0  0  0  0  0  0  0  0  0  0  0  0
   60.7060   32.7580   53.4630 C   0  0  0  0  0  0  0  0  0  0  0  0
   61.1190   33.1460   52.1730 C   0  0  0  0  0  0  0  0  0  0  0  0
   62.4790   32.9390   51.7330 N   0  0  0  0  0  0  0  0  0  0  0  0
   62.9130   31.8360   50.8740 C   0  0  0  0  0  0  0  0  0  0  0  0
   62.9490   32.2650   49.4300 C   0  0  0  0  0  0  0  0  0  0  0  0
   63.6630   33.4160   49.0520 C   0  0  0  0  0  0  0  0  0  0  0  0
   63.6830   33.8250   47.7150 C   0  0  0  0  0  0  0  0  0  0  0  0
   62.9830   33.0970   46.7490 C   0  0  0  0  0  0  0  0  0  0  0  0
   62.2600   31.9620   47.1190 C   0  0  0  0  0  0  0  0  0  0  0  0
   62.2350   31.5490   48.4540 C   0  0  0  0  0  0  0  0  0  0  0  0
   59.7440   34.6230   47.6620 C   0  0  0  0  0  0  0  0  0  0  0  0
   58.9630   34.2730   46.5580 C   0  0  0  0  0  0  0  0  0  0  0  0
   58.7900   30.7630   45.1480 C   0  0  0  0  0  0  0  0  0  0  0  0
   58.9160   29.3580   44.5150 C   0  0  0  0  0  0  0  0  0  0  0  0
   57.6272   28.7012   46.4593 H   0  0  0  0  0  0  0  0  0  0  0  0
   55.9961   28.6429   45.7092 H   0  0  0  0  0  0  0  0  0  0  0  0
   57.0375   27.1793   45.7092 H   0  0  0  0  0  0  0  0  0  0  0  0
   56.7999   29.2207   42.4749 H   0  0  0  0  0  0  0  0  0  0  0  0
   55.6489   29.2546   43.8925 H   0  0  0  0  0  0  0  0  0  0  0  0
   57.5433   31.3684   42.8997 H   0  0  0  0  0  0  0  0  0  0  0  0
   55.8852   31.5134   43.5811 H   0  0  0  0  0  0  0  0  0  0  0  0
   57.6369   33.3498   44.5329 H   0  0  0  0  0  0  0  0  0  0  0  0
   56.2716   32.9113   45.6720 H   0  0  0  0  0  0  0  0  0  0  0  0
   57.5142   31.4311   47.7893 H   0  0  0  0  0  0  0  0  0  0  0  0
   58.9109   32.0477   49.7550 H   0  0  0  0  0  0  0  0  0  0  0  0
   61.3170   34.8330   49.8550 H   0  0  0  0  0  0  0  0  0  0  0  0
   58.1825   34.6044   51.1451 H   0  0  0  0  0  0  0  0  0  0  0  0
   57.4937   33.9190   53.4375 H   0  0  0  0  0  0  0  0  0  0  0  0
   59.1000   32.7169   54.9172 H   0  0  0  0  0  0  0  0  0  0  0  0
   61.4116   32.2361   54.1261 H   0  0  0  0  0  0  0  0  0  0  0  0
   63.2260   33.5950   52.0550 H   0  0  0  0  0  0  0  0  0  0  0  0
   63.9196   31.5150   51.1801 H   0  0  0  0  0  0  0  0  0  0  0  0
   62.1985   31.0061   50.9777 H   0  0  0  0  0  0  0  0  0  0  0  0
   64.2078   33.9968   49.8109 H   0  0  0  0  0  0  0  0  0  0  0  0
   64.2505   34.7210   47.4232 H   0  0  0  0  0  0  0  0  0  0  0  0
   63.0019   33.4185   45.6972 H   0  0  0  0  0  0  0  0  0  0  0  0
   61.7083   31.3909   46.3578 H   0  0  0  0  0  0  0  0  0  0  0  0
   61.6543   30.6602   48.7418 H   0  0  0  0  0  0  0  0  0  0  0  0
   60.3761   35.5224   47.6215 H   0  0  0  0  0  0  0  0  0  0  0  0
   58.9723   34.9074   45.6594 H   0  0  0  0  0  0  0  0  0  0  0  0
   59.5001   31.4414   44.6525 H   0  0  0  0  0  0  0  0  0  0  0  0
   59.0104   30.6743   46.2220 H   0  0  0  0  0  0  0  0  0  0  0  0
   59.3896   29.4583   43.5273 H   0  0  0  0  0  0  0  0  0  0  0  0
   59.5205   28.7402   45.1953 H   0  0  0  0  0  0  0  0  0  0  0  0
  1  2  1  0
  2  3  1  0
  3  4  1  0
  4  5  1  0
  5  6  1  0
  6  7  1  0
  7  8  2  0
  8  9  1  0
  9 10  2  0
 10 11  1  0
 11 12  1  0
 12 13  2  0
 13 14  1  0
 14 15  2  0
 15 16  1  0
 16 17  2  0
 17 18  1  0
 18 19  1  0
 19 20  1  0
 20 21  2  0
 21 22  1  0
 22 23  2  0
 23 24  1  0
 24 25  2  0
 10 26  1  0
 26 27  2  0
  5 28  1  0
 28 29  1  0
 29  2  1  0
 27  7  1  0
 17 12  1  0
 25 20  1  0
  1 30  1  0
  1 31  1  0
  1 32  1  0
  3 33  1  0
  3 34  1  0
  4 35  1  0
  4 36  1  0
  6 37  1  0
  6 38  1  0
  8 39  1  0
  9 40  1  0
 11 41  1  0
 13 42  1  0
 14 43  1  0
 15 44  1  0
 16 45  1  0
 18 46  1  0
 19 47  1  0
 19 48  1  0
 21 49  1  0
 22 50  1  0
 23 51  1  0
 24 52  1  0
 25 53  1  0
 26 54  1  0
 27 55  1  0
 28 56  1  0
 28 57  1  0
 29 58  1  0
 29 59  1  0
M  END
>  <UniqueID>  (62) 
59

>  <SMILES>  (62) 
CN1CCN(Cc2ccc(Nc3ccccc3NCc3ccccc3)cc2)CC1

>  <Energy>  (62) 
82.53436088695014

>  <Genealogy>  (62) 
CN1CCN(Cc2ccc(Nc3ccccc3NCc3ccccc3)cc2)CC1 (3D coordinates assigned)
CN1CCN(Cc2ccc(Nc3ccccc3NCc3ccccc3)cc2)CC1 (nonaromatic ring conformer: 82.53436088695014 kcal/mol)

>  <smiles>  (62) 
CN1CCN(Cc2ccc(Nc3ccccc3NCc3ccccc3)cc2)CC1

>  <score_type>  (62) 
oracle

>  <origin>  (62) 
adg

>  <m_score__min__energy>  (62) 
-8.4800000000000004

>  <m_primary>  (62) 
energy

$$$$
62:0
     RDKit          3D

 42 44  0  0  0  0  0  0  0  0999 V2000
   56.1630   29.7190   43.8840 C   0  0  0  0  0  0  0  0  0  0  0  0
   56.1440   29.1410   45.1850 O   0  0  0  0  0  0  0  0  0  0  0  0
   57.0440   28.1660   45.6440 C   0  0  0  0  0  0  0  0  0  0  0  0
   56.6340   26.8320   45.8480 C   0  0  0  0  0  0  0  0  0  0  0  0
   57.5280   25.8820   46.3420 C   0  0  0  0  0  0  0  0  0  0  0  0
   58.8380   26.2450   46.6440 C   0  0  0  0  0  0  0  0  0  0  0  0
   59.2630   27.5580   46.4430 C   0  0  0  0  0  0  0  0  0  0  0  0
   58.3830   28.5300   45.9310 C   0  0  0  0  0  0  0  0  0  0  0  0
   58.8840   29.9150   45.7300 C   0  0  0  0  0  0  0  0  0  0  0  0
   60.0320   30.0870   45.2360 O   0  0  0  0  0  0  0  0  0  0  0  0
   58.0590   31.0560   46.0170 N   0  0  0  0  0  0  0  0  0  0  0  0
   58.5570   32.4030   45.9670 C   0  0  0  0  0  0  0  0  0  0  0  0
   58.0020   33.2920   45.0340 C   0  0  0  0  0  0  0  0  0  0  0  0
   58.4860   34.5960   44.9220 C   0  0  0  0  0  0  0  0  0  0  0  0
   59.5210   35.0320   45.7490 C   0  0  0  0  0  0  0  0  0  0  0  0
   60.0660   34.1680   46.7010 C   0  0  0  0  0  0  0  0  0  0  0  0
   59.5880   32.8530   46.8280 C   0  0  0  0  0  0  0  0  0  0  0  0
   60.0980   32.0180   47.8800 N   0  0  0  0  0  0  0  0  0  0  0  0
   59.2730   31.4740   48.9480 C   0  0  0  0  0  0  0  0  0  0  0  0
   60.1340   30.4180   49.6350 C   0  0  0  0  0  0  0  0  0  0  0  0
   61.5590   30.6510   49.1420 C   0  0  0  0  0  0  0  0  0  0  0  0
   61.4240   31.4280   47.8410 C   0  0  0  0  0  0  0  0  0  0  0  0
   56.1990   30.8150   43.9702 H   0  0  0  0  0  0  0  0  0  0  0  0
   57.0500   29.3648   43.3383 H   0  0  0  0  0  0  0  0  0  0  0  0
   55.2547   29.4238   43.3383 H   0  0  0  0  0  0  0  0  0  0  0  0
   55.5998   26.5381   45.6154 H   0  0  0  0  0  0  0  0  0  0  0  0
   57.1974   24.8438   46.4933 H   0  0  0  0  0  0  0  0  0  0  0  0
   59.5382   25.4955   47.0414 H   0  0  0  0  0  0  0  0  0  0  0  0
   60.2984   27.8374   46.6875 H   0  0  0  0  0  0  0  0  0  0  0  0
   57.0220   30.9250   46.0010 H   0  0  0  0  0  0  0  0  0  0  0  0
   57.1786   32.9582   44.3855 H   0  0  0  0  0  0  0  0  0  0  0  0
   58.0504   35.2814   44.1800 H   0  0  0  0  0  0  0  0  0  0  0  0
   59.9081   36.0570   45.6513 H   0  0  0  0  0  0  0  0  0  0  0  0
   60.8761   34.5198   47.3568 H   0  0  0  0  0  0  0  0  0  0  0  0
   58.9955   32.2654   49.6597 H   0  0  0  0  0  0  0  0  0  0  0  0
   58.3364   31.0463   48.5609 H   0  0  0  0  0  0  0  0  0  0  0  0
   60.0836   30.5355   50.7275 H   0  0  0  0  0  0  0  0  0  0  0  0
   59.7877   29.4007   49.3999 H   0  0  0  0  0  0  0  0  0  0  0  0
   62.1292   31.2347   49.8797 H   0  0  0  0  0  0  0  0  0  0  0  0
   62.0970   29.7030   48.9942 H   0  0  0  0  0  0  0  0  0  0  0  0
   62.1926   32.2125   47.7798 H   0  0  0  0  0  0  0  0  0  0  0  0
   61.5578   30.7804   46.9620 H   0  0  0  0  0  0  0  0  0  0  0  0
  1  2  1  0
  2  3  1  0
  3  4  2  0
  4  5  1  0
  5  6  2  0
  6  7  1  0
  7  8  2  0
  8  9  1  0
  9 10  2  0
  9 11  1  0
 11 12  1  0
 12 13  2  0
 13 14  1  0
 14 15  2  0
 15 16  1  0
 16 17  2  0
 17 18  1  0
 18 19  1  0
 19 20  1  0
 20 21  1  0
 21 22  1  0
  8  3  1  0
 17 12  1  0
 22 18  1  0
  1 23  1  0
  1 24  1  0
  1 25  1  0
  4 26  1  0
  5 27  1  0
  6 28  1  0
  7 29  1  0
 11 30  1  0
 13 31  1  0
 14 32  1  0
 15 33  1  0
 16 34  1  0
 19 35  1  0
 19 36  1  0
 20 37  1  0
 20 38  1  0
 21 39  1  0
 21 40  1  0
 22 41  1  0
 22 42  1  0
M  END
>  <UniqueID>  (63) 
60

>  <SMILES>  (63) 
COc1ccccc1C(=O)Nc1ccccc1N1CCCC1

>  <Energy>  (63) 
55.60469969314422

>  <Genealogy>  (63) 
COc1ccccc1C(=O)Nc1ccccc1N1CCCC1 (3D coordinates assigned)
COc1ccccc1C(=O)Nc1ccccc1N1CCCC1 (nonaromatic ring conformer: 55.60469969314422 kcal/mol)

>  <smiles>  (63) 
COc1ccccc1C(=O)Nc1ccccc1N1CCCC1

>  <score_type>  (63) 
oracle

>  <origin>  (63) 
adg

>  <m_score__min__energy>  (63) 
-6.6600000000000001

>  <m_primary>  (63) 
energy

$$$$
63:0
     RDKit          3D

 45 48  0  0  0  0  0  0  0  0999 V2000
   54.4300   30.3482   43.8087 H   0  0  0  0  0  0  0  0  0  0  0  0
   55.3900   30.0870   44.2780 C   0  0  0  0  0  0  0  0  0  0  0  0
   55.5350   28.8860   44.8930 N   0  0  0  0  0  0  0  0  0  0  0  0
   56.7040   28.5310   45.4820 C   0  0  0  0  0  0  0  0  0  0  0  0
   57.8210   29.4110   45.4690 C   0  0  0  0  0  0  0  0  0  0  0  0
   59.0350   28.9990   46.0930 C   0  0  0  0  0  0  0  0  0  0  0  0
   59.9048   29.6723   46.0889 H   0  0  0  0  0  0  0  0  0  0  0  0
   59.1320   27.7400   46.7140 C   0  0  0  0  0  0  0  0  0  0  0  0
   60.0663   27.4159   47.1957 H   0  0  0  0  0  0  0  0  0  0  0  0
   58.0100   26.9180   46.7000 C   0  0  0  0  0  0  0  0  0  0  0  0
   57.8900   25.6890   47.2230 N   0  0  0  0  0  0  0  0  0  0  0  0
   56.6060   25.3650   46.9210 C   0  0  0  0  0  0  0  0  0  0  0  0
   56.0030   24.0390   47.2660 C   0  0  0  0  0  0  0  0  0  0  0  0
   55.4325   24.1387   48.2012 H   0  0  0  0  0  0  0  0  0  0  0  0
   56.8183   23.3092   47.3791 H   0  0  0  0  0  0  0  0  0  0  0  0
   55.0630   23.5410   46.1600 C   0  0  0  0  0  0  0  0  0  0  0  0
   54.4046   22.7641   46.5758 H   0  0  0  0  0  0  0  0  0  0  0  0
   55.6802   23.1410   45.3420 H   0  0  0  0  0  0  0  0  0  0  0  0
   54.2370   24.6220   45.6190 N   0  0  0  0  0  0  0  0  0  0  0  0
   54.7660   25.1090   44.8590 H   0  0  0  0  0  0  0  0  0  0  0  0
   53.3520   24.2360   45.2180 H   0  0  0  0  0  0  0  0  0  0  0  0
   54.0140   25.3180   46.3680 H   0  0  0  0  0  0  0  0  0  0  0  0
   55.9290   26.3220   46.2310 N   0  0  0  0  0  0  0  0  0  0  0  0
   56.8440   27.2950   46.1110 C   0  0  0  0  0  0  0  0  0  0  0  0
   57.6920   30.6640   44.8270 C   0  0  0  0  0  0  0  0  0  0  0  0
   58.7180   31.4740   44.7940 N   0  0  0  0  0  0  0  0  0  0  0  0
   58.7760   32.8960   45.1430 C   0  0  0  0  0  0  0  0  0  0  0  0
   59.4965   33.3988   44.4812 H   0  0  0  0  0  0  0  0  0  0  0  0
   57.7711   33.3262   45.0202 H   0  0  0  0  0  0  0  0  0  0  0  0
   59.2140   33.0920   46.6010 C   0  0  0  0  0  0  0  0  0  0  0  0
   58.9276   34.1040   46.9232 H   0  0  0  0  0  0  0  0  0  0  0  0
   58.7169   32.3208   47.2078 H   0  0  0  0  0  0  0  0  0  0  0  0
   60.7000   32.9300   46.7790 C   0  0  0  0  0  0  0  0  0  0  0  0
   61.5740   33.9810   46.4520 C   0  0  0  0  0  0  0  0  0  0  0  0
   61.1748   34.9126   46.0245 H   0  0  0  0  0  0  0  0  0  0  0  0
   62.9490   33.8470   46.6680 C   0  0  0  0  0  0  0  0  0  0  0  0
   63.6288   34.6730   46.4120 H   0  0  0  0  0  0  0  0  0  0  0  0
   63.4600   32.6640   47.2090 C   0  0  0  0  0  0  0  0  0  0  0  0
   64.5420   32.5597   47.3775 H   0  0  0  0  0  0  0  0  0  0  0  0
   62.5990   31.6140   47.5360 C   0  0  0  0  0  0  0  0  0  0  0  0
   63.0034   30.6836   47.9612 H   0  0  0  0  0  0  0  0  0  0  0  0
   61.2220   31.7450   47.3230 C   0  0  0  0  0  0  0  0  0  0  0  0
   60.5461   30.9169   47.5826 H   0  0  0  0  0  0  0  0  0  0  0  0
   56.4510   30.9930   44.2370 C   0  0  0  0  0  0  0  0  0  0  0  0
   56.3205   31.9673   43.7433 H   0  0  0  0  0  0  0  0  0  0  0  0
  1  2  1  0
  2  3  1  0
  3  4  1  0
  4  5  2  0
  5  6  1  0
  6  7  1  0
  6  8  2  0
  8  9  1  0
  8 10  1  0
 10 11  1  0
 11 12  2  0
 12 13  1  0
 13 14  1  0
 13 15  1  0
 13 16  1  0
 16 17  1  0
 16 18  1  0
 16 19  1  0
 19 20  1  0
 19 21  1  0
 19 22  1  0
 12 23  1  0
 23 24  1  0
  5 25  1  0
 25 26  2  0
 26 27  1  0
 27 28  1  0
 27 29  1  0
 27 30  1  0
 30 31  1  0
 30 32  1  0
 30 33  1  0
 33 34  2  0
 34 35  1  0
 34 36  1  0
 36 37  1  0
 36 38  2  0
 38 39  1  0
 38 40  1  0
 40 41  1  0
 40 42  2  0
 42 43  1  0
 25 44  1  0
 44 45  1  0
 44  2  2  0
 24  4  1  0
 42 33  1  0
 24 10  2  0
M  CHG  3   3  -1  19   1  23  -1
M  END
>  <UniqueID>  (64) 
61

>  <SMILES>  (64) 
[NH3+]CCc1nc2ccc3/c(=N/CCc4ccccc4)cc[n-]c3c2[n-]1

>  <Energy>  (64) 
84.20321914139973

>  <Genealogy>  (64) 
[NH3+]CCc1nc2ccc3c(=NCCc4ccccc4)cc[n-]c3c2[n-]1 (protonated)
[NH3+]CCc1nc2ccc3/c(=N/CCc4ccccc4)cc[n-]c3c2[n-]1 (cis-trans isomerization)
[NH3+]CCc1nc2ccc3/c(=N/CCc4ccccc4)cc[n-]c3c2[n-]1 (3D coordinates assigned)
[NH3+]CCc1nc2ccc3/c(=N/CCc4ccccc4)cc[n-]c3c2[n-]1 (optimized conformer: 84.20321914139973 kcal/mol)

>  <smiles>  (64) 
NCCc1nc2ccc3c(=NCCc4ccccc4)cc[nH]c3c2[nH]1

>  <score_type>  (64) 
oracle

>  <origin>  (64) 
adg

>  <m_score__min__energy>  (64) 
-9.9600000000000009

>  <m_primary>  (64) 
energy

$$$$
64:0
     RDKit          3D

 47 49  0  0  1  0  0  0  0  0999 V2000
   56.4590   24.5970   46.8080 C   0  0  0  0  0  0  0  0  0  0  0  0
   57.3490   25.7400   46.3990 C   0  0  0  0  0  0  0  0  0  0  0  0
   57.0030   26.4600   45.2610 C   0  0  0  0  0  0  0  0  0  0  0  0
   57.8390   27.5070   44.9070 C   0  0  0  0  0  0  0  0  0  0  0  0
   57.6010   28.2450   43.8510 N   0  0  0  0  0  0  0  0  0  0  0  0
   56.6300   29.6370   44.0200 S   0  0  0  0  0  0  0  0  0  0  0  0
   55.3500   29.3740   44.7540 O   0  0  0  0  0  0  0  0  0  0  0  0
   56.2650   30.2350   42.6930 O   0  0  0  0  0  0  0  0  0  0  0  0
   57.5300   30.8550   44.8970 C   0  0  0  0  0  0  0  0  0  0  0  0
   57.6020   32.1670   44.4690 C   0  0  0  0  0  0  0  0  0  0  0  0
   58.3360   33.1060   45.2070 C   0  0  0  0  0  0  0  0  0  0  0  0
   59.0020   32.7770   46.3590 C   0  0  0  0  0  0  0  0  0  0  0  0
   59.7580   33.6650   47.1520 N   0  0  0  0  0  0  0  0  0  0  0  0
   60.9480   33.3670   47.8360 C   0  0  0  0  0  0  0  0  0  0  0  0
   61.4910   32.2530   47.8200 O   0  0  0  0  0  0  0  0  0  0  0  0
   61.6140   34.3880   48.6130 N   0  0  0  0  0  0  0  0  0  0  0  0
   62.8200   33.9790   49.2680 C   0  0  0  0  0  0  0  0  0  0  0  0
   63.8840   33.4260   48.5960 C   0  0  0  0  0  0  0  0  0  0  0  0
   64.9940   33.0710   49.3430 C   0  0  0  0  0  0  0  0  0  0  0  0
   65.0620   33.2490   50.7080 C   0  0  0  0  0  0  0  0  0  0  0  0
   66.4520   32.8060   51.6660 Cl  0  0  0  0  0  0  0  0  0  0  0  0
   63.9800   33.8090   51.3820 C   0  0  0  0  0  0  0  0  0  0  0  0
   62.8520   34.1740   50.6430 C   0  0  0  0  0  0  0  0  0  0  0  0
   58.9170   31.4580   46.7690 C   0  0  0  0  0  0  0  0  0  0  0  0
   58.1980   30.5360   46.0470 C   0  0  0  0  0  0  0  0  0  0  0  0
   58.9280   27.7930   45.6500 N   0  0  0  0  0  0  0  0  0  0  0  0
   59.1990   27.0510   46.7410 C   0  0  0  0  0  0  0  0  0  0  0  0
   60.4330   27.4440   47.5060 C   0  0  0  0  0  0  0  0  0  0  0  0
   58.4240   26.0240   47.1320 N   0  0  0  0  0  0  0  0  0  0  0  0
   56.4153   24.5409   47.9057 H   0  0  0  0  0  0  0  0  0  0  0  0
   55.4470   24.7592   46.4086 H   0  0  0  0  0  0  0  0  0  0  0  0
   56.8643   23.6556   46.4086 H   0  0  0  0  0  0  0  0  0  0  0  0
   56.1091   26.2107   44.6704 H   0  0  0  0  0  0  0  0  0  0  0  0
   57.0833   32.4746   43.5491 H   0  0  0  0  0  0  0  0  0  0  0  0
   58.3791   34.1450   44.8485 H   0  0  0  0  0  0  0  0  0  0  0  0
   59.4090   34.6670   47.2570 H   0  0  0  0  0  0  0  0  0  0  0  0
   61.2320   35.3570   48.6850 H   0  0  0  0  0  0  0  0  0  0  0  0
   63.8545   33.2716   47.5073 H   0  0  0  0  0  0  0  0  0  0  0  0
   65.8579   32.6283   48.8256 H   0  0  0  0  0  0  0  0  0  0  0  0
   64.0126   33.9605   52.4710 H   0  0  0  0  0  0  0  0  0  0  0  0
   61.9844   34.6183   51.1528 H   0  0  0  0  0  0  0  0  0  0  0  0
   59.4333   31.1425   47.6876 H   0  0  0  0  0  0  0  0  0  0  0  0
   58.1581   29.4981   46.4091 H   0  0  0  0  0  0  0  0  0  0  0  0
   60.2312   27.3797   48.5854 H   0  0  0  0  0  0  0  0  0  0  0  0
   61.2577   26.7640   47.2460 H   0  0  0  0  0  0  0  0  0  0  0  0
   60.7126   28.4756   47.2460 H   0  0  0  0  0  0  0  0  0  0  0  0
   58.6920   25.4780   48.0020 H   0  0  0  0  0  0  0  0  0  0  0  0
  1  2  1  0
  2  3  2  0
  3  4  1  0
  4  5  2  0
  5  6  1  0
  6  7  2  0
  6  8  2  0
  6  9  1  0
  9 10  2  0
 10 11  1  0
 11 12  2  0
 12 13  1  0
 13 14  1  0
 14 15  2  0
 14 16  1  0
 16 17  1  0
 17 18  2  0
 18 19  1  0
 19 20  2  0
 20 21  1  0
 20 22  1  0
 22 23  2  0
 12 24  1  0
 24 25  2  0
  4 26  1  0
 26 27  2  0
 27 28  1  0
 27 29  1  0
 29  2  1  0
 25  9  1  0
 23 17  1  0
  1 30  1  0
  1 31  1  0
  1 32  1  0
  3 33  1  0
 10 34  1  0
 11 35  1  0
 13 36  1  0
 16 37  1  0
 18 38  1  0
 19 39  1  0
 22 40  1  0
 23 41  1  0
 24 42  1  0
 25 43  1  0
 28 44  1  0
 28 45  1  0
 28 46  1  0
 29 47  1  0
M  END
>  <smiles>  (65) 
Cc1cc(=NS(=O)(=O)c2ccc(NC(=O)Nc3ccc(Cl)cc3)cc2)nc(C)[nH]1

>  <score_type>  (65) 
oracle

>  <origin>  (65) 
adg

>  <m_score__min__energy>  (65) 
-8.5999999999999996

>  <m_primary>  (65) 
energy

$$$$
65:0
     RDKit          3D

 42 44  0  0  0  0  0  0  0  0999 V2000
   63.3640   33.4710   46.7930 C   0  0  0  0  0  0  0  0  0  0  0  0
   62.9240   32.4740   47.8590 C   0  0  0  0  0  0  0  0  0  0  0  0
   61.4630   32.4990   48.0200 N   0  0  0  0  0  0  0  0  0  0  0  0
   60.8810   33.2690   49.1330 C   0  0  0  0  0  0  0  0  0  0  0  0
   60.1190   34.4880   48.6170 C   0  0  0  0  0  0  0  0  0  0  0  0
   60.6370   31.7460   47.1010 C   0  0  0  0  0  0  0  0  0  0  0  0
   61.1590   30.8200   46.4200 O   0  0  0  0  0  0  0  0  0  0  0  0
   59.2320   32.0260   46.9530 N   0  0  0  0  0  0  0  0  0  0  0  0
   58.4010   31.3800   45.9730 C   0  0  0  0  0  0  0  0  0  0  0  0
   58.2190   29.9860   46.0000 C   0  0  0  0  0  0  0  0  0  0  0  0
   57.4290   29.3460   45.0310 C   0  0  0  0  0  0  0  0  0  0  0  0
   57.2430   27.8800   45.0760 C   0  0  0  0  0  0  0  0  0  0  0  0
   57.8560   27.0190   44.2180 N   0  0  0  0  0  0  0  0  0  0  0  0
   57.3920   25.8290   44.6340 C   0  0  0  0  0  0  0  0  0  0  0  0
   57.6850   24.5680   44.1190 C   0  0  0  0  0  0  0  0  0  0  0  0
   57.0690   23.4560   44.7270 C   0  0  0  0  0  0  0  0  0  0  0  0
   57.3960   21.8410   44.1260 Cl  0  0  0  0  0  0  0  0  0  0  0  0
   56.1890   23.6360   45.8220 C   0  0  0  0  0  0  0  0  0  0  0  0
   55.9200   24.9270   46.3150 C   0  0  0  0  0  0  0  0  0  0  0  0
   56.5460   25.9980   45.6860 C   0  0  0  0  0  0  0  0  0  0  0  0
   56.4590   27.2730   45.9530 O   0  0  0  0  0  0  0  0  0  0  0  0
   56.8290   30.1120   44.0210 C   0  0  0  0  0  0  0  0  0  0  0  0
   57.0190   31.4940   43.9770 C   0  0  0  0  0  0  0  0  0  0  0  0
   57.8050   32.1310   44.9420 C   0  0  0  0  0  0  0  0  0  0  0  0
   57.9970   33.8780   44.8600 Cl  0  0  0  0  0  0  0  0  0  0  0  0
   63.7626   34.3743   47.2780 H   0  0  0  0  0  0  0  0  0  0  0  0
   64.1451   33.0164   46.1659 H   0  0  0  0  0  0  0  0  0  0  0  0
   62.5017   33.7417   46.1659 H   0  0  0  0  0  0  0  0  0  0  0  0
   63.2374   31.4630   47.5596 H   0  0  0  0  0  0  0  0  0  0  0  0
   63.3908   32.7495   48.8162 H   0  0  0  0  0  0  0  0  0  0  0  0
   60.1891   32.6234   49.6938 H   0  0  0  0  0  0  0  0  0  0  0  0
   61.6976   33.6161   49.7832 H   0  0  0  0  0  0  0  0  0  0  0  0
   59.7504   35.0777   49.4692 H   0  0  0  0  0  0  0  0  0  0  0  0
   60.7905   35.1082   48.0051 H   0  0  0  0  0  0  0  0  0  0  0  0
   59.2673   34.1560   48.0051 H   0  0  0  0  0  0  0  0  0  0  0  0
   58.7640   32.6850   47.6120 H   0  0  0  0  0  0  0  0  0  0  0  0
   58.7008   29.3899   46.7890 H   0  0  0  0  0  0  0  0  0  0  0  0
   58.3721   24.4450   43.2688 H   0  0  0  0  0  0  0  0  0  0  0  0
   55.7128   22.7618   46.2901 H   0  0  0  0  0  0  0  0  0  0  0  0
   55.2403   25.0828   47.1657 H   0  0  0  0  0  0  0  0  0  0  0  0
   56.2053   29.6210   43.2595 H   0  0  0  0  0  0  0  0  0  0  0  0
   56.5476   32.0855   43.1784 H   0  0  0  0  0  0  0  0  0  0  0  0
  1  2  1  0
  2  3  1  0
  3  4  1  0
  4  5  1  0
  3  6  1  0
  6  7  2  0
  6  8  1  0
  8  9  1  0
  9 10  2  0
 10 11  1  0
 11 12  1  0
 12 13  2  0
 13 14  1  0
 14 15  2  0
 15 16  1  0
 16 17  1  0
 16 18  2  0
 18 19  1  0
 19 20  2  0
 20 21  1  0
 11 22  2  0
 22 23  1  0
 23 24  2  0
 24 25  1  0
 24  9  1  0
 21 12  1  0
 20 14  1  0
  1 26  1  0
  1 27  1  0
  1 28  1  0
  2 29  1  0
  2 30  1  0
  4 31  1  0
  4 32  1  0
  5 33  1  0
  5 34  1  0
  5 35  1  0
  8 36  1  0
 10 37  1  0
 15 38  1  0
 18 39  1  0
 19 40  1  0
 22 41  1  0
 23 42  1  0
M  END
>  <UniqueID>  (66) 
62

>  <SMILES>  (66) 
CCN(CC)C(=O)Nc1cc(-c2nc3cc(Cl)ccc3o2)ccc1Cl

>  <Energy>  (66) 
80.69372229801112

>  <Genealogy>  (66) 
CCN(CC)C(=O)Nc1cc(-c2nc3cc(Cl)ccc3o2)ccc1Cl (3D coordinates assigned)
CCN(CC)C(=O)Nc1cc(-c2nc3cc(Cl)ccc3o2)ccc1Cl (optimized conformer: 80.69372229801112 kcal/mol)

>  <smiles>  (66) 
CCN(CC)C(=O)Nc1cc(-c2nc3cc(Cl)ccc3o2)ccc1Cl

>  <score_type>  (66) 
oracle

>  <origin>  (66) 
adg

>  <m_score__min__energy>  (66) 
-7.4400000000000004

>  <m_primary>  (66) 
energy

$$$$
66:0
     RDKit          3D

 43 44  0  0  0  0  0  0  0  0999 V2000
   56.1780   23.1270   42.9970 C   0  0  0  0  0  0  0  0  0  0  0  0
   56.1460   21.7200   42.9050 O   0  0  0  0  0  0  0  0  0  0  0  0
   56.9620   21.1390   43.9050 C   0  0  0  0  0  0  0  0  0  0  0  0
   56.3560   21.3950   45.2910 C   0  0  0  0  0  0  0  0  0  0  0  0
   57.4310   21.5030   46.3800 C   0  0  0  0  0  0  0  0  0  0  0  0
   57.4020   22.8110   47.0320 N   0  0  0  0  0  0  0  0  0  0  0  0
   56.9010   24.0170   46.4440 C   0  0  0  0  0  0  0  0  0  0  0  0
   55.8250   24.5030   46.8850 O   0  0  0  0  0  0  0  0  0  0  0  0
   57.5790   24.6490   45.3460 N   0  0  0  0  0  0  0  0  0  0  0  0
   57.4000   26.0280   44.9820 C   0  0  0  0  0  0  0  0  0  0  0  0
   56.7880   26.9450   45.8560 C   0  0  0  0  0  0  0  0  0  0  0  0
   56.6530   28.2870   45.4910 C   0  0  0  0  0  0  0  0  0  0  0  0
   57.1390   28.7340   44.2550 C   0  0  0  0  0  0  0  0  0  0  0  0
   57.0010   30.4290   43.7930 S   0  0  0  0  0  0  0  0  0  0  0  0
   55.8730   31.0940   44.5300 O   0  0  0  0  0  0  0  0  0  0  0  0
   56.7350   30.5110   42.3170 O   0  0  0  0  0  0  0  0  0  0  0  0
   58.4830   31.2560   44.1560 N   0  0  0  0  0  0  0  0  0  0  0  0
   58.5760   32.2280   45.0140 C   0  0  0  0  0  0  0  0  0  0  0  0
   58.7110   33.5430   44.5550 C   0  0  0  0  0  0  0  0  0  0  0  0
   58.8180   34.5850   45.4800 C   0  0  0  0  0  0  0  0  0  0  0  0
   58.7890   34.3040   46.8470 C   0  0  0  0  0  0  0  0  0  0  0  0
   58.8930   35.3070   47.7540 F   0  0  0  0  0  0  0  0  0  0  0  0
   58.6510   32.9810   47.2710 C   0  0  0  0  0  0  0  0  0  0  0  0
   58.5480   31.9820   46.3550 N   0  0  0  0  0  0  0  0  0  0  0  0
   57.7660   27.8300   43.3910 C   0  0  0  0  0  0  0  0  0  0  0  0
   57.9020   26.4870   43.7550 C   0  0  0  0  0  0  0  0  0  0  0  0
   56.1848   23.4252   44.0558 H   0  0  0  0  0  0  0  0  0  0  0  0
   57.0850   23.5062   42.5035 H   0  0  0  0  0  0  0  0  0  0  0  0
   55.2892   23.5470   42.5035 H   0  0  0  0  0  0  0  0  0  0  0  0
   57.0327   20.0548   43.7330 H   0  0  0  0  0  0  0  0  0  0  0  0
   57.9643   21.5900   43.8602 H   0  0  0  0  0  0  0  0  0  0  0  0
   55.7861   22.3354   45.2607 H   0  0  0  0  0  0  0  0  0  0  0  0
   55.7067   20.5425   45.5394 H   0  0  0  0  0  0  0  0  0  0  0  0
   57.2547   20.7229   47.1352 H   0  0  0  0  0  0  0  0  0  0  0  0
   58.4159   21.3742   45.9074 H   0  0  0  0  0  0  0  0  0  0  0  0
   58.1810   24.0580   44.7300 H   0  0  0  0  0  0  0  0  0  0  0  0
   56.4136   26.6035   46.8323 H   0  0  0  0  0  0  0  0  0  0  0  0
   56.1636   28.9949   46.1761 H   0  0  0  0  0  0  0  0  0  0  0  0
   58.7327   33.7546   43.4758 H   0  0  0  0  0  0  0  0  0  0  0  0
   58.9247   35.6231   45.1321 H   0  0  0  0  0  0  0  0  0  0  0  0
   58.6256   32.7472   48.3456 H   0  0  0  0  0  0  0  0  0  0  0  0
   58.1534   28.1770   42.4217 H   0  0  0  0  0  0  0  0  0  0  0  0
   58.4062   25.7852   43.0744 H   0  0  0  0  0  0  0  0  0  0  0  0
  1  2  1  0
  2  3  1  0
  3  4  1  0
  4  5  1  0
  5  6  1  0
  6  7  1  0
  7  8  2  0
  7  9  1  0
  9 10  1  0
 10 11  2  0
 11 12  1  0
 12 13  2  0
 13 14  1  0
 14 15  2  0
 14 16  2  0
 14 17  1  0
 17 18  2  3
 18 19  1  0
 19 20  2  0
 20 21  1  0
 21 22  1  0
 21 23  2  0
 23 24  1  0
 13 25  1  0
 25 26  2  0
 26 10  1  0
 24 18  1  0
  1 27  1  0
  1 28  1  0
  1 29  1  0
  3 30  1  0
  3 31  1  0
  4 32  1  0
  4 33  1  0
  5 34  1  0
  5 35  1  0
  9 36  1  0
 11 37  1  0
 12 38  1  0
 19 39  1  0
 20 40  1  0
 23 41  1  0
 25 42  1  0
 26 43  1  0
M  CHG  2   6  -1  24  -1
M  END
>  <UniqueID>  (67) 
63

>  <SMILES>  (67) 
COCCC[N-]C(=O)Nc1ccc(S(=O)(=O)N=c2ccc(F)c[n-]2)cc1

>  <Energy>  (67) 
46.94093962279258

>  <Genealogy>  (67) 
COCCC[N-]C(=O)Nc1ccc(S(=O)(=O)N=c2ccc(F)c[n-]2)cc1 (protonated)
COCCC[N-]C(=O)Nc1ccc(S(=O)(=O)N=c2ccc(F)c[n-]2)cc1 (3D coordinates assigned)
COCCC[N-]C(=O)Nc1ccc(S(=O)(=O)N=c2ccc(F)c[n-]2)cc1 (optimized conformer: 46.94093962279258 kcal/mol)

>  <smiles>  (67) 
COCCCNC(=O)Nc1ccc(S(=O)(=O)N=c2ccc(F)c[nH]2)cc1

>  <score_type>  (67) 
oracle

>  <origin>  (67) 
adg

>  <m_score__min__energy>  (67) 
-10.470000000000001

>  <m_primary>  (67) 
energy

$$$$
67:0
     RDKit          3D

 55 58  0  0  0  0  0  0  0  0999 V2000
   61.1284   30.9760   51.8713 H   0  0  0  0  0  0  0  0  0  0  0  0
   60.5420   31.2720   50.9890 C   0  0  0  0  0  0  0  0  0  0  0  0
   59.2100   31.0620   51.0320 C   0  0  0  0  0  0  0  0  0  0  0  0
   58.2290   32.1470   51.2700 C   0  0  0  0  0  0  0  0  0  0  0  0
   56.9960   31.8830   51.2770 O   0  0  0  0  0  0  0  0  0  0  0  0
   58.6640   33.4680   51.4290 O   0  0  0  0  0  0  0  0  0  0  0  0
   58.5410   34.1750   52.6560 C   0  0  0  0  0  0  0  0  0  0  0  0
   58.6627   33.4754   53.4961 H   0  0  0  0  0  0  0  0  0  0  0  0
   59.3174   34.9523   52.7107 H   0  0  0  0  0  0  0  0  0  0  0  0
   57.5477   34.6444   52.7107 H   0  0  0  0  0  0  0  0  0  0  0  0
   58.6860   29.6710   50.7920 C   0  0  0  0  0  0  0  0  0  0  0  0
   59.4048   28.9367   51.1846 H   0  0  0  0  0  0  0  0  0  0  0  0
   57.7197   29.5524   51.3041 H   0  0  0  0  0  0  0  0  0  0  0  0
   58.5040   29.4540   49.3600 N   0  0  0  0  0  0  0  0  0  0  0  0
   59.3120   28.5700   48.5700 C   0  0  0  0  0  0  0  0  0  0  0  0
   60.0010   27.6890   49.1500 O   0  0  0  0  0  0  0  0  0  0  0  0
   59.3150   28.6350   47.0970 C   0  0  0  0  0  0  0  0  0  0  0  0
   60.4860   28.3400   46.3830 C   0  0  0  0  0  0  0  0  0  0  0  0
   61.4251   28.1500   46.9234 H   0  0  0  0  0  0  0  0  0  0  0  0
   60.4620   28.2870   44.9860 C   0  0  0  0  0  0  0  0  0  0  0  0
   61.3821   28.0562   44.4292 H   0  0  0  0  0  0  0  0  0  0  0  0
   59.2700   28.5270   44.2960 C   0  0  0  0  0  0  0  0  0  0  0  0
   59.2461   28.4537   43.1987 H   0  0  0  0  0  0  0  0  0  0  0  0
   58.1050   28.8610   45.0010 C   0  0  0  0  0  0  0  0  0  0  0  0
   56.8600   29.0420   44.3160 N   0  0  0  0  0  0  0  0  0  0  0  0
   56.3220   28.1890   44.0420 H   0  0  0  0  0  0  0  0  0  0  0  0
   56.6080   30.2600   43.5510 C   0  0  0  0  0  0  0  0  0  0  0  0
   57.0730   30.1721   42.5580 H   0  0  0  0  0  0  0  0  0  0  0  0
   55.5234   30.4032   43.4367 H   0  0  0  0  0  0  0  0  0  0  0  0
   57.1930   31.4340   44.2740 C   0  0  0  0  0  0  0  0  0  0  0  0
   57.0700   31.6020   45.6180 N   0  0  0  0  0  0  0  0  0  0  0  0
   57.8310   32.6810   45.8460 C   0  0  0  0  0  0  0  0  0  0  0  0
   58.0860   33.3030   47.0660 C   0  0  0  0  0  0  0  0  0  0  0  0
   57.6316   32.9361   47.9981 H   0  0  0  0  0  0  0  0  0  0  0  0
   58.9460   34.4180   47.0640 C   0  0  0  0  0  0  0  0  0  0  0  0
   59.1648   34.9413   48.0065 H   0  0  0  0  0  0  0  0  0  0  0  0
   59.5300   34.8690   45.8580 C   0  0  0  0  0  0  0  0  0  0  0  0
   60.2028   35.7392   45.8672 H   0  0  0  0  0  0  0  0  0  0  0  0
   59.2540   34.2090   44.6450 C   0  0  0  0  0  0  0  0  0  0  0  0
   59.7051   34.5442   43.6994 H   0  0  0  0  0  0  0  0  0  0  0  0
   58.3900   33.1170   44.6840 C   0  0  0  0  0  0  0  0  0  0  0  0
   58.0080   32.3360   43.6640 N   0  0  0  0  0  0  0  0  0  0  0  0
   58.1410   28.9440   46.3980 C   0  0  0  0  0  0  0  0  0  0  0  0
   57.2416   29.2539   46.9504 H   0  0  0  0  0  0  0  0  0  0  0  0
   61.2780   31.8670   49.8540 C   0  0  0  0  0  0  0  0  0  0  0  0
   61.7270   33.1920   49.9490 C   0  0  0  0  0  0  0  0  0  0  0  0
   61.5632   33.7608   50.8762 H   0  0  0  0  0  0  0  0  0  0  0  0
   62.3820   33.7930   48.8700 C   0  0  0  0  0  0  0  0  0  0  0  0
   62.7448   34.8279   48.9554 H   0  0  0  0  0  0  0  0  0  0  0  0
   62.5770   33.0800   47.6810 C   0  0  0  0  0  0  0  0  0  0  0  0
   63.3940   33.8390   46.3270 Cl  0  0  0  0  0  0  0  0  0  0  0  0
   62.1090   31.7680   47.5690 C   0  0  0  0  0  0  0  0  0  0  0  0
   62.2583   31.2088   46.6336 H   0  0  0  0  0  0  0  0  0  0  0  0
   61.4510   31.1660   48.6460 C   0  0  0  0  0  0  0  0  0  0  0  0
   61.0669   30.1399   48.5486 H   0  0  0  0  0  0  0  0  0  0  0  0
  1  2  1  0
  2  3  2  0
  3  4  1  0
  4  5  2  0
  4  6  1  0
  6  7  1  0
  7  8  1  0
  7  9  1  0
  7 10  1  0
  3 11  1  0
 11 12  1  0
 11 13  1  0
 11 14  1  0
 14 15  1  0
 15 16  2  0
 15 17  1  0
 17 18  2  0
 18 19  1  0
 18 20  1  0
 20 21  1  0
 20 22  2  0
 22 23  1  0
 22 24  1  0
 24 25  1  0
 25 26  1  0
 25 27  1  0
 27 28  1  0
 27 29  1  0
 27 30  1  0
 30 31  2  0
 31 32  1  0
 32 33  2  0
 33 34  1  0
 33 35  1  0
 35 36  1  0
 35 37  2  0
 37 38  1  0
 37 39  1  0
 39 40  1  0
 39 41  2  0
 41 42  1  0
 24 43  2  0
 43 44  1  0
  2 45  1  0
 45 46  2  0
 46 47  1  0
 46 48  1  0
 48 49  1  0
 48 50  2  0
 50 51  1  0
 50 52  1  0
 52 53  1  0
 52 54  2  0
 54 55  1  0
 43 17  1  0
 54 45  1  0
 42 30  1  0
 41 32  1  0
M  CHG  2  14  -1  42  -1
M  END
>  <UniqueID>  (68) 
64

>  <SMILES>  (68) 
COC(=O)/C(=C\c1ccc(Cl)cc1)C[N-]C(=O)c1cccc(NCc2nc3ccccc3[n-]2)c1

>  <Energy>  (68) 
98.45395743319683

>  <Genealogy>  (68) 
COC(=O)C(=Cc1ccc(Cl)cc1)C[N-]C(=O)c1cccc(NCc2nc3ccccc3[n-]2)c1 (protonated)
COC(=O)/C(=C\c1ccc(Cl)cc1)C[N-]C(=O)c1cccc(NCc2nc3ccccc3[n-]2)c1 (cis-trans isomerization)
COC(=O)/C(=C\c1ccc(Cl)cc1)C[N-]C(=O)c1cccc(NCc2nc3ccccc3[n-]2)c1 (3D coordinates assigned)
COC(=O)/C(=C\c1ccc(Cl)cc1)C[N-]C(=O)c1cccc(NCc2nc3ccccc3[n-]2)c1 (optimized conformer: 98.45395743319683 kcal/mol)

>  <smiles>  (68) 
COC(=O)C(=Cc1ccc(Cl)cc1)CNC(=O)c1cccc(NCc2nc3ccccc3[nH]2)c1

>  <score_type>  (68) 
oracle

>  <origin>  (68) 
adg

>  <m_score__min__energy>  (68) 
-12.32

>  <m_primary>  (68) 
energy

$$$$
68:0
     RDKit          3D

 39 40  0  0  0  0  0  0  0  0999 V2000
   57.7280   31.5030   43.2220 C   0  0  0  0  0  0  0  0  0  0  0  0
   56.7390   31.5620   44.3470 C   0  0  0  0  0  0  0  0  0  0  0  0
   55.9040   30.6290   44.4750 O   0  0  0  0  0  0  0  0  0  0  0  0
   56.6920   32.6690   45.2580 N   0  0  0  0  0  0  0  0  0  0  0  0
   57.7570   33.1050   46.1140 C   0  0  0  0  0  0  0  0  0  0  0  0
   57.7950   32.7540   47.4740 C   0  0  0  0  0  0  0  0  0  0  0  0
   58.8410   33.2000   48.2860 C   0  0  0  0  0  0  0  0  0  0  0  0
   59.8570   33.9970   47.7460 C   0  0  0  0  0  0  0  0  0  0  0  0
   61.2400   34.4980   48.7790 S   0  0  0  0  0  0  0  0  0  0  0  0
   61.9090   32.8080   48.9940 C   0  0  0  0  0  0  0  0  0  0  0  0
   61.9450   32.0680   47.6940 C   0  0  0  0  0  0  0  0  0  0  0  0
   62.1800   32.6930   46.6250 O   0  0  0  0  0  0  0  0  0  0  0  0
   61.6950   30.6580   47.6830 N   0  0  0  0  0  0  0  0  0  0  0  0
   60.6640   29.9740   46.9560 C   0  0  0  0  0  0  0  0  0  0  0  0
   59.3530   29.8550   47.4510 C   0  0  0  0  0  0  0  0  0  0  0  0
   58.3640   29.2310   46.6860 C   0  0  0  0  0  0  0  0  0  0  0  0
   58.6710   28.7180   45.4190 C   0  0  0  0  0  0  0  0  0  0  0  0
   57.4260   27.9400   44.4470 S   0  0  0  0  0  0  0  0  0  0  0  0
   55.9010   28.0620   45.2510 N   0  0  0  0  0  0  0  0  0  0  0  0
   57.3410   28.6140   43.1050 O   0  0  0  0  0  0  0  0  0  0  0  0
   57.7680   26.4910   44.2380 O   0  0  0  0  0  0  0  0  0  0  0  0
   59.9700   28.8550   44.9150 C   0  0  0  0  0  0  0  0  0  0  0  0
   60.9570   29.4860   45.6770 C   0  0  0  0  0  0  0  0  0  0  0  0
   59.7960   34.3910   46.4050 C   0  0  0  0  0  0  0  0  0  0  0  0
   58.7430   33.9530   45.5950 C   0  0  0  0  0  0  0  0  0  0  0  0
   58.7468   31.4422   43.6323 H   0  0  0  0  0  0  0  0  0  0  0  0
   57.5280   30.6152   42.6041 H   0  0  0  0  0  0  0  0  0  0  0  0
   57.6349   32.4083   42.6041 H   0  0  0  0  0  0  0  0  0  0  0  0
   56.9989   32.1262   47.9007 H   0  0  0  0  0  0  0  0  0  0  0  0
   58.8660   32.9245   49.3506 H   0  0  0  0  0  0  0  0  0  0  0  0
   62.9306   32.8755   49.3963 H   0  0  0  0  0  0  0  0  0  0  0  0
   61.2532   32.2606   49.6870 H   0  0  0  0  0  0  0  0  0  0  0  0
   59.1049   30.2551   48.4452 H   0  0  0  0  0  0  0  0  0  0  0  0
   57.3408   29.1423   47.0800 H   0  0  0  0  0  0  0  0  0  0  0  0
   55.2560   28.5730   44.6070 H   0  0  0  0  0  0  0  0  0  0  0  0
   60.2145   28.4647   43.9160 H   0  0  0  0  0  0  0  0  0  0  0  0
   61.9720   29.6001   45.2686 H   0  0  0  0  0  0  0  0  0  0  0  0
   60.5758   35.0450   45.9877 H   0  0  0  0  0  0  0  0  0  0  0  0
   58.6893   34.2764   44.5450 H   0  0  0  0  0  0  0  0  0  0  0  0
  1  2  1  0
  2  3  2  0
  2  4  1  0
  4  5  1  0
  5  6  2  0
  6  7  1  0
  7  8  2  0
  8  9  1  0
  9 10  1  0
 10 11  1  0
 11 12  2  0
 11 13  1  0
 13 14  1  0
 14 15  2  0
 15 16  1  0
 16 17  2  0
 17 18  1  0
 18 19  1  0
 18 20  2  0
 18 21  2  0
 17 22  1  0
 22 23  2  0
  8 24  1  0
 24 25  2  0
 25  5  1  0
 23 14  1  0
  1 26  1  0
  1 27  1  0
  1 28  1  0
  6 29  1  0
  7 30  1  0
 10 31  1  0
 10 32  1  0
 15 33  1  0
 16 34  1  0
 19 35  1  0
 22 36  1  0
 23 37  1  0
 24 38  1  0
 25 39  1  0
M  CHG  3   4  -1  13  -1  19  -1
M  END
>  <UniqueID>  (69) 
65

>  <SMILES>  (69) 
CC(=O)[N-]c1ccc(SCC(=O)[N-]c2ccc(S([NH-])(=O)=O)cc2)cc1

>  <Energy>  (69) 
36.318649960228925

>  <Genealogy>  (69) 
CC(=O)[N-]c1ccc(SCC(=O)[N-]c2ccc(S([NH-])(=O)=O)cc2)cc1 (protonated)
CC(=O)[N-]c1ccc(SCC(=O)[N-]c2ccc(S([NH-])(=O)=O)cc2)cc1 (3D coordinates assigned)
CC(=O)[N-]c1ccc(SCC(=O)[N-]c2ccc(S([NH-])(=O)=O)cc2)cc1 (optimized conformer: 36.318649960228925 kcal/mol)

>  <smiles>  (69) 
CC(=O)Nc1ccc(SCC(=O)Nc2ccc(S(N)(=O)=O)cc2)cc1

>  <score_type>  (69) 
oracle

>  <origin>  (69) 
adg

>  <m_score__min__energy>  (69) 
-12.92

>  <m_primary>  (69) 
energy

$$$$
69:0
     RDKit          3D

 50 52  0  0  0  0  0  0  0  0999 V2000
   63.3760   32.0210   47.4630 C   0  0  0  0  0  0  0  0  0  0  0  0
   63.3750   33.4280   47.3810 O   0  0  0  0  0  0  0  0  0  0  0  0
   62.3800   33.8460   46.4690 C   0  0  0  0  0  0  0  0  0  0  0  0
   61.0690   34.1090   47.2170 C   0  0  0  0  0  0  0  0  0  0  0  0
   59.8590   34.1960   46.2750 C   0  0  0  0  0  0  0  0  0  0  0  0
   59.3620   32.8480   45.9280 N   0  0  0  0  0  0  0  0  0  0  0  0
   59.3920   31.9500   47.1000 C   0  0  0  0  0  0  0  0  0  0  0  0
   58.7600   30.5790   46.8630 C   0  0  0  0  0  0  0  0  0  0  0  0
   58.7690   29.7370   47.9200 C   0  0  0  0  0  0  0  0  0  0  0  0
   59.9470   29.0130   48.4310 C   0  0  0  0  0  0  0  0  0  0  0  0
   61.0050   29.6410   48.7090 O   0  0  0  0  0  0  0  0  0  0  0  0
   59.9220   27.5790   48.4550 N   0  0  0  0  0  0  0  0  0  0  0  0
   59.3630   26.7700   47.5970 C   0  0  0  0  0  0  0  0  0  0  0  0
   57.9630   26.6330   47.4750 C   0  0  0  0  0  0  0  0  0  0  0  0
   57.4250   25.7530   46.5180 C   0  0  0  0  0  0  0  0  0  0  0  0
   55.9580   25.5960   46.3720 C   0  0  0  0  0  0  0  0  0  0  0  0
   55.1400   26.7100   46.0180 N   0  0  0  0  0  0  0  0  0  0  0  0
   55.4180   24.4730   46.5610 O   0  0  0  0  0  0  0  0  0  0  0  0
   58.3030   25.0320   45.6940 C   0  0  0  0  0  0  0  0  0  0  0  0
   59.6790   25.2070   45.8280 C   0  0  0  0  0  0  0  0  0  0  0  0
   60.1690   26.0640   46.7620 N   0  0  0  0  0  0  0  0  0  0  0  0
   58.0670   30.2510   45.5700 C   0  0  0  0  0  0  0  0  0  0  0  0
   58.0740   28.9450   45.0370 C   0  0  0  0  0  0  0  0  0  0  0  0
   57.3690   28.6510   43.8660 C   0  0  0  0  0  0  0  0  0  0  0  0
   56.6800   29.6590   43.1910 C   0  0  0  0  0  0  0  0  0  0  0  0
   56.7280   30.9730   43.6610 C   0  0  0  0  0  0  0  0  0  0  0  0
   57.4340   31.2690   44.8340 C   0  0  0  0  0  0  0  0  0  0  0  0
   57.7410   32.9180   45.2990 S   0  0  0  0  0  0  0  0  0  0  0  0
   56.7640   33.3660   46.3510 O   0  0  0  0  0  0  0  0  0  0  0  0
   57.6740   33.8290   44.1050 O   0  0  0  0  0  0  0  0  0  0  0  0
   63.3762   31.7153   48.5197 H   0  0  0  0  0  0  0  0  0  0  0  0
   62.4781   31.6241   46.9667 H   0  0  0  0  0  0  0  0  0  0  0  0
   64.2744   31.6254   46.9667 H   0  0  0  0  0  0  0  0  0  0  0  0
   62.7072   34.7698   45.9694 H   0  0  0  0  0  0  0  0  0  0  0  0
   62.2190   33.0569   45.7197 H   0  0  0  0  0  0  0  0  0  0  0  0
   60.9008   33.2901   47.9319 H   0  0  0  0  0  0  0  0  0  0  0  0
   61.1650   35.0790   47.7267 H   0  0  0  0  0  0  0  0  0  0  0  0
   59.0554   34.7591   46.7722 H   0  0  0  0  0  0  0  0  0  0  0  0
   60.1696   34.7046   45.3504 H   0  0  0  0  0  0  0  0  0  0  0  0
   60.4421   31.7989   47.3905 H   0  0  0  0  0  0  0  0  0  0  0  0
   58.7954   32.4386   47.8844 H   0  0  0  0  0  0  0  0  0  0  0  0
   57.8151   29.5782   48.4442 H   0  0  0  0  0  0  0  0  0  0  0  0
   57.2939   27.2134   48.1272 H   0  0  0  0  0  0  0  0  0  0  0  0
   54.4410   27.0980   46.6890 H   0  0  0  0  0  0  0  0  0  0  0  0
   57.9063   24.3310   44.9448 H   0  0  0  0  0  0  0  0  0  0  0  0
   60.3694   24.6508   45.1769 H   0  0  0  0  0  0  0  0  0  0  0  0
   58.6391   28.1510   45.5471 H   0  0  0  0  0  0  0  0  0  0  0  0
   57.3575   27.6225   43.4760 H   0  0  0  0  0  0  0  0  0  0  0  0
   56.0989   29.4186   42.2885 H   0  0  0  0  0  0  0  0  0  0  0  0
   56.2124   31.7741   43.1111 H   0  0  0  0  0  0  0  0  0  0  0  0
  1  2  1  0
  2  3  1  0
  3  4  1  0
  4  5  1  0
  5  6  1  0
  6  7  1  0
  7  8  1  0
  8  9  2  3
  9 10  1  0
 10 11  2  0
 10 12  1  0
 12 13  2  3
 13 14  1  0
 14 15  2  0
 15 16  1  0
 16 17  1  0
 16 18  2  0
 15 19  1  0
 19 20  2  0
 20 21  1  0
  8 22  1  0
 22 23  2  0
 23 24  1  0
 24 25  2  0
 25 26  1  0
 26 27  2  0
 27 28  1  0
 28 29  2  0
 28 30  2  0
 28  6  1  0
 21 13  1  0
 27 22  1  0
  1 31  1  0
  1 32  1  0
  1 33  1  0
  3 34  1  0
  3 35  1  0
  4 36  1  0
  4 37  1  0
  5 38  1  0
  5 39  1  0
  7 40  1  0
  7 41  1  0
  9 42  1  0
 14 43  1  0
 17 44  1  0
 19 45  1  0
 20 46  1  0
 23 47  1  0
 24 48  1  0
 25 49  1  0
 26 50  1  0
M  CHG  2  17  -1  21  -1
M  END
>  <UniqueID>  (70) 
66

>  <SMILES>  (70) 
COCCCN1CC(=CC(=O)N=c2cc(C([NH-])=O)cc[n-]2)c2ccccc2S1(=O)=O

>  <Energy>  (70) 
75.55696123426442

>  <Genealogy>  (70) 
COCCCN1CC(=CC(=O)N=c2cc(C([NH-])=O)cc[n-]2)c2ccccc2S1(=O)=O (protonated)
COCCCN1CC(=CC(=O)N=c2cc(C([NH-])=O)cc[n-]2)c2ccccc2S1(=O)=O (3D coordinates assigned)
COCCCN1CC(=CC(=O)N=c2cc(C([NH-])=O)cc[n-]2)c2ccccc2S1(=O)=O (nonaromatic ring conformer: 75.55696123426442 kcal/mol)

>  <smiles>  (70) 
COCCCN1CC(=CC(=O)N=c2cc(C(N)=O)cc[nH]2)c2ccccc2S1(=O)=O

>  <score_type>  (70) 
oracle

>  <origin>  (70) 
adg

>  <m_score__min__energy>  (70) 
-13.24

>  <m_primary>  (70) 
energy

$$$$
70:0
     RDKit          3D

 34 36  0  0  0  0  0  0  0  0999 V2000
   61.4210   31.1750   49.1691 H   0  0  0  0  0  0  0  0  0  0  0  0
   60.8860   30.6220   48.3830 C   0  0  0  0  0  0  0  0  0  0  0  0
   59.8760   29.7740   48.7160 N   0  0  0  0  0  0  0  0  0  0  0  0
   59.1880   29.0780   47.7720 C   0  0  0  0  0  0  0  0  0  0  0  0
   58.3815   28.3944   48.0757 H   0  0  0  0  0  0  0  0  0  0  0  0
   59.5010   29.2270   46.4150 C   0  0  0  0  0  0  0  0  0  0  0  0
   58.7440   28.5220   45.4660 O   0  0  0  0  0  0  0  0  0  0  0  0
   57.7910   27.5510   45.7880 C   0  0  0  0  0  0  0  0  0  0  0  0
   58.2490   26.3190   46.2670 C   0  0  0  0  0  0  0  0  0  0  0  0
   59.3227   26.1702   46.4544 H   0  0  0  0  0  0  0  0  0  0  0  0
   57.3540   25.2800   46.5080 C   0  0  0  0  0  0  0  0  0  0  0  0
   57.7152   24.3102   46.8808 H   0  0  0  0  0  0  0  0  0  0  0  0
   55.9970   25.4820   46.2720 C   0  0  0  0  0  0  0  0  0  0  0  0
   55.2828   24.6611   46.4336 H   0  0  0  0  0  0  0  0  0  0  0  0
   55.5540   26.6930   45.8420 N   0  0  0  0  0  0  0  0  0  0  0  0
   56.3900   27.7450   45.6180 C   0  0  0  0  0  0  0  0  0  0  0  0
   55.8500   28.8740   45.2470 N   0  0  0  0  0  0  0  0  0  0  0  0
   56.3530   29.8420   44.3160 C   0  0  0  0  0  0  0  0  0  0  0  0
   56.1370   29.6970   42.9460 C   0  0  0  0  0  0  0  0  0  0  0  0
   55.5503   28.8469   42.5676 H   0  0  0  0  0  0  0  0  0  0  0  0
   56.6510   30.6050   42.0820 N   0  0  0  0  0  0  0  0  0  0  0  0
   57.3830   31.6620   42.5200 C   0  0  0  0  0  0  0  0  0  0  0  0
   57.8440   32.4750   41.6740 O   0  0  0  0  0  0  0  0  0  0  0  0
   57.6160   31.8350   43.8620 N   0  0  0  0  0  0  0  0  0  0  0  0
   58.4270   32.9700   44.3340 C   0  0  0  0  0  0  0  0  0  0  0  0
   58.4357   32.9821   45.4339 H   0  0  0  0  0  0  0  0  0  0  0  0
   59.4563   32.8657   43.9603 H   0  0  0  0  0  0  0  0  0  0  0  0
   57.9948   33.9100   43.9603 H   0  0  0  0  0  0  0  0  0  0  0  0
   57.1430   30.9090   44.7580 C   0  0  0  0  0  0  0  0  0  0  0  0
   57.3990   31.0180   45.9890 O   0  0  0  0  0  0  0  0  0  0  0  0
   60.5520   30.0890   46.0570 C   0  0  0  0  0  0  0  0  0  0  0  0
   60.8288   30.2101   44.9993 H   0  0  0  0  0  0  0  0  0  0  0  0
   61.2440   30.7910   47.0450 C   0  0  0  0  0  0  0  0  0  0  0  0
   62.0640   31.4712   46.7714 H   0  0  0  0  0  0  0  0  0  0  0  0
  1  2  1  0
  2  3  2  0
  3  4  1  0
  4  5  1  0
  4  6  2  0
  6  7  1  0
  7  8  1  0
  8  9  2  0
  9 10  1  0
  9 11  1  0
 11 12  1  0
 11 13  2  0
 13 14  1  0
 13 15  1  0
 15 16  1  0
 16 17  2  0
 17 18  1  0
 18 19  2  0
 19 20  1  0
 19 21  1  0
 21 22  1  0
 22 23  2  0
 22 24  1  0
 24 25  1  0
 25 26  1  0
 25 27  1  0
 25 28  1  0
 24 29  1  0
 29 30  2  0
  6 31  1  0
 31 32  1  0
 31 33  2  0
 33 34  1  0
 33  2  1  0
 16  8  1  0
 29 18  1  0
M  CHG  2  15  -1  21  -1
M  END
>  <UniqueID>  (71) 
67

>  <SMILES>  (71) 
Cn1c(=O)[n-]cc(/N=c2/[n-]cccc2Oc2cccnc2)c1=O

>  <Energy>  (71) 
62.16355724072113

>  <Genealogy>  (71) 
Cn1c(=O)[n-]cc(N=c2[n-]cccc2Oc2cccnc2)c1=O (protonated)
Cn1c(=O)[n-]cc(/N=c2/[n-]cccc2Oc2cccnc2)c1=O (cis-trans isomerization)
Cn1c(=O)[n-]cc(/N=c2/[n-]cccc2Oc2cccnc2)c1=O (3D coordinates assigned)
Cn1c(=O)[n-]cc(/N=c2/[n-]cccc2Oc2cccnc2)c1=O (optimized conformer: 62.16355724072113 kcal/mol)

>  <smiles>  (71) 
Cn1c(=O)[nH]cc(N=c2[nH]cccc2Oc2cccnc2)c1=O

>  <score_type>  (71) 
oracle

>  <origin>  (71) 
adg

>  <m_score__min__energy>  (71) 
-10.27

>  <m_primary>  (71) 
energy

$$$$
71:0
     RDKit          3D

 35 37  0  0  0  0  0  0  0  0999 V2000
   56.3959   26.5083   45.7735 H   0  0  0  0  0  0  0  0  0  0  0  0
   56.9150   27.4310   45.4750 C   0  0  0  0  0  0  0  0  0  0  0  0
   56.1920   28.5660   45.2290 N   0  0  0  0  0  0  0  0  0  0  0  0
   56.8520   29.6920   44.8620 C   0  0  0  0  0  0  0  0  0  0  0  0
   56.3080   30.8870   44.5840 N   0  0  0  0  0  0  0  0  0  0  0  0
   57.4200   31.6170   44.2880 C   0  0  0  0  0  0  0  0  0  0  0  0
   57.3870   32.8710   43.9520 N   0  0  0  0  0  0  0  0  0  0  0  0
   57.0570   33.9650   44.8660 C   0  0  0  0  0  0  0  0  0  0  0  0
   56.0078   34.2562   44.7101 H   0  0  0  0  0  0  0  0  0  0  0  0
   57.7337   34.8061   44.6545 H   0  0  0  0  0  0  0  0  0  0  0  0
   57.2470   33.5530   46.3320 C   0  0  0  0  0  0  0  0  0  0  0  0
   56.7751   32.5723   46.4919 H   0  0  0  0  0  0  0  0  0  0  0  0
   56.7819   34.3194   46.9695 H   0  0  0  0  0  0  0  0  0  0  0  0
   58.7060   33.4590   46.6930 C   0  0  0  0  0  0  0  0  0  0  0  0
   59.6540   34.2600   46.0350 C   0  0  0  0  0  0  0  0  0  0  0  0
   59.3332   34.9407   45.2327 H   0  0  0  0  0  0  0  0  0  0  0  0
   61.0030   34.1960   46.3950 C   0  0  0  0  0  0  0  0  0  0  0  0
   61.7393   34.8270   45.8757 H   0  0  0  0  0  0  0  0  0  0  0  0
   61.4210   33.3310   47.4150 C   0  0  0  0  0  0  0  0  0  0  0  0
   63.1180   33.2660   47.8810 S   0  0  0  0  0  0  0  0  0  0  0  0
   63.2320   33.1460   49.3750 O   0  0  0  0  0  0  0  0  0  0  0  0
   63.8140   34.5260   47.4450 O   0  0  0  0  0  0  0  0  0  0  0  0
   63.8730   31.9030   47.1340 N   0  0  0  0  0  0  0  0  0  0  0  0
   64.5190   32.2760   46.4010 H   0  0  0  0  0  0  0  0  0  0  0  0
   64.4730   31.4500   47.8600 H   0  0  0  0  0  0  0  0  0  0  0  0
   60.4750   32.5420   48.0850 C   0  0  0  0  0  0  0  0  0  0  0  0
   60.7959   31.8700   48.8946 H   0  0  0  0  0  0  0  0  0  0  0  0
   59.1250   32.6070   47.7270 C   0  0  0  0  0  0  0  0  0  0  0  0
   58.3875   31.9874   48.2583 H   0  0  0  0  0  0  0  0  0  0  0  0
   58.5520   30.9370   44.3710 O   0  0  0  0  0  0  0  0  0  0  0  0
   58.2030   29.7320   44.7310 C   0  0  0  0  0  0  0  0  0  0  0  0
   58.9910   28.6120   44.9670 C   0  0  0  0  0  0  0  0  0  0  0  0
   60.0853   28.6453   44.8602 H   0  0  0  0  0  0  0  0  0  0  0  0
   58.3240   27.4330   45.3490 C   0  0  0  0  0  0  0  0  0  0  0  0
   58.8968   26.5155   45.5491 H   0  0  0  0  0  0  0  0  0  0  0  0
  1  2  1  0
  2  3  2  0
  3  4  1  0
  4  5  1  0
  5  6  1  0
  6  7  2  0
  7  8  1  0
  8  9  1  0
  8 10  1  0
  8 11  1  0
 11 12  1  0
 11 13  1  0
 11 14  1  0
 14 15  2  0
 15 16  1  0
 15 17  1  0
 17 18  1  0
 17 19  2  0
 19 20  1  0
 20 21  2  0
 20 22  2  0
 20 23  1  0
 23 24  1  0
 23 25  1  0
 19 26  1  0
 26 27  1  0
 26 28  2  0
 28 29  1  0
  6 30  1  0
 30 31  1  0
 31 32  1  0
 32 33  1  0
 32 34  2  0
 34 35  1  0
 34  2  1  0
 31  4  2  0
 28 14  1  0
M  CHG  1   5  -1
M  END
>  <UniqueID>  (72) 
68

>  <SMILES>  (72) 
NS(=O)(=O)c1ccc(CC/N=c2\[n-]c3ncccc3o2)cc1

>  <Energy>  (72) 
72.9271681195237

>  <Genealogy>  (72) 
NS(=O)(=O)c1ccc(CCN=c2[n-]c3ncccc3o2)cc1 (protonated)
NS(=O)(=O)c1ccc(CC/N=c2\[n-]c3ncccc3o2)cc1 (cis-trans isomerization)
NS(=O)(=O)c1ccc(CC/N=c2\[n-]c3ncccc3o2)cc1 (3D coordinates assigned)
NS(=O)(=O)c1ccc(CC/N=c2\[n-]c3ncccc3o2)cc1 (optimized conformer: 72.9271681195237 kcal/mol)

>  <smiles>  (72) 
NS(=O)(=O)c1ccc(CCN=c2[nH]c3ncccc3o2)cc1

>  <score_type>  (72) 
oracle

>  <origin>  (72) 
adg

>  <m_score__min__energy>  (72) 
-9.5800000000000001

>  <m_primary>  (72) 
energy

$$$$
72:0
     RDKit          3D

 18 19  0  0  0  0  0  0  0  0999 V2000
   57.0744   30.0393   44.6328 H   0  0  0  0  0  0  0  0  0  0  0  0
   57.1000   29.0190   45.0430 C   0  0  0  0  0  0  0  0  0  0  0  0
   55.9730   28.2870   45.2490 N   0  0  0  0  0  0  0  0  0  0  0  0
   56.2620   27.0650   45.7490 C   0  0  0  0  0  0  0  0  0  0  0  0
   55.3710   26.1760   46.0720 N   0  0  0  0  0  0  0  0  0  0  0  0
   55.5580   24.7530   46.0460 C   0  0  0  0  0  0  0  0  0  0  0  0
   55.4700   24.1130   47.1270 O   0  0  0  0  0  0  0  0  0  0  0  0
   55.9250   24.0340   44.8110 C   0  0  0  0  0  0  0  0  0  0  0  0
   55.5670   22.7620   44.5360 N   0  0  0  0  0  0  0  0  0  0  0  0
   56.0780   22.5550   43.3070 C   0  0  0  0  0  0  0  0  0  0  0  0
   55.9590   21.4640   42.6890 O   0  0  0  0  0  0  0  0  0  0  0  0
   56.7220   23.6200   42.7980 N   0  0  0  0  0  0  0  0  0  0  0  0
   57.1910   23.7000   41.8680 H   0  0  0  0  0  0  0  0  0  0  0  0
   56.6250   24.5650   43.7460 C   0  0  0  0  0  0  0  0  0  0  0  0
   57.0323   25.5850   43.6851 H   0  0  0  0  0  0  0  0  0  0  0  0
   57.9110   26.8510   45.9760 S   0  0  0  0  0  0  0  0  0  0  0  0
   58.2880   28.3830   45.3890 C   0  0  0  0  0  0  0  0  0  0  0  0
   59.2984   28.8076   45.2953 H   0  0  0  0  0  0  0  0  0  0  0  0
  1  2  1  0
  2  3  1  0
  3  4  1  0
  4  5  2  0
  5  6  1  0
  6  7  2  0
  6  8  1  0
  8  9  1  0
  9 10  1  0
 10 11  2  0
 10 12  1  0
 12 13  1  0
 12 14  1  0
 14 15  1  0
  4 16  1  0
 16 17  1  0
 17 18  1  0
 17  2  2  0
 14  8  2  0
M  CHG  2   3  -1   9  -1
M  END
>  <UniqueID>  (73) 
69

>  <SMILES>  (73) 
O=C(/N=c1\[n-]ccs1)c1c[nH]c(=O)[n-]1

>  <Energy>  (73) 
83.38156703960341

>  <Genealogy>  (73) 
O=C(N=c1[n-]ccs1)c1c[nH]c(=O)[n-]1 (protonated)
O=C(/N=c1\[n-]ccs1)c1c[nH]c(=O)[n-]1 (cis-trans isomerization)
O=C(/N=c1\[n-]ccs1)c1c[nH]c(=O)[n-]1 (3D coordinates assigned)
O=C(/N=c1\[n-]ccs1)c1c[nH]c(=O)[n-]1 (optimized conformer: 83.38156703960341 kcal/mol)

>  <smiles>  (73) 
O=C(N=c1[nH]ccs1)c1c[nH]c(=O)[nH]1

>  <score_type>  (73) 
oracle

>  <origin>  (73) 
adg

>  <m_score__min__energy>  (73) 
-9.1600000000000001

>  <m_primary>  (73) 
energy

$$$$
73:0
     RDKit          3D

 55 58  0  0  0  0  0  0  0  0999 V2000
   54.9363   25.7383   46.6287 H   0  0  0  0  0  0  0  0  0  0  0  0
   55.8930   25.2450   46.4020 C   0  0  0  0  0  0  0  0  0  0  0  0
   56.1090   23.9260   46.8070 C   0  0  0  0  0  0  0  0  0  0  0  0
   55.3134   23.3788   47.3339 H   0  0  0  0  0  0  0  0  0  0  0  0
   57.3390   23.2920   46.5450 C   0  0  0  0  0  0  0  0  0  0  0  0
   57.5920   21.9670   46.9330 O   0  0  0  0  0  0  0  0  0  0  0  0
   57.0810   20.8190   46.2630 C   0  0  0  0  0  0  0  0  0  0  0  0
   56.7510   20.0776   47.0056 H   0  0  0  0  0  0  0  0  0  0  0  0
   56.2281   21.1115   45.6329 H   0  0  0  0  0  0  0  0  0  0  0  0
   57.8692   20.3811   45.6329 H   0  0  0  0  0  0  0  0  0  0  0  0
   58.3550   23.9990   45.8810 C   0  0  0  0  0  0  0  0  0  0  0  0
   59.5750   23.3470   45.6440 O   0  0  0  0  0  0  0  0  0  0  0  0
   59.7370   22.2270   44.7800 C   0  0  0  0  0  0  0  0  0  0  0  0
   59.8688   21.3157   45.3818 H   0  0  0  0  0  0  0  0  0  0  0  0
   58.8448   22.1214   44.1453 H   0  0  0  0  0  0  0  0  0  0  0  0
   60.6226   22.3786   44.1453 H   0  0  0  0  0  0  0  0  0  0  0  0
   58.1270   25.3290   45.4760 C   0  0  0  0  0  0  0  0  0  0  0  0
   58.9284   25.8900   44.9731 H   0  0  0  0  0  0  0  0  0  0  0  0
   56.8920   25.9430   45.7070 C   0  0  0  0  0  0  0  0  0  0  0  0
   56.7120   27.3170   45.3300 N   0  0  0  0  0  0  0  0  0  0  0  0
   57.3490   28.3580   45.7890 C   0  0  0  0  0  0  0  0  0  0  0  0
   57.1620   29.5540   45.1690 N   0  0  0  0  0  0  0  0  0  0  0  0
   57.7740   30.6960   45.5850 C   0  0  0  0  0  0  0  0  0  0  0  0
   57.5520   31.8980   44.9060 C   0  0  0  0  0  0  0  0  0  0  0  0
   56.8821   31.9214   44.0338 H   0  0  0  0  0  0  0  0  0  0  0  0
   58.1820   33.0710   45.3360 C   0  0  0  0  0  0  0  0  0  0  0  0
   58.0034   34.0157   44.8016 H   0  0  0  0  0  0  0  0  0  0  0  0
   59.0400   33.0480   46.4450 C   0  0  0  0  0  0  0  0  0  0  0  0
   59.8240   34.5240   47.0050 S   0  0  0  0  0  0  0  0  0  0  0  0
   60.1260   35.3880   45.8130 O   0  0  0  0  0  0  0  0  0  0  0  0
   58.9030   35.2800   47.9250 O   0  0  0  0  0  0  0  0  0  0  0  0
   61.3060   34.1270   47.8430 N   0  0  0  0  0  0  0  0  0  0  0  0
   61.7400   35.0380   48.1240 H   0  0  0  0  0  0  0  0  0  0  0  0
   60.9890   33.3770   49.0840 C   0  0  0  0  0  0  0  0  0  0  0  0
   60.6631   34.0881   49.8574 H   0  0  0  0  0  0  0  0  0  0  0  0
   60.1928   32.6535   48.8546 H   0  0  0  0  0  0  0  0  0  0  0  0
   62.2060   32.6020   49.6020 C   0  0  0  0  0  0  0  0  0  0  0  0
   63.0302   33.3071   49.7850 H   0  0  0  0  0  0  0  0  0  0  0  0
   61.9241   32.0886   50.5331 H   0  0  0  0  0  0  0  0  0  0  0  0
   62.6640   31.5470   48.5800 C   0  0  0  0  0  0  0  0  0  0  0  0
   63.7584   31.4526   48.6383 H   0  0  0  0  0  0  0  0  0  0  0  0
   62.1600   30.6018   48.8301 H   0  0  0  0  0  0  0  0  0  0  0  0
   62.2780   31.9110   47.1370 C   0  0  0  0  0  0  0  0  0  0  0  0
   63.0092   31.4653   46.4465 H   0  0  0  0  0  0  0  0  0  0  0  0
   61.2689   31.5214   46.9371 H   0  0  0  0  0  0  0  0  0  0  0  0
   62.2610   33.4320   46.9350 C   0  0  0  0  0  0  0  0  0  0  0  0
   63.2719   33.8224   47.1236 H   0  0  0  0  0  0  0  0  0  0  0  0
   61.9339   33.6241   45.9025 H   0  0  0  0  0  0  0  0  0  0  0  0
   59.2620   31.8460   47.1300 C   0  0  0  0  0  0  0  0  0  0  0  0
   59.9302   31.8268   48.0036 H   0  0  0  0  0  0  0  0  0  0  0  0
   58.6330   30.6670   46.7030 C   0  0  0  0  0  0  0  0  0  0  0  0
   58.8300   29.4550   47.3710 C   0  0  0  0  0  0  0  0  0  0  0  0
   59.4915   29.4122   48.2488 H   0  0  0  0  0  0  0  0  0  0  0  0
   58.1870   28.2980   46.9240 C   0  0  0  0  0  0  0  0  0  0  0  0
   58.3328   27.3450   47.4536 H   0  0  0  0  0  0  0  0  0  0  0  0
  1  2  1  0
  2  3  2  0
  3  4  1  0
  3  5  1  0
  5  6  1  0
  6  7  1  0
  7  8  1  0
  7  9  1  0
  7 10  1  0
  5 11  2  0
 11 12  1  0
 12 13  1  0
 13 14  1  0
 13 15  1  0
 13 16  1  0
 11 17  1  0
 17 18  1  0
 17 19  2  0
 19 20  1  0
 20 21  2  0
 21 22  1  0
 22 23  1  0
 23 24  2  0
 24 25  1  0
 24 26  1  0
 26 27  1  0
 26 28  2  0
 28 29  1  0
 29 30  2  0
 29 31  2  0
 29 32  1  0
 32 33  1  0
 32 34  1  0
 34 35  1  0
 34 36  1  0
 34 37  1  0
 37 38  1  0
 37 39  1  0
 37 40  1  0
 40 41  1  0
 40 42  1  0
 40 43  1  0
 43 44  1  0
 43 45  1  0
 43 46  1  0
 46 47  1  0
 46 48  1  0
 28 49  1  0
 49 50  1  0
 49 51  2  0
 51 52  1  0
 52 53  1  0
 52 54  2  0
 54 55  1  0
 19  2  1  0
 54 21  1  0
 51 23  1  0
 46 32  1  0
M  CHG  2  22  -1  32   1
M  END
>  <UniqueID>  (74) 
70

>  <SMILES>  (74) 
COc1ccc(/N=c2\ccc3cc(S(=O)(=O)[NH+]4CCCCC4)ccc3[n-]2)cc1OC

>  <Energy>  (74) 
74.69335758763646

>  <Genealogy>  (74) 
COc1ccc(N=c2ccc3cc(S(=O)(=O)[NH+]4CCCCC4)ccc3[n-]2)cc1OC (protonated)
COc1ccc(/N=c2\ccc3cc(S(=O)(=O)[NH+]4CCCCC4)ccc3[n-]2)cc1OC (cis-trans isomerization)
COc1ccc(/N=c2\ccc3cc(S(=O)(=O)[NH+]4CCCCC4)ccc3[n-]2)cc1OC (3D coordinates assigned)
COc1ccc(/N=c2\ccc3cc(S(=O)(=O)[NH+]4CCCCC4)ccc3[n-]2)cc1OC (nonaromatic ring conformer: 74.69335758763646 kcal/mol)

>  <smiles>  (74) 
COc1ccc(N=c2ccc3cc(S(=O)(=O)N4CCCCC4)ccc3[nH]2)cc1OC

>  <score_type>  (74) 
oracle

>  <origin>  (74) 
adg

>  <m_score__min__energy>  (74) 
-8.9600000000000009

>  <m_primary>  (74) 
energy

$$$$
74:0
     RDKit          3D

 60 64  0  0  1  0  0  0  0  0999 V2000
   64.8670   33.3150   50.4540 C   0  0  0  0  0  0  0  0  0  0  0  0
   65.0370   31.9450   50.5160 C   0  0  0  0  0  0  0  0  0  0  0  0
   63.9670   31.2060   50.8080 N   0  0  0  0  0  0  0  0  0  0  0  0
   62.7410   31.6930   51.0440 C   0  0  0  0  0  0  0  0  0  0  0  0
   61.6910   30.8390   51.3390 O   0  0  0  0  0  0  0  0  0  0  0  0
   60.9180   30.2590   50.3370 C   0  0  0  0  0  0  0  0  0  0  0  0
   59.8630   31.0090   49.8240 C   0  0  0  0  0  0  0  0  0  0  0  0
   59.0830   30.4280   48.8150 C   0  0  0  0  0  0  0  0  0  0  0  0
   59.3640   29.1420   48.3520 C   0  0  0  0  0  0  0  0  0  0  0  0
   58.4890   28.6220   47.3170 C   0  0  0  0  0  0  0  0  0  0  0  0
   58.2100   27.2880   47.1390 C   0  0  0  0  0  0  0  0  0  0  0  0
   57.3370   26.8940   46.1430 C   0  0  0  0  0  0  0  0  0  0  0  0
   56.7300   27.7660   45.3210 N   0  0  0  0  0  0  0  0  0  0  0  0
   57.0210   29.0750   45.5180 C   0  0  0  0  0  0  0  0  0  0  0  0
   56.4770   29.9970   44.8080 N   0  0  0  0  0  0  0  0  0  0  0  0
   57.1580   31.1810   44.4320 C   0  0  0  0  0  0  0  0  0  0  0  0
   57.4900   32.1960   45.2890 C   0  0  0  0  0  0  0  0  0  0  0  0
   58.1540   33.2720   44.7550 C   0  0  0  0  0  0  0  0  0  0  0  0
   58.4950   34.2520   45.4660 N   0  0  0  0  0  0  0  0  0  0  0  0
   59.6970   34.4250   46.1750 C   0  0  0  0  0  0  0  0  0  0  0  0
   59.8190   33.5910   47.4570 C   0  0  0  0  0  0  0  0  0  0  0  0
   61.2100   33.2300   47.6290 N   0  0  0  0  0  0  0  0  0  0  0  0
   62.0420   34.0560   46.7030 C   0  0  0  0  0  0  0  0  0  0  0  0
   63.4810   33.6810   47.0120 C   0  0  0  0  0  0  0  0  0  0  0  0
   63.7610   32.3480   46.8460 O   0  0  0  0  0  0  0  0  0  0  0  0
   62.9200   31.5620   47.6270 C   0  0  0  0  0  0  0  0  0  0  0  0
   61.5040   31.8720   47.1310 C   0  0  0  0  0  0  0  0  0  0  0  0
   58.4710   33.3340   43.4270 N   0  0  0  0  0  0  0  0  0  0  0  0
   58.1360   32.3250   42.6020 C   0  0  0  0  0  0  0  0  0  0  0  0
   57.4840   31.2600   43.1070 N   0  0  0  0  0  0  0  0  0  0  0  0
   57.8750   29.4860   46.4860 N   0  0  0  0  0  0  0  0  0  0  0  0
   60.4110   28.4090   48.8660 C   0  0  0  0  0  0  0  0  0  0  0  0
   61.1970   28.9820   49.8730 C   0  0  0  0  0  0  0  0  0  0  0  0
   62.5580   33.0370   50.9860 N   0  0  0  0  0  0  0  0  0  0  0  0
   63.6210   33.8500   50.6900 C   0  0  0  0  0  0  0  0  0  0  0  0
   65.7182   33.9708   50.2186 H   0  0  0  0  0  0  0  0  0  0  0  0
   66.0177   31.4822   50.3315 H   0  0  0  0  0  0  0  0  0  0  0  0
   59.6494   32.0214   50.1974 H   0  0  0  0  0  0  0  0  0  0  0  0
   58.2418   30.9908   48.3842 H   0  0  0  0  0  0  0  0  0  0  0  0
   58.6809   26.5353   47.7883 H   0  0  0  0  0  0  0  0  0  0  0  0
   57.1303   25.8208   46.0179 H   0  0  0  0  0  0  0  0  0  0  0  0
   56.0680   27.5140   44.5620 H   0  0  0  0  0  0  0  0  0  0  0  0
   57.2358   32.1510   46.3583 H   0  0  0  0  0  0  0  0  0  0  0  0
   60.5285   34.1509   45.5091 H   0  0  0  0  0  0  0  0  0  0  0  0
   59.7192   35.4786   46.4902 H   0  0  0  0  0  0  0  0  0  0  0  0
   59.4779   34.1819   48.3199 H   0  0  0  0  0  0  0  0  0  0  0  0
   59.1973   32.6865   47.3834 H   0  0  0  0  0  0  0  0  0  0  0  0
   61.7997   33.8224   45.6558 H   0  0  0  0  0  0  0  0  0  0  0  0
   61.8610   35.1323   46.8399 H   0  0  0  0  0  0  0  0  0  0  0  0
   64.1390   34.2577   46.3453 H   0  0  0  0  0  0  0  0  0  0  0  0
   63.6469   33.9098   48.0751 H   0  0  0  0  0  0  0  0  0  0  0  0
   63.1517   30.4955   47.4900 H   0  0  0  0  0  0  0  0  0  0  0  0
   63.0358   31.7768   48.6996 H   0  0  0  0  0  0  0  0  0  0  0  0
   61.4659   31.8472   46.0319 H   0  0  0  0  0  0  0  0  0  0  0  0
   60.7712   31.1342   47.4897 H   0  0  0  0  0  0  0  0  0  0  0  0
   58.9820   34.1690   43.0290 H   0  0  0  0  0  0  0  0  0  0  0  0
   58.3905   32.3692   41.5327 H   0  0  0  0  0  0  0  0  0  0  0  0
   60.6247   27.3962   48.4936 H   0  0  0  0  0  0  0  0  0  0  0  0
   62.0396   28.4169   50.2981 H   0  0  0  0  0  0  0  0  0  0  0  0
   63.4771   34.9394   50.6406 H   0  0  0  0  0  0  0  0  0  0  0  0
  1  2  2  0
  2  3  1  0
  3  4  2  0
  4  5  1  0
  5  6  1  0
  6  7  2  0
  7  8  1  0
  8  9  2  0
  9 10  1  0
 10 11  1  0
 11 12  2  0
 12 13  1  0
 13 14  1  0
 14 15  2  0
 15 16  1  0
 16 17  2  0
 17 18  1  0
 18 19  2  0
 19 20  1  0
 20 21  1  0
 21 22  1  0
 22 23  1  0
 23 24  1  0
 24 25  1  0
 25 26  1  0
 26 27  1  0
 18 28  1  0
 28 29  1  0
 29 30  2  0
 14 31  1  0
  9 32  1  0
 32 33  2  0
  4 34  1  0
 34 35  2  0
 35  1  1  0
 33  6  1  0
 31 10  2  0
 30 16  1  0
 27 22  1  0
  1 36  1  0
  2 37  1  0
  7 38  1  0
  8 39  1  0
 11 40  1  0
 12 41  1  0
 13 42  1  0
 17 43  1  0
 20 44  1  0
 20 45  1  0
 21 46  1  0
 21 47  1  0
 23 48  1  0
 23 49  1  0
 24 50  1  0
 24 51  1  0
 26 52  1  0
 26 53  1  0
 27 54  1  0
 27 55  1  0
 28 56  1  0
 29 57  1  0
 32 58  1  0
 33 59  1  0
 35 60  1  0
M  END
>  <smiles>  (75) 
c1cnc(Oc2ccc(-c3cc[nH]c(=Nc4cc(=NCCN5CCOCC5)[nH]cn4)n3)cc2)nc1

>  <score_type>  (75) 
oracle

>  <origin>  (75) 
adg

>  <m_score__min__energy>  (75) 
-9.5399999999999991

>  <m_primary>  (75) 
energy

$$$$
75:0
     RDKit          3D

 55 58  0  0  0  0  0  0  0  0999 V2000
   66.5217   31.7382   51.8192 H   0  0  0  0  0  0  0  0  0  0  0  0
   65.7290   31.8910   51.0720 C   0  0  0  0  0  0  0  0  0  0  0  0
   64.5750   31.1050   51.1070 C   0  0  0  0  0  0  0  0  0  0  0  0
   64.4593   30.3341   51.8831 H   0  0  0  0  0  0  0  0  0  0  0  0
   63.5670   31.2960   50.1580 C   0  0  0  0  0  0  0  0  0  0  0  0
   62.6581   30.6775   50.1937 H   0  0  0  0  0  0  0  0  0  0  0  0
   63.7080   32.2750   49.1570 C   0  0  0  0  0  0  0  0  0  0  0  0
   62.6630   32.4840   48.1880 N   0  0  0  0  0  0  0  0  0  0  0  0
   61.4140   31.7140   48.2400 C   0  0  0  0  0  0  0  0  0  0  0  0
   61.3825   31.1399   49.1778 H   0  0  0  0  0  0  0  0  0  0  0  0
   61.3810   31.0348   47.3754 H   0  0  0  0  0  0  0  0  0  0  0  0
   60.1930   32.6520   48.1800 C   0  0  0  0  0  0  0  0  0  0  0  0
   59.8138   32.7996   49.2020 H   0  0  0  0  0  0  0  0  0  0  0  0
   59.4445   32.1766   47.5290 H   0  0  0  0  0  0  0  0  0  0  0  0
   60.5100   33.9810   47.5960 N   0  0  0  0  0  0  0  0  0  0  0  0
   59.2920   34.6760   47.1290 C   0  0  0  0  0  0  0  0  0  0  0  0
   59.1404   35.5761   47.7429 H   0  0  0  0  0  0  0  0  0  0  0  0
   58.4471   33.9784   47.2258 H   0  0  0  0  0  0  0  0  0  0  0  0
   59.3920   35.0950   45.6510 C   0  0  0  0  0  0  0  0  0  0  0  0
   60.4498   35.2912   45.4219 H   0  0  0  0  0  0  0  0  0  0  0  0
   58.7510   35.9816   45.5369 H   0  0  0  0  0  0  0  0  0  0  0  0
   58.8700   34.0510   44.6460 C   0  0  0  0  0  0  0  0  0  0  0  0
   59.4934   33.1491   44.7347 H   0  0  0  0  0  0  0  0  0  0  0  0
   58.9262   34.5217   43.6534 H   0  0  0  0  0  0  0  0  0  0  0  0
   57.4040   33.6400   44.8470 C   0  0  0  0  0  0  0  0  0  0  0  0
   56.8609   33.7712   43.8995 H   0  0  0  0  0  0  0  0  0  0  0  0
   56.9680   34.2737   45.6333 H   0  0  0  0  0  0  0  0  0  0  0  0
   57.3020   32.2410   45.2670 N   0  0  0  0  0  0  0  0  0  0  0  0
   57.4560   31.1000   44.6420 C   0  0  0  0  0  0  0  0  0  0  0  0
   56.6470   30.9190   43.5130 C   0  0  0  0  0  0  0  0  0  0  0  0
   56.1226   31.7807   43.0743 H   0  0  0  0  0  0  0  0  0  0  0  0
   56.5010   29.6600   42.9420 C   0  0  0  0  0  0  0  0  0  0  0  0
   55.8511   29.5296   42.0641 H   0  0  0  0  0  0  0  0  0  0  0  0
   57.1550   28.5920   43.4610 N   0  0  0  0  0  0  0  0  0  0  0  0
   56.9950   27.6560   43.0230 H   0  0  0  0  0  0  0  0  0  0  0  0
   58.0470   28.7300   44.4820 C   0  0  0  0  0  0  0  0  0  0  0  0
   58.7770   27.6130   44.9170 C   0  0  0  0  0  0  0  0  0  0  0  0
   58.5437   26.6169   44.5129 H   0  0  0  0  0  0  0  0  0  0  0  0
   59.7950   27.7570   45.8570 C   0  0  0  0  0  0  0  0  0  0  0  0
   60.7190   26.3590   46.3770 Cl  0  0  0  0  0  0  0  0  0  0  0  0
   60.1240   29.0250   46.3320 C   0  0  0  0  0  0  0  0  0  0  0  0
   60.9614   29.1458   47.0350 H   0  0  0  0  0  0  0  0  0  0  0  0
   59.3960   30.1430   45.9200 C   0  0  0  0  0  0  0  0  0  0  0  0
   59.6974   31.1429   46.2656 H   0  0  0  0  0  0  0  0  0  0  0  0
   58.2780   30.0100   45.0660 C   0  0  0  0  0  0  0  0  0  0  0  0
   61.4980   33.8650   46.5060 C   0  0  0  0  0  0  0  0  0  0  0  0
   61.6001   34.8342   45.9959 H   0  0  0  0  0  0  0  0  0  0  0  0
   61.1641   33.1089   45.7802 H   0  0  0  0  0  0  0  0  0  0  0  0
   62.8490   33.4520   47.1000 C   0  0  0  0  0  0  0  0  0  0  0  0
   63.3584   34.3440   47.4934 H   0  0  0  0  0  0  0  0  0  0  0  0
   63.4547   32.9842   46.3099 H   0  0  0  0  0  0  0  0  0  0  0  0
   64.8700   33.0660   49.1370 C   0  0  0  0  0  0  0  0  0  0  0  0
   64.9885   33.8435   48.3680 H   0  0  0  0  0  0  0  0  0  0  0  0
   65.8760   32.8710   50.0880 C   0  0  0  0  0  0  0  0  0  0  0  0
   66.7847   33.4904   50.0612 H   0  0  0  0  0  0  0  0  0  0  0  0
  1  2  1  0
  2  3  2  0
  3  4  1  0
  3  5  1  0
  5  6  1  0
  5  7  2  0
  7  8  1  0
  8  9  1  0
  9 10  1  0
  9 11  1  0
  9 12  1  0
 12 13  1  0
 12 14  1  0
 12 15  1  0
 15 16  1  0
 16 17  1  0
 16 18  1  0
 16 19  1  0
 19 20  1  0
 19 21  1  0
 19 22  1  0
 22 23  1  0
 22 24  1  0
 22 25  1  0
 25 26  1  0
 25 27  1  0
 25 28  1  0
 28 29  2  0
 29 30  1  0
 30 31  1  0
 30 32  2  0
 32 33  1  0
 32 34  1  0
 34 35  1  0
 34 36  1  0
 36 37  2  0
 37 38  1  0
 37 39  1  0
 39 40  1  0
 39 41  2  0
 41 42  1  0
 41 43  1  0
 43 44  1  0
 43 45  2  0
 15 46  1  0
 46 47  1  0
 46 48  1  0
 46 49  1  0
 49 50  1  0
 49 51  1  0
  7 52  1  0
 52 53  1  0
 52 54  2  0
 54 55  1  0
 54  2  1  0
 49  8  1  0
 45 29  1  0
 45 36  1  0
M  END
>  <UniqueID>  (76) 
71

>  <SMILES>  (76) 
Clc1ccc2/c(=N\CCCCN3CCN(c4ccccc4)CC3)cc[nH]c2c1

>  <Energy>  (76) 
88.65698243036844

>  <Genealogy>  (76) 
Clc1ccc2/c(=N\CCCCN3CCN(c4ccccc4)CC3)cc[nH]c2c1 (cis-trans isomerization)
Clc1ccc2/c(=N\CCCCN3CCN(c4ccccc4)CC3)cc[nH]c2c1 (3D coordinates assigned)
Clc1ccc2/c(=N\CCCCN3CCN(c4ccccc4)CC3)cc[nH]c2c1 (nonaromatic ring conformer: 88.65698243036844 kcal/mol)

>  <smiles>  (76) 
Clc1ccc2c(=NCCCCN3CCN(c4ccccc4)CC3)cc[nH]c2c1

>  <score_type>  (76) 
oracle

>  <origin>  (76) 
adg

>  <m_score__min__energy>  (76) 
-9.1099999999999994

>  <m_primary>  (76) 
energy

$$$$
76:0
     RDKit          3D

 44 47  0  0  0  0  0  0  0  0999 V2000
   58.8040   34.0700   47.4350 C   0  0  0  0  0  0  0  0  0  0  0  0
   59.8500   33.4940   46.4740 C   0  0  1  0  0  0  0  0  0  0  0  0
   61.0860   33.1030   47.2350 C   0  0  0  0  0  0  0  0  0  0  0  0
   62.0360   34.1040   48.1980 S   0  0  0  0  0  0  0  0  0  0  0  0
   63.0330   32.8830   48.8170 C   0  0  0  0  0  0  0  0  0  0  0  0
   64.1050   33.0720   49.8320 C   0  0  0  0  0  0  0  0  0  0  0  0
   65.3080   32.3460   49.7470 C   0  0  0  0  0  0  0  0  0  0  0  0
   66.3390   32.5650   50.6670 C   0  0  0  0  0  0  0  0  0  0  0  0
   66.1950   33.5180   51.6880 C   0  0  0  0  0  0  0  0  0  0  0  0
   67.3230   33.7800   52.6210 C   0  0  0  0  0  0  0  0  0  0  0  0
   67.1080   33.9270   54.0290 N   0  0  0  0  0  0  0  0  0  0  0  0
   68.4910   33.9230   52.1670 O   0  0  0  0  0  0  0  0  0  0  0  0
   64.9780   34.2080   51.8020 C   0  0  0  0  0  0  0  0  0  0  0  0
   63.9460   33.9930   50.8820 C   0  0  0  0  0  0  0  0  0  0  0  0
   62.6060   31.6680   48.2780 C   0  0  0  0  0  0  0  0  0  0  0  0
   61.5100   31.7940   47.4150 C   0  0  0  0  0  0  0  0  0  0  0  0
   60.8450   30.6430   46.7270 C   0  0  0  0  0  0  0  0  0  0  0  0
   59.3900   30.9860   46.3820 C   0  0  0  0  0  0  0  0  0  0  0  0
   59.2980   32.3190   45.7720 N   0  0  0  0  0  0  0  0  0  0  0  0
   58.4250   32.5260   44.6500 C   0  0  0  0  0  0  0  0  0  0  0  0
   58.4880   33.6050   44.0010 O   0  0  0  0  0  0  0  0  0  0  0  0
   57.4940   31.4670   44.2250 C   0  0  0  0  0  0  0  0  0  0  0  0
   57.2040   31.1160   42.9140 C   0  0  0  0  0  0  0  0  0  0  0  0
   56.2680   30.1050   42.9860 C   0  0  0  0  0  0  0  0  0  0  0  0
   56.0360   29.9030   44.3310 C   0  0  0  0  0  0  0  0  0  0  0  0
   55.1460   28.9670   44.8510 O   0  0  0  0  0  0  0  0  0  0  0  0
   56.7760   30.7250   45.0970 N   0  0  0  0  0  0  0  0  0  0  0  0
   59.1234   33.8941   48.4728 H   0  0  0  0  0  0  0  0  0  0  0  0
   58.7022   35.1514   47.2609 H   0  0  0  0  0  0  0  0  0  0  0  0
   57.8358   33.5779   47.2609 H   0  0  0  0  0  0  0  0  0  0  0  0
   60.1143   34.2619   45.7320 H   0  0  0  0  0  0  0  0  0  0  0  0
   65.4387   31.5995   48.9497 H   0  0  0  0  0  0  0  0  0  0  0  0
   67.2707   31.9854   50.5898 H   0  0  0  0  0  0  0  0  0  0  0  0
   66.1500   33.9050   54.4480 H   0  0  0  0  0  0  0  0  0  0  0  0
   67.9160   34.1270   54.6610 H   0  0  0  0  0  0  0  0  0  0  0  0
   64.8341   34.9254   52.6234 H   0  0  0  0  0  0  0  0  0  0  0  0
   63.0023   34.5494   50.9812 H   0  0  0  0  0  0  0  0  0  0  0  0
   63.0842   30.7046   48.5088 H   0  0  0  0  0  0  0  0  0  0  0  0
   61.3910   30.4115   45.8006 H   0  0  0  0  0  0  0  0  0  0  0  0
   60.8536   29.7743   47.4017 H   0  0  0  0  0  0  0  0  0  0  0  0
   59.0013   30.2384   45.6749 H   0  0  0  0  0  0  0  0  0  0  0  0
   58.7977   30.9812   47.3089 H   0  0  0  0  0  0  0  0  0  0  0  0
   57.6337   31.5552   42.0016 H   0  0  0  0  0  0  0  0  0  0  0  0
   55.8027   29.5703   42.1448 H   0  0  0  0  0  0  0  0  0  0  0  0
  1  2  1  0
  2  3  1  0
  3  4  1  0
  4  5  1  0
  5  6  1  0
  6  7  2  0
  7  8  1  0
  8  9  2  0
  9 10  1  0
 10 11  1  0
 10 12  2  0
  9 13  1  0
 13 14  2  0
  5 15  2  0
 15 16  1  0
 16 17  1  0
 17 18  1  0
 18 19  1  0
 19 20  1  0
 20 21  2  0
 20 22  1  0
 22 23  2  0
 23 24  1  0
 24 25  2  0
 25 26  1  0
 25 27  1  0
 19  2  1  0
 27 22  1  0
 16  3  2  0
 14  6  1  0
  1 28  1  0
  1 29  1  0
  1 30  1  0
  2 31  1  6
  7 32  1  0
  8 33  1  0
 11 34  1  0
 11 35  1  0
 13 36  1  0
 14 37  1  0
 15 38  1  0
 17 39  1  0
 17 40  1  0
 18 41  1  0
 18 42  1  0
 23 43  1  0
 24 44  1  0
M  CHG  2  26  -1  27  -1
M  END
>  <UniqueID>  (77) 
72

>  <SMILES>  (77) 
C[C@H]1c2sc(-c3ccc(C(N)=O)cc3)cc2CCN1C(=O)c1ccc([O-])[n-]1

>  <Energy>  (77) 
106.3463987858257

>  <Genealogy>  (77) 
CC1c2sc(-c3ccc(C(N)=O)cc3)cc2CCN1C(=O)c1ccc([O-])[n-]1 (protonated)
C[C@H]1c2sc(-c3ccc(C(N)=O)cc3)cc2CCN1C(=O)c1ccc([O-])[n-]1 (chirality)
C[C@H]1c2sc(-c3ccc(C(N)=O)cc3)cc2CCN1C(=O)c1ccc([O-])[n-]1 (3D coordinates assigned)
C[C@H]1c2sc(-c3ccc(C(N)=O)cc3)cc2CCN1C(=O)c1ccc([O-])[n-]1 (nonaromatic ring conformer: 106.3463987858257 kcal/mol)

>  <smiles>  (77) 
CC1c2sc(-c3ccc(C(N)=O)cc3)cc2CCN1C(=O)c1ccc(O)[nH]1

>  <score_type>  (77) 
oracle

>  <origin>  (77) 
adg

>  <m_score__min__energy>  (77) 
-13.75

>  <m_primary>  (77) 
energy

$$$$
77:0
     RDKit          3D

 33 35  0  0  0  0  0  0  0  0999 V2000
   60.8020   32.9740   47.5810 C   0  0  0  0  0  0  0  0  0  0  0  0
   59.7470   33.1140   46.5130 C   0  0  0  0  0  0  0  0  0  0  0  0
   59.8040   34.2180   45.6480 C   0  0  0  0  0  0  0  0  0  0  0  0
   58.8450   34.3890   44.6550 C   0  0  0  0  0  0  0  0  0  0  0  0
   57.8110   33.4680   44.5120 C   0  0  0  0  0  0  0  0  0  0  0  0
   57.7280   32.3490   45.3610 C   0  0  0  0  0  0  0  0  0  0  0  0
   56.6450   31.4120   45.2420 N   0  0  0  0  0  0  0  0  0  0  0  0
   56.6250   30.0220   44.2050 S   0  0  0  0  0  0  0  0  0  0  0  0
   55.1990   29.6850   43.8640 O   0  0  0  0  0  0  0  0  0  0  0  0
   57.3670   30.3410   42.9380 O   0  0  0  0  0  0  0  0  0  0  0  0
   57.4190   28.6620   45.0010 C   0  0  0  0  0  0  0  0  0  0  0  0
   56.6530   27.6540   45.6130 C   0  0  0  0  0  0  0  0  0  0  0  0
   57.2730   26.5780   46.2680 C   0  0  0  0  0  0  0  0  0  0  0  0
   58.6700   26.4860   46.3230 C   0  0  0  0  0  0  0  0  0  0  0  0
   59.4420   27.4760   45.7170 C   0  0  0  0  0  0  0  0  0  0  0  0
   60.7990   27.4560   45.7280 N   0  0  0  0  0  0  0  0  0  0  0  0
   61.1170   28.8390   44.8790 S   0  0  0  0  0  0  0  0  0  0  0  0
   59.6470   29.4830   44.4840 N   0  0  0  0  0  0  0  0  0  0  0  0
   58.8180   28.5680   45.0490 C   0  0  0  0  0  0  0  0  0  0  0  0
   58.7200   32.1480   46.3490 C   0  0  0  0  0  0  0  0  0  0  0  0
   58.6340   30.9560   47.2760 C   0  0  0  0  0  0  0  0  0  0  0  0
   60.3303   33.0366   48.5728 H   0  0  0  0  0  0  0  0  0  0  0  0
   61.3045   32.0013   47.4747 H   0  0  0  0  0  0  0  0  0  0  0  0
   61.5408   33.7820   47.4747 H   0  0  0  0  0  0  0  0  0  0  0  0
   60.6140   34.9543   45.7563 H   0  0  0  0  0  0  0  0  0  0  0  0
   58.9039   35.2555   43.9800 H   0  0  0  0  0  0  0  0  0  0  0  0
   57.0527   33.6162   43.7290 H   0  0  0  0  0  0  0  0  0  0  0  0
   55.5549   27.7092   45.5781 H   0  0  0  0  0  0  0  0  0  0  0  0
   56.6564   25.8002   46.7423 H   0  0  0  0  0  0  0  0  0  0  0  0
   59.1521   25.6423   46.8385 H   0  0  0  0  0  0  0  0  0  0  0  0
   58.6589   31.3010   48.3202 H   0  0  0  0  0  0  0  0  0  0  0  0
   57.6945   30.4147   47.0910 H   0  0  0  0  0  0  0  0  0  0  0  0
   59.4861   30.2854   47.0910 H   0  0  0  0  0  0  0  0  0  0  0  0
  1  2  1  0
  2  3  2  0
  3  4  1  0
  4  5  2  0
  5  6  1  0
  6  7  1  0
  7  8  1  0
  8  9  2  0
  8 10  2  0
  8 11  1  0
 11 12  2  0
 12 13  1  0
 13 14  2  0
 14 15  1  0
 15 16  2  0
 16 17  1  0
 17 18  1  0
 18 19  2  0
  6 20  2  0
 20 21  1  0
 20  2  1  0
 19 11  1  0
 19 15  1  0
  1 22  1  0
  1 23  1  0
  1 24  1  0
  3 25  1  0
  4 26  1  0
  5 27  1  0
 12 28  1  0
 13 29  1  0
 14 30  1  0
 21 31  1  0
 21 32  1  0
 21 33  1  0
M  CHG  1   7  -1
M  END
>  <UniqueID>  (78) 
73

>  <SMILES>  (78) 
Cc1cccc([N-]S(=O)(=O)c2cccc3nsnc23)c1C

>  <Energy>  (78) 
78.21665232664262

>  <Genealogy>  (78) 
Cc1cccc([N-]S(=O)(=O)c2cccc3nsnc23)c1C (protonated)
Cc1cccc([N-]S(=O)(=O)c2cccc3nsnc23)c1C (3D coordinates assigned)
Cc1cccc([N-]S(=O)(=O)c2cccc3nsnc23)c1C (optimized conformer: 78.21665232664262 kcal/mol)

>  <smiles>  (78) 
Cc1cccc(NS(=O)(=O)c2cccc3nsnc23)c1C

>  <score_type>  (78) 
oracle

>  <origin>  (78) 
adg

>  <m_score__min__energy>  (78) 
-9.7100000000000009

>  <m_primary>  (78) 
energy

$$$$
78:0
     RDKit          3D

 28 31  0  0  0  0  0  0  0  0999 V2000
   57.9920   26.6680   42.2570 O   0  0  0  0  0  0  0  0  0  0  0  0
   58.1410   27.0760   43.4380 C   0  0  0  0  0  0  0  0  0  0  0  0
   58.2560   26.1790   44.4520 N   0  0  0  0  0  0  0  0  0  0  0  0
   58.4190   26.5870   45.7360 C   0  0  0  0  0  0  0  0  0  0  0  0
   58.4880   27.9510   46.0320 C   0  0  0  0  0  0  0  0  0  0  0  0
   58.3540   28.8640   44.9740 C   0  0  0  0  0  0  0  0  0  0  0  0
   58.1860   28.4120   43.6980 N   0  0  0  0  0  0  0  0  0  0  0  0
   58.4360   30.3000   45.2800 C   0  0  0  0  0  0  0  0  0  0  0  0
   58.1400   31.5930   44.2360 S   0  0  0  0  0  0  0  0  0  0  0  0
   58.5280   32.7700   45.3710 C   0  0  0  0  0  0  0  0  0  0  0  0
   58.5300   34.1510   45.1890 C   0  0  0  0  0  0  0  0  0  0  0  0
   58.9300   34.9620   46.2590 C   0  0  0  0  0  0  0  0  0  0  0  0
   59.3260   34.3850   47.4790 C   0  0  0  0  0  0  0  0  0  0  0  0
   59.3210   32.9890   47.6450 C   0  0  0  0  0  0  0  0  0  0  0  0
   59.7340   32.4630   48.8230 F   0  0  0  0  0  0  0  0  0  0  0  0
   58.9030   32.1780   46.5750 C   0  0  0  0  0  0  0  0  0  0  0  0
   58.8250   30.7700   46.5330 C   0  0  0  0  0  0  0  0  0  0  0  0
   59.2450   29.8080   47.6170 C   0  0  0  0  0  0  0  0  0  0  0  0
   58.5540   28.4330   47.4680 C   0  0  0  0  0  0  0  0  0  0  0  0
   58.4968   25.8442   46.5436 H   0  0  0  0  0  0  0  0  0  0  0  0
   58.0990   29.0880   42.9060 H   0  0  0  0  0  0  0  0  0  0  0  0
   58.2252   34.5937   44.2292 H   0  0  0  0  0  0  0  0  0  0  0  0
   58.9344   36.0560   46.1444 H   0  0  0  0  0  0  0  0  0  0  0  0
   59.6424   35.0317   48.3106 H   0  0  0  0  0  0  0  0  0  0  0  0
   60.3345   29.6660   47.5637 H   0  0  0  0  0  0  0  0  0  0  0  0
   58.9474   30.2355   48.5858 H   0  0  0  0  0  0  0  0  0  0  0  0
   59.1144   27.6940   48.0595 H   0  0  0  0  0  0  0  0  0  0  0  0
   57.5190   28.5468   47.8228 H   0  0  0  0  0  0  0  0  0  0  0  0
  1  2  2  0
  2  3  1  0
  3  4  2  0
  4  5  1  0
  5  6  2  0
  6  7  1  0
  6  8  1  0
  8  9  1  0
  9 10  1  0
 10 11  2  0
 11 12  1  0
 12 13  2  0
 13 14  1  0
 14 15  1  0
 14 16  2  0
 16 17  1  0
 17 18  1  0
 18 19  1  0
  7  2  1  0
 17  8  2  0
 19  5  1  0
 16 10  1  0
  4 20  1  0
  7 21  1  0
 11 22  1  0
 12 23  1  0
 13 24  1  0
 18 25  1  0
 18 26  1  0
 19 27  1  0
 19 28  1  0
M  END
>  <UniqueID>  (79) 
74

>  <SMILES>  (79) 
O=c1ncc2c([nH]1)-c1sc3cccc(F)c3c1CC2

>  <Energy>  (79) 
69.99534391745088

>  <Genealogy>  (79) 
O=c1ncc2c([nH]1)-c1sc3cccc(F)c3c1CC2 (3D coordinates assigned)
O=c1ncc2c([nH]1)-c1sc3cccc(F)c3c1CC2 (nonaromatic ring conformer: 69.99534391745088 kcal/mol)

>  <smiles>  (79) 
O=c1ncc2c([nH]1)-c1sc3cccc(F)c3c1CC2

>  <score_type>  (79) 
oracle

>  <origin>  (79) 
adg

>  <m_score__min__energy>  (79) 
-6.9500000000000002

>  <m_primary>  (79) 
energy

$$$$
79:0
     RDKit          3D

 41 44  0  0  1  0  0  0  0  0999 V2000
   57.0690   22.3100   43.5060 C   0  0  0  0  0  0  0  0  0  0  0  0
   56.1830   23.1600   44.3450 C   0  0  0  0  0  0  0  0  0  0  0  0
   56.7180   24.1000   45.2010 C   0  0  0  0  0  0  0  0  0  0  0  0
   55.8220   24.8450   45.9420 C   0  0  0  0  0  0  0  0  0  0  0  0
   56.2750   25.7370   46.7560 N   0  0  0  0  0  0  0  0  0  0  0  0
   56.8980   26.9470   46.3570 C   0  0  0  0  0  0  0  0  0  0  0  0
   58.0710   27.2700   46.6830 O   0  0  0  0  0  0  0  0  0  0  0  0
   56.1220   27.8270   45.5400 N   0  0  0  0  0  0  0  0  0  0  0  0
   56.6070   29.0720   45.0640 C   0  0  0  0  0  0  0  0  0  0  0  0
   56.2420   29.4250   43.7710 C   0  0  0  0  0  0  0  0  0  0  0  0
   56.6440   30.6060   43.1840 C   0  0  0  0  0  0  0  0  0  0  0  0
   57.4480   31.4760   43.9220 C   0  0  0  0  0  0  0  0  0  0  0  0
   57.8410   32.6440   43.3330 C   0  0  0  0  0  0  0  0  0  0  0  0
   58.6330   33.5010   44.0610 C   0  0  0  0  0  0  0  0  0  0  0  0
   59.0230   33.2020   45.3400 C   0  0  0  0  0  0  0  0  0  0  0  0
   58.6150   32.0110   45.9240 C   0  0  0  0  0  0  0  0  0  0  0  0
   57.8190   31.1280   45.2210 C   0  0  0  0  0  0  0  0  0  0  0  0
   57.3960   29.9250   45.7880 C   0  0  0  0  0  0  0  0  0  0  0  0
   54.4850   24.6320   45.8060 N   0  0  0  0  0  0  0  0  0  0  0  0
   53.9990   23.7070   44.9630 C   0  0  0  0  0  0  0  0  0  0  0  0
   52.5840   23.5690   44.9020 N   0  0  0  0  0  0  0  0  0  0  0  0
   51.6500   24.4490   44.5160 C   0  0  0  0  0  0  0  0  0  0  0  0
   50.4320   23.8720   44.6260 N   0  0  0  0  0  0  0  0  0  0  0  0
   50.6020   22.6130   45.0860 C   0  0  0  0  0  0  0  0  0  0  0  0
   51.9320   22.4680   45.2410 N   0  0  0  0  0  0  0  0  0  0  0  0
   54.8460   22.9640   44.2260 N   0  0  0  0  0  0  0  0  0  0  0  0
   57.7097   21.6953   44.1554 H   0  0  0  0  0  0  0  0  0  0  0  0
   56.4546   21.6548   42.8710 H   0  0  0  0  0  0  0  0  0  0  0  0
   57.6981   22.9511   42.8710 H   0  0  0  0  0  0  0  0  0  0  0  0
   57.8043   24.2488   45.2890 H   0  0  0  0  0  0  0  0  0  0  0  0
   55.1460   27.5710   45.2620 H   0  0  0  0  0  0  0  0  0  0  0  0
   55.6081   28.7361   43.1935 H   0  0  0  0  0  0  0  0  0  0  0  0
   56.3381   30.8568   42.1576 H   0  0  0  0  0  0  0  0  0  0  0  0
   57.5331   32.8920   42.3065 H   0  0  0  0  0  0  0  0  0  0  0  0
   58.9606   34.4475   43.6063 H   0  0  0  0  0  0  0  0  0  0  0  0
   59.6572   33.9034   45.9019 H   0  0  0  0  0  0  0  0  0  0  0  0
   58.9268   31.7693   46.9508 H   0  0  0  0  0  0  0  0  0  0  0  0
   57.6956   29.6630   46.8135 H   0  0  0  0  0  0  0  0  0  0  0  0
   51.8428   25.4740   44.1665 H   0  0  0  0  0  0  0  0  0  0  0  0
   49.8209   21.8659   45.2903 H   0  0  0  0  0  0  0  0  0  0  0  0
   54.4430   22.2460   43.5730 H   0  0  0  0  0  0  0  0  0  0  0  0
  1  2  1  0
  2  3  2  0
  3  4  1  0
  4  5  2  0
  5  6  1  0
  6  7  2  0
  6  8  1  0
  8  9  1  0
  9 10  2  0
 10 11  1  0
 11 12  2  0
 12 13  1  0
 13 14  2  0
 14 15  1  0
 15 16  2  0
 16 17  1  0
 17 18  2  0
  4 19  1  0
 19 20  2  0
 20 21  1  0
 21 22  1  0
 22 23  2  0
 23 24  1  0
 24 25  2  0
 20 26  1  0
 26  2  1  0
 18  9  1  0
 25 21  1  0
 17 12  1  0
  1 27  1  0
  1 28  1  0
  1 29  1  0
  3 30  1  0
  8 31  1  0
 10 32  1  0
 11 33  1  0
 13 34  1  0
 14 35  1  0
 15 36  1  0
 16 37  1  0
 18 38  1  0
 22 39  1  0
 24 40  1  0
 26 41  1  0
M  END
>  <smiles>  (80) 
Cc1cc(=NC(=O)Nc2ccc3ccccc3c2)nc(-n2cncn2)[nH]1

>  <score_type>  (80) 
oracle

>  <origin>  (80) 
adg

>  <m_score__min__energy>  (80) 
-8.8000000000000007

>  <m_primary>  (80) 
energy

$$$$
80:0
     RDKit          3D

 43 46  0  0  0  0  0  0  0  0999 V2000
   58.3710   27.9820   53.1190 O   0  0  0  0  0  0  0  0  0  0  0  0
   57.8480   29.1300   53.0910 C   0  0  0  0  0  0  0  0  0  0  0  0
   56.9310   29.5210   54.2200 C   0  0  0  0  0  0  0  0  0  0  0  0
   55.4890   29.4660   53.7990 C   0  0  0  0  0  0  0  0  0  0  0  0
   54.6830   28.3800   54.1670 C   0  0  0  0  0  0  0  0  0  0  0  0
   53.3440   28.3600   53.7750 C   0  0  0  0  0  0  0  0  0  0  0  0
   52.6150   27.3820   54.0950 O   0  0  0  0  0  0  0  0  0  0  0  0
   52.8290   29.4340   53.0300 C   0  0  0  0  0  0  0  0  0  0  0  0
   51.4890   29.4780   52.6030 C   0  0  0  0  0  0  0  0  0  0  0  0
   51.0260   30.5740   51.8660 C   0  0  0  0  0  0  0  0  0  0  0  0
   51.8900   31.6280   51.5520 C   0  0  0  0  0  0  0  0  0  0  0  0
   51.4230   32.7120   50.8190 O   0  0  0  0  0  0  0  0  0  0  0  0
   53.2220   31.5910   51.9720 C   0  0  0  0  0  0  0  0  0  0  0  0
   53.6990   30.5020   52.7090 C   0  0  0  0  0  0  0  0  0  0  0  0
   54.9680   30.4750   53.1030 O   0  0  0  0  0  0  0  0  0  0  0  0
   58.1270   30.0240   51.9360 C   0  0  0  0  0  0  0  0  0  0  0  0
   57.3970   31.2190   51.8180 C   0  0  0  0  0  0  0  0  0  0  0  0
   57.6270   32.0990   50.7590 C   0  0  0  0  0  0  0  0  0  0  0  0
   58.5920   31.8050   49.7850 C   0  0  0  0  0  0  0  0  0  0  0  0
   58.8410   32.7430   48.6610 C   0  0  0  0  0  0  0  0  0  0  0  0
   59.8030   33.7620   48.7800 C   0  0  0  0  0  0  0  0  0  0  0  0
   60.0340   34.6450   47.7230 C   0  0  0  0  0  0  0  0  0  0  0  0
   59.3140   34.5250   46.5310 C   0  0  0  0  0  0  0  0  0  0  0  0
   59.6340   35.6550   45.2230 Cl  0  0  0  0  0  0  0  0  0  0  0  0
   58.3500   33.5110   46.3990 C   0  0  0  0  0  0  0  0  0  0  0  0
   57.4240   33.3220   44.9150 Cl  0  0  0  0  0  0  0  0  0  0  0  0
   58.1180   32.6280   47.4600 C   0  0  0  0  0  0  0  0  0  0  0  0
   59.3130   30.6040   49.8860 C   0  0  0  0  0  0  0  0  0  0  0  0
   59.0830   29.7110   50.9440 C   0  0  0  0  0  0  0  0  0  0  0  0
   59.7850   28.5090   50.9830 O   0  0  0  0  0  0  0  0  0  0  0  0
   57.0848   28.8298   55.0618 H   0  0  0  0  0  0  0  0  0  0  0  0
   57.1664   30.5541   54.5155 H   0  0  0  0  0  0  0  0  0  0  0  0
   55.1015   27.5524   54.7585 H   0  0  0  0  0  0  0  0  0  0  0  0
   50.8058   28.6515   52.8483 H   0  0  0  0  0  0  0  0  0  0  0  0
   49.9783   30.6066   51.5324 H   0  0  0  0  0  0  0  0  0  0  0  0
   53.8984   32.4217   51.7221 H   0  0  0  0  0  0  0  0  0  0  0  0
   56.6335   31.4645   52.5708 H   0  0  0  0  0  0  0  0  0  0  0  0
   57.0465   33.0307   50.6880 H   0  0  0  0  0  0  0  0  0  0  0  0
   60.3776   33.8642   49.7124 H   0  0  0  0  0  0  0  0  0  0  0  0
   60.7871   35.4397   47.8292 H   0  0  0  0  0  0  0  0  0  0  0  0
   57.3623   31.8358   47.3534 H   0  0  0  0  0  0  0  0  0  0  0  0
   60.0688   30.3598   49.1250 H   0  0  0  0  0  0  0  0  0  0  0  0
   59.7690   27.9040   51.7970 H   0  0  0  0  0  0  0  0  0  0  0  0
  1  2  2  0
  2  3  1  0
  3  4  1  0
  4  5  2  0
  5  6  1  0
  6  7  2  0
  6  8  1  0
  8  9  2  0
  9 10  1  0
 10 11  2  0
 11 12  1  0
 11 13  1  0
 13 14  2  0
 14 15  1  0
  2 16  1  0
 16 17  2  0
 17 18  1  0
 18 19  2  0
 19 20  1  0
 20 21  2  0
 21 22  1  0
 22 23  2  0
 23 24  1  0
 23 25  1  0
 25 26  1  0
 25 27  2  0
 19 28  1  0
 28 29  2  0
 29 30  1  0
 15  4  1  0
 29 16  1  0
 14  8  1  0
 27 20  1  0
  3 31  1  0
  3 32  1  0
  5 33  1  0
  9 34  1  0
 10 35  1  0
 13 36  1  0
 17 37  1  0
 18 38  1  0
 21 39  1  0
 22 40  1  0
 27 41  1  0
 28 42  1  0
 30 43  1  0
M  CHG  1  12  -1
M  END
>  <UniqueID>  (81) 
75

>  <SMILES>  (81) 
O=C(Cc1cc(=O)c2ccc([O-])cc2o1)c1ccc(-c2ccc(Cl)c(Cl)c2)cc1O

>  <Energy>  (81) 
62.61694952007469

>  <Genealogy>  (81) 
O=C(Cc1cc(=O)c2ccc([O-])cc2o1)c1ccc(-c2ccc(Cl)c(Cl)c2)cc1O (protonated)
O=C(Cc1cc(=O)c2ccc([O-])cc2o1)c1ccc(-c2ccc(Cl)c(Cl)c2)cc1O (3D coordinates assigned)
O=C(Cc1cc(=O)c2ccc([O-])cc2o1)c1ccc(-c2ccc(Cl)c(Cl)c2)cc1O (optimized conformer: 62.61694952007469 kcal/mol)

>  <smiles>  (81) 
O=C(Cc1cc(=O)c2ccc(O)cc2o1)c1ccc(-c2ccc(Cl)c(Cl)c2)cc1O

>  <score_type>  (81) 
oracle

>  <origin>  (81) 
adg

>  <m_score__min__energy>  (81) 
-12.07

>  <m_primary>  (81) 
energy

$$$$
81:0
     RDKit          3D

 47 50  0  0  0  0  0  0  0  0999 V2000
   57.5260   26.6050   44.4660 O   0  0  0  0  0  0  0  0  0  0  0  0
   57.0020   27.2070   45.4430 C   0  0  0  0  0  0  0  0  0  0  0  0
   57.1470   26.6470   46.8220 C   0  0  0  0  0  0  0  0  0  0  0  0
   58.4590   26.8930   47.3280 O   0  0  0  0  0  0  0  0  0  0  0  0
   59.2270   28.0400   47.0650 C   0  0  0  0  0  0  0  0  0  0  0  0
   59.2220   29.0730   48.0110 C   0  0  0  0  0  0  0  0  0  0  0  0
   59.9800   30.2290   47.8050 C   0  0  0  0  0  0  0  0  0  0  0  0
   60.7470   30.3650   46.6460 C   0  0  0  0  0  0  0  0  0  0  0  0
   60.7560   29.3450   45.6910 C   0  0  0  0  0  0  0  0  0  0  0  0
   59.9990   28.1870   45.8940 C   0  0  0  0  0  0  0  0  0  0  0  0
   56.2310   28.3960   45.2360 N   0  0  0  0  0  0  0  0  0  0  0  0
   56.6830   29.5620   44.5360 C   0  0  0  0  0  0  0  0  0  0  0  0
   56.4040   29.6850   43.1700 C   0  0  0  0  0  0  0  0  0  0  0  0
   56.8090   30.8210   42.4670 C   0  0  0  0  0  0  0  0  0  0  0  0
   57.4810   31.8530   43.1260 C   0  0  0  0  0  0  0  0  0  0  0  0
   57.7430   31.7610   44.5030 C   0  0  0  0  0  0  0  0  0  0  0  0
   58.4280   32.8650   45.2030 C   0  0  0  0  0  0  0  0  0  0  0  0
   58.7450   32.8510   46.5130 N   0  0  0  0  0  0  0  0  0  0  0  0
   59.3340   34.0540   46.6570 C   0  0  0  0  0  0  0  0  0  0  0  0
   59.9320   34.5320   47.9410 C   0  0  0  0  0  0  0  0  0  0  0  0
   61.3390   34.0220   48.0760 C   0  0  0  0  0  0  0  0  0  0  0  0
   62.0210   33.5210   46.9530 C   0  0  0  0  0  0  0  0  0  0  0  0
   63.3440   33.0830   47.0700 C   0  0  0  0  0  0  0  0  0  0  0  0
   63.9970   33.1490   48.3040 C   0  0  0  0  0  0  0  0  0  0  0  0
   63.3300   33.6590   49.4220 C   0  0  0  0  0  0  0  0  0  0  0  0
   62.0080   34.0990   49.3090 C   0  0  0  0  0  0  0  0  0  0  0  0
   59.3860   34.7490   45.5050 N   0  0  0  0  0  0  0  0  0  0  0  0
   58.8090   33.9820   44.6310 O   0  0  0  0  0  0  0  0  0  0  0  0
   57.3380   30.6130   45.2040 C   0  0  0  0  0  0  0  0  0  0  0  0
   56.4088   27.1222   47.4848 H   0  0  0  0  0  0  0  0  0  0  0  0
   56.9794   25.5605   46.7833 H   0  0  0  0  0  0  0  0  0  0  0  0
   58.6163   28.9735   48.9238 H   0  0  0  0  0  0  0  0  0  0  0  0
   59.9724   31.0323   48.5564 H   0  0  0  0  0  0  0  0  0  0  0  0
   61.3439   31.2748   46.4849 H   0  0  0  0  0  0  0  0  0  0  0  0
   61.3597   29.4532   44.7779 H   0  0  0  0  0  0  0  0  0  0  0  0
   60.0057   27.3881   45.1379 H   0  0  0  0  0  0  0  0  0  0  0  0
   55.8628   28.8824   42.6477 H   0  0  0  0  0  0  0  0  0  0  0  0
   56.5982   30.9037   41.3906 H   0  0  0  0  0  0  0  0  0  0  0  0
   57.8063   32.7412   42.5645 H   0  0  0  0  0  0  0  0  0  0  0  0
   59.9410   35.6319   47.9510 H   0  0  0  0  0  0  0  0  0  0  0  0
   59.3300   34.1553   48.7811 H   0  0  0  0  0  0  0  0  0  0  0  0
   61.5121   33.4734   45.9790 H   0  0  0  0  0  0  0  0  0  0  0  0
   63.8712   32.6861   46.1899 H   0  0  0  0  0  0  0  0  0  0  0  0
   65.0360   32.7996   48.3956 H   0  0  0  0  0  0  0  0  0  0  0  0
   63.8462   33.7141   50.3918 H   0  0  0  0  0  0  0  0  0  0  0  0
   61.4894   34.5072   50.1890 H   0  0  0  0  0  0  0  0  0  0  0  0
   57.5344   30.5351   46.2835 H   0  0  0  0  0  0  0  0  0  0  0  0
  1  2  2  0
  2  3  1  0
  3  4  1  0
  4  5  1  0
  5  6  2  0
  6  7  1  0
  7  8  2  0
  8  9  1  0
  9 10  2  0
  2 11  1  0
 11 12  1  0
 12 13  2  0
 13 14  1  0
 14 15  2  0
 15 16  1  0
 16 17  1  0
 17 18  2  0
 18 19  1  0
 19 20  1  0
 20 21  1  0
 21 22  2  0
 22 23  1  0
 23 24  2  0
 24 25  1  0
 25 26  2  0
 19 27  2  0
 27 28  1  0
 16 29  2  0
 10  5  1  0
 29 12  1  0
 28 17  1  0
 26 21  1  0
  3 30  1  0
  3 31  1  0
  6 32  1  0
  7 33  1  0
  8 34  1  0
  9 35  1  0
 10 36  1  0
 13 37  1  0
 14 38  1  0
 15 39  1  0
 20 40  1  0
 20 41  1  0
 22 42  1  0
 23 43  1  0
 24 44  1  0
 25 45  1  0
 26 46  1  0
 29 47  1  0
M  CHG  1  11  -1
M  END
>  <UniqueID>  (82) 
76

>  <SMILES>  (82) 
O=C(COc1ccccc1)[N-]c1cccc(-c2nc(Cc3ccccc3)no2)c1

>  <Energy>  (82) 
84.66975238239785

>  <Genealogy>  (82) 
O=C(COc1ccccc1)[N-]c1cccc(-c2nc(Cc3ccccc3)no2)c1 (protonated)
O=C(COc1ccccc1)[N-]c1cccc(-c2nc(Cc3ccccc3)no2)c1 (3D coordinates assigned)
O=C(COc1ccccc1)[N-]c1cccc(-c2nc(Cc3ccccc3)no2)c1 (optimized conformer: 84.66975238239785 kcal/mol)

>  <smiles>  (82) 
O=C(COc1ccccc1)Nc1cccc(-c2nc(Cc3ccccc3)no2)c1

>  <score_type>  (82) 
oracle

>  <origin>  (82) 
adg

>  <m_score__min__energy>  (82) 
-11.17

>  <m_primary>  (82) 
energy

$$$$
82:0
     RDKit          3D

 58 61  0  0  1  0  0  0  0  0999 V2000
   63.3150   31.7480   51.6420 C   0  0  0  0  0  0  0  0  0  0  0  0
   64.3870   32.5750   51.1280 N   0  0  0  0  0  0  0  0  0  0  0  0
   64.7470   32.2060   49.7710 C   0  0  0  0  0  0  0  0  0  0  0  0
   64.3680   33.2840   48.7800 C   0  0  0  0  0  0  0  0  0  0  0  0
   63.0910   33.8770   49.1200 N   0  0  0  0  0  0  0  0  0  0  0  0
   61.9620   33.8780   48.2520 C   0  0  0  0  0  0  0  0  0  0  0  0
   60.6780   33.9440   48.7490 C   0  0  0  0  0  0  0  0  0  0  0  0
   59.5600   33.9630   47.9050 C   0  0  0  0  0  0  0  0  0  0  0  0
   59.6980   33.9150   46.5380 C   0  0  0  0  0  0  0  0  0  0  0  0
   58.5820   33.9390   45.6610 N   0  0  0  0  0  0  0  0  0  0  0  0
   58.1470   32.9650   44.9730 C   0  0  0  0  0  0  0  0  0  0  0  0
   58.0780   33.0640   43.6160 N   0  0  0  0  0  0  0  0  0  0  0  0
   57.6120   32.0270   42.8840 C   0  0  0  0  0  0  0  0  0  0  0  0
   57.2180   30.8900   43.5780 C   0  0  0  0  0  0  0  0  0  0  0  0
   56.6160   29.5590   42.6220 Cl  0  0  0  0  0  0  0  0  0  0  0  0
   57.2810   30.7740   44.9380 C   0  0  0  0  0  0  0  0  0  0  0  0
   56.9110   29.6870   45.6840 O   0  0  0  0  0  0  0  0  0  0  0  0
   57.6670   28.5410   45.6900 C   0  0  0  0  0  0  0  0  0  0  0  0
   59.0310   28.6760   45.8980 C   0  0  0  0  0  0  0  0  0  0  0  0
   59.7830   27.5270   45.9010 C   0  0  0  0  0  0  0  0  0  0  0  0
   59.1780   26.2900   45.7030 C   0  0  0  0  0  0  0  0  0  0  0  0
   57.8280   26.1410   45.4970 C   0  0  0  0  0  0  0  0  0  0  0  0
   57.1560   24.9230   45.2920 N   0  0  0  0  0  0  0  0  0  0  0  0
   56.9480   24.2610   44.0730 C   0  0  0  0  0  0  0  0  0  0  0  0
   57.3610   24.7110   42.9990 O   0  0  0  0  0  0  0  0  0  0  0  0
   56.2080   22.9680   44.0400 C   0  0  0  0  0  0  0  0  0  0  0  0
   55.9540   22.6770   42.7010 O   0  0  0  0  0  0  0  0  0  0  0  0
   57.0850   27.3210   45.4970 C   0  0  0  0  0  0  0  0  0  0  0  0
   57.7610   31.8530   45.6230 N   0  0  0  0  0  0  0  0  0  0  0  0
   60.9780   33.8480   46.0320 C   0  0  0  0  0  0  0  0  0  0  0  0
   62.0820   33.8310   46.8730 C   0  0  0  0  0  0  0  0  0  0  0  0
   63.2870   33.7550   46.2740 F   0  0  0  0  0  0  0  0  0  0  0  0
   63.0080   34.4900   50.4510 C   0  0  0  0  0  0  0  0  0  0  0  0
   64.1750   33.9840   51.2780 C   0  0  0  0  0  0  0  0  0  0  0  0
   63.3350   31.7634   52.7417 H   0  0  0  0  0  0  0  0  0  0  0  0
   62.3493   32.1373   51.2873 H   0  0  0  0  0  0  0  0  0  0  0  0
   63.4465   30.7151   51.2873 H   0  0  0  0  0  0  0  0  0  0  0  0
   65.8337   32.0427   49.7222 H   0  0  0  0  0  0  0  0  0  0  0  0
   64.1989   31.2894   49.5076 H   0  0  0  0  0  0  0  0  0  0  0  0
   65.1410   34.0665   48.7868 H   0  0  0  0  0  0  0  0  0  0  0  0
   64.2881   32.8293   47.7816 H   0  0  0  0  0  0  0  0  0  0  0  0
   60.5271   33.9828   49.8379 H   0  0  0  0  0  0  0  0  0  0  0  0
   58.5530   34.0173   48.3443 H   0  0  0  0  0  0  0  0  0  0  0  0
   57.5477   32.0814   41.7872 H   0  0  0  0  0  0  0  0  0  0  0  0
   59.4918   29.6626   46.0542 H   0  0  0  0  0  0  0  0  0  0  0  0
   60.8698   27.5850   46.0609 H   0  0  0  0  0  0  0  0  0  0  0  0
   59.8098   25.3896   45.7118 H   0  0  0  0  0  0  0  0  0  0  0  0
   56.7540   24.4410   46.1530 H   0  0  0  0  0  0  0  0  0  0  0  0
   56.8189   22.1717   44.4902 H   0  0  0  0  0  0  0  0  0  0  0  0
   55.2703   23.0381   44.6108 H   0  0  0  0  0  0  0  0  0  0  0  0
   56.4050   23.3850   42.1580 H   0  0  0  0  0  0  0  0  0  0  0  0
   55.9980   27.2674   45.3368 H   0  0  0  0  0  0  0  0  0  0  0  0
   57.8300   31.8190   46.6600 H   0  0  0  0  0  0  0  0  0  0  0  0
   61.1273   33.8073   44.9429 H   0  0  0  0  0  0  0  0  0  0  0  0
   63.0621   35.5850   50.3610 H   0  0  0  0  0  0  0  0  0  0  0  0
   62.0560   34.2242   50.9337 H   0  0  0  0  0  0  0  0  0  0  0  0
   65.0862   34.5129   50.9620 H   0  0  0  0  0  0  0  0  0  0  0  0
   63.9411   34.1749   52.3358 H   0  0  0  0  0  0  0  0  0  0  0  0
  1  2  1  0
  2  3  1  0
  3  4  1  0
  4  5  1  0
  5  6  1  0
  6  7  2  0
  7  8  1  0
  8  9  2  0
  9 10  1  0
 10 11  2  0
 11 12  1  0
 12 13  2  0
 13 14  1  0
 14 15  1  0
 14 16  2  0
 16 17  1  0
 17 18  1  0
 18 19  2  0
 19 20  1  0
 20 21  2  0
 21 22  1  0
 22 23  1  0
 23 24  1  0
 24 25  2  0
 24 26  1  0
 26 27  1  0
 22 28  2  0
 16 29  1  0
  9 30  1  0
 30 31  2  0
 31 32  1  0
  5 33  1  0
 33 34  1  0
 34  2  1  0
 31  6  1  0
 29 11  1  0
 28 18  1  0
  1 35  1  0
  1 36  1  0
  1 37  1  0
  3 38  1  0
  3 39  1  0
  4 40  1  0
  4 41  1  0
  7 42  1  0
  8 43  1  0
 13 44  1  0
 19 45  1  0
 20 46  1  0
 21 47  1  0
 23 48  1  0
 26 49  1  0
 26 50  1  0
 27 51  1  0
 28 52  1  0
 29 53  1  0
 30 54  1  0
 33 55  1  0
 33 56  1  0
 34 57  1  0
 34 58  1  0
M  END
>  <smiles>  (83) 
CN1CCN(c2ccc(N=c3ncc(Cl)c(Oc4cccc(NC(=O)CO)c4)[nH]3)cc2F)CC1

>  <score_type>  (83) 
oracle

>  <origin>  (83) 
adg

>  <m_score__min__energy>  (83) 
-9.5199999999999996

>  <m_primary>  (83) 
energy

$$$$
83:0
     RDKit          3D

 28 29  0  0  0  0  0  0  0  0999 V2000
   56.8192   31.9362   43.2905 H   0  0  0  0  0  0  0  0  0  0  0  0
   57.2260   31.6410   44.2690 C   0  0  0  0  0  0  0  0  0  0  0  0
   57.0600   30.3540   44.6480 C   0  0  0  0  0  0  0  0  0  0  0  0
   55.7680   29.6390   44.5020 C   0  0  0  0  0  0  0  0  0  0  0  0
   54.8590   30.0850   43.7530 O   0  0  0  0  0  0  0  0  0  0  0  0
   55.5290   28.4850   45.2380 O   0  0  0  0  0  0  0  0  0  0  0  0
   58.1920   29.6400   45.2940 C   0  0  0  0  0  0  0  0  0  0  0  0
   58.1440   29.3240   46.6660 C   0  0  0  0  0  0  0  0  0  0  0  0
   57.2649   29.6099   47.2622 H   0  0  0  0  0  0  0  0  0  0  0  0
   59.2070   28.6490   47.2750 C   0  0  0  0  0  0  0  0  0  0  0  0
   59.1611   28.4061   48.3469 H   0  0  0  0  0  0  0  0  0  0  0  0
   60.3260   28.2830   46.5250 C   0  0  0  0  0  0  0  0  0  0  0  0
   61.1615   27.7536   47.0064 H   0  0  0  0  0  0  0  0  0  0  0  0
   60.3850   28.5890   45.1630 C   0  0  0  0  0  0  0  0  0  0  0  0
   61.2665   28.2982   44.5727 H   0  0  0  0  0  0  0  0  0  0  0  0
   59.3260   29.2640   44.5490 C   0  0  0  0  0  0  0  0  0  0  0  0
   59.3790   29.5030   43.4766 H   0  0  0  0  0  0  0  0  0  0  0  0
   57.9100   32.6840   45.0630 C   0  0  0  0  0  0  0  0  0  0  0  0
   58.6360   33.6870   44.4000 C   0  0  0  0  0  0  0  0  0  0  0  0
   58.7205   33.6678   43.3034 H   0  0  0  0  0  0  0  0  0  0  0  0
   59.2520   34.7100   45.1280 C   0  0  0  0  0  0  0  0  0  0  0  0
   59.8328   35.4836   44.6043 H   0  0  0  0  0  0  0  0  0  0  0  0
   59.1310   34.7510   46.5190 C   0  0  0  0  0  0  0  0  0  0  0  0
   59.6227   35.5521   47.0904 H   0  0  0  0  0  0  0  0  0  0  0  0
   58.3850   33.7740   47.1850 C   0  0  0  0  0  0  0  0  0  0  0  0
   58.2842   33.8110   48.2797 H   0  0  0  0  0  0  0  0  0  0  0  0
   57.7670   32.7500   46.4610 C   0  0  0  0  0  0  0  0  0  0  0  0
   57.1665   31.9929   46.9866 H   0  0  0  0  0  0  0  0  0  0  0  0
  1  2  1  0
  2  3  2  0
  3  4  1  0
  4  5  2  0
  4  6  1  0
  3  7  1  0
  7  8  2  0
  8  9  1  0
  8 10  1  0
 10 11  1  0
 10 12  2  0
 12 13  1  0
 12 14  1  0
 14 15  1  0
 14 16  2  0
 16 17  1  0
  2 18  1  0
 18 19  2  0
 19 20  1  0
 19 21  1  0
 21 22  1  0
 21 23  2  0
 23 24  1  0
 23 25  1  0
 25 26  1  0
 25 27  2  0
 27 28  1  0
 16  7  1  0
 27 18  1  0
M  CHG  1   6  -1
M  END
>  <UniqueID>  (84) 
77

>  <SMILES>  (84) 
O=C([O-])/C(=C\c1ccccc1)c1ccccc1

>  <Energy>  (84) 
43.13831012520582

>  <Genealogy>  (84) 
O=C([O-])C(=Cc1ccccc1)c1ccccc1 (protonated)
O=C([O-])/C(=C\c1ccccc1)c1ccccc1 (cis-trans isomerization)
O=C([O-])/C(=C\c1ccccc1)c1ccccc1 (3D coordinates assigned)
O=C([O-])/C(=C\c1ccccc1)c1ccccc1 (optimized conformer: 43.13831012520582 kcal/mol)

>  <smiles>  (84) 
O=C(O)C(=Cc1ccccc1)c1ccccc1

>  <score_type>  (84) 
oracle

>  <origin>  (84) 
adg

>  <m_score__min__energy>  (84) 
-9.3699999999999992

>  <m_primary>  (84) 
energy

$$$$
84:0
     RDKit          3D

 39 41  0  0  0  0  0  0  0  0999 V2000
   56.8780   22.1100   43.3370 C   0  0  0  0  0  0  0  0  0  0  0  0
   57.8950   22.0980   44.2940 C   0  0  0  0  0  0  0  0  0  0  0  0
   58.2930   23.2920   44.8990 C   0  0  0  0  0  0  0  0  0  0  0  0
   57.6600   24.4910   44.5380 C   0  0  0  0  0  0  0  0  0  0  0  0
   58.0630   25.7890   45.1740 C   0  0  0  0  0  0  0  0  0  0  0  0
   57.3990   26.9150   44.5150 N   0  0  0  0  0  0  0  0  0  0  0  0
   57.6530   28.3010   44.8160 C   0  0  0  0  0  0  0  0  0  0  0  0
   56.9330   29.2920   44.1310 C   0  0  0  0  0  0  0  0  0  0  0  0
   57.1570   30.6460   44.3960 C   0  0  0  0  0  0  0  0  0  0  0  0
   58.1020   31.0360   45.3580 C   0  0  0  0  0  0  0  0  0  0  0  0
   58.3430   32.4300   45.6310 N   0  0  0  0  0  0  0  0  0  0  0  0
   58.3120   33.4140   44.5450 C   0  0  0  0  0  0  0  0  0  0  0  0
   59.2170   34.5980   44.8970 C   0  0  0  0  0  0  0  0  0  0  0  0
   58.8910   35.1200   46.1710 O   0  0  0  0  0  0  0  0  0  0  0  0
   59.1610   34.1530   47.1690 C   0  0  0  0  0  0  0  0  0  0  0  0
   58.2500   32.9330   47.0050 C   0  0  0  0  0  0  0  0  0  0  0  0
   58.8230   30.0470   46.0450 C   0  0  0  0  0  0  0  0  0  0  0  0
   58.6000   28.6930   45.7810 C   0  0  0  0  0  0  0  0  0  0  0  0
   56.6740   24.4740   43.5980 N   0  0  0  0  0  0  0  0  0  0  0  0
   56.2730   23.3220   42.9970 C   0  0  0  0  0  0  0  0  0  0  0  0
   56.5567   21.1744   42.8559 H   0  0  0  0  0  0  0  0  0  0  0  0
   58.3811   21.1508   44.5704 H   0  0  0  0  0  0  0  0  0  0  0  0
   59.0953   23.2925   45.6516 H   0  0  0  0  0  0  0  0  0  0  0  0
   57.7794   25.7740   46.2367 H   0  0  0  0  0  0  0  0  0  0  0  0
   59.1515   25.9106   45.0717 H   0  0  0  0  0  0  0  0  0  0  0  0
   56.7250   26.6870   43.7500 H   0  0  0  0  0  0  0  0  0  0  0  0
   56.1854   29.0004   43.3786 H   0  0  0  0  0  0  0  0  0  0  0  0
   56.5888   31.4113   43.8469 H   0  0  0  0  0  0  0  0  0  0  0  0
   58.6681   32.9449   43.6159 H   0  0  0  0  0  0  0  0  0  0  0  0
   57.2811   33.7715   44.4060 H   0  0  0  0  0  0  0  0  0  0  0  0
   60.2644   34.2618   44.9025 H   0  0  0  0  0  0  0  0  0  0  0  0
   59.0716   35.3878   44.1453 H   0  0  0  0  0  0  0  0  0  0  0  0
   60.2103   33.8332   47.0867 H   0  0  0  0  0  0  0  0  0  0  0  0
   58.9739   34.6026   48.1553 H   0  0  0  0  0  0  0  0  0  0  0  0
   58.5641   32.1450   47.7052 H   0  0  0  0  0  0  0  0  0  0  0  0
   57.2104   33.2225   47.2181 H   0  0  0  0  0  0  0  0  0  0  0  0
   59.5698   30.3402   46.7975 H   0  0  0  0  0  0  0  0  0  0  0  0
   59.1682   27.9284   46.3309 H   0  0  0  0  0  0  0  0  0  0  0  0
   55.4722   23.3447   42.2432 H   0  0  0  0  0  0  0  0  0  0  0  0
  1  2  2  0
  2  3  1  0
  3  4  2  0
  4  5  1  0
  5  6  1  0
  6  7  1  0
  7  8  2  0
  8  9  1  0
  9 10  2  0
 10 11  1  0
 11 12  1  0
 12 13  1  0
 13 14  1  0
 14 15  1  0
 15 16  1  0
 10 17  1  0
 17 18  2  0
  4 19  1  0
 19 20  2  0
 20  1  1  0
 18  7  1  0
 16 11  1  0
  1 21  1  0
  2 22  1  0
  3 23  1  0
  5 24  1  0
  5 25  1  0
  6 26  1  0
  8 27  1  0
  9 28  1  0
 12 29  1  0
 12 30  1  0
 13 31  1  0
 13 32  1  0
 15 33  1  0
 15 34  1  0
 16 35  1  0
 16 36  1  0
 17 37  1  0
 18 38  1  0
 20 39  1  0
M  END
>  <UniqueID>  (85) 
78

>  <SMILES>  (85) 
c1ccc(CNc2ccc(N3CCOCC3)cc2)nc1

>  <Energy>  (85) 
45.205781020687226

>  <Genealogy>  (85) 
c1ccc(CNc2ccc(N3CCOCC3)cc2)nc1 (3D coordinates assigned)
c1ccc(CNc2ccc(N3CCOCC3)cc2)nc1 (nonaromatic ring conformer: 45.205781020687226 kcal/mol)

>  <smiles>  (85) 
c1ccc(CNc2ccc(N3CCOCC3)cc2)nc1

>  <score_type>  (85) 
oracle

>  <origin>  (85) 
adg

>  <m_score__min__energy>  (85) 
-6.8499999999999996

>  <m_primary>  (85) 
energy

$$$$
85:0
     RDKit          3D

 40 42  0  0  0  0  0  0  0  0999 V2000
   56.1791   30.3895   42.3715 H   0  0  0  0  0  0  0  0  0  0  0  0
   56.7090   30.3600   43.3350 C   0  0  0  0  0  0  0  0  0  0  0  0
   56.2620   29.3510   44.3140 C   0  0  0  0  0  0  0  0  0  0  0  0
   55.1470   29.4580   44.8910 O   0  0  0  0  0  0  0  0  0  0  0  0
   57.1100   28.2240   44.5710 N   0  0  0  0  0  0  0  0  0  0  0  0
   57.9030   27.9970   45.7460 C   0  0  0  0  0  0  0  0  0  0  0  0
   57.9940   26.7320   46.3530 C   0  0  0  0  0  0  0  0  0  0  0  0
   57.4396   25.8801   45.9324 H   0  0  0  0  0  0  0  0  0  0  0  0
   58.7870   26.5550   47.4890 C   0  0  0  0  0  0  0  0  0  0  0  0
   58.8384   25.5683   47.9724 H   0  0  0  0  0  0  0  0  0  0  0  0
   59.5150   27.6250   48.0140 C   0  0  0  0  0  0  0  0  0  0  0  0
   60.1231   27.4826   48.9195 H   0  0  0  0  0  0  0  0  0  0  0  0
   59.4730   28.8830   47.3890 C   0  0  0  0  0  0  0  0  0  0  0  0
   60.2010   30.0070   47.9140 N   0  0  0  0  0  0  0  0  0  0  0  0
   60.4260   29.9980   48.9340 H   0  0  0  0  0  0  0  0  0  0  0  0
   60.5700   31.1600   47.1350 C   0  0  0  0  0  0  0  0  0  0  0  0
   60.1200   31.3050   45.9670 O   0  0  0  0  0  0  0  0  0  0  0  0
   61.4390   32.2090   47.7140 C   0  0  0  0  0  0  0  0  0  0  0  0
   62.7850   32.2940   47.3120 C   0  0  0  0  0  0  0  0  0  0  0  0
   63.1759   31.5901   46.5625 H   0  0  0  0  0  0  0  0  0  0  0  0
   63.6290   33.2650   47.8570 C   0  0  0  0  0  0  0  0  0  0  0  0
   64.6793   33.3221   47.5352 H   0  0  0  0  0  0  0  0  0  0  0  0
   63.1430   34.1620   48.8080 C   0  0  0  0  0  0  0  0  0  0  0  0
   63.8098   34.9252   49.2357 H   0  0  0  0  0  0  0  0  0  0  0  0
   61.8100   34.0910   49.2170 C   0  0  0  0  0  0  0  0  0  0  0  0
   61.4301   34.8006   49.9667 H   0  0  0  0  0  0  0  0  0  0  0  0
   60.9530   33.1220   48.6790 C   0  0  0  0  0  0  0  0  0  0  0  0
   59.2710   33.1240   49.2010 Cl  0  0  0  0  0  0  0  0  0  0  0  0
   58.6550   29.0610   46.2620 C   0  0  0  0  0  0  0  0  0  0  0  0
   58.6037   30.0475   45.7782 H   0  0  0  0  0  0  0  0  0  0  0  0
   57.7020   31.2450   43.5110 C   0  0  0  0  0  0  0  0  0  0  0  0
   58.5844   31.1434   42.8621 H   0  0  0  0  0  0  0  0  0  0  0  0
   57.7160   32.3420   44.4970 C   0  0  0  0  0  0  0  0  0  0  0  0
   57.0300   32.3670   45.6180 O   0  0  0  0  0  0  0  0  0  0  0  0
   57.3180   33.4740   46.2620 C   0  0  0  0  0  0  0  0  0  0  0  0
   56.8889   33.7735   47.2296 H   0  0  0  0  0  0  0  0  0  0  0  0
   58.2400   34.2050   45.5420 C   0  0  0  0  0  0  0  0  0  0  0  0
   58.6768   35.1757   45.8194 H   0  0  0  0  0  0  0  0  0  0  0  0
   58.5030   33.4720   44.4040 C   0  0  0  0  0  0  0  0  0  0  0  0
   59.1961   33.7336   43.5909 H   0  0  0  0  0  0  0  0  0  0  0  0
  1  2  1  0
  2  3  1  0
  3  4  2  0
  3  5  1  0
  5  6  1  0
  6  7  2  0
  7  8  1  0
  7  9  1  0
  9 10  1  0
  9 11  2  0
 11 12  1  0
 11 13  1  0
 13 14  1  0
 14 15  1  0
 14 16  1  0
 16 17  2  0
 16 18  1  0
 18 19  2  0
 19 20  1  0
 19 21  1  0
 21 22  1  0
 21 23  2  0
 23 24  1  0
 23 25  1  0
 25 26  1  0
 25 27  2  0
 27 28  1  0
 13 29  2  0
 29 30  1  0
  2 31  2  0
 31 32  1  0
 31 33  1  0
 33 34  1  0
 34 35  1  0
 35 36  1  0
 35 37  2  0
 37 38  1  0
 37 39  1  0
 39 40  1  0
 29  6  1  0
 39 33  2  0
 27 18  1  0
M  CHG  1   5  -1
M  END
>  <UniqueID>  (86) 
79

>  <SMILES>  (86) 
O=C(/C=C\c1ccco1)[N-]c1cccc(NC(=O)c2ccccc2Cl)c1

>  <Energy>  (86) 
85.97594676169629

>  <Genealogy>  (86) 
O=C(C=Cc1ccco1)[N-]c1cccc(NC(=O)c2ccccc2Cl)c1 (protonated)
O=C(/C=C\c1ccco1)[N-]c1cccc(NC(=O)c2ccccc2Cl)c1 (cis-trans isomerization)
O=C(/C=C\c1ccco1)[N-]c1cccc(NC(=O)c2ccccc2Cl)c1 (3D coordinates assigned)
O=C(/C=C\c1ccco1)[N-]c1cccc(NC(=O)c2ccccc2Cl)c1 (optimized conformer: 85.97594676169629 kcal/mol)

>  <smiles>  (86) 
O=C(C=Cc1ccco1)Nc1cccc(NC(=O)c2ccccc2Cl)c1

>  <score_type>  (86) 
oracle

>  <origin>  (86) 
adg

>  <m_score__min__energy>  (86) 
-10.42

>  <m_primary>  (86) 
energy

$$$$
86:0
     RDKit          3D

 49 51  0  0  0  0  0  0  0  0999 V2000
   60.5056   33.9103   49.8498 H   0  0  0  0  0  0  0  0  0  0  0  0
   59.9460   33.7470   48.9170 C   0  0  0  0  0  0  0  0  0  0  0  0
   60.3500   34.3810   47.7390 C   0  0  0  0  0  0  0  0  0  0  0  0
   61.2279   35.0438   47.7460 H   0  0  0  0  0  0  0  0  0  0  0  0
   59.6410   34.1750   46.5510 C   0  0  0  0  0  0  0  0  0  0  0  0
   59.9663   34.6732   45.6258 H   0  0  0  0  0  0  0  0  0  0  0  0
   58.5130   33.3330   46.5340 C   0  0  0  0  0  0  0  0  0  0  0  0
   57.7700   33.1120   45.3190 N   0  0  0  0  0  0  0  0  0  0  0  0
   57.4840   31.7630   44.9060 C   0  0  0  0  0  0  0  0  0  0  0  0
   57.6920   30.7340   45.7720 N   0  0  0  0  0  0  0  0  0  0  0  0
   57.4110   29.4470   45.4380 C   0  0  0  0  0  0  0  0  0  0  0  0
   57.6240   28.5130   46.3190 N   0  0  0  0  0  0  0  0  0  0  0  0
   58.9170   28.1580   46.9010 C   0  0  0  0  0  0  0  0  0  0  0  0
   58.8949   28.3622   47.9816 H   0  0  0  0  0  0  0  0  0  0  0  0
   59.1059   27.0898   46.7184 H   0  0  0  0  0  0  0  0  0  0  0  0
   60.0420   28.9740   46.2580 C   0  0  0  0  0  0  0  0  0  0  0  0
   60.9664   28.3794   46.3011 H   0  0  0  0  0  0  0  0  0  0  0  0
   59.7219   29.1942   45.2289 H   0  0  0  0  0  0  0  0  0  0  0  0
   60.3100   30.3320   46.9360 C   0  0  0  0  0  0  0  0  0  0  0  0
   60.8272   30.9813   46.2142 H   0  0  0  0  0  0  0  0  0  0  0  0
   59.3314   30.7292   47.2435 H   0  0  0  0  0  0  0  0  0  0  0  0
   61.1730   30.2450   48.2130 C   0  0  0  0  0  0  0  0  0  0  0  0
   60.5113   30.3079   49.0895 H   0  0  0  0  0  0  0  0  0  0  0  0
   61.7173   29.2897   48.1808 H   0  0  0  0  0  0  0  0  0  0  0  0
   62.1990   31.3510   48.3020 C   0  0  0  0  0  0  0  0  0  0  0  0
   62.7270   31.7420   49.5460 C   0  0  0  0  0  0  0  0  0  0  0  0
   62.3800   31.2502   50.4667 H   0  0  0  0  0  0  0  0  0  0  0  0
   63.6910   32.7530   49.6180 C   0  0  0  0  0  0  0  0  0  0  0  0
   64.1186   33.0364   50.5910 H   0  0  0  0  0  0  0  0  0  0  0  0
   64.1110   33.4030   48.4550 C   0  0  0  0  0  0  0  0  0  0  0  0
   64.8743   34.1930   48.5116 H   0  0  0  0  0  0  0  0  0  0  0  0
   63.5620   33.0500   47.2210 C   0  0  0  0  0  0  0  0  0  0  0  0
   63.8787   33.5767   46.3087 H   0  0  0  0  0  0  0  0  0  0  0  0
   62.6110   32.0290   47.1420 C   0  0  0  0  0  0  0  0  0  0  0  0
   62.1827   31.7546   46.1667 H   0  0  0  0  0  0  0  0  0  0  0  0
   56.9120   29.1680   44.1940 N   0  0  0  0  0  0  0  0  0  0  0  0
   56.6740   28.1950   43.9030 H   0  0  0  0  0  0  0  0  0  0  0  0
   56.7140   30.1620   43.2890 C   0  0  0  0  0  0  0  0  0  0  0  0
   56.3285   29.9215   42.2872 H   0  0  0  0  0  0  0  0  0  0  0  0
   56.9970   31.4840   43.6240 C   0  0  0  0  0  0  0  0  0  0  0  0
   56.8408   32.2929   42.8952 H   0  0  0  0  0  0  0  0  0  0  0  0
   57.0700   34.2340   44.6810 C   0  0  0  0  0  0  0  0  0  0  0  0
   56.6567   34.8965   45.4558 H   0  0  0  0  0  0  0  0  0  0  0  0
   57.7765   34.7984   44.0546 H   0  0  0  0  0  0  0  0  0  0  0  0
   56.2525   33.8476   44.0546 H   0  0  0  0  0  0  0  0  0  0  0  0
   58.1150   32.7000   47.7250 C   0  0  0  0  0  0  0  0  0  0  0  0
   57.2355   32.0393   47.7252 H   0  0  0  0  0  0  0  0  0  0  0  0
   58.8300   32.9050   48.9090 C   0  0  0  0  0  0  0  0  0  0  0  0
   58.5140   32.4031   49.8354 H   0  0  0  0  0  0  0  0  0  0  0  0
  1  2  1  0
  2  3  2  0
  3  4  1  0
  3  5  1  0
  5  6  1  0
  5  7  2  0
  7  8  1  0
  8  9  1  0
  9 10  2  0
 10 11  1  0
 11 12  2  0
 12 13  1  0
 13 14  1  0
 13 15  1  0
 13 16  1  0
 16 17  1  0
 16 18  1  0
 16 19  1  0
 19 20  1  0
 19 21  1  0
 19 22  1  0
 22 23  1  0
 22 24  1  0
 22 25  1  0
 25 26  2  0
 26 27  1  0
 26 28  1  0
 28 29  1  0
 28 30  2  0
 30 31  1  0
 30 32  1  0
 32 33  1  0
 32 34  2  0
 34 35  1  0
 11 36  1  0
 36 37  1  0
 36 38  1  0
 38 39  1  0
 38 40  2  0
 40 41  1  0
  8 42  1  0
 42 43  1  0
 42 44  1  0
 42 45  1  0
  7 46  1  0
 46 47  1  0
 46 48  2  0
 48 49  1  0
 48  2  1  0
 40  9  1  0
 34 25  1  0
M  END
>  <UniqueID>  (87) 
80

>  <SMILES>  (87) 
CN(c1ccccc1)c1cc[nH]/c(=N\CCCCc2ccccc2)n1

>  <Energy>  (87) 
53.256434445018336

>  <Genealogy>  (87) 
CN(c1ccccc1)c1cc[nH]/c(=N\CCCCc2ccccc2)n1 (cis-trans isomerization)
CN(c1ccccc1)c1cc[nH]/c(=N\CCCCc2ccccc2)n1 (3D coordinates assigned)
CN(c1ccccc1)c1cc[nH]/c(=N\CCCCc2ccccc2)n1 (optimized conformer: 53.256434445018336 kcal/mol)

>  <smiles>  (87) 
CN(c1ccccc1)c1cc[nH]c(=NCCCCc2ccccc2)n1

>  <score_type>  (87) 
oracle

>  <origin>  (87) 
adg

>  <m_score__min__energy>  (87) 
-7.5800000000000001

>  <m_primary>  (87) 
energy

$$$$
87:0
     RDKit          3D

 20 20  0  0  0  0  0  0  0  0999 V2000
   56.4770   29.8450   42.6100 C   0  0  0  0  0  0  0  0  0  0  0  0
   56.4560   29.8930   44.3880 S   0  0  0  0  0  0  0  0  0  0  0  0
   55.1500   29.3440   44.8890 O   0  0  0  0  0  0  0  0  0  0  0  0
   56.5920   31.3160   44.8540 O   0  0  0  0  0  0  0  0  0  0  0  0
   57.7900   28.9310   45.0140 C   0  0  0  0  0  0  0  0  0  0  0  0
   57.5450   27.8990   45.9310 C   0  0  0  0  0  0  0  0  0  0  0  0
   58.6040   27.1260   46.4170 C   0  0  0  0  0  0  0  0  0  0  0  0
   59.9090   27.3760   45.9880 C   0  0  0  0  0  0  0  0  0  0  0  0
   60.1640   28.4000   45.0650 C   0  0  0  0  0  0  0  0  0  0  0  0
   61.5000   28.6530   44.6210 N   0  0  0  0  0  0  0  0  0  0  0  0
   59.1000   29.1750   44.5780 C   0  0  0  0  0  0  0  0  0  0  0  0
   56.8968   28.8854   42.2740 H   0  0  0  0  0  0  0  0  0  0  0  0
   55.4507   29.9500   42.2282 H   0  0  0  0  0  0  0  0  0  0  0  0
   57.0964   30.6700   42.2282 H   0  0  0  0  0  0  0  0  0  0  0  0
   56.5178   27.6971   46.2687 H   0  0  0  0  0  0  0  0  0  0  0  0
   58.4086   26.3193   47.1388 H   0  0  0  0  0  0  0  0  0  0  0  0
   60.7396   26.7677   46.3754 H   0  0  0  0  0  0  0  0  0  0  0  0
   62.1340   29.2810   45.1640 H   0  0  0  0  0  0  0  0  0  0  0  0
   61.8640   28.2160   43.7450 H   0  0  0  0  0  0  0  0  0  0  0  0
   59.2947   29.9773   43.8511 H   0  0  0  0  0  0  0  0  0  0  0  0
  1  2  1  0
  2  3  2  0
  2  4  2  0
  2  5  1  0
  5  6  2  0
  6  7  1  0
  7  8  2  0
  8  9  1  0
  9 10  1  0
  9 11  2  0
 11  5  1  0
  1 12  1  0
  1 13  1  0
  1 14  1  0
  6 15  1  0
  7 16  1  0
  8 17  1  0
 10 18  1  0
 10 19  1  0
 11 20  1  0
M  END
>  <UniqueID>  (88) 
81

>  <SMILES>  (88) 
CS(=O)(=O)c1cccc(N)c1

>  <Energy>  (88) 
14.608139169168885

>  <Genealogy>  (88) 
CS(=O)(=O)c1cccc(N)c1 (3D coordinates assigned)
CS(=O)(=O)c1cccc(N)c1 (optimized conformer: 14.608139169168885 kcal/mol)

>  <smiles>  (88) 
CS(=O)(=O)c1cccc(N)c1

>  <score_type>  (88) 
oracle

>  <origin>  (88) 
adg

>  <m_score__min__energy>  (88) 
-5.5199999999999996

>  <m_primary>  (88) 
energy

$$$$
88:0
     RDKit          3D

 20 21  0  0  0  0  0  0  0  0999 V2000
   57.0898   27.5749   45.3930 H   0  0  0  0  0  0  0  0  0  0  0  0
   56.7680   28.5800   45.0830 C   0  0  0  0  0  0  0  0  0  0  0  0
   55.5240   28.9550   44.8720 O   0  0  0  0  0  0  0  0  0  0  0  0
   55.4750   30.2050   44.5180 N   0  0  0  0  0  0  0  0  0  0  0  0
   54.6000   30.7350   44.3050 H   0  0  0  0  0  0  0  0  0  0  0  0
   56.7340   30.6690   44.4860 C   0  0  0  0  0  0  0  0  0  0  0  0
   57.0280   31.9060   44.2060 N   0  0  0  0  0  0  0  0  0  0  0  0
   57.7480   32.8240   45.0450 C   0  0  0  0  0  0  0  0  0  0  0  0
   57.7690   32.6800   46.4450 C   0  0  0  0  0  0  0  0  0  0  0  0
   57.1969   31.8708   46.9224 H   0  0  0  0  0  0  0  0  0  0  0  0
   58.5160   33.5640   47.2300 C   0  0  0  0  0  0  0  0  0  0  0  0
   58.5156   33.4602   48.3251 H   0  0  0  0  0  0  0  0  0  0  0  0
   59.2630   34.5790   46.6260 C   0  0  0  0  0  0  0  0  0  0  0  0
   59.8432   35.2787   47.2455 H   0  0  0  0  0  0  0  0  0  0  0  0
   59.2720   34.7040   45.2350 C   0  0  0  0  0  0  0  0  0  0  0  0
   59.8667   35.4973   44.7587 H   0  0  0  0  0  0  0  0  0  0  0  0
   58.5260   33.8220   44.4470 C   0  0  0  0  0  0  0  0  0  0  0  0
   58.5508   33.9131   43.3511 H   0  0  0  0  0  0  0  0  0  0  0  0
   57.6040   29.6570   44.8510 C   0  0  0  0  0  0  0  0  0  0  0  0
   58.6999   29.6990   44.9364 H   0  0  0  0  0  0  0  0  0  0  0  0
  1  2  1  0
  2  3  1  0
  3  4  1  0
  4  5  1  0
  4  6  1  0
  6  7  2  0
  7  8  1  0
  8  9  2  0
  9 10  1  0
  9 11  1  0
 11 12  1  0
 11 13  2  0
 13 14  1  0
 13 15  1  0
 15 16  1  0
 15 17  2  0
 17 18  1  0
  6 19  1  0
 19 20  1  0
 19  2  2  0
 17  8  1  0
M  END
>  <UniqueID>  (89) 
82

>  <SMILES>  (89) 
c1ccc(/N=c2\cco[nH]2)cc1

>  <Energy>  (89) 
59.553593454789876

>  <Genealogy>  (89) 
c1ccc(/N=c2\cco[nH]2)cc1 (cis-trans isomerization)
c1ccc(/N=c2\cco[nH]2)cc1 (3D coordinates assigned)
c1ccc(/N=c2\cco[nH]2)cc1 (optimized conformer: 59.553593454789876 kcal/mol)

>  <smiles>  (89) 
c1ccc(N=c2cco[nH]2)cc1

>  <score_type>  (89) 
oracle

>  <origin>  (89) 
adg

>  <m_score__min__energy>  (89) 
-5.9000000000000004

>  <m_primary>  (89) 
energy

$$$$
89:0
     RDKit          3D

 46 48  0  0  1  0  0  0  0  0999 V2000
   58.3800   30.0330   46.6760 N   0  0  0  0  0  0  0  0  0  0  0  0
   58.1020   31.0260   45.3070 S   0  0  0  0  0  0  0  0  0  0  0  0
   56.6580   31.0070   44.9550 O   0  0  0  0  0  0  0  0  0  0  0  0
   58.8740   30.4020   44.1500 O   0  0  0  0  0  0  0  0  0  0  0  0
   58.6610   32.6740   45.5400 C   0  0  0  0  0  0  0  0  0  0  0  0
   58.4040   33.6760   44.6120 C   0  0  0  0  0  0  0  0  0  0  0  0
   58.8760   34.9640   44.8590 C   0  0  0  0  0  0  0  0  0  0  0  0
   59.5910   35.2640   46.0070 C   0  0  0  0  0  0  0  0  0  0  0  0
   59.8410   34.2660   46.9230 C   0  0  0  0  0  0  0  0  0  0  0  0
   60.5610   34.4580   48.1300 N   0  0  0  0  0  0  0  0  0  0  0  0
   60.4010   33.7700   49.2030 C   0  0  0  0  0  0  0  0  0  0  0  0
   59.6180   34.2050   50.1770 N   0  0  0  0  0  0  0  0  0  0  0  0
   59.4500   33.4840   51.2940 C   0  0  0  0  0  0  0  0  0  0  0  0
   60.0830   32.2920   51.4420 N   0  0  0  0  0  0  0  0  0  0  0  0
   60.8930   31.7790   50.5010 C   0  0  0  0  0  0  0  0  0  0  0  0
   61.5890   30.5670   50.5980 N   0  0  0  0  0  0  0  0  0  0  0  0
   61.1990   29.3060   50.1170 C   0  0  0  0  0  0  0  0  0  0  0  0
   61.1630   28.2430   51.0320 C   0  0  0  0  0  0  0  0  0  0  0  0
   60.7710   26.9860   50.6460 C   0  0  0  0  0  0  0  0  0  0  0  0
   60.3970   26.7200   49.3460 C   0  0  0  0  0  0  0  0  0  0  0  0
   60.4240   27.7500   48.4230 C   0  0  0  0  0  0  0  0  0  0  0  0
   59.9510   27.4080   46.7740 S   0  0  0  0  0  0  0  0  0  0  0  0
   60.2430   28.7240   45.7170 N   0  0  0  0  0  0  0  0  0  0  0  0
   60.6490   26.1860   46.2380 O   0  0  0  0  0  0  0  0  0  0  0  0
   58.4610   27.1200   46.7140 O   0  0  0  0  0  0  0  0  0  0  0  0
   60.8230   29.0160   48.8300 C   0  0  0  0  0  0  0  0  0  0  0  0
   61.0400   32.5640   49.3540 C   0  0  0  0  0  0  0  0  0  0  0  0
   61.8720   32.1290   48.2870 N   0  0  0  0  0  0  0  0  0  0  0  0
   63.0490   32.5170   48.1500 O   0  0  0  0  0  0  0  0  0  0  0  0
   61.3280   31.2420   47.3920 O   0  0  0  0  0  0  0  0  0  0  0  0
   59.3750   32.9780   46.6840 C   0  0  0  0  0  0  0  0  0  0  0  0
   59.3600   30.2010   47.0030 H   0  0  0  0  0  0  0  0  0  0  0  0
   58.3220   29.0270   46.4090 H   0  0  0  0  0  0  0  0  0  0  0  0
   57.8363   33.4558   43.6959 H   0  0  0  0  0  0  0  0  0  0  0  0
   58.6764   35.7598   44.1263 H   0  0  0  0  0  0  0  0  0  0  0  0
   59.9547   36.2868   46.1849 H   0  0  0  0  0  0  0  0  0  0  0  0
   58.7961   33.8597   52.0948 H   0  0  0  0  0  0  0  0  0  0  0  0
   59.8990   31.7750   52.3220 H   0  0  0  0  0  0  0  0  0  0  0  0
   62.5300   30.5980   51.0980 H   0  0  0  0  0  0  0  0  0  0  0  0
   61.4543   28.4205   52.0778 H   0  0  0  0  0  0  0  0  0  0  0  0
   60.7548   26.1745   51.3885 H   0  0  0  0  0  0  0  0  0  0  0  0
   60.0833   25.7085   49.0485 H   0  0  0  0  0  0  0  0  0  0  0  0
   60.5150   29.5950   46.2050 H   0  0  0  0  0  0  0  0  0  0  0  0
   59.4450   28.9070   45.0610 H   0  0  0  0  0  0  0  0  0  0  0  0
   60.8384   29.8251   48.0849 H   0  0  0  0  0  0  0  0  0  0  0  0
   59.5784   32.1857   47.4194 H   0  0  0  0  0  0  0  0  0  0  0  0
  1  2  1  0
  2  3  2  0
  2  4  2  0
  2  5  1  0
  5  6  2  0
  6  7  1  0
  7  8  2  0
  8  9  1  0
  9 10  1  0
 10 11  2  0
 11 12  1  0
 12 13  2  0
 13 14  1  0
 14 15  1  0
 15 16  1  0
 16 17  1  0
 17 18  2  0
 18 19  1  0
 19 20  2  0
 20 21  1  0
 21 22  1  0
 22 23  1  0
 22 24  2  0
 22 25  2  0
 21 26  2  0
 15 27  2  0
 27 28  1  0
 28 29  2  0
 28 30  1  0
  9 31  2  0
 31  5  1  0
 27 11  1  0
 26 17  1  0
  1 32  1  0
  1 33  1  0
  6 34  1  0
  7 35  1  0
  8 36  1  0
 13 37  1  0
 14 38  1  0
 16 39  1  0
 18 40  1  0
 19 41  1  0
 20 42  1  0
 23 43  1  0
 23 44  1  0
 26 45  1  0
 31 46  1  0
M  CHG  2  28   1  30  -1
M  END
>  <smiles>  (90) 
NS(=O)(=O)c1cccc(N=c2nc[nH]c(Nc3cccc(S(N)(=O)=O)c3)c2[N+](=O)[O-])c1

>  <score_type>  (90) 
oracle

>  <origin>  (90) 
adg

>  <m_score__min__energy>  (90) 
-10.98

>  <m_primary>  (90) 
energy

$$$$
90:0
     RDKit          3D

 39 40  0  0  0  0  0  0  0  0999 V2000
   60.3900   34.1570   48.4310 C   0  0  0  0  0  0  0  0  0  0  0  0
   59.2140   33.2090   48.2210 C   0  0  0  0  0  0  0  0  0  0  0  0
   58.8090   33.1750   46.7720 C   0  0  0  0  0  0  0  0  0  0  0  0
   59.5040   33.9450   45.8250 C   0  0  0  0  0  0  0  0  0  0  0  0
   59.1550   33.8800   44.4740 C   0  0  0  0  0  0  0  0  0  0  0  0
   58.1120   33.0470   44.0570 C   0  0  0  0  0  0  0  0  0  0  0  0
   57.4000   32.2810   44.9960 C   0  0  0  0  0  0  0  0  0  0  0  0
   56.3540   31.3870   44.5960 N   0  0  0  0  0  0  0  0  0  0  0  0
   56.4760   29.9680   44.4360 C   0  0  0  0  0  0  0  0  0  0  0  0
   55.5990   29.2220   44.9450 O   0  0  0  0  0  0  0  0  0  0  0  0
   57.5440   29.4010   43.6610 N   0  0  0  0  0  0  0  0  0  0  0  0
   57.7630   27.9590   43.5630 C   0  0  0  0  0  0  0  0  0  0  0  0
   59.0990   27.5760   44.2060 C   0  0  0  0  0  0  0  0  0  0  0  0
   59.3510   28.4080   45.4350 C   0  0  0  0  0  0  0  0  0  0  0  0
   58.5730   28.2210   46.5890 C   0  0  0  0  0  0  0  0  0  0  0  0
   58.8300   28.9730   47.7410 C   0  0  0  0  0  0  0  0  0  0  0  0
   59.8710   29.9050   47.7510 C   0  0  0  0  0  0  0  0  0  0  0  0
   60.6590   30.0860   46.6110 C   0  0  0  0  0  0  0  0  0  0  0  0
   60.4050   29.3370   45.4570 C   0  0  0  0  0  0  0  0  0  0  0  0
   57.7710   32.3290   46.3460 C   0  0  0  0  0  0  0  0  0  0  0  0
   60.5616   34.2953   49.5087 H   0  0  0  0  0  0  0  0  0  0  0  0
   61.2920   33.7305   47.9679 H   0  0  0  0  0  0  0  0  0  0  0  0
   60.1647   35.1290   47.9679 H   0  0  0  0  0  0  0  0  0  0  0  0
   59.5053   32.1968   48.5382 H   0  0  0  0  0  0  0  0  0  0  0  0
   58.3616   33.5660   48.8177 H   0  0  0  0  0  0  0  0  0  0  0  0
   60.3256   34.6012   46.1482 H   0  0  0  0  0  0  0  0  0  0  0  0
   59.7019   34.4855   43.7363 H   0  0  0  0  0  0  0  0  0  0  0  0
   57.8480   32.9911   42.9906 H   0  0  0  0  0  0  0  0  0  0  0  0
   58.1930   30.0320   43.1400 H   0  0  0  0  0  0  0  0  0  0  0  0
   56.9476   27.4327   44.0809 H   0  0  0  0  0  0  0  0  0  0  0  0
   57.7836   27.6730   42.5010 H   0  0  0  0  0  0  0  0  0  0  0  0
   59.0735   26.5130   44.4876 H   0  0  0  0  0  0  0  0  0  0  0  0
   59.9070   27.7575   43.4820 H   0  0  0  0  0  0  0  0  0  0  0  0
   57.7590   27.4811   46.5875 H   0  0  0  0  0  0  0  0  0  0  0  0
   58.2118   28.8302   48.6396 H   0  0  0  0  0  0  0  0  0  0  0  0
   60.0704   30.4966   48.6567 H   0  0  0  0  0  0  0  0  0  0  0  0
   61.4798   30.8182   46.6211 H   0  0  0  0  0  0  0  0  0  0  0  0
   61.0323   29.4758   44.5641 H   0  0  0  0  0  0  0  0  0  0  0  0
   57.2453   31.6991   47.0788 H   0  0  0  0  0  0  0  0  0  0  0  0
  1  2  1  0
  2  3  1  0
  3  4  2  0
  4  5  1  0
  5  6  2  0
  6  7  1  0
  7  8  1  0
  8  9  1  0
  9 10  2  0
  9 11  1  0
 11 12  1  0
 12 13  1  0
 13 14  1  0
 14 15  2  0
 15 16  1  0
 16 17  2  0
 17 18  1  0
 18 19  2  0
  7 20  2  0
 20  3  1  0
 19 14  1  0
  1 21  1  0
  1 22  1  0
  1 23  1  0
  2 24  1  0
  2 25  1  0
  4 26  1  0
  5 27  1  0
  6 28  1  0
 11 29  1  0
 12 30  1  0
 12 31  1  0
 13 32  1  0
 13 33  1  0
 15 34  1  0
 16 35  1  0
 17 36  1  0
 18 37  1  0
 19 38  1  0
 20 39  1  0
M  CHG  1   8  -1
M  END
>  <UniqueID>  (91) 
83

>  <SMILES>  (91) 
CCc1cccc([N-]C(=O)NCCc2ccccc2)c1

>  <Energy>  (91) 
35.102802264917706

>  <Genealogy>  (91) 
CCc1cccc([N-]C(=O)NCCc2ccccc2)c1 (protonated)
CCc1cccc([N-]C(=O)NCCc2ccccc2)c1 (3D coordinates assigned)
CCc1cccc([N-]C(=O)NCCc2ccccc2)c1 (optimized conformer: 35.102802264917706 kcal/mol)

>  <smiles>  (91) 
CCc1cccc(NC(=O)NCCc2ccccc2)c1

>  <score_type>  (91) 
oracle

>  <origin>  (91) 
adg

>  <m_score__min__energy>  (91) 
-8.8100000000000005

>  <m_primary>  (91) 
energy

$$$$
91:0
     RDKit          3D

 55 58  0  0  0  0  0  0  0  0999 V2000
   54.8630   26.0910   45.2200 H   0  0  0  0  0  0  0  0  0  0  0  0
   55.5810   26.4460   45.8930 N   0  0  0  0  0  0  0  0  0  0  0  0
   56.2670   27.5140   45.6380 C   0  0  0  0  0  0  0  0  0  0  0  0
   55.7370   28.5930   45.0270 N   0  0  0  0  0  0  0  0  0  0  0  0
   56.6660   29.5700   44.8510 C   0  0  0  0  0  0  0  0  0  0  0  0
   56.4283   30.5367   44.3831 H   0  0  0  0  0  0  0  0  0  0  0  0
   57.9440   29.2510   45.3100 C   0  0  0  0  0  0  0  0  0  0  0  0
   59.1400   30.1090   45.2500 C   0  0  0  0  0  0  0  0  0  0  0  0
   60.2710   29.5930   45.4600 O   0  0  0  0  0  0  0  0  0  0  0  0
   59.0660   31.5070   44.9340 N   0  0  0  0  0  0  0  0  0  0  0  0
   58.0210   32.1380   44.1270 C   0  0  0  0  0  0  0  0  0  0  0  0
   58.4823   32.6197   43.2523 H   0  0  0  0  0  0  0  0  0  0  0  0
   57.3077   31.3645   43.8062 H   0  0  0  0  0  0  0  0  0  0  0  0
   57.2640   33.1980   44.9460 C   0  0  1  0  0  0  0  0  0  0  0  0
   56.2670   33.2899   44.4905 H   0  0  0  0  0  0  0  0  0  0  0  0
   57.1310   32.7950   46.3040 O   0  0  0  0  0  0  0  0  0  0  0  0
   58.1320   33.0420   47.2410 C   0  0  0  0  0  0  0  0  0  0  0  0
   58.0050   32.5890   48.4100 O   0  0  0  0  0  0  0  0  0  0  0  0
   59.2910   33.8130   46.8710 N   0  0  0  0  0  0  0  0  0  0  0  0
   60.4890   33.7270   47.6600 C   0  0  0  0  0  0  0  0  0  0  0  0
   60.4480   33.9810   49.0410 C   0  0  0  0  0  0  0  0  0  0  0  0
   59.4870   34.2023   49.5283 H   0  0  0  0  0  0  0  0  0  0  0  0
   61.6200   33.9540   49.7980 C   0  0  0  0  0  0  0  0  0  0  0  0
   61.5767   34.1502   50.8795 H   0  0  0  0  0  0  0  0  0  0  0  0
   62.8540   33.6780   49.1880 C   0  0  0  0  0  0  0  0  0  0  0  0
   64.0560   33.6710   49.9770 N   0  0  0  0  0  0  0  0  0  0  0  0
   64.0900   34.3420   51.2790 C   0  0  0  0  0  0  0  0  0  0  0  0
   64.2645   35.4173   51.1267 H   0  0  0  0  0  0  0  0  0  0  0  0
   63.1273   34.1799   51.7859 H   0  0  0  0  0  0  0  0  0  0  0  0
   65.2130   33.7680   52.1560 C   0  0  0  0  0  0  0  0  0  0  0  0
   66.1652   34.2492   51.8879 H   0  0  0  0  0  0  0  0  0  0  0  0
   64.9779   33.9628   53.2128 H   0  0  0  0  0  0  0  0  0  0  0  0
   65.3280   32.3100   51.9490 N   0  0  0  0  0  0  0  0  0  0  0  0
   64.3880   31.8780   52.1230 H   0  0  0  0  0  0  0  0  0  0  0  0
   66.2600   31.7300   52.9290 C   0  0  0  0  0  0  0  0  0  0  0  0
   65.9058   31.9504   53.9468 H   0  0  0  0  0  0  0  0  0  0  0  0
   66.3109   30.6405   52.7864 H   0  0  0  0  0  0  0  0  0  0  0  0
   67.2600   32.1656   52.7864 H   0  0  0  0  0  0  0  0  0  0  0  0
   65.7600   31.9730   50.5670 C   0  0  0  0  0  0  0  0  0  0  0  0
   66.8596   31.9639   50.5380 H   0  0  0  0  0  0  0  0  0  0  0  0
   65.3292   30.9908   50.3228 H   0  0  0  0  0  0  0  0  0  0  0  0
   65.2510   32.9700   49.5050 C   0  0  0  0  0  0  0  0  0  0  0  0
   66.0407   33.7062   49.2943 H   0  0  0  0  0  0  0  0  0  0  0  0
   64.9935   32.4112   48.5932 H   0  0  0  0  0  0  0  0  0  0  0  0
   62.8950   33.4100   47.8100 C   0  0  0  0  0  0  0  0  0  0  0  0
   64.0670   33.1000   47.2030 F   0  0  0  0  0  0  0  0  0  0  0  0
   61.7200   33.4300   47.0550 C   0  0  0  0  0  0  0  0  0  0  0  0
   61.7598   33.2112   45.9777 H   0  0  0  0  0  0  0  0  0  0  0  0
   59.3150   34.5640   45.6010 C   0  0  0  0  0  0  0  0  0  0  0  0
   60.0563   34.1014   44.9328 H   0  0  0  0  0  0  0  0  0  0  0  0
   59.5740   35.6067   45.8369 H   0  0  0  0  0  0  0  0  0  0  0  0
   57.9500   34.5740   44.8900 C   0  0  0  0  0  0  0  0  0  0  0  0
   58.0996   34.8542   43.8369 H   0  0  0  0  0  0  0  0  0  0  0  0
   57.3026   35.2990   45.4051 H   0  0  0  0  0  0  0  0  0  0  0  0
   57.8950   27.7150   46.0050 S   0  0  0  0  0  0  0  0  0  0  0  0
  1  2  1  0
  2  3  2  0
  3  4  1  0
  4  5  1  0
  5  6  1  0
  5  7  2  0
  7  8  1  0
  8  9  2  0
  8 10  1  0
 10 11  1  0
 11 12  1  0
 11 13  1  0
 11 14  1  0
 14 15  1  6
 14 16  1  0
 16 17  1  0
 17 18  2  0
 17 19  1  0
 19 20  1  0
 20 21  2  0
 21 22  1  0
 21 23  1  0
 23 24  1  0
 23 25  2  0
 25 26  1  0
 26 27  1  0
 27 28  1  0
 27 29  1  0
 27 30  1  0
 30 31  1  0
 30 32  1  0
 30 33  1  0
 33 34  1  0
 33 35  1  0
 35 36  1  0
 35 37  1  0
 35 38  1  0
 33 39  1  0
 39 40  1  0
 39 41  1  0
 39 42  1  0
 42 43  1  0
 42 44  1  0
 25 45  1  0
 45 46  1  0
 45 47  2  0
 47 48  1  0
 19 49  1  0
 49 50  1  0
 49 51  1  0
 49 52  1  0
 52 53  1  0
 52 54  1  0
  7 55  1  0
 55  3  1  0
 52 14  1  0
 47 20  1  0
 42 26  1  0
M  CHG  3   4  -1  10  -1  33   1
M  END
>  <UniqueID>  (92) 
84

>  <SMILES>  (92) 
[H]/N=c1/[n-]cc(C(=O)[N-]C[C@@H]2CCN(c3ccc(N4CC[NH+](C)CC4)c(F)c3)C(=O)O2)s1

>  <Energy>  (92) 
103.05061547092414

>  <Genealogy>  (92) 
C[NH+]1CCN(c2ccc(N3CCC(C[N-]C(=O)c4c[n-]c(=N)s4)OC3=O)cc2F)CC1 (protonated)
C[NH+]1CCN(c2ccc(N3CC[C@@H](C[N-]C(=O)c4c[n-]c(=N)s4)OC3=O)cc2F)CC1 (chirality)
[H]/N=c1/[n-]cc(C(=O)[N-]C[C@@H]2CCN(c3ccc(N4CC[NH+](C)CC4)c(F)c3)C(=O)O2)s1 (cis-trans isomerization)
[H]/N=c1/[n-]cc(C(=O)[N-]C[C@@H]2CCN(c3ccc(N4CC[NH+](C)CC4)c(F)c3)C(=O)O2)s1 (3D coordinates assigned)
[H]/N=c1/[n-]cc(C(=O)[N-]C[C@@H]2CCN(c3ccc(N4CC[NH+](C)CC4)c(F)c3)C(=O)O2)s1 (nonaromatic ring conformer: 103.05061547092414 kcal/mol)

>  <smiles>  (92) 
CN1CCN(c2ccc(N3CCC(CNC(=O)c4c[nH]c(=N)s4)OC3=O)cc2F)CC1

>  <score_type>  (92) 
oracle

>  <origin>  (92) 
adg

>  <m_score__min__energy>  (92) 
-10.18

>  <m_primary>  (92) 
energy

$$$$
92:0
     RDKit          3D

 38 39  0  0  0  0  0  0  0  0999 V2000
   55.0060   26.3740   45.9790 N   0  0  0  0  0  0  0  0  0  0  0  0
   56.5530   25.6320   45.7630 S   0  0  0  0  0  0  0  0  0  0  0  0
   56.6570   25.1720   44.3370 O   0  0  0  0  0  0  0  0  0  0  0  0
   56.6670   24.4470   46.6810 O   0  0  0  0  0  0  0  0  0  0  0  0
   57.8510   26.7810   46.1250 C   0  0  0  0  0  0  0  0  0  0  0  0
   58.6660   26.5610   47.2470 C   0  0  0  0  0  0  0  0  0  0  0  0
   59.6950   27.4490   47.5600 C   0  0  0  0  0  0  0  0  0  0  0  0
   59.9310   28.5600   46.7520 C   0  0  0  0  0  0  0  0  0  0  0  0
   59.1350   28.7890   45.6300 C   0  0  0  0  0  0  0  0  0  0  0  0
   58.0790   27.9170   45.3110 C   0  0  0  0  0  0  0  0  0  0  0  0
   57.2970   28.1380   44.1270 N   0  0  0  0  0  0  0  0  0  0  0  0
   56.5750   29.6650   43.7220 S   0  0  0  0  0  0  0  0  0  0  0  0
   55.8980   29.6220   42.3830 O   0  0  0  0  0  0  0  0  0  0  0  0
   55.5260   29.9660   44.7530 O   0  0  0  0  0  0  0  0  0  0  0  0
   57.7760   30.9600   43.7800 C   0  0  0  0  0  0  0  0  0  0  0  0
   57.5950   32.1640   44.3410 C   0  0  0  0  0  0  0  0  0  0  0  0
   58.2920   32.6610   45.5400 C   0  0  0  0  0  0  0  0  0  0  0  0
   58.5990   34.0210   45.6890 C   0  0  0  0  0  0  0  0  0  0  0  0
   59.2110   34.4820   46.8580 C   0  0  0  0  0  0  0  0  0  0  0  0
   59.5120   33.5940   47.9040 C   0  0  0  0  0  0  0  0  0  0  0  0
   60.1400   34.1020   49.1760 C   0  0  0  0  0  0  0  0  0  0  0  0
   60.4160   33.0330   50.0070 F   0  0  0  0  0  0  0  0  0  0  0  0
   59.2810   34.9710   49.8270 F   0  0  0  0  0  0  0  0  0  0  0  0
   61.3180   34.7790   48.9080 F   0  0  0  0  0  0  0  0  0  0  0  0
   59.1280   32.2470   47.7830 C   0  0  0  0  0  0  0  0  0  0  0  0
   58.5190   31.7880   46.6120 C   0  0  0  0  0  0  0  0  0  0  0  0
   55.1600   27.4070   46.0090 H   0  0  0  0  0  0  0  0  0  0  0  0
   58.4916   25.6814   47.8841 H   0  0  0  0  0  0  0  0  0  0  0  0
   60.3217   27.2722   48.4465 H   0  0  0  0  0  0  0  0  0  0  0  0
   60.7456   29.2566   46.9995 H   0  0  0  0  0  0  0  0  0  0  0  0
   59.3351   29.6599   44.9886 H   0  0  0  0  0  0  0  0  0  0  0  0
   57.0110   27.3180   43.5480 H   0  0  0  0  0  0  0  0  0  0  0  0
   58.7539   30.7616   43.3170 H   0  0  0  0  0  0  0  0  0  0  0  0
   56.8654   32.8368   43.8666 H   0  0  0  0  0  0  0  0  0  0  0  0
   58.3571   34.7284   44.8821 H   0  0  0  0  0  0  0  0  0  0  0  0
   59.4590   35.5488   46.9597 H   0  0  0  0  0  0  0  0  0  0  0  0
   59.3080   31.5503   48.6150 H   0  0  0  0  0  0  0  0  0  0  0  0
   58.2157   30.7337   46.5313 H   0  0  0  0  0  0  0  0  0  0  0  0
  1  2  1  0
  2  3  2  0
  2  4  2  0
  2  5  1  0
  5  6  2  0
  6  7  1  0
  7  8  2  0
  8  9  1  0
  9 10  2  0
 10 11  1  0
 11 12  1  0
 12 13  2  0
 12 14  2  0
 12 15  1  0
 15 16  2  3
 16 17  1  0
 17 18  2  0
 18 19  1  0
 19 20  2  0
 20 21  1  0
 21 22  1  0
 21 23  1  0
 21 24  1  0
 20 25  1  0
 25 26  2  0
 10  5  1  0
 26 17  1  0
  1 27  1  0
  6 28  1  0
  7 29  1  0
  8 30  1  0
  9 31  1  0
 11 32  1  0
 15 33  1  0
 16 34  1  0
 18 35  1  0
 19 36  1  0
 25 37  1  0
 26 38  1  0
M  CHG  1   1  -1
M  END
>  <UniqueID>  (93) 
85

>  <SMILES>  (93) 
[NH-]S(=O)(=O)c1ccccc1NS(=O)(=O)C=Cc1ccc(C(F)(F)F)cc1

>  <Energy>  (93) 
48.39727178302941

>  <Genealogy>  (93) 
[NH-]S(=O)(=O)c1ccccc1NS(=O)(=O)C=Cc1ccc(C(F)(F)F)cc1 (protonated)
[NH-]S(=O)(=O)c1ccccc1NS(=O)(=O)C=Cc1ccc(C(F)(F)F)cc1 (3D coordinates assigned)
[NH-]S(=O)(=O)c1ccccc1NS(=O)(=O)C=Cc1ccc(C(F)(F)F)cc1 (optimized conformer: 48.39727178302941 kcal/mol)

>  <smiles>  (93) 
NS(=O)(=O)c1ccccc1NS(=O)(=O)C=Cc1ccc(C(F)(F)F)cc1

>  <score_type>  (93) 
oracle

>  <origin>  (93) 
adg

>  <m_score__min__energy>  (93) 
-12.220000000000001

>  <m_primary>  (93) 
energy

$$$$
93:0
     RDKit          3D

 43 45  0  0  0  0  0  0  0  0999 V2000
   59.4967   35.7311   46.9116 H   0  0  0  0  0  0  0  0  0  0  0  0
   59.3150   34.6480   46.9740 C   0  0  0  0  0  0  0  0  0  0  0  0
   60.3650   33.7810   47.2810 C   0  0  0  0  0  0  0  0  0  0  0  0
   61.3725   34.1822   47.4650 H   0  0  0  0  0  0  0  0  0  0  0  0
   60.1380   32.4030   47.3550 C   0  0  0  0  0  0  0  0  0  0  0  0
   60.9668   31.7247   47.6062 H   0  0  0  0  0  0  0  0  0  0  0  0
   58.8560   31.8800   47.1100 C   0  0  0  0  0  0  0  0  0  0  0  0
   58.6250   30.4200   47.1910 C   0  0  0  0  0  0  0  0  0  0  0  0
   58.9720   29.6140   48.2630 C   0  0  0  0  0  0  0  0  0  0  0  0
   59.5015   29.9456   49.1683 H   0  0  0  0  0  0  0  0  0  0  0  0
   58.5550   28.3590   48.0150 N   0  0  0  0  0  0  0  0  0  0  0  0
   58.6730   27.5320   48.6410 H   0  0  0  0  0  0  0  0  0  0  0  0
   57.9690   28.4150   46.8000 C   0  0  0  0  0  0  0  0  0  0  0  0
   57.4550   27.3880   46.1870 N   0  0  0  0  0  0  0  0  0  0  0  0
   58.1040   26.6640   45.0990 C   0  0  0  0  0  0  0  0  0  0  0  0
   59.1862   26.6142   45.2896 H   0  0  0  0  0  0  0  0  0  0  0  0
   57.9149   27.1911   44.1522 H   0  0  0  0  0  0  0  0  0  0  0  0
   57.5380   25.2370   45.0030 C   0  0  0  0  0  0  0  0  0  0  0  0
   58.2871   24.5478   45.4200 H   0  0  0  0  0  0  0  0  0  0  0  0
   56.2460   25.1190   45.8180 C   0  0  0  0  0  0  0  0  0  0  0  0
   56.4862   25.1409   46.8912 H   0  0  0  0  0  0  0  0  0  0  0  0
   55.5804   25.9601   45.5740 H   0  0  0  0  0  0  0  0  0  0  0  0
   55.7438   24.1712   45.5740 H   0  0  0  0  0  0  0  0  0  0  0  0
   57.2840   24.8360   43.5430 C   0  0  0  0  0  0  0  0  0  0  0  0
   56.6956   23.9070   43.5150 H   0  0  0  0  0  0  0  0  0  0  0  0
   56.7285   25.6374   43.0340 H   0  0  0  0  0  0  0  0  0  0  0  0
   58.2460   24.6762   43.0340 H   0  0  0  0  0  0  0  0  0  0  0  0
   57.9950   29.6540   46.2670 N   0  0  0  0  0  0  0  0  0  0  0  0
   57.5250   30.0340   44.9600 C   0  0  0  0  0  0  0  0  0  0  0  0
   58.2770   30.9260   44.1800 C   0  0  0  0  0  0  0  0  0  0  0  0
   59.2194   31.3354   44.5727 H   0  0  0  0  0  0  0  0  0  0  0  0
   57.8350   31.2970   42.9070 C   0  0  0  0  0  0  0  0  0  0  0  0
   58.4310   31.9935   42.2990 H   0  0  0  0  0  0  0  0  0  0  0  0
   56.6360   30.7830   42.4070 C   0  0  0  0  0  0  0  0  0  0  0  0
   56.2914   31.0706   41.4028 H   0  0  0  0  0  0  0  0  0  0  0  0
   55.8740   29.9040   43.1810 C   0  0  0  0  0  0  0  0  0  0  0  0
   54.9290   29.5034   42.7854 H   0  0  0  0  0  0  0  0  0  0  0  0
   56.3090   29.5320   44.4570 C   0  0  0  0  0  0  0  0  0  0  0  0
   55.5230   28.6810   45.2250 O   0  0  0  0  0  0  0  0  0  0  0  0
   57.8020   32.7630   46.8180 C   0  0  0  0  0  0  0  0  0  0  0  0
   56.7897   32.3687   46.6452 H   0  0  0  0  0  0  0  0  0  0  0  0
   58.0340   34.1410   46.7460 C   0  0  0  0  0  0  0  0  0  0  0  0
   57.2063   34.8258   46.5095 H   0  0  0  0  0  0  0  0  0  0  0  0
  1  2  1  0
  2  3  2  0
  3  4  1  0
  3  5  1  0
  5  6  1  0
  5  7  2  0
  7  8  1  0
  8  9  2  0
  9 10  1  0
  9 11  1  0
 11 12  1  0
 11 13  1  0
 13 14  2  0
 14 15  1  0
 15 16  1  0
 15 17  1  0
 15 18  1  0
 18 19  1  0
 18 20  1  0
 20 21  1  0
 20 22  1  0
 20 23  1  0
 18 24  1  0
 24 25  1  0
 24 26  1  0
 24 27  1  0
 13 28  1  0
 28 29  1  0
 29 30  2  0
 30 31  1  0
 30 32  1  0
 32 33  1  0
 32 34  2  0
 34 35  1  0
 34 36  1  0
 36 37  1  0
 36 38  2  0
 38 39  1  0
  7 40  1  0
 40 41  1  0
 40 42  2  0
 42 43  1  0
 42  2  1  0
 28  8  1  0
 38 29  1  0
M  CHG  1  39  -1
M  END
>  <UniqueID>  (94) 
86

>  <SMILES>  (94) 
CC(C)C/N=c1\[nH]cc(-c2ccccc2)n1-c1ccccc1[O-]

>  <Energy>  (94) 
80.14536857294269

>  <Genealogy>  (94) 
CC(C)CN=c1[nH]cc(-c2ccccc2)n1-c1ccccc1[O-] (protonated)
CC(C)C/N=c1\[nH]cc(-c2ccccc2)n1-c1ccccc1[O-] (cis-trans isomerization)
CC(C)C/N=c1\[nH]cc(-c2ccccc2)n1-c1ccccc1[O-] (3D coordinates assigned)
CC(C)C/N=c1\[nH]cc(-c2ccccc2)n1-c1ccccc1[O-] (optimized conformer: 80.14536857294269 kcal/mol)

>  <smiles>  (94) 
CC(C)CN=c1[nH]cc(-c2ccccc2)n1-c1ccccc1O

>  <score_type>  (94) 
oracle

>  <origin>  (94) 
adg

>  <m_score__min__energy>  (94) 
-10.630000000000001

>  <m_primary>  (94) 
energy

$$$$
