0:0
     RDKit          3D

 47 49  0  0  0  0  0  0  0  0999 V2000
   60.6910   28.0810   48.9310 C   0  0  0  0  0  0  0  0  0  0  0  0
   59.9890   27.8900   47.6120 C   0  0  0  0  0  0  0  0  0  0  0  0
   60.3990   26.8530   46.8320 C   0  0  0  0  0  0  0  0  0  0  0  0
   59.7570   26.6800   45.6250 C   0  0  0  0  0  0  0  0  0  0  0  0
   58.7240   27.5210   45.2020 C   0  0  0  0  0  0  0  0  0  0  0  0
   58.1410   27.2290   43.8860 C   0  0  0  0  0  0  0  0  0  0  0  0
   58.2960   28.5920   46.0060 C   0  0  0  0  0  0  0  0  0  0  0  0
   57.2280   29.4800   45.5440 C   0  0  0  0  0  0  0  0  0  0  0  0
   57.6370   30.7040   44.8190 C   0  0  0  0  0  0  0  0  0  0  0  0
   58.3440   31.6680   45.4800 N   0  0  0  0  0  0  0  0  0  0  0  0
   58.7450   32.8090   44.8950 C   0  0  0  0  0  0  0  0  0  0  0  0
   59.6600   33.9580   45.9020 S   0  0  0  0  0  0  0  0  0  0  0  0
   61.1200   33.3240   46.6230 C   0  0  0  0  0  0  0  0  0  0  0  0
   61.0150   32.1420   47.3700 C   0  0  0  0  0  0  0  0  0  0  0  0
   62.1260   31.5850   47.9600 C   0  0  0  0  0  0  0  0  0  0  0  0
   63.3930   32.1280   47.8650 C   0  0  0  0  0  0  0  0  0  0  0  0
   63.4970   33.2980   47.1250 C   0  0  0  0  0  0  0  0  0  0  0  0
   62.3820   33.8560   46.5350 C   0  0  0  0  0  0  0  0  0  0  0  0
   58.4560   33.0430   43.6110 N   0  0  0  0  0  0  0  0  0  0  0  0
   57.7770   32.1680   42.8990 C   0  0  0  0  0  0  0  0  0  0  0  0
   57.5190   32.4130   41.6960 O   0  0  0  0  0  0  0  0  0  0  0  0
   57.3570   30.9770   43.5050 C   0  0  0  0  0  0  0  0  0  0  0  0
   56.5990   30.0470   42.6740 C   0  0  0  0  0  0  0  0  0  0  0  0
   58.9580   28.7620   47.2330 C   0  0  0  0  0  0  0  0  0  0  0  0
   58.6680   29.8510   48.1680 C   0  0  0  0  0  0  0  0  0  0  0  0
   59.9856   27.8891   49.7530 H   0  0  0  0  0  0  0  0  0  0  0  0
   61.5358   27.3801   49.0016 H   0  0  0  0  0  0  0  0  0  0  0  0
   61.0642   29.1133   49.0016 H   0  0  0  0  0  0  0  0  0  0  0  0
   61.2090   26.1809   47.1516 H   0  0  0  0  0  0  0  0  0  0  0  0
   60.0683   25.8514   44.9719 H   0  0  0  0  0  0  0  0  0  0  0  0
   57.1646   26.7399   44.0179 H   0  0  0  0  0  0  0  0  0  0  0  0
   58.0087   28.1672   43.3272 H   0  0  0  0  0  0  0  0  0  0  0  0
   58.8131   26.5611   43.3272 H   0  0  0  0  0  0  0  0  0  0  0  0
   56.5799   28.8978   44.8725 H   0  0  0  0  0  0  0  0  0  0  0  0
   56.7407   29.8414   46.4616 H   0  0  0  0  0  0  0  0  0  0  0  0
   58.5740   31.5330   46.4880 H   0  0  0  0  0  0  0  0  0  0  0  0
   60.0352   31.6556   47.4853 H   0  0  0  0  0  0  0  0  0  0  0  0
   61.9989   30.6579   48.5382 H   0  0  0  0  0  0  0  0  0  0  0  0
   64.2655   31.6619   48.3461 H   0  0  0  0  0  0  0  0  0  0  0  0
   64.4768   33.7841   47.0082 H   0  0  0  0  0  0  0  0  0  0  0  0
   62.5123   34.7839   45.9589 H   0  0  0  0  0  0  0  0  0  0  0  0
   56.0355   29.3556   43.3178 H   0  0  0  0  0  0  0  0  0  0  0  0
   55.8989   30.6097   42.0389 H   0  0  0  0  0  0  0  0  0  0  0  0
   57.2913   29.4748   42.0389 H   0  0  0  0  0  0  0  0  0  0  0  0
   58.7658   29.4838   49.2003 H   0  0  0  0  0  0  0  0  0  0  0  0
   59.3781   30.6748   48.0030 H   0  0  0  0  0  0  0  0  0  0  0  0
   57.6423   30.2125   48.0030 H   0  0  0  0  0  0  0  0  0  0  0  0
  1  2  1  0
  2  3  2  0
  3  4  1  0
  4  5  2  0
  5  6  1  0
  5  7  1  0
  7  8  1  0
  8  9  1  0
  9 10  1  0
 10 11  1  0
 11 12  1  0
 12 13  1  0
 13 14  2  0
 14 15  1  0
 15 16  2  0
 16 17  1  0
 17 18  2  0
 11 19  2  0
 19 20  1  0
 20 21  2  0
 20 22  1  0
 22 23  1  0
  7 24  2  0
 24 25  1  0
 24  2  1  0
 22  9  2  0
 18 13  1  0
  1 26  1  0
  1 27  1  0
  1 28  1  0
  3 29  1  0
  4 30  1  0
  6 31  1  0
  6 32  1  0
  6 33  1  0
  8 34  1  0
  8 35  1  0
 10 36  1  0
 14 37  1  0
 15 38  1  0
 16 39  1  0
 17 40  1  0
 18 41  1  0
 23 42  1  0
 23 43  1  0
 23 44  1  0
 25 45  1  0
 25 46  1  0
 25 47  1  0
M  END
>  <smiles>  (1) 
Cc1ccc(C)c(Cc2[nH]c(Sc3ccccc3)nc(=O)c2C)c1C

>  <score_type>  (1) 
oracle

>  <origin>  (1) 
adg

>  <m_score__min__energy>  (1) 
-8.1600000000000001

>  <m_primary>  (1) 
energy

$$$$
1:0
     RDKit          3D

 54 56  0  0  0  0  0  0  0  0999 V2000
   58.7240   26.7730   46.1840 O   0  0  0  0  0  0  0  0  0  0  0  0
   58.0500   27.7970   45.8880 C   0  0  0  0  0  0  0  0  0  0  0  0
   56.5920   27.6510   45.5710 C   0  0  0  0  0  0  0  0  0  0  0  0
   56.0140   28.9500   45.2460 N   0  0  0  0  0  0  0  0  0  0  0  0
   56.3630   29.7830   44.1300 C   0  0  0  0  0  0  0  0  0  0  0  0
   56.1510   29.3450   42.9670 O   0  0  0  0  0  0  0  0  0  0  0  0
   56.9550   31.1240   44.2900 C   0  0  0  0  0  0  0  0  0  0  0  0
   57.4910   31.8900   43.2690 C   0  0  0  0  0  0  0  0  0  0  0  0
   57.9000   33.0680   43.8540 C   0  0  0  0  0  0  0  0  0  0  0  0
   57.5870   32.9490   45.1930 C   0  0  0  0  0  0  0  0  0  0  0  0
   57.7900   34.0040   46.2320 C   0  0  0  0  0  0  0  0  0  0  0  0
   59.5170   34.4490   46.3310 S   0  0  0  0  0  0  0  0  0  0  0  0
   60.3370   33.4010   45.6330 O   0  0  0  0  0  0  0  0  0  0  0  0
   59.7290   35.7700   45.6470 O   0  0  0  0  0  0  0  0  0  0  0  0
   60.0430   34.5860   48.0350 C   0  0  0  0  0  0  0  0  0  0  0  0
   61.3970   33.9580   48.2270 C   0  0  0  0  0  0  0  0  0  0  0  0
   62.3340   33.9750   47.1790 C   0  0  0  0  0  0  0  0  0  0  0  0
   63.6060   33.4270   47.3600 C   0  0  0  0  0  0  0  0  0  0  0  0
   63.9520   32.8530   48.5840 C   0  0  0  0  0  0  0  0  0  0  0  0
   63.0290   32.8310   49.6320 C   0  0  0  0  0  0  0  0  0  0  0  0
   61.7570   33.3890   49.4610 C   0  0  0  0  0  0  0  0  0  0  0  0
   60.8820   33.3720   50.4970 F   0  0  0  0  0  0  0  0  0  0  0  0
   57.0250   31.7850   45.4240 O   0  0  0  0  0  0  0  0  0  0  0  0
   58.6810   29.0820   45.8360 N   0  0  0  0  0  0  0  0  0  0  0  0
   60.1370   29.2110   45.7880 C   0  0  0  0  0  0  0  0  0  0  0  0
   60.5910   30.5220   46.4370 C   0  0  0  0  0  0  0  0  0  0  0  0
   60.0800   30.6160   47.8490 C   0  0  0  0  0  0  0  0  0  0  0  0
   60.7320   29.9280   48.8860 C   0  0  0  0  0  0  0  0  0  0  0  0
   60.2890   30.0590   50.2070 C   0  0  0  0  0  0  0  0  0  0  0  0
   59.1960   30.8810   50.5010 C   0  0  0  0  0  0  0  0  0  0  0  0
   58.5450   31.5720   49.4750 C   0  0  0  0  0  0  0  0  0  0  0  0
   58.9870   31.4450   48.1540 C   0  0  0  0  0  0  0  0  0  0  0  0
   56.4731   26.9752   44.7113 H   0  0  0  0  0  0  0  0  0  0  0  0
   56.0738   27.2374   46.4487 H   0  0  0  0  0  0  0  0  0  0  0  0
   57.5734   31.6142   42.2073 H   0  0  0  0  0  0  0  0  0  0  0  0
   58.3771   33.9256   43.3572 H   0  0  0  0  0  0  0  0  0  0  0  0
   57.2003   34.8937   45.9663 H   0  0  0  0  0  0  0  0  0  0  0  0
   57.4635   33.6143   47.2075 H   0  0  0  0  0  0  0  0  0  0  0  0
   60.0958   35.6492   48.3120 H   0  0  0  0  0  0  0  0  0  0  0  0
   59.3164   34.0606   48.6722 H   0  0  0  0  0  0  0  0  0  0  0  0
   62.0639   34.4224   46.2111 H   0  0  0  0  0  0  0  0  0  0  0  0
   64.3356   33.4479   46.5370 H   0  0  0  0  0  0  0  0  0  0  0  0
   64.9524   32.4175   48.7236 H   0  0  0  0  0  0  0  0  0  0  0  0
   63.3026   32.3739   50.5944 H   0  0  0  0  0  0  0  0  0  0  0  0
   58.0820   29.9350   45.7600 H   0  0  0  0  0  0  0  0  0  0  0  0
   60.5914   28.3663   46.3265 H   0  0  0  0  0  0  0  0  0  0  0  0
   60.4554   29.2113   44.7351 H   0  0  0  0  0  0  0  0  0  0  0  0
   61.6903   30.5594   46.4467 H   0  0  0  0  0  0  0  0  0  0  0  0
   60.1879   31.3646   45.8561 H   0  0  0  0  0  0  0  0  0  0  0  0
   61.5941   29.2838   48.6587 H   0  0  0  0  0  0  0  0  0  0  0  0
   60.8007   29.5152   51.0147 H   0  0  0  0  0  0  0  0  0  0  0  0
   58.8488   30.9836   51.5397 H   0  0  0  0  0  0  0  0  0  0  0  0
   57.6841   32.2164   49.7067 H   0  0  0  0  0  0  0  0  0  0  0  0
   58.4769   31.9964   47.3504 H   0  0  0  0  0  0  0  0  0  0  0  0
  1  2  2  0
  2  3  1  0
  3  4  1  0
  4  5  1  0
  5  6  2  0
  5  7  1  0
  7  8  2  0
  8  9  1  0
  9 10  2  0
 10 11  1  0
 11 12  1  0
 12 13  2  0
 12 14  2  0
 12 15  1  0
 15 16  1  0
 16 17  2  0
 17 18  1  0
 18 19  2  0
 19 20  1  0
 20 21  2  0
 21 22  1  0
 10 23  1  0
  2 24  1  0
 24 25  1  0
 25 26  1  0
 26 27  1  0
 27 28  2  0
 28 29  1  0
 29 30  2  0
 30 31  1  0
 31 32  2  0
 23  7  1  0
 32 27  1  0
 21 16  1  0
  3 33  1  0
  3 34  1  0
  8 35  1  0
  9 36  1  0
 11 37  1  0
 11 38  1  0
 15 39  1  0
 15 40  1  0
 17 41  1  0
 18 42  1  0
 19 43  1  0
 20 44  1  0
 24 45  1  0
 25 46  1  0
 25 47  1  0
 26 48  1  0
 26 49  1  0
 28 50  1  0
 29 51  1  0
 30 52  1  0
 31 53  1  0
 32 54  1  0
M  CHG  1   4  -1
M  END
>  <UniqueID>  (2) 
1

>  <SMILES>  (2) 
O=C(C[N-]C(=O)c1ccc(CS(=O)(=O)Cc2ccccc2F)o1)NCCc1ccccc1

>  <Energy>  (2) 
62.85945558685533

>  <Genealogy>  (2) 
O=C(C[N-]C(=O)c1ccc(CS(=O)(=O)Cc2ccccc2F)o1)NCCc1ccccc1 (protonated)
O=C(C[N-]C(=O)c1ccc(CS(=O)(=O)Cc2ccccc2F)o1)NCCc1ccccc1 (3D coordinates assigned)
O=C(C[N-]C(=O)c1ccc(CS(=O)(=O)Cc2ccccc2F)o1)NCCc1ccccc1 (optimized conformer: 62.85945558685533 kcal/mol)

>  <smiles>  (2) 
O=C(CNC(=O)c1ccc(CS(=O)(=O)Cc2ccccc2F)o1)NCCc1ccccc1

>  <score_type>  (2) 
oracle

>  <origin>  (2) 
adg

>  <m_score__min__energy>  (2) 
-11.01

>  <m_primary>  (2) 
energy

$$$$
2:0
     RDKit          3D

 46 49  0  0  0  0  0  0  0  0999 V2000
   58.3670   21.8210   45.3670 C   0  0  0  0  0  0  0  0  0  0  0  0
   58.0390   22.7480   46.3960 O   0  0  0  0  0  0  0  0  0  0  0  0
   57.7580   24.1050   46.1790 C   0  0  0  0  0  0  0  0  0  0  0  0
   58.7700   24.9200   45.6610 C   0  0  0  0  0  0  0  0  0  0  0  0
   58.5430   26.2790   45.4280 C   0  0  0  0  0  0  0  0  0  0  0  0
   57.2920   26.8520   45.7160 C   0  0  0  0  0  0  0  0  0  0  0  0
   57.0370   28.2920   45.4660 C   0  0  0  0  0  0  0  0  0  0  0  0
   55.8590   28.6820   45.2320 O   0  0  0  0  0  0  0  0  0  0  0  0
   58.1040   29.2530   45.5370 N   0  0  0  0  0  0  0  0  0  0  0  0
   58.0440   30.5580   44.9360 C   0  0  0  0  0  0  0  0  0  0  0  0
   57.4400   30.7660   43.6850 C   0  0  0  0  0  0  0  0  0  0  0  0
   57.4350   32.0060   43.1280 N   0  0  0  0  0  0  0  0  0  0  0  0
   58.0020   33.0740   43.7460 C   0  0  0  0  0  0  0  0  0  0  0  0
   58.6220   32.9240   44.9960 C   0  0  0  0  0  0  0  0  0  0  0  0
   59.2620   34.0850   45.6560 C   0  0  0  0  0  0  0  0  0  0  0  0
   59.2250   35.2080   45.0850 O   0  0  0  0  0  0  0  0  0  0  0  0
   59.9220   33.9720   46.9740 C   0  0  0  0  0  0  0  0  0  0  0  0
   59.3070   33.9960   48.2290 C   0  0  0  0  0  0  0  0  0  0  0  0
   60.2360   33.9170   49.2110 N   0  0  0  0  0  0  0  0  0  0  0  0
   59.9830   33.8380   50.6450 C   0  0  0  0  0  0  0  0  0  0  0  0
   61.4240   33.8300   48.5900 C   0  0  0  0  0  0  0  0  0  0  0  0
   62.6380   33.7070   49.1810 N   0  0  0  0  0  0  0  0  0  0  0  0
   63.7440   33.6280   48.3830 C   0  0  0  0  0  0  0  0  0  0  0  0
   63.6210   33.6660   47.0200 N   0  0  0  0  0  0  0  0  0  0  0  0
   62.4020   33.7870   46.4180 C   0  0  0  0  0  0  0  0  0  0  0  0
   61.2790   33.8730   47.2350 C   0  0  0  0  0  0  0  0  0  0  0  0
   58.6550   31.6450   45.5740 C   0  0  0  0  0  0  0  0  0  0  0  0
   56.2710   26.0310   46.2270 C   0  0  0  0  0  0  0  0  0  0  0  0
   56.5010   24.6720   46.4610 C   0  0  0  0  0  0  0  0  0  0  0  0
   58.7016   20.8753   45.8184 H   0  0  0  0  0  0  0  0  0  0  0  0
   57.4797   21.6360   44.7437 H   0  0  0  0  0  0  0  0  0  0  0  0
   59.1732   22.2352   44.7437 H   0  0  0  0  0  0  0  0  0  0  0  0
   59.7553   24.4864   45.4346 H   0  0  0  0  0  0  0  0  0  0  0  0
   59.3487   26.9047   45.0164 H   0  0  0  0  0  0  0  0  0  0  0  0
   58.9180   29.0370   46.1550 H   0  0  0  0  0  0  0  0  0  0  0  0
   56.9703   29.9241   43.1552 H   0  0  0  0  0  0  0  0  0  0  0  0
   57.9752   34.0624   43.2640 H   0  0  0  0  0  0  0  0  0  0  0  0
   58.2221   34.0687   48.3953 H   0  0  0  0  0  0  0  0  0  0  0  0
   60.8929   34.1221   51.1940 H   0  0  0  0  0  0  0  0  0  0  0  0
   59.1650   34.5235   50.9113 H   0  0  0  0  0  0  0  0  0  0  0  0
   59.7004   32.8088   50.9113 H   0  0  0  0  0  0  0  0  0  0  0  0
   64.7406   33.5332   48.8389 H   0  0  0  0  0  0  0  0  0  0  0  0
   62.3104   33.8156   45.3222 H   0  0  0  0  0  0  0  0  0  0  0  0
   59.1654   31.4951   46.5368 H   0  0  0  0  0  0  0  0  0  0  0  0
   55.2826   26.4619   46.4445 H   0  0  0  0  0  0  0  0  0  0  0  0
   55.6956   24.0427   46.8675 H   0  0  0  0  0  0  0  0  0  0  0  0
  1  2  1  0
  2  3  1  0
  3  4  2  0
  4  5  1  0
  5  6  2  0
  6  7  1  0
  7  8  2  0
  7  9  1  0
  9 10  1  0
 10 11  2  0
 11 12  1  0
 12 13  2  0
 13 14  1  0
 14 15  1  0
 15 16  2  0
 15 17  1  0
 17 18  2  0
 18 19  1  0
 19 20  1  0
 19 21  1  0
 21 22  2  0
 22 23  1  0
 23 24  2  0
 24 25  1  0
 25 26  2  0
 14 27  2  0
  6 28  1  0
 28 29  2  0
 29  3  1  0
 27 10  1  0
 26 17  1  0
 26 21  1  0
  1 30  1  0
  1 31  1  0
  1 32  1  0
  4 33  1  0
  5 34  1  0
  9 35  1  0
 11 36  1  0
 13 37  1  0
 18 38  1  0
 20 39  1  0
 20 40  1  0
 20 41  1  0
 23 42  1  0
 25 43  1  0
 27 44  1  0
 28 45  1  0
 29 46  1  0
M  END
>  <UniqueID>  (3) 
2

>  <SMILES>  (3) 
COc1ccc(C(=O)Nc2cncc(C(=O)c3cn(C)c4ncncc34)c2)cc1

>  <Energy>  (3) 
97.77399485518498

>  <Genealogy>  (3) 
COc1ccc(C(=O)Nc2cncc(C(=O)c3cn(C)c4ncncc34)c2)cc1 (3D coordinates assigned)
COc1ccc(C(=O)Nc2cncc(C(=O)c3cn(C)c4ncncc34)c2)cc1 (optimized conformer: 97.77399485518498 kcal/mol)

>  <smiles>  (3) 
COc1ccc(C(=O)Nc2cncc(C(=O)c3cn(C)c4ncncc34)c2)cc1

>  <score_type>  (3) 
oracle

>  <origin>  (3) 
adg

>  <m_score__min__energy>  (3) 
-8.4499999999999993

>  <m_primary>  (3) 
energy

$$$$
3:0
     RDKit          3D

 36 37  0  0  0  0  0  0  0  0999 V2000
   58.1888   32.8602   42.4689 H   0  0  0  0  0  0  0  0  0  0  0  0
   57.9670   32.3430   43.4140 C   0  0  0  0  0  0  0  0  0  0  0  0
   57.7900   32.9430   44.6410 C   0  0  0  0  0  0  0  0  0  0  0  0
   57.8030   34.4160   44.9060 C   0  0  0  0  0  0  0  0  0  0  0  0
   56.8585   34.8563   44.5538 H   0  0  0  0  0  0  0  0  0  0  0  0
   58.6520   34.8678   44.3721 H   0  0  0  0  0  0  0  0  0  0  0  0
   57.9470   34.6670   46.3020 O   0  0  0  0  0  0  0  0  0  0  0  0
   59.1810   34.6470   46.9620 C   0  0  0  0  0  0  0  0  0  0  0  0
   59.2690   34.9680   48.1790 O   0  0  0  0  0  0  0  0  0  0  0  0
   60.3970   34.1870   46.2320 C   0  0  0  0  0  0  0  0  0  0  0  0
   61.1709   33.8942   46.9568 H   0  0  0  0  0  0  0  0  0  0  0  0
   60.1408   33.3237   45.6003 H   0  0  0  0  0  0  0  0  0  0  0  0
   60.7764   35.0038   45.6003 H   0  0  0  0  0  0  0  0  0  0  0  0
   57.5170   32.0100   45.5750 N   0  0  0  0  0  0  0  0  0  0  0  0
   57.5560   30.8510   44.8860 C   0  0  0  0  0  0  0  0  0  0  0  0
   57.3150   29.7080   45.4620 N   0  0  0  0  0  0  0  0  0  0  0  0
   56.2230   28.8070   45.2310 C   0  0  0  0  0  0  0  0  0  0  0  0
   55.1890   29.1910   44.6230 O   0  0  0  0  0  0  0  0  0  0  0  0
   56.3250   27.3870   45.6230 C   0  0  0  0  0  0  0  0  0  0  0  0
   55.2490   26.6640   45.9860 N   0  0  0  0  0  0  0  0  0  0  0  0
   55.7530   25.4390   46.2290 C   0  0  0  0  0  0  0  0  0  0  0  0
   55.0390   24.4700   46.5950 O   0  0  0  0  0  0  0  0  0  0  0  0
   57.0820   25.3340   46.0450 N   0  0  0  0  0  0  0  0  0  0  0  0
   57.4550   26.5750   45.6740 C   0  0  0  0  0  0  0  0  0  0  0  0
   58.8800   26.9390   45.3250 C   0  0  0  0  0  0  0  0  0  0  0  0
   59.4561   26.0080   45.2186 H   0  0  0  0  0  0  0  0  0  0  0  0
   59.4980   27.7820   46.4460 C   0  0  0  0  0  0  0  0  0  0  0  0
   59.1974   27.3719   47.4214 H   0  0  0  0  0  0  0  0  0  0  0  0
   60.5944   27.7585   46.3605 H   0  0  0  0  0  0  0  0  0  0  0  0
   59.1457   28.8206   46.3605 H   0  0  0  0  0  0  0  0  0  0  0  0
   58.9500   27.6890   43.9890 C   0  0  0  0  0  0  0  0  0  0  0  0
   59.0507   28.7678   44.1790 H   0  0  0  0  0  0  0  0  0  0  0  0
   59.8190   27.3351   43.4149 H   0  0  0  0  0  0  0  0  0  0  0  0
   58.0305   27.5020   43.4149 H   0  0  0  0  0  0  0  0  0  0  0  0
   57.8220   31.0180   43.5710 N   0  0  0  0  0  0  0  0  0  0  0  0
   57.8650   30.3130   42.8050 H   0  0  0  0  0  0  0  0  0  0  0  0
  1  2  1  0
  2  3  2  0
  3  4  1  0
  4  5  1  0
  4  6  1  0
  4  7  1  0
  7  8  1  0
  8  9  2  0
  8 10  1  0
 10 11  1  0
 10 12  1  0
 10 13  1  0
  3 14  1  0
 14 15  1  0
 15 16  2  0
 16 17  1  0
 17 18  2  0
 17 19  1  0
 19 20  1  0
 20 21  1  0
 21 22  2  0
 21 23  1  0
 23 24  1  0
 24 25  1  0
 25 26  1  0
 25 27  1  0
 27 28  1  0
 27 29  1  0
 27 30  1  0
 25 31  1  0
 31 32  1  0
 31 33  1  0
 31 34  1  0
 15 35  1  0
 35 36  1  0
 35  2  1  0
 24 19  2  0
M  CHG  3  14  -1  20  -1  23  -1
M  END
>  <UniqueID>  (4) 
3

>  <SMILES>  (4) 
CC(=O)OCc1c[nH]/c(=N\C(=O)c2[n-]c(=O)[n-]c2C(C)C)[n-]1

>  <Energy>  (4) 
89.77113386610296

>  <Genealogy>  (4) 
CC(=O)OCc1c[nH]c(=NC(=O)c2[n-]c(=O)[n-]c2C(C)C)[n-]1 (protonated)
CC(=O)OCc1c[nH]/c(=N\C(=O)c2[n-]c(=O)[n-]c2C(C)C)[n-]1 (cis-trans isomerization)
CC(=O)OCc1c[nH]/c(=N\C(=O)c2[n-]c(=O)[n-]c2C(C)C)[n-]1 (3D coordinates assigned)
CC(=O)OCc1c[nH]/c(=N\C(=O)c2[n-]c(=O)[n-]c2C(C)C)[n-]1 (optimized conformer: 89.77113386610296 kcal/mol)

>  <smiles>  (4) 
CC(=O)OCc1c[nH]c(=NC(=O)c2[nH]c(=O)[nH]c2C(C)C)[nH]1

>  <score_type>  (4) 
oracle

>  <origin>  (4) 
adg

>  <m_score__min__energy>  (4) 
-12.550000000000001

>  <m_primary>  (4) 
energy

$$$$
4:0
     RDKit          3D

 56 59  0  0  0  0  0  0  0  0999 V2000
   57.3900   23.7860   46.6190 C   0  0  0  0  0  0  0  0  0  0  0  0
   56.3460   24.5300   46.2420 C   0  0  0  0  0  0  0  0  0  0  0  0
   55.2070   23.9700   45.7930 N   0  0  0  0  0  0  0  0  0  0  0  0
   54.3670   25.0130   45.6620 C   0  0  0  0  0  0  0  0  0  0  0  0
   53.1800   24.8850   45.2650 O   0  0  0  0  0  0  0  0  0  0  0  0
   54.8970   26.2060   45.9960 N   0  0  0  0  0  0  0  0  0  0  0  0
   56.1660   25.9140   46.3450 C   0  0  0  0  0  0  0  0  0  0  0  0
   57.0280   26.8840   46.7020 C   0  0  0  0  0  0  0  0  0  0  0  0
   57.6260   27.8730   45.7960 C   0  0  0  0  0  0  0  0  0  0  0  0
   58.9490   28.1290   45.7390 N   0  0  0  0  0  0  0  0  0  0  0  0
   59.0390   29.1550   44.8650 C   0  0  0  0  0  0  0  0  0  0  0  0
   60.1380   29.6770   44.5380 O   0  0  0  0  0  0  0  0  0  0  0  0
   57.8450   29.5730   44.3900 N   0  0  0  0  0  0  0  0  0  0  0  0
   57.5920   30.6280   43.4050 C   0  0  0  0  0  0  0  0  0  0  0  0
   58.1550   31.9800   43.8710 C   0  0  0  0  0  0  0  0  0  0  0  0
   57.3620   32.6100   45.0270 C   0  0  0  0  0  0  0  0  0  0  0  0
   58.1380   33.6740   45.7080 N   0  0  0  0  0  0  0  0  0  0  0  0
   57.7160   33.8770   47.1070 C   0  0  0  0  0  0  0  0  0  0  0  0
   58.2040   32.7440   48.0230 C   0  0  0  0  0  0  0  0  0  0  0  0
   59.6700   32.5850   47.9680 N   0  0  0  0  0  0  0  0  0  0  0  0
   60.3860   33.6630   48.6860 C   0  0  0  0  0  0  0  0  0  0  0  0
   61.8420   33.3120   48.8410 C   0  0  0  0  0  0  0  0  0  0  0  0
   62.2950   32.6250   49.9800 C   0  0  0  0  0  0  0  0  0  0  0  0
   63.6530   32.3180   50.1230 C   0  0  0  0  0  0  0  0  0  0  0  0
   64.5640   32.6960   49.1340 C   0  0  0  0  0  0  0  0  0  0  0  0
   64.1210   33.3830   48.0000 C   0  0  0  0  0  0  0  0  0  0  0  0
   62.7650   33.6930   47.8530 C   0  0  0  0  0  0  0  0  0  0  0  0
   60.1340   32.4020   46.5760 C   0  0  0  0  0  0  0  0  0  0  0  0
   59.6010   33.4860   45.6150 C   0  0  0  0  0  0  0  0  0  0  0  0
   56.9500   28.7760   45.0010 C   0  0  0  0  0  0  0  0  0  0  0  0
   55.5650   28.8700   44.8720 O   0  0  0  0  0  0  0  0  0  0  0  0
   58.3083   24.2707   46.9819 H   0  0  0  0  0  0  0  0  0  0  0  0
   57.3311   22.6888   46.5664 H   0  0  0  0  0  0  0  0  0  0  0  0
   57.3088   26.9409   47.7640 H   0  0  0  0  0  0  0  0  0  0  0  0
   58.0694   30.3507   42.4536 H   0  0  0  0  0  0  0  0  0  0  0  0
   56.5038   30.7312   43.2814 H   0  0  0  0  0  0  0  0  0  0  0  0
   59.1929   31.8290   44.2026 H   0  0  0  0  0  0  0  0  0  0  0  0
   58.0853   32.6704   43.0175 H   0  0  0  0  0  0  0  0  0  0  0  0
   56.4343   33.0456   44.6273 H   0  0  0  0  0  0  0  0  0  0  0  0
   57.1424   31.8217   45.7621 H   0  0  0  0  0  0  0  0  0  0  0  0
   58.1299   34.8298   47.4686 H   0  0  0  0  0  0  0  0  0  0  0  0
   56.6164   33.8868   47.1333 H   0  0  0  0  0  0  0  0  0  0  0  0
   57.9095   32.9717   49.0581 H   0  0  0  0  0  0  0  0  0  0  0  0
   57.7460   31.8053   47.6779 H   0  0  0  0  0  0  0  0  0  0  0  0
   60.2975   34.5995   48.1157 H   0  0  0  0  0  0  0  0  0  0  0  0
   59.9398   33.7851   49.6840 H   0  0  0  0  0  0  0  0  0  0  0  0
   61.5803   32.3276   50.7615 H   0  0  0  0  0  0  0  0  0  0  0  0
   64.0033   31.7784   51.0153 H   0  0  0  0  0  0  0  0  0  0  0  0
   65.6308   32.4529   49.2475 H   0  0  0  0  0  0  0  0  0  0  0  0
   64.8398   33.6802   47.2222 H   0  0  0  0  0  0  0  0  0  0  0  0
   62.4204   34.2368   46.9611 H   0  0  0  0  0  0  0  0  0  0  0  0
   61.2335   32.4345   46.5659 H   0  0  0  0  0  0  0  0  0  0  0  0
   59.7485   31.4332   46.2254 H   0  0  0  0  0  0  0  0  0  0  0  0
   60.0927   34.4400   45.8560 H   0  0  0  0  0  0  0  0  0  0  0  0
   59.8249   33.1549   44.5902 H   0  0  0  0  0  0  0  0  0  0  0  0
   54.9740   28.0480   44.8700 H   0  0  0  0  0  0  0  0  0  0  0  0
  1  2  2  0
  2  3  1  0
  3  4  1  0
  4  5  2  0
  4  6  1  0
  6  7  1  0
  7  8  2  3
  8  9  1  0
  9 10  1  0
 10 11  1  0
 11 12  2  0
 11 13  1  0
 13 14  1  0
 14 15  1  0
 15 16  1  0
 16 17  1  0
 17 18  1  0
 18 19  1  0
 19 20  1  0
 20 21  1  0
 21 22  1  0
 22 23  2  0
 23 24  1  0
 24 25  2  0
 25 26  1  0
 26 27  2  0
 20 28  1  0
 28 29  1  0
 13 30  1  0
 30 31  1  0
  7  2  1  0
 30  9  2  0
 29 17  1  0
 27 22  1  0
  1 32  1  0
  1 33  1  0
  8 34  1  0
 14 35  1  0
 14 36  1  0
 15 37  1  0
 15 38  1  0
 16 39  1  0
 16 40  1  0
 18 41  1  0
 18 42  1  0
 19 43  1  0
 19 44  1  0
 21 45  1  0
 21 46  1  0
 23 47  1  0
 24 48  1  0
 25 49  1  0
 26 50  1  0
 27 51  1  0
 28 52  1  0
 28 53  1  0
 29 54  1  0
 29 55  1  0
 31 56  1  0
M  CHG  3   3  -1   6  -1  10  -1
M  END
>  <UniqueID>  (5) 
4

>  <SMILES>  (5) 
C=c1[n-]c(=O)[n-]c1=Cc1[n-]c(=O)n(CCCN2CCN(Cc3ccccc3)CC2)c1O

>  <Energy>  (5) 
134.45576820017143

>  <Genealogy>  (5) 
C=c1[n-]c(=O)[n-]c1=Cc1[n-]c(=O)n(CCCN2CCN(Cc3ccccc3)CC2)c1O (protonated)
C=c1[n-]c(=O)[n-]c1=Cc1[n-]c(=O)n(CCCN2CCN(Cc3ccccc3)CC2)c1O (3D coordinates assigned)
C=c1[n-]c(=O)[n-]c1=Cc1[n-]c(=O)n(CCCN2CCN(Cc3ccccc3)CC2)c1O (nonaromatic ring conformer: 134.45576820017143 kcal/mol)

>  <smiles>  (5) 
C=c1[nH]c(=O)[nH]c1=Cc1[nH]c(=O)n(CCCN2CCN(Cc3ccccc3)CC2)c1O

>  <score_type>  (5) 
oracle

>  <origin>  (5) 
adg

>  <m_score__min__energy>  (5) 
-15.25

>  <m_primary>  (5) 
energy

$$$$
5:0
     RDKit          3D

 41 43  0  0  0  0  0  0  0  0999 V2000
   57.7870   33.5340   53.1200 C   0  0  0  0  0  0  0  0  0  0  0  0
   58.0430   32.5380   52.0290 C   0  0  0  0  0  0  0  0  0  0  0  0
   58.4290   32.9940   50.8080 N   0  0  0  0  0  0  0  0  0  0  0  0
   58.6520   32.1800   49.7710 N   0  0  0  0  0  0  0  0  0  0  0  0
   59.0640   32.7740   48.5250 C   0  0  0  0  0  0  0  0  0  0  0  0
   60.3850   33.2280   48.3690 C   0  0  0  0  0  0  0  0  0  0  0  0
   60.7900   33.8250   47.1710 C   0  0  0  0  0  0  0  0  0  0  0  0
   59.8770   33.9860   46.1250 C   0  0  0  0  0  0  0  0  0  0  0  0
   58.5570   33.5530   46.2770 C   0  0  0  0  0  0  0  0  0  0  0  0
   58.1490   32.9530   47.4730 C   0  0  0  0  0  0  0  0  0  0  0  0
   58.5070   30.8250   49.9120 C   0  0  0  0  0  0  0  0  0  0  0  0
   58.7490   30.0470   48.9490 O   0  0  0  0  0  0  0  0  0  0  0  0
   58.1140   30.2960   51.1460 C   0  0  0  0  0  0  0  0  0  0  0  0
   57.9810   29.0500   51.2870 O   0  0  0  0  0  0  0  0  0  0  0  0
   57.8970   31.1550   52.2280 C   0  0  0  0  0  0  0  0  0  0  0  0
   57.5510   30.6150   53.5110 N   0  0  0  0  0  0  0  0  0  0  0  0
   56.1840   29.5630   53.6960 S   0  0  0  0  0  0  0  0  0  0  0  0
   55.9260   29.3370   55.1590 O   0  0  0  0  0  0  0  0  0  0  0  0
   56.4810   28.2420   53.0450 O   0  0  0  0  0  0  0  0  0  0  0  0
   54.7480   30.2980   52.9830 C   0  0  0  0  0  0  0  0  0  0  0  0
   53.6460   30.5920   53.7950 C   0  0  0  0  0  0  0  0  0  0  0  0
   52.5140   31.2070   53.2540 C   0  0  0  0  0  0  0  0  0  0  0  0
   52.4660   31.5320   51.8860 C   0  0  0  0  0  0  0  0  0  0  0  0
   51.2720   32.1860   51.3090 C   0  0  0  0  0  0  0  0  0  0  0  0
   51.1250   32.2670   50.0600 O   0  0  0  0  0  0  0  0  0  0  0  0
   50.2930   32.7230   52.1380 O   0  0  0  0  0  0  0  0  0  0  0  0
   53.5720   31.2250   51.0740 C   0  0  0  0  0  0  0  0  0  0  0  0
   54.7030   30.6100   51.6180 C   0  0  0  0  0  0  0  0  0  0  0  0
   57.9123   33.0467   54.0982 H   0  0  0  0  0  0  0  0  0  0  0  0
   58.5003   34.3666   53.0311 H   0  0  0  0  0  0  0  0  0  0  0  0
   56.7606   33.9195   53.0311 H   0  0  0  0  0  0  0  0  0  0  0  0
   61.1040   33.1131   49.1935 H   0  0  0  0  0  0  0  0  0  0  0  0
   61.8282   34.1683   47.0517 H   0  0  0  0  0  0  0  0  0  0  0  0
   60.1974   34.4535   45.1822 H   0  0  0  0  0  0  0  0  0  0  0  0
   57.8378   33.6842   45.4551 H   0  0  0  0  0  0  0  0  0  0  0  0
   57.1073   32.6197   47.5908 H   0  0  0  0  0  0  0  0  0  0  0  0
   57.8760   31.1200   54.3650 H   0  0  0  0  0  0  0  0  0  0  0  0
   53.6715   30.3374   54.8648 H   0  0  0  0  0  0  0  0  0  0  0  0
   51.6554   31.4384   53.9015 H   0  0  0  0  0  0  0  0  0  0  0  0
   53.5469   31.4708   50.0021 H   0  0  0  0  0  0  0  0  0  0  0  0
   55.5606   30.3702   50.9723 H   0  0  0  0  0  0  0  0  0  0  0  0
  1  2  1  0
  2  3  1  0
  3  4  1  0
  4  5  1  0
  5  6  2  0
  6  7  1  0
  7  8  2  0
  8  9  1  0
  9 10  2  0
  4 11  1  0
 11 12  2  0
 11 13  1  0
 13 14  2  0
 13 15  1  0
 15 16  1  0
 16 17  1  0
 17 18  2  0
 17 19  2  0
 17 20  1  0
 20 21  2  0
 21 22  1  0
 22 23  2  0
 23 24  1  0
 24 25  2  0
 24 26  1  0
 23 27  1  0
 27 28  2  0
 15  2  2  0
 28 20  1  0
 10  5  1  0
  1 29  1  0
  1 30  1  0
  1 31  1  0
  6 32  1  0
  7 33  1  0
  8 34  1  0
  9 35  1  0
 10 36  1  0
 16 37  1  0
 21 38  1  0
 22 39  1  0
 27 40  1  0
 28 41  1  0
M  CHG  2   3  -1  26  -1
M  END
>  <UniqueID>  (6) 
5

>  <SMILES>  (6) 
Cc1[n-]n(-c2ccccc2)c(=O)c(=O)c1NS(=O)(=O)c1ccc(C(=O)[O-])cc1

>  <Energy>  (6) 
59.02491401704048

>  <Genealogy>  (6) 
Cc1[n-]n(-c2ccccc2)c(=O)c(=O)c1NS(=O)(=O)c1ccc(C(=O)[O-])cc1 (protonated)
Cc1[n-]n(-c2ccccc2)c(=O)c(=O)c1NS(=O)(=O)c1ccc(C(=O)[O-])cc1 (3D coordinates assigned)
Cc1[n-]n(-c2ccccc2)c(=O)c(=O)c1NS(=O)(=O)c1ccc(C(=O)[O-])cc1 (optimized conformer: 59.02491401704048 kcal/mol)

>  <smiles>  (6) 
Cc1[nH]n(-c2ccccc2)c(=O)c(=O)c1NS(=O)(=O)c1ccc(C(=O)O)cc1

>  <score_type>  (6) 
oracle

>  <origin>  (6) 
adg

>  <m_score__min__energy>  (6) 
-11.84

>  <m_primary>  (6) 
energy

$$$$
6:0
     RDKit          3D

 62 65  0  0  0  0  0  0  0  0999 V2000
   56.6450   33.2870   45.3450 C   0  0  0  0  0  0  0  0  0  0  0  0
   57.8760   32.5670   45.8310 C   0  0  0  0  0  0  0  0  0  0  0  0
   58.6800   33.2210   46.7810 C   0  0  0  0  0  0  0  0  0  0  0  0
   59.8750   32.6500   47.2410 C   0  0  0  0  0  0  0  0  0  0  0  0
   60.7220   33.3350   48.2580 C   0  0  0  0  0  0  0  0  0  0  0  0
   60.2860   34.3620   48.8450 O   0  0  0  0  0  0  0  0  0  0  0  0
   62.0510   32.8790   48.5670 N   0  0  0  0  0  0  0  0  0  0  0  0
   63.1660   33.8250   48.4440 C   0  0  0  0  0  0  0  0  0  0  0  0
   64.5080   33.1050   48.6470 C   0  0  0  0  0  0  0  0  0  0  0  0
   64.5650   32.3470   49.9250 N   0  0  0  0  0  0  0  0  0  0  0  0
   65.1790   33.1500   50.9960 C   0  0  0  0  0  0  0  0  0  0  0  0
   63.2680   31.7730   50.3740 C   0  0  0  0  0  0  0  0  0  0  0  0
   62.2780   31.5820   49.2220 C   0  0  0  0  0  0  0  0  0  0  0  0
   60.2470   31.3890   46.7550 C   0  0  0  0  0  0  0  0  0  0  0  0
   59.4450   30.6960   45.8370 C   0  0  0  0  0  0  0  0  0  0  0  0
   59.9190   29.3690   45.3880 C   0  0  0  0  0  0  0  0  0  0  0  0
   60.8890   29.3170   44.5810 O   0  0  0  0  0  0  0  0  0  0  0  0
   59.2770   28.1140   45.8480 C   0  0  0  0  0  0  0  0  0  0  0  0
   59.1240   27.0190   44.9810 C   0  0  0  0  0  0  0  0  0  0  0  0
   58.5130   25.8440   45.4240 C   0  0  0  0  0  0  0  0  0  0  0  0
   58.0360   25.7460   46.7430 C   0  0  0  0  0  0  0  0  0  0  0  0
   57.4130   24.4670   47.2430 C   0  0  0  0  0  0  0  0  0  0  0  0
   56.9850   23.6290   46.1100 N   0  0  0  0  0  0  0  0  0  0  0  0
   57.8450   22.6980   45.6000 C   0  0  0  0  0  0  0  0  0  0  0  0
   57.4900   21.9400   44.4860 C   0  0  0  0  0  0  0  0  0  0  0  0
   56.2470   22.1590   43.8980 C   0  0  0  0  0  0  0  0  0  0  0  0
   55.9020   21.5050   42.8800 O   0  0  0  0  0  0  0  0  0  0  0  0
   55.4110   23.0880   44.4240 N   0  0  0  0  0  0  0  0  0  0  0  0
   55.7630   23.8200   45.5140 C   0  0  0  0  0  0  0  0  0  0  0  0
   54.9580   24.6800   45.9630 O   0  0  0  0  0  0  0  0  0  0  0  0
   58.1880   26.8400   47.6090 C   0  0  0  0  0  0  0  0  0  0  0  0
   58.8120   28.0080   47.1680 C   0  0  0  0  0  0  0  0  0  0  0  0
   58.2230   31.2620   45.3870 C   0  0  0  0  0  0  0  0  0  0  0  0
   57.1350   30.3290   44.3100 S   0  0  0  0  0  0  0  0  0  0  0  0
   55.8260   29.6720   45.2340 N   0  0  0  0  0  0  0  0  0  0  0  0
   56.5820   31.2110   43.2280 O   0  0  0  0  0  0  0  0  0  0  0  0
   57.8780   29.2080   43.6380 O   0  0  0  0  0  0  0  0  0  0  0  0
   56.0566   33.6311   46.2084 H   0  0  0  0  0  0  0  0  0  0  0  0
   56.9432   34.1530   44.7359 H   0  0  0  0  0  0  0  0  0  0  0  0
   56.0364   32.6025   44.7359 H   0  0  0  0  0  0  0  0  0  0  0  0
   58.3652   34.2001   47.1711 H   0  0  0  0  0  0  0  0  0  0  0  0
   63.1467   34.2789   47.4422 H   0  0  0  0  0  0  0  0  0  0  0  0
   63.0594   34.6024   49.2149 H   0  0  0  0  0  0  0  0  0  0  0  0
   64.6600   32.4026   47.8142 H   0  0  0  0  0  0  0  0  0  0  0  0
   65.2951   33.8726   48.6806 H   0  0  0  0  0  0  0  0  0  0  0  0
   64.8738   32.7508   51.9745 H   0  0  0  0  0  0  0  0  0  0  0  0
   66.2744   33.1040   50.9067 H   0  0  0  0  0  0  0  0  0  0  0  0
   64.8475   34.1950   50.9067 H   0  0  0  0  0  0  0  0  0  0  0  0
   63.4583   30.7952   50.8407 H   0  0  0  0  0  0  0  0  0  0  0  0
   62.8186   32.4817   51.0852 H   0  0  0  0  0  0  0  0  0  0  0  0
   62.6919   30.8686   48.4942 H   0  0  0  0  0  0  0  0  0  0  0  0
   61.3265   31.1897   49.6103 H   0  0  0  0  0  0  0  0  0  0  0  0
   61.1869   30.9339   47.1007 H   0  0  0  0  0  0  0  0  0  0  0  0
   59.4883   27.0878   43.9454 H   0  0  0  0  0  0  0  0  0  0  0  0
   58.4044   24.9911   44.7378 H   0  0  0  0  0  0  0  0  0  0  0  0
   58.1506   23.9151   47.8441 H   0  0  0  0  0  0  0  0  0  0  0  0
   56.5344   24.7136   47.8572 H   0  0  0  0  0  0  0  0  0  0  0  0
   58.8263   22.5454   46.0730 H   0  0  0  0  0  0  0  0  0  0  0  0
   58.1778   21.1839   44.0794 H   0  0  0  0  0  0  0  0  0  0  0  0
   57.8132   26.7765   48.6412 H   0  0  0  0  0  0  0  0  0  0  0  0
   58.9404   28.8526   47.8609 H   0  0  0  0  0  0  0  0  0  0  0  0
   54.9480   29.8660   44.7020 H   0  0  0  0  0  0  0  0  0  0  0  0
  1  2  1  0
  2  3  2  0
  3  4  1  0
  4  5  1  0
  5  6  2  0
  5  7  1  0
  7  8  1  0
  8  9  1  0
  9 10  1  0
 10 11  1  0
 10 12  1  0
 12 13  1  0
  4 14  2  0
 14 15  1  0
 15 16  1  0
 16 17  2  0
 16 18  1  0
 18 19  2  0
 19 20  1  0
 20 21  2  0
 21 22  1  0
 22 23  1  0
 23 24  1  0
 24 25  2  0
 25 26  1  0
 26 27  2  0
 26 28  1  0
 28 29  1  0
 29 30  2  0
 21 31  1  0
 31 32  2  0
 15 33  2  0
 33 34  1  0
 34 35  1  0
 34 36  2  0
 34 37  2  0
 33  2  1  0
 13  7  1  0
 32 18  1  0
 29 23  1  0
  1 38  1  0
  1 39  1  0
  1 40  1  0
  3 41  1  0
  8 42  1  0
  8 43  1  0
  9 44  1  0
  9 45  1  0
 11 46  1  0
 11 47  1  0
 11 48  1  0
 12 49  1  0
 12 50  1  0
 13 51  1  0
 13 52  1  0
 14 53  1  0
 19 54  1  0
 20 55  1  0
 22 56  1  0
 22 57  1  0
 24 58  1  0
 25 59  1  0
 31 60  1  0
 32 61  1  0
 35 62  1  0
M  CHG  2  28  -1  35  -1
M  END
>  <UniqueID>  (7) 
6

>  <SMILES>  (7) 
Cc1cc(C(=O)N2CCN(C)CC2)cc(C(=O)c2ccc(Cn3ccc(=O)[n-]c3=O)cc2)c1S([NH-])(=O)=O

>  <Energy>  (7) 
93.37489026859276

>  <Genealogy>  (7) 
Cc1cc(C(=O)N2CCN(C)CC2)cc(C(=O)c2ccc(Cn3ccc(=O)[n-]c3=O)cc2)c1S([NH-])(=O)=O (protonated)
Cc1cc(C(=O)N2CCN(C)CC2)cc(C(=O)c2ccc(Cn3ccc(=O)[n-]c3=O)cc2)c1S([NH-])(=O)=O (3D coordinates assigned)
Cc1cc(C(=O)N2CCN(C)CC2)cc(C(=O)c2ccc(Cn3ccc(=O)[n-]c3=O)cc2)c1S([NH-])(=O)=O (nonaromatic ring conformer: 93.37489026859276 kcal/mol)

>  <smiles>  (7) 
Cc1cc(C(=O)N2CCN(C)CC2)cc(C(=O)c2ccc(Cn3ccc(=O)[nH]c3=O)cc2)c1S(N)(=O)=O

>  <score_type>  (7) 
oracle

>  <origin>  (7) 
adg

>  <m_score__min__energy>  (7) 
-14.18

>  <m_primary>  (7) 
energy

$$$$
7:0
     RDKit          3D

 47 49  0  0  0  0  0  0  0  0999 V2000
   60.4740   28.8820   51.3010 O   0  0  0  0  0  0  0  0  0  0  0  0
   60.8140   28.6960   50.1010 C   0  0  0  0  0  0  0  0  0  0  0  0
   60.5950   27.3570   49.4750 C   0  0  0  0  0  0  0  0  0  0  0  0
   60.6870   27.4810   48.0590 O   0  0  0  0  0  0  0  0  0  0  0  0
   59.7080   28.0750   47.2470 C   0  0  0  0  0  0  0  0  0  0  0  0
   59.3140   29.4180   47.4090 C   0  0  0  0  0  0  0  0  0  0  0  0
   58.3390   29.9720   46.5760 C   0  0  0  0  0  0  0  0  0  0  0  0
   57.7420   29.1960   45.5760 C   0  0  0  0  0  0  0  0  0  0  0  0
   56.4980   29.9100   44.5520 S   0  0  0  0  0  0  0  0  0  0  0  0
   56.8320   29.6350   43.1140 O   0  0  0  0  0  0  0  0  0  0  0  0
   55.1530   29.3130   44.8630 O   0  0  0  0  0  0  0  0  0  0  0  0
   56.4460   31.6270   44.8090 N   0  0  0  0  0  0  0  0  0  0  0  0
   57.6210   32.2520   44.2090 C   0  0  0  0  0  0  0  0  0  0  0  0
   58.2620   33.1650   45.2130 C   0  0  0  0  0  0  0  0  0  0  0  0
   57.9890   33.0140   46.5820 C   0  0  0  0  0  0  0  0  0  0  0  0
   58.5590   33.8860   47.5150 C   0  0  0  0  0  0  0  0  0  0  0  0
   59.3960   34.9190   47.0870 C   0  0  0  0  0  0  0  0  0  0  0  0
   59.6600   35.0840   45.7240 C   0  0  0  0  0  0  0  0  0  0  0  0
   59.0900   34.2160   44.7880 C   0  0  0  0  0  0  0  0  0  0  0  0
   58.1260   27.8580   45.4120 C   0  0  0  0  0  0  0  0  0  0  0  0
   59.1050   27.2990   46.2420 C   0  0  0  0  0  0  0  0  0  0  0  0
   59.5630   25.6170   46.0200 Cl  0  0  0  0  0  0  0  0  0  0  0  0
   61.4460   29.7440   49.3600 N   0  0  0  0  0  0  0  0  0  0  0  0
   61.7310   31.0430   49.9670 C   0  0  0  0  0  0  0  0  0  0  0  0
   62.3540   31.9660   48.9680 C   0  0  0  0  0  0  0  0  0  0  0  0
   62.9650   31.5870   47.7820 C   0  0  0  0  0  0  0  0  0  0  0  0
   63.3840   32.6750   47.0080 C   0  0  0  0  0  0  0  0  0  0  0  0
   63.0890   33.9100   47.5750 C   0  0  0  0  0  0  0  0  0  0  0  0
   62.3050   33.6460   49.0380 S   0  0  0  0  0  0  0  0  0  0  0  0
   61.3612   26.6537   49.8332 H   0  0  0  0  0  0  0  0  0  0  0  0
   59.5987   26.9796   49.7489 H   0  0  0  0  0  0  0  0  0  0  0  0
   59.7763   30.0331   48.1951 H   0  0  0  0  0  0  0  0  0  0  0  0
   58.0393   31.0223   46.7066 H   0  0  0  0  0  0  0  0  0  0  0  0
   58.3384   31.4741   43.9086 H   0  0  0  0  0  0  0  0  0  0  0  0
   57.3198   32.8305   43.3232 H   0  0  0  0  0  0  0  0  0  0  0  0
   57.3240   32.2064   46.9221 H   0  0  0  0  0  0  0  0  0  0  0  0
   58.3479   33.7582   48.5870 H   0  0  0  0  0  0  0  0  0  0  0  0
   59.8471   35.6022   47.8217 H   0  0  0  0  0  0  0  0  0  0  0  0
   60.3178   35.8988   45.3873 H   0  0  0  0  0  0  0  0  0  0  0  0
   59.2908   34.3569   43.7157 H   0  0  0  0  0  0  0  0  0  0  0  0
   57.6565   27.2451   44.6285 H   0  0  0  0  0  0  0  0  0  0  0  0
   61.7240   29.5620   48.3670 H   0  0  0  0  0  0  0  0  0  0  0  0
   60.7922   31.4854   50.3316 H   0  0  0  0  0  0  0  0  0  0  0  0
   62.4328   30.8980   50.8016 H   0  0  0  0  0  0  0  0  0  0  0  0
   63.1058   30.5385   47.4806 H   0  0  0  0  0  0  0  0  0  0  0  0
   63.8983   32.5638   46.0420 H   0  0  0  0  0  0  0  0  0  0  0  0
   63.3279   34.8918   47.1403 H   0  0  0  0  0  0  0  0  0  0  0  0
  1  2  2  0
  2  3  1  0
  3  4  1  0
  4  5  1  0
  5  6  2  0
  6  7  1  0
  7  8  2  0
  8  9  1  0
  9 10  2  0
  9 11  2  0
  9 12  1  0
 12 13  1  0
 13 14  1  0
 14 15  2  0
 15 16  1  0
 16 17  2  0
 17 18  1  0
 18 19  2  0
  8 20  1  0
 20 21  2  0
 21 22  1  0
  2 23  1  0
 23 24  1  0
 24 25  1  0
 25 26  2  0
 26 27  1  0
 27 28  2  0
 28 29  1  0
 21  5  1  0
 29 25  1  0
 19 14  1  0
  3 30  1  0
  3 31  1  0
  6 32  1  0
  7 33  1  0
 13 34  1  0
 13 35  1  0
 15 36  1  0
 16 37  1  0
 17 38  1  0
 18 39  1  0
 19 40  1  0
 20 41  1  0
 23 42  1  0
 24 43  1  0
 24 44  1  0
 26 45  1  0
 27 46  1  0
 28 47  1  0
M  CHG  1  12  -1
M  END
>  <UniqueID>  (8) 
7

>  <SMILES>  (8) 
O=C(COc1ccc(S(=O)(=O)[N-]Cc2ccccc2)cc1Cl)NCc1cccs1

>  <Energy>  (8) 
68.38507567582344

>  <Genealogy>  (8) 
O=C(COc1ccc(S(=O)(=O)[N-]Cc2ccccc2)cc1Cl)NCc1cccs1 (protonated)
O=C(COc1ccc(S(=O)(=O)[N-]Cc2ccccc2)cc1Cl)NCc1cccs1 (3D coordinates assigned)
O=C(COc1ccc(S(=O)(=O)[N-]Cc2ccccc2)cc1Cl)NCc1cccs1 (optimized conformer: 68.38507567582344 kcal/mol)

>  <smiles>  (8) 
O=C(COc1ccc(S(=O)(=O)NCc2ccccc2)cc1Cl)NCc1cccs1

>  <score_type>  (8) 
oracle

>  <origin>  (8) 
adg

>  <m_score__min__energy>  (8) 
-10.109999999999999

>  <m_primary>  (8) 
energy

$$$$
8:0
     RDKit          3D

 57 59  0  0  0  0  0  0  0  0999 V2000
   59.6330   26.9640   47.9960 C   0  0  0  0  0  0  0  0  0  0  0  0
   58.8180   26.0180   47.1160 C   0  0  0  0  0  0  0  0  0  0  0  0
   57.4040   26.3760   47.1580 N   0  0  0  0  0  0  0  0  0  0  0  0
   56.6770   26.8540   46.0220 C   0  0  0  0  0  0  0  0  0  0  0  0
   55.4230   26.7170   45.9630 O   0  0  0  0  0  0  0  0  0  0  0  0
   57.4190   27.4680   44.8740 C   0  0  0  0  0  0  0  0  0  0  0  0
   57.6090   28.9680   45.0670 C   0  0  0  0  0  0  0  0  0  0  0  0
   58.8650   29.5340   45.4160 C   0  0  0  0  0  0  0  0  0  0  0  0
   60.1160   28.6870   45.2880 C   0  0  0  0  0  0  0  0  0  0  0  0
   58.9270   30.9190   45.7630 C   0  0  0  0  0  0  0  0  0  0  0  0
   60.0510   31.5520   46.3800 C   0  0  0  0  0  0  0  0  0  0  0  0
   61.0520   30.7800   47.2100 C   0  0  0  0  0  0  0  0  0  0  0  0
   60.1180   32.9640   46.4040 C   0  0  0  0  0  0  0  0  0  0  0  0
   61.2770   33.6530   46.7920 O   0  0  0  0  0  0  0  0  0  0  0  0
   62.5960   33.0970   46.7610 C   0  0  0  0  0  0  0  0  0  0  0  0
   63.5090   33.7110   47.8370 C   0  0  0  0  0  0  0  0  0  0  0  0
   62.9290   33.5640   49.2230 C   0  0  0  0  0  0  0  0  0  0  0  0
   63.7830   33.4850   50.3330 C   0  0  0  0  0  0  0  0  0  0  0  0
   63.2560   33.4010   51.6240 C   0  0  0  0  0  0  0  0  0  0  0  0
   61.8730   33.4180   51.8200 C   0  0  0  0  0  0  0  0  0  0  0  0
   60.9970   33.4950   50.7220 C   0  0  0  0  0  0  0  0  0  0  0  0
   59.5300   33.5530   50.9290 C   0  0  0  0  0  0  0  0  0  0  0  0
   58.9700   34.4060   51.9290 N   0  0  0  0  0  0  0  0  0  0  0  0
   58.7570   32.8560   50.2170 O   0  0  0  0  0  0  0  0  0  0  0  0
   61.5380   33.5390   49.4220 C   0  0  0  0  0  0  0  0  0  0  0  0
   59.0060   33.7280   46.0510 C   0  0  0  0  0  0  0  0  0  0  0  0
   59.0920   35.1150   46.1340 O   0  0  0  0  0  0  0  0  0  0  0  0
   57.8230   33.1160   45.6150 C   0  0  0  0  0  0  0  0  0  0  0  0
   56.6530   33.9700   45.2770 C   0  0  0  0  0  0  0  0  0  0  0  0
   56.7540   34.9660   44.5120 O   0  0  0  0  0  0  0  0  0  0  0  0
   57.7860   31.7130   45.4710 C   0  0  0  0  0  0  0  0  0  0  0  0
   56.6620   31.1390   45.0600 O   0  0  0  0  0  0  0  0  0  0  0  0
   56.5200   29.8370   44.8860 C   0  0  0  0  0  0  0  0  0  0  0  0
   55.3930   29.3970   44.5380 O   0  0  0  0  0  0  0  0  0  0  0  0
   59.4387   26.7384   49.0549 H   0  0  0  0  0  0  0  0  0  0  0  0
   60.7040   26.8312   47.7834 H   0  0  0  0  0  0  0  0  0  0  0  0
   59.3431   28.0036   47.7834 H   0  0  0  0  0  0  0  0  0  0  0  0
   59.1786   26.0866   46.0791 H   0  0  0  0  0  0  0  0  0  0  0  0
   58.9373   24.9906   47.4904 H   0  0  0  0  0  0  0  0  0  0  0  0
   58.4066   26.9908   44.7911 H   0  0  0  0  0  0  0  0  0  0  0  0
   56.8288   27.3107   43.9592 H   0  0  0  0  0  0  0  0  0  0  0  0
   60.4910   28.4331   46.2904 H   0  0  0  0  0  0  0  0  0  0  0  0
   59.8788   27.7630   44.7403 H   0  0  0  0  0  0  0  0  0  0  0  0
   60.8858   29.2504   44.7403 H   0  0  0  0  0  0  0  0  0  0  0  0
   60.8440   30.9404   48.2782 H   0  0  0  0  0  0  0  0  0  0  0  0
   60.9716   29.7078   46.9778 H   0  0  0  0  0  0  0  0  0  0  0  0
   62.0686   31.1302   46.9778 H   0  0  0  0  0  0  0  0  0  0  0  0
   62.5277   32.0123   46.9308 H   0  0  0  0  0  0  0  0  0  0  0  0
   63.0345   33.3204   45.7772 H   0  0  0  0  0  0  0  0  0  0  0  0
   64.4852   33.2050   47.8052 H   0  0  0  0  0  0  0  0  0  0  0  0
   63.6101   34.7853   47.6236 H   0  0  0  0  0  0  0  0  0  0  0  0
   64.8731   33.4892   50.1861 H   0  0  0  0  0  0  0  0  0  0  0  0
   63.9317   33.3213   52.4883 H   0  0  0  0  0  0  0  0  0  0  0  0
   61.4658   33.3708   52.8408 H   0  0  0  0  0  0  0  0  0  0  0  0
   58.6140   35.3540   51.6880 H   0  0  0  0  0  0  0  0  0  0  0  0
   60.8640   33.5540   48.5528 H   0  0  0  0  0  0  0  0  0  0  0  0
   55.6709   33.7248   45.7075 H   0  0  0  0  0  0  0  0  0  0  0  0
  1  2  1  0
  2  3  1  0
  3  4  1  0
  4  5  2  0
  4  6  1  0
  6  7  1  0
  7  8  2  0
  8  9  1  0
  8 10  1  0
 10 11  2  0
 11 12  1  0
 11 13  1  0
 13 14  1  0
 14 15  1  0
 15 16  1  0
 16 17  1  0
 17 18  2  0
 18 19  1  0
 19 20  2  0
 20 21  1  0
 21 22  1  0
 22 23  1  0
 22 24  2  0
 21 25  2  0
 13 26  2  0
 26 27  1  0
 26 28  1  0
 28 29  1  0
 29 30  2  0
 28 31  2  0
 31 32  1  0
 32 33  1  0
 33 34  2  0
 33  7  1  0
 31 10  1  0
 25 17  1  0
  1 35  1  0
  1 36  1  0
  1 37  1  0
  2 38  1  0
  2 39  1  0
  6 40  1  0
  6 41  1  0
  9 42  1  0
  9 43  1  0
  9 44  1  0
 12 45  1  0
 12 46  1  0
 12 47  1  0
 15 48  1  0
 15 49  1  0
 16 50  1  0
 16 51  1  0
 18 52  1  0
 19 53  1  0
 20 54  1  0
 23 55  1  0
 25 56  1  0
 29 57  1  0
M  CHG  3   3  -1  23  -1  27  -1
M  END
>  <UniqueID>  (9) 
8

>  <SMILES>  (9) 
CC[N-]C(=O)Cc1c(C)c2c(C)c(OCCc3cccc(C([NH-])=O)c3)c([O-])c(C=O)c2oc1=O

>  <Energy>  (9) 
76.40511720265584

>  <Genealogy>  (9) 
CC[N-]C(=O)Cc1c(C)c2c(C)c(OCCc3cccc(C([NH-])=O)c3)c([O-])c(C=O)c2oc1=O (protonated)
CC[N-]C(=O)Cc1c(C)c2c(C)c(OCCc3cccc(C([NH-])=O)c3)c([O-])c(C=O)c2oc1=O (3D coordinates assigned)
CC[N-]C(=O)Cc1c(C)c2c(C)c(OCCc3cccc(C([NH-])=O)c3)c([O-])c(C=O)c2oc1=O (optimized conformer: 76.40511720265584 kcal/mol)

>  <smiles>  (9) 
CCNC(=O)Cc1c(C)c2c(C)c(OCCc3cccc(C(N)=O)c3)c(O)c(C=O)c2oc1=O

>  <score_type>  (9) 
oracle

>  <origin>  (9) 
adg

>  <m_score__min__energy>  (9) 
-14.06

>  <m_primary>  (9) 
energy

$$$$
9:0
     RDKit          3D

 43 44  0  0  0  0  0  0  0  0999 V2000
   61.8170   33.9810   49.6900 C   0  0  0  0  0  0  0  0  0  0  0  0
   60.3990   33.9590   49.5630 O   0  0  0  0  0  0  0  0  0  0  0  0
   59.7100   33.9760   48.3400 C   0  0  0  0  0  0  0  0  0  0  0  0
   60.0190   34.8930   47.3180 C   0  0  0  0  0  0  0  0  0  0  0  0
   59.3080   34.8760   46.1150 C   0  0  0  0  0  0  0  0  0  0  0  0
   58.2780   33.9460   45.9130 C   0  0  0  0  0  0  0  0  0  0  0  0
   57.5240   33.9060   44.6120 C   0  0  0  0  0  0  0  0  0  0  0  0
   58.2390   33.0850   43.6420 N   0  0  0  0  0  0  0  0  0  0  0  0
   57.6810   31.9200   43.0210 C   0  0  0  0  0  0  0  0  0  0  0  0
   57.3950   31.9440   41.7930 O   0  0  0  0  0  0  0  0  0  0  0  0
   57.4390   30.6950   43.8160 C   0  0  0  0  0  0  0  0  0  0  0  0
   58.5160   29.9150   44.2760 C   0  0  0  0  0  0  0  0  0  0  0  0
   58.2840   28.7510   45.0140 C   0  0  0  0  0  0  0  0  0  0  0  0
   56.9730   28.3440   45.3040 C   0  0  0  0  0  0  0  0  0  0  0  0
   56.7200   27.0810   46.0850 C   0  0  0  0  0  0  0  0  0  0  0  0
   55.3180   26.6670   45.9860 N   0  0  0  0  0  0  0  0  0  0  0  0
   55.1590   24.9370   45.8480 S   0  0  0  0  0  0  0  0  0  0  0  0
   56.1790   24.3280   44.5200 C   0  0  0  0  0  0  0  0  0  0  0  0
   55.5470   24.2560   47.1310 O   0  0  0  0  0  0  0  0  0  0  0  0
   53.7260   24.6110   45.5360 O   0  0  0  0  0  0  0  0  0  0  0  0
   55.8980   29.1240   44.8590 C   0  0  0  0  0  0  0  0  0  0  0  0
   56.1280   30.2860   44.1160 C   0  0  0  0  0  0  0  0  0  0  0  0
   57.9720   33.0280   46.9300 C   0  0  0  0  0  0  0  0  0  0  0  0
   58.6820   33.0430   48.1380 C   0  0  0  0  0  0  0  0  0  0  0  0
   58.3740   32.1300   49.1450 O   0  0  0  0  0  0  0  0  0  0  0  0
   62.0897   33.9852   50.7557 H   0  0  0  0  0  0  0  0  0  0  0  0
   62.2423   33.0893   49.2062 H   0  0  0  0  0  0  0  0  0  0  0  0
   62.2145   34.8854   49.2062 H   0  0  0  0  0  0  0  0  0  0  0  0
   60.8246   35.6271   47.4670 H   0  0  0  0  0  0  0  0  0  0  0  0
   59.5577   35.5963   45.3220 H   0  0  0  0  0  0  0  0  0  0  0  0
   56.5250   33.4788   44.7837 H   0  0  0  0  0  0  0  0  0  0  0  0
   57.4317   34.9290   44.2184 H   0  0  0  0  0  0  0  0  0  0  0  0
   59.5480   30.2236   44.0531 H   0  0  0  0  0  0  0  0  0  0  0  0
   59.1342   28.1504   45.3696 H   0  0  0  0  0  0  0  0  0  0  0  0
   57.3595   26.2793   45.6872 H   0  0  0  0  0  0  0  0  0  0  0  0
   56.9517   27.2741   47.1429 H   0  0  0  0  0  0  0  0  0  0  0  0
   57.0526   23.8064   44.9382 H   0  0  0  0  0  0  0  0  0  0  0  0
   55.5966   23.6296   43.9010 H   0  0  0  0  0  0  0  0  0  0  0  0
   56.5175   25.1720   43.9010 H   0  0  0  0  0  0  0  0  0  0  0  0
   54.8674   28.8208   45.0953 H   0  0  0  0  0  0  0  0  0  0  0  0
   55.2757   30.8852   43.7632 H   0  0  0  0  0  0  0  0  0  0  0  0
   57.1692   32.2917   46.7776 H   0  0  0  0  0  0  0  0  0  0  0  0
   58.8840   32.1120   50.0200 H   0  0  0  0  0  0  0  0  0  0  0  0
  1  2  1  0
  2  3  1  0
  3  4  2  0
  4  5  1  0
  5  6  2  0
  6  7  1  0
  7  8  1  0
  8  9  1  0
  9 10  2  0
  9 11  1  0
 11 12  2  0
 12 13  1  0
 13 14  2  0
 14 15  1  0
 15 16  1  0
 16 17  1  0
 17 18  1  0
 17 19  2  0
 17 20  2  0
 14 21  1  0
 21 22  2  0
  6 23  1  0
 23 24  2  0
 24 25  1  0
 24  3  1  0
 22 11  1  0
  1 26  1  0
  1 27  1  0
  1 28  1  0
  4 29  1  0
  5 30  1  0
  7 31  1  0
  7 32  1  0
 12 33  1  0
 13 34  1  0
 15 35  1  0
 15 36  1  0
 18 37  1  0
 18 38  1  0
 18 39  1  0
 21 40  1  0
 22 41  1  0
 23 42  1  0
 25 43  1  0
M  CHG  2   8  -1  16  -1
M  END
>  <UniqueID>  (10) 
9

>  <SMILES>  (10) 
COc1ccc(C[N-]C(=O)c2ccc(C[N-]S(C)(=O)=O)cc2)cc1O

>  <Energy>  (10) 
34.944513545750354

>  <Genealogy>  (10) 
COc1ccc(C[N-]C(=O)c2ccc(C[N-]S(C)(=O)=O)cc2)cc1O (protonated)
COc1ccc(C[N-]C(=O)c2ccc(C[N-]S(C)(=O)=O)cc2)cc1O (3D coordinates assigned)
COc1ccc(C[N-]C(=O)c2ccc(C[N-]S(C)(=O)=O)cc2)cc1O (optimized conformer: 34.944513545750354 kcal/mol)

>  <smiles>  (10) 
COc1ccc(CNC(=O)c2ccc(CNS(C)(=O)=O)cc2)cc1O

>  <score_type>  (10) 
oracle

>  <origin>  (10) 
adg

>  <m_score__min__energy>  (10) 
-10.83

>  <m_primary>  (10) 
energy

$$$$
10:0
     RDKit          3D

 70 73  0  0  0  0  0  0  0  0999 V2000
   59.5900   34.2460   48.2210 C   0  0  0  0  0  0  0  0  0  0  0  0
   59.9800   33.3840   47.1560 O   0  0  0  0  0  0  0  0  0  0  0  0
   59.1460   33.0050   46.0890 C   0  0  0  0  0  0  0  0  0  0  0  0
   58.9370   33.8410   44.9780 C   0  0  0  0  0  0  0  0  0  0  0  0
   58.0870   33.4460   43.9460 C   0  0  0  0  0  0  0  0  0  0  0  0
   57.4410   32.2110   44.0000 C   0  0  0  0  0  0  0  0  0  0  0  0
   57.6400   31.3500   45.0940 C   0  0  0  0  0  0  0  0  0  0  0  0
   57.0190   30.0920   45.1690 O   0  0  0  0  0  0  0  0  0  0  0  0
   56.5980   29.3290   44.0430 C   0  0  0  0  0  0  0  0  0  0  0  0
   58.4930   31.7560   46.1440 C   0  0  0  0  0  0  0  0  0  0  0  0
   58.7050   30.8740   47.3090 C   0  0  0  0  0  0  0  0  0  0  0  0
   58.9180   31.3420   48.5540 N   0  0  0  0  0  0  0  0  0  0  0  0
   59.1850   30.3040   49.3350 N   0  0  0  0  0  0  0  0  0  0  0  0
   59.5350   30.4080   50.7470 C   0  0  0  0  0  0  0  0  0  0  0  0
   60.3960   31.6190   50.9790 C   0  0  0  0  0  0  0  0  0  0  0  0
   60.1090   32.3630   51.9590 O   0  0  0  0  0  0  0  0  0  0  0  0
   61.5220   31.9560   50.1330 N   0  0  0  0  0  0  0  0  0  0  0  0
   62.2120   30.9550   49.3000 C   0  0  0  0  0  0  0  0  0  0  0  0
   62.5870   31.5350   47.9170 C   0  0  0  0  0  0  0  0  0  0  0  0
   62.6050   33.0170   47.8920 N   0  0  0  0  0  0  0  0  0  0  0  0
   63.3890   33.4970   46.7480 C   0  0  0  0  0  0  0  0  0  0  0  0
   63.1410   33.5610   49.1500 C   0  0  0  0  0  0  0  0  0  0  0  0
   62.1320   33.2900   50.2730 C   0  0  0  0  0  0  0  0  0  0  0  0
   59.1670   29.1650   48.6150 C   0  0  0  0  0  0  0  0  0  0  0  0
   58.8390   29.4910   47.3190 C   0  0  0  0  0  0  0  0  0  0  0  0
   58.7270   28.5610   46.2330 N   0  0  0  0  0  0  0  0  0  0  0  0
   58.5360   27.1440   46.4050 C   0  0  0  0  0  0  0  0  0  0  0  0
   58.2940   26.6660   47.5400 O   0  0  0  0  0  0  0  0  0  0  0  0
   58.6200   26.2410   45.2950 N   0  0  0  0  0  0  0  0  0  0  0  0
   57.6530   26.1280   44.2090 C   0  0  0  0  0  0  0  0  0  0  0  0
   57.0040   24.7600   44.1900 C   0  0  0  0  0  0  0  0  0  0  0  0
   57.3290   23.8830   43.1380 C   0  0  0  0  0  0  0  0  0  0  0  0
   56.8010   22.5930   43.0960 C   0  0  0  0  0  0  0  0  0  0  0  0
   55.9400   22.1560   44.1020 C   0  0  0  0  0  0  0  0  0  0  0  0
   55.5880   23.0150   45.1440 C   0  0  0  0  0  0  0  0  0  0  0  0
   56.0890   24.3290   45.1920 C   0  0  0  0  0  0  0  0  0  0  0  0
   55.6340   25.2070   46.2950 C   0  0  0  0  0  0  0  0  0  0  0  0
   54.8130   26.3410   46.0330 N   0  0  0  0  0  0  0  0  0  0  0  0
   55.9430   24.9300   47.4840 O   0  0  0  0  0  0  0  0  0  0  0  0
   59.8092   33.7615   49.1839 H   0  0  0  0  0  0  0  0  0  0  0  0
   60.1481   35.1913   48.1507 H   0  0  0  0  0  0  0  0  0  0  0  0
   58.5115   34.4508   48.1507 H   0  0  0  0  0  0  0  0  0  0  0  0
   59.4478   34.8136   44.9227 H   0  0  0  0  0  0  0  0  0  0  0  0
   57.9250   34.1114   43.0852 H   0  0  0  0  0  0  0  0  0  0  0  0
   56.7714   31.9085   43.1814 H   0  0  0  0  0  0  0  0  0  0  0  0
   56.0934   28.4144   44.3878 H   0  0  0  0  0  0  0  0  0  0  0  0
   55.9013   29.9255   43.4357 H   0  0  0  0  0  0  0  0  0  0  0  0
   57.4741   29.0577   43.4357 H   0  0  0  0  0  0  0  0  0  0  0  0
   58.6154   30.4958   51.3441 H   0  0  0  0  0  0  0  0  0  0  0  0
   60.0919   29.5080   51.0468 H   0  0  0  0  0  0  0  0  0  0  0  0
   63.1297   30.6328   49.8139 H   0  0  0  0  0  0  0  0  0  0  0  0
   61.5320   30.1042   49.1461 H   0  0  0  0  0  0  0  0  0  0  0  0
   63.5874   31.1683   47.6434 H   0  0  0  0  0  0  0  0  0  0  0  0
   61.8173   31.2048   47.2039 H   0  0  0  0  0  0  0  0  0  0  0  0
   64.2743   34.0391   47.1118 H   0  0  0  0  0  0  0  0  0  0  0  0
   63.7091   32.6399   46.1374 H   0  0  0  0  0  0  0  0  0  0  0  0
   62.7712   34.1718   46.1374 H   0  0  0  0  0  0  0  0  0  0  0  0
   64.0979   33.0726   49.3864 H   0  0  0  0  0  0  0  0  0  0  0  0
   63.3074   34.6437   49.0491 H   0  0  0  0  0  0  0  0  0  0  0  0
   62.6498   33.3475   51.2418 H   0  0  0  0  0  0  0  0  0  0  0  0
   61.3343   34.0450   50.2132 H   0  0  0  0  0  0  0  0  0  0  0  0
   59.3771   28.1545   48.9956 H   0  0  0  0  0  0  0  0  0  0  0  0
   59.0260   28.9110   45.2980 H   0  0  0  0  0  0  0  0  0  0  0  0
   56.8735   26.8926   44.3424 H   0  0  0  0  0  0  0  0  0  0  0  0
   58.1826   26.2742   43.2560 H   0  0  0  0  0  0  0  0  0  0  0  0
   58.0073   24.2191   42.3399 H   0  0  0  0  0  0  0  0  0  0  0  0
   57.0642   21.9188   42.2676 H   0  0  0  0  0  0  0  0  0  0  0  0
   55.5376   21.1326   44.0742 H   0  0  0  0  0  0  0  0  0  0  0  0
   54.9118   22.6611   45.9361 H   0  0  0  0  0  0  0  0  0  0  0  0
   53.7750   26.2490   45.9590 H   0  0  0  0  0  0  0  0  0  0  0  0
  1  2  1  0
  2  3  1  0
  3  4  2  0
  4  5  1  0
  5  6  2  0
  6  7  1  0
  7  8  1  0
  8  9  1  0
  7 10  2  0
 10 11  1  0
 11 12  2  0
 12 13  1  0
 13 14  1  0
 14 15  1  0
 15 16  2  0
 15 17  1  0
 17 18  1  0
 18 19  1  0
 19 20  1  0
 20 21  1  0
 20 22  1  0
 22 23  1  0
 13 24  1  0
 24 25  2  0
 25 26  1  0
 26 27  1  0
 27 28  2  0
 27 29  1  0
 29 30  1  0
 30 31  1  0
 31 32  2  0
 32 33  1  0
 33 34  2  0
 34 35  1  0
 35 36  2  0
 36 37  1  0
 37 38  1  0
 37 39  2  0
 10  3  1  0
 25 11  1  0
 36 31  1  0
 23 17  1  0
  1 40  1  0
  1 41  1  0
  1 42  1  0
  4 43  1  0
  5 44  1  0
  6 45  1  0
  9 46  1  0
  9 47  1  0
  9 48  1  0
 14 49  1  0
 14 50  1  0
 18 51  1  0
 18 52  1  0
 19 53  1  0
 19 54  1  0
 21 55  1  0
 21 56  1  0
 21 57  1  0
 22 58  1  0
 22 59  1  0
 23 60  1  0
 23 61  1  0
 24 62  1  0
 26 63  1  0
 30 64  1  0
 30 65  1  0
 32 66  1  0
 33 67  1  0
 34 68  1  0
 35 69  1  0
 38 70  1  0
M  CHG  2  29  -1  38  -1
M  END
>  <UniqueID>  (11) 
10

>  <SMILES>  (11) 
COc1cccc(OC)c1-c1nn(CC(=O)N2CCN(C)CC2)cc1NC(=O)[N-]Cc1ccccc1C([NH-])=O

>  <Energy>  (11) 
121.03884921260575

>  <Genealogy>  (11) 
COc1cccc(OC)c1-c1nn(CC(=O)N2CCN(C)CC2)cc1NC(=O)[N-]Cc1ccccc1C([NH-])=O (protonated)
COc1cccc(OC)c1-c1nn(CC(=O)N2CCN(C)CC2)cc1NC(=O)[N-]Cc1ccccc1C([NH-])=O (3D coordinates assigned)
COc1cccc(OC)c1-c1nn(CC(=O)N2CCN(C)CC2)cc1NC(=O)[N-]Cc1ccccc1C([NH-])=O (nonaromatic ring conformer: 121.03884921260575 kcal/mol)

>  <smiles>  (11) 
COc1cccc(OC)c1-c1nn(CC(=O)N2CCN(C)CC2)cc1NC(=O)NCc1ccccc1C(N)=O

>  <score_type>  (11) 
oracle

>  <origin>  (11) 
adg

>  <m_score__min__energy>  (11) 
-13.380000000000001

>  <m_primary>  (11) 
energy

$$$$
11:0
     RDKit          3D

 60 63  0  0  0  0  0  0  0  0999 V2000
   54.9880   25.6680   45.6300 C   0  0  0  0  0  0  0  0  0  0  0  0
   56.2860   26.3650   45.9000 C   0  0  0  0  0  0  0  0  0  0  0  0
   56.6840   27.4710   45.2390 N   0  0  0  0  0  0  0  0  0  0  0  0
   57.9300   27.7660   45.6650 C   0  0  0  0  0  0  0  0  0  0  0  0
   58.7530   28.8900   45.1030 C   0  0  0  0  0  0  0  0  0  0  0  0
   57.9400   30.1480   45.0120 C   0  0  0  0  0  0  0  0  0  0  0  0
   56.7340   30.3310   44.3450 C   0  0  0  0  0  0  0  0  0  0  0  0
   56.0820   29.3490   43.6070 O   0  0  0  0  0  0  0  0  0  0  0  0
   56.2520   31.5890   44.4880 N   0  0  0  0  0  0  0  0  0  0  0  0
   57.1720   32.2050   45.2540 C   0  0  0  0  0  0  0  0  0  0  0  0
   57.1460   33.5330   45.6740 C   0  0  0  0  0  0  0  0  0  0  0  0
   58.2180   34.0030   46.4520 C   0  0  0  0  0  0  0  0  0  0  0  0
   59.2860   33.1420   46.8010 C   0  0  0  0  0  0  0  0  0  0  0  0
   60.6530   33.7650   47.7230 S   0  0  0  0  0  0  0  0  0  0  0  0
   60.2270   34.9610   48.5300 O   0  0  0  0  0  0  0  0  0  0  0  0
   61.7340   34.1970   46.7720 O   0  0  0  0  0  0  0  0  0  0  0  0
   61.2840   32.5330   48.7780 N   0  0  0  0  0  0  0  0  0  0  0  0
   61.2160   32.9450   50.1820 C   0  0  0  0  0  0  0  0  0  0  0  0
   62.5130   33.6420   50.6010 C   0  0  0  0  0  0  0  0  0  0  0  0
   63.0090   34.4360   49.5550 O   0  0  0  0  0  0  0  0  0  0  0  0
   59.2810   31.8020   46.3670 C   0  0  0  0  0  0  0  0  0  0  0  0
   58.2060   31.3680   45.5920 C   0  0  0  0  0  0  0  0  0  0  0  0
   58.3360   26.8480   46.6260 C   0  0  0  0  0  0  0  0  0  0  0  0
   59.6780   26.7520   47.2820 C   0  0  0  0  0  0  0  0  0  0  0  0
   57.2800   25.9730   46.7850 C   0  0  0  0  0  0  0  0  0  0  0  0
   57.2990   24.8030   47.6090 N   0  0  0  0  0  0  0  0  0  0  0  0
   57.6170   23.4880   47.1430 C   0  0  0  0  0  0  0  0  0  0  0  0
   57.1140   22.4720   47.6940 O   0  0  0  0  0  0  0  0  0  0  0  0
   58.5580   23.3170   45.9940 C   0  0  0  0  0  0  0  0  0  0  0  0
   57.7950   22.9210   44.7580 C   0  0  0  0  0  0  0  0  0  0  0  0
   57.3320   23.9110   43.8750 C   0  0  0  0  0  0  0  0  0  0  0  0
   56.5930   23.5560   42.7420 C   0  0  0  0  0  0  0  0  0  0  0  0
   56.3010   22.2130   42.4890 C   0  0  0  0  0  0  0  0  0  0  0  0
   56.7430   21.2220   43.3700 C   0  0  0  0  0  0  0  0  0  0  0  0
   57.4850   21.5710   44.5050 C   0  0  0  0  0  0  0  0  0  0  0  0
   57.8920   20.5950   45.3560 F   0  0  0  0  0  0  0  0  0  0  0  0
   54.5056   25.4089   46.5840 H   0  0  0  0  0  0  0  0  0  0  0  0
   54.3277   26.3329   45.0539 H   0  0  0  0  0  0  0  0  0  0  0  0
   55.1775   24.7503   45.0539 H   0  0  0  0  0  0  0  0  0  0  0  0
   56.1420   27.9790   44.5060 H   0  0  0  0  0  0  0  0  0  0  0  0
   59.6189   29.0662   45.7581 H   0  0  0  0  0  0  0  0  0  0  0  0
   59.0890   28.6120   44.0931 H   0  0  0  0  0  0  0  0  0  0  0  0
   56.6000   28.5790   43.2010 H   0  0  0  0  0  0  0  0  0  0  0  0
   56.3100   34.1951   45.4043 H   0  0  0  0  0  0  0  0  0  0  0  0
   58.2271   35.0489   46.7926 H   0  0  0  0  0  0  0  0  0  0  0  0
   60.3731   33.6391   50.3149 H   0  0  0  0  0  0  0  0  0  0  0  0
   61.0747   32.0516   50.8079 H   0  0  0  0  0  0  0  0  0  0  0  0
   62.3145   34.2792   51.4754 H   0  0  0  0  0  0  0  0  0  0  0  0
   63.2621   32.8759   50.8498 H   0  0  0  0  0  0  0  0  0  0  0  0
   62.3270   34.4190   48.8330 H   0  0  0  0  0  0  0  0  0  0  0  0
   60.1009   31.1181   46.6316 H   0  0  0  0  0  0  0  0  0  0  0  0
   59.5534   26.7609   48.3749 H   0  0  0  0  0  0  0  0  0  0  0  0
   60.1693   25.8164   46.9766 H   0  0  0  0  0  0  0  0  0  0  0  0
   60.2975   27.6081   46.9766 H   0  0  0  0  0  0  0  0  0  0  0  0
   59.0836   24.2655   45.8093 H   0  0  0  0  0  0  0  0  0  0  0  0
   59.2854   22.5286   46.2373 H   0  0  0  0  0  0  0  0  0  0  0  0
   57.5518   24.9700   44.0758 H   0  0  0  0  0  0  0  0  0  0  0  0
   56.2412   24.3347   42.0493 H   0  0  0  0  0  0  0  0  0  0  0  0
   55.7226   21.9355   41.5954 H   0  0  0  0  0  0  0  0  0  0  0  0
   56.5075   20.1660   43.1713 H   0  0  0  0  0  0  0  0  0  0  0  0
  1  2  1  0
  2  3  1  0
  3  4  1  0
  4  5  1  0
  5  6  1  0
  6  7  2  0
  7  8  1  0
  7  9  1  0
  9 10  1  0
 10 11  2  0
 11 12  1  0
 12 13  2  0
 13 14  1  0
 14 15  2  0
 14 16  2  0
 14 17  1  0
 17 18  1  0
 18 19  1  0
 19 20  1  0
 13 21  1  0
 21 22  2  0
  4 23  2  0
 23 24  1  0
 23 25  1  0
 25 26  1  0
 26 27  1  0
 27 28  2  0
 27 29  1  0
 29 30  1  0
 30 31  2  0
 31 32  1  0
 32 33  2  0
 33 34  1  0
 34 35  2  0
 35 36  1  0
 25  2  2  0
 35 30  1  0
 22  6  1  0
 22 10  1  0
  1 37  1  0
  1 38  1  0
  1 39  1  0
  3 40  1  0
  5 41  1  0
  5 42  1  0
  8 43  1  0
 11 44  1  0
 12 45  1  0
 18 46  1  0
 18 47  1  0
 19 48  1  0
 19 49  1  0
 20 50  1  0
 21 51  1  0
 24 52  1  0
 24 53  1  0
 24 54  1  0
 29 55  1  0
 29 56  1  0
 31 57  1  0
 32 58  1  0
 33 59  1  0
 34 60  1  0
M  CHG  3   9  -1  17  -1  26  -1
M  END
>  <UniqueID>  (12) 
11

>  <SMILES>  (12) 
Cc1[nH]c(Cc2c(O)[n-]c3ccc(S(=O)(=O)[N-]CCO)cc23)c(C)c1[N-]C(=O)Cc1ccccc1F

>  <Energy>  (12) 
116.92247436705252

>  <Genealogy>  (12) 
Cc1[nH]c(Cc2c(O)[n-]c3ccc(S(=O)(=O)[N-]CCO)cc23)c(C)c1[N-]C(=O)Cc1ccccc1F (protonated)
Cc1[nH]c(Cc2c(O)[n-]c3ccc(S(=O)(=O)[N-]CCO)cc23)c(C)c1[N-]C(=O)Cc1ccccc1F (3D coordinates assigned)
Cc1[nH]c(Cc2c(O)[n-]c3ccc(S(=O)(=O)[N-]CCO)cc23)c(C)c1[N-]C(=O)Cc1ccccc1F (optimized conformer: 116.92247436705252 kcal/mol)

>  <smiles>  (12) 
Cc1[nH]c(Cc2c(O)[nH]c3ccc(S(=O)(=O)NCCO)cc23)c(C)c1NC(=O)Cc1ccccc1F

>  <score_type>  (12) 
oracle

>  <origin>  (12) 
adg

>  <m_score__min__energy>  (12) 
-12.85

>  <m_primary>  (12) 
energy

$$$$
12:0
     RDKit          3D

 26 28  0  0  0  0  0  0  0  0999 V2000
   53.9720   26.8360   46.4420 H   0  0  0  0  0  0  0  0  0  0  0  0
   54.7830   26.3430   46.0030 N   0  0  0  0  0  0  0  0  0  0  0  0
   55.9160   26.9390   45.8190 C   0  0  0  0  0  0  0  0  0  0  0  0
   55.9440   28.1750   45.2590 N   0  0  0  0  0  0  0  0  0  0  0  0
   57.1140   28.8320   45.0410 C   0  0  0  0  0  0  0  0  0  0  0  0
   57.0650   30.1680   44.4170 C   0  0  0  0  0  0  0  0  0  0  0  0
   57.0450   30.4370   43.0400 C   0  0  0  0  0  0  0  0  0  0  0  0
   56.8272   29.6908   42.2617 H   0  0  0  0  0  0  0  0  0  0  0  0
   57.3310   31.7440   42.7970 N   0  0  0  0  0  0  0  0  0  0  0  0
   57.7080   32.3190   41.5130 C   0  0  0  0  0  0  0  0  0  0  0  0
   58.3042   33.2283   41.6793 H   0  0  0  0  0  0  0  0  0  0  0  0
   58.3034   31.5890   40.9450 H   0  0  0  0  0  0  0  0  0  0  0  0
   56.8012   32.5739   40.9450 H   0  0  0  0  0  0  0  0  0  0  0  0
   57.5270   32.2800   44.0130 C   0  0  0  0  0  0  0  0  0  0  0  0
   57.3920   31.3820   44.9860 C   0  0  0  0  0  0  0  0  0  0  0  0
   58.1170   31.8110   46.0750 C   0  0  0  0  0  0  0  0  0  0  0  0
   58.2414   31.3120   47.0474 H   0  0  0  0  0  0  0  0  0  0  0  0
   58.6590   33.0320   45.6540 C   0  0  0  0  0  0  0  0  0  0  0  0
   59.2798   33.6865   46.2835 H   0  0  0  0  0  0  0  0  0  0  0  0
   58.3180   33.3030   44.3660 N   0  0  0  0  0  0  0  0  0  0  0  0
   58.7090   34.0520   43.7540 H   0  0  0  0  0  0  0  0  0  0  0  0
   58.3260   28.2270   45.4310 C   0  0  0  0  0  0  0  0  0  0  0  0
   59.8780   29.0610   45.3070 Cl  0  0  0  0  0  0  0  0  0  0  0  0
   58.2730   26.9500   46.0050 C   0  0  0  0  0  0  0  0  0  0  0  0
   59.3290   26.3670   46.3670 O   0  0  0  0  0  0  0  0  0  0  0  0
   57.0760   26.3340   46.1830 N   0  0  0  0  0  0  0  0  0  0  0  0
  1  2  1  0
  2  3  2  0
  3  4  1  0
  4  5  1  0
  5  6  1  0
  6  7  2  0
  7  8  1  0
  7  9  1  0
  9 10  1  0
 10 11  1  0
 10 12  1  0
 10 13  1  0
  9 14  1  0
 14 15  2  0
 15 16  1  0
 16 17  1  0
 16 18  2  0
 18 19  1  0
 18 20  1  0
 20 21  1  0
  5 22  2  0
 22 23  1  0
 22 24  1  0
 24 25  2  0
 24 26  1  0
 26  3  1  0
 15  6  1  0
 20 14  1  0
M  CHG  2   4  -1  26  -1
M  END
>  <UniqueID>  (13) 
12

>  <SMILES>  (13) 
[H]/N=c1/[n-]c(-c2cn(C)c3[nH]ccc23)c(Cl)c(=O)[n-]1

>  <Energy>  (13) 
115.83665682043907

>  <Genealogy>  (13) 
Cn1cc(-c2[n-]c(=N)[n-]c(=O)c2Cl)c2cc[nH]c21 (protonated)
[H]/N=c1/[n-]c(-c2cn(C)c3[nH]ccc23)c(Cl)c(=O)[n-]1 (cis-trans isomerization)
[H]/N=c1/[n-]c(-c2cn(C)c3[nH]ccc23)c(Cl)c(=O)[n-]1 (3D coordinates assigned)
[H]/N=c1/[n-]c(-c2cn(C)c3[nH]ccc23)c(Cl)c(=O)[n-]1 (optimized conformer: 115.83665682043907 kcal/mol)

>  <smiles>  (13) 
Cn1cc(-c2[nH]c(=N)[nH]c(=O)c2Cl)c2cc[nH]c21

>  <score_type>  (13) 
oracle

>  <origin>  (13) 
adg

>  <m_score__min__energy>  (13) 
-11.34

>  <m_primary>  (13) 
energy

$$$$
13:0
     RDKit          3D

 54 57  0  0  0  0  0  0  0  0999 V2000
   63.9840   33.4360   47.3490 N   0  0  0  0  0  0  0  0  0  0  0  0
   62.8300   33.5370   47.3270 C   0  0  0  0  0  0  0  0  0  0  0  0
   61.3960   33.6630   47.3000 C   0  0  0  0  0  0  0  0  0  0  0  0
   60.7270   34.2980   48.3560 C   0  0  0  0  0  0  0  0  0  0  0  0
   59.3350   34.4200   48.3290 C   0  0  0  0  0  0  0  0  0  0  0  0
   58.6030   33.9010   47.2560 C   0  0  0  0  0  0  0  0  0  0  0  0
   59.2640   33.2490   46.2010 C   0  0  0  0  0  0  0  0  0  0  0  0
   58.4820   32.7260   45.0260 C   0  0  0  0  0  0  0  0  0  0  0  0
   57.7740   31.4600   45.3980 C   0  0  0  0  0  0  0  0  0  0  0  0
   56.6750   31.1770   44.8460 O   0  0  0  0  0  0  0  0  0  0  0  0
   58.3690   30.5700   46.3510 N   0  0  0  0  0  0  0  0  0  0  0  0
   58.1960   29.1450   46.4010 C   0  0  0  0  0  0  0  0  0  0  0  0
   57.2220   28.4950   45.6220 C   0  0  0  0  0  0  0  0  0  0  0  0
   57.0800   27.1060   45.6830 C   0  0  0  0  0  0  0  0  0  0  0  0
   57.9130   26.3540   46.5120 C   0  0  0  0  0  0  0  0  0  0  0  0
   58.8720   26.9880   47.3080 C   0  0  0  0  0  0  0  0  0  0  0  0
   59.7320   26.2050   48.0700 O   0  0  0  0  0  0  0  0  0  0  0  0
   58.9850   28.3960   47.2950 C   0  0  0  0  0  0  0  0  0  0  0  0
   59.9550   29.0820   48.1020 N   0  0  0  0  0  0  0  0  0  0  0  0
   59.7010   30.2020   48.9610 C   0  0  0  0  0  0  0  0  0  0  0  0
   60.1240   31.3480   48.6460 O   0  0  0  0  0  0  0  0  0  0  0  0
   58.9860   30.0050   50.2420 C   0  0  0  0  0  0  0  0  0  0  0  0
   59.4850   29.1140   51.2090 C   0  0  0  0  0  0  0  0  0  0  0  0
   58.8070   28.9300   52.4170 C   0  0  0  0  0  0  0  0  0  0  0  0
   57.6280   29.6300   52.6750 C   0  0  0  0  0  0  0  0  0  0  0  0
   57.1220   30.5360   51.7310 C   0  0  0  0  0  0  0  0  0  0  0  0
   55.8800   31.2860   51.9970 C   0  0  0  0  0  0  0  0  0  0  0  0
   55.9590   32.4860   52.3700 O   0  0  0  0  0  0  0  0  0  0  0  0
   54.5840   30.6830   51.8800 N   0  0  0  0  0  0  0  0  0  0  0  0
   53.3170   31.3110   52.2460 C   0  0  0  0  0  0  0  0  0  0  0  0
   52.3760   31.3240   51.0800 C   0  0  0  0  0  0  0  0  0  0  0  0
   52.3810   30.4110   50.0910 N   0  0  0  0  0  0  0  0  0  0  0  0
   51.3600   30.8050   49.2990 C   0  0  0  0  0  0  0  0  0  0  0  0
   51.0420   30.1910   48.2470 O   0  0  0  0  0  0  0  0  0  0  0  0
   50.7050   31.9080   49.7230 N   0  0  0  0  0  0  0  0  0  0  0  0
   51.3620   32.2230   50.8530 C   0  0  0  0  0  0  0  0  0  0  0  0
   51.0370   33.3070   51.6610 O   0  0  0  0  0  0  0  0  0  0  0  0
   57.7970   30.7120   50.5120 C   0  0  0  0  0  0  0  0  0  0  0  0
   60.6650   33.1400   46.2250 C   0  0  0  0  0  0  0  0  0  0  0  0
   61.2979   34.7002   49.2059 H   0  0  0  0  0  0  0  0  0  0  0  0
   58.8131   34.9260   49.1546 H   0  0  0  0  0  0  0  0  0  0  0  0
   57.5079   34.0034   47.2379 H   0  0  0  0  0  0  0  0  0  0  0  0
   57.7418   33.4792   44.7180 H   0  0  0  0  0  0  0  0  0  0  0  0
   59.1750   32.5194   44.1971 H   0  0  0  0  0  0  0  0  0  0  0  0
   56.5684   29.0831   44.9611 H   0  0  0  0  0  0  0  0  0  0  0  0
   56.3108   26.6052   45.0768 H   0  0  0  0  0  0  0  0  0  0  0  0
   57.8150   25.2587   46.5395 H   0  0  0  0  0  0  0  0  0  0  0  0
   60.4142   28.5588   51.0133 H   0  0  0  0  0  0  0  0  0  0  0  0
   59.2043   28.2306   53.1673 H   0  0  0  0  0  0  0  0  0  0  0  0
   57.0929   29.4708   53.6228 H   0  0  0  0  0  0  0  0  0  0  0  0
   52.8600   30.7471   53.0726 H   0  0  0  0  0  0  0  0  0  0  0  0
   53.5126   32.3487   52.5541 H   0  0  0  0  0  0  0  0  0  0  0  0
   57.3941   31.4078   49.7613 H   0  0  0  0  0  0  0  0  0  0  0  0
   61.1899   32.6420   45.3964 H   0  0  0  0  0  0  0  0  0  0  0  0
  1  2  3  0
  2  3  1  0
  3  4  2  0
  4  5  1  0
  5  6  2  0
  6  7  1  0
  7  8  1  0
  8  9  1  0
  9 10  2  0
  9 11  1  0
 11 12  1  0
 12 13  2  0
 13 14  1  0
 14 15  2  0
 15 16  1  0
 16 17  1  0
 16 18  2  0
 18 19  1  0
 19 20  1  0
 20 21  2  0
 20 22  1  0
 22 23  2  0
 23 24  1  0
 24 25  2  0
 25 26  1  0
 26 27  1  0
 27 28  2  0
 27 29  1  0
 29 30  1  0
 30 31  1  0
 31 32  1  0
 32 33  1  0
 33 34  2  0
 33 35  1  0
 35 36  1  0
 36 37  1  0
 26 38  2  0
  7 39  2  0
 39  3  1  0
 18 12  1  0
 38 22  1  0
 36 31  2  0
  4 40  1  0
  5 41  1  0
  6 42  1  0
  8 43  1  0
  8 44  1  0
 13 45  1  0
 14 46  1  0
 15 47  1  0
 23 48  1  0
 24 49  1  0
 25 50  1  0
 30 51  1  0
 30 52  1  0
 38 53  1  0
 39 54  1  0
M  CHG  7  11  -1  17  -1  19  -1  29  -1  32  -1  35  -1  37  -1
M  END
>  <UniqueID>  (14) 
13

>  <SMILES>  (14) 
N#Cc1cccc(CC(=O)[N-]c2cccc([O-])c2[N-]C(=O)c2cccc(C(=O)[N-]Cc3[n-]c(=O)[n-]c3[O-])c2)c1

>  <Energy>  (14) 
98.48125464703612

>  <Genealogy>  (14) 
N#Cc1cccc(CC(=O)[N-]c2cccc([O-])c2[N-]C(=O)c2cccc(C(=O)[N-]Cc3[n-]c(=O)[n-]c3[O-])c2)c1 (protonated)
N#Cc1cccc(CC(=O)[N-]c2cccc([O-])c2[N-]C(=O)c2cccc(C(=O)[N-]Cc3[n-]c(=O)[n-]c3[O-])c2)c1 (3D coordinates assigned)
N#Cc1cccc(CC(=O)[N-]c2cccc([O-])c2[N-]C(=O)c2cccc(C(=O)[N-]Cc3[n-]c(=O)[n-]c3[O-])c2)c1 (optimized conformer: 98.48125464703612 kcal/mol)

>  <smiles>  (14) 
N#Cc1cccc(CC(=O)Nc2cccc(O)c2NC(=O)c2cccc(C(=O)NCc3[nH]c(=O)[nH]c3O)c2)c1

>  <score_type>  (14) 
oracle

>  <origin>  (14) 
adg

>  <m_score__min__energy>  (14) 
-24.149999999999999

>  <m_primary>  (14) 
energy

$$$$
14:0
     RDKit          3D

 57 59  0  0  0  0  0  0  0  0999 V2000
   56.0250   22.9310   44.1280 C   0  0  0  0  0  0  0  0  0  0  0  0
   55.7340   24.0040   45.1310 C   0  0  0  0  0  0  0  0  0  0  0  0
   54.5620   24.0860   45.5930 O   0  0  0  0  0  0  0  0  0  0  0  0
   56.7680   24.9670   45.5950 C   0  0  0  0  0  0  0  0  0  0  0  0
   58.1220   24.5850   45.5430 C   0  0  0  0  0  0  0  0  0  0  0  0
   59.1280   25.4480   45.9830 C   0  0  0  0  0  0  0  0  0  0  0  0
   58.8060   26.7130   46.4910 C   0  0  0  0  0  0  0  0  0  0  0  0
   59.8800   27.6200   46.9650 C   0  0  0  0  0  0  0  0  0  0  0  0
   60.1790   28.6330   46.2780 O   0  0  0  0  0  0  0  0  0  0  0  0
   60.5580   27.4100   48.2100 N   0  0  0  0  0  0  0  0  0  0  0  0
   60.6270   28.3400   49.3010 C   0  0  0  0  0  0  0  0  0  0  0  0
   60.8950   27.9170   50.6150 C   0  0  0  0  0  0  0  0  0  0  0  0
   60.9700   28.8490   51.6520 C   0  0  0  0  0  0  0  0  0  0  0  0
   60.7880   30.2090   51.3880 C   0  0  0  0  0  0  0  0  0  0  0  0
   60.5290   30.6460   50.0790 C   0  0  0  0  0  0  0  0  0  0  0  0
   60.3670   32.1140   49.7900 C   0  0  0  0  0  0  0  0  0  0  0  0
   61.6750   32.7060   49.3720 C   0  0  0  0  0  0  0  0  0  0  0  0
   62.5350   33.0030   50.2440 O   0  0  0  0  0  0  0  0  0  0  0  0
   61.9520   32.9040   47.9810 N   0  0  0  0  0  0  0  0  0  0  0  0
   61.2610   33.8850   47.1530 C   0  0  0  0  0  0  0  0  0  0  0  0
   60.0460   33.2700   46.5110 C   0  0  0  0  0  0  0  0  0  0  0  0
   59.6060   32.0010   46.9140 C   0  0  0  0  0  0  0  0  0  0  0  0
   58.4690   31.4300   46.3340 C   0  0  0  0  0  0  0  0  0  0  0  0
   57.7570   32.1230   45.3380 C   0  0  0  0  0  0  0  0  0  0  0  0
   56.5850   31.5790   44.7140 N   0  0  0  0  0  0  0  0  0  0  0  0
   56.4370   29.9850   44.0460 S   0  0  0  0  0  0  0  0  0  0  0  0
   58.0210   29.1710   44.0450 C   0  0  0  0  0  0  0  0  0  0  0  0
   55.9520   30.0980   42.6280 O   0  0  0  0  0  0  0  0  0  0  0  0
   55.4370   29.1860   44.8350 O   0  0  0  0  0  0  0  0  0  0  0  0
   58.1980   33.3890   44.9400 C   0  0  0  0  0  0  0  0  0  0  0  0
   59.3330   33.9630   45.5210 C   0  0  0  0  0  0  0  0  0  0  0  0
   60.4710   29.7070   49.0360 C   0  0  0  0  0  0  0  0  0  0  0  0
   57.4620   27.1170   46.5150 C   0  0  0  0  0  0  0  0  0  0  0  0
   56.4450   26.2590   46.0700 C   0  0  0  0  0  0  0  0  0  0  0  0
   55.1240   26.7070   46.0780 O   0  0  0  0  0  0  0  0  0  0  0  0
   56.2781   21.9978   44.6524 H   0  0  0  0  0  0  0  0  0  0  0  0
   55.1385   22.7684   43.4974 H   0  0  0  0  0  0  0  0  0  0  0  0
   56.8722   23.2386   43.4974 H   0  0  0  0  0  0  0  0  0  0  0  0
   58.3912   23.5933   45.1505 H   0  0  0  0  0  0  0  0  0  0  0  0
   60.1804   25.1322   45.9303 H   0  0  0  0  0  0  0  0  0  0  0  0
   61.0461   26.8482   50.8267 H   0  0  0  0  0  0  0  0  0  0  0  0
   61.1728   28.5118   52.6792 H   0  0  0  0  0  0  0  0  0  0  0  0
   60.8478   30.9396   52.2082 H   0  0  0  0  0  0  0  0  0  0  0  0
   59.6334   32.2462   48.9811 H   0  0  0  0  0  0  0  0  0  0  0  0
   60.0179   32.6225   50.7008 H   0  0  0  0  0  0  0  0  0  0  0  0
   60.9490   34.7329   47.7804 H   0  0  0  0  0  0  0  0  0  0  0  0
   61.9450   34.2294   46.3634 H   0  0  0  0  0  0  0  0  0  0  0  0
   60.1583   31.4517   47.6907 H   0  0  0  0  0  0  0  0  0  0  0  0
   58.1299   30.4349   46.6578 H   0  0  0  0  0  0  0  0  0  0  0  0
   58.3476   29.0031   45.0819 H   0  0  0  0  0  0  0  0  0  0  0  0
   57.9364   28.2047   43.5262 H   0  0  0  0  0  0  0  0  0  0  0  0
   58.7574   29.8024   43.5262 H   0  0  0  0  0  0  0  0  0  0  0  0
   57.6469   33.9384   44.1626 H   0  0  0  0  0  0  0  0  0  0  0  0
   59.6679   34.9607   45.2010 H   0  0  0  0  0  0  0  0  0  0  0  0
   60.3019   30.0473   48.0037 H   0  0  0  0  0  0  0  0  0  0  0  0
   57.2028   28.1190   46.8874 H   0  0  0  0  0  0  0  0  0  0  0  0
   54.3590   26.1080   46.3670 H   0  0  0  0  0  0  0  0  0  0  0  0
  1  2  1  0
  2  3  2  0
  2  4  1  0
  4  5  2  0
  5  6  1  0
  6  7  2  0
  7  8  1  0
  8  9  2  0
  8 10  1  0
 10 11  1  0
 11 12  2  0
 12 13  1  0
 13 14  2  0
 14 15  1  0
 15 16  1  0
 16 17  1  0
 17 18  2  0
 17 19  1  0
 19 20  1  0
 20 21  1  0
 21 22  2  0
 22 23  1  0
 23 24  2  0
 24 25  1  0
 25 26  1  0
 26 27  1  0
 26 28  2  0
 26 29  2  0
 24 30  1  0
 30 31  2  0
 15 32  2  0
  7 33  1  0
 33 34  2  0
 34 35  1  0
 34  4  1  0
 32 11  1  0
 31 21  1  0
  1 36  1  0
  1 37  1  0
  1 38  1  0
  5 39  1  0
  6 40  1  0
 12 41  1  0
 13 42  1  0
 14 43  1  0
 16 44  1  0
 16 45  1  0
 20 46  1  0
 20 47  1  0
 22 48  1  0
 23 49  1  0
 27 50  1  0
 27 51  1  0
 27 52  1  0
 30 53  1  0
 31 54  1  0
 32 55  1  0
 33 56  1  0
 35 57  1  0
M  CHG  3  10  -1  19  -1  25  -1
M  END
>  <UniqueID>  (15) 
14

>  <SMILES>  (15) 
CC(=O)c1ccc(C(=O)[N-]c2cccc(CC(=O)[N-]Cc3ccc([N-]S(C)(=O)=O)cc3)c2)cc1O

>  <Energy>  (15) 
63.5465864421395

>  <Genealogy>  (15) 
CC(=O)c1ccc(C(=O)[N-]c2cccc(CC(=O)[N-]Cc3ccc([N-]S(C)(=O)=O)cc3)c2)cc1O (protonated)
CC(=O)c1ccc(C(=O)[N-]c2cccc(CC(=O)[N-]Cc3ccc([N-]S(C)(=O)=O)cc3)c2)cc1O (3D coordinates assigned)
CC(=O)c1ccc(C(=O)[N-]c2cccc(CC(=O)[N-]Cc3ccc([N-]S(C)(=O)=O)cc3)c2)cc1O (optimized conformer: 63.5465864421395 kcal/mol)

>  <smiles>  (15) 
CC(=O)c1ccc(C(=O)Nc2cccc(CC(=O)NCc3ccc(NS(C)(=O)=O)cc3)c2)cc1O

>  <score_type>  (15) 
oracle

>  <origin>  (15) 
adg

>  <m_score__min__energy>  (15) 
-12.93

>  <m_primary>  (15) 
energy

$$$$
15:0
     RDKit          3D

 50 53  0  0  0  0  0  0  0  0999 V2000
   52.5250   24.7340   45.5770 H   0  0  0  0  0  0  0  0  0  0  0  0
   52.4700   23.7100   45.7730 N   0  0  0  0  0  0  0  0  0  0  0  0
   53.6420   22.8990   45.7630 C   0  0  0  0  0  0  0  0  0  0  0  0
   53.5230   21.6490   45.6490 O   0  0  0  0  0  0  0  0  0  0  0  0
   54.9870   23.5160   45.8710 C   0  0  0  0  0  0  0  0  0  0  0  0
   55.4990   23.9030   47.1210 C   0  0  0  0  0  0  0  0  0  0  0  0
   54.9009   23.7413   48.0299 H   0  0  0  0  0  0  0  0  0  0  0  0
   56.7650   24.4930   47.2180 C   0  0  0  0  0  0  0  0  0  0  0  0
   57.1618   24.7793   48.2032 H   0  0  0  0  0  0  0  0  0  0  0  0
   57.5310   24.7210   46.0620 C   0  0  0  0  0  0  0  0  0  0  0  0
   58.8070   25.2980   46.1180 O   0  0  0  0  0  0  0  0  0  0  0  0
   59.1160   26.5580   46.6530 C   0  0  0  0  0  0  0  0  0  0  0  0
   58.1900   27.2970   47.4100 C   0  0  0  0  0  0  0  0  0  0  0  0
   57.1897   26.8841   47.6073 H   0  0  0  0  0  0  0  0  0  0  0  0
   58.5360   28.5550   47.9130 C   0  0  0  0  0  0  0  0  0  0  0  0
   57.8091   29.1198   48.5152 H   0  0  0  0  0  0  0  0  0  0  0  0
   59.8050   29.1050   47.6560 C   0  0  0  0  0  0  0  0  0  0  0  0
   60.1780   30.4420   48.1860 C   0  0  0  0  0  0  0  0  0  0  0  0
   61.1780   30.5660   49.1630 C   0  0  0  0  0  0  0  0  0  0  0  0
   61.7027   29.6729   49.5331 H   0  0  0  0  0  0  0  0  0  0  0  0
   61.5030   31.8260   49.6620 C   0  0  0  0  0  0  0  0  0  0  0  0
   62.2935   31.9299   50.4199 H   0  0  0  0  0  0  0  0  0  0  0  0
   60.8280   32.9530   49.2020 C   0  0  0  0  0  0  0  0  0  0  0  0
   61.1750   34.1760   49.6780 F   0  0  0  0  0  0  0  0  0  0  0  0
   59.8190   32.8070   48.2340 C   0  0  0  0  0  0  0  0  0  0  0  0
   59.0740   33.9850   47.7300 C   0  0  0  0  0  0  0  0  0  0  0  0
   59.3950   35.1310   48.1390 O   0  0  0  0  0  0  0  0  0  0  0  0
   57.9720   33.8630   46.8200 N   0  0  0  0  0  0  0  0  0  0  0  0
   57.9320   33.1050   45.7630 C   0  0  0  0  0  0  0  0  0  0  0  0
   57.7120   31.7760   45.8420 N   0  0  0  0  0  0  0  0  0  0  0  0
   57.6640   31.2000   44.6090 C   0  0  0  0  0  0  0  0  0  0  0  0
   57.4030   29.7340   44.4320 C   0  0  0  0  0  0  0  0  0  0  0  0
   58.0627   29.3447   43.6425 H   0  0  0  0  0  0  0  0  0  0  0  0
   57.6013   29.2267   45.3877 H   0  0  0  0  0  0  0  0  0  0  0  0
   55.9780   29.4810   44.0470 C   0  0  0  0  0  0  0  0  0  0  0  0
   55.1450   29.0750   44.9000 O   0  0  0  0  0  0  0  0  0  0  0  0
   55.5520   29.7570   42.7530 O   0  0  0  0  0  0  0  0  0  0  0  0
   57.8320   32.0750   43.5380 C   0  0  0  0  0  0  0  0  0  0  0  0
   57.8229   31.8021   42.4724 H   0  0  0  0  0  0  0  0  0  0  0  0
   58.0510   33.6200   44.1600 S   0  0  0  0  0  0  0  0  0  0  0  0
   59.5350   31.5660   47.7400 N   0  0  0  0  0  0  0  0  0  0  0  0
   58.8020   31.4760   47.0010 H   0  0  0  0  0  0  0  0  0  0  0  0
   60.7170   28.3690   46.8780 C   0  0  0  0  0  0  0  0  0  0  0  0
   61.7105   28.7878   46.6599 H   0  0  0  0  0  0  0  0  0  0  0  0
   60.3710   27.1100   46.3800 C   0  0  0  0  0  0  0  0  0  0  0  0
   61.0923   26.5486   45.7680 H   0  0  0  0  0  0  0  0  0  0  0  0
   57.0340   24.3150   44.8210 C   0  0  0  0  0  0  0  0  0  0  0  0
   57.6413   24.4612   43.9156 H   0  0  0  0  0  0  0  0  0  0  0  0
   55.7700   23.7240   44.7210 C   0  0  0  0  0  0  0  0  0  0  0  0
   55.3857   23.4198   43.7362 H   0  0  0  0  0  0  0  0  0  0  0  0
  1  2  1  0
  2  3  1  0
  3  4  2  0
  3  5  1  0
  5  6  2  0
  6  7  1  0
  6  8  1  0
  8  9  1  0
  8 10  2  0
 10 11  1  0
 11 12  1  0
 12 13  2  0
 13 14  1  0
 13 15  1  0
 15 16  1  0
 15 17  2  0
 17 18  1  0
 18 19  2  0
 19 20  1  0
 19 21  1  0
 21 22  1  0
 21 23  2  0
 23 24  1  0
 23 25  1  0
 25 26  1  0
 26 27  2  0
 26 28  1  0
 28 29  2  0
 29 30  1  0
 30 31  1  0
 31 32  1  0
 32 33  1  0
 32 34  1  0
 32 35  1  0
 35 36  2  0
 35 37  1  0
 31 38  2  0
 38 39  1  0
 38 40  1  0
 25 41  2  0
 41 42  1  0
 17 43  1  0
 43 44  1  0
 43 45  2  0
 45 46  1  0
 10 47  1  0
 47 48  1  0
 47 49  2  0
 49 50  1  0
 49  5  1  0
 45 12  1  0
 41 18  1  0
 40 29  1  0
M  CHG  4   2  -1  30  -1  37  -1  41   1
M  END
>  <UniqueID>  (16) 
15

>  <SMILES>  (16) 
[NH-]C(=O)c1ccc(Oc2ccc(-c3ccc(F)c(C(=O)/N=c4/[n-]c(CC(=O)[O-])cs4)[nH+]3)cc2)cc1

>  <Energy>  (16) 
104.88018126789598

>  <Genealogy>  (16) 
[NH-]C(=O)c1ccc(Oc2ccc(-c3ccc(F)c(C(=O)N=c4[n-]c(CC(=O)[O-])cs4)[nH+]3)cc2)cc1 (protonated)
[NH-]C(=O)c1ccc(Oc2ccc(-c3ccc(F)c(C(=O)/N=c4/[n-]c(CC(=O)[O-])cs4)[nH+]3)cc2)cc1 (cis-trans isomerization)
[NH-]C(=O)c1ccc(Oc2ccc(-c3ccc(F)c(C(=O)/N=c4/[n-]c(CC(=O)[O-])cs4)[nH+]3)cc2)cc1 (3D coordinates assigned)
[NH-]C(=O)c1ccc(Oc2ccc(-c3ccc(F)c(C(=O)/N=c4/[n-]c(CC(=O)[O-])cs4)[nH+]3)cc2)cc1 (optimized conformer: 104.88018126789598 kcal/mol)

>  <smiles>  (16) 
NC(=O)c1ccc(Oc2ccc(-c3ccc(F)c(C(=O)N=c4[nH]c(CC(=O)O)cs4)n3)cc2)cc1

>  <score_type>  (16) 
oracle

>  <origin>  (16) 
adg

>  <m_score__min__energy>  (16) 
-13.609999999999999

>  <m_primary>  (16) 
energy

$$$$
16:0
     RDKit          3D

 42 45  0  0  0  0  0  0  0  0999 V2000
   55.2580   26.6110   46.1000 O   0  0  0  0  0  0  0  0  0  0  0  0
   56.4760   26.3030   46.1600 C   0  0  0  0  0  0  0  0  0  0  0  0
   57.4540   27.2370   45.6760 N   0  0  0  0  0  0  0  0  0  0  0  0
   57.6840   28.3920   46.1740 N   0  0  0  0  0  0  0  0  0  0  0  0
   57.2850   29.6370   45.5800 C   0  0  0  0  0  0  0  0  0  0  0  0
   56.1350   29.9090   44.8460 C   0  0  0  0  0  0  0  0  0  0  0  0
   55.1600   28.9830   44.4860 O   0  0  0  0  0  0  0  0  0  0  0  0
   56.0780   31.2120   44.4800 N   0  0  0  0  0  0  0  0  0  0  0  0
   57.2110   31.7470   44.9800 C   0  0  0  0  0  0  0  0  0  0  0  0
   57.6140   33.0770   44.8840 C   0  0  0  0  0  0  0  0  0  0  0  0
   58.8280   33.4480   45.4910 C   0  0  0  0  0  0  0  0  0  0  0  0
   59.6080   32.4900   46.1840 C   0  0  0  0  0  0  0  0  0  0  0  0
   61.1290   32.9560   46.9410 S   0  0  0  0  0  0  0  0  0  0  0  0
   60.8160   33.7080   48.2050 O   0  0  0  0  0  0  0  0  0  0  0  0
   61.8900   33.8700   46.0220 O   0  0  0  0  0  0  0  0  0  0  0  0
   62.0630   31.5240   47.3250 N   0  0  0  0  0  0  0  0  0  0  0  0
   63.5160   31.7780   47.3260 C   0  0  0  0  0  0  0  0  0  0  0  0
   63.9990   32.3960   48.6460 C   0  0  0  0  0  0  0  0  0  0  0  0
   63.6130   31.5980   49.7450 O   0  0  0  0  0  0  0  0  0  0  0  0
   62.2030   31.5490   49.8210 C   0  0  0  0  0  0  0  0  0  0  0  0
   61.6110   30.8790   48.5720 C   0  0  0  0  0  0  0  0  0  0  0  0
   59.1780   31.1500   46.2580 C   0  0  0  0  0  0  0  0  0  0  0  0
   57.9750   30.8190   45.6390 C   0  0  0  0  0  0  0  0  0  0  0  0
   56.8620   24.9680   46.6550 C   0  0  0  0  0  0  0  0  0  0  0  0
   57.6720   24.0660   46.0030 C   0  0  0  0  0  0  0  0  0  0  0  0
   57.7930   22.9570   46.7560 N   0  0  0  0  0  0  0  0  0  0  0  0
   57.0500   23.2380   47.8460 C   0  0  0  0  0  0  0  0  0  0  0  0
   56.9110   22.4270   48.7980 O   0  0  0  0  0  0  0  0  0  0  0  0
   56.4690   24.4530   47.8340 N   0  0  0  0  0  0  0  0  0  0  0  0
   55.1460   28.0510   44.8830 H   0  0  0  0  0  0  0  0  0  0  0  0
   57.0004   33.8165   44.3487 H   0  0  0  0  0  0  0  0  0  0  0  0
   59.1740   34.4902   45.4269 H   0  0  0  0  0  0  0  0  0  0  0  0
   64.0418   30.8247   47.1685 H   0  0  0  0  0  0  0  0  0  0  0  0
   63.7328   32.4945   46.5200 H   0  0  0  0  0  0  0  0  0  0  0  0
   65.0959   32.4762   48.6264 H   0  0  0  0  0  0  0  0  0  0  0  0
   63.5438   33.3913   48.7563 H   0  0  0  0  0  0  0  0  0  0  0  0
   61.9099   30.9738   50.7117 H   0  0  0  0  0  0  0  0  0  0  0  0
   61.8180   32.5774   49.8847 H   0  0  0  0  0  0  0  0  0  0  0  0
   61.9198   29.8233   48.5566 H   0  0  0  0  0  0  0  0  0  0  0  0
   60.5165   30.9760   48.6242 H   0  0  0  0  0  0  0  0  0  0  0  0
   59.7727   30.3907   46.7870 H   0  0  0  0  0  0  0  0  0  0  0  0
   58.1450   24.2260   45.0229 H   0  0  0  0  0  0  0  0  0  0  0  0
  1  2  2  0
  2  3  1  0
  3  4  2  3
  4  5  1  0
  5  6  2  0
  6  7  1  0
  6  8  1  0
  8  9  1  0
  9 10  2  0
 10 11  1  0
 11 12  2  0
 12 13  1  0
 13 14  2  0
 13 15  2  0
 13 16  1  0
 16 17  1  0
 17 18  1  0
 18 19  1  0
 19 20  1  0
 20 21  1  0
 12 22  1  0
 22 23  2  0
  2 24  1  0
 24 25  2  0
 25 26  1  0
 26 27  1  0
 27 28  2  0
 27 29  1  0
 23  5  1  0
 29 24  1  0
 23  9  1  0
 21 16  1  0
  7 30  1  0
 10 31  1  0
 11 32  1  0
 17 33  1  0
 17 34  1  0
 18 35  1  0
 18 36  1  0
 20 37  1  0
 20 38  1  0
 21 39  1  0
 21 40  1  0
 22 41  1  0
 25 42  1  0
M  CHG  3   8  -1  26  -1  29  -1
M  END
>  <UniqueID>  (17) 
16

>  <SMILES>  (17) 
O=C(N=Nc1c(O)[n-]c2ccc(S(=O)(=O)N3CCOCC3)cc12)c1c[n-]c(=O)[n-]1

>  <Energy>  (17) 
123.98060101205604

>  <Genealogy>  (17) 
O=C(N=Nc1c(O)[n-]c2ccc(S(=O)(=O)N3CCOCC3)cc12)c1c[n-]c(=O)[n-]1 (protonated)
O=C(N=Nc1c(O)[n-]c2ccc(S(=O)(=O)N3CCOCC3)cc12)c1c[n-]c(=O)[n-]1 (3D coordinates assigned)
O=C(N=Nc1c(O)[n-]c2ccc(S(=O)(=O)N3CCOCC3)cc12)c1c[n-]c(=O)[n-]1 (nonaromatic ring conformer: 123.98060101205604 kcal/mol)

>  <smiles>  (17) 
O=C(N=Nc1c(O)[nH]c2ccc(S(=O)(=O)N3CCOCC3)cc12)c1c[nH]c(=O)[nH]1

>  <score_type>  (17) 
oracle

>  <origin>  (17) 
adg

>  <m_score__min__energy>  (17) 
-14.380000000000001

>  <m_primary>  (17) 
energy

$$$$
17:0
     RDKit          3D

 52 54  0  0  0  0  0  0  0  0999 V2000
   60.3610   27.1590   48.1050 C   0  0  0  0  0  0  0  0  0  0  0  0
   60.0510   26.5740   46.7320 C   0  0  0  0  0  0  0  0  0  0  0  0
   58.7020   26.9560   46.3080 N   0  0  0  0  0  0  0  0  0  0  0  0
   57.5290   26.3410   46.5950 C   0  0  0  0  0  0  0  0  0  0  0  0
   57.3490   25.1760   47.5260 C   0  0  0  0  0  0  0  0  0  0  0  0
   56.7320   24.0190   46.7980 C   0  0  0  0  0  0  0  0  0  0  0  0
   57.4530   23.0360   46.4780 O   0  0  0  0  0  0  0  0  0  0  0  0
   55.3380   24.0330   46.4620 N   0  0  0  0  0  0  0  0  0  0  0  0
   54.6920   22.9320   45.7500 C   0  0  0  0  0  0  0  0  0  0  0  0
   53.2200   23.2100   45.5850 C   0  0  0  0  0  0  0  0  0  0  0  0
   52.7900   24.0780   44.5670 C   0  0  0  0  0  0  0  0  0  0  0  0
   51.4310   24.3640   44.4080 C   0  0  0  0  0  0  0  0  0  0  0  0
   50.4910   23.7880   45.2650 C   0  0  0  0  0  0  0  0  0  0  0  0
   50.9070   22.9260   46.2830 C   0  0  0  0  0  0  0  0  0  0  0  0
   52.2660   22.6360   46.4470 C   0  0  0  0  0  0  0  0  0  0  0  0
   52.6450   21.7960   47.4450 F   0  0  0  0  0  0  0  0  0  0  0  0
   56.5180   27.0330   45.9560 C   0  0  0  0  0  0  0  0  0  0  0  0
   55.1580   26.7540   46.0380 O   0  0  0  0  0  0  0  0  0  0  0  0
   57.0470   28.0460   45.2430 N   0  0  0  0  0  0  0  0  0  0  0  0
   56.3270   29.0650   44.4800 C   0  0  0  0  0  0  0  0  0  0  0  0
   57.2950   29.8220   43.5700 C   0  0  0  0  0  0  0  0  0  0  0  0
   57.7380   31.1060   44.2180 C   0  0  0  0  0  0  0  0  0  0  0  0
   58.0610   32.2230   43.4290 C   0  0  0  0  0  0  0  0  0  0  0  0
   58.4420   33.4250   44.0350 C   0  0  0  0  0  0  0  0  0  0  0  0
   58.4940   33.5230   45.4280 C   0  0  0  0  0  0  0  0  0  0  0  0
   58.1600   32.4200   46.2190 C   0  0  0  0  0  0  0  0  0  0  0  0
   57.7780   31.2170   45.6180 C   0  0  0  0  0  0  0  0  0  0  0  0
   58.3730   27.9760   45.4830 C   0  0  0  0  0  0  0  0  0  0  0  0
   59.2130   28.7800   44.9950 O   0  0  0  0  0  0  0  0  0  0  0  0
   59.9982   26.4743   48.8857 H   0  0  0  0  0  0  0  0  0  0  0  0
   61.4479   27.2919   48.2100 H   0  0  0  0  0  0  0  0  0  0  0  0
   59.8607   28.1330   48.2100 H   0  0  0  0  0  0  0  0  0  0  0  0
   60.7816   26.9539   46.0026 H   0  0  0  0  0  0  0  0  0  0  0  0
   60.1102   25.4771   46.7894 H   0  0  0  0  0  0  0  0  0  0  0  0
   58.3293   24.8739   47.9231 H   0  0  0  0  0  0  0  0  0  0  0  0
   56.6849   25.4756   48.3502 H   0  0  0  0  0  0  0  0  0  0  0  0
   54.7540   24.8560   46.7340 H   0  0  0  0  0  0  0  0  0  0  0  0
   55.1539   22.8204   44.7579 H   0  0  0  0  0  0  0  0  0  0  0  0
   54.8191   22.0062   46.3303 H   0  0  0  0  0  0  0  0  0  0  0  0
   53.5275   24.5353   43.8910 H   0  0  0  0  0  0  0  0  0  0  0  0
   51.1020   25.0430   43.6076 H   0  0  0  0  0  0  0  0  0  0  0  0
   49.4217   24.0131   45.1386 H   0  0  0  0  0  0  0  0  0  0  0  0
   50.1643   22.4743   46.9571 H   0  0  0  0  0  0  0  0  0  0  0  0
   55.5536   28.5807   43.8657 H   0  0  0  0  0  0  0  0  0  0  0  0
   55.8601   29.7748   45.1787 H   0  0  0  0  0  0  0  0  0  0  0  0
   58.1759   29.1924   43.3761 H   0  0  0  0  0  0  0  0  0  0  0  0
   56.7817   30.0599   42.6266 H   0  0  0  0  0  0  0  0  0  0  0  0
   58.0142   32.1521   42.3323 H   0  0  0  0  0  0  0  0  0  0  0  0
   58.7012   34.2949   43.4136 H   0  0  0  0  0  0  0  0  0  0  0  0
   58.7977   34.4680   45.9020 H   0  0  0  0  0  0  0  0  0  0  0  0
   58.1978   32.4987   47.3155 H   0  0  0  0  0  0  0  0  0  0  0  0
   57.5076   30.3537   46.2438 H   0  0  0  0  0  0  0  0  0  0  0  0
  1  2  1  0
  2  3  1  0
  3  4  1  0
  4  5  1  0
  5  6  1  0
  6  7  2  0
  6  8  1  0
  8  9  1  0
  9 10  1  0
 10 11  2  0
 11 12  1  0
 12 13  2  0
 13 14  1  0
 14 15  2  0
 15 16  1  0
  4 17  2  0
 17 18  1  0
 17 19  1  0
 19 20  1  0
 20 21  1  0
 21 22  1  0
 22 23  2  0
 23 24  1  0
 24 25  2  0
 25 26  1  0
 26 27  2  0
 19 28  1  0
 28 29  2  0
 28  3  1  0
 15 10  1  0
 27 22  1  0
  1 30  1  0
  1 31  1  0
  1 32  1  0
  2 33  1  0
  2 34  1  0
  5 35  1  0
  5 36  1  0
  8 37  1  0
  9 38  1  0
  9 39  1  0
 11 40  1  0
 12 41  1  0
 13 42  1  0
 14 43  1  0
 20 44  1  0
 20 45  1  0
 21 46  1  0
 21 47  1  0
 23 48  1  0
 24 49  1  0
 25 50  1  0
 26 51  1  0
 27 52  1  0
M  CHG  1  18  -1
M  END
>  <UniqueID>  (18) 
17

>  <SMILES>  (18) 
CCn1c(CC(=O)NCc2ccccc2F)c([O-])n(CCc2ccccc2)c1=O

>  <Energy>  (18) 
77.31223503894833

>  <Genealogy>  (18) 
CCn1c(CC(=O)NCc2ccccc2F)c([O-])n(CCc2ccccc2)c1=O (protonated)
CCn1c(CC(=O)NCc2ccccc2F)c([O-])n(CCc2ccccc2)c1=O (3D coordinates assigned)
CCn1c(CC(=O)NCc2ccccc2F)c([O-])n(CCc2ccccc2)c1=O (optimized conformer: 77.31223503894833 kcal/mol)

>  <smiles>  (18) 
CCn1c(CC(=O)NCc2ccccc2F)c(O)n(CCc2ccccc2)c1=O

>  <score_type>  (18) 
oracle

>  <origin>  (18) 
adg

>  <m_score__min__energy>  (18) 
-11.73

>  <m_primary>  (18) 
energy

$$$$
18:0
     RDKit          3D

 43 46  0  0  0  0  0  0  0  0999 V2000
   57.4200   32.2380   43.4780 C   0  0  0  0  0  0  0  0  0  0  0  0
   57.9780   32.5310   44.8420 C   0  0  0  0  0  0  0  0  0  0  0  0
   58.4080   31.4820   45.6690 C   0  0  0  0  0  0  0  0  0  0  0  0
   58.9000   31.7330   46.9660 C   0  0  0  0  0  0  0  0  0  0  0  0
   59.2930   30.6450   47.8260 N   0  0  0  0  0  0  0  0  0  0  0  0
   60.0990   29.2180   47.2550 S   0  0  0  0  0  0  0  0  0  0  0  0
   61.1360   28.7970   48.2580 O   0  0  0  0  0  0  0  0  0  0  0  0
   60.7780   29.5230   45.9490 O   0  0  0  0  0  0  0  0  0  0  0  0
   58.9350   27.9110   47.0650 C   0  0  0  0  0  0  0  0  0  0  0  0
   59.2440   26.6220   47.5670 C   0  0  0  0  0  0  0  0  0  0  0  0
   58.3160   25.5700   47.4540 C   0  0  0  0  0  0  0  0  0  0  0  0
   57.1000   25.8440   46.8340 C   0  0  0  0  0  0  0  0  0  0  0  0
   56.0780   25.0010   46.6250 N   0  0  0  0  0  0  0  0  0  0  0  0
   55.1780   25.7990   45.9960 C   0  0  0  0  0  0  0  0  0  0  0  0
   54.0530   25.3790   45.6200 O   0  0  0  0  0  0  0  0  0  0  0  0
   55.5750   27.0830   45.8040 N   0  0  0  0  0  0  0  0  0  0  0  0
   56.8010   27.0800   46.3470 C   0  0  0  0  0  0  0  0  0  0  0  0
   57.6930   28.1450   46.4390 C   0  0  0  0  0  0  0  0  0  0  0  0
   58.9870   33.0720   47.4110 C   0  0  0  0  0  0  0  0  0  0  0  0
   59.6390   33.4960   49.0360 S   0  0  0  0  0  0  0  0  0  0  0  0
   61.3470   33.3640   48.4970 C   0  0  0  0  0  0  0  0  0  0  0  0
   61.7300   33.8340   47.2330 C   0  0  0  0  0  0  0  0  0  0  0  0
   63.0630   33.7310   46.8230 C   0  0  0  0  0  0  0  0  0  0  0  0
   64.0140   33.1550   47.6690 C   0  0  0  0  0  0  0  0  0  0  0  0
   63.6330   32.6760   48.9270 C   0  0  0  0  0  0  0  0  0  0  0  0
   62.3010   32.7780   49.3400 C   0  0  0  0  0  0  0  0  0  0  0  0
   58.5360   34.1140   46.5910 C   0  0  0  0  0  0  0  0  0  0  0  0
   58.0310   33.8490   45.3180 C   0  0  0  0  0  0  0  0  0  0  0  0
   57.5850   34.9050   44.5290 O   0  0  0  0  0  0  0  0  0  0  0  0
   56.4503   31.7288   43.5802 H   0  0  0  0  0  0  0  0  0  0  0  0
   57.2831   33.1805   42.9276 H   0  0  0  0  0  0  0  0  0  0  0  0
   58.1181   31.5901   42.9276 H   0  0  0  0  0  0  0  0  0  0  0  0
   58.3604   30.4471   45.2992 H   0  0  0  0  0  0  0  0  0  0  0  0
   58.9800   30.6200   48.8190 H   0  0  0  0  0  0  0  0  0  0  0  0
   60.2166   26.4425   48.0486 H   0  0  0  0  0  0  0  0  0  0  0  0
   58.5436   24.5662   47.8421 H   0  0  0  0  0  0  0  0  0  0  0  0
   57.4375   29.1364   46.0367 H   0  0  0  0  0  0  0  0  0  0  0  0
   60.9819   34.2838   46.5636 H   0  0  0  0  0  0  0  0  0  0  0  0
   63.3633   34.1041   45.8327 H   0  0  0  0  0  0  0  0  0  0  0  0
   65.0626   33.0781   47.3459 H   0  0  0  0  0  0  0  0  0  0  0  0
   64.3813   32.2191   49.5913 H   0  0  0  0  0  0  0  0  0  0  0  0
   62.0015   32.3978   50.3278 H   0  0  0  0  0  0  0  0  0  0  0  0
   58.5804   35.1513   46.9543 H   0  0  0  0  0  0  0  0  0  0  0  0
  1  2  1  0
  2  3  2  0
  3  4  1  0
  4  5  1  0
  5  6  1  0
  6  7  2  0
  6  8  2  0
  6  9  1  0
  9 10  2  0
 10 11  1  0
 11 12  2  0
 12 13  1  0
 13 14  1  0
 14 15  2  0
 14 16  1  0
 16 17  1  0
 17 18  2  0
  4 19  2  0
 19 20  1  0
 20 21  1  0
 21 22  2  0
 22 23  1  0
 23 24  2  0
 24 25  1  0
 25 26  2  0
 19 27  1  0
 27 28  2  0
 28 29  1  0
 28  2  1  0
 18  9  1  0
 26 21  1  0
 17 12  1  0
  1 30  1  0
  1 31  1  0
  1 32  1  0
  3 33  1  0
  5 34  1  0
 10 35  1  0
 11 36  1  0
 18 37  1  0
 22 38  1  0
 23 39  1  0
 24 40  1  0
 25 41  1  0
 26 42  1  0
 27 43  1  0
M  CHG  3  13  -1  16  -1  29  -1
M  END
>  <UniqueID>  (19) 
18

>  <SMILES>  (19) 
Cc1cc(NS(=O)(=O)c2ccc3[n-]c(=O)[n-]c3c2)c(Sc2ccccc2)cc1[O-]

>  <Energy>  (19) 
82.27650512212195

>  <Genealogy>  (19) 
Cc1cc(NS(=O)(=O)c2ccc3[n-]c(=O)[n-]c3c2)c(Sc2ccccc2)cc1[O-] (protonated)
Cc1cc(NS(=O)(=O)c2ccc3[n-]c(=O)[n-]c3c2)c(Sc2ccccc2)cc1[O-] (3D coordinates assigned)
Cc1cc(NS(=O)(=O)c2ccc3[n-]c(=O)[n-]c3c2)c(Sc2ccccc2)cc1[O-] (optimized conformer: 82.27650512212195 kcal/mol)

>  <smiles>  (19) 
Cc1cc(NS(=O)(=O)c2ccc3[nH]c(=O)[nH]c3c2)c(Sc2ccccc2)cc1O

>  <score_type>  (19) 
oracle

>  <origin>  (19) 
adg

>  <m_score__min__energy>  (19) 
-13.85

>  <m_primary>  (19) 
energy

$$$$
19:0
     RDKit          3D

 51 54  0  0  0  0  0  0  0  0999 V2000
   56.6380   29.2870   43.0890 O   0  0  0  0  0  0  0  0  0  0  0  0
   56.6780   29.4900   44.3340 C   0  0  0  0  0  0  0  0  0  0  0  0
   56.0680   28.5490   45.2270 N   0  0  0  0  0  0  0  0  0  0  0  0
   56.6120   27.2590   45.5350 C   0  0  0  0  0  0  0  0  0  0  0  0
   55.7780   26.1580   45.8270 C   0  0  0  0  0  0  0  0  0  0  0  0
   54.3930   26.2850   45.9300 O   0  0  0  0  0  0  0  0  0  0  0  0
   56.3470   24.9040   46.0520 C   0  0  0  0  0  0  0  0  0  0  0  0
   57.7310   24.7430   46.0350 C   0  0  0  0  0  0  0  0  0  0  0  0
   58.5750   25.8370   45.8170 C   0  0  0  0  0  0  0  0  0  0  0  0
   58.0110   27.1110   45.5650 C   0  0  0  0  0  0  0  0  0  0  0  0
   58.7900   28.2330   45.2570 O   0  0  0  0  0  0  0  0  0  0  0  0
   59.9350   28.6480   45.9910 C   0  0  0  0  0  0  0  0  0  0  0  0
   61.1180   27.7230   45.7410 C   0  0  0  0  0  0  0  0  0  0  0  0
   60.9290   26.3870   46.4430 C   0  0  0  0  0  0  0  0  0  0  0  0
   59.9510   25.5890   45.7880 O   0  0  0  0  0  0  0  0  0  0  0  0
   57.3740   30.6830   44.8700 C   0  0  0  0  0  0  0  0  0  0  0  0
   57.7810   30.7300   46.2160 C   0  0  0  0  0  0  0  0  0  0  0  0
   58.4380   31.8570   46.7190 C   0  0  0  0  0  0  0  0  0  0  0  0
   58.7020   32.9520   45.8860 C   0  0  0  0  0  0  0  0  0  0  0  0
   59.5390   34.3700   46.5190 S   0  0  0  0  0  0  0  0  0  0  0  0
   59.7480   35.3570   45.4040 O   0  0  0  0  0  0  0  0  0  0  0  0
   58.6800   35.0270   47.5640 O   0  0  0  0  0  0  0  0  0  0  0  0
   61.0850   33.9570   47.2190 N   0  0  0  0  0  0  0  0  0  0  0  0
   62.1190   33.8790   46.1770 C   0  0  0  0  0  0  0  0  0  0  0  0
   63.4810   33.5330   46.8140 C   0  0  0  0  0  0  0  0  0  0  0  0
   63.3670   33.2120   48.1900 O   0  0  0  0  0  0  0  0  0  0  0  0
   62.4000   32.1940   48.3650 C   0  0  0  0  0  0  0  0  0  0  0  0
   60.9980   32.6790   47.9450 C   0  0  0  0  0  0  0  0  0  0  0  0
   58.2980   32.9120   44.5460 C   0  0  0  0  0  0  0  0  0  0  0  0
   57.6390   31.7880   44.0400 C   0  0  0  0  0  0  0  0  0  0  0  0
   53.8240   26.7060   45.2060 H   0  0  0  0  0  0  0  0  0  0  0  0
   55.6985   24.0365   46.2441 H   0  0  0  0  0  0  0  0  0  0  0  0
   58.1646   23.7447   46.1947 H   0  0  0  0  0  0  0  0  0  0  0  0
   60.2070   29.6686   45.6837 H   0  0  0  0  0  0  0  0  0  0  0  0
   59.6902   28.6164   47.0630 H   0  0  0  0  0  0  0  0  0  0  0  0
   61.2154   27.5493   44.6592 H   0  0  0  0  0  0  0  0  0  0  0  0
   62.0247   28.2012   46.1401 H   0  0  0  0  0  0  0  0  0  0  0  0
   61.8871   25.8466   46.4473 H   0  0  0  0  0  0  0  0  0  0  0  0
   60.5852   26.5816   47.4696 H   0  0  0  0  0  0  0  0  0  0  0  0
   57.5809   29.8740   46.8773 H   0  0  0  0  0  0  0  0  0  0  0  0
   58.7491   31.8840   47.7738 H   0  0  0  0  0  0  0  0  0  0  0  0
   61.8471   33.0987   45.4510 H   0  0  0  0  0  0  0  0  0  0  0  0
   62.1939   34.8510   45.6674 H   0  0  0  0  0  0  0  0  0  0  0  0
   63.9100   32.6698   46.2840 H   0  0  0  0  0  0  0  0  0  0  0  0
   64.1267   34.4194   46.7283 H   0  0  0  0  0  0  0  0  0  0  0  0
   62.6783   31.3252   47.7503 H   0  0  0  0  0  0  0  0  0  0  0  0
   62.3698   31.9215   49.4303 H   0  0  0  0  0  0  0  0  0  0  0  0
   60.5352   31.9239   47.2926 H   0  0  0  0  0  0  0  0  0  0  0  0
   60.3894   32.8268   48.8493 H   0  0  0  0  0  0  0  0  0  0  0  0
   58.5003   33.7698   43.8879 H   0  0  0  0  0  0  0  0  0  0  0  0
   57.3254   31.7671   42.9859 H   0  0  0  0  0  0  0  0  0  0  0  0
  1  2  2  0
  2  3  1  0
  3  4  1  0
  4  5  2  0
  5  6  1  0
  5  7  1  0
  7  8  2  0
  8  9  1  0
  9 10  2  0
 10 11  1  0
 11 12  1  0
 12 13  1  0
 13 14  1  0
 14 15  1  0
  2 16  1  0
 16 17  2  0
 17 18  1  0
 18 19  2  0
 19 20  1  0
 20 21  2  0
 20 22  2  0
 20 23  1  0
 23 24  1  0
 24 25  1  0
 25 26  1  0
 26 27  1  0
 27 28  1  0
 19 29  1  0
 29 30  2  0
 10  4  1  0
 30 16  1  0
 15  9  1  0
 28 23  1  0
  6 31  1  0
  7 32  1  0
  8 33  1  0
 12 34  1  0
 12 35  1  0
 13 36  1  0
 13 37  1  0
 14 38  1  0
 14 39  1  0
 17 40  1  0
 18 41  1  0
 24 42  1  0
 24 43  1  0
 25 44  1  0
 25 45  1  0
 27 46  1  0
 27 47  1  0
 28 48  1  0
 28 49  1  0
 29 50  1  0
 30 51  1  0
M  CHG  1   3  -1
M  END
>  <UniqueID>  (20) 
19

>  <SMILES>  (20) 
O=C([N-]c1c(O)ccc2c1OCCCO2)c1ccc(S(=O)(=O)N2CCOCC2)cc1

>  <Energy>  (20) 
76.73297772105893

>  <Genealogy>  (20) 
O=C([N-]c1c(O)ccc2c1OCCCO2)c1ccc(S(=O)(=O)N2CCOCC2)cc1 (protonated)
O=C([N-]c1c(O)ccc2c1OCCCO2)c1ccc(S(=O)(=O)N2CCOCC2)cc1 (3D coordinates assigned)
O=C([N-]c1c(O)ccc2c1OCCCO2)c1ccc(S(=O)(=O)N2CCOCC2)cc1 (nonaromatic ring conformer: 76.73297772105893 kcal/mol)

>  <smiles>  (20) 
O=C(Nc1c(O)ccc2c1OCCCO2)c1ccc(S(=O)(=O)N2CCOCC2)cc1

>  <score_type>  (20) 
oracle

>  <origin>  (20) 
adg

>  <m_score__min__energy>  (20) 
-9.3499999999999996

>  <m_primary>  (20) 
energy

$$$$
20:0
     RDKit          3D

 45 47  0  0  0  0  0  0  0  0999 V2000
   55.1420   24.5320   46.6160 O   0  0  0  0  0  0  0  0  0  0  0  0
   55.9140   25.3280   46.0160 C   0  0  0  0  0  0  0  0  0  0  0  0
   57.1680   24.8110   45.3900 C   0  0  0  0  0  0  0  0  0  0  0  0
   56.9480   23.4100   44.8840 C   0  0  0  0  0  0  0  0  0  0  0  0
   56.8230   23.1800   43.5020 C   0  0  0  0  0  0  0  0  0  0  0  0
   56.6550   21.8820   43.0140 C   0  0  0  0  0  0  0  0  0  0  0  0
   56.6210   20.8000   43.8970 C   0  0  0  0  0  0  0  0  0  0  0  0
   56.7590   21.0150   45.2700 C   0  0  0  0  0  0  0  0  0  0  0  0
   56.9290   22.3140   45.7700 C   0  0  0  0  0  0  0  0  0  0  0  0
   57.0820   22.5180   47.1410 O   0  0  0  0  0  0  0  0  0  0  0  0
   55.6020   26.7230   45.9230 N   0  0  0  0  0  0  0  0  0  0  0  0
   56.5340   27.7750   45.6340 C   0  0  0  0  0  0  0  0  0  0  0  0
   57.8850   27.6860   46.0090 C   0  0  0  0  0  0  0  0  0  0  0  0
   58.7750   28.7310   45.7190 C   0  0  0  0  0  0  0  0  0  0  0  0
   60.4670   28.6110   46.1970 S   0  0  0  0  0  0  0  0  0  0  0  0
   61.3310   28.9570   45.0160 O   0  0  0  0  0  0  0  0  0  0  0  0
   60.7660   27.1860   46.5740 O   0  0  0  0  0  0  0  0  0  0  0  0
   60.8830   29.6580   47.5370 N   0  0  0  0  0  0  0  0  0  0  0  0
   61.4910   30.9350   47.1170 C   0  0  0  0  0  0  0  0  0  0  0  0
   60.4520   32.0470   46.9200 C   0  0  0  0  0  0  0  0  0  0  0  0
   59.6410   32.1830   48.0650 O   0  0  0  0  0  0  0  0  0  0  0  0
   58.8840   31.0050   48.2360 C   0  0  0  0  0  0  0  0  0  0  0  0
   59.7980   29.8060   48.5280 C   0  0  0  0  0  0  0  0  0  0  0  0
   58.3200   29.8480   45.0080 C   0  0  0  0  0  0  0  0  0  0  0  0
   56.9860   29.9280   44.6040 C   0  0  0  0  0  0  0  0  0  0  0  0
   56.0950   28.8950   44.9100 C   0  0  0  0  0  0  0  0  0  0  0  0
   54.7690   28.9870   44.4990 O   0  0  0  0  0  0  0  0  0  0  0  0
   57.4515   25.4620   44.5498 H   0  0  0  0  0  0  0  0  0  0  0  0
   57.9713   24.8028   46.1414 H   0  0  0  0  0  0  0  0  0  0  0  0
   56.8578   24.0273   42.8014 H   0  0  0  0  0  0  0  0  0  0  0  0
   56.5493   21.7115   41.9324 H   0  0  0  0  0  0  0  0  0  0  0  0
   56.4856   19.7789   43.5109 H   0  0  0  0  0  0  0  0  0  0  0  0
   56.7342   20.1609   45.9628 H   0  0  0  0  0  0  0  0  0  0  0  0
   56.5300   23.2060   47.6410 H   0  0  0  0  0  0  0  0  0  0  0  0
   58.2478   26.7901   46.5340 H   0  0  0  0  0  0  0  0  0  0  0  0
   62.2072   31.2547   47.8883 H   0  0  0  0  0  0  0  0  0  0  0  0
   61.9855   30.7660   46.1491 H   0  0  0  0  0  0  0  0  0  0  0  0
   60.9725   32.9976   46.7318 H   0  0  0  0  0  0  0  0  0  0  0  0
   59.8126   31.7845   46.0643 H   0  0  0  0  0  0  0  0  0  0  0  0
   58.1892   31.1420   49.0777 H   0  0  0  0  0  0  0  0  0  0  0  0
   58.3276   30.8060   47.3082 H   0  0  0  0  0  0  0  0  0  0  0  0
   60.2470   29.9406   49.5231 H   0  0  0  0  0  0  0  0  0  0  0  0
   59.1788   28.8982   48.4788 H   0  0  0  0  0  0  0  0  0  0  0  0
   59.0158   30.6652   44.7669 H   0  0  0  0  0  0  0  0  0  0  0  0
   56.6348   30.8067   44.0431 H   0  0  0  0  0  0  0  0  0  0  0  0
  1  2  2  0
  2  3  1  0
  3  4  1  0
  4  5  2  0
  5  6  1  0
  6  7  2  0
  7  8  1  0
  8  9  2  0
  9 10  1  0
  2 11  1  0
 11 12  1  0
 12 13  2  0
 13 14  1  0
 14 15  1  0
 15 16  2  0
 15 17  2  0
 15 18  1  0
 18 19  1  0
 19 20  1  0
 20 21  1  0
 21 22  1  0
 22 23  1  0
 14 24  2  0
 24 25  1  0
 25 26  2  0
 26 27  1  0
  9  4  1  0
 26 12  1  0
 23 18  1  0
  3 28  1  0
  3 29  1  0
  5 30  1  0
  6 31  1  0
  7 32  1  0
  8 33  1  0
 10 34  1  0
 13 35  1  0
 19 36  1  0
 19 37  1  0
 20 38  1  0
 20 39  1  0
 22 40  1  0
 22 41  1  0
 23 42  1  0
 23 43  1  0
 24 44  1  0
 25 45  1  0
M  CHG  2  11  -1  27  -1
M  END
>  <UniqueID>  (21) 
20

>  <SMILES>  (21) 
O=C(Cc1ccccc1O)[N-]c1cc(S(=O)(=O)N2CCOCC2)ccc1[O-]

>  <Energy>  (21) 
53.38670297649039

>  <Genealogy>  (21) 
O=C(Cc1ccccc1O)[N-]c1cc(S(=O)(=O)N2CCOCC2)ccc1[O-] (protonated)
O=C(Cc1ccccc1O)[N-]c1cc(S(=O)(=O)N2CCOCC2)ccc1[O-] (3D coordinates assigned)
O=C(Cc1ccccc1O)[N-]c1cc(S(=O)(=O)N2CCOCC2)ccc1[O-] (nonaromatic ring conformer: 53.38670297649039 kcal/mol)

>  <smiles>  (21) 
O=C(Cc1ccccc1O)Nc1cc(S(=O)(=O)N2CCOCC2)ccc1O

>  <score_type>  (21) 
oracle

>  <origin>  (21) 
adg

>  <m_score__min__energy>  (21) 
-13.52

>  <m_primary>  (21) 
energy

$$$$
21:0
     RDKit          3D

 38 40  0  0  0  0  0  0  0  0999 V2000
   57.9410   32.3440   50.0070 N   0  0  0  0  0  0  0  0  0  0  0  0
   59.0510   32.8870   48.7980 S   0  0  0  0  0  0  0  0  0  0  0  0
   60.3600   32.1650   48.9480 O   0  0  0  0  0  0  0  0  0  0  0  0
   59.2720   34.3640   48.9640 O   0  0  0  0  0  0  0  0  0  0  0  0
   58.3840   32.5680   47.2100 C   0  0  0  0  0  0  0  0  0  0  0  0
   57.6220   33.4560   46.4630 C   0  0  0  0  0  0  0  0  0  0  0  0
   57.2070   32.9230   45.2380 C   0  0  0  0  0  0  0  0  0  0  0  0
   57.6440   31.6200   45.0380 C   0  0  0  0  0  0  0  0  0  0  0  0
   57.2890   30.6140   43.6030 S   0  0  0  0  0  0  0  0  0  0  0  0
   57.5090   29.0870   44.5210 C   0  0  0  0  0  0  0  0  0  0  0  0
   58.7820   28.5150   44.6180 C   0  0  0  0  0  0  0  0  0  0  0  0
   58.9610   27.3130   45.3070 C   0  0  0  0  0  0  0  0  0  0  0  0
   57.8720   26.6700   45.9070 C   0  0  0  0  0  0  0  0  0  0  0  0
   58.0970   25.4250   46.5830 N   0  0  0  0  0  0  0  0  0  0  0  0
   56.9390   24.1410   46.7120 S   0  0  0  0  0  0  0  0  0  0  0  0
   57.3690   23.1960   47.7980 O   0  0  0  0  0  0  0  0  0  0  0  0
   55.6000   24.7220   47.0690 O   0  0  0  0  0  0  0  0  0  0  0  0
   56.8500   23.2570   45.1910 C   0  0  0  0  0  0  0  0  0  0  0  0
   55.9400   23.6470   44.1970 C   0  0  0  0  0  0  0  0  0  0  0  0
   55.8860   22.9520   42.9840 C   0  0  0  0  0  0  0  0  0  0  0  0
   56.7370   21.8650   42.7610 C   0  0  0  0  0  0  0  0  0  0  0  0
   57.6400   21.4690   43.7530 C   0  0  0  0  0  0  0  0  0  0  0  0
   57.6950   22.1610   44.9650 C   0  0  0  0  0  0  0  0  0  0  0  0
   56.5960   27.2560   45.8240 C   0  0  0  0  0  0  0  0  0  0  0  0
   56.4140   28.4590   45.1330 C   0  0  0  0  0  0  0  0  0  0  0  0
   55.1450   29.0210   45.0570 O   0  0  0  0  0  0  0  0  0  0  0  0
   58.5440   31.1210   46.3670 S   0  0  0  0  0  0  0  0  0  0  0  0
   57.0000   32.7130   49.7450 H   0  0  0  0  0  0  0  0  0  0  0  0
   57.3707   34.4727   46.7993 H   0  0  0  0  0  0  0  0  0  0  0  0
   56.5981   33.4780   44.5092 H   0  0  0  0  0  0  0  0  0  0  0  0
   59.6442   29.0130   44.1505 H   0  0  0  0  0  0  0  0  0  0  0  0
   59.9647   26.8687   45.3785 H   0  0  0  0  0  0  0  0  0  0  0  0
   55.2681   24.5003   44.3716 H   0  0  0  0  0  0  0  0  0  0  0  0
   55.1735   23.2609   42.2050 H   0  0  0  0  0  0  0  0  0  0  0  0
   56.6962   21.3215   41.8055 H   0  0  0  0  0  0  0  0  0  0  0  0
   58.3073   20.6121   43.5785 H   0  0  0  0  0  0  0  0  0  0  0  0
   58.4036   21.8452   45.7449 H   0  0  0  0  0  0  0  0  0  0  0  0
   55.7366   26.7659   46.3049 H   0  0  0  0  0  0  0  0  0  0  0  0
  1  2  1  0
  2  3  2  0
  2  4  2  0
  2  5  1  0
  5  6  2  0
  6  7  1  0
  7  8  2  0
  8  9  1  0
  9 10  1  0
 10 11  2  0
 11 12  1  0
 12 13  2  0
 13 14  1  0
 14 15  1  0
 15 16  2  0
 15 17  2  0
 15 18  1  0
 18 19  2  0
 19 20  1  0
 20 21  2  0
 21 22  1  0
 22 23  2  0
 13 24  1  0
 24 25  2  0
 25 26  1  0
  8 27  1  0
 27  5  1  0
 25 10  1  0
 23 18  1  0
  1 28  1  0
  6 29  1  0
  7 30  1  0
 11 31  1  0
 12 32  1  0
 19 33  1  0
 20 34  1  0
 21 35  1  0
 22 36  1  0
 23 37  1  0
 24 38  1  0
M  CHG  3   1  -1  14  -1  26  -1
M  END
>  <UniqueID>  (22) 
21

>  <SMILES>  (22) 
[NH-]S(=O)(=O)c1ccc(Sc2ccc([N-]S(=O)(=O)c3ccccc3)cc2[O-])s1

>  <Energy>  (22) 
65.56439357777262

>  <Genealogy>  (22) 
[NH-]S(=O)(=O)c1ccc(Sc2ccc([N-]S(=O)(=O)c3ccccc3)cc2[O-])s1 (protonated)
[NH-]S(=O)(=O)c1ccc(Sc2ccc([N-]S(=O)(=O)c3ccccc3)cc2[O-])s1 (3D coordinates assigned)
[NH-]S(=O)(=O)c1ccc(Sc2ccc([N-]S(=O)(=O)c3ccccc3)cc2[O-])s1 (optimized conformer: 65.56439357777262 kcal/mol)

>  <smiles>  (22) 
NS(=O)(=O)c1ccc(Sc2ccc(NS(=O)(=O)c3ccccc3)cc2O)s1

>  <score_type>  (22) 
oracle

>  <origin>  (22) 
adg

>  <m_score__min__energy>  (22) 
-15.32

>  <m_primary>  (22) 
energy

$$$$
22:0
     RDKit          3D

 49 52  0  0  0  0  0  0  0  0999 V2000
   55.9690   30.0310   44.5760 O   0  0  0  0  0  0  0  0  0  0  0  0
   57.0100   29.7010   45.2000 C   0  0  0  0  0  0  0  0  0  0  0  0
   57.0220   28.4640   45.9270 N   0  0  0  0  0  0  0  0  0  0  0  0
   58.0860   27.8100   46.2840 C   0  0  0  0  0  0  0  0  0  0  0  0
   58.7430   28.0020   47.4510 N   0  0  0  0  0  0  0  0  0  0  0  0
   59.8480   27.2140   47.5300 C   0  0  0  0  0  0  0  0  0  0  0  0
   60.7360   27.2180   48.7350 C   0  0  0  0  0  0  0  0  0  0  0  0
   60.3230   28.3110   49.6700 C   0  0  0  0  0  0  0  0  0  0  0  0
   60.5010   28.1620   50.9100 O   0  0  0  0  0  0  0  0  0  0  0  0
   59.7210   29.5090   49.1580 N   0  0  0  0  0  0  0  0  0  0  0  0
   59.0160   30.4580   49.9740 C   0  0  0  0  0  0  0  0  0  0  0  0
   59.2870   31.8340   49.9030 C   0  0  0  0  0  0  0  0  0  0  0  0
   58.6170   32.7220   50.7470 C   0  0  0  0  0  0  0  0  0  0  0  0
   57.6900   32.2250   51.6630 C   0  0  0  0  0  0  0  0  0  0  0  0
   57.4520   30.8900   51.7370 N   0  0  0  0  0  0  0  0  0  0  0  0
   58.0920   30.0050   50.9250 C   0  0  0  0  0  0  0  0  0  0  0  0
   60.0700   26.3890   46.4280 C   0  0  0  0  0  0  0  0  0  0  0  0
   58.8410   26.6710   45.3120 S   0  0  0  0  0  0  0  0  0  0  0  0
   58.1470   30.5730   45.1620 N   0  0  0  0  0  0  0  0  0  0  0  0
   58.1920   31.9390   45.6040 C   0  0  0  0  0  0  0  0  0  0  0  0
   57.2250   32.8740   45.1870 C   0  0  0  0  0  0  0  0  0  0  0  0
   57.2780   34.1940   45.6380 C   0  0  0  0  0  0  0  0  0  0  0  0
   58.3020   34.6010   46.4950 C   0  0  0  0  0  0  0  0  0  0  0  0
   59.2770   33.6880   46.8990 C   0  0  0  0  0  0  0  0  0  0  0  0
   59.2420   32.3640   46.4480 C   0  0  0  0  0  0  0  0  0  0  0  0
   60.2370   31.4840   46.8910 O   0  0  0  0  0  0  0  0  0  0  0  0
   61.4880   31.8720   47.3950 C   0  0  0  0  0  0  0  0  0  0  0  0
   62.1010   31.2010   48.4710 C   0  0  0  0  0  0  0  0  0  0  0  0
   63.3530   31.6160   48.9360 C   0  0  0  0  0  0  0  0  0  0  0  0
   64.0050   32.6910   48.3270 C   0  0  0  0  0  0  0  0  0  0  0  0
   63.4080   33.3510   47.2500 C   0  0  0  0  0  0  0  0  0  0  0  0
   62.1560   32.9390   46.7820 C   0  0  0  0  0  0  0  0  0  0  0  0
   60.6567   26.2489   49.2494 H   0  0  0  0  0  0  0  0  0  0  0  0
   61.7755   27.3872   48.4176 H   0  0  0  0  0  0  0  0  0  0  0  0
   59.8530   29.7320   48.1460 H   0  0  0  0  0  0  0  0  0  0  0  0
   60.0271   32.2123   49.1825 H   0  0  0  0  0  0  0  0  0  0  0  0
   58.8181   33.8020   50.6901 H   0  0  0  0  0  0  0  0  0  0  0  0
   57.1503   32.9161   52.3272 H   0  0  0  0  0  0  0  0  0  0  0  0
   57.8829   28.9289   51.0157 H   0  0  0  0  0  0  0  0  0  0  0  0
   60.9016   25.6789   46.3087 H   0  0  0  0  0  0  0  0  0  0  0  0
   56.4230   32.5623   44.5017 H   0  0  0  0  0  0  0  0  0  0  0  0
   56.5114   34.9148   45.3175 H   0  0  0  0  0  0  0  0  0  0  0  0
   58.3403   35.6409   46.8517 H   0  0  0  0  0  0  0  0  0  0  0  0
   60.0798   34.0120   47.5777 H   0  0  0  0  0  0  0  0  0  0  0  0
   61.5939   30.3486   48.9467 H   0  0  0  0  0  0  0  0  0  0  0  0
   63.8249   31.0953   49.7823 H   0  0  0  0  0  0  0  0  0  0  0  0
   64.9886   33.0179   48.6955 H   0  0  0  0  0  0  0  0  0  0  0  0
   63.9233   34.1957   46.7695 H   0  0  0  0  0  0  0  0  0  0  0  0
   61.6938   33.4558   45.9280 H   0  0  0  0  0  0  0  0  0  0  0  0
  1  2  2  0
  2  3  1  0
  3  4  2  3
  4  5  1  0
  5  6  1  0
  6  7  1  0
  7  8  1  0
  8  9  2  0
  8 10  1  0
 10 11  1  0
 11 12  2  0
 12 13  1  0
 13 14  2  0
 14 15  1  0
 15 16  2  0
  6 17  2  0
 17 18  1  0
  2 19  1  0
 19 20  1  0
 20 21  2  0
 21 22  1  0
 22 23  2  0
 23 24  1  0
 24 25  2  0
 25 26  1  0
 26 27  1  0
 27 28  2  0
 28 29  1  0
 29 30  2  0
 30 31  1  0
 31 32  2  0
 18  4  1  0
 25 20  1  0
 32 27  1  0
 16 11  1  0
  7 33  1  0
  7 34  1  0
 10 35  1  0
 12 36  1  0
 13 37  1  0
 14 38  1  0
 16 39  1  0
 17 40  1  0
 21 41  1  0
 22 42  1  0
 23 43  1  0
 24 44  1  0
 28 45  1  0
 29 46  1  0
 30 47  1  0
 31 48  1  0
 32 49  1  0
M  CHG  2   5  -1  19  -1
M  END
>  <UniqueID>  (23) 
22

>  <SMILES>  (23) 
O=C(N=c1[n-]c(CC(=O)Nc2cccnc2)cs1)[N-]c1ccccc1Oc1ccccc1

>  <Energy>  (23) 
96.315116974263

>  <Genealogy>  (23) 
O=C(N=c1[n-]c(CC(=O)Nc2cccnc2)cs1)[N-]c1ccccc1Oc1ccccc1 (protonated)
O=C(N=c1[n-]c(CC(=O)Nc2cccnc2)cs1)[N-]c1ccccc1Oc1ccccc1 (3D coordinates assigned)
O=C(N=c1[n-]c(CC(=O)Nc2cccnc2)cs1)[N-]c1ccccc1Oc1ccccc1 (optimized conformer: 96.315116974263 kcal/mol)

>  <smiles>  (23) 
O=C(Cc1csc(=NC(=O)Nc2ccccc2Oc2ccccc2)[nH]1)Nc1cccnc1

>  <score_type>  (23) 
oracle

>  <origin>  (23) 
adg

>  <m_score__min__energy>  (23) 
-11.4

>  <m_primary>  (23) 
energy

$$$$
23:0
     RDKit          3D

 42 43  0  0  0  0  0  0  0  0999 V2000
   57.4290   33.2360   45.8290 C   0  0  0  0  0  0  0  0  0  0  0  0
   57.7650   31.8080   45.5470 C   0  0  0  0  0  0  0  0  0  0  0  0
   57.0000   31.1250   44.8140 O   0  0  0  0  0  0  0  0  0  0  0  0
   58.9750   31.2410   46.0680 N   0  0  0  0  0  0  0  0  0  0  0  0
   59.4520   29.9110   45.6910 C   0  0  0  0  0  0  0  0  0  0  0  0
   60.0350   29.1840   46.9050 C   0  0  0  0  0  0  0  0  0  0  0  0
   59.5290   29.7590   48.1490 N   0  0  0  0  0  0  0  0  0  0  0  0
   58.6610   29.1710   48.9960 C   0  0  0  0  0  0  0  0  0  0  0  0
   58.4980   30.0250   50.0690 C   0  0  0  0  0  0  0  0  0  0  0  0
   57.6900   29.8470   51.2390 N   0  0  0  0  0  0  0  0  0  0  0  0
   56.8280   30.8260   51.8270 C   0  0  0  0  0  0  0  0  0  0  0  0
   56.6770   31.9570   51.2930 O   0  0  0  0  0  0  0  0  0  0  0  0
   56.1110   30.4920   53.0200 N   0  0  0  0  0  0  0  0  0  0  0  0
   55.1280   29.4140   53.1000 C   0  0  0  0  0  0  0  0  0  0  0  0
   53.7770   29.9380   53.6030 C   0  0  0  0  0  0  0  0  0  0  0  0
   52.9460   30.5250   52.4910 C   0  0  0  0  0  0  0  0  0  0  0  0
   53.0420   30.0090   51.1880 C   0  0  0  0  0  0  0  0  0  0  0  0
   52.2390   30.5240   50.1660 C   0  0  0  0  0  0  0  0  0  0  0  0
   51.3330   31.5540   50.4370 C   0  0  0  0  0  0  0  0  0  0  0  0
   51.2290   32.0700   51.7320 C   0  0  0  0  0  0  0  0  0  0  0  0
   50.3250   33.0910   52.0010 O   0  0  0  0  0  0  0  0  0  0  0  0
   52.0320   31.5590   52.7570 C   0  0  0  0  0  0  0  0  0  0  0  0
   59.2900   31.1210   49.8070 C   0  0  0  0  0  0  0  0  0  0  0  0
   59.9180   30.9320   48.6300 N   0  0  0  0  0  0  0  0  0  0  0  0
   57.3914   33.3959   46.9167 H   0  0  0  0  0  0  0  0  0  0  0  0
   58.1984   33.8875   45.3890 H   0  0  0  0  0  0  0  0  0  0  0  0
   56.4498   33.4761   45.3890 H   0  0  0  0  0  0  0  0  0  0  0  0
   59.6080   31.8450   46.6400 H   0  0  0  0  0  0  0  0  0  0  0  0
   58.6118   29.3262   45.2885 H   0  0  0  0  0  0  0  0  0  0  0  0
   60.2393   30.0189   44.9304 H   0  0  0  0  0  0  0  0  0  0  0  0
   59.7532   28.1217   46.8583 H   0  0  0  0  0  0  0  0  0  0  0  0
   61.1295   29.2920   46.8873 H   0  0  0  0  0  0  0  0  0  0  0  0
   58.1739   28.1944   48.8585 H   0  0  0  0  0  0  0  0  0  0  0  0
   54.9938   28.9747   52.1005 H   0  0  0  0  0  0  0  0  0  0  0  0
   55.4955   28.6565   53.8079 H   0  0  0  0  0  0  0  0  0  0  0  0
   53.2214   29.1054   54.0592 H   0  0  0  0  0  0  0  0  0  0  0  0
   53.9745   30.7351   54.3348 H   0  0  0  0  0  0  0  0  0  0  0  0
   53.7515   29.1969   50.9710 H   0  0  0  0  0  0  0  0  0  0  0  0
   52.3201   30.1182   49.1468 H   0  0  0  0  0  0  0  0  0  0  0  0
   50.7023   31.9581   49.6314 H   0  0  0  0  0  0  0  0  0  0  0  0
   51.9478   31.9678   53.7747 H   0  0  0  0  0  0  0  0  0  0  0  0
   59.3929   32.0055   50.4528 H   0  0  0  0  0  0  0  0  0  0  0  0
  1  2  1  0
  2  3  2  0
  2  4  1  0
  4  5  1  0
  5  6  1  0
  6  7  1  0
  7  8  1  0
  8  9  2  0
  9 10  1  0
 10 11  1  0
 11 12  2  0
 11 13  1  0
 13 14  1  0
 14 15  1  0
 15 16  1  0
 16 17  2  0
 17 18  1  0
 18 19  2  0
 19 20  1  0
 20 21  1  0
 20 22  2  0
  9 23  1  0
 23 24  2  0
 24  7  1  0
 22 16  1  0
  1 25  1  0
  1 26  1  0
  1 27  1  0
  4 28  1  0
  5 29  1  0
  5 30  1  0
  6 31  1  0
  6 32  1  0
  8 33  1  0
 14 34  1  0
 14 35  1  0
 15 36  1  0
 15 37  1  0
 17 38  1  0
 18 39  1  0
 19 40  1  0
 22 41  1  0
 23 42  1  0
M  CHG  3  10  -1  13  -1  21  -1
M  END
>  <UniqueID>  (24) 
23

>  <SMILES>  (24) 
CC(=O)NCCn1cc([N-]C(=O)[N-]CCc2cccc([O-])c2)cn1

>  <Energy>  (24) 
61.70648222742633

>  <Genealogy>  (24) 
CC(=O)NCCn1cc([N-]C(=O)[N-]CCc2cccc([O-])c2)cn1 (protonated)
CC(=O)NCCn1cc([N-]C(=O)[N-]CCc2cccc([O-])c2)cn1 (3D coordinates assigned)
CC(=O)NCCn1cc([N-]C(=O)[N-]CCc2cccc([O-])c2)cn1 (optimized conformer: 61.70648222742633 kcal/mol)

>  <smiles>  (24) 
CC(=O)NCCn1cc(NC(=O)NCCc2cccc(O)c2)cn1

>  <score_type>  (24) 
oracle

>  <origin>  (24) 
adg

>  <m_score__min__energy>  (24) 
-13.26

>  <m_primary>  (24) 
energy

$$$$
24:0
     RDKit          3D

 29 30  0  0  0  0  0  0  0  0999 V2000
   56.9220   30.6580   43.6720 C   0  0  0  0  0  0  0  0  0  0  0  0
   56.7680   31.3120   44.9280 O   0  0  0  0  0  0  0  0  0  0  0  0
   57.5510   32.3940   45.3610 C   0  0  0  0  0  0  0  0  0  0  0  0
   57.7350   33.4690   44.4880 C   0  0  0  0  0  0  0  0  0  0  0  0
   58.5080   34.5660   44.8710 C   0  0  0  0  0  0  0  0  0  0  0  0
   59.1070   34.5970   46.1310 C   0  0  0  0  0  0  0  0  0  0  0  0
   58.9410   33.5280   47.0310 C   0  0  0  0  0  0  0  0  0  0  0  0
   59.6000   33.5750   48.3660 C   0  0  0  0  0  0  0  0  0  0  0  0
   59.1060   32.9220   49.3260 O   0  0  0  0  0  0  0  0  0  0  0  0
   60.8300   34.4030   48.6350 C   0  0  0  0  0  0  0  0  0  0  0  0
   62.0410   33.6140   48.4170 N   0  0  0  0  0  0  0  0  0  0  0  0
   62.7330   32.9190   49.3410 C   0  0  0  0  0  0  0  0  0  0  0  0
   63.8290   32.3570   48.7210 C   0  0  0  0  0  0  0  0  0  0  0  0
   63.8180   32.7110   47.4230 N   0  0  0  0  0  0  0  0  0  0  0  0
   62.7250   33.4790   47.2630 C   0  0  0  0  0  0  0  0  0  0  0  0
   58.1520   32.4290   46.6360 C   0  0  0  0  0  0  0  0  0  0  0  0
   57.1712   29.5995   43.8379 H   0  0  0  0  0  0  0  0  0  0  0  0
   55.9826   30.7289   43.1041 H   0  0  0  0  0  0  0  0  0  0  0  0
   57.7311   31.1406   43.1041 H   0  0  0  0  0  0  0  0  0  0  0  0
   57.2676   33.4507   43.4924 H   0  0  0  0  0  0  0  0  0  0  0  0
   58.6455   35.4088   44.1776 H   0  0  0  0  0  0  0  0  0  0  0  0
   59.7150   35.4657   46.4236 H   0  0  0  0  0  0  0  0  0  0  0  0
   60.8370   35.2700   47.9580 H   0  0  0  0  0  0  0  0  0  0  0  0
   60.8093   34.7375   49.6827 H   0  0  0  0  0  0  0  0  0  0  0  0
   62.4696   32.8177   50.4042 H   0  0  0  0  0  0  0  0  0  0  0  0
   64.5864   31.7244   49.2069 H   0  0  0  0  0  0  0  0  0  0  0  0
   64.5170   32.4500   46.6920 H   0  0  0  0  0  0  0  0  0  0  0  0
   62.4266   33.9394   46.3096 H   0  0  0  0  0  0  0  0  0  0  0  0
   58.0034   31.5889   47.3304 H   0  0  0  0  0  0  0  0  0  0  0  0
  1  2  1  0
  2  3  1  0
  3  4  2  0
  4  5  1  0
  5  6  2  0
  6  7  1  0
  7  8  1  0
  8  9  2  0
  8 10  1  0
 10 11  1  0
 11 12  1  0
 12 13  2  0
 13 14  1  0
 14 15  2  0
  7 16  2  0
 16  3  1  0
 15 11  1  0
  1 17  1  0
  1 18  1  0
  1 19  1  0
  4 20  1  0
  5 21  1  0
  6 22  1  0
 10 23  1  0
 10 24  1  0
 12 25  1  0
 13 26  1  0
 14 27  1  0
 15 28  1  0
 16 29  1  0
M  CHG  1  14   1
M  END
>  <UniqueID>  (25) 
24

>  <SMILES>  (25) 
COc1cccc(C(=O)Cn2cc[nH+]c2)c1

>  <Energy>  (25) 
58.634343621985856

>  <Genealogy>  (25) 
COc1cccc(C(=O)Cn2cc[nH+]c2)c1 (protonated)
COc1cccc(C(=O)Cn2cc[nH+]c2)c1 (3D coordinates assigned)
COc1cccc(C(=O)Cn2cc[nH+]c2)c1 (optimized conformer: 58.634343621985856 kcal/mol)

>  <smiles>  (25) 
COc1cccc(C(=O)Cn2ccnc2)c1

>  <score_type>  (25) 
oracle

>  <origin>  (25) 
adg

>  <m_score__min__energy>  (25) 
-4.8700000000000001

>  <m_primary>  (25) 
energy

$$$$
25:0
     RDKit          3D

 56 58  0  0  0  0  0  0  0  0999 V2000
   55.9520   33.0394   45.8499 H   0  0  0  0  0  0  0  0  0  0  0  0
   57.0170   33.2890   45.9660 C   0  0  0  0  0  0  0  0  0  0  0  0
   57.7740   33.6570   44.8500 C   0  0  0  0  0  0  0  0  0  0  0  0
   57.3060   33.6909   43.8551 H   0  0  0  0  0  0  0  0  0  0  0  0
   59.1260   33.9820   44.9980 C   0  0  0  0  0  0  0  0  0  0  0  0
   59.7210   34.2647   44.1170 H   0  0  0  0  0  0  0  0  0  0  0  0
   59.7280   33.9490   46.2680 C   0  0  0  0  0  0  0  0  0  0  0  0
   61.1920   34.2600   46.4200 C   0  0  0  0  0  0  0  0  0  0  0  0
   61.3442   35.3447   46.3184 H   0  0  0  0  0  0  0  0  0  0  0  0
   61.7527   33.7240   45.6400 H   0  0  0  0  0  0  0  0  0  0  0  0
   61.6970   33.8060   47.7950 C   0  0  0  0  0  0  0  0  0  0  0  0
   60.8373   33.5110   48.4145 H   0  0  0  0  0  0  0  0  0  0  0  0
   62.2402   34.6408   48.2620 H   0  0  0  0  0  0  0  0  0  0  0  0
   62.6560   32.6100   47.6630 C   0  0  0  0  0  0  0  0  0  0  0  0
   63.4970   32.7624   48.3555 H   0  0  0  0  0  0  0  0  0  0  0  0
   62.9761   32.5723   46.6113 H   0  0  0  0  0  0  0  0  0  0  0  0
   62.0190   31.2770   47.9750 C   0  0  0  0  0  0  0  0  0  0  0  0
   61.8080   30.4300   47.0020 N   0  0  0  0  0  0  0  0  0  0  0  0
   60.5570   30.0490   46.4170 C   0  0  0  0  0  0  0  0  0  0  0  0
   59.5150   30.7320   46.6230 O   0  0  0  0  0  0  0  0  0  0  0  0
   60.4620   28.7530   45.6720 C   0  0  0  0  0  0  0  0  0  0  0  0
   60.7383   28.9208   44.6206 H   0  0  0  0  0  0  0  0  0  0  0  0
   61.1462   28.0286   46.1378 H   0  0  0  0  0  0  0  0  0  0  0  0
   59.0630   28.2010   45.7320 C   0  0  0  0  0  0  0  0  0  0  0  0
   58.7920   27.0320   46.4620 C   0  0  0  0  0  0  0  0  0  0  0  0
   59.6102   26.5034   46.9730 H   0  0  0  0  0  0  0  0  0  0  0  0
   57.4860   26.5370   46.5420 C   0  0  0  0  0  0  0  0  0  0  0  0
   57.2807   25.6149   47.1056 H   0  0  0  0  0  0  0  0  0  0  0  0
   56.4410   27.2150   45.9050 C   0  0  0  0  0  0  0  0  0  0  0  0
   55.1450   26.7260   45.9910 O   0  0  0  0  0  0  0  0  0  0  0  0
   56.7010   28.3870   45.1850 C   0  0  0  0  0  0  0  0  0  0  0  0
   55.8785   28.9190   44.6845 H   0  0  0  0  0  0  0  0  0  0  0  0
   58.0080   28.8820   45.1020 C   0  0  0  0  0  0  0  0  0  0  0  0
   58.2095   29.8070   44.5418 H   0  0  0  0  0  0  0  0  0  0  0  0
   61.6220   30.9930   49.3780 C   0  0  0  0  0  0  0  0  0  0  0  0
   62.4000   30.3620   50.1430 O   0  0  0  0  0  0  0  0  0  0  0  0
   60.3480   31.4130   49.8820 N   0  0  0  0  0  0  0  0  0  0  0  0
   59.1300   30.6690   49.5320 C   0  0  0  0  0  0  0  0  0  0  0  0
   58.6203   31.1768   48.6999 H   0  0  0  0  0  0  0  0  0  0  0  0
   59.4064   29.6467   49.2346 H   0  0  0  0  0  0  0  0  0  0  0  0
   58.1880   30.6020   50.7370 C   0  0  0  0  0  0  0  0  0  0  0  0
   57.2626   30.0894   50.4353 H   0  0  0  0  0  0  0  0  0  0  0  0
   58.7045   30.0555   51.5398 H   0  0  0  0  0  0  0  0  0  0  0  0
   57.8280   32.0030   51.2730 C   0  0  0  0  0  0  0  0  0  0  0  0
   56.8841   32.3202   50.8056 H   0  0  0  0  0  0  0  0  0  0  0  0
   57.7503   31.9152   52.3667 H   0  0  0  0  0  0  0  0  0  0  0  0
   58.8970   33.0780   50.9860 C   0  0  0  0  0  0  0  0  0  0  0  0
   58.6500   33.5766   50.0371 H   0  0  0  0  0  0  0  0  0  0  0  0
   58.8934   33.7860   51.8279 H   0  0  0  0  0  0  0  0  0  0  0  0
   60.3080   32.4890   50.8790 C   0  0  0  0  0  0  0  0  0  0  0  0
   61.0088   33.2829   50.5814 H   0  0  0  0  0  0  0  0  0  0  0  0
   60.5928   32.0746   51.8574 H   0  0  0  0  0  0  0  0  0  0  0  0
   58.9640   33.5620   47.3820 C   0  0  0  0  0  0  0  0  0  0  0  0
   59.4307   33.5139   48.3769 H   0  0  0  0  0  0  0  0  0  0  0  0
   57.6130   33.2380   47.2300 C   0  0  0  0  0  0  0  0  0  0  0  0
   57.0174   32.9423   48.1063 H   0  0  0  0  0  0  0  0  0  0  0  0
  1  2  1  0
  2  3  2  0
  3  4  1  0
  3  5  1  0
  5  6  1  0
  5  7  2  0
  7  8  1  0
  8  9  1  0
  8 10  1  0
  8 11  1  0
 11 12  1  0
 11 13  1  0
 11 14  1  0
 14 15  1  0
 14 16  1  0
 14 17  1  0
 17 18  2  0
 18 19  1  0
 19 20  2  0
 19 21  1  0
 21 22  1  0
 21 23  1  0
 21 24  1  0
 24 25  2  0
 25 26  1  0
 25 27  1  0
 27 28  1  0
 27 29  2  0
 29 30  1  0
 29 31  1  0
 31 32  1  0
 31 33  2  0
 33 34  1  0
 17 35  1  0
 35 36  2  0
 35 37  1  0
 37 38  1  0
 38 39  1  0
 38 40  1  0
 38 41  1  0
 41 42  1  0
 41 43  1  0
 41 44  1  0
 44 45  1  0
 44 46  1  0
 44 47  1  0
 47 48  1  0
 47 49  1  0
 47 50  1  0
 50 51  1  0
 50 52  1  0
  7 53  1  0
 53 54  1  0
 53 55  2  0
 55 56  1  0
 55  2  1  0
 33 24  1  0
 50 37  1  0
M  CHG  1  30  -1
M  END
>  <UniqueID>  (26) 
25

>  <SMILES>  (26) 
O=C(Cc1ccc([O-])cc1)/N=C(/CCCc1ccccc1)C(=O)N1CCCCC1

>  <Energy>  (26) 
66.1325375357895

>  <Genealogy>  (26) 
O=C(Cc1ccc([O-])cc1)N=C(CCCc1ccccc1)C(=O)N1CCCCC1 (protonated)
O=C(Cc1ccc([O-])cc1)/N=C(/CCCc1ccccc1)C(=O)N1CCCCC1 (cis-trans isomerization)
O=C(Cc1ccc([O-])cc1)/N=C(/CCCc1ccccc1)C(=O)N1CCCCC1 (3D coordinates assigned)
O=C(Cc1ccc([O-])cc1)/N=C(/CCCc1ccccc1)C(=O)N1CCCCC1 (nonaromatic ring conformer: 66.1325375357895 kcal/mol)

>  <smiles>  (26) 
O=C(Cc1ccc(O)cc1)N=C(CCCc1ccccc1)C(=O)N1CCCCC1

>  <score_type>  (26) 
oracle

>  <origin>  (26) 
adg

>  <m_score__min__energy>  (26) 
-12.31

>  <m_primary>  (26) 
energy

$$$$
26:0
     RDKit          3D

 59 62  0  0  0  0  0  0  0  0999 V2000
   54.7760   26.3390   46.0070 O   0  0  0  0  0  0  0  0  0  0  0  0
   55.9470   25.9360   46.2320 C   0  0  0  0  0  0  0  0  0  0  0  0
   56.1450   24.8210   47.0370 O   0  0  0  0  0  0  0  0  0  0  0  0
   57.1240   26.6460   45.6370 C   0  0  0  0  0  0  0  0  0  0  0  0
   57.3240   28.0460   46.2420 C   0  0  0  0  0  0  0  0  0  0  0  0
   57.2900   29.1460   45.2180 C   0  0  0  0  0  0  0  0  0  0  0  0
   57.3900   28.9690   43.8540 C   0  0  0  0  0  0  0  0  0  0  0  0
   57.4340   30.1800   43.2750 N   0  0  0  0  0  0  0  0  0  0  0  0
   57.3590   31.0560   44.2990 C   0  0  0  0  0  0  0  0  0  0  0  0
   57.3620   32.3490   44.1650 N   0  0  0  0  0  0  0  0  0  0  0  0
   57.5570   33.3070   45.2150 C   0  0  0  0  0  0  0  0  0  0  0  0
   56.6570   34.1690   45.4010 O   0  0  0  0  0  0  0  0  0  0  0  0
   58.8180   33.3800   46.0080 C   0  0  0  0  0  0  0  0  0  0  0  0
   59.8900   34.1620   45.5440 C   0  0  0  0  0  0  0  0  0  0  0  0
   61.0950   34.2080   46.2480 C   0  0  0  0  0  0  0  0  0  0  0  0
   61.2430   33.5010   47.4400 C   0  0  0  0  0  0  0  0  0  0  0  0
   62.4320   33.5560   48.0950 F   0  0  0  0  0  0  0  0  0  0  0  0
   60.1760   32.7340   47.9460 C   0  0  0  0  0  0  0  0  0  0  0  0
   60.2710   32.0780   49.2780 C   0  0  0  0  0  0  0  0  0  0  0  0
   60.7770   30.7730   49.3690 C   0  0  0  0  0  0  0  0  0  0  0  0
   60.9480   30.1710   50.6090 C   0  0  0  0  0  0  0  0  0  0  0  0
   60.6420   30.8820   51.7660 C   0  0  0  0  0  0  0  0  0  0  0  0
   60.1620   32.1620   51.6940 N   0  0  0  0  0  0  0  0  0  0  0  0
   59.9510   32.9140   52.9450 C   0  0  0  0  0  0  0  0  0  0  0  0
   58.5340   32.6680   53.5180 C   0  0  0  0  0  0  0  0  0  0  0  0
   57.4470   33.0390   52.4660 C   0  0  0  0  0  0  0  0  0  0  0  0
   56.9770   31.8530   51.6180 C   0  0  0  0  0  0  0  0  0  0  0  0
   56.1820   30.6540   52.6700 S   0  0  0  0  0  0  0  0  0  0  0  0
   56.3640   29.2750   52.1020 O   0  0  0  0  0  0  0  0  0  0  0  0
   54.7160   30.9630   52.7910 O   0  0  0  0  0  0  0  0  0  0  0  0
   56.9600   30.7680   54.2700 C   0  0  0  0  0  0  0  0  0  0  0  0
   58.4070   31.2260   54.0900 C   0  0  0  0  0  0  0  0  0  0  0  0
   59.9420   32.7570   50.4740 C   0  0  0  0  0  0  0  0  0  0  0  0
   59.4410   33.9160   50.4180 O   0  0  0  0  0  0  0  0  0  0  0  0
   58.9820   32.6560   47.2050 C   0  0  0  0  0  0  0  0  0  0  0  0
   57.2930   30.4640   45.5080 N   0  0  0  0  0  0  0  0  0  0  0  0
   58.0287   26.0479   45.8210 H   0  0  0  0  0  0  0  0  0  0  0  0
   56.9366   26.7670   44.5599 H   0  0  0  0  0  0  0  0  0  0  0  0
   56.5246   28.2269   46.9756 H   0  0  0  0  0  0  0  0  0  0  0  0
   58.3219   28.0618   46.7045 H   0  0  0  0  0  0  0  0  0  0  0  0
   57.4273   28.0023   43.3304 H   0  0  0  0  0  0  0  0  0  0  0  0
   57.5280   30.3770   42.2540 H   0  0  0  0  0  0  0  0  0  0  0  0
   59.7785   34.7435   44.6170 H   0  0  0  0  0  0  0  0  0  0  0  0
   61.9326   34.8059   45.8595 H   0  0  0  0  0  0  0  0  0  0  0  0
   61.0399   30.2232   48.4532 H   0  0  0  0  0  0  0  0  0  0  0  0
   61.3228   29.1390   50.6763 H   0  0  0  0  0  0  0  0  0  0  0  0
   60.7875   30.4101   52.7489 H   0  0  0  0  0  0  0  0  0  0  0  0
   60.6978   32.5930   53.6862 H   0  0  0  0  0  0  0  0  0  0  0  0
   60.0553   33.9870   52.7265 H   0  0  0  0  0  0  0  0  0  0  0  0
   58.3625   33.3366   54.3745 H   0  0  0  0  0  0  0  0  0  0  0  0
   56.5768   33.4519   52.9973 H   0  0  0  0  0  0  0  0  0  0  0  0
   57.9028   33.7650   51.7767 H   0  0  0  0  0  0  0  0  0  0  0  0
   56.2640   32.2047   50.8577 H   0  0  0  0  0  0  0  0  0  0  0  0
   57.8421   31.3902   51.1206 H   0  0  0  0  0  0  0  0  0  0  0  0
   56.4180   31.4953   54.8923 H   0  0  0  0  0  0  0  0  0  0  0  0
   56.9407   29.7847   54.7628 H   0  0  0  0  0  0  0  0  0  0  0  0
   58.9068   31.1944   55.0694 H   0  0  0  0  0  0  0  0  0  0  0  0
   58.8738   30.5463   53.3619 H   0  0  0  0  0  0  0  0  0  0  0  0
   58.1622   32.0182   47.5672 H   0  0  0  0  0  0  0  0  0  0  0  0
  1  2  2  0
  2  3  1  0
  2  4  1  0
  4  5  1  0
  5  6  1  0
  6  7  2  0
  7  8  1  0
  8  9  1  0
  9 10  2  3
 10 11  1  0
 11 12  2  0
 11 13  1  0
 13 14  2  0
 14 15  1  0
 15 16  2  0
 16 17  1  0
 16 18  1  0
 18 19  1  0
 19 20  2  0
 20 21  1  0
 21 22  2  0
 22 23  1  0
 23 24  1  0
 24 25  1  0
 25 26  1  0
 26 27  1  0
 27 28  1  0
 28 29  2  0
 28 30  2  0
 28 31  1  0
 31 32  1  0
 23 33  1  0
 33 34  2  0
 18 35  2  0
  9 36  1  0
 36  6  1  0
 35 13  1  0
 33 19  1  0
 32 25  1  0
  4 37  1  0
  4 38  1  0
  5 39  1  0
  5 40  1  0
  7 41  1  0
  8 42  1  0
 14 43  1  0
 15 44  1  0
 20 45  1  0
 21 46  1  0
 22 47  1  0
 24 48  1  0
 24 49  1  0
 25 50  1  0
 26 51  1  0
 26 52  1  0
 27 53  1  0
 27 54  1  0
 31 55  1  0
 31 56  1  0
 32 57  1  0
 32 58  1  0
 35 59  1  0
M  CHG  2   3  -1  36  -1
M  END
>  <UniqueID>  (27) 
26

>  <SMILES>  (27) 
O=C([O-])CCc1c[nH]c(=NC(=O)c2ccc(F)c(-c3cccn(CC4CCS(=O)(=O)CC4)c3=O)c2)[n-]1

>  <Energy>  (27) 
100.5261785344195

>  <Genealogy>  (27) 
O=C([O-])CCc1c[nH]c(=NC(=O)c2ccc(F)c(-c3cccn(CC4CCS(=O)(=O)CC4)c3=O)c2)[n-]1 (protonated)
O=C([O-])CCc1c[nH]c(=NC(=O)c2ccc(F)c(-c3cccn(CC4CCS(=O)(=O)CC4)c3=O)c2)[n-]1 (3D coordinates assigned)
O=C([O-])CCc1c[nH]c(=NC(=O)c2ccc(F)c(-c3cccn(CC4CCS(=O)(=O)CC4)c3=O)c2)[n-]1 (nonaromatic ring conformer: 100.5261785344195 kcal/mol)

>  <smiles>  (27) 
O=C(O)CCc1c[nH]c(=NC(=O)c2ccc(F)c(-c3cccn(CC4CCS(=O)(=O)CC4)c3=O)c2)[nH]1

>  <score_type>  (27) 
oracle

>  <origin>  (27) 
adg

>  <m_score__min__energy>  (27) 
-16.100000000000001

>  <m_primary>  (27) 
energy

$$$$
27:0
     RDKit          3D

 55 57  0  0  0  0  0  0  0  0999 V2000
   59.4710   35.3160   46.1210 C   0  0  0  0  0  0  0  0  0  0  0  0
   59.7620   34.2520   45.2210 O   0  0  0  0  0  0  0  0  0  0  0  0
   58.8880   33.1920   44.9260 C   0  0  0  0  0  0  0  0  0  0  0  0
   58.2740   33.0730   43.6620 C   0  0  0  0  0  0  0  0  0  0  0  0
   57.4450   31.9870   43.3760 C   0  0  0  0  0  0  0  0  0  0  0  0
   57.2110   31.0050   44.3420 C   0  0  0  0  0  0  0  0  0  0  0  0
   56.1770   29.6260   43.9680 S   0  0  0  0  0  0  0  0  0  0  0  0
   56.6700   28.9670   42.7110 O   0  0  0  0  0  0  0  0  0  0  0  0
   54.7670   30.0920   43.7370 O   0  0  0  0  0  0  0  0  0  0  0  0
   56.2110   28.4680   45.2640 N   0  0  0  0  0  0  0  0  0  0  0  0
   57.3450   27.5640   45.0960 C   0  0  0  0  0  0  0  0  0  0  0  0
   58.5420   28.1390   45.7960 C   0  0  0  0  0  0  0  0  0  0  0  0
   58.5460   28.2750   47.1940 C   0  0  0  0  0  0  0  0  0  0  0  0
   59.6460   28.8480   47.8420 C   0  0  0  0  0  0  0  0  0  0  0  0
   60.7410   29.2980   47.0990 C   0  0  0  0  0  0  0  0  0  0  0  0
   60.7380   29.1790   45.7070 C   0  0  0  0  0  0  0  0  0  0  0  0
   59.6400   28.6080   45.0550 C   0  0  0  0  0  0  0  0  0  0  0  0
   57.8140   31.1140   45.6000 C   0  0  0  0  0  0  0  0  0  0  0  0
   58.6390   32.2100   45.9070 C   0  0  0  0  0  0  0  0  0  0  0  0
   59.2560   32.2900   47.2500 C   0  0  0  0  0  0  0  0  0  0  0  0
   58.5820   31.9510   48.2620 O   0  0  0  0  0  0  0  0  0  0  0  0
   60.5970   32.7780   47.4160 N   0  0  0  0  0  0  0  0  0  0  0  0
   61.3040   32.6920   48.6930 C   0  0  0  0  0  0  0  0  0  0  0  0
   62.7900   32.8660   48.5040 C   0  0  0  0  0  0  0  0  0  0  0  0
   63.2090   33.3800   47.4300 O   0  0  0  0  0  0  0  0  0  0  0  0
   63.7370   32.4170   49.4970 N   0  0  0  0  0  0  0  0  0  0  0  0
   63.3000   31.5900   50.6310 C   0  0  0  0  0  0  0  0  0  0  0  0
   64.4770   30.7970   51.2060 C   0  0  0  0  0  0  0  0  0  0  0  0
   65.5750   31.6480   51.4700 O   0  0  0  0  0  0  0  0  0  0  0  0
   66.0720   32.1650   50.2520 C   0  0  0  0  0  0  0  0  0  0  0  0
   65.0420   33.0860   49.5910 C   0  0  0  0  0  0  0  0  0  0  0  0
   59.5690   34.9576   47.1564 H   0  0  0  0  0  0  0  0  0  0  0  0
   60.1759   36.1432   45.9510 H   0  0  0  0  0  0  0  0  0  0  0  0
   58.4432   35.6693   45.9510 H   0  0  0  0  0  0  0  0  0  0  0  0
   58.4498   33.8421   42.8954 H   0  0  0  0  0  0  0  0  0  0  0  0
   56.9738   31.9039   42.3855 H   0  0  0  0  0  0  0  0  0  0  0  0
   57.1010   26.5830   45.5298 H   0  0  0  0  0  0  0  0  0  0  0  0
   57.5657   27.4428   44.0252 H   0  0  0  0  0  0  0  0  0  0  0  0
   57.6821   27.9301   47.7811 H   0  0  0  0  0  0  0  0  0  0  0  0
   59.6489   28.9444   48.9378 H   0  0  0  0  0  0  0  0  0  0  0  0
   61.6056   29.7461   47.6105 H   0  0  0  0  0  0  0  0  0  0  0  0
   61.5998   29.5346   45.1232 H   0  0  0  0  0  0  0  0  0  0  0  0
   59.6361   28.5258   43.9581 H   0  0  0  0  0  0  0  0  0  0  0  0
   57.6407   30.3342   46.3563 H   0  0  0  0  0  0  0  0  0  0  0  0
   61.0860   33.2260   46.6080 H   0  0  0  0  0  0  0  0  0  0  0  0
   60.9323   33.4811   49.3632 H   0  0  0  0  0  0  0  0  0  0  0  0
   61.1212   31.6980   49.1272 H   0  0  0  0  0  0  0  0  0  0  0  0
   62.8858   32.2413   51.4148 H   0  0  0  0  0  0  0  0  0  0  0  0
   62.5344   30.8828   50.2794 H   0  0  0  0  0  0  0  0  0  0  0  0
   64.1626   30.3130   52.1424 H   0  0  0  0  0  0  0  0  0  0  0  0
   64.7862   30.0410   50.4692 H   0  0  0  0  0  0  0  0  0  0  0  0
   66.9910   32.7359   50.4509 H   0  0  0  0  0  0  0  0  0  0  0  0
   66.2818   31.3258   49.5725 H   0  0  0  0  0  0  0  0  0  0  0  0
   64.9368   34.0013   50.1919 H   0  0  0  0  0  0  0  0  0  0  0  0
   65.3874   33.3351   48.5768 H   0  0  0  0  0  0  0  0  0  0  0  0
  1  2  1  0
  2  3  1  0
  3  4  2  0
  4  5  1  0
  5  6  2  0
  6  7  1  0
  7  8  2  0
  7  9  2  0
  7 10  1  0
 10 11  1  0
 11 12  1  0
 12 13  2  0
 13 14  1  0
 14 15  2  0
 15 16  1  0
 16 17  2  0
  6 18  1  0
 18 19  2  0
 19 20  1  0
 20 21  2  0
 20 22  1  0
 22 23  1  0
 23 24  1  0
 24 25  2  0
 24 26  1  0
 26 27  1  0
 27 28  1  0
 28 29  1  0
 29 30  1  0
 30 31  1  0
 19  3  1  0
 31 26  1  0
 17 12  1  0
  1 32  1  0
  1 33  1  0
  1 34  1  0
  4 35  1  0
  5 36  1  0
 11 37  1  0
 11 38  1  0
 13 39  1  0
 14 40  1  0
 15 41  1  0
 16 42  1  0
 17 43  1  0
 18 44  1  0
 22 45  1  0
 23 46  1  0
 23 47  1  0
 27 48  1  0
 27 49  1  0
 28 50  1  0
 28 51  1  0
 30 52  1  0
 30 53  1  0
 31 54  1  0
 31 55  1  0
M  CHG  1  10  -1
M  END
>  <UniqueID>  (28) 
27

>  <SMILES>  (28) 
COc1ccc(S(=O)(=O)[N-]Cc2ccccc2)cc1C(=O)NCC(=O)N1CCOCC1

>  <Energy>  (28) 
57.854428825373674

>  <Genealogy>  (28) 
COc1ccc(S(=O)(=O)[N-]Cc2ccccc2)cc1C(=O)NCC(=O)N1CCOCC1 (protonated)
COc1ccc(S(=O)(=O)[N-]Cc2ccccc2)cc1C(=O)NCC(=O)N1CCOCC1 (3D coordinates assigned)
COc1ccc(S(=O)(=O)[N-]Cc2ccccc2)cc1C(=O)NCC(=O)N1CCOCC1 (nonaromatic ring conformer: 57.854428825373674 kcal/mol)

>  <smiles>  (28) 
COc1ccc(S(=O)(=O)NCc2ccccc2)cc1C(=O)NCC(=O)N1CCOCC1

>  <score_type>  (28) 
oracle

>  <origin>  (28) 
adg

>  <m_score__min__energy>  (28) 
-11.35

>  <m_primary>  (28) 
energy

$$$$
28:0
     RDKit          3D

 34 36  0  0  0  0  0  0  0  0999 V2000
   53.6990   26.5960   46.3230 H   0  0  0  0  0  0  0  0  0  0  0  0
   54.3050   25.9800   45.7340 N   0  0  0  0  0  0  0  0  0  0  0  0
   55.5220   25.7090   46.0720 C   0  0  0  0  0  0  0  0  0  0  0  0
   56.5210   26.5670   45.7400 N   0  0  0  0  0  0  0  0  0  0  0  0
   57.8130   26.3100   46.0790 C   0  0  0  0  0  0  0  0  0  0  0  0
   58.8930   27.2590   45.6550 C   0  0  0  0  0  0  0  0  0  0  0  0
   58.8349   28.1666   46.2737 H   0  0  0  0  0  0  0  0  0  0  0  0
   59.8639   26.7587   45.7855 H   0  0  0  0  0  0  0  0  0  0  0  0
   58.7190   27.7260   43.8970 S   0  0  0  0  0  0  0  0  0  0  0  0
   57.7800   29.2180   44.2230 C   0  0  0  0  0  0  0  0  0  0  0  0
   58.4360   30.6880   44.7040 S   0  0  0  0  0  0  0  0  0  0  0  0
   56.9120   31.4130   44.8260 C   0  0  0  0  0  0  0  0  0  0  0  0
   56.6770   32.6450   45.1730 N   0  0  0  0  0  0  0  0  0  0  0  0
   57.6670   33.6430   45.4620 C   0  0  0  0  0  0  0  0  0  0  0  0
   57.8440   34.5730   44.6320 O   0  0  0  0  0  0  0  0  0  0  0  0
   58.4450   33.6420   46.7240 C   0  0  0  0  0  0  0  0  0  0  0  0
   58.1810   32.6620   47.6970 C   0  0  0  0  0  0  0  0  0  0  0  0
   57.4102   31.9000   47.5094 H   0  0  0  0  0  0  0  0  0  0  0  0
   58.8910   32.6490   48.9010 C   0  0  0  0  0  0  0  0  0  0  0  0
   58.6711   31.8836   49.6598 H   0  0  0  0  0  0  0  0  0  0  0  0
   59.8780   33.6050   49.1420 C   0  0  0  0  0  0  0  0  0  0  0  0
   60.4299   33.5973   50.0935 H   0  0  0  0  0  0  0  0  0  0  0  0
   60.1660   34.5720   48.1760 C   0  0  0  0  0  0  0  0  0  0  0  0
   60.9483   35.3214   48.3670 H   0  0  0  0  0  0  0  0  0  0  0  0
   59.4630   34.5910   46.9660 C   0  0  0  0  0  0  0  0  0  0  0  0
   59.7960   35.5430   46.0080 O   0  0  0  0  0  0  0  0  0  0  0  0
   55.9180   30.5630   44.4880 N   0  0  0  0  0  0  0  0  0  0  0  0
   56.3990   29.3360   44.1560 C   0  0  0  0  0  0  0  0  0  0  0  0
   55.7456   28.5028   43.8579 H   0  0  0  0  0  0  0  0  0  0  0  0
   58.1230   25.1360   46.7760 C   0  0  0  0  0  0  0  0  0  0  0  0
   59.1614   24.9055   47.0562 H   0  0  0  0  0  0  0  0  0  0  0  0
   57.0840   24.2650   47.1070 C   0  0  0  0  0  0  0  0  0  0  0  0
   57.3260   23.2010   47.7350 O   0  0  0  0  0  0  0  0  0  0  0  0
   55.8090   24.5660   46.7510 N   0  0  0  0  0  0  0  0  0  0  0  0
  1  2  1  0
  2  3  2  3
  3  4  1  0
  4  5  1  0
  5  6  1  0
  6  7  1  0
  6  8  1  0
  6  9  1  0
  9 10  1  0
 10 11  1  0
 11 12  1  0
 12 13  2  0
 13 14  1  0
 14 15  2  0
 14 16  1  0
 16 17  2  0
 17 18  1  0
 17 19  1  0
 19 20  1  0
 19 21  2  0
 21 22  1  0
 21 23  1  0
 23 24  1  0
 23 25  2  0
 25 26  1  0
 12 27  1  0
 27 28  1  0
 28 29  1  0
  5 30  2  0
 30 31  1  0
 30 32  1  0
 32 33  2  0
 32 34  1  0
 34  3  1  0
 28 10  2  0
 25 16  1  0
M  CHG  4   4  -1  26  -1  27  -1  34  -1
M  END
>  <UniqueID>  (29) 
28

>  <SMILES>  (29) 
N=c1[n-]c(CSc2c[n-]/c(=N/C(=O)c3ccccc3[O-])s2)cc(=O)[n-]1

>  <Energy>  (29) 
72.74786602543077

>  <Genealogy>  (29) 
N=c1[n-]c(CSc2c[n-]c(=NC(=O)c3ccccc3[O-])s2)cc(=O)[n-]1 (protonated)
N=c1[n-]c(CSc2c[n-]/c(=N/C(=O)c3ccccc3[O-])s2)cc(=O)[n-]1 (cis-trans isomerization)
N=c1[n-]c(CSc2c[n-]/c(=N/C(=O)c3ccccc3[O-])s2)cc(=O)[n-]1 (3D coordinates assigned)
N=c1[n-]c(CSc2c[n-]/c(=N/C(=O)c3ccccc3[O-])s2)cc(=O)[n-]1 (optimized conformer: 72.74786602543077 kcal/mol)

>  <smiles>  (29) 
N=c1[nH]c(CSc2c[nH]c(=NC(=O)c3ccccc3O)s2)cc(=O)[nH]1

>  <score_type>  (29) 
oracle

>  <origin>  (29) 
adg

>  <m_score__min__energy>  (29) 
-15.619999999999999

>  <m_primary>  (29) 
energy

$$$$
29:0
     RDKit          3D

 60 64  0  0  0  0  0  0  0  0999 V2000
   64.0830   31.3020   53.3040 N   0  0  0  0  0  0  0  0  0  0  0  0
   64.3960   30.4980   52.3330 C   0  0  0  0  0  0  0  0  0  0  0  0
   63.4330   30.1900   51.3130 N   0  0  0  0  0  0  0  0  0  0  0  0
   62.5910   31.1680   50.6710 C   0  0  0  0  0  0  0  0  0  0  0  0
   63.0240   31.8880   49.5410 C   0  0  0  0  0  0  0  0  0  0  0  0
   62.1880   32.8340   48.9430 C   0  0  0  0  0  0  0  0  0  0  0  0
   60.8930   33.0550   49.4380 C   0  0  0  0  0  0  0  0  0  0  0  0
   60.0020   34.0840   48.7930 C   0  0  0  0  0  0  0  0  0  0  0  0
   59.3490   33.5290   47.5560 C   0  0  0  0  0  0  0  0  0  0  0  0
   59.3570   32.1490   47.3100 C   0  0  0  0  0  0  0  0  0  0  0  0
   58.7640   31.6340   46.1520 C   0  0  0  0  0  0  0  0  0  0  0  0
   58.1600   32.4940   45.2190 C   0  0  0  0  0  0  0  0  0  0  0  0
   57.5540   31.9710   44.0230 N   0  0  0  0  0  0  0  0  0  0  0  0
   57.7660   32.4830   42.6720 C   0  0  0  0  0  0  0  0  0  0  0  0
   57.0330   31.4980   41.7270 C   0  0  0  0  0  0  0  0  0  0  0  0
   56.3780   30.5280   42.5940 N   0  0  0  0  0  0  0  0  0  0  0  0
   56.7110   30.8400   43.9240 C   0  0  0  0  0  0  0  0  0  0  0  0
   56.2510   30.2130   44.9140 O   0  0  0  0  0  0  0  0  0  0  0  0
   58.1760   33.8770   45.4550 C   0  0  0  0  0  0  0  0  0  0  0  0
   58.7610   34.3910   46.6150 C   0  0  0  0  0  0  0  0  0  0  0  0
   60.4450   32.3090   50.5400 C   0  0  0  0  0  0  0  0  0  0  0  0
   61.2870   31.3760   51.1530 C   0  0  0  0  0  0  0  0  0  0  0  0
   65.6750   29.8370   52.3250 N   0  0  0  0  0  0  0  0  0  0  0  0
   65.9280   28.4910   51.9700 C   0  0  0  0  0  0  0  0  0  0  0  0
   65.0400   27.6780   51.5980 O   0  0  0  0  0  0  0  0  0  0  0  0
   67.2460   28.1400   52.1450 O   0  0  0  0  0  0  0  0  0  0  0  0
   67.9740   29.2490   52.6590 C   0  0  0  0  0  0  0  0  0  0  0  0
   66.9350   30.3970   52.8110 C   0  0  1  0  0  0  0  0  0  0  0  0
   67.3330   31.6190   52.0100 C   0  0  0  0  0  0  0  0  0  0  0  0
   66.6540   31.9540   50.8210 C   0  0  0  0  0  0  0  0  0  0  0  0
   67.0520   33.0620   50.0680 C   0  0  0  0  0  0  0  0  0  0  0  0
   68.1330   33.8410   50.4880 C   0  0  0  0  0  0  0  0  0  0  0  0
   68.8220   33.5100   51.6590 C   0  0  0  0  0  0  0  0  0  0  0  0
   68.4280   32.4020   52.4160 C   0  0  0  0  0  0  0  0  0  0  0  0
   64.4350   32.2830   53.3300 H   0  0  0  0  0  0  0  0  0  0  0  0
   63.5170   30.9730   54.1170 H   0  0  0  0  0  0  0  0  0  0  0  0
   63.3900   29.2050   50.9610 H   0  0  0  0  0  0  0  0  0  0  0  0
   64.0264   31.7045   49.1268 H   0  0  0  0  0  0  0  0  0  0  0  0
   62.5472   33.4102   48.0776 H   0  0  0  0  0  0  0  0  0  0  0  0
   59.2220   34.3842   49.5082 H   0  0  0  0  0  0  0  0  0  0  0  0
   60.6157   34.9511   48.5076 H   0  0  0  0  0  0  0  0  0  0  0  0
   59.8319   31.4674   48.0311 H   0  0  0  0  0  0  0  0  0  0  0  0
   58.7706   30.5491   45.9708 H   0  0  0  0  0  0  0  0  0  0  0  0
   57.3428   33.4937   42.5747 H   0  0  0  0  0  0  0  0  0  0  0  0
   58.8366   32.5551   42.4299 H   0  0  0  0  0  0  0  0  0  0  0  0
   56.2882   32.0329   41.1195 H   0  0  0  0  0  0  0  0  0  0  0  0
   57.7309   31.0111   41.0300 H   0  0  0  0  0  0  0  0  0  0  0  0
   55.7760   29.7320   42.2810 H   0  0  0  0  0  0  0  0  0  0  0  0
   57.7248   34.5614   44.7215 H   0  0  0  0  0  0  0  0  0  0  0  0
   58.7613   35.4766   46.7926 H   0  0  0  0  0  0  0  0  0  0  0  0
   59.4251   32.4595   50.9235 H   0  0  0  0  0  0  0  0  0  0  0  0
   60.9264   30.8008   52.0185 H   0  0  0  0  0  0  0  0  0  0  0  0
   68.4159   28.9993   53.6349 H   0  0  0  0  0  0  0  0  0  0  0  0
   68.8027   29.5352   51.9946 H   0  0  0  0  0  0  0  0  0  0  0  0
   66.8602   30.7385   53.8540 H   0  0  0  0  0  0  0  0  0  0  0  0
   65.8060   31.3398   50.4839 H   0  0  0  0  0  0  0  0  0  0  0  0
   66.5139   33.3209   49.1442 H   0  0  0  0  0  0  0  0  0  0  0  0
   68.4425   34.7156   49.8970 H   0  0  0  0  0  0  0  0  0  0  0  0
   69.6756   34.1223   51.9854 H   0  0  0  0  0  0  0  0  0  0  0  0
   68.9771   32.1420   53.3330 H   0  0  0  0  0  0  0  0  0  0  0  0
  1  2  2  0
  2  3  1  0
  3  4  1  0
  4  5  2  0
  5  6  1  0
  6  7  2  0
  7  8  1  0
  8  9  1  0
  9 10  2  0
 10 11  1  0
 11 12  2  0
 12 13  1  0
 13 14  1  0
 14 15  1  0
 15 16  1  0
 16 17  1  0
 17 18  2  0
 12 19  1  0
 19 20  2  0
  7 21  1  0
 21 22  2  0
  2 23  1  0
 23 24  1  0
 24 25  2  0
 24 26  1  0
 26 27  1  0
 27 28  1  0
 28 29  1  0
 29 30  2  0
 30 31  1  0
 31 32  2  0
 32 33  1  0
 33 34  2  0
 22  4  1  0
 28 23  1  0
 34 29  1  0
 20  9  1  0
 17 13  1  0
  1 35  1  0
  1 36  1  0
  3 37  1  0
  5 38  1  0
  6 39  1  0
  8 40  1  0
  8 41  1  0
 10 42  1  0
 11 43  1  0
 14 44  1  0
 14 45  1  0
 15 46  1  0
 15 47  1  0
 16 48  1  0
 19 49  1  0
 20 50  1  0
 21 51  1  0
 22 52  1  0
 27 53  1  0
 27 54  1  0
 28 55  1  1
 30 56  1  0
 31 57  1  0
 32 58  1  0
 33 59  1  0
 34 60  1  0
M  CHG  1   1   1
M  END
>  <UniqueID>  (30) 
29

>  <SMILES>  (30) 
[NH2+]=C(Nc1ccc(Cc2ccc(N3CCNC3=O)cc2)cc1)N1C(=O)OC[C@H]1c1ccccc1

>  <Energy>  (30) 
102.99390221918814

>  <Genealogy>  (30) 
[NH2+]=C(Nc1ccc(Cc2ccc(N3CCNC3=O)cc2)cc1)N1C(=O)OCC1c1ccccc1 (protonated)
[NH2+]=C(Nc1ccc(Cc2ccc(N3CCNC3=O)cc2)cc1)N1C(=O)OC[C@H]1c1ccccc1 (chirality)
[NH2+]=C(Nc1ccc(Cc2ccc(N3CCNC3=O)cc2)cc1)N1C(=O)OC[C@H]1c1ccccc1 (3D coordinates assigned)
[NH2+]=C(Nc1ccc(Cc2ccc(N3CCNC3=O)cc2)cc1)N1C(=O)OC[C@H]1c1ccccc1 (nonaromatic ring conformer: 102.99390221918814 kcal/mol)

>  <smiles>  (30) 
N=C(Nc1ccc(Cc2ccc(N3CCNC3=O)cc2)cc1)N1C(=O)OCC1c1ccccc1

>  <score_type>  (30) 
oracle

>  <origin>  (30) 
adg

>  <m_score__min__energy>  (30) 
-7.1100000000000003

>  <m_primary>  (30) 
energy

$$$$
30:0
     RDKit          3D

 76 77  0  0  0  0  0  0  0  0999 V2000
   57.4240   33.3690   46.9220 C   0  0  0  0  0  0  0  0  0  0  0  0
   58.9550   33.3580   47.1630 C   0  0  0  0  0  0  0  0  0  0  0  0
   59.6830   33.5430   45.8120 C   0  0  0  0  0  0  0  0  0  0  0  0
   59.3040   34.5670   48.0630 C   0  0  0  0  0  0  0  0  0  0  0  0
   59.4420   32.0410   47.8650 C   0  0  1  0  0  0  0  0  0  0  0  0
   58.5530   31.6860   48.9700 N   0  0  0  0  0  0  0  0  0  0  0  0
   58.8960   30.8250   50.0630 C   0  0  0  0  0  0  0  0  0  0  0  0
   59.6050   29.8030   49.8700 O   0  0  0  0  0  0  0  0  0  0  0  0
   58.4440   31.1670   51.4560 C   0  0  2  0  0  0  0  0  0  0  0  0
   57.0140   31.7370   51.4770 C   0  0  0  0  0  0  0  0  0  0  0  0
   56.0050   30.7470   52.0110 C   0  0  0  0  0  0  0  0  0  0  0  0
   56.4190   29.6850   52.8310 C   0  0  0  0  0  0  0  0  0  0  0  0
   55.4840   28.7600   53.3030 C   0  0  0  0  0  0  0  0  0  0  0  0
   54.1370   28.8810   52.9500 C   0  0  0  0  0  0  0  0  0  0  0  0
   53.7210   29.9270   52.1240 C   0  0  0  0  0  0  0  0  0  0  0  0
   54.6490   30.8600   51.6580 C   0  0  0  0  0  0  0  0  0  0  0  0
   59.3760   32.1210   52.0550 N   0  0  0  0  0  0  0  0  0  0  0  0
   59.6110   33.4430   51.5730 C   0  0  0  0  0  0  0  0  0  0  0  0
   58.7300   34.3380   51.7020 O   0  0  0  0  0  0  0  0  0  0  0  0
   60.8430   33.7340   50.9850 O   0  0  0  0  0  0  0  0  0  0  0  0
   61.8950   32.7780   50.8680 C   0  0  0  0  0  0  0  0  0  0  0  0
   62.4850   32.8420   49.4840 C   0  0  0  0  0  0  0  0  0  0  0  0
   62.6410   31.6790   48.7130 C   0  0  0  0  0  0  0  0  0  0  0  0
   63.1430   31.7640   47.4100 C   0  0  0  0  0  0  0  0  0  0  0  0
   63.4970   33.0040   46.8730 C   0  0  0  0  0  0  0  0  0  0  0  0
   63.3390   34.1670   47.6320 C   0  0  0  0  0  0  0  0  0  0  0  0
   62.8340   34.0860   48.9330 C   0  0  0  0  0  0  0  0  0  0  0  0
   59.5570   30.8350   46.9670 C   0  0  0  0  0  0  0  0  0  0  0  0
   60.6350   30.5730   46.3690 O   0  0  0  0  0  0  0  0  0  0  0  0
   58.3870   30.0410   46.7280 N   0  0  0  0  0  0  0  0  0  0  0  0
   58.3520   28.8570   46.1800 C   0  0  0  0  0  0  0  0  0  0  0  0
   58.0710   27.5970   46.9730 C   0  0  0  0  0  0  0  0  0  0  0  0
   57.6780   26.4400   46.0540 C   0  0  0  0  0  0  0  0  0  0  0  0
   56.3510   25.8830   46.4690 C   0  0  0  0  0  0  0  0  0  0  0  0
   55.1490   26.4800   45.9930 N   0  0  0  0  0  0  0  0  0  0  0  0
   56.2970   24.8490   47.1890 O   0  0  0  0  0  0  0  0  0  0  0  0
   58.7110   28.7320   44.7200 C   0  0  0  0  0  0  0  0  0  0  0  0
   57.4580   28.8320   43.8390 C   0  0  0  0  0  0  0  0  0  0  0  0
   56.4610   29.7730   44.4380 C   0  0  0  0  0  0  0  0  0  0  0  0
   55.1930   29.2820   44.8780 N   0  0  0  0  0  0  0  0  0  0  0  0
   56.7380   30.9940   44.5640 O   0  0  0  0  0  0  0  0  0  0  0  0
   56.9006   33.3728   47.8895 H   0  0  0  0  0  0  0  0  0  0  0  0
   57.1489   34.2691   46.3527 H   0  0  0  0  0  0  0  0  0  0  0  0
   57.1360   32.4729   46.3527 H   0  0  0  0  0  0  0  0  0  0  0  0
   60.7342   33.8101   45.9955 H   0  0  0  0  0  0  0  0  0  0  0  0
   59.6376   32.6048   45.2396 H   0  0  0  0  0  0  0  0  0  0  0  0
   59.1952   34.3457   45.2396 H   0  0  0  0  0  0  0  0  0  0  0  0
   59.2194   34.2739   49.1198 H   0  0  0  0  0  0  0  0  0  0  0  0
   60.3333   34.8943   47.8545 H   0  0  0  0  0  0  0  0  0  0  0  0
   58.6075   35.3925   47.8545 H   0  0  0  0  0  0  0  0  0  0  0  0
   60.4570   32.2865   48.2108 H   0  0  0  0  0  0  0  0  0  0  0  0
   58.4333   30.2373   52.0439 H   0  0  0  0  0  0  0  0  0  0  0  0
   57.0007   32.6332   52.1147 H   0  0  0  0  0  0  0  0  0  0  0  0
   56.7333   31.9745   50.4403 H   0  0  0  0  0  0  0  0  0  0  0  0
   57.4800   29.5811   53.1020 H   0  0  0  0  0  0  0  0  0  0  0  0
   55.8088   27.9348   53.9538 H   0  0  0  0  0  0  0  0  0  0  0  0
   53.4036   28.1511   53.3235 H   0  0  0  0  0  0  0  0  0  0  0  0
   52.6619   30.0159   51.8404 H   0  0  0  0  0  0  0  0  0  0  0  0
   54.3179   31.6866   51.0122 H   0  0  0  0  0  0  0  0  0  0  0  0
   62.6763   33.0010   51.6096 H   0  0  0  0  0  0  0  0  0  0  0  0
   61.4936   31.7697   51.0474 H   0  0  0  0  0  0  0  0  0  0  0  0
   62.3682   30.7000   49.1339 H   0  0  0  0  0  0  0  0  0  0  0  0
   63.2593   30.8517   46.8065 H   0  0  0  0  0  0  0  0  0  0  0  0
   63.9006   33.0653   45.8516 H   0  0  0  0  0  0  0  0  0  0  0  0
   63.6115   35.1441   47.2064 H   0  0  0  0  0  0  0  0  0  0  0  0
   62.7092   35.0021   49.5289 H   0  0  0  0  0  0  0  0  0  0  0  0
   58.9746   27.3178   47.5347 H   0  0  0  0  0  0  0  0  0  0  0  0
   57.2340   27.7967   47.6582 H   0  0  0  0  0  0  0  0  0  0  0  0
   57.6122   26.8040   45.0181 H   0  0  0  0  0  0  0  0  0  0  0  0
   58.4391   25.6490   46.1243 H   0  0  0  0  0  0  0  0  0  0  0  0
   55.1490   27.0910   45.1450 H   0  0  0  0  0  0  0  0  0  0  0  0
   59.4071   29.5396   44.4496 H   0  0  0  0  0  0  0  0  0  0  0  0
   59.1798   27.7506   44.5554 H   0  0  0  0  0  0  0  0  0  0  0  0
   57.7461   29.1982   42.8425 H   0  0  0  0  0  0  0  0  0  0  0  0
   57.0001   27.8348   43.7629 H   0  0  0  0  0  0  0  0  0  0  0  0
   55.1330   28.5970   45.6630 H   0  0  0  0  0  0  0  0  0  0  0  0
  1  2  1  0
  2  3  1  0
  2  4  1  0
  2  5  1  0
  5  6  1  0
  6  7  1  0
  7  8  2  0
  7  9  1  0
  9 10  1  0
 10 11  1  0
 11 12  2  0
 12 13  1  0
 13 14  2  0
 14 15  1  0
 15 16  2  0
  9 17  1  0
 17 18  1  0
 18 19  2  0
 18 20  1  0
 20 21  1  0
 21 22  1  0
 22 23  2  0
 23 24  1  0
 24 25  2  0
 25 26  1  0
 26 27  2  0
  5 28  1  0
 28 29  2  0
 28 30  1  0
 30 31  2  3
 31 32  1  0
 32 33  1  0
 33 34  1  0
 34 35  1  0
 34 36  2  0
 31 37  1  0
 37 38  1  0
 38 39  1  0
 39 40  1  0
 39 41  2  0
 16 11  1  0
 27 22  1  0
  1 42  1  0
  1 43  1  0
  1 44  1  0
  3 45  1  0
  3 46  1  0
  3 47  1  0
  4 48  1  0
  4 49  1  0
  4 50  1  0
  5 51  1  1
  9 52  1  1
 10 53  1  0
 10 54  1  0
 12 55  1  0
 13 56  1  0
 14 57  1  0
 15 58  1  0
 16 59  1  0
 21 60  1  0
 21 61  1  0
 23 62  1  0
 24 63  1  0
 25 64  1  0
 26 65  1  0
 27 66  1  0
 32 67  1  0
 32 68  1  0
 33 69  1  0
 33 70  1  0
 35 71  1  0
 37 72  1  0
 37 73  1  0
 38 74  1  0
 38 75  1  0
 40 76  1  0
M  CHG  4   6  -1  17  -1  35  -1  40  -1
M  END
>  <UniqueID>  (31) 
30

>  <SMILES>  (31) 
CC(C)(C)[C@@H]([N-]C(=O)[C@H](Cc1ccccc1)[N-]C(=O)OCc1ccccc1)C(=O)N=C(CCC([NH-])=O)CCC([NH-])=O

>  <Energy>  (31) 
61.320374156742375

>  <Genealogy>  (31) 
CC(C)(C)C([N-]C(=O)C(Cc1ccccc1)[N-]C(=O)OCc1ccccc1)C(=O)N=C(CCC([NH-])=O)CCC([NH-])=O (protonated)
CC(C)(C)[C@@H]([N-]C(=O)[C@H](Cc1ccccc1)[N-]C(=O)OCc1ccccc1)C(=O)N=C(CCC([NH-])=O)CCC([NH-])=O (chirality)
CC(C)(C)[C@@H]([N-]C(=O)[C@H](Cc1ccccc1)[N-]C(=O)OCc1ccccc1)C(=O)N=C(CCC([NH-])=O)CCC([NH-])=O (3D coordinates assigned)
CC(C)(C)[C@@H]([N-]C(=O)[C@H](Cc1ccccc1)[N-]C(=O)OCc1ccccc1)C(=O)N=C(CCC([NH-])=O)CCC([NH-])=O (optimized conformer: 61.320374156742375 kcal/mol)

>  <smiles>  (31) 
CC(C)(C)C(NC(=O)C(Cc1ccccc1)NC(=O)OCc1ccccc1)C(=O)N=C(CCC(N)=O)CCC(N)=O

>  <score_type>  (31) 
oracle

>  <origin>  (31) 
adg

>  <m_score__min__energy>  (31) 
-17.91

>  <m_primary>  (31) 
energy

$$$$
31:0
     RDKit          3D

 37 39  0  0  0  0  0  0  0  0999 V2000
   54.5070   30.6220   50.8850 O   0  0  0  0  0  0  0  0  0  0  0  0
   54.0210   30.6320   52.0480 C   0  0  0  0  0  0  0  0  0  0  0  0
   52.5340   30.4760   52.2250 C   0  0  0  0  0  0  0  0  0  0  0  0
   51.7970   30.8760   50.9820 C   0  0  0  0  0  0  0  0  0  0  0  0
   51.7350   30.1190   49.8710 N   0  0  0  0  0  0  0  0  0  0  0  0
   51.0290   30.8840   49.0090 C   0  0  0  0  0  0  0  0  0  0  0  0
   50.7550   30.5110   47.8360 O   0  0  0  0  0  0  0  0  0  0  0  0
   50.6450   32.0820   49.4980 N   0  0  0  0  0  0  0  0  0  0  0  0
   51.1440   32.0620   50.7470 C   0  0  0  0  0  0  0  0  0  0  0  0
   51.0230   33.1140   51.6420 O   0  0  0  0  0  0  0  0  0  0  0  0
   54.8820   30.9290   53.1550 N   0  0  0  0  0  0  0  0  0  0  0  0
   55.9290   30.0820   53.6440 C   0  0  0  0  0  0  0  0  0  0  0  0
   55.6170   28.9280   54.3790 C   0  0  0  0  0  0  0  0  0  0  0  0
   56.6320   28.0720   54.8130 C   0  0  0  0  0  0  0  0  0  0  0  0
   57.9620   28.3490   54.4980 C   0  0  0  0  0  0  0  0  0  0  0  0
   58.2810   29.4850   53.7520 C   0  0  0  0  0  0  0  0  0  0  0  0
   57.2730   30.3620   53.3210 C   0  0  0  0  0  0  0  0  0  0  0  0
   57.6350   31.5650   52.6140 N   0  0  0  0  0  0  0  0  0  0  0  0
   57.4310   31.6730   51.1680 C   0  0  0  0  0  0  0  0  0  0  0  0
   58.6280   32.3890   50.5450 C   0  0  0  0  0  0  0  0  0  0  0  0
   58.8650   33.6240   51.1950 O   0  0  0  0  0  0  0  0  0  0  0  0
   59.2490   33.4000   52.5410 C   0  0  0  0  0  0  0  0  0  0  0  0
   58.1070   32.7520   53.3300 C   0  0  0  0  0  0  0  0  0  0  0  0
   52.3079   29.4241   52.4538 H   0  0  0  0  0  0  0  0  0  0  0  0
   52.2100   31.1293   53.0485 H   0  0  0  0  0  0  0  0  0  0  0  0
   54.5678   28.6963   54.6146 H   0  0  0  0  0  0  0  0  0  0  0  0
   56.3819   27.1785   55.4039 H   0  0  0  0  0  0  0  0  0  0  0  0
   58.7599   27.6722   54.8375 H   0  0  0  0  0  0  0  0  0  0  0  0
   59.3309   29.6947   53.4998 H   0  0  0  0  0  0  0  0  0  0  0  0
   57.3368   30.6669   50.7334 H   0  0  0  0  0  0  0  0  0  0  0  0
   56.5124   32.2432   50.9655 H   0  0  0  0  0  0  0  0  0  0  0  0
   59.5201   31.7527   50.6419 H   0  0  0  0  0  0  0  0  0  0  0  0
   58.4116   32.5831   49.4841 H   0  0  0  0  0  0  0  0  0  0  0  0
   60.1245   32.7343   52.5606 H   0  0  0  0  0  0  0  0  0  0  0  0
   59.4941   34.3672   53.0041 H   0  0  0  0  0  0  0  0  0  0  0  0
   58.4689   32.4598   54.3268 H   0  0  0  0  0  0  0  0  0  0  0  0
   57.2804   33.4698   53.4375 H   0  0  0  0  0  0  0  0  0  0  0  0
  1  2  2  0
  2  3  1  0
  3  4  1  0
  4  5  1  0
  5  6  1  0
  6  7  2  0
  6  8  1  0
  8  9  1  0
  9 10  1  0
  2 11  1  0
 11 12  1  0
 12 13  2  0
 13 14  1  0
 14 15  2  0
 15 16  1  0
 16 17  2  0
 17 18  1  0
 18 19  1  0
 19 20  1  0
 20 21  1  0
 21 22  1  0
 22 23  1  0
  9  4  2  0
 17 12  1  0
 23 18  1  0
  3 24  1  0
  3 25  1  0
 13 26  1  0
 14 27  1  0
 15 28  1  0
 16 29  1  0
 19 30  1  0
 19 31  1  0
 20 32  1  0
 20 33  1  0
 22 34  1  0
 22 35  1  0
 23 36  1  0
 23 37  1  0
M  CHG  4   5  -1   8  -1  10  -1  11  -1
M  END
>  <UniqueID>  (32) 
31

>  <SMILES>  (32) 
O=C(Cc1[n-]c(=O)[n-]c1[O-])[N-]c1ccccc1N1CCOCC1

>  <Energy>  (32) 
78.27654614444512

>  <Genealogy>  (32) 
O=C(Cc1[n-]c(=O)[n-]c1[O-])[N-]c1ccccc1N1CCOCC1 (protonated)
O=C(Cc1[n-]c(=O)[n-]c1[O-])[N-]c1ccccc1N1CCOCC1 (3D coordinates assigned)
O=C(Cc1[n-]c(=O)[n-]c1[O-])[N-]c1ccccc1N1CCOCC1 (nonaromatic ring conformer: 78.27654614444512 kcal/mol)

>  <smiles>  (32) 
O=C(Cc1[nH]c(=O)[nH]c1O)Nc1ccccc1N1CCOCC1

>  <score_type>  (32) 
oracle

>  <origin>  (32) 
adg

>  <m_score__min__energy>  (32) 
-16.149999999999999

>  <m_primary>  (32) 
energy

$$$$
32:0
     RDKit          3D

 48 51  0  0  0  0  0  0  0  0999 V2000
   52.9400   27.5530   53.9150 O   0  0  0  0  0  0  0  0  0  0  0  0
   53.8390   28.3850   53.6290 C   0  0  0  0  0  0  0  0  0  0  0  0
   55.2200   28.2060   54.1870 C   0  0  0  0  0  0  0  0  0  0  0  0
   56.2550   28.9630   53.4020 C   0  0  0  0  0  0  0  0  0  0  0  0
   57.4540   28.5760   53.4510 O   0  0  0  0  0  0  0  0  0  0  0  0
   55.9070   30.1410   52.6460 N   0  0  0  0  0  0  0  0  0  0  0  0
   56.9410   30.9920   52.1130 C   0  0  0  0  0  0  0  0  0  0  0  0
   57.3270   32.1520   52.7950 C   0  0  0  0  0  0  0  0  0  0  0  0
   58.3290   32.9720   52.2780 C   0  0  0  0  0  0  0  0  0  0  0  0
   58.9520   32.6550   51.0630 C   0  0  0  0  0  0  0  0  0  0  0  0
   58.5790   31.4820   50.3660 C   0  0  0  0  0  0  0  0  0  0  0  0
   57.5770   30.6580   50.9070 C   0  0  0  0  0  0  0  0  0  0  0  0
   59.3380   30.9990   49.1420 C   0  0  0  0  0  0  0  0  0  0  0  0
   59.6530   32.0500   48.1550 N   0  0  0  0  0  0  0  0  0  0  0  0
   60.6730   31.8150   47.1560 C   0  0  0  0  0  0  0  0  0  0  0  0
   61.5600   32.6910   46.9520 O   0  0  0  0  0  0  0  0  0  0  0  0
   60.7460   30.5110   46.3980 C   0  0  0  0  0  0  0  0  0  0  0  0
   59.3760   30.0040   46.0260 C   0  0  0  0  0  0  0  0  0  0  0  0
   58.9240   28.7670   46.5150 C   0  0  0  0  0  0  0  0  0  0  0  0
   57.6420   28.3090   46.1950 C   0  0  0  0  0  0  0  0  0  0  0  0
   56.8000   29.0860   45.3940 C   0  0  0  0  0  0  0  0  0  0  0  0
   55.5260   28.6290   45.0780 O   0  0  0  0  0  0  0  0  0  0  0  0
   57.2390   30.3240   44.9130 C   0  0  0  0  0  0  0  0  0  0  0  0
   58.5200   30.7840   45.2310 C   0  0  0  0  0  0  0  0  0  0  0  0
   59.0260   33.3750   48.2360 C   0  0  0  0  0  0  0  0  0  0  0  0
   59.7660   34.2370   49.2590 C   0  0  0  0  0  0  0  0  0  0  0  0
   59.9450   33.5480   50.5380 N   0  0  0  0  0  0  0  0  0  0  0  0
   54.5190   30.4360   52.4040 C   0  0  0  0  0  0  0  0  0  0  0  0
   54.1800   31.4930   51.8090 O   0  0  0  0  0  0  0  0  0  0  0  0
   53.5110   29.5280   52.8400 N   0  0  0  0  0  0  0  0  0  0  0  0
   55.2310   28.5661   55.2263 H   0  0  0  0  0  0  0  0  0  0  0  0
   55.4701   27.1363   54.1298 H   0  0  0  0  0  0  0  0  0  0  0  0
   56.8373   32.4178   53.7435 H   0  0  0  0  0  0  0  0  0  0  0  0
   58.6331   33.8749   52.8279 H   0  0  0  0  0  0  0  0  0  0  0  0
   57.2871   29.7383   50.3778 H   0  0  0  0  0  0  0  0  0  0  0  0
   60.2846   30.5525   49.4804 H   0  0  0  0  0  0  0  0  0  0  0  0
   58.6783   30.2821   48.6313 H   0  0  0  0  0  0  0  0  0  0  0  0
   61.3305   30.6653   45.4790 H   0  0  0  0  0  0  0  0  0  0  0  0
   61.2232   29.7630   47.0483 H   0  0  0  0  0  0  0  0  0  0  0  0
   59.5809   28.1564   47.1519 H   0  0  0  0  0  0  0  0  0  0  0  0
   57.2957   27.3362   46.5740 H   0  0  0  0  0  0  0  0  0  0  0  0
   56.5757   30.9359   44.2841 H   0  0  0  0  0  0  0  0  0  0  0  0
   58.8593   31.7612   44.8570 H   0  0  0  0  0  0  0  0  0  0  0  0
   59.0696   33.8604   47.2499 H   0  0  0  0  0  0  0  0  0  0  0  0
   57.9772   33.2618   48.5476 H   0  0  0  0  0  0  0  0  0  0  0  0
   60.7558   34.4953   48.8545 H   0  0  0  0  0  0  0  0  0  0  0  0
   59.1606   35.1369   49.4426 H   0  0  0  0  0  0  0  0  0  0  0  0
   60.5810   34.0140   51.2250 H   0  0  0  0  0  0  0  0  0  0  0  0
  1  2  2  0
  2  3  1  0
  3  4  1  0
  4  5  2  0
  4  6  1  0
  6  7  1  0
  7  8  2  0
  8  9  1  0
  9 10  2  0
 10 11  1  0
 11 12  2  0
 11 13  1  0
 13 14  1  0
 14 15  1  0
 15 16  2  0
 15 17  1  0
 17 18  1  0
 18 19  2  0
 19 20  1  0
 20 21  2  0
 21 22  1  0
 21 23  1  0
 23 24  2  0
 14 25  1  0
 25 26  1  0
 26 27  1  0
  6 28  1  0
 28 29  2  0
 28 30  1  0
 30  2  1  0
 12  7  1  0
 24 18  1  0
 27 10  1  0
  3 31  1  0
  3 32  1  0
  8 33  1  0
  9 34  1  0
 12 35  1  0
 13 36  1  0
 13 37  1  0
 17 38  1  0
 17 39  1  0
 19 40  1  0
 20 41  1  0
 23 42  1  0
 24 43  1  0
 25 44  1  0
 25 45  1  0
 26 46  1  0
 26 47  1  0
 27 48  1  0
M  CHG  2  22  -1  30  -1
M  END
>  <UniqueID>  (33) 
32

>  <SMILES>  (33) 
O=C1CC(=O)N(c2ccc3c(c2)CN(C(=O)Cc2ccc([O-])cc2)CCN3)C(=O)[N-]1

>  <Energy>  (33) 
67.2202014695229

>  <Genealogy>  (33) 
O=C1CC(=O)N(c2ccc3c(c2)CN(C(=O)Cc2ccc([O-])cc2)CCN3)C(=O)[N-]1 (protonated)
O=C1CC(=O)N(c2ccc3c(c2)CN(C(=O)Cc2ccc([O-])cc2)CCN3)C(=O)[N-]1 (3D coordinates assigned)
O=C1CC(=O)N(c2ccc3c(c2)CN(C(=O)Cc2ccc([O-])cc2)CCN3)C(=O)[N-]1 (nonaromatic ring conformer: 67.2202014695229 kcal/mol)

>  <smiles>  (33) 
O=C1CC(=O)N(c2ccc3c(c2)CN(C(=O)Cc2ccc(O)cc2)CCN3)C(=O)N1

>  <score_type>  (33) 
oracle

>  <origin>  (33) 
adg

>  <m_score__min__energy>  (33) 
-11.58

>  <m_primary>  (33) 
energy

$$$$
33:0
     RDKit          3D

 32 33  0  0  0  0  0  0  0  0999 V2000
   55.3730   29.3520   45.0110 N   0  0  0  0  0  0  0  0  0  0  0  0
   56.1960   29.3880   43.8510 C   0  0  0  0  0  0  0  0  0  0  0  0
   55.7940   29.7820   42.7260 O   0  0  0  0  0  0  0  0  0  0  0  0
   57.6120   28.9280   43.9870 C   0  0  0  0  0  0  0  0  0  0  0  0
   58.2120   29.4010   45.2460 C   0  0  0  0  0  0  0  0  0  0  0  0
   59.2830   28.7870   45.8730 C   0  0  0  0  0  0  0  0  0  0  0  0
   59.5780   29.4620   46.9830 N   0  0  0  0  0  0  0  0  0  0  0  0
   58.7240   30.4970   47.0910 C   0  0  0  0  0  0  0  0  0  0  0  0
   58.7610   31.4700   48.2170 C   0  0  0  0  0  0  0  0  0  0  0  0
   57.7960   32.6090   47.9840 C   0  0  0  0  0  0  0  0  0  0  0  0
   58.3230   33.4850   46.8950 C   0  0  0  0  0  0  0  0  0  0  0  0
   59.3770   34.3700   47.1470 C   0  0  0  0  0  0  0  0  0  0  0  0
   59.8260   35.1600   46.1010 C   0  0  0  0  0  0  0  0  0  0  0  0
   59.2400   35.0600   44.8680 C   0  0  0  0  0  0  0  0  0  0  0  0
   58.1960   34.1950   44.5910 C   0  0  0  0  0  0  0  0  0  0  0  0
   57.7470   33.4080   45.6290 C   0  0  0  0  0  0  0  0  0  0  0  0
   57.8970   30.4520   46.0280 N   0  0  0  0  0  0  0  0  0  0  0  0
   55.6870   29.6680   45.9550 H   0  0  0  0  0  0  0  0  0  0  0  0
   54.3910   28.9750   44.8600 H   0  0  0  0  0  0  0  0  0  0  0  0
   57.6342   27.8283   43.9709 H   0  0  0  0  0  0  0  0  0  0  0  0
   58.1926   29.3424   43.1496 H   0  0  0  0  0  0  0  0  0  0  0  0
   59.8052   27.8882   45.5132 H   0  0  0  0  0  0  0  0  0  0  0  0
   60.3500   29.2200   47.6580 H   0  0  0  0  0  0  0  0  0  0  0  0
   58.4875   30.9523   49.1482 H   0  0  0  0  0  0  0  0  0  0  0  0
   59.7780   31.8830   48.2884 H   0  0  0  0  0  0  0  0  0  0  0  0
   56.8156   32.2061   47.6899 H   0  0  0  0  0  0  0  0  0  0  0  0
   57.6860   33.1948   48.9085 H   0  0  0  0  0  0  0  0  0  0  0  0
   59.8351   34.4366   48.1449 H   0  0  0  0  0  0  0  0  0  0  0  0
   60.6531   35.8673   46.2614 H   0  0  0  0  0  0  0  0  0  0  0  0
   59.6180   35.6994   44.0566 H   0  0  0  0  0  0  0  0  0  0  0  0
   57.7456   34.1384   43.5890 H   0  0  0  0  0  0  0  0  0  0  0  0
   56.9183   32.7059   45.4548 H   0  0  0  0  0  0  0  0  0  0  0  0
  1  2  1  0
  2  3  2  0
  2  4  1  0
  4  5  1  0
  5  6  2  0
  6  7  1  0
  7  8  1  0
  8  9  1  0
  9 10  1  0
 10 11  1  0
 11 12  2  0
 12 13  1  0
 13 14  2  0
 14 15  1  0
 15 16  2  0
  8 17  2  0
 17  5  1  0
 16 11  1  0
  1 18  1  0
  1 19  1  0
  4 20  1  0
  4 21  1  0
  6 22  1  0
  7 23  1  0
  9 24  1  0
  9 25  1  0
 10 26  1  0
 10 27  1  0
 12 28  1  0
 13 29  1  0
 14 30  1  0
 15 31  1  0
 16 32  1  0
M  END
>  <smiles>  (34) 
NC(=O)Cc1c[nH]c(CCc2ccccc2)n1

>  <score_type>  (34) 
oracle

>  <origin>  (34) 
adg

>  <m_score__min__energy>  (34) 
-7.7699999999999996

>  <m_primary>  (34) 
energy

$$$$
34:0
     RDKit          3D

 30 31  0  0  0  0  0  0  0  0999 V2000
   61.2870   35.2862   46.2686 H   0  0  0  0  0  0  0  0  0  0  0  0
   60.3570   34.7230   46.4360 C   0  0  0  0  0  0  0  0  0  0  0  0
   60.2980   33.7540   47.4430 C   0  0  0  0  0  0  0  0  0  0  0  0
   61.1765   33.5701   48.0790 H   0  0  0  0  0  0  0  0  0  0  0  0
   59.1190   33.0140   47.6450 C   0  0  0  0  0  0  0  0  0  0  0  0
   59.0190   32.0490   48.7030 N   0  0  0  0  0  0  0  0  0  0  0  0
   59.6310   30.9260   48.7530 N   0  0  0  0  0  0  0  0  0  0  0  0
   60.6820   30.5010   47.8690 C   0  0  0  0  0  0  0  0  0  0  0  0
   62.2350   30.9510   48.1530 S   0  0  0  0  0  0  0  0  0  0  0  0
   60.3680   29.8330   46.6380 N   0  0  0  0  0  0  0  0  0  0  0  0
   61.1490   29.3590   46.1290 H   0  0  0  0  0  0  0  0  0  0  0  0
   59.0310   29.6240   46.1590 C   0  0  0  0  0  0  0  0  0  0  0  0
   58.3890   30.5800   45.3570 C   0  0  0  0  0  0  0  0  0  0  0  0
   58.9046   31.5179   45.1031 H   0  0  0  0  0  0  0  0  0  0  0  0
   57.1000   30.3450   44.8810 C   0  0  0  0  0  0  0  0  0  0  0  0
   56.6003   31.1050   44.2624 H   0  0  0  0  0  0  0  0  0  0  0  0
   56.4370   29.1520   45.1830 C   0  0  0  0  0  0  0  0  0  0  0  0
   55.1500   28.9630   44.6910 O   0  0  0  0  0  0  0  0  0  0  0  0
   57.0730   28.1670   45.9690 C   0  0  0  0  0  0  0  0  0  0  0  0
   56.4050   26.8820   46.3030 C   0  0  0  0  0  0  0  0  0  0  0  0
   55.2050   26.6840   45.9750 O   0  0  0  0  0  0  0  0  0  0  0  0
   57.0830   25.8770   46.9820 O   0  0  0  0  0  0  0  0  0  0  0  0
   58.3770   28.4170   46.4420 C   0  0  0  0  0  0  0  0  0  0  0  0
   58.8900   27.6520   47.0433 H   0  0  0  0  0  0  0  0  0  0  0  0
   57.9890   33.2960   46.8690 C   0  0  0  0  0  0  0  0  0  0  0  0
   57.0498   32.7534   47.0517 H   0  0  0  0  0  0  0  0  0  0  0  0
   58.0490   34.2650   45.8620 C   0  0  0  0  0  0  0  0  0  0  0  0
   57.1634   34.4684   45.2421 H   0  0  0  0  0  0  0  0  0  0  0  0
   59.2340   34.9760   45.6420 C   0  0  0  0  0  0  0  0  0  0  0  0
   59.2920   35.9370   44.6410 O   0  0  0  0  0  0  0  0  0  0  0  0
  1  2  1  0
  2  3  2  0
  3  4  1  0
  3  5  1  0
  5  6  1  0
  6  7  2  0
  7  8  1  0
  8  9  2  0
  8 10  1  0
 10 11  1  0
 10 12  1  0
 12 13  2  0
 13 14  1  0
 13 15  1  0
 15 16  1  0
 15 17  2  0
 17 18  1  0
 17 19  1  0
 19 20  1  0
 20 21  2  0
 20 22  1  0
 19 23  2  0
 23 24  1  0
  5 25  2  0
 25 26  1  0
 25 27  1  0
 27 28  1  0
 27 29  2  0
 29 30  1  0
 29  2  1  0
 23 12  1  0
M  CHG  3  18  -1  22  -1  30  -1
M  END
>  <UniqueID>  (35) 
33

>  <SMILES>  (35) 
O=C([O-])c1cc(NC(=S)/N=N\c2ccc([O-])cc2)ccc1[O-]

>  <Energy>  (35) 
50.60230996750969

>  <Genealogy>  (35) 
O=C([O-])c1cc(NC(=S)N=Nc2ccc([O-])cc2)ccc1[O-] (protonated)
O=C([O-])c1cc(NC(=S)/N=N\c2ccc([O-])cc2)ccc1[O-] (cis-trans isomerization)
O=C([O-])c1cc(NC(=S)/N=N\c2ccc([O-])cc2)ccc1[O-] (3D coordinates assigned)
O=C([O-])c1cc(NC(=S)/N=N\c2ccc([O-])cc2)ccc1[O-] (optimized conformer: 50.60230996750969 kcal/mol)

>  <smiles>  (35) 
O=C(O)c1cc(NC(=S)N=Nc2ccc(O)cc2)ccc1O

>  <score_type>  (35) 
oracle

>  <origin>  (35) 
adg

>  <m_score__min__energy>  (35) 
-14.07

>  <m_primary>  (35) 
energy

$$$$
35:0
     RDKit          3D

 51 54  0  0  0  0  0  0  0  0999 V2000
   58.4510   33.4530   44.6590 C   0  0  0  0  0  0  0  0  0  0  0  0
   57.9990   32.1410   45.7760 S   0  0  0  0  0  0  0  0  0  0  0  0
   56.9650   31.2500   45.1480 O   0  0  0  0  0  0  0  0  0  0  0  0
   57.4190   32.7510   47.0210 O   0  0  0  0  0  0  0  0  0  0  0  0
   59.4030   31.2160   46.2070 N   0  0  0  0  0  0  0  0  0  0  0  0
   59.4450   30.2350   47.2600 C   0  0  0  0  0  0  0  0  0  0  0  0
   60.3680   29.1800   47.1710 C   0  0  0  0  0  0  0  0  0  0  0  0
   60.4400   28.2110   48.1770 C   0  0  0  0  0  0  0  0  0  0  0  0
   59.5960   28.2880   49.2850 C   0  0  0  0  0  0  0  0  0  0  0  0
   58.6760   29.3440   49.4000 C   0  0  0  0  0  0  0  0  0  0  0  0
   57.7930   29.4410   50.4830 O   0  0  0  0  0  0  0  0  0  0  0  0
   57.6630   30.5450   51.3380 C   0  0  0  0  0  0  0  0  0  0  0  0
   58.5380   31.6460   51.2570 C   0  0  0  0  0  0  0  0  0  0  0  0
   58.3940   32.7380   52.1270 C   0  0  0  0  0  0  0  0  0  0  0  0
   59.3260   33.8870   52.0370 C   0  0  0  0  0  0  0  0  0  0  0  0
   59.1100   34.9110   52.7390 O   0  0  0  0  0  0  0  0  0  0  0  0
   60.5020   33.8560   51.2120 N   0  0  0  0  0  0  0  0  0  0  0  0
   60.5130   33.8580   49.9130 C   0  0  0  0  0  0  0  0  0  0  0  0
   59.6480   34.5580   49.1450 N   0  0  0  0  0  0  0  0  0  0  0  0
   59.9170   34.3990   47.8220 C   0  0  0  0  0  0  0  0  0  0  0  0
   61.0030   33.5790   47.5360 C   0  0  0  0  0  0  0  0  0  0  0  0
   61.6480   33.0330   48.9930 S   0  0  0  0  0  0  0  0  0  0  0  0
   57.3370   32.7440   53.0510 C   0  0  0  0  0  0  0  0  0  0  0  0
   56.4520   31.6670   53.1180 C   0  0  0  0  0  0  0  0  0  0  0  0
   56.6070   30.5720   52.2620 C   0  0  0  0  0  0  0  0  0  0  0  0
   55.4570   29.1970   52.3730 S   0  0  0  0  0  0  0  0  0  0  0  0
   54.0220   30.2490   52.1510 C   0  0  0  0  0  0  0  0  0  0  0  0
   53.6820   30.7160   50.8750 C   0  0  0  0  0  0  0  0  0  0  0  0
   52.5600   31.5320   50.7030 C   0  0  0  0  0  0  0  0  0  0  0  0
   51.7730   31.8830   51.8070 C   0  0  0  0  0  0  0  0  0  0  0  0
   50.6570   32.6930   51.6360 O   0  0  0  0  0  0  0  0  0  0  0  0
   52.1080   31.4140   53.0820 C   0  0  0  0  0  0  0  0  0  0  0  0
   53.2290   30.5940   53.2540 C   0  0  0  0  0  0  0  0  0  0  0  0
   58.5960   30.3030   48.3840 C   0  0  0  0  0  0  0  0  0  0  0  0
   58.7559   34.3379   45.2370 H   0  0  0  0  0  0  0  0  0  0  0  0
   59.2873   33.1231   44.0251 H   0  0  0  0  0  0  0  0  0  0  0  0
   57.5890   33.7082   44.0251 H   0  0  0  0  0  0  0  0  0  0  0  0
   60.2620   31.3750   45.6340 H   0  0  0  0  0  0  0  0  0  0  0  0
   61.0400   29.1153   46.3026 H   0  0  0  0  0  0  0  0  0  0  0  0
   61.1635   27.3866   48.0943 H   0  0  0  0  0  0  0  0  0  0  0  0
   59.6508   27.5201   50.0707 H   0  0  0  0  0  0  0  0  0  0  0  0
   59.3411   31.6500   50.5054 H   0  0  0  0  0  0  0  0  0  0  0  0
   59.3196   34.8834   47.0356 H   0  0  0  0  0  0  0  0  0  0  0  0
   61.3764   33.3299   46.5317 H   0  0  0  0  0  0  0  0  0  0  0  0
   57.2056   33.6025   53.7260 H   0  0  0  0  0  0  0  0  0  0  0  0
   55.6287   31.6794   53.8475 H   0  0  0  0  0  0  0  0  0  0  0  0
   54.2988   30.4403   50.0069 H   0  0  0  0  0  0  0  0  0  0  0  0
   52.2952   31.8985   49.7002 H   0  0  0  0  0  0  0  0  0  0  0  0
   51.4902   31.6899   53.9493 H   0  0  0  0  0  0  0  0  0  0  0  0
   53.4879   30.2200   54.2555 H   0  0  0  0  0  0  0  0  0  0  0  0
   57.8626   31.1190   48.4630 H   0  0  0  0  0  0  0  0  0  0  0  0
  1  2  1  0
  2  3  2  0
  2  4  2  0
  2  5  1  0
  5  6  1  0
  6  7  2  0
  7  8  1  0
  8  9  2  0
  9 10  1  0
 10 11  1  0
 11 12  1  0
 12 13  2  0
 13 14  1  0
 14 15  1  0
 15 16  2  0
 15 17  1  0
 17 18  2  3
 18 19  1  0
 19 20  1  0
 20 21  2  0
 21 22  1  0
 14 23  2  0
 23 24  1  0
 24 25  2  0
 25 26  1  0
 26 27  1  0
 27 28  2  0
 28 29  1  0
 29 30  2  0
 30 31  1  0
 30 32  1  0
 32 33  2  0
 10 34  2  0
 34  6  1  0
 25 12  1  0
 33 27  1  0
 22 18  1  0
  1 35  1  0
  1 36  1  0
  1 37  1  0
  5 38  1  0
  7 39  1  0
  8 40  1  0
  9 41  1  0
 13 42  1  0
 20 43  1  0
 21 44  1  0
 23 45  1  0
 24 46  1  0
 28 47  1  0
 29 48  1  0
 32 49  1  0
 33 50  1  0
 34 51  1  0
M  CHG  2  19  -1  31  -1
M  END
>  <UniqueID>  (36) 
34

>  <SMILES>  (36) 
CS(=O)(=O)Nc1cccc(Oc2cc(C(=O)N=c3[n-]ccs3)ccc2Sc2ccc([O-])cc2)c1

>  <Energy>  (36) 
93.14394777891705

>  <Genealogy>  (36) 
CS(=O)(=O)Nc1cccc(Oc2cc(C(=O)N=c3[n-]ccs3)ccc2Sc2ccc([O-])cc2)c1 (protonated)
CS(=O)(=O)Nc1cccc(Oc2cc(C(=O)N=c3[n-]ccs3)ccc2Sc2ccc([O-])cc2)c1 (3D coordinates assigned)
CS(=O)(=O)Nc1cccc(Oc2cc(C(=O)N=c3[n-]ccs3)ccc2Sc2ccc([O-])cc2)c1 (optimized conformer: 93.14394777891705 kcal/mol)

>  <smiles>  (36) 
CS(=O)(=O)Nc1cccc(Oc2cc(C(=O)N=c3[nH]ccs3)ccc2Sc2ccc(O)cc2)c1

>  <score_type>  (36) 
oracle

>  <origin>  (36) 
adg

>  <m_score__min__energy>  (36) 
-13.609999999999999

>  <m_primary>  (36) 
energy

$$$$
36:0
     RDKit          3D

 50 53  0  0  0  0  0  0  0  0999 V2000
   58.8277   28.4890   44.4782 H   0  0  0  0  0  0  0  0  0  0  0  0
   58.4010   28.4810   45.4920 C   0  0  0  0  0  0  0  0  0  0  0  0
   57.5220   27.3490   45.8490 C   0  0  0  0  0  0  0  0  0  0  0  0
   56.1270   27.4350   45.6980 C   0  0  0  0  0  0  0  0  0  0  0  0
   55.5310   28.6040   45.2390 O   0  0  0  0  0  0  0  0  0  0  0  0
   55.3480   26.3620   45.9940 N   0  0  0  0  0  0  0  0  0  0  0  0
   55.8940   25.1950   46.4210 C   0  0  0  0  0  0  0  0  0  0  0  0
   55.1520   24.2160   46.6930 O   0  0  0  0  0  0  0  0  0  0  0  0
   57.2410   25.0800   46.5470 N   0  0  0  0  0  0  0  0  0  0  0  0
   58.0640   26.1230   46.2630 C   0  0  0  0  0  0  0  0  0  0  0  0
   59.3100   25.9790   46.3830 O   0  0  0  0  0  0  0  0  0  0  0  0
   58.7230   29.5050   46.3070 C   0  0  0  0  0  0  0  0  0  0  0  0
   58.4140   30.8210   46.0120 C   0  0  0  0  0  0  0  0  0  0  0  0
   57.9574   31.1942   45.0835 H   0  0  0  0  0  0  0  0  0  0  0  0
   58.7880   31.5760   47.1050 C   0  0  0  0  0  0  0  0  0  0  0  0
   58.5760   33.0550   47.2230 C   0  0  0  0  0  0  0  0  0  0  0  0
   58.5357   33.3360   48.2857 H   0  0  0  0  0  0  0  0  0  0  0  0
   59.4074   33.5847   46.7349 H   0  0  0  0  0  0  0  0  0  0  0  0
   57.6293   33.3298   46.7349 H   0  0  0  0  0  0  0  0  0  0  0  0
   59.3480   30.7900   48.0540 N   0  0  0  0  0  0  0  0  0  0  0  0
   59.8240   31.2320   49.3760 C   0  0  0  0  0  0  0  0  0  0  0  0
   60.7373   30.6765   49.6354 H   0  0  0  0  0  0  0  0  0  0  0  0
   60.0330   32.3112   49.3343 H   0  0  0  0  0  0  0  0  0  0  0  0
   58.7750   30.9810   50.4310 C   0  0  0  0  0  0  0  0  0  0  0  0
   57.7470   31.9120   50.6430 C   0  0  0  0  0  0  0  0  0  0  0  0
   57.6921   32.8172   50.0204 H   0  0  0  0  0  0  0  0  0  0  0  0
   56.7920   31.6960   51.6410 C   0  0  0  0  0  0  0  0  0  0  0  0
   55.9871   32.4295   51.7960 H   0  0  0  0  0  0  0  0  0  0  0  0
   56.8550   30.5470   52.4470 C   0  0  0  0  0  0  0  0  0  0  0  0
   55.8710   30.3440   53.5380 C   0  0  0  0  0  0  0  0  0  0  0  0
   56.1330   30.7570   54.6980 O   0  0  0  0  0  0  0  0  0  0  0  0
   54.5870   29.7470   53.2900 N   0  0  0  0  0  0  0  0  0  0  0  0
   53.6260   30.2300   52.5530 C   0  0  0  0  0  0  0  0  0  0  0  0
   52.7650   31.1220   53.1140 N   0  0  0  0  0  0  0  0  0  0  0  0
   51.7330   31.6720   52.4180 C   0  0  0  0  0  0  0  0  0  0  0  0
   51.0642   32.3953   52.9075 H   0  0  0  0  0  0  0  0  0  0  0  0
   51.5220   31.3200   51.0850 C   0  0  0  0  0  0  0  0  0  0  0  0
   50.6941   31.7675   50.5156 H   0  0  0  0  0  0  0  0  0  0  0  0
   52.3740   30.3930   50.4820 C   0  0  0  0  0  0  0  0  0  0  0  0
   52.2142   30.0986   49.4342 H   0  0  0  0  0  0  0  0  0  0  0  0
   53.4290   29.8400   51.2100 C   0  0  0  0  0  0  0  0  0  0  0  0
   54.1015   29.1064   50.7414 H   0  0  0  0  0  0  0  0  0  0  0  0
   57.8620   29.5980   52.2080 C   0  0  0  0  0  0  0  0  0  0  0  0
   57.9054   28.6824   52.8162 H   0  0  0  0  0  0  0  0  0  0  0  0
   58.8090   29.8090   51.2030 C   0  0  0  0  0  0  0  0  0  0  0  0
   59.5855   29.0528   51.0155 H   0  0  0  0  0  0  0  0  0  0  0  0
   59.3470   29.5200   47.5660 C   0  0  0  0  0  0  0  0  0  0  0  0
   59.9480   28.4910   48.1840 C   0  0  0  0  0  0  0  0  0  0  0  0
   60.4021   28.6343   49.1756 H   0  0  0  0  0  0  0  0  0  0  0  0
   59.9864   27.5045   47.6988 H   0  0  0  0  0  0  0  0  0  0  0  0
  1  2  1  0
  2  3  1  0
  3  4  2  0
  4  5  1  0
  4  6  1  0
  6  7  1  0
  7  8  2  0
  7  9  1  0
  9 10  1  0
 10 11  2  0
  2 12  2  3
 12 13  1  0
 13 14  1  0
 13 15  2  0
 15 16  1  0
 16 17  1  0
 16 18  1  0
 16 19  1  0
 15 20  1  0
 20 21  1  0
 21 22  1  0
 21 23  1  0
 21 24  1  0
 24 25  2  0
 25 26  1  0
 25 27  1  0
 27 28  1  0
 27 29  2  0
 29 30  1  0
 30 31  2  0
 30 32  1  0
 32 33  2  0
 33 34  1  0
 34 35  1  0
 35 36  1  0
 35 37  2  0
 37 38  1  0
 37 39  1  0
 39 40  1  0
 39 41  2  0
 41 42  1  0
 29 43  1  0
 43 44  1  0
 43 45  2  0
 45 46  1  0
 20 47  1  0
 47 48  2  0
 48 49  1  0
 48 50  1  0
 10  3  1  0
 47 12  1  0
 45 24  1  0
 41 33  1  0
M  CHG  4   5  -1   6  -1   9  -1  34  -1
M  END
>  <UniqueID>  (37) 
35

>  <SMILES>  (37) 
C=c1c(=Cc2c([O-])[n-]c(=O)[n-]c2=O)cc(C)n1Cc1ccc(C(=O)/N=c2\cccc[n-]2)cc1

>  <Energy>  (37) 
107.01869236975323

>  <Genealogy>  (37) 
C=c1c(=Cc2c([O-])[n-]c(=O)[n-]c2=O)cc(C)n1Cc1ccc(C(=O)N=c2cccc[n-]2)cc1 (protonated)
C=c1c(=Cc2c([O-])[n-]c(=O)[n-]c2=O)cc(C)n1Cc1ccc(C(=O)/N=c2\cccc[n-]2)cc1 (cis-trans isomerization)
C=c1c(=Cc2c([O-])[n-]c(=O)[n-]c2=O)cc(C)n1Cc1ccc(C(=O)/N=c2\cccc[n-]2)cc1 (3D coordinates assigned)
C=c1c(=Cc2c([O-])[n-]c(=O)[n-]c2=O)cc(C)n1Cc1ccc(C(=O)/N=c2\cccc[n-]2)cc1 (optimized conformer: 107.01869236975323 kcal/mol)

>  <smiles>  (37) 
C=c1c(=Cc2c(O)[nH]c(=O)[nH]c2=O)cc(C)n1Cc1ccc(C(=O)N=c2cccc[nH]2)cc1

>  <score_type>  (37) 
oracle

>  <origin>  (37) 
adg

>  <m_score__min__energy>  (37) 
-17.739999999999998

>  <m_primary>  (37) 
energy

$$$$
37:0
     RDKit          3D

 52 54  0  0  0  0  0  0  0  0999 V2000
   59.5822   28.8102   47.2908 H   0  0  0  0  0  0  0  0  0  0  0  0
   59.9160   29.4670   46.4740 C   0  0  0  0  0  0  0  0  0  0  0  0
   59.2120   29.3520   45.1800 C   0  0  0  0  0  0  0  0  0  0  0  0
   59.9010   29.1900   44.1390 O   0  0  0  0  0  0  0  0  0  0  0  0
   57.7430   29.4660   45.0560 C   0  0  0  0  0  0  0  0  0  0  0  0
   56.9790   30.5980   44.8070 C   0  0  0  0  0  0  0  0  0  0  0  0
   57.4690   31.9890   44.5180 C   0  0  0  0  0  0  0  0  0  0  0  0
   56.6065   32.6393   44.3103 H   0  0  0  0  0  0  0  0  0  0  0  0
   58.1397   31.9527   43.6469 H   0  0  0  0  0  0  0  0  0  0  0  0
   58.2330   32.5420   45.6930 C   0  0  0  0  0  0  0  0  0  0  0  0
   57.7800   32.3220   47.0020 C   0  0  0  0  0  0  0  0  0  0  0  0
   56.8488   31.7608   47.1693 H   0  0  0  0  0  0  0  0  0  0  0  0
   58.5050   32.8120   48.1020 C   0  0  0  0  0  0  0  0  0  0  0  0
   58.0910   32.6000   49.4260 O   0  0  0  0  0  0  0  0  0  0  0  0
   58.9440   32.1500   50.4750 C   0  0  0  0  0  0  0  0  0  0  0  0
   58.4882   32.3904   51.4468 H   0  0  0  0  0  0  0  0  0  0  0  0
   59.0821   31.0617   50.3940 H   0  0  0  0  0  0  0  0  0  0  0  0
   59.9202   32.6505   50.3940 H   0  0  0  0  0  0  0  0  0  0  0  0
   59.6840   33.5370   47.8790 C   0  0  0  0  0  0  0  0  0  0  0  0
   60.4050   34.0260   48.9630 O   0  0  0  0  0  0  0  0  0  0  0  0
   60.1440   33.7750   46.5770 C   0  0  0  0  0  0  0  0  0  0  0  0
   61.3320   34.5030   46.4090 O   0  0  0  0  0  0  0  0  0  0  0  0
   62.6360   33.9310   46.4070 C   0  0  0  0  0  0  0  0  0  0  0  0
   62.9731   33.7831   47.4436 H   0  0  0  0  0  0  0  0  0  0  0  0
   62.6103   32.9615   45.8879 H   0  0  0  0  0  0  0  0  0  0  0  0
   63.3319   34.6065   45.8879 H   0  0  0  0  0  0  0  0  0  0  0  0
   59.4100   33.2750   45.4840 C   0  0  0  0  0  0  0  0  0  0  0  0
   59.7626   33.4609   44.4588 H   0  0  0  0  0  0  0  0  0  0  0  0
   55.6830   30.2450   44.7050 N   0  0  0  0  0  0  0  0  0  0  0  0
   55.5820   28.9380   44.8870 N   0  0  0  0  0  0  0  0  0  0  0  0
   56.8140   28.4390   45.1000 C   0  0  0  0  0  0  0  0  0  0  0  0
   57.0860   26.9800   45.3050 C   0  0  0  0  0  0  0  0  0  0  0  0
   57.1025   26.4735   44.3287 H   0  0  0  0  0  0  0  0  0  0  0  0
   58.0583   26.8648   45.8064 H   0  0  0  0  0  0  0  0  0  0  0  0
   56.0230   26.3680   46.1600 C   0  0  0  0  0  0  0  0  0  0  0  0
   54.8150   26.6850   45.9950 O   0  0  0  0  0  0  0  0  0  0  0  0
   56.3640   25.4390   47.1360 O   0  0  0  0  0  0  0  0  0  0  0  0
   60.9290   30.3070   46.7340 C   0  0  0  0  0  0  0  0  0  0  0  0
   61.3926   30.8249   45.8815 H   0  0  0  0  0  0  0  0  0  0  0  0
   61.4680   30.5880   48.0800 C   0  0  0  0  0  0  0  0  0  0  0  0
   61.0680   29.8320   49.1920 C   0  0  0  0  0  0  0  0  0  0  0  0
   60.3396   29.0172   49.0674 H   0  0  0  0  0  0  0  0  0  0  0  0
   61.5910   30.1100   50.4560 C   0  0  0  0  0  0  0  0  0  0  0  0
   61.2581   29.5274   51.3276 H   0  0  0  0  0  0  0  0  0  0  0  0
   62.5360   31.1260   50.6170 C   0  0  0  0  0  0  0  0  0  0  0  0
   62.9427   31.3400   51.6164 H   0  0  0  0  0  0  0  0  0  0  0  0
   62.9710   31.8770   49.5110 C   0  0  0  0  0  0  0  0  0  0  0  0
   63.9480   32.9200   49.6790 N   0  0  0  0  0  0  0  0  0  0  0  0
   63.6110   34.0480   50.0970 O   0  0  0  0  0  0  0  0  0  0  0  0
   65.2690   32.6980   49.3640 O   0  0  0  0  0  0  0  0  0  0  0  0
   62.4370   31.5910   48.2390 C   0  0  0  0  0  0  0  0  0  0  0  0
   62.7826   32.1588   47.3626 H   0  0  0  0  0  0  0  0  0  0  0  0
  1  2  1  0
  2  3  1  0
  3  4  2  0
  3  5  1  0
  5  6  1  0
  6  7  1  0
  7  8  1  0
  7  9  1  0
  7 10  1  0
 10 11  2  0
 11 12  1  0
 11 13  1  0
 13 14  1  0
 14 15  1  0
 15 16  1  0
 15 17  1  0
 15 18  1  0
 13 19  2  0
 19 20  1  0
 19 21  1  0
 21 22  1  0
 22 23  1  0
 23 24  1  0
 23 25  1  0
 23 26  1  0
 21 27  2  0
 27 28  1  0
  6 29  2  0
 29 30  1  0
 30 31  1  0
 31 32  1  0
 32 33  1  0
 32 34  1  0
 32 35  1  0
 35 36  2  0
 35 37  1  0
  2 38  2  0
 38 39  1  0
 38 40  1  0
 40 41  2  0
 41 42  1  0
 41 43  1  0
 43 44  1  0
 43 45  2  0
 45 46  1  0
 45 47  1  0
 47 48  1  0
 48 49  2  0
 48 50  1  0
 47 51  2  0
 51 52  1  0
 31  5  2  0
 51 40  1  0
 27 10  1  0
M  CHG  5  20  -1  30  -1  37  -1  48   1  50  -1
M  END
>  <UniqueID>  (38) 
36

>  <SMILES>  (38) 
COc1cc(Cc2n[n-]c(CC(=O)[O-])c2C(=O)/C=C\c2cccc([N+](=O)[O-])c2)cc(OC)c1[O-]

>  <Energy>  (38) 
89.81064317710269

>  <Genealogy>  (38) 
COc1cc(Cc2n[n-]c(CC(=O)[O-])c2C(=O)C=Cc2cccc([N+](=O)[O-])c2)cc(OC)c1[O-] (protonated)
COc1cc(Cc2n[n-]c(CC(=O)[O-])c2C(=O)/C=C\c2cccc([N+](=O)[O-])c2)cc(OC)c1[O-] (cis-trans isomerization)
COc1cc(Cc2n[n-]c(CC(=O)[O-])c2C(=O)/C=C\c2cccc([N+](=O)[O-])c2)cc(OC)c1[O-] (3D coordinates assigned)
COc1cc(Cc2n[n-]c(CC(=O)[O-])c2C(=O)/C=C\c2cccc([N+](=O)[O-])c2)cc(OC)c1[O-] (optimized conformer: 89.81064317710269 kcal/mol)

>  <smiles>  (38) 
COc1cc(Cc2n[nH]c(CC(=O)O)c2C(=O)C=Cc2cccc([N+](=O)[O-])c2)cc(OC)c1O

>  <score_type>  (38) 
oracle

>  <origin>  (38) 
adg

>  <m_score__min__energy>  (38) 
-14.69

>  <m_primary>  (38) 
energy

$$$$
38:0
     RDKit          3D

 41 43  0  0  0  0  0  0  0  0999 V2000
   54.7930   23.3720   44.2590 C   0  0  0  0  0  0  0  0  0  0  0  0
   56.2870   22.8500   43.4410 S   0  0  0  0  0  0  0  0  0  0  0  0
   56.9950   24.0630   42.9030 O   0  0  0  0  0  0  0  0  0  0  0  0
   55.9410   21.9380   42.2960 O   0  0  0  0  0  0  0  0  0  0  0  0
   57.3390   22.0350   44.5610 N   0  0  0  0  0  0  0  0  0  0  0  0
   58.6460   22.6990   44.5970 C   0  0  0  0  0  0  0  0  0  0  0  0
   58.7050   23.7080   45.7510 C   0  0  0  0  0  0  0  0  0  0  0  0
   57.4900   23.6300   46.6370 C   0  0  0  0  0  0  0  0  0  0  0  0
   57.2750   22.6240   47.5070 N   0  0  0  0  0  0  0  0  0  0  0  0
   56.1250   22.9730   48.1160 C   0  0  0  0  0  0  0  0  0  0  0  0
   55.5950   22.2720   49.0170 O   0  0  0  0  0  0  0  0  0  0  0  0
   55.5900   24.1330   47.6860 N   0  0  0  0  0  0  0  0  0  0  0  0
   56.4470   24.5410   46.7320 C   0  0  0  0  0  0  0  0  0  0  0  0
   56.2470   25.7830   45.9620 C   0  0  0  0  0  0  0  0  0  0  0  0
   55.1210   26.3440   45.9980 O   0  0  0  0  0  0  0  0  0  0  0  0
   57.2900   26.3800   45.1810 N   0  0  0  0  0  0  0  0  0  0  0  0
   57.8250   27.7010   45.3540 C   0  0  0  0  0  0  0  0  0  0  0  0
   59.1460   27.9110   45.7930 C   0  0  0  0  0  0  0  0  0  0  0  0
   59.6340   29.2120   45.9580 C   0  0  0  0  0  0  0  0  0  0  0  0
   58.8130   30.3060   45.6730 C   0  0  0  0  0  0  0  0  0  0  0  0
   57.5150   30.1020   45.1910 C   0  0  0  0  0  0  0  0  0  0  0  0
   57.0200   28.8030   45.0370 C   0  0  0  0  0  0  0  0  0  0  0  0
   56.7270   31.2110   44.8700 O   0  0  0  0  0  0  0  0  0  0  0  0
   57.3010   32.5170   44.7550 C   0  0  0  0  0  0  0  0  0  0  0  0
   58.3690   32.7240   45.8360 C   0  0  0  0  0  0  0  0  0  0  0  0
   59.2720   31.6140   45.8590 O   0  0  0  0  0  0  0  0  0  0  0  0
   54.9351   23.3224   45.3487 H   0  0  0  0  0  0  0  0  0  0  0  0
   54.5570   24.4059   43.9667 H   0  0  0  0  0  0  0  0  0  0  0  0
   53.9645   22.7101   43.9667 H   0  0  0  0  0  0  0  0  0  0  0  0
   56.8970   22.1280   45.5040 H   0  0  0  0  0  0  0  0  0  0  0  0
   59.4324   21.9427   44.7370 H   0  0  0  0  0  0  0  0  0  0  0  0
   58.7990   23.2345   43.6484 H   0  0  0  0  0  0  0  0  0  0  0  0
   59.5994   23.5012   46.3571 H   0  0  0  0  0  0  0  0  0  0  0  0
   58.7413   24.7175   45.3156 H   0  0  0  0  0  0  0  0  0  0  0  0
   59.7963   27.0500   46.0069 H   0  0  0  0  0  0  0  0  0  0  0  0
   60.6630   29.3733   46.3117 H   0  0  0  0  0  0  0  0  0  0  0  0
   55.9963   28.6462   44.6661 H   0  0  0  0  0  0  0  0  0  0  0  0
   57.7631   32.6246   43.7626 H   0  0  0  0  0  0  0  0  0  0  0  0
   56.5091   33.2694   44.8845 H   0  0  0  0  0  0  0  0  0  0  0  0
   58.9308   33.6447   45.6199 H   0  0  0  0  0  0  0  0  0  0  0  0
   57.8761   32.8055   46.8160 H   0  0  0  0  0  0  0  0  0  0  0  0
  1  2  1  0
  2  3  2  0
  2  4  2  0
  2  5  1  0
  5  6  1  0
  6  7  1  0
  7  8  1  0
  8  9  1  0
  9 10  1  0
 10 11  2  0
 10 12  1  0
 12 13  1  0
 13 14  1  0
 14 15  2  0
 14 16  1  0
 16 17  1  0
 17 18  2  0
 18 19  1  0
 19 20  2  0
 20 21  1  0
 21 22  2  0
 21 23  1  0
 23 24  1  0
 24 25  1  0
 25 26  1  0
 13  8  2  0
 22 17  1  0
 26 20  1  0
  1 27  1  0
  1 28  1  0
  1 29  1  0
  5 30  1  0
  6 31  1  0
  6 32  1  0
  7 33  1  0
  7 34  1  0
 18 35  1  0
 19 36  1  0
 22 37  1  0
 24 38  1  0
 24 39  1  0
 25 40  1  0
 25 41  1  0
M  CHG  3   9  -1  12  -1  16  -1
M  END
>  <UniqueID>  (39) 
37

>  <SMILES>  (39) 
CS(=O)(=O)NCCc1[n-]c(=O)[n-]c1C(=O)[N-]c1ccc2c(c1)OCCO2

>  <Energy>  (39) 
69.39701415822984

>  <Genealogy>  (39) 
CS(=O)(=O)NCCc1[n-]c(=O)[n-]c1C(=O)[N-]c1ccc2c(c1)OCCO2 (protonated)
CS(=O)(=O)NCCc1[n-]c(=O)[n-]c1C(=O)[N-]c1ccc2c(c1)OCCO2 (3D coordinates assigned)
CS(=O)(=O)NCCc1[n-]c(=O)[n-]c1C(=O)[N-]c1ccc2c(c1)OCCO2 (nonaromatic ring conformer: 69.39701415822984 kcal/mol)

>  <smiles>  (39) 
CS(=O)(=O)NCCc1[nH]c(=O)[nH]c1C(=O)Nc1ccc2c(c1)OCCO2

>  <score_type>  (39) 
oracle

>  <origin>  (39) 
adg

>  <m_score__min__energy>  (39) 
-12.33

>  <m_primary>  (39) 
energy

$$$$
39:0
     RDKit          3D

 65 69  0  0  0  0  0  0  0  0999 V2000
   60.3960   29.3650   46.0380 C   0  0  0  0  0  0  0  0  0  0  0  0
   59.4290   29.8790   47.0080 N   0  0  0  0  0  0  0  0  0  0  0  0
   58.5020   28.9530   47.6530 C   0  0  0  0  0  0  0  0  0  0  0  0
   59.0920   31.2710   46.9640 C   0  0  0  0  0  0  0  0  0  0  0  0
   59.5540   32.1610   47.8040 O   0  0  0  0  0  0  0  0  0  0  0  0
   58.9950   33.3050   47.4780 C   0  0  0  0  0  0  0  0  0  0  0  0
   59.2720   34.5870   48.1860 C   0  0  0  0  0  0  0  0  0  0  0  0
   60.6250   34.9670   47.9530 O   0  0  0  0  0  0  0  0  0  0  0  0
   61.7110   34.0800   47.9740 C   0  0  0  0  0  0  0  0  0  0  0  0
   62.4800   33.9430   46.8160 C   0  0  0  0  0  0  0  0  0  0  0  0
   63.5490   33.0440   46.7750 C   0  0  0  0  0  0  0  0  0  0  0  0
   63.8580   32.2710   47.8950 C   0  0  0  0  0  0  0  0  0  0  0  0
   63.0990   32.3960   49.0690 C   0  0  0  0  0  0  0  0  0  0  0  0
   63.4390   31.5670   50.2840 C   0  0  0  0  0  0  0  0  0  0  0  0
   62.2210   31.0790   50.9550 N   0  0  0  0  0  0  0  0  0  0  0  0
   61.7570   31.7650   52.1720 C   0  0  0  0  0  0  0  0  0  0  0  0
   60.3910   32.3510   51.9530 C   0  0  0  0  0  0  0  0  0  0  0  0
   59.6590   32.9680   52.9650 C   0  0  0  0  0  0  0  0  0  0  0  0
   58.1730   33.4200   52.3200 S   0  0  0  0  0  0  0  0  0  0  0  0
   58.5140   32.8270   50.7860 C   0  0  0  0  0  0  0  0  0  0  0  0
   59.7480   32.2790   50.7550 N   0  0  0  0  0  0  0  0  0  0  0  0
   61.4020   30.0460   50.3620 C   0  0  0  0  0  0  0  0  0  0  0  0
   61.1810   30.0650   49.1190 O   0  0  0  0  0  0  0  0  0  0  0  0
   60.8480   28.9100   51.1850 C   0  0  0  0  0  0  0  0  0  0  0  0
   59.4440   29.1850   51.6340 C   0  0  0  0  0  0  0  0  0  0  0  0
   58.4140   29.6270   50.8410 C   0  0  0  0  0  0  0  0  0  0  0  0
   57.3260   29.8160   51.6090 N   0  0  0  0  0  0  0  0  0  0  0  0
   57.7350   29.4790   52.8500 C   0  0  0  0  0  0  0  0  0  0  0  0
   59.0270   29.0940   52.9100 N   0  0  0  0  0  0  0  0  0  0  0  0
   62.0410   33.3200   49.1120 C   0  0  0  0  0  0  0  0  0  0  0  0
   58.1650   33.2050   46.4150 N   0  0  0  0  0  0  0  0  0  0  0  0
   58.2300   31.8990   46.0860 C   0  0  0  0  0  0  0  0  0  0  0  0
   57.5510   31.3130   44.9120 C   0  0  0  0  0  0  0  0  0  0  0  0
   57.8070   31.7990   43.6200 C   0  0  0  0  0  0  0  0  0  0  0  0
   57.1550   31.2250   42.5290 C   0  0  0  0  0  0  0  0  0  0  0  0
   56.2680   30.1660   42.7280 C   0  0  0  0  0  0  0  0  0  0  0  0
   56.0460   29.6950   44.0240 C   0  0  0  0  0  0  0  0  0  0  0  0
   56.6860   30.2730   45.0750 N   0  0  0  0  0  0  0  0  0  0  0  0
   61.2456   28.9134   46.5712 H   0  0  0  0  0  0  0  0  0  0  0  0
   59.9132   28.6045   45.4067 H   0  0  0  0  0  0  0  0  0  0  0  0
   60.7563   30.1906   45.4067 H   0  0  0  0  0  0  0  0  0  0  0  0
   58.5933   29.0442   48.7454 H   0  0  0  0  0  0  0  0  0  0  0  0
   57.4725   29.1941   47.3497 H   0  0  0  0  0  0  0  0  0  0  0  0
   58.7420   27.9232   47.3497 H   0  0  0  0  0  0  0  0  0  0  0  0
   58.5992   35.3700   47.8063 H   0  0  0  0  0  0  0  0  0  0  0  0
   59.1049   34.4570   49.2654 H   0  0  0  0  0  0  0  0  0  0  0  0
   62.2420   34.5480   45.9287 H   0  0  0  0  0  0  0  0  0  0  0  0
   64.1483   32.9454   45.8579 H   0  0  0  0  0  0  0  0  0  0  0  0
   64.6983   31.5621   47.8577 H   0  0  0  0  0  0  0  0  0  0  0  0
   64.0462   30.7047   49.9714 H   0  0  0  0  0  0  0  0  0  0  0  0
   63.9966   32.1986   50.9912 H   0  0  0  0  0  0  0  0  0  0  0  0
   61.7133   31.0432   53.0009 H   0  0  0  0  0  0  0  0  0  0  0  0
   62.4591   32.5763   52.4146 H   0  0  0  0  0  0  0  0  0  0  0  0
   59.9930   33.1304   54.0004 H   0  0  0  0  0  0  0  0  0  0  0  0
   57.8285   32.8778   49.9272 H   0  0  0  0  0  0  0  0  0  0  0  0
   60.1530   31.8440   49.8960 H   0  0  0  0  0  0  0  0  0  0  0  0
   60.8550   27.9930   50.5776 H   0  0  0  0  0  0  0  0  0  0  0  0
   61.4781   28.7947   52.0793 H   0  0  0  0  0  0  0  0  0  0  0  0
   58.4694   29.7984   49.7559 H   0  0  0  0  0  0  0  0  0  0  0  0
   57.0767   29.5148   53.7305 H   0  0  0  0  0  0  0  0  0  0  0  0
   61.4669   33.4502   50.0412 H   0  0  0  0  0  0  0  0  0  0  0  0
   58.5164   32.6261   43.4694 H   0  0  0  0  0  0  0  0  0  0  0  0
   57.3394   31.6061   41.5137 H   0  0  0  0  0  0  0  0  0  0  0  0
   55.7493   29.7072   41.8733 H   0  0  0  0  0  0  0  0  0  0  0  0
   55.3539   28.8571   44.1942 H   0  0  0  0  0  0  0  0  0  0  0  0
  1  2  1  0
  2  3  1  0
  2  4  1  0
  4  5  1  0
  5  6  1  0
  6  7  1  0
  7  8  1  0
  8  9  1  0
  9 10  2  0
 10 11  1  0
 11 12  2  0
 12 13  1  0
 13 14  1  0
 14 15  1  0
 15 16  1  0
 16 17  1  0
 17 18  2  0
 18 19  1  0
 19 20  1  0
 20 21  2  0
 15 22  1  0
 22 23  2  0
 22 24  1  0
 24 25  1  0
 25 26  2  0
 26 27  1  0
 27 28  1  0
 28 29  2  0
 13 30  2  0
  6 31  2  0
 31 32  1  0
 32 33  1  0
 33 34  2  0
 34 35  1  0
 35 36  2  0
 36 37  1  0
 37 38  2  0
 32  4  2  0
 38 33  1  0
 30  9  1  0
 21 17  1  0
 29 25  1  0
  1 39  1  0
  1 40  1  0
  1 41  1  0
  3 42  1  0
  3 43  1  0
  3 44  1  0
  7 45  1  0
  7 46  1  0
 10 47  1  0
 11 48  1  0
 12 49  1  0
 14 50  1  0
 14 51  1  0
 16 52  1  0
 16 53  1  0
 18 54  1  0
 20 55  1  0
 21 56  1  0
 24 57  1  0
 24 58  1  0
 26 59  1  0
 28 60  1  0
 30 61  1  0
 34 62  1  0
 35 63  1  0
 36 64  1  0
 37 65  1  0
M  CHG  2  21   1  27  -1
M  END
>  <UniqueID>  (40) 
38

>  <SMILES>  (40) 
CN(C)c1oc(COc2cccc(CN(Cc3csc[nH+]3)C(=O)Cc3c[n-]cn3)c2)nc1-c1ccccn1

>  <Energy>  (40) 
155.7877934789331

>  <Genealogy>  (40) 
CN(C)c1oc(COc2cccc(CN(Cc3csc[nH+]3)C(=O)Cc3c[n-]cn3)c2)nc1-c1ccccn1 (protonated)
CN(C)c1oc(COc2cccc(CN(Cc3csc[nH+]3)C(=O)Cc3c[n-]cn3)c2)nc1-c1ccccn1 (3D coordinates assigned)
CN(C)c1oc(COc2cccc(CN(Cc3csc[nH+]3)C(=O)Cc3c[n-]cn3)c2)nc1-c1ccccn1 (optimized conformer: 155.7877934789331 kcal/mol)

>  <smiles>  (40) 
CN(C)c1oc(COc2cccc(CN(Cc3cscn3)C(=O)Cc3c[nH]cn3)c2)nc1-c1ccccn1

>  <score_type>  (40) 
oracle

>  <origin>  (40) 
adg

>  <m_score__min__energy>  (40) 
-8.9800000000000004

>  <m_primary>  (40) 
energy

$$$$
40:0
     RDKit          3D

 33 34  0  0  0  0  0  0  0  0999 V2000
   54.0580   26.3490   46.3780 H   0  0  0  0  0  0  0  0  0  0  0  0
   54.9840   26.6500   46.1030 O   0  0  0  0  0  0  0  0  0  0  0  0
   56.0970   25.8090   46.1470 C   0  0  0  0  0  0  0  0  0  0  0  0
   55.9190   24.4840   45.8980 N   0  0  0  0  0  0  0  0  0  0  0  0
   56.9520   23.6070   45.9640 C   0  0  0  0  0  0  0  0  0  0  0  0
   56.6970   22.0240   45.6600 S   0  0  0  0  0  0  0  0  0  0  0  0
   58.1930   24.0420   46.2960 N   0  0  0  0  0  0  0  0  0  0  0  0
   58.4320   25.3550   46.5490 C   0  0  0  0  0  0  0  0  0  0  0  0
   59.5980   25.7220   46.8520 O   0  0  0  0  0  0  0  0  0  0  0  0
   57.3860   26.2890   46.4610 C   0  0  0  0  0  0  0  0  0  0  0  0
   57.6510   27.7200   46.7260 C   0  0  0  0  0  0  0  0  0  0  0  0
   57.9108   28.0242   47.7507 H   0  0  0  0  0  0  0  0  0  0  0  0
   57.5890   28.6680   45.7710 C   0  0  0  0  0  0  0  0  0  0  0  0
   56.8140   28.6130   44.6210 C   0  0  0  0  0  0  0  0  0  0  0  0
   56.1344   27.8004   44.3247 H   0  0  0  0  0  0  0  0  0  0  0  0
   57.0620   29.7760   43.9220 C   0  0  0  0  0  0  0  0  0  0  0  0
   56.4530   30.1090   42.5940 C   0  0  0  0  0  0  0  0  0  0  0  0
   55.4975   30.6314   42.7494 H   0  0  0  0  0  0  0  0  0  0  0  0
   57.1381   30.7580   42.0288 H   0  0  0  0  0  0  0  0  0  0  0  0
   56.2763   29.1820   42.0288 H   0  0  0  0  0  0  0  0  0  0  0  0
   57.9690   30.5420   44.5760 N   0  0  0  0  0  0  0  0  0  0  0  0
   58.4450   31.8630   44.1360 C   0  0  0  0  0  0  0  0  0  0  0  0
   59.4935   31.9884   44.4442 H   0  0  0  0  0  0  0  0  0  0  0  0
   58.3552   31.9208   43.0412 H   0  0  0  0  0  0  0  0  0  0  0  0
   57.6040   32.9840   44.7540 C   0  0  0  0  0  0  0  0  0  0  0  0
   58.1699   33.4474   45.5756 H   0  0  0  0  0  0  0  0  0  0  0  0
   57.3811   33.7264   43.9735 H   0  0  0  0  0  0  0  0  0  0  0  0
   56.3940   32.4850   45.2550 O   0  0  0  0  0  0  0  0  0  0  0  0
   56.5880   31.5790   45.6130 H   0  0  0  0  0  0  0  0  0  0  0  0
   58.2920   29.8740   45.7160 C   0  0  0  0  0  0  0  0  0  0  0  0
   59.1560   30.3250   46.6410 C   0  0  0  0  0  0  0  0  0  0  0  0
   59.6581   31.2933   46.4988 H   0  0  0  0  0  0  0  0  0  0  0  0
   59.3612   29.7259   47.5404 H   0  0  0  0  0  0  0  0  0  0  0  0
  1  2  1  0
  2  3  1  0
  3  4  1  0
  4  5  1  0
  5  6  2  0
  5  7  1  0
  7  8  1  0
  8  9  2  0
  8 10  1  0
 10 11  1  0
 11 12  1  0
 11 13  2  0
 13 14  1  0
 14 15  1  0
 14 16  2  0
 16 17  1  0
 17 18  1  0
 17 19  1  0
 17 20  1  0
 16 21  1  0
 21 22  1  0
 22 23  1  0
 22 24  1  0
 22 25  1  0
 25 26  1  0
 25 27  1  0
 25 28  1  0
 28 29  1  0
 21 30  1  0
 30 31  2  0
 31 32  1  0
 31 33  1  0
 10  3  2  0
 30 13  1  0
M  CHG  2   4  -1   7  -1
M  END
>  <UniqueID>  (41) 
39

>  <SMILES>  (41) 
C=c1/c(=C/c2c(O)[n-]c(=S)[n-]c2=O)cc(C)n1CCO

>  <Energy>  (41) 
69.76418985254938

>  <Genealogy>  (41) 
C=c1c(=Cc2c(O)[n-]c(=S)[n-]c2=O)cc(C)n1CCO (protonated)
C=c1/c(=C/c2c(O)[n-]c(=S)[n-]c2=O)cc(C)n1CCO (cis-trans isomerization)
C=c1/c(=C/c2c(O)[n-]c(=S)[n-]c2=O)cc(C)n1CCO (3D coordinates assigned)
C=c1/c(=C/c2c(O)[n-]c(=S)[n-]c2=O)cc(C)n1CCO (optimized conformer: 69.76418985254938 kcal/mol)

>  <smiles>  (41) 
C=c1c(=Cc2c(O)[nH]c(=S)[nH]c2=O)cc(C)n1CCO

>  <score_type>  (41) 
oracle

>  <origin>  (41) 
adg

>  <m_score__min__energy>  (41) 
-11.06

>  <m_primary>  (41) 
energy

$$$$
41:0
     RDKit          3D

 36 38  0  0  0  0  0  0  0  0999 V2000
   57.7370   31.9280   43.4200 O   0  0  0  0  0  0  0  0  0  0  0  0
   57.4800   31.4510   44.5570 C   0  0  0  0  0  0  0  0  0  0  0  0
   57.1190   32.3560   45.6140 N   0  0  0  0  0  0  0  0  0  0  0  0
   57.9450   33.0460   46.3460 C   0  0  0  0  0  0  0  0  0  0  0  0
   58.2180   32.6800   47.6320 N   0  0  0  0  0  0  0  0  0  0  0  0
   59.0650   33.3930   48.4220 C   0  0  0  0  0  0  0  0  0  0  0  0
   59.6810   34.5420   47.9260 C   0  0  0  0  0  0  0  0  0  0  0  0
   59.4140   34.9480   46.6180 C   0  0  0  0  0  0  0  0  0  0  0  0
   58.5390   34.2030   45.8170 C   0  0  0  0  0  0  0  0  0  0  0  0
   58.2630   34.6020   44.5100 O   0  0  0  0  0  0  0  0  0  0  0  0
   57.6190   29.9920   44.7780 C   0  0  0  0  0  0  0  0  0  0  0  0
   57.7410   29.4830   46.0810 C   0  0  0  0  0  0  0  0  0  0  0  0
   57.8590   28.1070   46.2960 C   0  0  0  0  0  0  0  0  0  0  0  0
   57.8340   27.2150   45.2180 C   0  0  0  0  0  0  0  0  0  0  0  0
   57.9720   25.8100   45.4760 N   0  0  0  0  0  0  0  0  0  0  0  0
   57.1240   25.0130   46.3140 C   0  0  0  0  0  0  0  0  0  0  0  0
   57.4880   24.7830   47.4980 O   0  0  0  0  0  0  0  0  0  0  0  0
   55.8140   24.4960   45.8440 C   0  0  0  0  0  0  0  0  0  0  0  0
   54.7070   25.3490   45.6850 C   0  0  0  0  0  0  0  0  0  0  0  0
   54.7970   26.7010   45.9940 O   0  0  0  0  0  0  0  0  0  0  0  0
   53.5230   24.8490   45.2470 N   0  0  0  0  0  0  0  0  0  0  0  0
   53.3790   23.5310   44.9650 C   0  0  0  0  0  0  0  0  0  0  0  0
   52.2710   23.0920   44.5590 O   0  0  0  0  0  0  0  0  0  0  0  0
   54.4250   22.6830   45.1270 N   0  0  0  0  0  0  0  0  0  0  0  0
   55.6320   23.1300   45.5600 C   0  0  0  0  0  0  0  0  0  0  0  0
   56.5830   22.3120   45.6870 O   0  0  0  0  0  0  0  0  0  0  0  0
   57.7220   27.7200   43.9110 C   0  0  0  0  0  0  0  0  0  0  0  0
   57.6020   29.0960   43.6940 C   0  0  0  0  0  0  0  0  0  0  0  0
   59.2643   33.0635   49.4524 H   0  0  0  0  0  0  0  0  0  0  0  0
   60.3694   35.1214   48.5588 H   0  0  0  0  0  0  0  0  0  0  0  0
   59.8910   35.8538   46.2155 H   0  0  0  0  0  0  0  0  0  0  0  0
   57.6990   34.0320   43.8900 H   0  0  0  0  0  0  0  0  0  0  0  0
   57.7437   30.1720   46.9385 H   0  0  0  0  0  0  0  0  0  0  0  0
   57.9724   27.7223   47.3203 H   0  0  0  0  0  0  0  0  0  0  0  0
   57.7288   27.0294   43.0549 H   0  0  0  0  0  0  0  0  0  0  0  0
   57.4936   29.4802   42.6690 H   0  0  0  0  0  0  0  0  0  0  0  0
  1  2  2  0
  2  3  1  0
  3  4  2  3
  4  5  1  0
  5  6  1  0
  6  7  2  0
  7  8  1  0
  8  9  2  0
  9 10  1  0
  2 11  1  0
 11 12  2  0
 12 13  1  0
 13 14  2  0
 14 15  1  0
 15 16  1  0
 16 17  2  0
 16 18  1  0
 18 19  2  0
 19 20  1  0
 19 21  1  0
 21 22  1  0
 22 23  2  0
 22 24  1  0
 24 25  1  0
 25 26  2  0
 14 27  1  0
 27 28  2  0
  9  4  1  0
 28 11  1  0
 25 18  1  0
  6 29  1  0
  7 30  1  0
  8 31  1  0
 10 32  1  0
 12 33  1  0
 13 34  1  0
 27 35  1  0
 28 36  1  0
M  CHG  5   5  -1  15  -1  20  -1  21  -1  24  -1
M  END
>  <UniqueID>  (42) 
40

>  <SMILES>  (42) 
O=C(N=c1[n-]cccc1O)c1ccc([N-]C(=O)c2c([O-])[n-]c(=O)[n-]c2=O)cc1

>  <Energy>  (42) 
58.83318698062177

>  <Genealogy>  (42) 
O=C(N=c1[n-]cccc1O)c1ccc([N-]C(=O)c2c([O-])[n-]c(=O)[n-]c2=O)cc1 (protonated)
O=C(N=c1[n-]cccc1O)c1ccc([N-]C(=O)c2c([O-])[n-]c(=O)[n-]c2=O)cc1 (3D coordinates assigned)
O=C(N=c1[n-]cccc1O)c1ccc([N-]C(=O)c2c([O-])[n-]c(=O)[n-]c2=O)cc1 (optimized conformer: 58.83318698062177 kcal/mol)

>  <smiles>  (42) 
O=C(N=c1[nH]cccc1O)c1ccc(NC(=O)c2c(O)[nH]c(=O)[nH]c2=O)cc1

>  <score_type>  (42) 
oracle

>  <origin>  (42) 
adg

>  <m_score__min__energy>  (42) 
-17.100000000000001

>  <m_primary>  (42) 
energy

$$$$
42:0
     RDKit          3D

 44 47  0  0  0  0  0  0  0  0999 V2000
   57.4706   26.0103   43.3978 H   0  0  0  0  0  0  0  0  0  0  0  0
   57.4150   26.4420   44.4080 C   0  0  0  0  0  0  0  0  0  0  0  0
   56.9420   25.5630   45.4890 C   0  0  0  0  0  0  0  0  0  0  0  0
   57.6600   24.5620   46.0330 N   0  0  0  0  0  0  0  0  0  0  0  0
   56.8880   24.1480   47.0600 C   0  0  0  0  0  0  0  0  0  0  0  0
   57.2200   23.1970   47.8150 O   0  0  0  0  0  0  0  0  0  0  0  0
   55.7400   24.8390   47.2220 N   0  0  0  0  0  0  0  0  0  0  0  0
   55.7980   25.7400   46.2280 C   0  0  0  0  0  0  0  0  0  0  0  0
   54.8280   26.7080   46.0040 O   0  0  0  0  0  0  0  0  0  0  0  0
   57.7860   27.7300   44.5480 C   0  0  0  0  0  0  0  0  0  0  0  0
   57.4260   28.7140   43.6390 C   0  0  0  0  0  0  0  0  0  0  0  0
   56.8697   28.5681   42.7013 H   0  0  0  0  0  0  0  0  0  0  0  0
   57.8990   29.9100   44.1360 C   0  0  0  0  0  0  0  0  0  0  0  0
   57.7020   31.2440   43.4840 C   0  0  0  0  0  0  0  0  0  0  0  0
   57.5878   32.0172   44.2581 H   0  0  0  0  0  0  0  0  0  0  0  0
   58.5753   31.4785   42.8576 H   0  0  0  0  0  0  0  0  0  0  0  0
   56.7982   31.2161   42.8576 H   0  0  0  0  0  0  0  0  0  0  0  0
   58.5560   29.7090   45.2990 N   0  0  0  0  0  0  0  0  0  0  0  0
   59.2270   30.7300   46.0580 C   0  0  0  0  0  0  0  0  0  0  0  0
   58.5340   31.8850   46.4470 C   0  0  0  0  0  0  0  0  0  0  0  0
   57.4717   32.0012   46.1863 H   0  0  0  0  0  0  0  0  0  0  0  0
   59.1890   32.8890   47.1650 C   0  0  0  0  0  0  0  0  0  0  0  0
   58.6356   33.7845   47.4840 H   0  0  0  0  0  0  0  0  0  0  0  0
   60.5520   32.7590   47.4810 C   0  0  0  0  0  0  0  0  0  0  0  0
   61.2460   33.7860   48.2840 C   0  0  0  0  0  0  0  0  0  0  0  0
   60.7785   34.7798   48.3454 H   0  0  0  0  0  0  0  0  0  0  0  0
   62.4090   33.6050   48.9500 C   0  0  0  0  0  0  0  0  0  0  0  0
   62.4260   33.7010   50.4330 C   0  0  0  0  0  0  0  0  0  0  0  0
   61.3590   33.8560   51.0850 O   0  0  0  0  0  0  0  0  0  0  0  0
   63.6640   33.6370   51.1440 N   0  0  0  0  0  0  0  0  0  0  0  0
   64.9020   33.4560   50.4590 C   0  0  0  0  0  0  0  0  0  0  0  0
   65.9800   33.4400   51.1090 O   0  0  0  0  0  0  0  0  0  0  0  0
   64.9170   33.2810   49.0410 N   0  0  0  0  0  0  0  0  0  0  0  0
   65.8270   33.1060   48.5550 H   0  0  0  0  0  0  0  0  0  0  0  0
   63.7020   33.2760   48.2850 C   0  0  0  0  0  0  0  0  0  0  0  0
   63.7440   32.9340   47.0730 O   0  0  0  0  0  0  0  0  0  0  0  0
   61.2360   31.5920   47.1140 C   0  0  0  0  0  0  0  0  0  0  0  0
   62.2923   31.4654   47.3935 H   0  0  0  0  0  0  0  0  0  0  0  0
   60.5810   30.5880   46.3940 C   0  0  0  0  0  0  0  0  0  0  0  0
   61.1295   29.6842   46.0903 H   0  0  0  0  0  0  0  0  0  0  0  0
   58.5290   28.3750   45.5510 C   0  0  0  0  0  0  0  0  0  0  0  0
   59.2140   27.8000   46.5520 C   0  0  0  0  0  0  0  0  0  0  0  0
   59.7578   28.4245   47.2761 H   0  0  0  0  0  0  0  0  0  0  0  0
   59.2316   26.7044   46.6482 H   0  0  0  0  0  0  0  0  0  0  0  0
  1  2  1  0
  2  3  1  0
  3  4  1  0
  4  5  1  0
  5  6  2  0
  5  7  1  0
  7  8  1  0
  8  9  1  0
  2 10  2  3
 10 11  1  0
 11 12  1  0
 11 13  2  0
 13 14  1  0
 14 15  1  0
 14 16  1  0
 14 17  1  0
 13 18  1  0
 18 19  1  0
 19 20  2  0
 20 21  1  0
 20 22  1  0
 22 23  1  0
 22 24  2  0
 24 25  1  0
 25 26  1  0
 25 27  2  0
 27 28  1  0
 28 29  2  0
 28 30  1  0
 30 31  1  0
 31 32  2  0
 31 33  1  0
 33 34  1  0
 33 35  1  0
 35 36  2  0
 24 37  1  0
 37 38  1  0
 37 39  2  0
 39 40  1  0
 18 41  1  0
 41 42  2  0
 42 43  1  0
 42 44  1  0
  8  3  2  0
 41 10  1  0
 39 19  1  0
 35 27  1  0
M  CHG  4   4  -1   7  -1   9  -1  30  -1
M  END
>  <UniqueID>  (43) 
41

>  <SMILES>  (43) 
C=c1c(=Cc2[n-]c(=O)[n-]c2[O-])cc(C)n1-c1ccc(/C=C2/C(=O)[N-]C(=O)NC2=O)cc1

>  <Energy>  (43) 
131.17544961102885

>  <Genealogy>  (43) 
C=c1c(=Cc2[n-]c(=O)[n-]c2[O-])cc(C)n1-c1ccc(C=C2C(=O)[N-]C(=O)NC2=O)cc1 (protonated)
C=c1c(=Cc2[n-]c(=O)[n-]c2[O-])cc(C)n1-c1ccc(/C=C2/C(=O)[N-]C(=O)NC2=O)cc1 (cis-trans isomerization)
C=c1c(=Cc2[n-]c(=O)[n-]c2[O-])cc(C)n1-c1ccc(/C=C2/C(=O)[N-]C(=O)NC2=O)cc1 (3D coordinates assigned)
C=c1c(=Cc2[n-]c(=O)[n-]c2[O-])cc(C)n1-c1ccc(/C=C2/C(=O)[N-]C(=O)NC2=O)cc1 (nonaromatic ring conformer: 131.17544961102885 kcal/mol)

>  <smiles>  (43) 
C=c1c(=Cc2[nH]c(=O)[nH]c2O)cc(C)n1-c1ccc(C=C2C(=O)NC(=O)NC2=O)cc1

>  <score_type>  (43) 
oracle

>  <origin>  (43) 
adg

>  <m_score__min__energy>  (43) 
-17.050000000000001

>  <m_primary>  (43) 
energy

$$$$
43:0
     RDKit          3D

 44 46  0  0  0  0  0  0  0  0999 V2000
   58.8710   33.2890   53.6710 C   0  0  0  0  0  0  0  0  0  0  0  0
   58.8230   32.9460   52.3750 C   0  0  0  0  0  0  0  0  0  0  0  0
   59.1720   33.9070   51.4860 N   0  0  0  0  0  0  0  0  0  0  0  0
   59.3550   33.6540   50.1710 C   0  0  0  0  0  0  0  0  0  0  0  0
   59.6650   34.6100   49.4080 O   0  0  0  0  0  0  0  0  0  0  0  0
   59.2380   32.3790   49.6890 N   0  0  0  0  0  0  0  0  0  0  0  0
   59.4690   32.1010   48.2560 C   0  0  0  0  0  0  0  0  0  0  0  0
   60.8840   32.4520   47.8690 C   0  0  0  0  0  0  0  0  0  0  0  0
   61.9660   31.7560   48.4350 C   0  0  0  0  0  0  0  0  0  0  0  0
   63.2790   32.1000   48.0980 C   0  0  0  0  0  0  0  0  0  0  0  0
   63.5220   33.1410   47.1990 C   0  0  0  0  0  0  0  0  0  0  0  0
   62.4520   33.8390   46.6330 C   0  0  0  0  0  0  0  0  0  0  0  0
   61.1380   33.4990   46.9670 C   0  0  0  0  0  0  0  0  0  0  0  0
   58.8480   31.3670   50.5330 C   0  0  0  0  0  0  0  0  0  0  0  0
   58.7240   30.1960   50.0750 O   0  0  0  0  0  0  0  0  0  0  0  0
   58.5500   31.6270   51.8980 C   0  0  0  0  0  0  0  0  0  0  0  0
   57.9970   30.6290   52.6460 C   0  0  0  0  0  0  0  0  0  0  0  0
   56.6000   30.1500   52.5820 C   0  0  0  0  0  0  0  0  0  0  0  0
   55.6740   30.8580   51.8000 C   0  0  0  0  0  0  0  0  0  0  0  0
   54.3360   30.4520   51.7300 C   0  0  0  0  0  0  0  0  0  0  0  0
   53.4610   31.1860   50.9160 O   0  0  0  0  0  0  0  0  0  0  0  0
   52.0480   31.0040   50.8830 C   0  0  0  0  0  0  0  0  0  0  0  0
   51.3890   32.3240   50.6660 C   0  0  0  0  0  0  0  0  0  0  0  0
   51.0980   33.0550   51.6480 O   0  0  0  0  0  0  0  0  0  0  0  0
   51.0420   32.7250   49.3820 O   0  0  0  0  0  0  0  0  0  0  0  0
   53.9170   29.3330   52.4730 C   0  0  0  0  0  0  0  0  0  0  0  0
   54.8260   28.6440   53.2800 C   0  0  0  0  0  0  0  0  0  0  0  0
   56.1590   29.0530   53.3490 C   0  0  0  0  0  0  0  0  0  0  0  0
   57.0350   28.3750   54.1910 O   0  0  0  0  0  0  0  0  0  0  0  0
   58.6001   32.5553   54.4445 H   0  0  0  0  0  0  0  0  0  0  0  0
   59.1813   34.3039   53.9602 H   0  0  0  0  0  0  0  0  0  0  0  0
   59.2958   31.0321   48.0625 H   0  0  0  0  0  0  0  0  0  0  0  0
   58.7759   32.7126   47.6597 H   0  0  0  0  0  0  0  0  0  0  0  0
   61.7793   30.9375   49.1458 H   0  0  0  0  0  0  0  0  0  0  0  0
   64.1218   31.5498   48.5417 H   0  0  0  0  0  0  0  0  0  0  0  0
   64.5555   33.4113   46.9366 H   0  0  0  0  0  0  0  0  0  0  0  0
   62.6440   34.6573   45.9235 H   0  0  0  0  0  0  0  0  0  0  0  0
   60.2989   34.0536   46.5217 H   0  0  0  0  0  0  0  0  0  0  0  0
   58.6578   30.1301   53.3702 H   0  0  0  0  0  0  0  0  0  0  0  0
   56.0036   31.7426   51.2353 H   0  0  0  0  0  0  0  0  0  0  0  0
   51.7840   30.3214   50.0618 H   0  0  0  0  0  0  0  0  0  0  0  0
   51.7083   30.5734   51.8365 H   0  0  0  0  0  0  0  0  0  0  0  0
   52.8702   28.9995   52.4183 H   0  0  0  0  0  0  0  0  0  0  0  0
   54.4895   27.7747   53.8640 H   0  0  0  0  0  0  0  0  0  0  0  0
  1  2  2  0
  2  3  1  0
  3  4  1  0
  4  5  2  0
  4  6  1  0
  6  7  1  0
  7  8  1  0
  8  9  2  0
  9 10  1  0
 10 11  2  0
 11 12  1  0
 12 13  2  0
  6 14  1  0
 14 15  2  0
 14 16  1  0
 16 17  2  3
 17 18  1  0
 18 19  2  0
 19 20  1  0
 20 21  1  0
 21 22  1  0
 22 23  1  0
 23 24  2  0
 23 25  1  0
 20 26  2  0
 26 27  1  0
 27 28  2  0
 28 29  1  0
 16  2  1  0
 28 18  1  0
 13  8  1  0
  1 30  1  0
  1 31  1  0
  7 32  1  0
  7 33  1  0
  9 34  1  0
 10 35  1  0
 11 36  1  0
 12 37  1  0
 13 38  1  0
 17 39  1  0
 19 40  1  0
 22 41  1  0
 22 42  1  0
 26 43  1  0
 27 44  1  0
M  CHG  3   3  -1  25  -1  29  -1
M  END
>  <UniqueID>  (44) 
42

>  <SMILES>  (44) 
C=c1[n-]c(=O)n(Cc2ccccc2)c(=O)c1=Cc1cc(OCC(=O)[O-])ccc1[O-]

>  <Energy>  (44) 
72.6594492478076

>  <Genealogy>  (44) 
C=c1[n-]c(=O)n(Cc2ccccc2)c(=O)c1=Cc1cc(OCC(=O)[O-])ccc1[O-] (protonated)
C=c1[n-]c(=O)n(Cc2ccccc2)c(=O)c1=Cc1cc(OCC(=O)[O-])ccc1[O-] (3D coordinates assigned)
C=c1[n-]c(=O)n(Cc2ccccc2)c(=O)c1=Cc1cc(OCC(=O)[O-])ccc1[O-] (optimized conformer: 72.6594492478076 kcal/mol)

>  <smiles>  (44) 
C=c1[nH]c(=O)n(Cc2ccccc2)c(=O)c1=Cc1cc(OCC(=O)O)ccc1O

>  <score_type>  (44) 
oracle

>  <origin>  (44) 
adg

>  <m_score__min__energy>  (44) 
-14.42

>  <m_primary>  (44) 
energy

$$$$
44:0
     RDKit          3D

 38 40  0  0  0  0  0  0  0  0999 V2000
   57.5480   24.9090   44.5320 O   0  0  0  0  0  0  0  0  0  0  0  0
   56.9110   24.8330   45.6170 C   0  0  0  0  0  0  0  0  0  0  0  0
   56.1190   23.6000   45.9240 C   0  0  0  0  0  0  0  0  0  0  0  0
   54.6780   23.7960   45.5590 C   0  0  0  0  0  0  0  0  0  0  0  0
   53.8580   22.7980   45.1820 N   0  0  0  0  0  0  0  0  0  0  0  0
   52.6710   23.4170   45.0100 C   0  0  0  0  0  0  0  0  0  0  0  0
   51.6330   22.8050   44.6470 O   0  0  0  0  0  0  0  0  0  0  0  0
   52.6810   24.7420   45.2650 N   0  0  0  0  0  0  0  0  0  0  0  0
   53.9580   24.9690   45.6130 C   0  0  0  0  0  0  0  0  0  0  0  0
   54.4390   26.2230   45.9790 O   0  0  0  0  0  0  0  0  0  0  0  0
   56.8970   25.9290   46.5410 N   0  0  0  0  0  0  0  0  0  0  0  0
   57.7370   27.0940   46.5140 C   0  0  0  0  0  0  0  0  0  0  0  0
   58.8230   27.1550   47.3990 C   0  0  0  0  0  0  0  0  0  0  0  0
   59.6730   28.2620   47.4000 C   0  0  0  0  0  0  0  0  0  0  0  0
   59.4610   29.3100   46.4990 C   0  0  0  0  0  0  0  0  0  0  0  0
   58.4080   29.2490   45.5800 C   0  0  0  0  0  0  0  0  0  0  0  0
   58.2080   30.3540   44.6820 N   0  0  0  0  0  0  0  0  0  0  0  0
   57.4840   31.5580   44.9730 C   0  0  0  0  0  0  0  0  0  0  0  0
   56.2460   31.5840   44.7510 O   0  0  0  0  0  0  0  0  0  0  0  0
   58.1470   32.7520   45.5450 C   0  0  0  0  0  0  0  0  0  0  0  0
   58.6080   33.7860   44.7120 C   0  0  0  0  0  0  0  0  0  0  0  0
   59.2250   34.9130   45.2630 C   0  0  0  0  0  0  0  0  0  0  0  0
   59.3910   35.0140   46.6470 C   0  0  0  0  0  0  0  0  0  0  0  0
   58.9400   33.9910   47.4820 C   0  0  0  0  0  0  0  0  0  0  0  0
   58.3280   32.8590   46.9350 C   0  0  0  0  0  0  0  0  0  0  0  0
   57.5400   28.1420   45.5950 C   0  0  0  0  0  0  0  0  0  0  0  0
   56.5264   22.7557   45.3486 H   0  0  0  0  0  0  0  0  0  0  0  0
   56.1875   23.3929   47.0022 H   0  0  0  0  0  0  0  0  0  0  0  0
   55.0790   26.3400   46.7530 H   0  0  0  0  0  0  0  0  0  0  0  0
   59.0062   26.3249   48.0971 H   0  0  0  0  0  0  0  0  0  0  0  0
   60.5111   28.3101   48.1108 H   0  0  0  0  0  0  0  0  0  0  0  0
   60.1254   30.1866   46.5129 H   0  0  0  0  0  0  0  0  0  0  0  0
   58.4828   33.7081   43.6219 H   0  0  0  0  0  0  0  0  0  0  0  0
   59.5802   35.7211   44.6066 H   0  0  0  0  0  0  0  0  0  0  0  0
   59.8778   35.9010   47.0786 H   0  0  0  0  0  0  0  0  0  0  0  0
   59.0660   34.0752   48.5715 H   0  0  0  0  0  0  0  0  0  0  0  0
   57.9865   32.0483   47.5955 H   0  0  0  0  0  0  0  0  0  0  0  0
   56.7020   28.0950   44.8840 H   0  0  0  0  0  0  0  0  0  0  0  0
  1  2  2  0
  2  3  1  0
  3  4  1  0
  4  5  1  0
  5  6  1  0
  6  7  2  0
  6  8  1  0
  8  9  1  0
  9 10  1  0
  2 11  1  0
 11 12  1  0
 12 13  2  0
 13 14  1  0
 14 15  2  0
 15 16  1  0
 16 17  1  0
 17 18  1  0
 18 19  2  0
 18 20  1  0
 20 21  2  0
 21 22  1  0
 22 23  2  0
 23 24  1  0
 24 25  2  0
 16 26  2  0
  9  4  2  0
 26 12  1  0
 25 20  1  0
  3 27  1  0
  3 28  1  0
 10 29  1  0
 13 30  1  0
 14 31  1  0
 15 32  1  0
 21 33  1  0
 22 34  1  0
 23 35  1  0
 24 36  1  0
 25 37  1  0
 26 38  1  0
M  CHG  4   5  -1   8  -1  11  -1  17  -1
M  END
>  <UniqueID>  (45) 
43

>  <SMILES>  (45) 
O=C(Cc1[n-]c(=O)[n-]c1O)[N-]c1cccc([N-]C(=O)c2ccccc2)c1

>  <Energy>  (45) 
77.79877122015225

>  <Genealogy>  (45) 
O=C(Cc1[n-]c(=O)[n-]c1O)[N-]c1cccc([N-]C(=O)c2ccccc2)c1 (protonated)
O=C(Cc1[n-]c(=O)[n-]c1O)[N-]c1cccc([N-]C(=O)c2ccccc2)c1 (3D coordinates assigned)
O=C(Cc1[n-]c(=O)[n-]c1O)[N-]c1cccc([N-]C(=O)c2ccccc2)c1 (optimized conformer: 77.79877122015225 kcal/mol)

>  <smiles>  (45) 
O=C(Cc1[nH]c(=O)[nH]c1O)Nc1cccc(NC(=O)c2ccccc2)c1

>  <score_type>  (45) 
oracle

>  <origin>  (45) 
adg

>  <m_score__min__energy>  (45) 
-15.58

>  <m_primary>  (45) 
energy

$$$$
45:0
     RDKit          3D

 38 40  0  0  1  0  0  0  0  0999 V2000
   58.6230   32.0430   50.0110 C   0  0  0  0  0  0  0  0  0  0  0  0
   59.0770   32.8340   48.9340 O   0  0  0  0  0  0  0  0  0  0  0  0
   60.3700   32.6180   48.4710 C   0  0  0  0  0  0  0  0  0  0  0  0
   61.4250   33.4600   48.7560 C   0  0  0  0  0  0  0  0  0  0  0  0
   62.7090   33.2180   48.2780 C   0  0  0  0  0  0  0  0  0  0  0  0
   62.9540   32.0980   47.4880 C   0  0  0  0  0  0  0  0  0  0  0  0
   61.8990   31.2430   47.1950 C   0  0  0  0  0  0  0  0  0  0  0  0
   60.6270   31.5120   47.6870 C   0  0  0  0  0  0  0  0  0  0  0  0
   59.5910   30.6670   47.3960 O   0  0  0  0  0  0  0  0  0  0  0  0
   59.6770   29.4270   46.8260 C   0  0  0  0  0  0  0  0  0  0  0  0
   60.1700   28.2960   47.3040 C   0  0  0  0  0  0  0  0  0  0  0  0
   60.0280   27.2450   46.3050 C   0  0  0  0  0  0  0  0  0  0  0  0
   60.3720   26.0340   46.3700 O   0  0  0  0  0  0  0  0  0  0  0  0
   59.3940   27.8950   45.1860 N   0  0  0  0  0  0  0  0  0  0  0  0
   59.1870   29.1330   45.4640 C   0  0  0  0  0  0  0  0  0  0  0  0
   58.5490   30.1100   44.5420 C   0  0  0  0  0  0  0  0  0  0  0  0
   57.1290   30.3260   44.9010 C   0  0  0  0  0  0  0  0  0  0  0  0
   56.3580   29.3880   45.2440 O   0  0  0  0  0  0  0  0  0  0  0  0
   56.6580   31.6850   44.8400 N   0  0  0  0  0  0  0  0  0  0  0  0
   57.4080   32.6720   45.1960 C   0  0  0  0  0  0  0  0  0  0  0  0
   57.7610   33.8030   44.4940 C   0  0  0  0  0  0  0  0  0  0  0  0
   58.5870   34.5800   45.2920 C   0  0  0  0  0  0  0  0  0  0  0  0
   58.7170   33.9120   46.4510 N   0  0  0  0  0  0  0  0  0  0  0  0
   58.0190   32.7860   46.3870 N   0  0  0  0  0  0  0  0  0  0  0  0
   58.8990   32.5239   50.9610 H   0  0  0  0  0  0  0  0  0  0  0  0
   57.5291   31.9414   49.9557 H   0  0  0  0  0  0  0  0  0  0  0  0
   59.0870   31.0472   49.9557 H   0  0  0  0  0  0  0  0  0  0  0  0
   61.2458   34.3485   49.3793 H   0  0  0  0  0  0  0  0  0  0  0  0
   63.5284   33.9096   48.5235 H   0  0  0  0  0  0  0  0  0  0  0  0
   63.9640   31.8940   47.1031 H   0  0  0  0  0  0  0  0  0  0  0  0
   62.0704   30.3521   46.5730 H   0  0  0  0  0  0  0  0  0  0  0  0
   60.6175   28.1690   48.3008 H   0  0  0  0  0  0  0  0  0  0  0  0
   59.0860   31.0680   44.6047 H   0  0  0  0  0  0  0  0  0  0  0  0
   58.5957   29.7095   43.5186 H   0  0  0  0  0  0  0  0  0  0  0  0
   57.4410   34.0490   43.4707 H   0  0  0  0  0  0  0  0  0  0  0  0
   59.0429   35.5462   45.0299 H   0  0  0  0  0  0  0  0  0  0  0  0
   59.2830   34.2410   47.2610 H   0  0  0  0  0  0  0  0  0  0  0  0
   57.9850   32.1170   47.1860 H   0  0  0  0  0  0  0  0  0  0  0  0
  1  2  1  0
  2  3  1  0
  3  4  2  0
  4  5  1  0
  5  6  2  0
  6  7  1  0
  7  8  2  0
  8  9  1  0
  9 10  1  0
 10 11  2  0
 11 12  1  0
 12 13  2  0
 12 14  1  0
 14 15  2  0
 15 16  1  0
 16 17  1  0
 17 18  2  0
 17 19  1  0
 19 20  2  0
 20 21  1  0
 21 22  2  0
 22 23  1  0
 23 24  1  0
  8  3  1  0
 15 10  1  0
 24 20  1  0
  1 25  1  0
  1 26  1  0
  1 27  1  0
  4 28  1  0
  5 29  1  0
  6 30  1  0
  7 31  1  0
 11 32  1  0
 16 33  1  0
 16 34  1  0
 21 35  1  0
 22 36  1  0
 23 37  1  0
 24 38  1  0
M  END
>  <smiles>  (46) 
COc1ccccc1OC1=CC(=O)N=C1CC(=O)N=c1cc[nH][nH]1

>  <score_type>  (46) 
oracle

>  <origin>  (46) 
adg

>  <m_score__min__energy>  (46) 
-7.7199999999999998

>  <m_primary>  (46) 
energy

$$$$
46:0
     RDKit          3D

 60 63  0  0  0  0  0  0  0  0999 V2000
   59.1690   26.5290   45.2230 O   0  0  0  0  0  0  0  0  0  0  0  0
   59.0290   26.4230   46.4730 C   0  0  0  0  0  0  0  0  0  0  0  0
   57.8170   25.7350   47.0270 C   0  0  0  0  0  0  0  0  0  0  0  0
   57.2010   24.8630   46.0150 N   0  0  0  0  0  0  0  0  0  0  0  0
   57.9180   23.8080   45.5180 C   0  0  0  0  0  0  0  0  0  0  0  0
   57.3660   22.9690   44.5560 C   0  0  0  0  0  0  0  0  0  0  0  0
   56.0670   23.2190   44.1170 C   0  0  0  0  0  0  0  0  0  0  0  0
   55.5380   22.4820   43.2470 O   0  0  0  0  0  0  0  0  0  0  0  0
   55.3700   24.2580   44.6390 N   0  0  0  0  0  0  0  0  0  0  0  0
   55.9150   25.0730   45.5810 C   0  0  0  0  0  0  0  0  0  0  0  0
   55.2240   26.0210   46.0440 O   0  0  0  0  0  0  0  0  0  0  0  0
   59.9790   27.0160   47.3600 N   0  0  0  0  0  0  0  0  0  0  0  0
   59.6240   28.0640   48.3080 C   0  0  0  0  0  0  0  0  0  0  0  0
   60.3610   29.3230   47.9750 C   0  0  0  0  0  0  0  0  0  0  0  0
   61.3190   30.1500   49.0820 S   0  0  0  0  0  0  0  0  0  0  0  0
   61.8450   31.3430   48.0240 C   0  0  0  0  0  0  0  0  0  0  0  0
   62.9090   32.3090   48.3160 C   0  0  0  0  0  0  0  0  0  0  0  0
   64.0760   31.9120   48.5840 O   0  0  0  0  0  0  0  0  0  0  0  0
   62.5820   33.6980   48.4180 N   0  0  0  0  0  0  0  0  0  0  0  0
   61.4070   34.1480   49.1610 C   0  0  0  0  0  0  0  0  0  0  0  0
   60.1670   33.8710   48.3510 C   0  0  0  0  0  0  0  0  0  0  0  0
   59.1160   33.1200   48.9020 C   0  0  0  0  0  0  0  0  0  0  0  0
   58.0260   32.7440   48.1150 C   0  0  0  0  0  0  0  0  0  0  0  0
   57.9720   33.0990   46.7630 C   0  0  0  0  0  0  0  0  0  0  0  0
   56.8750   32.6830   46.0050 O   0  0  0  0  0  0  0  0  0  0  0  0
   59.0210   33.8540   46.2000 C   0  0  0  0  0  0  0  0  0  0  0  0
   58.9970   34.3170   44.5030 Cl  0  0  0  0  0  0  0  0  0  0  0  0
   60.1140   34.2360   46.9930 C   0  0  0  0  0  0  0  0  0  0  0  0
   61.1380   34.9360   46.4340 F   0  0  0  0  0  0  0  0  0  0  0  0
   61.2880   31.1040   46.7740 C   0  0  0  0  0  0  0  0  0  0  0  0
   60.4570   29.9680   46.7280 C   0  0  0  0  0  0  0  0  0  0  0  0
   59.8430   29.4880   45.4660 C   0  0  0  0  0  0  0  0  0  0  0  0
   60.4940   28.7700   44.6660 O   0  0  0  0  0  0  0  0  0  0  0  0
   58.5000   29.8530   45.1220 N   0  0  0  0  0  0  0  0  0  0  0  0
   58.2640   31.0280   44.2780 C   0  0  0  0  0  0  0  0  0  0  0  0
   57.0380   30.7880   43.3980 C   0  0  0  0  0  0  0  0  0  0  0  0
   55.8940   30.3780   44.2240 N   0  0  0  0  0  0  0  0  0  0  0  0
   56.1800   29.1050   44.9000 C   0  0  0  0  0  0  0  0  0  0  0  0
   57.3730   29.2630   45.8480 C   0  0  0  0  0  0  0  0  0  0  0  0
   58.1129   25.1269   47.8946 H   0  0  0  0  0  0  0  0  0  0  0  0
   57.0844   26.4992   47.3259 H   0  0  0  0  0  0  0  0  0  0  0  0
   58.9391   23.6224   45.8826 H   0  0  0  0  0  0  0  0  0  0  0  0
   57.9429   22.1251   44.1498 H   0  0  0  0  0  0  0  0  0  0  0  0
   58.5412   28.2508   48.2566 H   0  0  0  0  0  0  0  0  0  0  0  0
   59.8980   27.7418   49.3234 H   0  0  0  0  0  0  0  0  0  0  0  0
   61.3487   33.6082   50.1177 H   0  0  0  0  0  0  0  0  0  0  0  0
   61.4859   35.2279   49.3548 H   0  0  0  0  0  0  0  0  0  0  0  0
   59.1519   32.8259   49.9613 H   0  0  0  0  0  0  0  0  0  0  0  0
   57.2041   32.1647   48.5610 H   0  0  0  0  0  0  0  0  0  0  0  0
   56.6570   31.7110   45.8460 H   0  0  0  0  0  0  0  0  0  0  0  0
   61.4787   31.7438   45.8998 H   0  0  0  0  0  0  0  0  0  0  0  0
   58.0909   31.9078   44.9152 H   0  0  0  0  0  0  0  0  0  0  0  0
   59.1432   31.2028   43.6405 H   0  0  0  0  0  0  0  0  0  0  0  0
   56.7866   31.7162   42.8639 H   0  0  0  0  0  0  0  0  0  0  0  0
   57.2646   29.9894   42.6762 H   0  0  0  0  0  0  0  0  0  0  0  0
   55.0770   30.2270   43.5870 H   0  0  0  0  0  0  0  0  0  0  0  0
   55.2966   28.7940   45.4770 H   0  0  0  0  0  0  0  0  0  0  0  0
   56.4225   28.3444   44.1432 H   0  0  0  0  0  0  0  0  0  0  0  0
   57.0919   29.9196   46.6846 H   0  0  0  0  0  0  0  0  0  0  0  0
   57.6644   28.2764   46.2375 H   0  0  0  0  0  0  0  0  0  0  0  0
  1  2  2  0
  2  3  1  0
  3  4  1  0
  4  5  1  0
  5  6  2  0
  6  7  1  0
  7  8  2  0
  7  9  1  0
  9 10  1  0
 10 11  2  0
  2 12  1  0
 12 13  1  0
 13 14  1  0
 14 15  1  0
 15 16  1  0
 16 17  1  0
 17 18  2  0
 17 19  1  0
 19 20  1  0
 20 21  1  0
 21 22  2  0
 22 23  1  0
 23 24  2  0
 24 25  1  0
 24 26  1  0
 26 27  1  0
 26 28  2  0
 28 29  1  0
 16 30  2  0
 30 31  1  0
 31 32  1  0
 32 33  2  0
 32 34  1  0
 34 35  1  0
 35 36  1  0
 36 37  1  0
 37 38  1  0
 38 39  1  0
 10  4  1  0
 31 14  2  0
 39 34  1  0
 28 21  1  0
  3 40  1  0
  3 41  1  0
  5 42  1  0
  6 43  1  0
 13 44  1  0
 13 45  1  0
 20 46  1  0
 20 47  1  0
 22 48  1  0
 23 49  1  0
 25 50  1  0
 30 51  1  0
 35 52  1  0
 35 53  1  0
 36 54  1  0
 36 55  1  0
 37 56  1  0
 38 57  1  0
 38 58  1  0
 39 59  1  0
 39 60  1  0
M  CHG  3   9  -1  12  -1  19  -1
M  END
>  <UniqueID>  (47) 
44

>  <SMILES>  (47) 
O=C(Cn1ccc(=O)[n-]c1=O)[N-]Cc1sc(C(=O)[N-]Cc2ccc(O)c(Cl)c2F)cc1C(=O)N1CCNCC1

>  <Energy>  (47) 
96.25132919631079

>  <Genealogy>  (47) 
O=C(Cn1ccc(=O)[n-]c1=O)[N-]Cc1sc(C(=O)[N-]Cc2ccc(O)c(Cl)c2F)cc1C(=O)N1CCNCC1 (protonated)
O=C(Cn1ccc(=O)[n-]c1=O)[N-]Cc1sc(C(=O)[N-]Cc2ccc(O)c(Cl)c2F)cc1C(=O)N1CCNCC1 (3D coordinates assigned)
O=C(Cn1ccc(=O)[n-]c1=O)[N-]Cc1sc(C(=O)[N-]Cc2ccc(O)c(Cl)c2F)cc1C(=O)N1CCNCC1 (nonaromatic ring conformer: 96.25132919631079 kcal/mol)

>  <smiles>  (47) 
O=C(Cn1ccc(=O)[nH]c1=O)NCc1sc(C(=O)NCc2ccc(O)c(Cl)c2F)cc1C(=O)N1CCNCC1

>  <score_type>  (47) 
oracle

>  <origin>  (47) 
adg

>  <m_score__min__energy>  (47) 
-13.880000000000001

>  <m_primary>  (47) 
energy

$$$$
47:0
     RDKit          3D

 62 65  0  0  0  0  0  0  0  0999 V2000
   56.8150   30.3620   43.2340 C   0  0  0  0  0  0  0  0  0  0  0  0
   56.2930   29.6820   44.4650 C   0  0  0  0  0  0  0  0  0  0  0  0
   55.0580   29.4520   44.5560 O   0  0  0  0  0  0  0  0  0  0  0  0
   57.1630   29.2620   45.5280 N   0  0  0  0  0  0  0  0  0  0  0  0
   58.0510   30.1020   46.2760 C   0  0  0  0  0  0  0  0  0  0  0  0
   58.2320   31.4300   45.8690 C   0  0  0  0  0  0  0  0  0  0  0  0
   59.0880   32.2740   46.5820 C   0  0  0  0  0  0  0  0  0  0  0  0
   59.7480   31.8060   47.7220 C   0  0  0  0  0  0  0  0  0  0  0  0
   59.5360   30.4890   48.1700 C   0  0  0  0  0  0  0  0  0  0  0  0
   60.1550   29.9670   49.3190 O   0  0  0  0  0  0  0  0  0  0  0  0
   59.4970   29.7050   50.5640 C   0  0  0  0  0  0  0  0  0  0  0  0
   59.1960   31.0040   51.2760 C   0  0  0  0  0  0  0  0  0  0  0  0
   58.0350   31.7300   50.9510 C   0  0  0  0  0  0  0  0  0  0  0  0
   57.7250   32.9120   51.6280 C   0  0  0  0  0  0  0  0  0  0  0  0
   58.5650   33.3800   52.6370 C   0  0  0  0  0  0  0  0  0  0  0  0
   59.7220   32.6760   52.9650 C   0  0  0  0  0  0  0  0  0  0  0  0
   60.0600   31.4920   52.2800 C   0  0  0  0  0  0  0  0  0  0  0  0
   61.2450   30.7910   52.5650 O   0  0  0  0  0  0  0  0  0  0  0  0
   61.4400   29.9570   53.7070 C   0  0  0  0  0  0  0  0  0  0  0  0
   60.1130   29.5910   54.3070 C   0  0  0  0  0  0  0  0  0  0  0  0
   59.2080   28.6930   53.7810 C   0  0  0  0  0  0  0  0  0  0  0  0
   58.0900   28.8530   54.5730 C   0  0  0  0  0  0  0  0  0  0  0  0
   56.7680   28.1760   54.3690 C   0  0  0  0  0  0  0  0  0  0  0  0
   56.0670   28.6610   53.0950 C   0  0  0  0  0  0  0  0  0  0  0  0
   55.1280   29.7370   53.3870 N   0  0  0  0  0  0  0  0  0  0  0  0
   54.1380   30.1870   52.4520 C   0  0  0  0  0  0  0  0  0  0  0  0
   54.3800   30.1230   51.2150 O   0  0  0  0  0  0  0  0  0  0  0  0
   52.8300   30.7030   52.9380 C   0  0  0  0  0  0  0  0  0  0  0  0
   52.2920   30.2090   54.1440 C   0  0  0  0  0  0  0  0  0  0  0  0
   51.0690   30.6770   54.6270 C   0  0  0  0  0  0  0  0  0  0  0  0
   50.3520   31.6310   53.9060 C   0  0  0  0  0  0  0  0  0  0  0  0
   50.8650   32.1340   52.7060 C   0  0  0  0  0  0  0  0  0  0  0  0
   50.1330   33.0850   51.9980 O   0  0  0  0  0  0  0  0  0  0  0  0
   52.1050   31.6830   52.2180 C   0  0  0  0  0  0  0  0  0  0  0  0
   52.6240   32.2140   51.0320 O   0  0  0  0  0  0  0  0  0  0  0  0
   58.3280   29.7750   55.5230 N   0  0  0  0  0  0  0  0  0  0  0  0
   59.5610   30.2350   55.3540 N   0  0  0  0  0  0  0  0  0  0  0  0
   58.6910   29.6450   47.4400 C   0  0  0  0  0  0  0  0  0  0  0  0
   57.4608   31.2033   43.5258 H   0  0  0  0  0  0  0  0  0  0  0  0
   57.3959   29.6438   42.6368 H   0  0  0  0  0  0  0  0  0  0  0  0
   55.9710   30.7376   42.6368 H   0  0  0  0  0  0  0  0  0  0  0  0
   57.6986   31.8100   44.9852 H   0  0  0  0  0  0  0  0  0  0  0  0
   59.2428   33.3096   46.2451 H   0  0  0  0  0  0  0  0  0  0  0  0
   60.4343   32.4685   48.2698 H   0  0  0  0  0  0  0  0  0  0  0  0
   58.5559   29.1687   50.3723 H   0  0  0  0  0  0  0  0  0  0  0  0
   60.1552   29.0917   51.1969 H   0  0  0  0  0  0  0  0  0  0  0  0
   57.3665   31.3639   50.1578 H   0  0  0  0  0  0  0  0  0  0  0  0
   56.8169   33.4740   51.3645 H   0  0  0  0  0  0  0  0  0  0  0  0
   58.3143   34.3061   53.1750 H   0  0  0  0  0  0  0  0  0  0  0  0
   60.3775   33.0481   53.7661 H   0  0  0  0  0  0  0  0  0  0  0  0
   61.9678   29.0409   53.4034 H   0  0  0  0  0  0  0  0  0  0  0  0
   62.0369   30.5007   54.4540 H   0  0  0  0  0  0  0  0  0  0  0  0
   59.3454   28.0098   52.9299 H   0  0  0  0  0  0  0  0  0  0  0  0
   56.9322   27.0910   54.2933 H   0  0  0  0  0  0  0  0  0  0  0  0
   56.1240   28.4212   55.2264 H   0  0  0  0  0  0  0  0  0  0  0  0
   56.8241   29.0280   52.3864 H   0  0  0  0  0  0  0  0  0  0  0  0
   55.5075   27.8182   52.6629 H   0  0  0  0  0  0  0  0  0  0  0  0
   52.8433   29.4448   54.7116 H   0  0  0  0  0  0  0  0  0  0  0  0
   50.6704   30.2928   55.5775 H   0  0  0  0  0  0  0  0  0  0  0  0
   49.3818   31.9884   54.2814 H   0  0  0  0  0  0  0  0  0  0  0  0
   53.5860   32.0660   50.7490 H   0  0  0  0  0  0  0  0  0  0  0  0
   58.5263   28.6124   47.7816 H   0  0  0  0  0  0  0  0  0  0  0  0
  1  2  1  0
  2  3  2  0
  2  4  1  0
  4  5  1  0
  5  6  2  0
  6  7  1  0
  7  8  2  0
  8  9  1  0
  9 10  1  0
 10 11  1  0
 11 12  1  0
 12 13  2  0
 13 14  1  0
 14 15  2  0
 15 16  1  0
 16 17  2  0
 17 18  1  0
 18 19  1  0
 19 20  1  0
 20 21  2  0
 21 22  1  0
 22 23  1  0
 23 24  1  0
 24 25  1  0
 25 26  1  0
 26 27  2  0
 26 28  1  0
 28 29  2  0
 29 30  1  0
 30 31  2  0
 31 32  1  0
 32 33  1  0
 32 34  2  0
 34 35  1  0
 22 36  2  0
 36 37  1  0
  9 38  2  0
 38  5  1  0
 17 12  1  0
 37 20  1  0
 34 28  1  0
  1 39  1  0
  1 40  1  0
  1 41  1  0
  6 42  1  0
  7 43  1  0
  8 44  1  0
 11 45  1  0
 11 46  1  0
 13 47  1  0
 14 48  1  0
 15 49  1  0
 16 50  1  0
 19 51  1  0
 19 52  1  0
 21 53  1  0
 23 54  1  0
 23 55  1  0
 24 56  1  0
 24 57  1  0
 29 58  1  0
 30 59  1  0
 31 60  1  0
 35 61  1  0
 38 62  1  0
M  CHG  4   4  -1  25  -1  33  -1  37  -1
M  END
>  <UniqueID>  (48) 
45

>  <SMILES>  (48) 
CC(=O)[N-]c1cccc(OCc2ccccc2OCc2cc(CC[N-]C(=O)c3cccc([O-])c3O)n[n-]2)c1

>  <Energy>  (48) 
100.4320142462852

>  <Genealogy>  (48) 
CC(=O)[N-]c1cccc(OCc2ccccc2OCc2cc(CC[N-]C(=O)c3cccc([O-])c3O)n[n-]2)c1 (protonated)
CC(=O)[N-]c1cccc(OCc2ccccc2OCc2cc(CC[N-]C(=O)c3cccc([O-])c3O)n[n-]2)c1 (3D coordinates assigned)
CC(=O)[N-]c1cccc(OCc2ccccc2OCc2cc(CC[N-]C(=O)c3cccc([O-])c3O)n[n-]2)c1 (optimized conformer: 100.4320142462852 kcal/mol)

>  <smiles>  (48) 
CC(=O)Nc1cccc(OCc2ccccc2OCc2cc(CCNC(=O)c3cccc(O)c3O)n[nH]2)c1

>  <score_type>  (48) 
oracle

>  <origin>  (48) 
adg

>  <m_score__min__energy>  (48) 
-16.890000000000001

>  <m_primary>  (48) 
energy

$$$$
48:0
     RDKit          3D

 46 49  0  0  0  0  0  0  0  0999 V2000
   55.4340   30.0820   44.4820 O   0  0  0  0  0  0  0  0  0  0  0  0
   56.6850   30.1220   44.3170 C   0  0  0  0  0  0  0  0  0  0  0  0
   57.3820   28.9370   43.6940 C   0  0  0  0  0  0  0  0  0  0  0  0
   58.3010   28.2940   44.6440 N   0  0  0  0  0  0  0  0  0  0  0  0
   59.6440   28.5220   44.5470 C   0  0  0  0  0  0  0  0  0  0  0  0
   60.5330   27.8950   45.4200 C   0  0  0  0  0  0  0  0  0  0  0  0
   60.0440   27.0280   46.3940 C   0  0  0  0  0  0  0  0  0  0  0  0
   58.6630   26.7920   46.4970 C   0  0  0  0  0  0  0  0  0  0  0  0
   58.0740   25.8670   47.4970 C   0  0  0  0  0  0  0  0  0  0  0  0
   57.4010   24.7500   47.1780 C   0  0  0  0  0  0  0  0  0  0  0  0
   56.4070   24.6910   46.0870 C   0  0  0  0  0  0  0  0  0  0  0  0
   55.4680   25.5320   46.0930 O   0  0  0  0  0  0  0  0  0  0  0  0
   56.4890   23.7240   44.9740 C   0  0  0  0  0  0  0  0  0  0  0  0
   56.5380   24.0490   43.6310 C   0  0  0  0  0  0  0  0  0  0  0  0
   56.6330   22.8480   42.9600 C   0  0  0  0  0  0  0  0  0  0  0  0
   56.6420   21.8670   43.9300 C   0  0  0  0  0  0  0  0  0  0  0  0
   56.5580   22.4210   45.1180 O   0  0  0  0  0  0  0  0  0  0  0  0
   57.8070   27.4350   45.5880 C   0  0  0  0  0  0  0  0  0  0  0  0
   57.4340   31.3450   44.7190 C   0  0  0  0  0  0  0  0  0  0  0  0
   57.7610   32.3430   43.7810 C   0  0  0  0  0  0  0  0  0  0  0  0
   58.4650   33.4860   44.1700 C   0  0  0  0  0  0  0  0  0  0  0  0
   58.8530   33.6560   45.5050 C   0  0  0  0  0  0  0  0  0  0  0  0
   59.5600   34.8020   45.9040 C   0  0  0  0  0  0  0  0  0  0  0  0
   59.9420   34.9610   47.2400 C   0  0  0  0  0  0  0  0  0  0  0  0
   59.6230   33.9810   48.1830 C   0  0  0  0  0  0  0  0  0  0  0  0
   58.9190   32.8370   47.7970 C   0  0  0  0  0  0  0  0  0  0  0  0
   58.5290   32.6650   46.4600 C   0  0  0  0  0  0  0  0  0  0  0  0
   57.8230   31.5190   46.0610 C   0  0  0  0  0  0  0  0  0  0  0  0
   56.6261   28.2041   43.3757 H   0  0  0  0  0  0  0  0  0  0  0  0
   57.9675   29.2932   42.8336 H   0  0  0  0  0  0  0  0  0  0  0  0
   60.0275   29.2051   43.7748 H   0  0  0  0  0  0  0  0  0  0  0  0
   61.6136   28.0842   45.3396 H   0  0  0  0  0  0  0  0  0  0  0  0
   60.7398   26.5275   47.0834 H   0  0  0  0  0  0  0  0  0  0  0  0
   58.1961   26.1111   48.5626 H   0  0  0  0  0  0  0  0  0  0  0  0
   57.5992   23.8356   47.7564 H   0  0  0  0  0  0  0  0  0  0  0  0
   56.5075   25.0561   43.1896 H   0  0  0  0  0  0  0  0  0  0  0  0
   56.6901   22.7017   41.8713 H   0  0  0  0  0  0  0  0  0  0  0  0
   56.7092   20.7860   43.7379 H   0  0  0  0  0  0  0  0  0  0  0  0
   56.7245   27.2456   45.6354 H   0  0  0  0  0  0  0  0  0  0  0  0
   57.4590   32.2217   42.7303 H   0  0  0  0  0  0  0  0  0  0  0  0
   58.7154   34.2552   43.4246 H   0  0  0  0  0  0  0  0  0  0  0  0
   59.8137   35.5758   45.1645 H   0  0  0  0  0  0  0  0  0  0  0  0
   60.4951   35.8602   47.5490 H   0  0  0  0  0  0  0  0  0  0  0  0
   59.9268   34.1101   49.2323 H   0  0  0  0  0  0  0  0  0  0  0  0
   58.6698   32.0688   48.5438 H   0  0  0  0  0  0  0  0  0  0  0  0
   57.5710   30.7487   46.8048 H   0  0  0  0  0  0  0  0  0  0  0  0
  1  2  2  0
  2  3  1  0
  3  4  1  0
  4  5  2  0
  5  6  1  0
  6  7  2  0
  7  8  1  0
  8  9  1  0
  9 10  2  3
 10 11  1  0
 11 12  2  0
 11 13  1  0
 13 14  2  0
 14 15  1  0
 15 16  2  0
 16 17  1  0
  8 18  2  0
  2 19  1  0
 19 20  2  0
 20 21  1  0
 21 22  2  0
 22 23  1  0
 23 24  2  0
 24 25  1  0
 25 26  2  0
 26 27  1  0
 27 28  2  0
 18  4  1  0
 28 19  1  0
 17 13  1  0
 27 22  1  0
  3 29  1  0
  3 30  1  0
  5 31  1  0
  6 32  1  0
  7 33  1  0
  9 34  1  0
 10 35  1  0
 14 36  1  0
 15 37  1  0
 16 38  1  0
 18 39  1  0
 20 40  1  0
 21 41  1  0
 23 42  1  0
 24 43  1  0
 25 44  1  0
 26 45  1  0
 28 46  1  0
M  CHG  1   4   1
M  END
>  <UniqueID>  (49) 
46

>  <SMILES>  (49) 
O=C(C[n+]1cccc(C=CC(=O)c2ccco2)c1)c1ccc2ccccc2c1

>  <Energy>  (49) 
86.19347760814603

>  <Genealogy>  (49) 
O=C(C[n+]1cccc(C=CC(=O)c2ccco2)c1)c1ccc2ccccc2c1 (3D coordinates assigned)
O=C(C[n+]1cccc(C=CC(=O)c2ccco2)c1)c1ccc2ccccc2c1 (optimized conformer: 86.19347760814603 kcal/mol)

>  <smiles>  (49) 
O=C(C[n+]1cccc(C=CC(=O)c2ccco2)c1)c1ccc2ccccc2c1

>  <score_type>  (49) 
oracle

>  <origin>  (49) 
adg

>  <m_score__min__energy>  (49) 
-8.0899999999999999

>  <m_primary>  (49) 
energy

$$$$
49:0
     RDKit          3D

 65 69  0  0  0  0  0  0  0  0999 V2000
   61.1140   29.3270   49.2430 C   0  0  0  0  0  0  0  0  0  0  0  0
   59.5950   29.1050   49.2080 C   0  0  0  0  0  0  0  0  0  0  0  0
   58.9300   29.5060   50.5300 C   0  0  0  0  0  0  0  0  0  0  0  0
   58.9680   29.8010   48.0540 N   0  0  0  0  0  0  0  0  0  0  0  0
   58.9820   31.1810   47.9550 C   0  0  0  0  0  0  0  0  0  0  0  0
   59.5490   31.8670   48.8520 O   0  0  0  0  0  0  0  0  0  0  0  0
   58.3690   31.8270   46.8890 N   0  0  0  0  0  0  0  0  0  0  0  0
   58.2880   33.3030   46.8570 C   0  0  0  0  0  0  0  0  0  0  0  0
   59.4760   33.9080   46.0930 C   0  0  0  0  0  0  0  0  0  0  0  0
   60.7240   33.9310   46.9390 C   0  0  0  0  0  0  0  0  0  0  0  0
   61.9430   33.4720   46.4140 C   0  0  0  0  0  0  0  0  0  0  0  0
   63.0810   33.4060   47.2260 C   0  0  0  0  0  0  0  0  0  0  0  0
   63.0090   33.7940   48.5660 C   0  0  0  0  0  0  0  0  0  0  0  0
   61.8000   34.2520   49.0970 C   0  0  0  0  0  0  0  0  0  0  0  0
   60.6600   34.3230   48.2880 C   0  0  0  0  0  0  0  0  0  0  0  0
   57.7660   31.0960   45.8920 C   0  0  0  0  0  0  0  0  0  0  0  0
   57.2030   31.6560   44.9110 O   0  0  0  0  0  0  0  0  0  0  0  0
   57.7770   29.7200   45.9890 C   0  0  0  0  0  0  0  0  0  0  0  0
   57.2480   28.8180   45.1510 N   0  0  0  0  0  0  0  0  0  0  0  0
   57.5390   27.6400   45.7670 C   0  0  0  0  0  0  0  0  0  0  0  0
   57.1350   26.3250   45.2260 C   0  0  0  0  0  0  0  0  0  0  0  0
   56.1450   25.5610   45.8700 C   0  0  0  0  0  0  0  0  0  0  0  0
   55.7740   24.3120   45.3690 C   0  0  0  0  0  0  0  0  0  0  0  0
   56.3960   23.7970   44.2130 C   0  0  0  0  0  0  0  0  0  0  0  0
   56.0720   22.5410   43.6740 O   0  0  0  0  0  0  0  0  0  0  0  0
   56.9640   21.4300   43.5790 C   0  0  0  0  0  0  0  0  0  0  0  0
   58.0660   21.5490   44.5850 C   0  0  0  0  0  0  0  0  0  0  0  0
   59.1360   22.1340   44.2640 O   0  0  0  0  0  0  0  0  0  0  0  0
   57.8360   21.1220   45.9380 N   0  0  0  0  0  0  0  0  0  0  0  0
   56.9310   21.5490   46.7740 C   0  0  0  0  0  0  0  0  0  0  0  0
   55.5710   21.1760   46.6910 C   0  0  0  0  0  0  0  0  0  0  0  0
   54.6610   21.6900   47.6170 C   0  0  0  0  0  0  0  0  0  0  0  0
   55.0950   22.5720   48.6070 C   0  0  0  0  0  0  0  0  0  0  0  0
   56.4400   22.9380   48.6510 C   0  0  0  0  0  0  0  0  0  0  0  0
   57.3140   22.4250   47.7430 N   0  0  0  0  0  0  0  0  0  0  0  0
   57.3750   24.5610   43.5680 C   0  0  0  0  0  0  0  0  0  0  0  0
   57.7390   25.8170   44.0630 C   0  0  0  0  0  0  0  0  0  0  0  0
   58.2180   27.7790   46.9370 N   0  0  0  0  0  0  0  0  0  0  0  0
   58.3530   29.1100   47.0460 C   0  0  0  0  0  0  0  0  0  0  0  0
   61.4533   29.3766   50.2882 H   0  0  0  0  0  0  0  0  0  0  0  0
   61.6183   28.4930   48.7329 H   0  0  0  0  0  0  0  0  0  0  0  0
   61.3585   30.2704   48.7329 H   0  0  0  0  0  0  0  0  0  0  0  0
   59.4300   28.0257   49.0739 H   0  0  0  0  0  0  0  0  0  0  0  0
   59.5367   29.1401   51.3714 H   0  0  0  0  0  0  0  0  0  0  0  0
   58.8519   30.6019   50.5835 H   0  0  0  0  0  0  0  0  0  0  0  0
   57.9243   29.0637   50.5835 H   0  0  0  0  0  0  0  0  0  0  0  0
   57.3528   33.6004   46.3600 H   0  0  0  0  0  0  0  0  0  0  0  0
   58.3128   33.6758   47.8916 H   0  0  0  0  0  0  0  0  0  0  0  0
   59.6658   33.3055   45.1925 H   0  0  0  0  0  0  0  0  0  0  0  0
   59.2220   34.9442   45.8250 H   0  0  0  0  0  0  0  0  0  0  0  0
   62.0036   33.1630   45.3600 H   0  0  0  0  0  0  0  0  0  0  0  0
   64.0336   33.0480   46.8084 H   0  0  0  0  0  0  0  0  0  0  0  0
   63.9039   33.7391   49.2033 H   0  0  0  0  0  0  0  0  0  0  0  0
   61.7443   34.5571   50.1524 H   0  0  0  0  0  0  0  0  0  0  0  0
   59.7109   34.6866   48.7088 H   0  0  0  0  0  0  0  0  0  0  0  0
   55.6589   25.9512   46.7763 H   0  0  0  0  0  0  0  0  0  0  0  0
   54.9935   23.7273   45.8779 H   0  0  0  0  0  0  0  0  0  0  0  0
   56.4048   20.5010   43.7641 H   0  0  0  0  0  0  0  0  0  0  0  0
   57.4049   21.4155   42.5713 H   0  0  0  0  0  0  0  0  0  0  0  0
   55.2318   20.4866   45.9038 H   0  0  0  0  0  0  0  0  0  0  0  0
   53.6013   21.3993   47.5659 H   0  0  0  0  0  0  0  0  0  0  0  0
   54.3846   22.9741   49.3443 H   0  0  0  0  0  0  0  0  0  0  0  0
   56.7941   23.6410   49.4193 H   0  0  0  0  0  0  0  0  0  0  0  0
   57.8628   24.1698   42.6630 H   0  0  0  0  0  0  0  0  0  0  0  0
   58.5025   26.4109   43.5392 H   0  0  0  0  0  0  0  0  0  0  0  0
  1  2  1  0
  2  3  1  0
  2  4  1  0
  4  5  1  0
  5  6  2  0
  5  7  1  0
  7  8  1  0
  8  9  1  0
  9 10  1  0
 10 11  2  0
 11 12  1  0
 12 13  2  0
 13 14  1  0
 14 15  2  0
  7 16  1  0
 16 17  2  0
 16 18  1  0
 18 19  1  0
 19 20  2  0
 20 21  1  0
 21 22  2  0
 22 23  1  0
 23 24  2  0
 24 25  1  0
 25 26  1  0
 26 27  1  0
 27 28  2  0
 27 29  1  0
 29 30  2  3
 30 31  1  0
 31 32  2  0
 32 33  1  0
 33 34  2  0
 34 35  1  0
 24 36  1  0
 36 37  2  0
 20 38  1  0
 38 39  1  0
 39  4  1  0
 15 10  1  0
 39 18  2  0
 37 21  1  0
 35 30  1  0
  1 40  1  0
  1 41  1  0
  1 42  1  0
  2 43  1  0
  3 44  1  0
  3 45  1  0
  3 46  1  0
  8 47  1  0
  8 48  1  0
  9 49  1  0
  9 50  1  0
 11 51  1  0
 12 52  1  0
 13 53  1  0
 14 54  1  0
 15 55  1  0
 22 56  1  0
 23 57  1  0
 26 58  1  0
 26 59  1  0
 31 60  1  0
 32 61  1  0
 33 62  1  0
 34 63  1  0
 36 64  1  0
 37 65  1  0
M  CHG  2  35  -1  38  -1
M  END
>  <UniqueID>  (50) 
47

>  <SMILES>  (50) 
CC(C)n1c(=O)n(CCc2ccccc2)c(=O)c2nc(-c3ccc(OCC(=O)N=c4cccc[n-]4)cc3)[n-]c21

>  <Energy>  (50) 
115.93784819598064

>  <Genealogy>  (50) 
CC(C)n1c(=O)n(CCc2ccccc2)c(=O)c2nc(-c3ccc(OCC(=O)N=c4cccc[n-]4)cc3)[n-]c21 (protonated)
CC(C)n1c(=O)n(CCc2ccccc2)c(=O)c2nc(-c3ccc(OCC(=O)N=c4cccc[n-]4)cc3)[n-]c21 (3D coordinates assigned)
CC(C)n1c(=O)n(CCc2ccccc2)c(=O)c2nc(-c3ccc(OCC(=O)N=c4cccc[n-]4)cc3)[n-]c21 (optimized conformer: 115.93784819598064 kcal/mol)

>  <smiles>  (50) 
CC(C)n1c(=O)n(CCc2ccccc2)c(=O)c2nc(-c3ccc(OCC(=O)N=c4cccc[nH]4)cc3)[nH]c21

>  <score_type>  (50) 
oracle

>  <origin>  (50) 
adg

>  <m_score__min__energy>  (50) 
-12.279999999999999

>  <m_primary>  (50) 
energy

$$$$
50:0
     RDKit          3D

 55 58  0  0  0  0  0  0  0  0999 V2000
   58.9181   35.2753   43.9353 H   0  0  0  0  0  0  0  0  0  0  0  0
   58.7390   34.8000   44.9110 C   0  0  0  0  0  0  0  0  0  0  0  0
   57.5870   34.0350   45.1130 C   0  0  0  0  0  0  0  0  0  0  0  0
   56.8611   33.9093   44.2961 H   0  0  0  0  0  0  0  0  0  0  0  0
   57.3560   33.4300   46.3500 C   0  0  0  0  0  0  0  0  0  0  0  0
   56.4490   32.8273   46.5051 H   0  0  0  0  0  0  0  0  0  0  0  0
   58.2790   33.5890   47.3970 C   0  0  0  0  0  0  0  0  0  0  0  0
   58.0230   32.9730   48.6650 N   0  0  0  0  0  0  0  0  0  0  0  0
   58.8090   32.7300   49.3110 H   0  0  0  0  0  0  0  0  0  0  0  0
   57.0570   32.7170   48.9580 H   0  0  0  0  0  0  0  0  0  0  0  0
   59.4360   34.3660   47.1990 C   0  0  0  0  0  0  0  0  0  0  0  0
   60.3710   34.4970   48.2350 O   0  0  0  0  0  0  0  0  0  0  0  0
   61.6170   33.8490   48.2900 C   0  0  0  0  0  0  0  0  0  0  0  0
   62.3330   33.5500   47.1150 C   0  0  0  0  0  0  0  0  0  0  0  0
   61.8997   33.7944   46.1339 H   0  0  0  0  0  0  0  0  0  0  0  0
   63.5880   32.9460   47.1870 C   0  0  0  0  0  0  0  0  0  0  0  0
   64.1377   32.7103   46.2638 H   0  0  0  0  0  0  0  0  0  0  0  0
   64.1460   32.6410   48.4250 C   0  0  0  0  0  0  0  0  0  0  0  0
   65.1355   32.1635   48.4782 H   0  0  0  0  0  0  0  0  0  0  0  0
   63.4520   32.9400   49.6010 C   0  0  0  0  0  0  0  0  0  0  0  0
   63.9019   32.7022   50.5762 H   0  0  0  0  0  0  0  0  0  0  0  0
   62.1840   33.5420   49.5460 C   0  0  0  0  0  0  0  0  0  0  0  0
   61.4380   33.8300   50.8250 C   0  0  0  0  0  0  0  0  0  0  0  0
   61.1294   34.8858   50.8317 H   0  0  0  0  0  0  0  0  0  0  0  0
   62.1037   33.6181   51.6747 H   0  0  0  0  0  0  0  0  0  0  0  0
   60.2230   32.9640   50.9430 C   0  0  0  0  0  0  0  0  0  0  0  0
   59.1230   33.4780   51.2820 O   0  0  0  0  0  0  0  0  0  0  0  0
   60.3360   31.5580   50.6630 N   0  0  0  0  0  0  0  0  0  0  0  0
   60.1170   30.9860   49.5160 C   0  0  0  0  0  0  0  0  0  0  0  0
   58.8850   30.6210   49.0770 N   0  0  0  0  0  0  0  0  0  0  0  0
   59.1450   30.1480   47.8430 C   0  0  0  0  0  0  0  0  0  0  0  0
   58.2370   29.6580   46.9120 C   0  0  0  0  0  0  0  0  0  0  0  0
   57.1665   29.5832   47.1537 H   0  0  0  0  0  0  0  0  0  0  0  0
   58.7240   29.2580   45.6460 C   0  0  0  0  0  0  0  0  0  0  0  0
   57.8160   28.7890   44.6310 N   0  0  0  0  0  0  0  0  0  0  0  0
   58.0450   27.4950   43.9790 C   0  0  0  0  0  0  0  0  0  0  0  0
   58.1826   26.7177   44.7451 H   0  0  0  0  0  0  0  0  0  0  0  0
   57.1777   27.2420   43.3515 H   0  0  0  0  0  0  0  0  0  0  0  0
   58.9465   27.5550   43.3515 H   0  0  0  0  0  0  0  0  0  0  0  0
   56.4450   29.7440   44.1450 S   0  0  0  0  0  0  0  0  0  0  0  0
   55.1980   29.1890   44.7810 O   0  0  0  0  0  0  0  0  0  0  0  0
   56.6230   31.1660   44.6020 O   0  0  0  0  0  0  0  0  0  0  0  0
   56.2690   29.7010   42.3730 C   0  0  0  0  0  0  0  0  0  0  0  0
   55.2305   29.4473   42.1137 H   0  0  0  0  0  0  0  0  0  0  0  0
   56.5207   30.6871   41.9555 H   0  0  0  0  0  0  0  0  0  0  0  0
   56.9471   28.9421   41.9555 H   0  0  0  0  0  0  0  0  0  0  0  0
   60.1150   29.3700   45.3700 C   0  0  0  0  0  0  0  0  0  0  0  0
   60.4992   29.0689   44.3843 H   0  0  0  0  0  0  0  0  0  0  0  0
   61.0050   29.8610   46.3420 C   0  0  0  0  0  0  0  0  0  0  0  0
   62.0828   29.9430   46.1379 H   0  0  0  0  0  0  0  0  0  0  0  0
   60.4740   30.2390   47.5700 C   0  0  0  0  0  0  0  0  0  0  0  0
   61.1110   30.7640   48.6230 N   0  0  0  0  0  0  0  0  0  0  0  0
   62.1300   30.9810   48.7210 H   0  0  0  0  0  0  0  0  0  0  0  0
   59.6620   34.9620   45.9440 C   0  0  0  0  0  0  0  0  0  0  0  0
   60.5711   35.5585   45.7771 H   0  0  0  0  0  0  0  0  0  0  0  0
  1  2  1  0
  2  3  2  0
  3  4  1  0
  3  5  1  0
  5  6  1  0
  5  7  2  0
  7  8  1  0
  8  9  1  0
  8 10  1  0
  7 11  1  0
 11 12  1  0
 12 13  1  0
 13 14  2  0
 14 15  1  0
 14 16  1  0
 16 17  1  0
 16 18  2  0
 18 19  1  0
 18 20  1  0
 20 21  1  0
 20 22  2  0
 22 23  1  0
 23 24  1  0
 23 25  1  0
 23 26  1  0
 26 27  2  0
 26 28  1  0
 28 29  2  0
 29 30  1  0
 30 31  1  0
 31 32  2  0
 32 33  1  0
 32 34  1  0
 34 35  1  0
 35 36  1  0
 36 37  1  0
 36 38  1  0
 36 39  1  0
 35 40  1  0
 40 41  2  0
 40 42  2  0
 40 43  1  0
 43 44  1  0
 43 45  1  0
 43 46  1  0
 34 47  2  0
 47 48  1  0
 47 49  1  0
 49 50  1  0
 49 51  2  0
 51 52  1  0
 52 53  1  0
 11 54  2  0
 54 55  1  0
 54  2  1  0
 22 13  1  0
 52 29  1  0
 51 31  1  0
M  CHG  1  30  -1
M  END
>  <UniqueID>  (51) 
48

>  <SMILES>  (51) 
CN(c1ccc2[nH]/c(=N/C(=O)Cc3ccccc3Oc3ccccc3N)[n-]c2c1)S(C)(=O)=O

>  <Energy>  (51) 
101.54236129623852

>  <Genealogy>  (51) 
CN(c1ccc2[nH]c(=NC(=O)Cc3ccccc3Oc3ccccc3N)[n-]c2c1)S(C)(=O)=O (protonated)
CN(c1ccc2[nH]/c(=N/C(=O)Cc3ccccc3Oc3ccccc3N)[n-]c2c1)S(C)(=O)=O (cis-trans isomerization)
CN(c1ccc2[nH]/c(=N/C(=O)Cc3ccccc3Oc3ccccc3N)[n-]c2c1)S(C)(=O)=O (3D coordinates assigned)
CN(c1ccc2[nH]/c(=N/C(=O)Cc3ccccc3Oc3ccccc3N)[n-]c2c1)S(C)(=O)=O (optimized conformer: 101.54236129623852 kcal/mol)

>  <smiles>  (51) 
CN(c1ccc2[nH]c(=NC(=O)Cc3ccccc3Oc3ccccc3N)[nH]c2c1)S(C)(=O)=O

>  <score_type>  (51) 
oracle

>  <origin>  (51) 
adg

>  <m_score__min__energy>  (51) 
-12.17

>  <m_primary>  (51) 
energy

$$$$
51:0
     RDKit          3D

 55 58  0  0  0  0  0  0  0  0999 V2000
   58.6800   27.1210   45.1060 H   0  0  0  0  0  0  0  0  0  0  0  0
   59.0090   27.9460   44.6230 O   0  0  0  0  0  0  0  0  0  0  0  0
   58.7020   29.2470   45.0240 C   0  0  0  0  0  0  0  0  0  0  0  0
   58.1820   30.1250   44.0660 C   0  0  0  0  0  0  0  0  0  0  0  0
   58.0345   29.7790   43.0323 H   0  0  0  0  0  0  0  0  0  0  0  0
   57.8490   31.4360   44.4110 C   0  0  0  0  0  0  0  0  0  0  0  0
   57.4463   32.1183   43.6480 H   0  0  0  0  0  0  0  0  0  0  0  0
   58.0260   31.8850   45.7250 C   0  0  0  0  0  0  0  0  0  0  0  0
   57.5690   33.5300   46.1770 S   0  0  0  0  0  0  0  0  0  0  0  0
   56.3780   33.4790   47.0950 O   0  0  0  0  0  0  0  0  0  0  0  0
   57.1690   34.2920   44.9410 O   0  0  0  0  0  0  0  0  0  0  0  0
   58.8890   34.3670   46.9640 N   0  0  0  0  0  0  0  0  0  0  0  0
   59.9900   34.6650   46.0140 C   0  0  0  0  0  0  0  0  0  0  0  0
   59.5993   34.5800   44.9892 H   0  0  0  0  0  0  0  0  0  0  0  0
   60.3478   35.6806   46.2388 H   0  0  0  0  0  0  0  0  0  0  0  0
   61.1920   33.7170   46.1580 C   0  0  0  0  0  0  0  0  0  0  0  0
   60.8885   32.6993   45.8712 H   0  0  0  0  0  0  0  0  0  0  0  0
   62.0043   34.0653   45.5031 H   0  0  0  0  0  0  0  0  0  0  0  0
   61.6670   33.7080   47.5470 N   0  0  0  0  0  0  0  0  0  0  0  0
   63.0350   33.3580   47.8360 C   0  0  0  0  0  0  0  0  0  0  0  0
   63.7360   32.7880   46.9550 O   0  0  0  0  0  0  0  0  0  0  0  0
   63.6390   33.6190   49.1880 C   0  0  0  0  0  0  0  0  0  0  0  0
   63.2822   34.6555   49.2789 H   0  0  0  0  0  0  0  0  0  0  0  0
   64.9540   32.8900   49.4270 C   0  0  0  0  0  0  0  0  0  0  0  0
   65.3982   32.2808   48.6260 H   0  0  0  0  0  0  0  0  0  0  0  0
   65.9595   33.1896   49.7575 H   0  0  0  0  0  0  0  0  0  0  0  0
   63.6900   32.4190   50.1270 C   0  0  0  0  0  0  0  0  0  0  0  0
   63.2193   31.4695   49.8321 H   0  0  0  0  0  0  0  0  0  0  0  0
   63.4019   32.2371   51.1729 H   0  0  0  0  0  0  0  0  0  0  0  0
   60.7200   34.0100   48.6290 C   0  0  0  0  0  0  0  0  0  0  0  0
   60.9870   33.4258   49.5220 H   0  0  0  0  0  0  0  0  0  0  0  0
   60.7649   35.0840   48.8625 H   0  0  0  0  0  0  0  0  0  0  0  0
   59.2980   33.6460   48.1890 C   0  0  0  0  0  0  0  0  0  0  0  0
   59.2536   32.5642   47.9945 H   0  0  0  0  0  0  0  0  0  0  0  0
   58.6103   33.9368   48.9968 H   0  0  0  0  0  0  0  0  0  0  0  0
   58.5570   31.0150   46.6850 C   0  0  0  0  0  0  0  0  0  0  0  0
   58.7088   31.3706   47.7148 H   0  0  0  0  0  0  0  0  0  0  0  0
   58.8980   29.6960   46.3510 C   0  0  0  0  0  0  0  0  0  0  0  0
   59.5730   28.6410   47.5990 S   0  0  0  0  0  0  0  0  0  0  0  0
   61.0060   29.0260   47.8430 O   0  0  0  0  0  0  0  0  0  0  0  0
   58.8130   28.7860   48.8890 O   0  0  0  0  0  0  0  0  0  0  0  0
   59.4990   26.9860   47.0930 N   0  0  0  0  0  0  0  0  0  0  0  0
   58.3040   26.2110   47.1560 C   0  0  0  0  0  0  0  0  0  0  0  0
   58.1940   25.2920   48.0110 O   0  0  0  0  0  0  0  0  0  0  0  0
   57.2840   26.4350   46.1710 N   0  0  0  0  0  0  0  0  0  0  0  0
   56.4400   25.5890   45.6470 C   0  0  0  0  0  0  0  0  0  0  0  0
   55.1440   25.6410   46.0610 N   0  0  0  0  0  0  0  0  0  0  0  0
   54.1880   24.8000   45.5830 C   0  0  0  0  0  0  0  0  0  0  0  0
   53.1515   24.8842   45.9416 H   0  0  0  0  0  0  0  0  0  0  0  0
   54.5230   23.8310   44.6380 C   0  0  0  0  0  0  0  0  0  0  0  0
   53.7544   23.1512   44.2416 H   0  0  0  0  0  0  0  0  0  0  0  0
   55.8420   23.7340   44.2020 C   0  0  0  0  0  0  0  0  0  0  0  0
   56.1204   22.9693   43.4620 H   0  0  0  0  0  0  0  0  0  0  0  0
   56.8140   24.6070   44.7030 C   0  0  0  0  0  0  0  0  0  0  0  0
   57.8580   24.5294   44.3654 H   0  0  0  0  0  0  0  0  0  0  0  0
  1  2  1  0
  2  3  1  0
  3  4  2  0
  4  5  1  0
  4  6  1  0
  6  7  1  0
  6  8  2  0
  8  9  1  0
  9 10  2  0
  9 11  2  0
  9 12  1  0
 12 13  1  0
 13 14  1  0
 13 15  1  0
 13 16  1  0
 16 17  1  0
 16 18  1  0
 16 19  1  0
 19 20  1  0
 20 21  2  0
 20 22  1  0
 22 23  1  0
 22 24  1  0
 24 25  1  0
 24 26  1  0
 24 27  1  0
 27 28  1  0
 27 29  1  0
 19 30  1  0
 30 31  1  0
 30 32  1  0
 30 33  1  0
 33 34  1  0
 33 35  1  0
  8 36  1  0
 36 37  1  0
 36 38  2  0
 38 39  1  0
 39 40  2  0
 39 41  2  0
 39 42  1  0
 42 43  1  0
 43 44  2  0
 43 45  1  0
 45 46  2  0
 46 47  1  0
 47 48  1  0
 48 49  1  0
 48 50  2  0
 50 51  1  0
 50 52  1  0
 52 53  1  0
 52 54  2  0
 54 55  1  0
 38  3  1  0
 54 46  1  0
 33 12  1  0
 27 22  1  0
M  CHG  2  42  -1  47  -1
M  END
>  <UniqueID>  (52) 
49

>  <SMILES>  (52) 
O=C(/N=c1\cccc[n-]1)[N-]S(=O)(=O)c1cc(S(=O)(=O)N2CCN(C(=O)C3CC3)CC2)ccc1O

>  <Energy>  (52) 
334.73208437767175

>  <Genealogy>  (52) 
O=C(N=c1cccc[n-]1)[N-]S(=O)(=O)c1cc(S(=O)(=O)N2CCN(C(=O)C3CC3)CC2)ccc1O (protonated)
O=C(/N=c1\cccc[n-]1)[N-]S(=O)(=O)c1cc(S(=O)(=O)N2CCN(C(=O)C3CC3)CC2)ccc1O (cis-trans isomerization)
O=C(/N=c1\cccc[n-]1)[N-]S(=O)(=O)c1cc(S(=O)(=O)N2CCN(C(=O)C3CC3)CC2)ccc1O (3D coordinates assigned)
O=C(/N=c1\cccc[n-]1)[N-]S(=O)(=O)c1cc(S(=O)(=O)N2CCN(C(=O)C3CC3)CC2)ccc1O (nonaromatic ring conformer: 334.73208437767175 kcal/mol)

>  <smiles>  (52) 
O=C(N=c1cccc[nH]1)NS(=O)(=O)c1cc(S(=O)(=O)N2CCN(C(=O)C3CC3)CC2)ccc1O

>  <score_type>  (52) 
oracle

>  <origin>  (52) 
adg

>  <m_score__min__energy>  (52) 
-12.32

>  <m_primary>  (52) 
energy

$$$$
52:0
     RDKit          3D

 63 66  0  0  0  0  0  0  0  0999 V2000
   68.3213   32.7375   50.1580 H   0  0  0  0  0  0  0  0  0  0  0  0
   67.2740   32.8900   50.4580 C   0  0  0  0  0  0  0  0  0  0  0  0
   66.3330   31.9630   50.1340 N   0  0  0  0  0  0  0  0  0  0  0  0
   65.0210   32.1100   50.4810 C   0  0  0  0  0  0  0  0  0  0  0  0
   64.1320   31.2120   50.1650 N   0  0  0  0  0  0  0  0  0  0  0  0
   62.7550   31.4410   49.8170 C   0  0  0  0  0  0  0  0  0  0  0  0
   61.8250   30.9200   50.4960 O   0  0  0  0  0  0  0  0  0  0  0  0
   62.4200   32.2750   48.6400 C   0  0  0  0  0  0  0  0  0  0  0  0
   63.4260   32.6580   47.7300 C   0  0  0  0  0  0  0  0  0  0  0  0
   64.4649   32.3370   47.8963 H   0  0  0  0  0  0  0  0  0  0  0  0
   63.1110   33.4430   46.6180 C   0  0  0  0  0  0  0  0  0  0  0  0
   63.9033   33.7413   45.9157 H   0  0  0  0  0  0  0  0  0  0  0  0
   61.7950   33.8500   46.3950 C   0  0  0  0  0  0  0  0  0  0  0  0
   61.5514   34.4580   45.5112 H   0  0  0  0  0  0  0  0  0  0  0  0
   60.7810   33.4860   47.2950 C   0  0  0  0  0  0  0  0  0  0  0  0
   59.3580   33.8960   47.0190 C   0  0  0  0  0  0  0  0  0  0  0  0
   59.3543   34.7397   46.3131 H   0  0  0  0  0  0  0  0  0  0  0  0
   58.8823   34.1928   47.9654 H   0  0  0  0  0  0  0  0  0  0  0  0
   58.6090   32.7810   46.4410 N   0  0  0  0  0  0  0  0  0  0  0  0
   58.3960   31.9530   47.0400 H   0  0  0  0  0  0  0  0  0  0  0  0
   58.0460   32.8590   45.1210 C   0  0  0  0  0  0  0  0  0  0  0  0
   57.9990   33.9760   44.5360 O   0  0  0  0  0  0  0  0  0  0  0  0
   57.5140   31.6530   44.4320 C   0  0  0  0  0  0  0  0  0  0  0  0
   57.3600   31.6240   43.0330 C   0  0  0  0  0  0  0  0  0  0  0  0
   57.6492   32.4996   42.4332 H   0  0  0  0  0  0  0  0  0  0  0  0
   56.8420   30.4900   42.4010 C   0  0  0  0  0  0  0  0  0  0  0  0
   56.7383   30.4733   41.3060 H   0  0  0  0  0  0  0  0  0  0  0  0
   56.4550   29.3770   43.1530 C   0  0  0  0  0  0  0  0  0  0  0  0
   56.0528   28.4869   42.6471 H   0  0  0  0  0  0  0  0  0  0  0  0
   56.5780   29.3910   44.5550 C   0  0  0  0  0  0  0  0  0  0  0  0
   56.1600   28.2730   45.3630 N   0  0  0  0  0  0  0  0  0  0  0  0
   55.1440   28.1850   45.5970 H   0  0  0  0  0  0  0  0  0  0  0  0
   57.0820   27.2400   45.8410 C   0  0  0  0  0  0  0  0  0  0  0  0
   56.9816   27.1437   46.9322 H   0  0  0  0  0  0  0  0  0  0  0  0
   58.1085   27.5330   45.5757 H   0  0  0  0  0  0  0  0  0  0  0  0
   56.7770   25.9130   45.1980 C   0  0  0  0  0  0  0  0  0  0  0  0
   57.4710   25.5030   44.0490 C   0  0  0  0  0  0  0  0  0  0  0  0
   58.2283   26.1637   43.6018 H   0  0  0  0  0  0  0  0  0  0  0  0
   57.2040   24.2580   43.4700 C   0  0  0  0  0  0  0  0  0  0  0  0
   57.7417   23.9509   42.5608 H   0  0  0  0  0  0  0  0  0  0  0  0
   56.2500   23.3950   44.0450 C   0  0  0  0  0  0  0  0  0  0  0  0
   55.9510   22.1360   43.5050 O   0  0  0  0  0  0  0  0  0  0  0  0
   56.9260   21.2170   43.0210 C   0  0  0  0  0  0  0  0  0  0  0  0
   57.4333   20.7388   43.8718 H   0  0  0  0  0  0  0  0  0  0  0  0
   56.4327   20.4477   42.4087 H   0  0  0  0  0  0  0  0  0  0  0  0
   57.6648   21.7549   42.4087 H   0  0  0  0  0  0  0  0  0  0  0  0
   55.5740   23.8010   45.2020 C   0  0  0  0  0  0  0  0  0  0  0  0
   54.8312   23.1329   45.6624 H   0  0  0  0  0  0  0  0  0  0  0  0
   55.8350   25.0480   45.7770 C   0  0  0  0  0  0  0  0  0  0  0  0
   55.2994   25.3532   46.6881 H   0  0  0  0  0  0  0  0  0  0  0  0
   57.1120   30.5300   45.1810 C   0  0  0  0  0  0  0  0  0  0  0  0
   57.2180   30.5449   46.2758 H   0  0  0  0  0  0  0  0  0  0  0  0
   61.0960   32.6920   48.4110 C   0  0  0  0  0  0  0  0  0  0  0  0
   60.3013   32.3943   49.1108 H   0  0  0  0  0  0  0  0  0  0  0  0
   64.6200   33.2470   51.1950 C   0  0  0  0  0  0  0  0  0  0  0  0
   63.5668   33.3768   51.4846 H   0  0  0  0  0  0  0  0  0  0  0  0
   65.5680   34.2140   51.5360 C   0  0  0  0  0  0  0  0  0  0  0  0
   65.2604   35.1135   52.0894 H   0  0  0  0  0  0  0  0  0  0  0  0
   66.9110   34.0400   51.1740 C   0  0  0  0  0  0  0  0  0  0  0  0
   67.9520   35.0590   51.5300 C   0  0  0  0  0  0  0  0  0  0  0  0
   68.0306   35.1359   52.6245 H   0  0  0  0  0  0  0  0  0  0  0  0
   68.9228   34.7524   51.1133 H   0  0  0  0  0  0  0  0  0  0  0  0
   67.6662   36.0361   51.1133 H   0  0  0  0  0  0  0  0  0  0  0  0
  1  2  1  0
  2  3  1  0
  3  4  1  0
  4  5  2  0
  5  6  1  0
  6  7  2  0
  6  8  1  0
  8  9  2  0
  9 10  1  0
  9 11  1  0
 11 12  1  0
 11 13  2  0
 13 14  1  0
 13 15  1  0
 15 16  1  0
 16 17  1  0
 16 18  1  0
 16 19  1  0
 19 20  1  0
 19 21  1  0
 21 22  2  0
 21 23  1  0
 23 24  2  0
 24 25  1  0
 24 26  1  0
 26 27  1  0
 26 28  2  0
 28 29  1  0
 28 30  1  0
 30 31  1  0
 31 32  1  0
 31 33  1  0
 33 34  1  0
 33 35  1  0
 33 36  1  0
 36 37  2  0
 37 38  1  0
 37 39  1  0
 39 40  1  0
 39 41  2  0
 41 42  1  0
 42 43  1  0
 43 44  1  0
 43 45  1  0
 43 46  1  0
 41 47  1  0
 47 48  1  0
 47 49  2  0
 49 50  1  0
 30 51  2  0
 51 52  1  0
 15 53  2  0
 53 54  1  0
  4 55  1  0
 55 56  1  0
 55 57  2  0
 57 58  1  0
 57 59  1  0
 59 60  1  0
 60 61  1  0
 60 62  1  0
 60 63  1  0
 59  2  2  0
 53  8  1  0
 51 23  1  0
 49 36  1  0
M  CHG  1   3  -1
M  END
>  <UniqueID>  (53) 
50

>  <SMILES>  (53) 
COc1ccc(CNc2cccc(C(=O)NCc3cccc(C(=O)/N=c4/ccc(C)c[n-]4)c3)c2)cc1

>  <Energy>  (53) 
70.95956334519354

>  <Genealogy>  (53) 
COc1ccc(CNc2cccc(C(=O)NCc3cccc(C(=O)N=c4ccc(C)c[n-]4)c3)c2)cc1 (protonated)
COc1ccc(CNc2cccc(C(=O)NCc3cccc(C(=O)/N=c4/ccc(C)c[n-]4)c3)c2)cc1 (cis-trans isomerization)
COc1ccc(CNc2cccc(C(=O)NCc3cccc(C(=O)/N=c4/ccc(C)c[n-]4)c3)c2)cc1 (3D coordinates assigned)
COc1ccc(CNc2cccc(C(=O)NCc3cccc(C(=O)/N=c4/ccc(C)c[n-]4)c3)c2)cc1 (optimized conformer: 70.95956334519354 kcal/mol)

>  <smiles>  (53) 
COc1ccc(CNc2cccc(C(=O)NCc3cccc(C(=O)N=c4ccc(C)c[nH]4)c3)c2)cc1

>  <score_type>  (53) 
oracle

>  <origin>  (53) 
adg

>  <m_score__min__energy>  (53) 
-11.09

>  <m_primary>  (53) 
energy

$$$$
53:0
     RDKit          3D

 57 60  0  0  0  0  0  0  0  0999 V2000
   58.5500   22.9510   44.8030 C   0  0  0  0  0  0  0  0  0  0  0  0
   57.3690   23.5990   44.0890 C   0  0  0  0  0  0  0  0  0  0  0  0
   57.2100   25.0340   44.5180 C   0  0  0  0  0  0  0  0  0  0  0  0
   57.8490   26.0610   43.8040 C   0  0  0  0  0  0  0  0  0  0  0  0
   57.6720   27.3950   44.1820 C   0  0  0  0  0  0  0  0  0  0  0  0
   56.8380   27.7250   45.2560 C   0  0  0  0  0  0  0  0  0  0  0  0
   56.6890   29.1060   45.6170 N   0  0  0  0  0  0  0  0  0  0  0  0
   57.3070   30.2330   44.9770 C   0  0  0  0  0  0  0  0  0  0  0  0
   56.8940   30.5800   43.8390 O   0  0  0  0  0  0  0  0  0  0  0  0
   58.3450   31.0480   45.6540 C   0  0  0  0  0  0  0  0  0  0  0  0
   58.3030   32.4450   45.5430 C   0  0  0  0  0  0  0  0  0  0  0  0
   59.2780   33.2130   46.0930 N   0  0  0  0  0  0  0  0  0  0  0  0
   60.3320   32.6460   46.7430 C   0  0  0  0  0  0  0  0  0  0  0  0
   61.3610   33.4600   47.3330 N   0  0  0  0  0  0  0  0  0  0  0  0
   61.0910   34.3230   48.4860 C   0  0  0  0  0  0  0  0  0  0  0  0
   62.1700   34.1230   49.5680 C   0  0  0  0  0  0  0  0  0  0  0  0
   63.5160   33.7950   49.0270 N   0  0  0  0  0  0  0  0  0  0  0  0
   63.8550   32.3760   49.2290 C   0  0  0  0  0  0  0  0  0  0  0  0
   63.7000   34.2090   47.6200 C   0  0  0  0  0  0  0  0  0  0  0  0
   62.6750   33.5410   46.6870 C   0  0  0  0  0  0  0  0  0  0  0  0
   60.3860   31.2940   46.8760 N   0  0  0  0  0  0  0  0  0  0  0  0
   59.4290   30.4780   46.3600 C   0  0  0  0  0  0  0  0  0  0  0  0
   59.5660   29.0210   46.5920 C   0  0  0  0  0  0  0  0  0  0  0  0
   58.8560   28.4140   47.6420 C   0  0  0  0  0  0  0  0  0  0  0  0
   58.9520   27.0350   47.8560 C   0  0  0  0  0  0  0  0  0  0  0  0
   59.7440   26.2510   47.0140 C   0  0  0  0  0  0  0  0  0  0  0  0
   60.4360   26.8410   45.9540 C   0  0  0  0  0  0  0  0  0  0  0  0
   60.3430   28.2190   45.7370 C   0  0  0  0  0  0  0  0  0  0  0  0
   56.2090   26.6960   45.9800 C   0  0  0  0  0  0  0  0  0  0  0  0
   56.3850   25.3610   45.6040 C   0  0  0  0  0  0  0  0  0  0  0  0
   58.4082   23.0288   45.8910 H   0  0  0  0  0  0  0  0  0  0  0  0
   58.6149   21.8909   44.5166 H   0  0  0  0  0  0  0  0  0  0  0  0
   59.4790   23.4657   44.5166 H   0  0  0  0  0  0  0  0  0  0  0  0
   57.5400   23.5636   43.0029 H   0  0  0  0  0  0  0  0  0  0  0  0
   56.4529   23.0484   44.3492 H   0  0  0  0  0  0  0  0  0  0  0  0
   58.4905   25.8148   42.9450 H   0  0  0  0  0  0  0  0  0  0  0  0
   58.1926   28.1919   43.6307 H   0  0  0  0  0  0  0  0  0  0  0  0
   57.4716   32.9236   45.0048 H   0  0  0  0  0  0  0  0  0  0  0  0
   59.1910   34.2510   46.0260 H   0  0  0  0  0  0  0  0  0  0  0  0
   61.0933   35.3739   48.1611 H   0  0  0  0  0  0  0  0  0  0  0  0
   60.1091   34.0609   48.9070 H   0  0  0  0  0  0  0  0  0  0  0  0
   62.2492   35.0511   50.1532 H   0  0  0  0  0  0  0  0  0  0  0  0
   61.8540   33.2635   50.1774 H   0  0  0  0  0  0  0  0  0  0  0  0
   63.9063   32.1611   50.3066 H   0  0  0  0  0  0  0  0  0  0  0  0
   63.0824   31.7449   48.7656 H   0  0  0  0  0  0  0  0  0  0  0  0
   64.8295   32.1623   48.7656 H   0  0  0  0  0  0  0  0  0  0  0  0
   63.5839   35.3008   47.5524 H   0  0  0  0  0  0  0  0  0  0  0  0
   64.7055   33.8968   47.3013 H   0  0  0  0  0  0  0  0  0  0  0  0
   62.5876   34.1329   45.7639 H   0  0  0  0  0  0  0  0  0  0  0  0
   63.0188   32.5219   46.4561 H   0  0  0  0  0  0  0  0  0  0  0  0
   58.2213   29.0267   48.2991 H   0  0  0  0  0  0  0  0  0  0  0  0
   58.4037   26.5680   48.6874 H   0  0  0  0  0  0  0  0  0  0  0  0
   59.8228   25.1674   47.1860 H   0  0  0  0  0  0  0  0  0  0  0  0
   61.0550   26.2207   45.2891 H   0  0  0  0  0  0  0  0  0  0  0  0
   60.8799   28.6780   44.8938 H   0  0  0  0  0  0  0  0  0  0  0  0
   55.5762   26.9426   46.8453 H   0  0  0  0  0  0  0  0  0  0  0  0
   55.8739   24.5631   46.1627 H   0  0  0  0  0  0  0  0  0  0  0  0
  1  2  1  0
  2  3  1  0
  3  4  2  0
  4  5  1  0
  5  6  2  0
  6  7  1  0
  7  8  1  0
  8  9  2  0
  8 10  1  0
 10 11  2  0
 11 12  1  0
 12 13  2  0
 13 14  1  0
 14 15  1  0
 15 16  1  0
 16 17  1  0
 17 18  1  0
 17 19  1  0
 19 20  1  0
 13 21  1  0
 21 22  2  0
 22 23  1  0
 23 24  2  0
 24 25  1  0
 25 26  2  0
 26 27  1  0
 27 28  2  0
  6 29  1  0
 29 30  2  0
 30  3  1  0
 22 10  1  0
 28 23  1  0
 20 14  1  0
  1 31  1  0
  1 32  1  0
  1 33  1  0
  2 34  1  0
  2 35  1  0
  4 36  1  0
  5 37  1  0
 11 38  1  0
 12 39  1  0
 15 40  1  0
 15 41  1  0
 16 42  1  0
 16 43  1  0
 18 44  1  0
 18 45  1  0
 18 46  1  0
 19 47  1  0
 19 48  1  0
 20 49  1  0
 20 50  1  0
 24 51  1  0
 25 52  1  0
 26 53  1  0
 27 54  1  0
 28 55  1  0
 29 56  1  0
 30 57  1  0
M  CHG  2   7  -1  12   1
M  END
>  <UniqueID>  (54) 
51

>  <SMILES>  (54) 
CCc1ccc([N-]C(=O)c2c[nH+]c(N3CCN(C)CC3)nc2-c2ccccc2)cc1

>  <Energy>  (54) 
81.01419411494011

>  <Genealogy>  (54) 
CCc1ccc([N-]C(=O)c2c[nH+]c(N3CCN(C)CC3)nc2-c2ccccc2)cc1 (protonated)
CCc1ccc([N-]C(=O)c2c[nH+]c(N3CCN(C)CC3)nc2-c2ccccc2)cc1 (3D coordinates assigned)
CCc1ccc([N-]C(=O)c2c[nH+]c(N3CCN(C)CC3)nc2-c2ccccc2)cc1 (nonaromatic ring conformer: 81.01419411494011 kcal/mol)

>  <smiles>  (54) 
CCc1ccc(NC(=O)c2cnc(N3CCN(C)CC3)nc2-c2ccccc2)cc1

>  <score_type>  (54) 
oracle

>  <origin>  (54) 
adg

>  <m_score__min__energy>  (54) 
-8.0999999999999996

>  <m_primary>  (54) 
energy

$$$$
54:0
     RDKit          3D

 58 61  0  0  0  0  0  0  0  0999 V2000
   56.5610   31.2120   52.0410 C   0  0  0  0  0  0  0  0  0  0  0  0
   57.1530   30.1510   51.2990 O   0  0  0  0  0  0  0  0  0  0  0  0
   58.2950   30.2890   50.4960 C   0  0  0  0  0  0  0  0  0  0  0  0
   58.5600   29.4410   49.4030 C   0  0  0  0  0  0  0  0  0  0  0  0
   59.7130   29.6200   48.6340 C   0  0  0  0  0  0  0  0  0  0  0  0
   60.6250   30.6380   48.9520 C   0  0  0  0  0  0  0  0  0  0  0  0
   61.8410   30.8570   48.1000 C   0  0  0  0  0  0  0  0  0  0  0  0
   61.4670   31.5780   46.9290 O   0  0  0  0  0  0  0  0  0  0  0  0
   60.2270   32.2080   46.7430 C   0  0  0  0  0  0  0  0  0  0  0  0
   59.2250   31.6610   45.9180 C   0  0  0  0  0  0  0  0  0  0  0  0
   57.9920   32.3100   45.7680 C   0  0  0  0  0  0  0  0  0  0  0  0
   56.9280   31.7170   44.8800 C   0  0  0  0  0  0  0  0  0  0  0  0
   57.4320   30.5830   44.1720 O   0  0  0  0  0  0  0  0  0  0  0  0
   57.5600   29.2870   44.7000 C   0  0  0  0  0  0  0  0  0  0  0  0
   58.8070   28.6480   44.8420 C   0  0  0  0  0  0  0  0  0  0  0  0
   58.8820   27.3550   45.3670 C   0  0  0  0  0  0  0  0  0  0  0  0
   57.7170   26.6790   45.7590 C   0  0  0  0  0  0  0  0  0  0  0  0
   57.7950   25.2960   46.3470 C   0  0  0  0  0  0  0  0  0  0  0  0
   57.0200   24.3230   45.5080 C   0  0  0  0  0  0  0  0  0  0  0  0
   57.7010   23.3290   44.3290 S   0  0  0  0  0  0  0  0  0  0  0  0
   56.2130   22.7070   43.8670 C   0  0  0  0  0  0  0  0  0  0  0  0
   56.0530   21.8470   42.9640 O   0  0  0  0  0  0  0  0  0  0  0  0
   55.1890   23.2340   44.5710 N   0  0  0  0  0  0  0  0  0  0  0  0
   55.6330   24.1400   45.4830 C   0  0  0  0  0  0  0  0  0  0  0  0
   54.7410   24.8130   46.3140 O   0  0  0  0  0  0  0  0  0  0  0  0
   56.4750   27.3180   45.6230 C   0  0  0  0  0  0  0  0  0  0  0  0
   56.3980   28.6110   45.0980 C   0  0  0  0  0  0  0  0  0  0  0  0
   55.1580   29.2260   44.9690 O   0  0  0  0  0  0  0  0  0  0  0  0
   57.7700   33.5280   46.4240 C   0  0  0  0  0  0  0  0  0  0  0  0
   58.7590   34.0800   47.2400 C   0  0  0  0  0  0  0  0  0  0  0  0
   59.9930   33.4220   47.4080 C   0  0  0  0  0  0  0  0  0  0  0  0
   61.0100   33.9440   48.2230 O   0  0  0  0  0  0  0  0  0  0  0  0
   62.3850   34.0050   47.8570 C   0  0  0  0  0  0  0  0  0  0  0  0
   60.3540   31.4930   50.0290 C   0  0  0  0  0  0  0  0  0  0  0  0
   59.2000   31.3130   50.7980 C   0  0  0  0  0  0  0  0  0  0  0  0
   56.6719   31.0132   53.1172 H   0  0  0  0  0  0  0  0  0  0  0  0
   57.0612   32.1589   51.7896 H   0  0  0  0  0  0  0  0  0  0  0  0
   55.4925   31.2837   51.7896 H   0  0  0  0  0  0  0  0  0  0  0  0
   57.8557   28.6337   49.1535 H   0  0  0  0  0  0  0  0  0  0  0  0
   59.9066   28.9600   47.7756 H   0  0  0  0  0  0  0  0  0  0  0  0
   62.5875   31.4343   48.6652 H   0  0  0  0  0  0  0  0  0  0  0  0
   62.2732   29.8864   47.8150 H   0  0  0  0  0  0  0  0  0  0  0  0
   59.4119   30.7161   45.3868 H   0  0  0  0  0  0  0  0  0  0  0  0
   56.0741   31.4052   45.4993 H   0  0  0  0  0  0  0  0  0  0  0  0
   56.6141   32.4775   44.1499 H   0  0  0  0  0  0  0  0  0  0  0  0
   59.7267   29.1693   44.5381 H   0  0  0  0  0  0  0  0  0  0  0  0
   59.8607   26.8643   45.4735 H   0  0  0  0  0  0  0  0  0  0  0  0
   58.8476   24.9794   46.3889 H   0  0  0  0  0  0  0  0  0  0  0  0
   57.3638   25.3151   47.3588 H   0  0  0  0  0  0  0  0  0  0  0  0
   54.7310   25.8220   46.3880 H   0  0  0  0  0  0  0  0  0  0  0  0
   55.5562   26.7979   45.9316 H   0  0  0  0  0  0  0  0  0  0  0  0
   56.8114   34.0520   46.2953 H   0  0  0  0  0  0  0  0  0  0  0  0
   58.5736   35.0343   47.7547 H   0  0  0  0  0  0  0  0  0  0  0  0
   63.0053   34.0325   48.7650 H   0  0  0  0  0  0  0  0  0  0  0  0
   62.6457   33.1175   47.2616 H   0  0  0  0  0  0  0  0  0  0  0  0
   62.5661   34.9121   47.2616 H   0  0  0  0  0  0  0  0  0  0  0  0
   61.0516   32.3086   50.2702 H   0  0  0  0  0  0  0  0  0  0  0  0
   59.0017   31.9824   51.6481 H   0  0  0  0  0  0  0  0  0  0  0  0
  1  2  1  0
  2  3  1  0
  3  4  2  0
  4  5  1  0
  5  6  2  0
  6  7  1  0
  7  8  1  0
  8  9  1  0
  9 10  2  0
 10 11  1  0
 11 12  1  0
 12 13  1  0
 13 14  1  0
 14 15  2  0
 15 16  1  0
 16 17  2  0
 17 18  1  0
 18 19  1  0
 19 20  1  0
 20 21  1  0
 21 22  2  0
 21 23  1  0
 23 24  1  0
 24 25  1  0
 17 26  1  0
 26 27  2  0
 27 28  1  0
 11 29  2  0
 29 30  1  0
 30 31  2  0
 31 32  1  0
 32 33  1  0
  6 34  1  0
 34 35  2  0
 35  3  1  0
 31  9  1  0
 27 14  1  0
 24 19  2  0
  1 36  1  0
  1 37  1  0
  1 38  1  0
  4 39  1  0
  5 40  1  0
  7 41  1  0
  7 42  1  0
 10 43  1  0
 12 44  1  0
 12 45  1  0
 15 46  1  0
 16 47  1  0
 18 48  1  0
 18 49  1  0
 25 50  1  0
 26 51  1  0
 29 52  1  0
 30 53  1  0
 33 54  1  0
 33 55  1  0
 33 56  1  0
 34 57  1  0
 35 58  1  0
M  CHG  2  23  -1  28  -1
M  END
>  <UniqueID>  (55) 
52

>  <SMILES>  (55) 
COc1ccc(COc2cc(COc3ccc(Cc4sc(=O)[n-]c4O)cc3[O-])ccc2OC)cc1

>  <Energy>  (55) 
89.17984545459701

>  <Genealogy>  (55) 
COc1ccc(COc2cc(COc3ccc(Cc4sc(=O)[n-]c4O)cc3[O-])ccc2OC)cc1 (protonated)
COc1ccc(COc2cc(COc3ccc(Cc4sc(=O)[n-]c4O)cc3[O-])ccc2OC)cc1 (3D coordinates assigned)
COc1ccc(COc2cc(COc3ccc(Cc4sc(=O)[n-]c4O)cc3[O-])ccc2OC)cc1 (optimized conformer: 89.17984545459701 kcal/mol)

>  <smiles>  (55) 
COc1ccc(COc2cc(COc3ccc(Cc4sc(=O)[nH]c4O)cc3O)ccc2OC)cc1

>  <score_type>  (55) 
oracle

>  <origin>  (55) 
adg

>  <m_score__min__energy>  (55) 
-14.619999999999999

>  <m_primary>  (55) 
energy

$$$$
55:0
     RDKit          3D

 46 48  0  0  0  0  0  0  0  0999 V2000
   57.3950   29.4230   50.5650 H   0  0  0  0  0  0  0  0  0  0  0  0
   58.0890   30.0330   50.2000 O   0  0  0  0  0  0  0  0  0  0  0  0
   59.0080   30.2830   51.2360 C   0  0  1  0  0  0  0  0  0  0  0  0
   59.8570   29.5899   51.1423 H   0  0  0  0  0  0  0  0  0  0  0  0
   59.5180   31.7350   51.1180 C   0  0  1  0  0  0  0  0  0  0  0  0
   60.2222   31.9045   51.9458 H   0  0  0  0  0  0  0  0  0  0  0  0
   60.1850   31.9330   49.8670 O   0  0  0  0  0  0  0  0  0  0  0  0
   59.7430   32.7590   48.8190 C   0  0  0  0  0  0  0  0  0  0  0  0
   60.4900   33.9040   48.5030 C   0  0  0  0  0  0  0  0  0  0  0  0
   61.9410   34.3030   49.4040 Cl  0  0  0  0  0  0  0  0  0  0  0  0
   60.0920   34.7250   47.4930 N   0  0  0  0  0  0  0  0  0  0  0  0
   58.9770   34.4710   46.7610 C   0  0  0  0  0  0  0  0  0  0  0  0
   58.6831   35.1562   45.9522 H   0  0  0  0  0  0  0  0  0  0  0  0
   58.2040   33.3430   47.0330 C   0  0  0  0  0  0  0  0  0  0  0  0
   57.3009   33.1331   46.4411 H   0  0  0  0  0  0  0  0  0  0  0  0
   58.5870   32.4820   48.0640 C   0  0  0  0  0  0  0  0  0  0  0  0
   57.9859   31.5879   48.2861 H   0  0  0  0  0  0  0  0  0  0  0  0
   58.3540   32.7450   51.2280 C   0  0  0  0  0  0  0  0  0  0  0  0
   57.9497   32.9207   50.2202 H   0  0  0  0  0  0  0  0  0  0  0  0
   58.7631   33.6604   51.6804 H   0  0  0  0  0  0  0  0  0  0  0  0
   57.2040   32.2660   52.1380 C   0  0  0  0  0  0  0  0  0  0  0  0
   56.4538   31.7496   51.5212 H   0  0  0  0  0  0  0  0  0  0  0  0
   56.7710   33.1476   52.6332 H   0  0  0  0  0  0  0  0  0  0  0  0
   57.6980   31.3060   53.2240 C   0  0  0  0  0  0  0  0  0  0  0  0
   56.8420   31.0016   53.8442 H   0  0  0  0  0  0  0  0  0  0  0  0
   58.4570   31.8326   53.8212 H   0  0  0  0  0  0  0  0  0  0  0  0
   58.3580   30.0370   52.6260 C   0  0  1  0  0  0  0  0  0  0  0  0
   59.1665   29.7560   53.3169 H   0  0  0  0  0  0  0  0  0  0  0  0
   57.4050   28.9750   52.5300 O   0  0  0  0  0  0  0  0  0  0  0  0
   56.1650   28.9850   53.1790 C   0  0  0  0  0  0  0  0  0  0  0  0
   55.9820   28.2860   54.2130 O   0  0  0  0  0  0  0  0  0  0  0  0
   55.1060   29.8730   52.6630 C   0  0  0  0  0  0  0  0  0  0  0  0
   55.3420   30.9447   52.5873 H   0  0  0  0  0  0  0  0  0  0  0  0
   53.8800   29.4870   52.2780 C   0  0  0  0  0  0  0  0  0  0  0  0
   53.5427   28.4888   52.5939 H   0  0  0  0  0  0  0  0  0  0  0  0
   52.9460   30.2920   51.4650 C   0  0  0  0  0  0  0  0  0  0  0  0
   52.4780   29.7790   50.2460 C   0  0  0  0  0  0  0  0  0  0  0  0
   52.8371   28.8022   49.8897 H   0  0  0  0  0  0  0  0  0  0  0  0
   51.5570   30.5030   49.4810 C   0  0  0  0  0  0  0  0  0  0  0  0
   51.1170   29.9930   48.2650 O   0  0  0  0  0  0  0  0  0  0  0  0
   51.0800   31.7370   49.9410 C   0  0  0  0  0  0  0  0  0  0  0  0
   50.1670   32.4570   49.1790 O   0  0  0  0  0  0  0  0  0  0  0  0
   51.5180   32.2400   51.1710 C   0  0  0  0  0  0  0  0  0  0  0  0
   51.0370   33.4570   51.6400 O   0  0  0  0  0  0  0  0  0  0  0  0
   52.4390   31.5170   51.9360 C   0  0  0  0  0  0  0  0  0  0  0  0
   52.7684   31.9078   52.9101 H   0  0  0  0  0  0  0  0  0  0  0  0
  1  2  1  0
  2  3  1  0
  3  4  1  6
  3  5  1  0
  5  6  1  1
  5  7  1  0
  7  8  1  0
  8  9  2  0
  9 10  1  0
  9 11  1  0
 11 12  2  0
 12 13  1  0
 12 14  1  0
 14 15  1  0
 14 16  2  0
 16 17  1  0
  5 18  1  0
 18 19  1  0
 18 20  1  0
 18 21  1  0
 21 22  1  0
 21 23  1  0
 21 24  1  0
 24 25  1  0
 24 26  1  0
 24 27  1  0
 27 28  1  1
 27 29  1  0
 29 30  1  0
 30 31  2  0
 30 32  1  0
 32 33  1  0
 32 34  2  0
 34 35  1  0
 34 36  1  0
 36 37  2  0
 37 38  1  0
 37 39  1  0
 39 40  1  0
 39 41  2  0
 41 42  1  0
 41 43  1  0
 43 44  1  0
 43 45  2  0
 45 46  1  0
 27  3  1  0
 45 36  1  0
 16  8  1  0
M  CHG  3  40  -1  42  -1  44  -1
M  END
>  <UniqueID>  (56) 
53

>  <SMILES>  (56) 
O=C(/C=C\c1cc([O-])c([O-])c([O-])c1)O[C@@H]1CCC[C@H](Oc2cccnc2Cl)C1O

>  <Energy>  (56) 
60.63171083822083

>  <Genealogy>  (56) 
O=C(C=Cc1cc([O-])c([O-])c([O-])c1)OC1CCCC(Oc2cccnc2Cl)C1O (protonated)
O=C(C=Cc1cc([O-])c([O-])c([O-])c1)O[C@@H]1CCC[C@H](Oc2cccnc2Cl)C1O (chirality)
O=C(/C=C\c1cc([O-])c([O-])c([O-])c1)O[C@@H]1CCC[C@H](Oc2cccnc2Cl)C1O (cis-trans isomerization)
O=C(/C=C\c1cc([O-])c([O-])c([O-])c1)O[C@@H]1CCC[C@H](Oc2cccnc2Cl)C1O (3D coordinates assigned)
O=C(/C=C\c1cc([O-])c([O-])c([O-])c1)O[C@@H]1CCC[C@H](Oc2cccnc2Cl)C1O (nonaromatic ring conformer: 60.63171083822083 kcal/mol)

>  <smiles>  (56) 
O=C(C=Cc1cc(O)c(O)c(O)c1)OC1CCCC(Oc2cccnc2Cl)C1O

>  <score_type>  (56) 
oracle

>  <origin>  (56) 
adg

>  <m_score__min__energy>  (56) 
-19.5

>  <m_primary>  (56) 
energy

$$$$
56:0
     RDKit          3D

 47 50  0  0  0  0  0  0  0  0999 V2000
   56.7270   27.6370   42.7990 H   0  0  0  0  0  0  0  0  0  0  0  0
   57.0390   28.5810   42.6090 O   0  0  0  0  0  0  0  0  0  0  0  0
   57.2820   29.4730   43.6500 C   0  0  0  0  0  0  0  0  0  0  0  0
   57.0340   29.2580   44.9910 C   0  0  0  0  0  0  0  0  0  0  0  0
   56.4800   28.0440   45.6160 C   0  0  0  0  0  0  0  0  0  0  0  0
   55.5371   28.1565   46.1713 H   0  0  0  0  0  0  0  0  0  0  0  0
   57.0240   26.7950   45.5720 C   0  0  0  0  0  0  0  0  0  0  0  0
   58.4220   26.5230   45.4760 C   0  0  0  0  0  0  0  0  0  0  0  0
   59.3400   27.4240   45.0970 C   0  0  0  0  0  0  0  0  0  0  0  0
   59.0488   28.4730   44.9394 H   0  0  0  0  0  0  0  0  0  0  0  0
   60.3843   27.1141   44.9437 H   0  0  0  0  0  0  0  0  0  0  0  0
   58.8570   25.2510   45.6500 N   0  0  0  0  0  0  0  0  0  0  0  0
   58.0150   24.2080   45.8220 C   0  0  0  0  0  0  0  0  0  0  0  0
   58.5030   23.0590   45.9950 O   0  0  0  0  0  0  0  0  0  0  0  0
   56.6610   24.4000   45.7790 N   0  0  0  0  0  0  0  0  0  0  0  0
   55.7380   23.2470   45.8700 C   0  0  0  0  0  0  0  0  0  0  0  0
   56.1254   22.5353   46.6140 H   0  0  0  0  0  0  0  0  0  0  0  0
   54.7460   23.6180   46.1673 H   0  0  0  0  0  0  0  0  0  0  0  0
   55.6040   22.5320   44.5140 C   0  0  2  0  0  0  0  0  0  0  0  0
   54.5266   22.4171   44.3242 H   0  0  0  0  0  0  0  0  0  0  0  0
   56.2500   21.2810   44.5680 O   0  0  0  0  0  0  0  0  0  0  0  0
   56.8440   21.0540   43.3090 C   0  0  0  0  0  0  0  0  0  0  0  0
   56.3993   20.1582   42.8509 H   0  0  0  0  0  0  0  0  0  0  0  0
   57.9261   20.9040   43.4381 H   0  0  0  0  0  0  0  0  0  0  0  0
   56.6060   22.2530   42.4080 C   0  0  0  0  0  0  0  0  0  0  0  0
   55.8007   22.0507   41.6865 H   0  0  0  0  0  0  0  0  0  0  0  0
   57.4849   22.5191   41.8024 H   0  0  0  0  0  0  0  0  0  0  0  0
   56.2080   23.3280   43.3690 C   0  0  0  0  0  0  0  0  0  0  0  0
   55.4674   24.0075   42.9221 H   0  0  0  0  0  0  0  0  0  0  0  0
   57.0425   23.9759   43.6752 H   0  0  0  0  0  0  0  0  0  0  0  0
   56.1580   25.6720   45.6460 C   0  0  0  0  0  0  0  0  0  0  0  0
   54.9050   25.8420   45.6260 O   0  0  0  0  0  0  0  0  0  0  0  0
   57.4390   30.3040   45.6730 O   0  0  0  0  0  0  0  0  0  0  0  0
   57.9190   31.2040   44.8370 C   0  0  0  0  0  0  0  0  0  0  0  0
   58.4560   32.5150   45.2720 C   0  0  0  0  0  0  0  0  0  0  0  0
   59.2170   32.6460   46.4490 C   0  0  0  0  0  0  0  0  0  0  0  0
   59.4243   31.7601   47.0673 H   0  0  0  0  0  0  0  0  0  0  0  0
   59.7110   33.8950   46.8370 C   0  0  0  0  0  0  0  0  0  0  0  0
   60.3033   33.9880   47.7592 H   0  0  0  0  0  0  0  0  0  0  0  0
   59.4550   35.0240   46.0580 C   0  0  0  0  0  0  0  0  0  0  0  0
   59.9360   36.2340   46.4370 F   0  0  0  0  0  0  0  0  0  0  0  0
   58.7010   34.9070   44.8870 C   0  0  0  0  0  0  0  0  0  0  0  0
   58.4985   35.7969   44.2730 H   0  0  0  0  0  0  0  0  0  0  0  0
   58.2040   33.6610   44.4950 C   0  0  0  0  0  0  0  0  0  0  0  0
   57.6114   33.5754   43.5722 H   0  0  0  0  0  0  0  0  0  0  0  0
   57.8400   30.7260   43.5340 C   0  0  0  0  0  0  0  0  0  0  0  0
   58.1545   31.2371   42.6121 H   0  0  0  0  0  0  0  0  0  0  0  0
  1  2  1  0
  2  3  1  0
  3  4  2  0
  4  5  1  0
  5  6  1  0
  5  7  2  0
  7  8  1  0
  8  9  2  0
  9 10  1  0
  9 11  1  0
  8 12  1  0
 12 13  1  0
 13 14  2  0
 13 15  1  0
 15 16  1  0
 16 17  1  0
 16 18  1  0
 16 19  1  0
 19 20  1  6
 19 21  1  0
 21 22  1  0
 22 23  1  0
 22 24  1  0
 22 25  1  0
 25 26  1  0
 25 27  1  0
 25 28  1  0
 28 29  1  0
 28 30  1  0
 15 31  1  0
 31 32  2  0
  4 33  1  0
 33 34  1  0
 34 35  1  0
 35 36  2  0
 36 37  1  0
 36 38  1  0
 38 39  1  0
 38 40  2  0
 40 41  1  0
 40 42  1  0
 42 43  1  0
 42 44  2  0
 44 45  1  0
 34 46  2  0
 46 47  1  0
 46  3  1  0
 31  7  1  0
 44 35  1  0
 28 19  1  0
M  CHG  1  12  -1
M  END
>  <UniqueID>  (57) 
54

>  <SMILES>  (57) 
C=c1[n-]c(=O)n(C[C@H]2CCCO2)c(=O)/c1=C/c1oc(-c2ccc(F)cc2)cc1O

>  <Energy>  (57) 
103.72285230211966

>  <Genealogy>  (57) 
C=c1[n-]c(=O)n(CC2CCCO2)c(=O)c1=Cc1oc(-c2ccc(F)cc2)cc1O (protonated)
C=c1[n-]c(=O)n(C[C@H]2CCCO2)c(=O)c1=Cc1oc(-c2ccc(F)cc2)cc1O (chirality)
C=c1[n-]c(=O)n(C[C@H]2CCCO2)c(=O)/c1=C/c1oc(-c2ccc(F)cc2)cc1O (cis-trans isomerization)
C=c1[n-]c(=O)n(C[C@H]2CCCO2)c(=O)/c1=C/c1oc(-c2ccc(F)cc2)cc1O (3D coordinates assigned)
C=c1[n-]c(=O)n(C[C@H]2CCCO2)c(=O)/c1=C/c1oc(-c2ccc(F)cc2)cc1O (nonaromatic ring conformer: 103.72285230211966 kcal/mol)

>  <smiles>  (57) 
C=c1[nH]c(=O)n(CC2CCCO2)c(=O)c1=Cc1oc(-c2ccc(F)cc2)cc1O

>  <score_type>  (57) 
oracle

>  <origin>  (57) 
adg

>  <m_score__min__energy>  (57) 
-9.9100000000000001

>  <m_primary>  (57) 
energy

$$$$
57:0
     RDKit          3D

 65 68  0  0  0  0  0  0  0  0999 V2000
   50.7770   31.5640   53.0590 C   0  0  0  0  0  0  0  0  0  0  0  0
   52.1500   31.0260   52.7660 C   0  0  0  0  0  0  0  0  0  0  0  0
   52.9140   30.4460   53.7900 C   0  0  0  0  0  0  0  0  0  0  0  0
   54.2230   30.0190   53.5420 C   0  0  0  0  0  0  0  0  0  0  0  0
   54.7980   30.2030   52.2700 C   0  0  0  0  0  0  0  0  0  0  0  0
   56.1750   29.9040   52.0090 N   0  0  0  0  0  0  0  0  0  0  0  0
   57.4760   31.0370   52.2070 S   0  0  0  0  0  0  0  0  0  0  0  0
   58.0070   30.9440   53.6090 O   0  0  0  0  0  0  0  0  0  0  0  0
   56.9550   32.4260   51.9630 O   0  0  0  0  0  0  0  0  0  0  0  0
   58.7740   30.6530   51.0770 C   0  0  0  0  0  0  0  0  0  0  0  0
   60.0880   31.0320   51.3720 C   0  0  0  0  0  0  0  0  0  0  0  0
   61.1380   30.6140   50.5550 C   0  0  0  0  0  0  0  0  0  0  0  0
   60.8850   29.8100   49.4400 C   0  0  0  0  0  0  0  0  0  0  0  0
   59.5700   29.4330   49.1210 C   0  0  0  0  0  0  0  0  0  0  0  0
   59.2920   28.5410   47.9740 C   0  0  0  0  0  0  0  0  0  0  0  0
   59.7490   27.3640   47.9550 O   0  0  0  0  0  0  0  0  0  0  0  0
   58.5000   29.0000   46.9170 O   0  0  0  0  0  0  0  0  0  0  0  0
   57.5760   28.1700   46.2270 C   0  0  0  0  0  0  0  0  0  0  0  0
   56.8490   28.9830   45.2090 C   0  0  0  0  0  0  0  0  0  0  0  0
   55.5890   28.9480   45.1670 O   0  0  0  0  0  0  0  0  0  0  0  0
   57.5890   29.8180   44.3110 N   0  0  0  0  0  0  0  0  0  0  0  0
   57.9550   31.1840   44.5500 C   0  0  0  0  0  0  0  0  0  0  0  0
   58.3060   31.5600   45.8520 C   0  0  0  0  0  0  0  0  0  0  0  0
   58.6840   32.8780   46.1390 C   0  0  0  0  0  0  0  0  0  0  0  0
   59.0780   33.3450   47.7960 S   0  0  0  0  0  0  0  0  0  0  0  0
   58.9470   34.8380   47.9370 O   0  0  0  0  0  0  0  0  0  0  0  0
   58.0970   32.7020   48.7400 O   0  0  0  0  0  0  0  0  0  0  0  0
   60.7050   32.8650   48.2270 N   0  0  0  0  0  0  0  0  0  0  0  0
   61.5130   32.5230   47.0350 C   0  0  0  0  0  0  0  0  0  0  0  0
   62.6870   33.4920   46.8180 C   0  0  0  0  0  0  0  0  0  0  0  0
   63.5390   33.5940   47.9520 O   0  0  0  0  0  0  0  0  0  0  0  0
   62.8420   33.6290   49.1930 C   0  0  0  0  0  0  0  0  0  0  0  0
   61.3320   33.8890   49.0780 C   0  0  0  0  0  0  0  0  0  0  0  0
   58.7350   33.8220   45.1060 C   0  0  0  0  0  0  0  0  0  0  0  0
   58.4190   33.4480   43.7970 C   0  0  0  0  0  0  0  0  0  0  0  0
   58.0420   32.1300   43.5070 C   0  0  0  0  0  0  0  0  0  0  0  0
   57.7890   31.7600   42.1860 O   0  0  0  0  0  0  0  0  0  0  0  0
   58.5170   29.8730   49.9410 C   0  0  0  0  0  0  0  0  0  0  0  0
   54.0220   30.7510   51.2420 C   0  0  0  0  0  0  0  0  0  0  0  0
   52.7100   31.1740   51.4900 C   0  0  0  0  0  0  0  0  0  0  0  0
   50.6303   31.6215   54.1477 H   0  0  0  0  0  0  0  0  0  0  0  0
   50.6757   32.5683   52.6219 H   0  0  0  0  0  0  0  0  0  0  0  0
   50.0204   30.8958   52.6219 H   0  0  0  0  0  0  0  0  0  0  0  0
   52.4810   30.3263   54.7941 H   0  0  0  0  0  0  0  0  0  0  0  0
   54.8044   29.5384   54.3426 H   0  0  0  0  0  0  0  0  0  0  0  0
   60.2934   31.6613   52.2505 H   0  0  0  0  0  0  0  0  0  0  0  0
   62.1689   30.9181   50.7889 H   0  0  0  0  0  0  0  0  0  0  0  0
   61.7198   29.4708   48.8092 H   0  0  0  0  0  0  0  0  0  0  0  0
   58.1176   27.3535   45.7269 H   0  0  0  0  0  0  0  0  0  0  0  0
   56.8563   27.7452   46.9422 H   0  0  0  0  0  0  0  0  0  0  0  0
   58.2847   30.8123   46.6585 H   0  0  0  0  0  0  0  0  0  0  0  0
   61.9140   31.5065   47.1611 H   0  0  0  0  0  0  0  0  0  0  0  0
   60.8558   32.5939   46.1557 H   0  0  0  0  0  0  0  0  0  0  0  0
   63.2816   33.1368   45.9634 H   0  0  0  0  0  0  0  0  0  0  0  0
   62.2612   34.4896   46.6350 H   0  0  0  0  0  0  0  0  0  0  0  0
   62.9850   32.6597   49.6930 H   0  0  0  0  0  0  0  0  0  0  0  0
   63.2593   34.4754   49.7583 H   0  0  0  0  0  0  0  0  0  0  0  0
   60.8799   33.8556   50.0802 H   0  0  0  0  0  0  0  0  0  0  0  0
   61.1709   34.8793   48.6271 H   0  0  0  0  0  0  0  0  0  0  0  0
   59.0245   34.8603   45.3253 H   0  0  0  0  0  0  0  0  0  0  0  0
   58.4665   34.1931   42.9892 H   0  0  0  0  0  0  0  0  0  0  0  0
   57.7780   30.7900   41.8960 H   0  0  0  0  0  0  0  0  0  0  0  0
   57.4809   29.6027   49.6890 H   0  0  0  0  0  0  0  0  0  0  0  0
   54.4458   30.8502   50.2318 H   0  0  0  0  0  0  0  0  0  0  0  0
   52.1170   31.6240   50.6802 H   0  0  0  0  0  0  0  0  0  0  0  0
  1  2  1  0
  2  3  2  0
  3  4  1  0
  4  5  2  0
  5  6  1  0
  6  7  1  0
  7  8  2  0
  7  9  2  0
  7 10  1  0
 10 11  2  0
 11 12  1  0
 12 13  2  0
 13 14  1  0
 14 15  1  0
 15 16  2  0
 15 17  1  0
 17 18  1  0
 18 19  1  0
 19 20  2  0
 19 21  1  0
 21 22  1  0
 22 23  2  0
 23 24  1  0
 24 25  1  0
 25 26  2  0
 25 27  2  0
 25 28  1  0
 28 29  1  0
 29 30  1  0
 30 31  1  0
 31 32  1  0
 32 33  1  0
 24 34  2  0
 34 35  1  0
 35 36  2  0
 36 37  1  0
 14 38  2  0
  5 39  1  0
 39 40  2  0
 40  2  1  0
 38 10  1  0
 36 22  1  0
 33 28  1  0
  1 41  1  0
  1 42  1  0
  1 43  1  0
  3 44  1  0
  4 45  1  0
 11 46  1  0
 12 47  1  0
 13 48  1  0
 18 49  1  0
 18 50  1  0
 23 51  1  0
 29 52  1  0
 29 53  1  0
 30 54  1  0
 30 55  1  0
 32 56  1  0
 32 57  1  0
 33 58  1  0
 33 59  1  0
 34 60  1  0
 35 61  1  0
 37 62  1  0
 38 63  1  0
 39 64  1  0
 40 65  1  0
M  CHG  2   6  -1  21  -1
M  END
>  <UniqueID>  (58) 
55

>  <SMILES>  (58) 
Cc1ccc([N-]S(=O)(=O)c2cccc(C(=O)OCC(=O)[N-]c3cc(S(=O)(=O)N4CCOCC4)ccc3O)c2)cc1

>  <Energy>  (58) 
86.80841335627143

>  <Genealogy>  (58) 
Cc1ccc([N-]S(=O)(=O)c2cccc(C(=O)OCC(=O)[N-]c3cc(S(=O)(=O)N4CCOCC4)ccc3O)c2)cc1 (protonated)
Cc1ccc([N-]S(=O)(=O)c2cccc(C(=O)OCC(=O)[N-]c3cc(S(=O)(=O)N4CCOCC4)ccc3O)c2)cc1 (3D coordinates assigned)
Cc1ccc([N-]S(=O)(=O)c2cccc(C(=O)OCC(=O)[N-]c3cc(S(=O)(=O)N4CCOCC4)ccc3O)c2)cc1 (nonaromatic ring conformer: 86.80841335627143 kcal/mol)

>  <smiles>  (58) 
Cc1ccc(NS(=O)(=O)c2cccc(C(=O)OCC(=O)Nc3cc(S(=O)(=O)N4CCOCC4)ccc3O)c2)cc1

>  <score_type>  (58) 
oracle

>  <origin>  (58) 
adg

>  <m_score__min__energy>  (58) 
-13.210000000000001

>  <m_primary>  (58) 
energy

$$$$
58:0
     RDKit          3D

 39 42  0  0  0  0  0  0  0  0999 V2000
   55.1810   29.5130   44.2750 N   0  0  0  0  0  0  0  0  0  0  0  0
   56.6930   29.9160   43.5420 S   0  0  0  0  0  0  0  0  0  0  0  0
   56.4460   30.9450   42.4750 O   0  0  0  0  0  0  0  0  0  0  0  0
   57.2920   28.6900   42.9110 O   0  0  0  0  0  0  0  0  0  0  0  0
   57.8180   30.5770   44.7250 C   0  0  0  0  0  0  0  0  0  0  0  0
   57.4660   31.9180   45.6730 S   0  0  0  0  0  0  0  0  0  0  0  0
   58.8800   31.8950   46.5770 C   0  0  0  0  0  0  0  0  0  0  0  0
   59.6650   30.8380   46.1290 C   0  0  0  0  0  0  0  0  0  0  0  0
   61.2610   30.4570   46.8600 S   0  0  0  0  0  0  0  0  0  0  0  0
   60.5610   30.0760   48.4640 C   0  0  0  0  0  0  0  0  0  0  0  0
   59.7130   30.9470   49.0740 N   0  0  0  0  0  0  0  0  0  0  0  0
   59.1640   30.6570   50.2850 C   0  0  0  0  0  0  0  0  0  0  0  0
   58.2820   31.5600   50.8940 C   0  0  0  0  0  0  0  0  0  0  0  0
   57.7220   31.2610   52.1400 C   0  0  0  0  0  0  0  0  0  0  0  0
   58.0330   30.0570   52.7800 C   0  0  0  0  0  0  0  0  0  0  0  0
   58.9040   29.1430   52.1760 C   0  0  0  0  0  0  0  0  0  0  0  0
   59.4760   29.4370   50.9240 C   0  0  0  0  0  0  0  0  0  0  0  0
   60.3530   28.5540   50.2700 C   0  0  0  0  0  0  0  0  0  0  0  0
   60.6660   27.4470   50.7870 O   0  0  0  0  0  0  0  0  0  0  0  0
   60.8700   28.8940   49.0620 N   0  0  0  0  0  0  0  0  0  0  0  0
   59.0720   30.0840   45.0970 C   0  0  0  0  0  0  0  0  0  0  0  0
   59.7530   28.5210   44.5080 S   0  0  0  0  0  0  0  0  0  0  0  0
   58.7120   27.4770   45.5270 C   0  0  0  0  0  0  0  0  0  0  0  0
   59.2710   26.7570   46.5910 C   0  0  0  0  0  0  0  0  0  0  0  0
   58.4500   26.0120   47.4420 C   0  0  0  0  0  0  0  0  0  0  0  0
   57.0670   25.9830   47.2350 C   0  0  0  0  0  0  0  0  0  0  0  0
   56.5010   26.7210   46.1880 C   0  0  0  0  0  0  0  0  0  0  0  0
   55.1240   26.7170   45.9980 O   0  0  0  0  0  0  0  0  0  0  0  0
   57.3230   27.4720   45.3390 C   0  0  0  0  0  0  0  0  0  0  0  0
   55.2920   28.5650   44.7070 H   0  0  0  0  0  0  0  0  0  0  0  0
   59.1408   32.5951   47.3844 H   0  0  0  0  0  0  0  0  0  0  0  0
   58.0299   32.5053   50.3911 H   0  0  0  0  0  0  0  0  0  0  0  0
   57.0350   31.9748   52.6181 H   0  0  0  0  0  0  0  0  0  0  0  0
   57.5917   29.8277   53.7611 H   0  0  0  0  0  0  0  0  0  0  0  0
   59.1416   28.1945   52.6799 H   0  0  0  0  0  0  0  0  0  0  0  0
   60.3582   26.7781   46.7569 H   0  0  0  0  0  0  0  0  0  0  0  0
   58.8923   25.4474   48.2761 H   0  0  0  0  0  0  0  0  0  0  0  0
   56.4244   25.3809   47.8942 H   0  0  0  0  0  0  0  0  0  0  0  0
   56.8777   28.0595   44.5226 H   0  0  0  0  0  0  0  0  0  0  0  0
  1  2  1  0
  2  3  2  0
  2  4  2  0
  2  5  1  0
  5  6  1  0
  6  7  1  0
  7  8  2  0
  8  9  1  0
  9 10  1  0
 10 11  2  0
 11 12  1  0
 12 13  2  0
 13 14  1  0
 14 15  2  0
 15 16  1  0
 16 17  2  0
 17 18  1  0
 18 19  2  0
 18 20  1  0
  8 21  1  0
 21 22  1  0
 22 23  1  0
 23 24  2  0
 24 25  1  0
 25 26  2  0
 26 27  1  0
 27 28  1  0
 27 29  2  0
 21  5  2  0
 29 23  1  0
 20 10  1  0
 17 12  1  0
  1 30  1  0
  7 31  1  0
 13 32  1  0
 14 33  1  0
 15 34  1  0
 16 35  1  0
 24 36  1  0
 25 37  1  0
 26 38  1  0
 29 39  1  0
M  CHG  3   1  -1  20  -1  28  -1
M  END
>  <UniqueID>  (59) 
56

>  <SMILES>  (59) 
[NH-]S(=O)(=O)c1scc(Sc2nc3ccccc3c(=O)[n-]2)c1Sc1cccc([O-])c1

>  <Energy>  (59) 
68.0878247219387

>  <Genealogy>  (59) 
[NH-]S(=O)(=O)c1scc(Sc2nc3ccccc3c(=O)[n-]2)c1Sc1cccc([O-])c1 (protonated)
[NH-]S(=O)(=O)c1scc(Sc2nc3ccccc3c(=O)[n-]2)c1Sc1cccc([O-])c1 (3D coordinates assigned)
[NH-]S(=O)(=O)c1scc(Sc2nc3ccccc3c(=O)[n-]2)c1Sc1cccc([O-])c1 (optimized conformer: 68.0878247219387 kcal/mol)

>  <smiles>  (59) 
NS(=O)(=O)c1scc(Sc2nc3ccccc3c(=O)[nH]2)c1Sc1cccc(O)c1

>  <score_type>  (59) 
oracle

>  <origin>  (59) 
adg

>  <m_score__min__energy>  (59) 
-15.02

>  <m_primary>  (59) 
energy

$$$$
59:0
     RDKit          3D

 43 45  0  0  0  0  0  0  0  0999 V2000
   61.1307   28.7797   47.9685 H   0  0  0  0  0  0  0  0  0  0  0  0
   60.2620   28.9480   47.3150 C   0  0  0  0  0  0  0  0  0  0  0  0
   60.0860   30.1840   46.6960 C   0  0  0  0  0  0  0  0  0  0  0  0
   60.8172   30.9894   46.8594 H   0  0  0  0  0  0  0  0  0  0  0  0
   58.9830   30.4010   45.8690 C   0  0  0  0  0  0  0  0  0  0  0  0
   58.8473   31.3802   45.3865 H   0  0  0  0  0  0  0  0  0  0  0  0
   58.0460   29.3810   45.6480 C   0  0  0  0  0  0  0  0  0  0  0  0
   56.6870   29.7330   44.5690 S   0  0  0  0  0  0  0  0  0  0  0  0
   57.0560   29.5930   43.1180 O   0  0  0  0  0  0  0  0  0  0  0  0
   55.5650   28.7810   44.8730 O   0  0  0  0  0  0  0  0  0  0  0  0
   56.1480   31.3540   44.8540 N   0  0  0  0  0  0  0  0  0  0  0  0
   56.9600   32.2970   45.2210 C   0  0  0  0  0  0  0  0  0  0  0  0
   57.0700   32.7560   46.4470 O   0  0  0  0  0  0  0  0  0  0  0  0
   57.9800   33.6860   46.5090 N   0  0  0  0  0  0  0  0  0  0  0  0
   58.4830   33.8310   45.2650 C   0  0  0  0  0  0  0  0  0  0  0  0
   59.5580   34.8060   44.9070 C   0  0  0  0  0  0  0  0  0  0  0  0
   60.0057   35.2120   45.8261 H   0  0  0  0  0  0  0  0  0  0  0  0
   60.3331   34.2965   44.3157 H   0  0  0  0  0  0  0  0  0  0  0  0
   59.1263   35.6270   44.3157 H   0  0  0  0  0  0  0  0  0  0  0  0
   57.8370   32.9670   44.3990 C   0  0  0  0  0  0  0  0  0  0  0  0
   58.1120   32.7220   42.9500 C   0  0  0  0  0  0  0  0  0  0  0  0
   58.9299   31.9933   42.8501 H   0  0  0  0  0  0  0  0  0  0  0  0
   57.2067   32.3256   42.4669 H   0  0  0  0  0  0  0  0  0  0  0  0
   58.4017   33.6668   42.4669 H   0  0  0  0  0  0  0  0  0  0  0  0
   58.2250   28.1230   46.2670 C   0  0  0  0  0  0  0  0  0  0  0  0
   57.2730   27.0750   46.0410 N   0  0  0  0  0  0  0  0  0  0  0  0
   57.5400   25.6690   45.0610 S   0  0  0  0  0  0  0  0  0  0  0  0
   57.7760   26.0730   43.6330 O   0  0  0  0  0  0  0  0  0  0  0  0
   58.7510   24.9370   45.5690 O   0  0  0  0  0  0  0  0  0  0  0  0
   56.0880   24.6450   45.1360 C   0  0  0  0  0  0  0  0  0  0  0  0
   56.1100   23.3030   44.6850 C   0  0  0  0  0  0  0  0  0  0  0  0
   57.3490   22.6640   44.1270 C   0  0  0  0  0  0  0  0  0  0  0  0
   57.9941   22.3313   44.9536 H   0  0  0  0  0  0  0  0  0  0  0  0
   57.0686   21.7981   43.5093 H   0  0  0  0  0  0  0  0  0  0  0  0
   57.8920   23.3945   43.5093 H   0  0  0  0  0  0  0  0  0  0  0  0
   54.9820   22.5500   44.7630 N   0  0  0  0  0  0  0  0  0  0  0  0
   53.8240   23.0570   45.2510 C   0  0  0  0  0  0  0  0  0  0  0  0
   52.7960   22.3330   45.3120 O   0  0  0  0  0  0  0  0  0  0  0  0
   53.7710   24.3430   45.6750 N   0  0  0  0  0  0  0  0  0  0  0  0
   54.8650   25.1460   45.6270 C   0  0  0  0  0  0  0  0  0  0  0  0
   54.7620   26.3360   46.0240 O   0  0  0  0  0  0  0  0  0  0  0  0
   59.3380   27.9240   47.1070 C   0  0  0  0  0  0  0  0  0  0  0  0
   59.4798   26.9526   47.6033 H   0  0  0  0  0  0  0  0  0  0  0  0
  1  2  1  0
  2  3  2  0
  3  4  1  0
  3  5  1  0
  5  6  1  0
  5  7  2  0
  7  8  1  0
  8  9  2  0
  8 10  2  0
  8 11  1  0
 11 12  2  0
 12 13  1  0
 13 14  1  0
 14 15  1  0
 15 16  1  0
 16 17  1  0
 16 18  1  0
 16 19  1  0
 15 20  2  0
 20 21  1  0
 21 22  1  0
 21 23  1  0
 21 24  1  0
  7 25  1  0
 25 26  1  0
 26 27  1  0
 27 28  2  0
 27 29  2  0
 27 30  1  0
 30 31  2  0
 31 32  1  0
 32 33  1  0
 32 34  1  0
 32 35  1  0
 31 36  1  0
 36 37  1  0
 37 38  2  0
 37 39  1  0
 39 40  1  0
 40 41  2  0
 25 42  2  0
 42 43  1  0
 42  2  1  0
 20 12  1  0
 40 30  1  0
M  CHG  4  14  -1  26  -1  36  -1  39  -1
M  END
>  <UniqueID>  (60) 
57

>  <SMILES>  (60) 
Cc1[n-]c(=O)[n-]c(=O)c1S(=O)(=O)[N-]c1ccccc1S(=O)(=O)/N=c1\o[n-]c(C)c1C

>  <Energy>  (60) 
86.24857238956241

>  <Genealogy>  (60) 
Cc1[n-]c(=O)[n-]c(=O)c1S(=O)(=O)[N-]c1ccccc1S(=O)(=O)N=c1o[n-]c(C)c1C (protonated)
Cc1[n-]c(=O)[n-]c(=O)c1S(=O)(=O)[N-]c1ccccc1S(=O)(=O)/N=c1\o[n-]c(C)c1C (cis-trans isomerization)
Cc1[n-]c(=O)[n-]c(=O)c1S(=O)(=O)[N-]c1ccccc1S(=O)(=O)/N=c1\o[n-]c(C)c1C (3D coordinates assigned)
Cc1[n-]c(=O)[n-]c(=O)c1S(=O)(=O)[N-]c1ccccc1S(=O)(=O)/N=c1\o[n-]c(C)c1C (optimized conformer: 86.24857238956241 kcal/mol)

>  <smiles>  (60) 
Cc1[nH]c(=O)[nH]c(=O)c1S(=O)(=O)Nc1ccccc1S(=O)(=O)N=c1o[nH]c(C)c1C

>  <score_type>  (60) 
oracle

>  <origin>  (60) 
adg

>  <m_score__min__energy>  (60) 
-15.51

>  <m_primary>  (60) 
energy

$$$$
60:0
     RDKit          3D

 46 48  0  0  1  0  0  0  0  0999 V2000
   57.0300   34.2080   44.9030 C   0  0  0  0  0  0  0  0  0  0  0  0
   58.3650   34.0750   45.5620 C   0  0  0  0  0  0  0  0  0  0  0  0
   59.2060   35.1300   45.8010 C   0  0  0  0  0  0  0  0  0  0  0  0
   60.4320   34.9480   46.4190 C   0  0  0  0  0  0  0  0  0  0  0  0
   60.8370   33.6920   46.8100 C   0  0  0  0  0  0  0  0  0  0  0  0
   62.0130   33.3750   47.4230 O   0  0  0  0  0  0  0  0  0  0  0  0
   62.2930   33.2360   48.7820 C   0  0  0  0  0  0  0  0  0  0  0  0
   61.0440   32.8340   49.5350 C   0  0  0  0  0  0  0  0  0  0  0  0
   60.2250   33.7250   50.2620 C   0  0  0  0  0  0  0  0  0  0  0  0
   58.9410   32.6380   50.9540 S   0  0  0  0  0  0  0  0  0  0  0  0
   59.7260   31.1110   50.1410 C   0  0  0  0  0  0  0  0  0  0  0  0
   59.1150   29.8100   50.3360 C   0  0  0  0  0  0  0  0  0  0  0  0
   58.1890   29.7310   51.1870 O   0  0  0  0  0  0  0  0  0  0  0  0
   59.5200   28.6320   49.6100 N   0  0  0  0  0  0  0  0  0  0  0  0
   59.3630   28.5730   48.3520 C   0  0  0  0  0  0  0  0  0  0  0  0
   58.4520   28.0010   47.5590 N   0  0  0  0  0  0  0  0  0  0  0  0
   58.4860   28.0730   46.2870 C   0  0  0  0  0  0  0  0  0  0  0  0
   57.4710   27.4390   45.3570 C   0  0  0  0  0  0  0  0  0  0  0  0
   56.5530   26.5840   46.1060 C   0  0  0  0  0  0  0  0  0  0  0  0
   55.1560   26.6920   45.9960 O   0  0  0  0  0  0  0  0  0  0  0  0
   56.9890   25.6720   46.9210 N   0  0  0  0  0  0  0  0  0  0  0  0
   56.0660   24.8120   47.4510 O   0  0  0  0  0  0  0  0  0  0  0  0
   59.5490   28.8050   45.6530 C   0  0  0  0  0  0  0  0  0  0  0  0
   60.5300   29.3960   47.1490 S   0  0  0  0  0  0  0  0  0  0  0  0
   60.6230   31.6010   49.6070 N   0  0  0  0  0  0  0  0  0  0  0  0
   59.9570   32.6250   46.5550 C   0  0  0  0  0  0  0  0  0  0  0  0
   58.7390   32.8070   45.9410 C   0  0  0  0  0  0  0  0  0  0  0  0
   57.8970   31.5990   45.7310 C   0  0  0  0  0  0  0  0  0  0  0  0
   56.2475   34.2860   45.6722 H   0  0  0  0  0  0  0  0  0  0  0  0
   57.0190   35.1117   44.2759 H   0  0  0  0  0  0  0  0  0  0  0  0
   56.8410   33.3242   44.2759 H   0  0  0  0  0  0  0  0  0  0  0  0
   58.9013   36.1419   45.4959 H   0  0  0  0  0  0  0  0  0  0  0  0
   61.0868   35.8135   46.5986 H   0  0  0  0  0  0  0  0  0  0  0  0
   63.0633   32.4624   48.9169 H   0  0  0  0  0  0  0  0  0  0  0  0
   62.6540   34.1983   49.1740 H   0  0  0  0  0  0  0  0  0  0  0  0
   60.3363   34.8128   50.3811 H   0  0  0  0  0  0  0  0  0  0  0  0
   57.6560   27.4480   48.0770 H   0  0  0  0  0  0  0  0  0  0  0  0
   56.8978   28.2311   44.8530 H   0  0  0  0  0  0  0  0  0  0  0  0
   58.0033   26.8250   44.6156 H   0  0  0  0  0  0  0  0  0  0  0  0
   54.5700   26.3620   46.7410 H   0  0  0  0  0  0  0  0  0  0  0  0
   55.0710   24.8400   47.2400 H   0  0  0  0  0  0  0  0  0  0  0  0
   59.7384   28.9743   44.5827 H   0  0  0  0  0  0  0  0  0  0  0  0
   60.2527   31.6094   46.8569 H   0  0  0  0  0  0  0  0  0  0  0  0
   57.6057   31.1811   46.7059 H   0  0  0  0  0  0  0  0  0  0  0  0
   56.9945   31.8748   45.1659 H   0  0  0  0  0  0  0  0  0  0  0  0
   58.4681   30.8477   45.1659 H   0  0  0  0  0  0  0  0  0  0  0  0
  1  2  1  0
  2  3  2  0
  3  4  1  0
  4  5  2  0
  5  6  1  0
  6  7  1  0
  7  8  1  0
  8  9  2  0
  9 10  1  0
 10 11  1  0
 11 12  1  0
 12 13  2  0
 12 14  1  0
 14 15  2  0
 15 16  1  0
 16 17  1  0
 17 18  1  0
 18 19  1  0
 19 20  1  0
 19 21  2  0
 21 22  1  0
 17 23  2  0
 23 24  1  0
 11 25  2  0
  5 26  1  0
 26 27  2  0
 27 28  1  0
 27  2  1  0
 25  8  1  0
 24 15  1  0
  1 29  1  0
  1 30  1  0
  1 31  1  0
  3 32  1  0
  4 33  1  0
  7 34  1  0
  7 35  1  0
  9 36  1  0
 16 37  1  0
 18 38  1  0
 18 39  1  0
 20 40  1  0
 22 41  1  0
 23 42  1  0
 26 43  1  0
 28 44  1  0
 28 45  1  0
 28 46  1  0
M  END
>  <smiles>  (61) 
Cc1ccc(OCc2csc(C(=O)N=c3[nH]c(CC(O)=NO)cs3)n2)cc1C

>  <score_type>  (61) 
oracle

>  <origin>  (61) 
adg

>  <m_score__min__energy>  (61) 
-10.23

>  <m_primary>  (61) 
energy

$$$$
61:0
     RDKit          3D

 67 70  0  0  0  0  0  0  0  0999 V2000
   54.7860   27.0890   45.9770 H   0  0  0  0  0  0  0  0  0  0  0  0
   54.3600   26.2000   45.8590 O   0  0  0  0  0  0  0  0  0  0  0  0
   55.3840   25.2600   46.0000 C   0  0  0  0  0  0  0  0  0  0  0  0
   55.3589   24.5671   45.1461 H   0  0  0  0  0  0  0  0  0  0  0  0
   55.2337   24.7099   46.9406 H   0  0  0  0  0  0  0  0  0  0  0  0
   56.7560   25.9570   46.0460 C   0  0  2  0  0  0  0  0  0  0  0  0
   57.3479   25.4681   46.8339 H   0  0  0  0  0  0  0  0  0  0  0  0
   56.6280   27.3800   46.3710 N   0  0  0  0  0  0  0  0  0  0  0  0
   56.7050   28.4540   45.4300 C   0  0  0  0  0  0  0  0  0  0  0  0
   55.6670   28.8730   44.8560 O   0  0  0  0  0  0  0  0  0  0  0  0
   58.0570   29.0210   45.0870 C   0  0  0  0  0  0  0  0  0  0  0  0
   58.2472   28.8645   44.0149 H   0  0  0  0  0  0  0  0  0  0  0  0
   58.8099   28.5056   45.7014 H   0  0  0  0  0  0  0  0  0  0  0  0
   58.1380   30.5030   45.3880 C   0  0  0  0  0  0  0  0  0  0  0  0
   57.5020   31.3940   44.5020 C   0  0  0  0  0  0  0  0  0  0  0  0
   56.9469   30.9986   43.6386 H   0  0  0  0  0  0  0  0  0  0  0  0
   57.5680   32.7730   44.7070 C   0  0  0  0  0  0  0  0  0  0  0  0
   57.0804   33.4586   43.9983 H   0  0  0  0  0  0  0  0  0  0  0  0
   58.2520   33.2810   45.8100 C   0  0  0  0  0  0  0  0  0  0  0  0
   58.3056   34.3680   45.9699 H   0  0  0  0  0  0  0  0  0  0  0  0
   58.8690   32.4130   46.7120 C   0  0  0  0  0  0  0  0  0  0  0  0
   59.3907   32.8215   47.5901 H   0  0  0  0  0  0  0  0  0  0  0  0
   58.8310   31.0260   46.5110 C   0  0  0  0  0  0  0  0  0  0  0  0
   59.6050   29.9800   47.7630 S   0  0  0  0  0  0  0  0  0  0  0  0
   60.9700   31.1080   48.0980 C   0  0  0  0  0  0  0  0  0  0  0  0
   61.9650   31.2720   47.1240 C   0  0  0  0  0  0  0  0  0  0  0  0
   61.9058   30.7059   46.1827 H   0  0  0  0  0  0  0  0  0  0  0  0
   63.0290   32.1470   47.3390 C   0  0  0  0  0  0  0  0  0  0  0  0
   63.8168   32.2511   46.5784 H   0  0  0  0  0  0  0  0  0  0  0  0
   63.0960   32.8910   48.5180 C   0  0  0  0  0  0  0  0  0  0  0  0
   63.9365   33.5802   48.6866 H   0  0  0  0  0  0  0  0  0  0  0  0
   62.0950   32.7600   49.4840 C   0  0  0  0  0  0  0  0  0  0  0  0
   62.1405   33.3652   50.4014 H   0  0  0  0  0  0  0  0  0  0  0  0
   61.0280   31.8600   49.2940 C   0  0  0  0  0  0  0  0  0  0  0  0
   59.9420   31.8100   50.2390 N   0  0  0  0  0  0  0  0  0  0  0  0
   59.7380   30.9040   50.7170 H   0  0  0  0  0  0  0  0  0  0  0  0
   59.1740   32.9480   50.6550 C   0  0  0  0  0  0  0  0  0  0  0  0
   59.4340   34.0940   50.1980 O   0  0  0  0  0  0  0  0  0  0  0  0
   58.1500   32.7630   51.6450 N   0  0  0  0  0  0  0  0  0  0  0  0
   57.6000   31.6400   52.0070 C   0  0  0  0  0  0  0  0  0  0  0  0
   58.3550   30.5540   52.3360 N   0  0  0  0  0  0  0  0  0  0  0  0
   57.7950   29.3720   52.7020 C   0  0  0  0  0  0  0  0  0  0  0  0
   58.4365   28.5182   52.9655 H   0  0  0  0  0  0  0  0  0  0  0  0
   56.4070   29.2400   52.7440 C   0  0  0  0  0  0  0  0  0  0  0  0
   55.9518   28.2806   53.0309 H   0  0  0  0  0  0  0  0  0  0  0  0
   55.5970   30.3320   52.4200 C   0  0  0  0  0  0  0  0  0  0  0  0
   54.2050   30.1700   52.4720 O   0  0  0  0  0  0  0  0  0  0  0  0
   53.5480   28.9450   52.7750 C   0  0  0  0  0  0  0  0  0  0  0  0
   53.4831   28.8239   53.8664 H   0  0  0  0  0  0  0  0  0  0  0  0
   52.5350   28.9565   52.3464 H   0  0  0  0  0  0  0  0  0  0  0  0
   54.1180   28.1075   52.3464 H   0  0  0  0  0  0  0  0  0  0  0  0
   56.2030   31.5480   52.0520 C   0  0  0  0  0  0  0  0  0  0  0  0
   55.5829   32.4212   51.8011 H   0  0  0  0  0  0  0  0  0  0  0  0
   57.4630   25.8200   44.6820 C   0  0  0  0  0  0  0  0  0  0  0  0
   56.9340   26.4385   43.9420 H   0  0  0  0  0  0  0  0  0  0  0  0
   58.5048   26.1529   44.7995 H   0  0  0  0  0  0  0  0  0  0  0  0
   57.4760   24.3880   44.2040 C   0  0  0  0  0  0  0  0  0  0  0  0
   58.3320   23.4490   44.8050 C   0  0  0  0  0  0  0  0  0  0  0  0
   59.0427   23.7744   45.5789 H   0  0  0  0  0  0  0  0  0  0  0  0
   58.2860   22.1020   44.4250 C   0  0  0  0  0  0  0  0  0  0  0  0
   58.9578   21.3721   44.9002 H   0  0  0  0  0  0  0  0  0  0  0  0
   57.3850   21.6870   43.4410 C   0  0  0  0  0  0  0  0  0  0  0  0
   57.3477   20.6292   43.1415 H   0  0  0  0  0  0  0  0  0  0  0  0
   56.5300   22.6150   42.8360 C   0  0  0  0  0  0  0  0  0  0  0  0
   55.8245   22.2862   42.0587 H   0  0  0  0  0  0  0  0  0  0  0  0
   56.5710   23.9600   43.2180 C   0  0  0  0  0  0  0  0  0  0  0  0
   55.8925   24.6851   42.7449 H   0  0  0  0  0  0  0  0  0  0  0  0
  1  2  1  0
  2  3  1  0
  3  4  1  0
  3  5  1  0
  3  6  1  0
  6  7  1  1
  6  8  1  0
  8  9  1  0
  9 10  2  0
  9 11  1  0
 11 12  1  0
 11 13  1  0
 11 14  1  0
 14 15  2  0
 15 16  1  0
 15 17  1  0
 17 18  1  0
 17 19  2  0
 19 20  1  0
 19 21  1  0
 21 22  1  0
 21 23  2  0
 23 24  1  0
 24 25  1  0
 25 26  2  0
 26 27  1  0
 26 28  1  0
 28 29  1  0
 28 30  2  0
 30 31  1  0
 30 32  1  0
 32 33  1  0
 32 34  2  0
 34 35  1  0
 35 36  1  0
 35 37  1  0
 37 38  2  0
 37 39  1  0
 39 40  2  0
 40 41  1  0
 41 42  1  0
 42 43  1  0
 42 44  2  0
 44 45  1  0
 44 46  1  0
 46 47  1  0
 47 48  1  0
 48 49  1  0
 48 50  1  0
 48 51  1  0
 46 52  2  0
 52 53  1  0
  6 54  1  0
 54 55  1  0
 54 56  1  0
 54 57  1  0
 57 58  2  0
 58 59  1  0
 58 60  1  0
 60 61  1  0
 60 62  2  0
 62 63  1  0
 62 64  1  0
 64 65  1  0
 64 66  2  0
 66 67  1  0
 23 14  1  0
 34 25  1  0
 52 40  1  0
 66 57  1  0
M  CHG  2   8  -1  41  -1
M  END
>  <UniqueID>  (62) 
58

>  <SMILES>  (62) 
COc1cc[n-]/c(=N\C(=O)Nc2ccccc2Sc2ccccc2CC(=O)[N-][C@@H](CO)Cc2ccccc2)c1

>  <Energy>  (62) 
69.17046801879553

>  <Genealogy>  (62) 
COc1cc[n-]c(=NC(=O)Nc2ccccc2Sc2ccccc2CC(=O)[N-]C(CO)Cc2ccccc2)c1 (protonated)
COc1cc[n-]c(=NC(=O)Nc2ccccc2Sc2ccccc2CC(=O)[N-][C@@H](CO)Cc2ccccc2)c1 (chirality)
COc1cc[n-]/c(=N\C(=O)Nc2ccccc2Sc2ccccc2CC(=O)[N-][C@@H](CO)Cc2ccccc2)c1 (cis-trans isomerization)
COc1cc[n-]/c(=N\C(=O)Nc2ccccc2Sc2ccccc2CC(=O)[N-][C@@H](CO)Cc2ccccc2)c1 (3D coordinates assigned)
COc1cc[n-]/c(=N\C(=O)Nc2ccccc2Sc2ccccc2CC(=O)[N-][C@@H](CO)Cc2ccccc2)c1 (optimized conformer: 69.17046801879553 kcal/mol)

>  <smiles>  (62) 
COc1cc[nH]c(=NC(=O)Nc2ccccc2Sc2ccccc2CC(=O)NC(CO)Cc2ccccc2)c1

>  <score_type>  (62) 
oracle

>  <origin>  (62) 
adg

>  <m_score__min__energy>  (62) 
-13.76

>  <m_primary>  (62) 
energy

$$$$
62:0
     RDKit          3D

 36 38  0  0  0  0  0  0  0  0999 V2000
   62.5040   32.2510   48.9660 C   0  0  0  0  0  0  0  0  0  0  0  0
   61.6140   31.9500   47.8500 N   0  0  0  0  0  0  0  0  0  0  0  0
   60.8890   30.7340   47.6690 C   0  0  0  0  0  0  0  0  0  0  0  0
   61.1590   29.6520   48.2540 O   0  0  0  0  0  0  0  0  0  0  0  0
   59.7860   30.9420   46.7390 C   0  0  0  0  0  0  0  0  0  0  0  0
   58.8290   30.0480   46.2630 C   0  0  0  0  0  0  0  0  0  0  0  0
   57.8520   30.5270   45.3610 C   0  0  0  0  0  0  0  0  0  0  0  0
   56.8170   29.6150   44.8190 C   0  0  0  0  0  0  0  0  0  0  0  0
   56.3950   29.7880   43.6450 O   0  0  0  0  0  0  0  0  0  0  0  0
   56.2380   28.5660   45.6090 N   0  0  0  0  0  0  0  0  0  0  0  0
   56.7980   27.2620   45.8250 C   0  0  0  0  0  0  0  0  0  0  0  0
   58.1850   27.0750   45.9600 C   0  0  0  0  0  0  0  0  0  0  0  0
   58.7060   25.7970   46.1700 C   0  0  0  0  0  0  0  0  0  0  0  0
   57.8530   24.6930   46.2240 C   0  0  0  0  0  0  0  0  0  0  0  0
   56.4690   24.8550   46.0510 C   0  0  0  0  0  0  0  0  0  0  0  0
   55.5620   23.6560   46.1390 C   0  0  0  0  0  0  0  0  0  0  0  0
   54.4040   23.9790   46.8590 O   0  0  0  0  0  0  0  0  0  0  0  0
   55.9440   26.1490   45.8590 C   0  0  0  0  0  0  0  0  0  0  0  0
   54.5720   26.3330   45.7110 O   0  0  0  0  0  0  0  0  0  0  0  0
   57.8500   31.8970   44.9960 C   0  0  0  0  0  0  0  0  0  0  0  0
   58.8220   32.7810   45.4980 C   0  0  0  0  0  0  0  0  0  0  0  0
   58.7970   34.6220   44.9810 Br  0  0  0  0  0  0  0  0  0  0  0  0
   59.7870   32.2700   46.3700 C   0  0  0  0  0  0  0  0  0  0  0  0
   60.9000   32.9110   47.0700 C   0  0  0  0  0  0  0  0  0  0  0  0
   61.1890   34.1370   47.0290 O   0  0  0  0  0  0  0  0  0  0  0  0
   61.9761   32.0725   49.9144 H   0  0  0  0  0  0  0  0  0  0  0  0
   63.3912   31.6029   48.9125 H   0  0  0  0  0  0  0  0  0  0  0  0
   62.8157   33.3045   48.9125 H   0  0  0  0  0  0  0  0  0  0  0  0
   58.8338   28.9951   46.5815 H   0  0  0  0  0  0  0  0  0  0  0  0
   58.8625   27.9395   45.8999 H   0  0  0  0  0  0  0  0  0  0  0  0
   59.7904   25.6595   46.2931 H   0  0  0  0  0  0  0  0  0  0  0  0
   58.2677   23.6901   46.4032 H   0  0  0  0  0  0  0  0  0  0  0  0
   55.2821   23.3365   45.1243 H   0  0  0  0  0  0  0  0  0  0  0  0
   56.0913   22.8418   46.6556 H   0  0  0  0  0  0  0  0  0  0  0  0
   54.2460   24.9510   46.7200 H   0  0  0  0  0  0  0  0  0  0  0  0
   57.0770   32.2741   44.3102 H   0  0  0  0  0  0  0  0  0  0  0  0
  1  2  1  0
  2  3  1  0
  3  4  2  0
  3  5  1  0
  5  6  2  0
  6  7  1  0
  7  8  1  0
  8  9  2  0
  8 10  1  0
 10 11  1  0
 11 12  2  0
 12 13  1  0
 13 14  2  0
 14 15  1  0
 15 16  1  0
 16 17  1  0
 15 18  2  0
 18 19  1  0
  7 20  2  0
 20 21  1  0
 21 22  1  0
 21 23  2  0
 23 24  1  0
 24 25  2  0
 24  2  1  0
 23  5  1  0
 18 11  1  0
  1 26  1  0
  1 27  1  0
  1 28  1  0
  6 29  1  0
 12 30  1  0
 13 31  1  0
 14 32  1  0
 16 33  1  0
 16 34  1  0
 17 35  1  0
 20 36  1  0
M  CHG  2  10  -1  19  -1
M  END
>  <UniqueID>  (63) 
59

>  <SMILES>  (63) 
CN1C(=O)c2cc(C(=O)[N-]c3cccc(CO)c3[O-])cc(Br)c2C1=O

>  <Energy>  (63) 
76.96276889691484

>  <Genealogy>  (63) 
CN1C(=O)c2cc(C(=O)[N-]c3cccc(CO)c3[O-])cc(Br)c2C1=O (protonated)
CN1C(=O)c2cc(C(=O)[N-]c3cccc(CO)c3[O-])cc(Br)c2C1=O (3D coordinates assigned)
CN1C(=O)c2cc(C(=O)[N-]c3cccc(CO)c3[O-])cc(Br)c2C1=O (nonaromatic ring conformer: 76.96276889691484 kcal/mol)

>  <smiles>  (63) 
CN1C(=O)c2cc(C(=O)Nc3cccc(CO)c3O)cc(Br)c2C1=O

>  <score_type>  (63) 
oracle

>  <origin>  (63) 
adg

>  <m_score__min__energy>  (63) 
-13.98

>  <m_primary>  (63) 
energy

$$$$
63:0
     RDKit          3D

 42 44  0  0  0  0  0  0  0  0999 V2000
   54.8470   24.3090   47.3290 H   0  0  0  0  0  0  0  0  0  0  0  0
   55.8540   24.3580   47.2270 O   0  0  0  0  0  0  0  0  0  0  0  0
   56.4810   25.4900   46.7100 C   0  0  0  0  0  0  0  0  0  0  0  0
   57.8690   25.6450   46.8180 C   0  0  0  0  0  0  0  0  0  0  0  0
   58.4696   24.8701   47.3169 H   0  0  0  0  0  0  0  0  0  0  0  0
   58.4930   26.7790   46.2950 C   0  0  0  0  0  0  0  0  0  0  0  0
   59.5811   26.9015   46.3996 H   0  0  0  0  0  0  0  0  0  0  0  0
   57.7410   27.7630   45.6370 C   0  0  0  0  0  0  0  0  0  0  0  0
   58.4310   28.9630   45.1170 C   0  0  0  0  0  0  0  0  0  0  0  0
   59.2392   28.7949   44.3900 H   0  0  0  0  0  0  0  0  0  0  0  0
   58.1630   30.2580   45.4510 C   0  0  0  0  0  0  0  0  0  0  0  0
   57.3110   31.1310   44.7070 C   0  0  0  0  0  0  0  0  0  0  0  0
   56.9230   30.9140   43.4430 C   0  0  0  0  0  0  0  0  0  0  0  0
   57.1861   29.9712   42.9411 H   0  0  0  0  0  0  0  0  0  0  0  0
   56.3413   31.6786   42.9073 H   0  0  0  0  0  0  0  0  0  0  0  0
   56.9470   32.3170   45.2540 N   0  0  0  0  0  0  0  0  0  0  0  0
   57.4200   32.7490   46.4430 C   0  0  0  0  0  0  0  0  0  0  0  0
   57.0090   33.8530   46.8930 O   0  0  0  0  0  0  0  0  0  0  0  0
   58.3420   32.0070   47.1300 N   0  0  0  0  0  0  0  0  0  0  0  0
   58.8660   32.4850   48.4290 C   0  0  0  0  0  0  0  0  0  0  0  0
   58.0287   32.5944   49.1340 H   0  0  0  0  0  0  0  0  0  0  0  0
   59.5954   31.7495   48.7993 H   0  0  0  0  0  0  0  0  0  0  0  0
   59.5770   33.8390   48.2840 C   0  0  0  0  0  0  0  0  0  0  0  0
   59.1091   34.4005   47.4620 H   0  0  0  0  0  0  0  0  0  0  0  0
   59.4807   34.3793   49.2373 H   0  0  0  0  0  0  0  0  0  0  0  0
   61.0440   33.6720   47.9870 C   0  0  0  0  0  0  0  0  0  0  0  0
   61.5320   33.8960   46.6890 C   0  0  0  0  0  0  0  0  0  0  0  0
   60.8350   34.1565   45.8788 H   0  0  0  0  0  0  0  0  0  0  0  0
   62.9010   33.7890   46.4230 C   0  0  0  0  0  0  0  0  0  0  0  0
   63.2775   33.9590   45.4035 H   0  0  0  0  0  0  0  0  0  0  0  0
   63.7920   33.4660   47.4520 C   0  0  0  0  0  0  0  0  0  0  0  0
   64.8684   33.3812   47.2418 H   0  0  0  0  0  0  0  0  0  0  0  0
   63.3130   33.2510   48.7480 C   0  0  0  0  0  0  0  0  0  0  0  0
   64.0140   32.9994   49.5575 H   0  0  0  0  0  0  0  0  0  0  0  0
   61.9460   33.3550   49.0170 C   0  0  0  0  0  0  0  0  0  0  0  0
   61.5743   33.1881   50.0388 H   0  0  0  0  0  0  0  0  0  0  0  0
   58.7290   30.7820   46.6450 C   0  0  0  0  0  0  0  0  0  0  0  0
   59.5730   30.0990   47.2930 O   0  0  0  0  0  0  0  0  0  0  0  0
   56.3390   27.6250   45.5600 C   0  0  0  0  0  0  0  0  0  0  0  0
   55.5600   28.6210   44.9780 O   0  0  0  0  0  0  0  0  0  0  0  0
   55.7180   26.4840   46.0850 C   0  0  0  0  0  0  0  0  0  0  0  0
   54.3370   26.3420   45.9900 O   0  0  0  0  0  0  0  0  0  0  0  0
  1  2  1  0
  2  3  1  0
  3  4  2  0
  4  5  1  0
  4  6  1  0
  6  7  1  0
  6  8  2  0
  8  9  1  0
  9 10  1  0
  9 11  2  0
 11 12  1  0
 12 13  2  0
 13 14  1  0
 13 15  1  0
 12 16  1  0
 16 17  1  0
 17 18  2  0
 17 19  1  0
 19 20  1  0
 20 21  1  0
 20 22  1  0
 20 23  1  0
 23 24  1  0
 23 25  1  0
 23 26  1  0
 26 27  2  0
 27 28  1  0
 27 29  1  0
 29 30  1  0
 29 31  2  0
 31 32  1  0
 31 33  1  0
 33 34  1  0
 33 35  2  0
 35 36  1  0
 19 37  1  0
 37 38  2  0
  8 39  1  0
 39 40  1  0
 39 41  2  0
 41 42  1  0
 41  3  1  0
 37 11  1  0
 35 26  1  0
M  CHG  3  16  -1  40  -1  42  -1
M  END
>  <UniqueID>  (64) 
60

>  <SMILES>  (64) 
C=c1[n-]c(=O)n(CCc2ccccc2)c(=O)/c1=C/c1ccc(O)c([O-])c1[O-]

>  <Energy>  (64) 
69.14033997590701

>  <Genealogy>  (64) 
C=c1[n-]c(=O)n(CCc2ccccc2)c(=O)c1=Cc1ccc(O)c([O-])c1[O-] (protonated)
C=c1[n-]c(=O)n(CCc2ccccc2)c(=O)/c1=C/c1ccc(O)c([O-])c1[O-] (cis-trans isomerization)
C=c1[n-]c(=O)n(CCc2ccccc2)c(=O)/c1=C/c1ccc(O)c([O-])c1[O-] (3D coordinates assigned)
C=c1[n-]c(=O)n(CCc2ccccc2)c(=O)/c1=C/c1ccc(O)c([O-])c1[O-] (optimized conformer: 69.14033997590701 kcal/mol)

>  <smiles>  (64) 
C=c1[nH]c(=O)n(CCc2ccccc2)c(=O)c1=Cc1ccc(O)c(O)c1O

>  <score_type>  (64) 
oracle

>  <origin>  (64) 
adg

>  <m_score__min__energy>  (64) 
-17.48

>  <m_primary>  (64) 
energy

$$$$
64:0
     RDKit          3D

 66 69  0  0  0  0  0  0  0  0999 V2000
   60.7753   28.1169   47.8218 H   0  0  0  0  0  0  0  0  0  0  0  0
   60.5230   29.0860   48.2770 C   0  0  0  0  0  0  0  0  0  0  0  0
   61.0750   30.2610   47.7640 C   0  0  0  0  0  0  0  0  0  0  0  0
   61.7758   30.2111   46.9176 H   0  0  0  0  0  0  0  0  0  0  0  0
   60.7430   31.5020   48.3190 C   0  0  0  0  0  0  0  0  0  0  0  0
   61.3030   32.6550   47.7460 O   0  0  0  0  0  0  0  0  0  0  0  0
   61.0540   33.1240   46.4190 C   0  0  0  0  0  0  0  0  0  0  0  0
   61.4525   34.1447   46.3221 H   0  0  0  0  0  0  0  0  0  0  0  0
   61.5481   32.4367   45.7165 H   0  0  0  0  0  0  0  0  0  0  0  0
   59.5820   33.1430   46.0960 C   0  0  0  0  0  0  0  0  0  0  0  0
   58.7850   34.2080   46.5410 C   0  0  0  0  0  0  0  0  0  0  0  0
   59.2460   35.0476   47.0818 H   0  0  0  0  0  0  0  0  0  0  0  0
   57.4090   34.2080   46.3010 C   0  0  0  0  0  0  0  0  0  0  0  0
   56.7909   35.0472   46.6527 H   0  0  0  0  0  0  0  0  0  0  0  0
   56.8160   33.1460   45.6160 C   0  0  0  0  0  0  0  0  0  0  0  0
   55.7313   33.1495   45.4332 H   0  0  0  0  0  0  0  0  0  0  0  0
   57.5960   32.0770   45.1610 C   0  0  0  0  0  0  0  0  0  0  0  0
   56.9600   30.9850   44.4820 N   0  0  0  0  0  0  0  0  0  0  0  0
   56.6810   29.7100   45.0710 C   0  0  0  0  0  0  0  0  0  0  0  0
   55.4770   29.3650   45.2240 O   0  0  0  0  0  0  0  0  0  0  0  0
   57.7670   28.7680   45.4390 C   0  0  0  0  0  0  0  0  0  0  0  0
   59.0530   28.8960   44.8780 C   0  0  0  0  0  0  0  0  0  0  0  0
   59.2725   29.7333   44.1992 H   0  0  0  0  0  0  0  0  0  0  0  0
   60.0520   27.9650   45.1790 C   0  0  0  0  0  0  0  0  0  0  0  0
   61.0535   28.0727   44.7371 H   0  0  0  0  0  0  0  0  0  0  0  0
   59.7810   26.8980   46.0400 C   0  0  0  0  0  0  0  0  0  0  0  0
   60.7460   25.9850   46.3140 F   0  0  0  0  0  0  0  0  0  0  0  0
   58.5130   26.7690   46.6110 C   0  0  0  0  0  0  0  0  0  0  0  0
   58.3040   25.9367   47.2992 H   0  0  0  0  0  0  0  0  0  0  0  0
   57.5080   27.6940   46.3110 C   0  0  0  0  0  0  0  0  0  0  0  0
   56.5097   27.5816   46.7590 H   0  0  0  0  0  0  0  0  0  0  0  0
   58.9780   32.0680   45.4230 C   0  0  0  0  0  0  0  0  0  0  0  0
   59.5899   31.2134   45.0987 H   0  0  0  0  0  0  0  0  0  0  0  0
   59.8630   31.5510   49.4180 C   0  0  0  0  0  0  0  0  0  0  0  0
   59.5839   32.5229   49.8512 H   0  0  0  0  0  0  0  0  0  0  0  0
   59.3390   30.3670   49.9650 C   0  0  0  0  0  0  0  0  0  0  0  0
   58.4560   30.3940   51.1000 N   0  0  0  0  0  0  0  0  0  0  0  0
   58.3980   29.5460   51.7060 H   0  0  0  0  0  0  0  0  0  0  0  0
   57.7310   31.5580   51.5180 C   0  0  0  0  0  0  0  0  0  0  0  0
   58.0810   32.7030   51.1210 O   0  0  0  0  0  0  0  0  0  0  0  0
   56.7130   31.4260   52.5150 N   0  0  0  0  0  0  0  0  0  0  0  0
   55.6240   30.7100   52.4740 C   0  0  0  0  0  0  0  0  0  0  0  0
   54.5050   31.0900   51.7680 C   0  0  0  0  0  0  0  0  0  0  0  0
   54.3731   31.9847   51.1418 H   0  0  0  0  0  0  0  0  0  0  0  0
   53.5820   30.0880   52.0260 C   0  0  0  0  0  0  0  0  0  0  0  0
   52.1550   30.0340   51.5070 C   0  0  0  0  0  0  0  0  0  0  0  0
   51.3970   28.9010   52.2250 C   0  0  0  0  0  0  0  0  0  0  0  0
   51.4854   29.0331   53.3135 H   0  0  0  0  0  0  0  0  0  0  0  0
   50.3357   28.9299   51.9371 H   0  0  0  0  0  0  0  0  0  0  0  0
   51.8287   27.9311   51.9371 H   0  0  0  0  0  0  0  0  0  0  0  0
   51.4560   31.3800   51.7830 C   0  0  0  0  0  0  0  0  0  0  0  0
   51.3753   31.5354   52.8690 H   0  0  0  0  0  0  0  0  0  0  0  0
   52.0440   32.1965   51.3385 H   0  0  0  0  0  0  0  0  0  0  0  0
   50.4499   31.3686   51.3385 H   0  0  0  0  0  0  0  0  0  0  0  0
   52.1410   29.7650   49.9880 C   0  0  0  0  0  0  0  0  0  0  0  0
   52.0846   28.6813   49.8081 H   0  0  0  0  0  0  0  0  0  0  0  0
   51.2673   30.2576   49.5364 H   0  0  0  0  0  0  0  0  0  0  0  0
   53.0611   30.1643   49.5364 H   0  0  0  0  0  0  0  0  0  0  0  0
   54.1250   29.1790   52.8650 N   0  0  0  0  0  0  0  0  0  0  0  0
   55.3650   29.5560   53.1420 N   0  0  0  0  0  0  0  0  0  0  0  0
   56.1900   28.8240   54.1000 C   0  0  0  0  0  0  0  0  0  0  0  0
   55.8884   29.0916   55.1234 H   0  0  0  0  0  0  0  0  0  0  0  0
   56.0553   27.7428   53.9490 H   0  0  0  0  0  0  0  0  0  0  0  0
   57.2475   29.0864   53.9490 H   0  0  0  0  0  0  0  0  0  0  0  0
   59.6510   29.1380   49.3670 C   0  0  0  0  0  0  0  0  0  0  0  0
   59.2072   28.2105   49.7579 H   0  0  0  0  0  0  0  0  0  0  0  0
  1  2  1  0
  2  3  2  0
  3  4  1  0
  3  5  1  0
  5  6  1  0
  6  7  1  0
  7  8  1  0
  7  9  1  0
  7 10  1  0
 10 11  2  0
 11 12  1  0
 11 13  1  0
 13 14  1  0
 13 15  2  0
 15 16  1  0
 15 17  1  0
 17 18  1  0
 18 19  1  0
 19 20  2  0
 19 21  1  0
 21 22  2  0
 22 23  1  0
 22 24  1  0
 24 25  1  0
 24 26  2  0
 26 27  1  0
 26 28  1  0
 28 29  1  0
 28 30  2  0
 30 31  1  0
 17 32  2  0
 32 33  1  0
  5 34  2  0
 34 35  1  0
 34 36  1  0
 36 37  1  0
 37 38  1  0
 37 39  1  0
 39 40  2  0
 39 41  1  0
 41 42  2  0
 42 43  1  0
 43 44  1  0
 43 45  2  0
 45 46  1  0
 46 47  1  0
 47 48  1  0
 47 49  1  0
 47 50  1  0
 46 51  1  0
 51 52  1  0
 51 53  1  0
 51 54  1  0
 46 55  1  0
 55 56  1  0
 55 57  1  0
 55 58  1  0
 45 59  1  0
 59 60  1  0
 60 61  1  0
 61 62  1  0
 61 63  1  0
 61 64  1  0
 36 65  2  0
 65 66  1  0
 65  2  1  0
 32 10  1  0
 60 42  1  0
 30 21  1  0
M  CHG  2  18  -1  59  -1
M  END
>  <UniqueID>  (65) 
61

>  <SMILES>  (65) 
Cn1[n-]c(C(C)(C)C)c/c1=N/C(=O)Nc1cccc(OCc2cccc([N-]C(=O)c3ccc(F)cc3)c2)c1

>  <Energy>  (65) 
110.59852380813946

>  <Genealogy>  (65) 
Cn1[n-]c(C(C)(C)C)cc1=NC(=O)Nc1cccc(OCc2cccc([N-]C(=O)c3ccc(F)cc3)c2)c1 (protonated)
Cn1[n-]c(C(C)(C)C)c/c1=N/C(=O)Nc1cccc(OCc2cccc([N-]C(=O)c3ccc(F)cc3)c2)c1 (cis-trans isomerization)
Cn1[n-]c(C(C)(C)C)c/c1=N/C(=O)Nc1cccc(OCc2cccc([N-]C(=O)c3ccc(F)cc3)c2)c1 (3D coordinates assigned)
Cn1[n-]c(C(C)(C)C)c/c1=N/C(=O)Nc1cccc(OCc2cccc([N-]C(=O)c3ccc(F)cc3)c2)c1 (optimized conformer: 110.59852380813946 kcal/mol)

>  <smiles>  (65) 
Cn1[nH]c(C(C)(C)C)cc1=NC(=O)Nc1cccc(OCc2cccc(NC(=O)c3ccc(F)cc3)c2)c1

>  <score_type>  (65) 
oracle

>  <origin>  (65) 
adg

>  <m_score__min__energy>  (65) 
-12.65

>  <m_primary>  (65) 
energy

$$$$
65:0
     RDKit          3D

 41 43  0  0  0  0  0  0  0  0999 V2000
   58.8910   34.5940   51.6240 N   0  0  0  0  0  0  0  0  0  0  0  0
   58.6080   33.2020   51.8120 C   0  0  0  0  0  0  0  0  0  0  0  0
   57.5420   32.8210   52.6420 C   0  0  0  0  0  0  0  0  0  0  0  0
   57.2510   31.4710   52.8450 C   0  0  0  0  0  0  0  0  0  0  0  0
   58.0270   30.4890   52.2290 C   0  0  0  0  0  0  0  0  0  0  0  0
   59.0910   30.8540   51.4000 C   0  0  0  0  0  0  0  0  0  0  0  0
   59.3790   32.2110   51.1670 C   0  0  0  0  0  0  0  0  0  0  0  0
   60.4840   32.6070   50.3380 N   0  0  0  0  0  0  0  0  0  0  0  0
   60.4470   33.5410   49.2490 C   0  0  0  0  0  0  0  0  0  0  0  0
   61.0830   34.6270   49.3250 O   0  0  0  0  0  0  0  0  0  0  0  0
   59.7070   33.2040   48.0100 C   0  0  0  0  0  0  0  0  0  0  0  0
   60.2280   33.5510   46.7490 C   0  0  0  0  0  0  0  0  0  0  0  0
   59.5300   33.2340   45.5810 C   0  0  0  0  0  0  0  0  0  0  0  0
   58.3050   32.5560   45.6490 C   0  0  0  0  0  0  0  0  0  0  0  0
   57.5380   32.2510   44.3940 C   0  0  0  0  0  0  0  0  0  0  0  0
   56.3270   31.5180   44.7380 N   0  0  0  0  0  0  0  0  0  0  0  0
   56.0510   30.1470   44.4220 C   0  0  0  0  0  0  0  0  0  0  0  0
   55.1740   29.9000   43.5530 O   0  0  0  0  0  0  0  0  0  0  0  0
   56.7770   29.0130   45.0310 C   0  0  0  0  0  0  0  0  0  0  0  0
   58.1160   28.9780   45.3910 C   0  0  0  0  0  0  0  0  0  0  0  0
   58.3230   27.7450   45.9740 C   0  0  0  0  0  0  0  0  0  0  0  0
   59.9710   27.1100   46.6990 Br  0  0  0  0  0  0  0  0  0  0  0  0
   57.1110   27.0870   45.9590 C   0  0  0  0  0  0  0  0  0  0  0  0
   56.7690   25.3410   46.6540 Br  0  0  0  0  0  0  0  0  0  0  0  0
   56.1710   27.8640   45.3940 N   0  0  0  0  0  0  0  0  0  0  0  0
   57.7720   32.2220   46.9030 C   0  0  0  0  0  0  0  0  0  0  0  0
   58.4690   32.5380   48.0730 C   0  0  0  0  0  0  0  0  0  0  0  0
   58.3550   35.3200   52.1500 H   0  0  0  0  0  0  0  0  0  0  0  0
   59.6300   34.9180   50.9630 H   0  0  0  0  0  0  0  0  0  0  0  0
   56.9318   33.5916   53.1358 H   0  0  0  0  0  0  0  0  0  0  0  0
   56.4092   31.1813   53.4911 H   0  0  0  0  0  0  0  0  0  0  0  0
   57.8009   29.4255   52.3961 H   0  0  0  0  0  0  0  0  0  0  0  0
   59.7072   30.0754   50.9267 H   0  0  0  0  0  0  0  0  0  0  0  0
   61.1924   34.0759   46.6828 H   0  0  0  0  0  0  0  0  0  0  0  0
   59.9441   33.5181   44.6023 H   0  0  0  0  0  0  0  0  0  0  0  0
   57.2684   33.1909   43.8902 H   0  0  0  0  0  0  0  0  0  0  0  0
   58.1592   31.6424   43.7204 H   0  0  0  0  0  0  0  0  0  0  0  0
   58.8619   29.7726   45.2418 H   0  0  0  0  0  0  0  0  0  0  0  0
   55.1640   27.6190   45.2650 H   0  0  0  0  0  0  0  0  0  0  0  0
   56.8010   31.7090   46.9660 H   0  0  0  0  0  0  0  0  0  0  0  0
   58.0462   32.2638   49.0508 H   0  0  0  0  0  0  0  0  0  0  0  0
  1  2  1  0
  2  3  2  0
  3  4  1  0
  4  5  2  0
  5  6  1  0
  6  7  2  0
  7  8  1  0
  8  9  1  0
  9 10  2  0
  9 11  1  0
 11 12  2  0
 12 13  1  0
 13 14  2  0
 14 15  1  0
 15 16  1  0
 16 17  1  0
 17 18  2  0
 17 19  1  0
 19 20  2  0
 20 21  1  0
 21 22  1  0
 21 23  2  0
 23 24  1  0
 23 25  1  0
 14 26  1  0
 26 27  2  0
  7  2  1  0
 27 11  1  0
 25 19  1  0
  1 28  1  0
  1 29  1  0
  3 30  1  0
  4 31  1  0
  5 32  1  0
  6 33  1  0
 12 34  1  0
 13 35  1  0
 15 36  1  0
 15 37  1  0
 20 38  1  0
 25 39  1  0
 26 40  1  0
 27 41  1  0
M  CHG  2   8  -1  16  -1
M  END
>  <UniqueID>  (66) 
62

>  <SMILES>  (66) 
Nc1ccccc1[N-]C(=O)c1ccc(C[N-]C(=O)c2cc(Br)c(Br)[nH]2)cc1

>  <Energy>  (66) 
75.28400574639602

>  <Genealogy>  (66) 
Nc1ccccc1[N-]C(=O)c1ccc(C[N-]C(=O)c2cc(Br)c(Br)[nH]2)cc1 (protonated)
Nc1ccccc1[N-]C(=O)c1ccc(C[N-]C(=O)c2cc(Br)c(Br)[nH]2)cc1 (3D coordinates assigned)
Nc1ccccc1[N-]C(=O)c1ccc(C[N-]C(=O)c2cc(Br)c(Br)[nH]2)cc1 (optimized conformer: 75.28400574639602 kcal/mol)

>  <smiles>  (66) 
Nc1ccccc1NC(=O)c1ccc(CNC(=O)c2cc(Br)c(Br)[nH]2)cc1

>  <score_type>  (66) 
oracle

>  <origin>  (66) 
adg

>  <m_score__min__energy>  (66) 
-11.01

>  <m_primary>  (66) 
energy

$$$$
66:0
     RDKit          3D

 54 57  0  0  0  0  0  0  0  0999 V2000
   57.4414   33.2871   46.4947 H   0  0  0  0  0  0  0  0  0  0  0  0
   57.6280   32.8630   45.4970 C   0  0  0  0  0  0  0  0  0  0  0  0
   57.1760   31.6130   45.1980 N   0  0  0  0  0  0  0  0  0  0  0  0
   57.4010   31.0310   43.9830 C   0  0  0  0  0  0  0  0  0  0  0  0
   56.9090   29.8360   43.7680 N   0  0  0  0  0  0  0  0  0  0  0  0
   56.2580   29.0090   44.7420 C   0  0  0  0  0  0  0  0  0  0  0  0
   55.1370   29.3650   45.2160 O   0  0  0  0  0  0  0  0  0  0  0  0
   56.9200   27.8550   45.2750 N   0  0  0  0  0  0  0  0  0  0  0  0
   58.0110   27.2190   44.5280 C   0  0  0  0  0  0  0  0  0  0  0  0
   57.7550   27.1889   43.4586 H   0  0  0  0  0  0  0  0  0  0  0  0
   58.1604   26.1936   44.8970 H   0  0  0  0  0  0  0  0  0  0  0  0
   59.2980   28.0260   44.7230 C   0  0  0  0  0  0  0  0  0  0  0  0
   59.4942   28.1491   45.7983 H   0  0  0  0  0  0  0  0  0  0  0  0
   60.1392   27.4933   44.2554 H   0  0  0  0  0  0  0  0  0  0  0  0
   59.1849   29.0152   44.2554 H   0  0  0  0  0  0  0  0  0  0  0  0
   58.1030   31.7550   43.0010 C   0  0  0  0  0  0  0  0  0  0  0  0
   58.3041   31.3022   42.0189 H   0  0  0  0  0  0  0  0  0  0  0  0
   58.5440   33.0540   43.2800 C   0  0  0  0  0  0  0  0  0  0  0  0
   59.0615   33.6386   42.5051 H   0  0  0  0  0  0  0  0  0  0  0  0
   58.3250   33.6080   44.5480 C   0  0  0  0  0  0  0  0  0  0  0  0
   58.9440   35.2390   44.9700 S   0  0  0  0  0  0  0  0  0  0  0  0
   59.7120   34.6570   46.4800 C   0  0  0  0  0  0  0  0  0  0  0  0
   58.9880   34.7040   47.6760 C   0  0  0  0  0  0  0  0  0  0  0  0
   57.9409   35.0410   47.6753 H   0  0  0  0  0  0  0  0  0  0  0  0
   59.6010   34.3210   48.8710 C   0  0  0  0  0  0  0  0  0  0  0  0
   59.0267   34.3411   49.8090 H   0  0  0  0  0  0  0  0  0  0  0  0
   60.9390   33.9120   48.8860 C   0  0  0  0  0  0  0  0  0  0  0  0
   61.4078   33.6083   49.8336 H   0  0  0  0  0  0  0  0  0  0  0  0
   61.6930   33.8870   47.6870 C   0  0  0  0  0  0  0  0  0  0  0  0
   63.1400   33.5300   47.6740 C   0  0  0  0  0  0  0  0  0  0  0  0
   63.9930   34.4400   47.4510 O   0  0  0  0  0  0  0  0  0  0  0  0
   63.6050   32.1930   48.0180 N   0  0  2  0  0  0  0  0  0  0  0  0
   64.6290   32.1420   47.8100 H   0  0  0  0  0  0  0  0  0  0  0  0
   62.9430   31.1970   47.1420 C   0  0  0  0  0  0  0  0  0  0  0  0
   63.5269   30.2649   47.1579 H   0  0  0  0  0  0  0  0  0  0  0  0
   62.8932   31.6149   46.1257 H   0  0  0  0  0  0  0  0  0  0  0  0
   61.5430   30.9010   47.5940 C   0  0  0  0  0  0  0  0  0  0  0  0
   60.4990   30.7120   46.6820 C   0  0  0  0  0  0  0  0  0  0  0  0
   60.6727   30.8709   45.6075 H   0  0  0  0  0  0  0  0  0  0  0  0
   59.2370   30.3220   47.1340 C   0  0  0  0  0  0  0  0  0  0  0  0
   58.4135   30.1845   46.4178 H   0  0  0  0  0  0  0  0  0  0  0  0
   59.0210   30.1060   48.5020 C   0  0  0  0  0  0  0  0  0  0  0  0
   58.0348   29.7730   48.8577 H   0  0  0  0  0  0  0  0  0  0  0  0
   60.0590   30.3140   49.4130 C   0  0  0  0  0  0  0  0  0  0  0  0
   59.8824   30.1638   50.4883 H   0  0  0  0  0  0  0  0  0  0  0  0
   61.3270   30.7140   48.9620 C   0  0  0  0  0  0  0  0  0  0  0  0
   62.4930   30.8160   49.9020 C   0  0  0  0  0  0  0  0  0  0  0  0
   63.0237   29.8526   49.9112 H   0  0  0  0  0  0  0  0  0  0  0  0
   62.0985   31.0706   50.8967 H   0  0  0  0  0  0  0  0  0  0  0  0
   63.4910   31.9290   49.4930 C   0  0  0  0  0  0  0  0  0  0  0  0
   64.4866   31.6427   49.8629 H   0  0  0  0  0  0  0  0  0  0  0  0
   63.1010   32.8580   49.9343 H   0  0  0  0  0  0  0  0  0  0  0  0
   61.0550   34.2500   46.4850 C   0  0  0  0  0  0  0  0  0  0  0  0
   61.6158   34.2141   45.5394 H   0  0  0  0  0  0  0  0  0  0  0  0
  1  2  1  0
  2  3  1  0
  3  4  1  0
  4  5  2  0
  5  6  1  0
  6  7  2  0
  6  8  1  0
  8  9  1  0
  9 10  1  0
  9 11  1  0
  9 12  1  0
 12 13  1  0
 12 14  1  0
 12 15  1  0
  4 16  1  0
 16 17  1  0
 16 18  2  0
 18 19  1  0
 18 20  1  0
 20 21  1  0
 21 22  1  0
 22 23  2  0
 23 24  1  0
 23 25  1  0
 25 26  1  0
 25 27  2  0
 27 28  1  0
 27 29  1  0
 29 30  1  0
 30 31  2  0
 30 32  1  0
 32 33  1  6
 32 34  1  0
 34 35  1  0
 34 36  1  0
 34 37  1  0
 37 38  2  0
 38 39  1  0
 38 40  1  0
 40 41  1  0
 40 42  2  0
 42 43  1  0
 42 44  1  0
 44 45  1  0
 44 46  2  0
 46 47  1  0
 47 48  1  0
 47 49  1  0
 47 50  1  0
 50 51  1  0
 50 52  1  0
 29 53  2  0
 53 54  1  0
 20  2  2  0
 53 22  1  0
 50 32  1  0
 46 37  1  0
M  CHG  3   3  -1   8  -1  32   1
M  END
>  <UniqueID>  (67) 
63

>  <SMILES>  (67) 
CC[N-]C(=O)/N=c1\ccc(Sc2cccc(C(=O)[N@H+]3CCc4ccccc4C3)c2)c[n-]1

>  <Energy>  (67) 
84.1291485177533

>  <Genealogy>  (67) 
CC[N-]C(=O)N=c1ccc(Sc2cccc(C(=O)[NH+]3CCc4ccccc4C3)c2)c[n-]1 (protonated)
CC[N-]C(=O)N=c1ccc(Sc2cccc(C(=O)[N@H+]3CCc4ccccc4C3)c2)c[n-]1 (chirality)
CC[N-]C(=O)/N=c1\ccc(Sc2cccc(C(=O)[N@H+]3CCc4ccccc4C3)c2)c[n-]1 (cis-trans isomerization)
CC[N-]C(=O)/N=c1\ccc(Sc2cccc(C(=O)[N@H+]3CCc4ccccc4C3)c2)c[n-]1 (3D coordinates assigned)
CC[N-]C(=O)/N=c1\ccc(Sc2cccc(C(=O)[N@H+]3CCc4ccccc4C3)c2)c[n-]1 (nonaromatic ring conformer: 84.1291485177533 kcal/mol)

>  <smiles>  (67) 
CCNC(=O)N=c1ccc(Sc2cccc(C(=O)N3CCc4ccccc4C3)c2)c[nH]1

>  <score_type>  (67) 
oracle

>  <origin>  (67) 
adg

>  <m_score__min__energy>  (67) 
-11.74

>  <m_primary>  (67) 
energy

$$$$
67:0
     RDKit          3D

 62 66  0  0  0  0  0  0  0  0999 V2000
   55.5450   29.5660   44.8100 O   0  0  0  0  0  0  0  0  0  0  0  0
   56.7940   29.6920   44.7180 C   0  0  0  0  0  0  0  0  0  0  0  0
   57.5630   28.6190   44.1660 N   0  0  0  0  0  0  0  0  0  0  0  0
   58.3790   27.7200   44.9310 C   0  0  0  0  0  0  0  0  0  0  0  0
   59.4670   28.2320   45.6450 C   0  0  0  0  0  0  0  0  0  0  0  0
   60.3130   27.3720   46.3510 C   0  0  0  0  0  0  0  0  0  0  0  0
   60.0940   25.9930   46.3240 C   0  0  0  0  0  0  0  0  0  0  0  0
   59.0180   25.4620   45.5980 C   0  0  0  0  0  0  0  0  0  0  0  0
   58.8160   23.7110   45.4740 S   0  0  0  0  0  0  0  0  0  0  0  0
   60.1680   23.0640   45.5890 O   0  0  0  0  0  0  0  0  0  0  0  0
   57.9980   23.2560   46.6470 O   0  0  0  0  0  0  0  0  0  0  0  0
   58.0100   23.1730   44.0090 N   0  0  0  0  0  0  0  0  0  0  0  0
   56.7030   23.8140   43.7770 C   0  0  0  0  0  0  0  0  0  0  0  0
   55.5880   23.1010   44.5390 C   0  0  0  0  0  0  0  0  0  0  0  0
   55.5300   21.7410   44.1640 O   0  0  0  0  0  0  0  0  0  0  0  0
   56.7190   21.0930   44.5650 C   0  0  0  0  0  0  0  0  0  0  0  0
   57.9520   21.7050   43.8700 C   0  0  0  0  0  0  0  0  0  0  0  0
   58.1580   26.3300   44.9060 C   0  0  0  0  0  0  0  0  0  0  0  0
   57.4380   30.9640   45.1210 C   0  0  0  0  0  0  0  0  0  0  0  0
   57.3980   32.0630   44.2520 C   0  0  0  0  0  0  0  0  0  0  0  0
   57.9740   33.2410   44.6030 N   0  0  0  0  0  0  0  0  0  0  0  0
   58.6170   33.4000   45.7880 C   0  0  0  0  0  0  0  0  0  0  0  0
   59.2330   34.6190   46.0850 C   0  0  0  0  0  0  0  0  0  0  0  0
   59.9680   34.7640   47.2630 C   0  0  0  0  0  0  0  0  0  0  0  0
   60.0880   33.6930   48.1590 C   0  0  0  0  0  0  0  0  0  0  0  0
   61.1210   33.8390   49.5820 S   0  0  0  0  0  0  0  0  0  0  0  0
   62.1110   34.9500   49.3620 O   0  0  0  0  0  0  0  0  0  0  0  0
   60.2780   34.1960   50.7730 O   0  0  0  0  0  0  0  0  0  0  0  0
   61.9840   32.3530   49.9040 N   0  0  0  0  0  0  0  0  0  0  0  0
   63.3850   32.6360   50.2540 C   0  0  0  0  0  0  0  0  0  0  0  0
   64.1190   31.3330   50.6340 C   0  0  0  0  0  0  0  0  0  0  0  0
   63.2780   30.2010   50.5060 O   0  0  0  0  0  0  0  0  0  0  0  0
   62.1510   30.3480   51.3490 C   0  0  0  0  0  0  0  0  0  0  0  0
   61.3300   31.6030   50.9880 C   0  0  0  0  0  0  0  0  0  0  0  0
   59.4320   32.4830   47.8890 C   0  0  0  0  0  0  0  0  0  0  0  0
   58.7010   32.3220   46.6980 C   0  0  0  0  0  0  0  0  0  0  0  0
   58.0900   31.0980   46.3610 C   0  0  0  0  0  0  0  0  0  0  0  0
   58.1500   30.1180   47.1540 O   0  0  0  0  0  0  0  0  0  0  0  0
   59.6577   29.3153   45.6510 H   0  0  0  0  0  0  0  0  0  0  0  0
   61.1537   27.7826   46.9295 H   0  0  0  0  0  0  0  0  0  0  0  0
   60.7683   25.3205   46.8745 H   0  0  0  0  0  0  0  0  0  0  0  0
   56.7532   24.8603   44.1127 H   0  0  0  0  0  0  0  0  0  0  0  0
   56.4770   23.7587   42.7019 H   0  0  0  0  0  0  0  0  0  0  0  0
   55.7841   23.1715   45.6191 H   0  0  0  0  0  0  0  0  0  0  0  0
   54.6274   23.5798   44.2983 H   0  0  0  0  0  0  0  0  0  0  0  0
   56.8335   21.1961   45.6542 H   0  0  0  0  0  0  0  0  0  0  0  0
   56.6500   20.0329   44.2797 H   0  0  0  0  0  0  0  0  0  0  0  0
   58.8594   21.2725   44.3168 H   0  0  0  0  0  0  0  0  0  0  0  0
   57.8791   21.4741   42.7970 H   0  0  0  0  0  0  0  0  0  0  0  0
   57.3070   25.9215   44.3413 H   0  0  0  0  0  0  0  0  0  0  0  0
   56.8958   31.9702   43.2777 H   0  0  0  0  0  0  0  0  0  0  0  0
   59.1385   35.4657   45.3892 H   0  0  0  0  0  0  0  0  0  0  0  0
   60.4555   35.7238   47.4891 H   0  0  0  0  0  0  0  0  0  0  0  0
   63.8881   33.0968   49.3911 H   0  0  0  0  0  0  0  0  0  0  0  0
   63.4061   33.3210   51.1144 H   0  0  0  0  0  0  0  0  0  0  0  0
   64.9885   31.2077   49.9719 H   0  0  0  0  0  0  0  0  0  0  0  0
   64.4319   31.4102   51.6857 H   0  0  0  0  0  0  0  0  0  0  0  0
   61.5098   29.4603   51.2454 H   0  0  0  0  0  0  0  0  0  0  0  0
   62.5079   30.4570   52.3838 H   0  0  0  0  0  0  0  0  0  0  0  0
   60.3254   31.2966   50.6612 H   0  0  0  0  0  0  0  0  0  0  0  0
   61.2597   32.2493   51.8754 H   0  0  0  0  0  0  0  0  0  0  0  0
   59.4894   31.6560   48.6120 H   0  0  0  0  0  0  0  0  0  0  0  0
  1  2  2  0
  2  3  1  0
  3  4  1  0
  4  5  2  0
  5  6  1  0
  6  7  2  0
  7  8  1  0
  8  9  1  0
  9 10  2  0
  9 11  2  0
  9 12  1  0
 12 13  1  0
 13 14  1  0
 14 15  1  0
 15 16  1  0
 16 17  1  0
  8 18  2  0
  2 19  1  0
 19 20  2  0
 20 21  1  0
 21 22  1  0
 22 23  2  0
 23 24  1  0
 24 25  2  0
 25 26  1  0
 26 27  2  0
 26 28  2  0
 26 29  1  0
 29 30  1  0
 30 31  1  0
 31 32  1  0
 32 33  1  0
 33 34  1  0
 25 35  1  0
 35 36  2  0
 36 37  1  0
 37 38  2  0
 18  4  1  0
 37 19  1  0
 17 12  1  0
 36 22  1  0
 34 29  1  0
  5 39  1  0
  6 40  1  0
  7 41  1  0
 13 42  1  0
 13 43  1  0
 14 44  1  0
 14 45  1  0
 16 46  1  0
 16 47  1  0
 17 48  1  0
 17 49  1  0
 18 50  1  0
 20 51  1  0
 23 52  1  0
 24 53  1  0
 30 54  1  0
 30 55  1  0
 31 56  1  0
 31 57  1  0
 33 58  1  0
 33 59  1  0
 34 60  1  0
 34 61  1  0
 35 62  1  0
M  CHG  2   3  -1  21  -1
M  END
>  <UniqueID>  (68) 
64

>  <SMILES>  (68) 
O=C([N-]c1cccc(S(=O)(=O)N2CCOCC2)c1)c1c[n-]c2ccc(S(=O)(=O)N3CCOCC3)cc2c1=O

>  <Energy>  (68) 
86.82070535042931

>  <Genealogy>  (68) 
O=C([N-]c1cccc(S(=O)(=O)N2CCOCC2)c1)c1c[n-]c2ccc(S(=O)(=O)N3CCOCC3)cc2c1=O (protonated)
O=C([N-]c1cccc(S(=O)(=O)N2CCOCC2)c1)c1c[n-]c2ccc(S(=O)(=O)N3CCOCC3)cc2c1=O (3D coordinates assigned)
O=C([N-]c1cccc(S(=O)(=O)N2CCOCC2)c1)c1c[n-]c2ccc(S(=O)(=O)N3CCOCC3)cc2c1=O (nonaromatic ring conformer: 86.82070535042931 kcal/mol)

>  <smiles>  (68) 
O=C(Nc1cccc(S(=O)(=O)N2CCOCC2)c1)c1c[nH]c2ccc(S(=O)(=O)N3CCOCC3)cc2c1=O

>  <score_type>  (68) 
oracle

>  <origin>  (68) 
adg

>  <m_score__min__energy>  (68) 
-14.630000000000001

>  <m_primary>  (68) 
energy

$$$$
68:0
     RDKit          3D

 38 39  0  0  0  0  0  0  0  0999 V2000
   58.2353   32.1182   50.2985 H   0  0  0  0  0  0  0  0  0  0  0  0
   58.9150   31.8330   49.4820 C   0  0  0  0  0  0  0  0  0  0  0  0
   59.3740   32.8030   48.5850 C   0  0  0  0  0  0  0  0  0  0  0  0
   59.0455   33.8473   48.6926 H   0  0  0  0  0  0  0  0  0  0  0  0
   60.2520   32.4500   47.5480 C   0  0  0  0  0  0  0  0  0  0  0  0
   60.7510   33.4940   46.5800 C   0  0  0  0  0  0  0  0  0  0  0  0
   61.2961   32.9937   45.7660 H   0  0  0  0  0  0  0  0  0  0  0  0
   61.4084   34.1842   47.1291 H   0  0  0  0  0  0  0  0  0  0  0  0
   59.6170   34.2950   45.9890 C   0  0  0  0  0  0  0  0  0  0  0  0
   59.2200   35.3210   46.5990 O   0  0  0  0  0  0  0  0  0  0  0  0
   58.9030   33.8750   44.8160 N   0  0  0  0  0  0  0  0  0  0  0  0
   58.2260   32.7760   44.6550 C   0  0  0  0  0  0  0  0  0  0  0  0
   57.8380   32.3520   43.4350 N   0  0  0  0  0  0  0  0  0  0  0  0
   57.1620   31.1720   43.4930 C   0  0  0  0  0  0  0  0  0  0  0  0
   56.6390   30.5240   42.2500 C   0  0  0  0  0  0  0  0  0  0  0  0
   55.9697   29.6947   42.5226 H   0  0  0  0  0  0  0  0  0  0  0  0
   56.0825   31.2645   41.6568 H   0  0  0  0  0  0  0  0  0  0  0  0
   57.4803   30.1363   41.6568 H   0  0  0  0  0  0  0  0  0  0  0  0
   57.0230   30.6400   44.7830 C   0  0  0  0  0  0  0  0  0  0  0  0
   56.3700   29.3790   45.1810 C   0  0  0  0  0  0  0  0  0  0  0  0
   55.1870   29.1330   44.8300 O   0  0  0  0  0  0  0  0  0  0  0  0
   57.0910   28.4350   45.9790 N   0  0  0  0  0  0  0  0  0  0  0  0
   57.5110   27.1200   45.5060 C   0  0  0  0  0  0  0  0  0  0  0  0
   57.5586   27.1309   44.4071 H   0  0  0  0  0  0  0  0  0  0  0  0
   58.4997   26.8929   45.9313 H   0  0  0  0  0  0  0  0  0  0  0  0
   56.5260   26.0380   45.9540 C   0  0  0  0  0  0  0  0  0  0  0  0
   56.5625   25.2005   45.2417 H   0  0  0  0  0  0  0  0  0  0  0  0
   56.8107   25.6987   46.9609 H   0  0  0  0  0  0  0  0  0  0  0  0
   55.1650   26.5620   46.0060 N   0  0  0  0  0  0  0  0  0  0  0  0
   54.9310   26.7490   47.0070 H   0  0  0  0  0  0  0  0  0  0  0  0
   55.1520   27.4890   45.5190 H   0  0  0  0  0  0  0  0  0  0  0  0
   57.7790   31.6890   45.8600 S   0  0  0  0  0  0  0  0  0  0  0  0
   60.6400   31.1070   47.4040 C   0  0  0  0  0  0  0  0  0  0  0  0
   61.3081   30.8144   46.5805 H   0  0  0  0  0  0  0  0  0  0  0  0
   60.1790   30.1410   48.3050 C   0  0  0  0  0  0  0  0  0  0  0  0
   60.4957   29.0933   48.1954 H   0  0  0  0  0  0  0  0  0  0  0  0
   59.3180   30.5030   49.3430 C   0  0  0  0  0  0  0  0  0  0  0  0
   58.8730   29.5660   50.2160 F   0  0  0  0  0  0  0  0  0  0  0  0
  1  2  1  0
  2  3  2  0
  3  4  1  0
  3  5  1  0
  5  6  1  0
  6  7  1  0
  6  8  1  0
  6  9  1  0
  9 10  2  0
  9 11  1  0
 11 12  2  0
 12 13  1  0
 13 14  1  0
 14 15  1  0
 15 16  1  0
 15 17  1  0
 15 18  1  0
 14 19  2  0
 19 20  1  0
 20 21  2  0
 20 22  1  0
 22 23  1  0
 23 24  1  0
 23 25  1  0
 23 26  1  0
 26 27  1  0
 26 28  1  0
 26 29  1  0
 29 30  1  0
 29 31  1  0
 19 32  1  0
  5 33  2  0
 33 34  1  0
 33 35  1  0
 35 36  1  0
 35 37  2  0
 37 38  1  0
 37  2  1  0
 32 12  1  0
M  CHG  2  13  -1  22  -1
M  END
>  <UniqueID>  (69) 
65

>  <SMILES>  (69) 
Cc1[n-]/c(=N/C(=O)Cc2ccc(F)cc2)sc1C(=O)[N-]CCN

>  <Energy>  (69) 
68.42087800763724

>  <Genealogy>  (69) 
Cc1[n-]c(=NC(=O)Cc2ccc(F)cc2)sc1C(=O)[N-]CCN (protonated)
Cc1[n-]/c(=N/C(=O)Cc2ccc(F)cc2)sc1C(=O)[N-]CCN (cis-trans isomerization)
Cc1[n-]/c(=N/C(=O)Cc2ccc(F)cc2)sc1C(=O)[N-]CCN (3D coordinates assigned)
Cc1[n-]/c(=N/C(=O)Cc2ccc(F)cc2)sc1C(=O)[N-]CCN (optimized conformer: 68.42087800763724 kcal/mol)

>  <smiles>  (69) 
Cc1[nH]c(=NC(=O)Cc2ccc(F)cc2)sc1C(=O)NCCN

>  <score_type>  (69) 
oracle

>  <origin>  (69) 
adg

>  <m_score__min__energy>  (69) 
-10.27

>  <m_primary>  (69) 
energy

$$$$
69:0
     RDKit          3D

 62 65  0  0  0  0  0  0  0  0999 V2000
   57.5140   31.4350   43.1730 O   0  0  0  0  0  0  0  0  0  0  0  0
   57.0380   31.3590   44.3410 C   0  0  0  0  0  0  0  0  0  0  0  0
   56.8330   32.5990   45.1530 C   0  0  0  0  0  0  0  0  0  0  0  0
   58.1480   33.1240   45.5930 N   0  0  0  0  0  0  0  0  0  0  0  0
   58.5080   32.6400   46.9470 C   0  0  0  0  0  0  0  0  0  0  0  0
   59.5210   33.5580   47.6800 C   0  0  0  0  0  0  0  0  0  0  0  0
   60.3720   34.3450   46.7640 N   0  0  0  0  0  0  0  0  0  0  0  0
   61.6580   33.7190   46.3920 C   0  0  0  0  0  0  0  0  0  0  0  0
   62.4230   33.1490   47.5640 C   0  0  0  0  0  0  0  0  0  0  0  0
   63.3940   33.9170   48.2320 C   0  0  0  0  0  0  0  0  0  0  0  0
   64.0800   33.3910   49.3300 C   0  0  0  0  0  0  0  0  0  0  0  0
   63.8090   32.0920   49.7730 C   0  0  0  0  0  0  0  0  0  0  0  0
   62.8310   31.3280   49.1290 C   0  0  0  0  0  0  0  0  0  0  0  0
   62.1290   31.8560   48.0410 C   0  0  0  0  0  0  0  0  0  0  0  0
   59.6600   35.0460   45.6690 C   0  0  0  0  0  0  0  0  0  0  0  0
   58.2040   34.5920   45.5130 C   0  0  0  0  0  0  0  0  0  0  0  0
   56.6430   30.0970   44.8880 N   0  0  0  0  0  0  0  0  0  0  0  0
   57.5130   29.0090   45.2340 C   0  0  0  0  0  0  0  0  0  0  0  0
   56.9350   27.7600   45.4900 C   0  0  0  0  0  0  0  0  0  0  0  0
   57.7240   26.6770   45.9030 C   0  0  0  0  0  0  0  0  0  0  0  0
   56.9730   25.1120   46.2380 S   0  0  0  0  0  0  0  0  0  0  0  0
   57.4100   24.6410   47.5960 O   0  0  0  0  0  0  0  0  0  0  0  0
   55.4770   25.2730   46.2630 O   0  0  0  0  0  0  0  0  0  0  0  0
   57.3950   23.9170   45.0320 N   0  0  0  0  0  0  0  0  0  0  0  0
   57.2100   22.5420   45.5420 C   0  0  0  0  0  0  0  0  0  0  0  0
   55.9550   21.8740   44.9510 C   0  0  0  0  0  0  0  0  0  0  0  0
   55.9980   21.7800   43.5350 O   0  0  0  0  0  0  0  0  0  0  0  0
   56.6040   22.9030   42.9060 C   0  0  0  0  0  0  0  0  0  0  0  0
   56.6630   24.1710   43.7750 C   0  0  0  0  0  0  0  0  0  0  0  0
   59.1000   26.8540   46.0870 C   0  0  0  0  0  0  0  0  0  0  0  0
   59.6830   28.1010   45.8590 C   0  0  0  0  0  0  0  0  0  0  0  0
   58.8980   29.1880   45.4460 C   0  0  0  0  0  0  0  0  0  0  0  0
   59.4900   30.4420   45.2850 O   0  0  0  0  0  0  0  0  0  0  0  0
   56.3212   33.3571   44.5420 H   0  0  0  0  0  0  0  0  0  0  0  0
   56.2186   32.3630   46.0344 H   0  0  0  0  0  0  0  0  0  0  0  0
   57.5908   32.5804   47.5513 H   0  0  0  0  0  0  0  0  0  0  0  0
   58.9892   31.6585   46.8238 H   0  0  0  0  0  0  0  0  0  0  0  0
   58.9598   34.2553   48.3194 H   0  0  0  0  0  0  0  0  0  0  0  0
   60.1885   32.9047   48.2611 H   0  0  0  0  0  0  0  0  0  0  0  0
   61.4539   32.9039   45.6821 H   0  0  0  0  0  0  0  0  0  0  0  0
   62.2847   34.5112   45.9564 H   0  0  0  0  0  0  0  0  0  0  0  0
   63.6147   34.9382   47.8878 H   0  0  0  0  0  0  0  0  0  0  0  0
   64.8355   34.0003   49.8476 H   0  0  0  0  0  0  0  0  0  0  0  0
   64.3637   31.6729   50.6255 H   0  0  0  0  0  0  0  0  0  0  0  0
   62.6131   30.3083   49.4793 H   0  0  0  0  0  0  0  0  0  0  0  0
   61.3433   31.2590   47.5550 H   0  0  0  0  0  0  0  0  0  0  0  0
   59.6697   36.1256   45.8795 H   0  0  0  0  0  0  0  0  0  0  0  0
   60.1816   34.8054   44.7309 H   0  0  0  0  0  0  0  0  0  0  0  0
   57.5935   35.0286   46.3172 H   0  0  0  0  0  0  0  0  0  0  0  0
   57.8131   34.9260   44.5406 H   0  0  0  0  0  0  0  0  0  0  0  0
   55.8502   27.6268   45.3658 H   0  0  0  0  0  0  0  0  0  0  0  0
   58.0919   21.9417   45.2740 H   0  0  0  0  0  0  0  0  0  0  0  0
   57.0845   22.5974   46.6334 H   0  0  0  0  0  0  0  0  0  0  0  0
   55.8669   20.8600   45.3682 H   0  0  0  0  0  0  0  0  0  0  0  0
   55.0902   22.5002   45.2157 H   0  0  0  0  0  0  0  0  0  0  0  0
   57.6328   22.6279   42.6307 H   0  0  0  0  0  0  0  0  0  0  0  0
   55.9755   23.1499   42.0376 H   0  0  0  0  0  0  0  0  0  0  0  0
   57.1751   24.9674   43.2151 H   0  0  0  0  0  0  0  0  0  0  0  0
   55.6351   24.4742   44.0230 H   0  0  0  0  0  0  0  0  0  0  0  0
   59.7234   26.0080   46.4121 H   0  0  0  0  0  0  0  0  0  0  0  0
   60.7654   28.2327   46.0040 H   0  0  0  0  0  0  0  0  0  0  0  0
   58.9890   31.2200   44.8640 H   0  0  0  0  0  0  0  0  0  0  0  0
  1  2  2  0
  2  3  1  0
  3  4  1  0
  4  5  1  0
  5  6  1  0
  6  7  1  0
  7  8  1  0
  8  9  1  0
  9 10  2  0
 10 11  1  0
 11 12  2  0
 12 13  1  0
 13 14  2  0
  7 15  1  0
 15 16  1  0
  2 17  1  0
 17 18  1  0
 18 19  2  0
 19 20  1  0
 20 21  1  0
 21 22  2  0
 21 23  2  0
 21 24  1  0
 24 25  1  0
 25 26  1  0
 26 27  1  0
 27 28  1  0
 28 29  1  0
 20 30  2  0
 30 31  1  0
 31 32  2  0
 32 33  1  0
 16  4  1  0
 32 18  1  0
 14  9  1  0
 29 24  1  0
  3 34  1  0
  3 35  1  0
  5 36  1  0
  5 37  1  0
  6 38  1  0
  6 39  1  0
  8 40  1  0
  8 41  1  0
 10 42  1  0
 11 43  1  0
 12 44  1  0
 13 45  1  0
 14 46  1  0
 15 47  1  0
 15 48  1  0
 16 49  1  0
 16 50  1  0
 19 51  1  0
 25 52  1  0
 25 53  1  0
 26 54  1  0
 26 55  1  0
 28 56  1  0
 28 57  1  0
 29 58  1  0
 29 59  1  0
 30 60  1  0
 31 61  1  0
 33 62  1  0
M  CHG  1  17  -1
M  END
>  <UniqueID>  (70) 
66

>  <SMILES>  (70) 
O=C(CN1CCN(Cc2ccccc2)CC1)[N-]c1cc(S(=O)(=O)N2CCOCC2)ccc1O

>  <Energy>  (70) 
94.87135815797592

>  <Genealogy>  (70) 
O=C(CN1CCN(Cc2ccccc2)CC1)[N-]c1cc(S(=O)(=O)N2CCOCC2)ccc1O (protonated)
O=C(CN1CCN(Cc2ccccc2)CC1)[N-]c1cc(S(=O)(=O)N2CCOCC2)ccc1O (3D coordinates assigned)
O=C(CN1CCN(Cc2ccccc2)CC1)[N-]c1cc(S(=O)(=O)N2CCOCC2)ccc1O (nonaromatic ring conformer: 94.87135815797592 kcal/mol)

>  <smiles>  (70) 
O=C(CN1CCN(Cc2ccccc2)CC1)Nc1cc(S(=O)(=O)N2CCOCC2)ccc1O

>  <score_type>  (70) 
oracle

>  <origin>  (70) 
adg

>  <m_score__min__energy>  (70) 
-11.48

>  <m_primary>  (70) 
energy

$$$$
70:0
     RDKit          3D

 55 58  0  0  0  0  0  0  0  0999 V2000
   60.0890   26.2500   46.2920 C   0  0  0  0  0  0  0  0  0  0  0  0
   59.4440   27.5310   45.8620 C   0  0  0  0  0  0  0  0  0  0  0  0
   60.2920   28.9790   45.6360 S   0  0  0  0  0  0  0  0  0  0  0  0
   58.9380   29.8580   45.1900 C   0  0  0  0  0  0  0  0  0  0  0  0
   58.9010   31.1680   44.8550 N   0  0  0  0  0  0  0  0  0  0  0  0
   57.7030   31.7290   44.5260 C   0  0  0  0  0  0  0  0  0  0  0  0
   57.6270   33.1720   44.1300 C   0  0  0  0  0  0  0  0  0  0  0  0
   57.2460   34.0640   45.3310 C   0  0  0  0  0  0  0  0  0  0  0  0
   57.6520   33.4480   46.6760 C   0  0  0  0  0  0  0  0  0  0  0  0
   59.0890   33.7490   47.0020 C   0  0  0  0  0  0  0  0  0  0  0  0
   59.3820   34.8490   47.5450 O   0  0  0  0  0  0  0  0  0  0  0  0
   60.1160   32.7960   46.6890 N   0  0  0  0  0  0  0  0  0  0  0  0
   61.4570   32.8840   47.1970 C   0  0  0  0  0  0  0  0  0  0  0  0
   62.4260   33.6440   46.5190 C   0  0  0  0  0  0  0  0  0  0  0  0
   63.7110   33.7900   47.0490 C   0  0  0  0  0  0  0  0  0  0  0  0
   64.0380   33.1920   48.2660 C   0  0  0  0  0  0  0  0  0  0  0  0
   63.0840   32.4380   48.9520 C   0  0  0  0  0  0  0  0  0  0  0  0
   61.7940   32.2750   48.4250 C   0  0  0  0  0  0  0  0  0  0  0  0
   60.8620   31.4170   49.1060 N   0  0  0  0  0  0  0  0  0  0  0  0
   59.7020   32.0070   49.7840 C   0  0  0  0  0  0  0  0  0  0  0  0
   58.6270   30.9470   50.0130 C   0  0  0  0  0  0  0  0  0  0  0  0
   58.5470   30.1130   48.8770 O   0  0  0  0  0  0  0  0  0  0  0  0
   59.6680   29.2460   48.8270 C   0  0  0  0  0  0  0  0  0  0  0  0
   61.0250   29.9590   49.0540 C   0  0  0  0  0  0  0  0  0  0  0  0
   56.5650   30.9710   44.5300 N   0  0  0  0  0  0  0  0  0  0  0  0
   56.5840   29.6510   44.8640 C   0  0  0  0  0  0  0  0  0  0  0  0
   55.5110   28.9920   44.8570 O   0  0  0  0  0  0  0  0  0  0  0  0
   57.8080   29.0600   45.2060 C   0  0  0  0  0  0  0  0  0  0  0  0
   58.0800   27.7260   45.5780 C   0  0  0  0  0  0  0  0  0  0  0  0
   57.0370   26.6460   45.6700 C   0  0  0  0  0  0  0  0  0  0  0  0
   60.1130   26.2023   47.3907 H   0  0  0  0  0  0  0  0  0  0  0  0
   59.5117   25.3994   45.9006 H   0  0  0  0  0  0  0  0  0  0  0  0
   61.1161   26.2072   45.9006 H   0  0  0  0  0  0  0  0  0  0  0  0
   58.6069   33.4898   43.7443 H   0  0  0  0  0  0  0  0  0  0  0  0
   56.8512   33.2797   43.3577 H   0  0  0  0  0  0  0  0  0  0  0  0
   57.7501   35.0356   45.2221 H   0  0  0  0  0  0  0  0  0  0  0  0
   56.1514   34.1725   45.3313 H   0  0  0  0  0  0  0  0  0  0  0  0
   57.0104   33.8616   47.4680 H   0  0  0  0  0  0  0  0  0  0  0  0
   57.5319   32.3566   46.6090 H   0  0  0  0  0  0  0  0  0  0  0  0
   59.8910   32.0240   46.0220 H   0  0  0  0  0  0  0  0  0  0  0  0
   62.1710   34.1273   45.5643 H   0  0  0  0  0  0  0  0  0  0  0  0
   64.4657   34.3774   46.5055 H   0  0  0  0  0  0  0  0  0  0  0  0
   65.0476   33.3145   48.6853 H   0  0  0  0  0  0  0  0  0  0  0  0
   63.3455   31.9687   49.9119 H   0  0  0  0  0  0  0  0  0  0  0  0
   60.0188   32.4181   50.7539 H   0  0  0  0  0  0  0  0  0  0  0  0
   59.2873   32.8071   49.1532 H   0  0  0  0  0  0  0  0  0  0  0  0
   58.8877   30.3433   50.8948 H   0  0  0  0  0  0  0  0  0  0  0  0
   57.6561   31.4360   50.1811 H   0  0  0  0  0  0  0  0  0  0  0  0
   59.5463   28.4776   49.6047 H   0  0  0  0  0  0  0  0  0  0  0  0
   59.6970   28.8205   47.8131 H   0  0  0  0  0  0  0  0  0  0  0  0
   61.4564   29.6130   50.0049 H   0  0  0  0  0  0  0  0  0  0  0  0
   61.6894   29.7148   48.2121 H   0  0  0  0  0  0  0  0  0  0  0  0
   56.8268   26.4284   46.7276 H   0  0  0  0  0  0  0  0  0  0  0  0
   56.1147   26.9839   45.1748 H   0  0  0  0  0  0  0  0  0  0  0  0
   57.4068   25.7360   45.1748 H   0  0  0  0  0  0  0  0  0  0  0  0
  1  2  1  0
  2  3  1  0
  3  4  1  0
  4  5  1  0
  5  6  1  0
  6  7  1  0
  7  8  1  0
  8  9  1  0
  9 10  1  0
 10 11  2  0
 10 12  1  0
 12 13  1  0
 13 14  2  0
 14 15  1  0
 15 16  2  0
 16 17  1  0
 17 18  2  0
 18 19  1  0
 19 20  1  0
 20 21  1  0
 21 22  1  0
 22 23  1  0
 23 24  1  0
  6 25  2  0
 25 26  1  0
 26 27  2  0
 26 28  1  0
 28 29  1  0
 29 30  1  0
 29  2  2  0
 28  4  2  0
 18 13  1  0
 24 19  1  0
  1 31  1  0
  1 32  1  0
  1 33  1  0
  7 34  1  0
  7 35  1  0
  8 36  1  0
  8 37  1  0
  9 38  1  0
  9 39  1  0
 12 40  1  0
 14 41  1  0
 15 42  1  0
 16 43  1  0
 17 44  1  0
 20 45  1  0
 20 46  1  0
 21 47  1  0
 21 48  1  0
 23 49  1  0
 23 50  1  0
 24 51  1  0
 24 52  1  0
 30 53  1  0
 30 54  1  0
 30 55  1  0
M  CHG  1   5  -1
M  END
>  <UniqueID>  (71) 
67

>  <SMILES>  (71) 
Cc1sc2[n-]c(CCCC(=O)Nc3ccccc3N3CCOCC3)nc(=O)c2c1C

>  <Energy>  (71) 
103.29140732732613

>  <Genealogy>  (71) 
Cc1sc2[n-]c(CCCC(=O)Nc3ccccc3N3CCOCC3)nc(=O)c2c1C (protonated)
Cc1sc2[n-]c(CCCC(=O)Nc3ccccc3N3CCOCC3)nc(=O)c2c1C (3D coordinates assigned)
Cc1sc2[n-]c(CCCC(=O)Nc3ccccc3N3CCOCC3)nc(=O)c2c1C (nonaromatic ring conformer: 103.29140732732613 kcal/mol)

>  <smiles>  (71) 
Cc1sc2[nH]c(CCCC(=O)Nc3ccccc3N3CCOCC3)nc(=O)c2c1C

>  <score_type>  (71) 
oracle

>  <origin>  (71) 
adg

>  <m_score__min__energy>  (71) 
-10.68

>  <m_primary>  (71) 
energy

$$$$
71:0
     RDKit          3D

 48 50  0  0  0  0  0  0  0  0999 V2000
   58.7110   28.6730   44.5980 C   0  0  0  0  0  0  0  0  0  0  0  0
   59.0870   29.1480   45.9370 N   0  0  0  0  0  0  0  0  0  0  0  0
   60.4920   29.6160   45.9440 C   0  0  0  0  0  0  0  0  0  0  0  0
   60.7410   30.6180   47.0750 C   0  0  0  0  0  0  0  0  0  0  0  0
   59.9340   31.8410   46.8810 N   0  0  0  0  0  0  0  0  0  0  0  0
   59.7810   32.7170   48.3870 S   0  0  0  0  0  0  0  0  0  0  0  0
   61.1470   33.0610   48.9130 O   0  0  0  0  0  0  0  0  0  0  0  0
   59.0440   34.0040   48.1380 O   0  0  0  0  0  0  0  0  0  0  0  0
   58.9080   31.7720   49.5960 C   0  0  0  0  0  0  0  0  0  0  0  0
   59.1710   30.4030   49.7450 C   0  0  0  0  0  0  0  0  0  0  0  0
   58.4290   29.6390   50.6470 C   0  0  0  0  0  0  0  0  0  0  0  0
   57.4120   30.2340   51.4050 C   0  0  0  0  0  0  0  0  0  0  0  0
   56.6280   29.4510   52.3090 N   0  0  0  0  0  0  0  0  0  0  0  0
   55.3060   29.8080   52.7390 C   0  0  0  0  0  0  0  0  0  0  0  0
   55.1700   30.4930   53.7890 O   0  0  0  0  0  0  0  0  0  0  0  0
   54.0860   29.4470   51.9320 C   0  0  0  0  0  0  0  0  0  0  0  0
   53.0030   30.4940   52.0260 C   0  0  0  0  0  0  0  0  0  0  0  0
   52.4350   30.8170   53.2690 C   0  0  0  0  0  0  0  0  0  0  0  0
   51.4140   31.7670   53.3540 C   0  0  0  0  0  0  0  0  0  0  0  0
   50.9360   32.3890   52.1990 C   0  0  0  0  0  0  0  0  0  0  0  0
   49.9120   33.3240   52.2870 O   0  0  0  0  0  0  0  0  0  0  0  0
   51.4870   32.0680   50.9540 C   0  0  0  0  0  0  0  0  0  0  0  0
   51.0200   32.6890   49.8030 O   0  0  0  0  0  0  0  0  0  0  0  0
   52.5120   31.1190   50.8670 C   0  0  0  0  0  0  0  0  0  0  0  0
   57.1880   31.6120   51.3030 C   0  0  0  0  0  0  0  0  0  0  0  0
   57.9250   32.3760   50.3940 C   0  0  0  0  0  0  0  0  0  0  0  0
   58.6130   31.5980   46.2490 C   0  0  0  0  0  0  0  0  0  0  0  0
   58.1180   30.1530   46.4450 C   0  0  0  0  0  0  0  0  0  0  0  0
   58.0307   27.8136   44.6914 H   0  0  0  0  0  0  0  0  0  0  0  0
   58.2062   29.4824   44.0502 H   0  0  0  0  0  0  0  0  0  0  0  0
   59.6146   28.3675   44.0502 H   0  0  0  0  0  0  0  0  0  0  0  0
   61.1570   28.7504   46.0798 H   0  0  0  0  0  0  0  0  0  0  0  0
   60.6949   30.1173   44.9861 H   0  0  0  0  0  0  0  0  0  0  0  0
   60.4676   30.1541   48.0342 H   0  0  0  0  0  0  0  0  0  0  0  0
   61.8057   30.8945   47.0725 H   0  0  0  0  0  0  0  0  0  0  0  0
   59.9649   29.9294   49.1489 H   0  0  0  0  0  0  0  0  0  0  0  0
   58.6433   28.5664   50.7631 H   0  0  0  0  0  0  0  0  0  0  0  0
   54.3799   29.3365   50.8778 H   0  0  0  0  0  0  0  0  0  0  0  0
   53.6810   28.5084   52.3383 H   0  0  0  0  0  0  0  0  0  0  0  0
   52.7960   30.3192   54.1811 H   0  0  0  0  0  0  0  0  0  0  0  0
   50.9856   32.0256   54.3336 H   0  0  0  0  0  0  0  0  0  0  0  0
   52.9359   30.8607   49.8854 H   0  0  0  0  0  0  0  0  0  0  0  0
   56.4310   32.0941   51.9391 H   0  0  0  0  0  0  0  0  0  0  0  0
   57.7335   33.4554   50.3039 H   0  0  0  0  0  0  0  0  0  0  0  0
   57.8782   32.2852   46.6938 H   0  0  0  0  0  0  0  0  0  0  0  0
   58.7254   31.7673   45.1679 H   0  0  0  0  0  0  0  0  0  0  0  0
   57.9574   29.9773   47.5189 H   0  0  0  0  0  0  0  0  0  0  0  0
   57.1852   30.0379   45.8735 H   0  0  0  0  0  0  0  0  0  0  0  0
  1  2  1  0
  2  3  1  0
  3  4  1  0
  4  5  1  0
  5  6  1  0
  6  7  2  0
  6  8  2  0
  6  9  1  0
  9 10  2  0
 10 11  1  0
 11 12  2  0
 12 13  1  0
 13 14  1  0
 14 15  2  0
 14 16  1  0
 16 17  1  0
 17 18  2  0
 18 19  1  0
 19 20  2  0
 20 21  1  0
 20 22  1  0
 22 23  1  0
 22 24  2  0
 12 25  1  0
 25 26  2  0
  5 27  1  0
 27 28  1  0
 28  2  1  0
 26  9  1  0
 24 17  1  0
  1 29  1  0
  1 30  1  0
  1 31  1  0
  3 32  1  0
  3 33  1  0
  4 34  1  0
  4 35  1  0
 10 36  1  0
 11 37  1  0
 16 38  1  0
 16 39  1  0
 18 40  1  0
 19 41  1  0
 24 42  1  0
 25 43  1  0
 26 44  1  0
 27 45  1  0
 27 46  1  0
 28 47  1  0
 28 48  1  0
M  CHG  3  13  -1  21  -1  23  -1
M  END
>  <UniqueID>  (72) 
68

>  <SMILES>  (72) 
CN1CCN(S(=O)(=O)c2ccc([N-]C(=O)Cc3ccc([O-])c([O-])c3)cc2)CC1

>  <Energy>  (72) 
62.12410262241421

>  <Genealogy>  (72) 
CN1CCN(S(=O)(=O)c2ccc([N-]C(=O)Cc3ccc([O-])c([O-])c3)cc2)CC1 (protonated)
CN1CCN(S(=O)(=O)c2ccc([N-]C(=O)Cc3ccc([O-])c([O-])c3)cc2)CC1 (3D coordinates assigned)
CN1CCN(S(=O)(=O)c2ccc([N-]C(=O)Cc3ccc([O-])c([O-])c3)cc2)CC1 (nonaromatic ring conformer: 62.12410262241421 kcal/mol)

>  <smiles>  (72) 
CN1CCN(S(=O)(=O)c2ccc(NC(=O)Cc3ccc(O)c(O)c3)cc2)CC1

>  <score_type>  (72) 
oracle

>  <origin>  (72) 
adg

>  <m_score__min__energy>  (72) 
-18.32

>  <m_primary>  (72) 
energy

$$$$
72:0
     RDKit          3D

 54 57  0  0  0  0  0  0  0  0999 V2000
   56.7860   27.4250   53.5850 H   0  0  0  0  0  0  0  0  0  0  0  0
   56.2510   26.7180   54.0330 O   0  0  0  0  0  0  0  0  0  0  0  0
   55.0390   27.3080   54.4160 C   0  0  0  0  0  0  0  0  0  0  0  0
   54.9656   27.3033   55.5135 H   0  0  0  0  0  0  0  0  0  0  0  0
   54.2104   26.7332   53.9767 H   0  0  0  0  0  0  0  0  0  0  0  0
   54.9590   28.7620   53.9090 C   0  0  1  0  0  0  0  0  0  0  0  0
   54.2647   29.2849   54.5832 H   0  0  0  0  0  0  0  0  0  0  0  0
   56.2640   29.4350   53.9850 N   0  0  0  0  0  0  0  0  0  0  0  0
   56.8460   30.1400   53.0580 C   0  0  0  0  0  0  0  0  0  0  0  0
   56.8160   31.4930   53.1390 N   0  0  0  0  0  0  0  0  0  0  0  0
   57.4100   32.2790   52.2030 C   0  0  0  0  0  0  0  0  0  0  0  0
   57.3580   33.7010   52.3680 N   0  0  0  0  0  0  0  0  0  0  0  0
   58.1960   34.2800   52.1390 H   0  0  0  0  0  0  0  0  0  0  0  0
   56.4990   34.1980   52.6880 H   0  0  0  0  0  0  0  0  0  0  0  0
   58.0680   31.6810   51.1060 C   0  0  0  0  0  0  0  0  0  0  0  0
   58.0880   30.2750   51.0450 C   0  0  0  0  0  0  0  0  0  0  0  0
   57.4880   29.5460   52.0190 N   0  0  0  0  0  0  0  0  0  0  0  0
   58.8160   29.5630   49.9480 C   0  0  0  0  0  0  0  0  0  0  0  0
   58.3527   28.5789   49.7838 H   0  0  0  0  0  0  0  0  0  0  0  0
   59.8696   29.4390   50.2388 H   0  0  0  0  0  0  0  0  0  0  0  0
   58.7490   30.3710   48.6600 C   0  0  0  0  0  0  0  0  0  0  0  0
   57.7063   30.4207   48.3132 H   0  0  0  0  0  0  0  0  0  0  0  0
   59.3703   29.8862   47.8926 H   0  0  0  0  0  0  0  0  0  0  0  0
   59.2480   31.7300   48.9030 N   0  0  0  0  0  0  0  0  0  0  0  0
   60.1550   32.3540   47.9720 C   0  0  0  0  0  0  0  0  0  0  0  0
   61.3910   32.1150   48.0610 O   0  0  0  0  0  0  0  0  0  0  0  0
   59.6770   33.2740   46.9150 C   0  0  0  0  0  0  0  0  0  0  0  0
   58.6680   32.8630   46.0260 C   0  0  0  0  0  0  0  0  0  0  0  0
   58.2296   31.8588   46.1225 H   0  0  0  0  0  0  0  0  0  0  0  0
   58.2190   33.7240   45.0200 C   0  0  0  0  0  0  0  0  0  0  0  0
   57.4218   33.3994   44.3351 H   0  0  0  0  0  0  0  0  0  0  0  0
   58.7810   34.9960   44.8830 C   0  0  0  0  0  0  0  0  0  0  0  0
   58.4247   35.6731   44.0927 H   0  0  0  0  0  0  0  0  0  0  0  0
   59.7960   35.4070   45.7510 C   0  0  0  0  0  0  0  0  0  0  0  0
   60.2405   36.4072   45.6410 H   0  0  0  0  0  0  0  0  0  0  0  0
   60.2480   34.5500   46.7590 C   0  0  0  0  0  0  0  0  0  0  0  0
   61.0540   34.8752   47.4333 H   0  0  0  0  0  0  0  0  0  0  0  0
   58.7510   32.5190   50.0410 C   0  0  0  0  0  0  0  0  0  0  0  0
   58.0291   33.2581   49.6635 H   0  0  0  0  0  0  0  0  0  0  0  0
   59.6247   32.9925   50.5127 H   0  0  0  0  0  0  0  0  0  0  0  0
   54.3690   28.8630   52.4850 C   0  0  0  0  0  0  0  0  0  0  0  0
   55.1893   29.0309   51.7716 H   0  0  0  0  0  0  0  0  0  0  0  0
   53.8401   27.9231   52.2683 H   0  0  0  0  0  0  0  0  0  0  0  0
   53.3790   29.9940   52.3640 C   0  0  0  0  0  0  0  0  0  0  0  0
   52.4320   30.2150   53.3780 C   0  0  0  0  0  0  0  0  0  0  0  0
   52.4255   29.5725   54.2708 H   0  0  0  0  0  0  0  0  0  0  0  0
   51.4980   31.2480   53.2570 C   0  0  0  0  0  0  0  0  0  0  0  0
   50.7612   31.4185   54.0557 H   0  0  0  0  0  0  0  0  0  0  0  0
   51.4990   32.0650   52.1220 C   0  0  0  0  0  0  0  0  0  0  0  0
   50.5690   33.0910   52.0040 O   0  0  0  0  0  0  0  0  0  0  0  0
   52.4340   31.8460   51.1060 C   0  0  0  0  0  0  0  0  0  0  0  0
   52.4329   32.4870   50.2121 H   0  0  0  0  0  0  0  0  0  0  0  0
   53.3700   30.8150   51.2230 C   0  0  0  0  0  0  0  0  0  0  0  0
   54.1021   30.6453   50.4197 H   0  0  0  0  0  0  0  0  0  0  0  0
  1  2  1  0
  2  3  1  0
  3  4  1  0
  3  5  1  0
  3  6  1  0
  6  7  1  1
  6  8  1  0
  8  9  2  0
  9 10  1  0
 10 11  2  0
 11 12  1  0
 12 13  1  0
 12 14  1  0
 11 15  1  0
 15 16  2  0
 16 17  1  0
 16 18  1  0
 18 19  1  0
 18 20  1  0
 18 21  1  0
 21 22  1  0
 21 23  1  0
 21 24  1  0
 24 25  1  0
 25 26  2  0
 25 27  1  0
 27 28  2  0
 28 29  1  0
 28 30  1  0
 30 31  1  0
 30 32  2  0
 32 33  1  0
 32 34  1  0
 34 35  1  0
 34 36  2  0
 36 37  1  0
 24 38  1  0
 38 39  1  0
 38 40  1  0
  6 41  1  0
 41 42  1  0
 41 43  1  0
 41 44  1  0
 44 45  2  0
 45 46  1  0
 45 47  1  0
 47 48  1  0
 47 49  2  0
 49 50  1  0
 49 51  1  0
 51 52  1  0
 51 53  2  0
 53 54  1  0
 17  9  1  0
 36 27  1  0
 53 44  1  0
 38 15  1  0
M  CHG  2  17  -1  50  -1
M  END
>  <UniqueID>  (73) 
69

>  <SMILES>  (73) 
Nc1n/c(=N/[C@H](CO)Cc2ccc([O-])cc2)[n-]c2c1CN(C(=O)c1ccccc1)CC2

>  <Energy>  (73) 
64.02583023473457

>  <Genealogy>  (73) 
Nc1nc(=NC(CO)Cc2ccc([O-])cc2)[n-]c2c1CN(C(=O)c1ccccc1)CC2 (protonated)
Nc1nc(=N[C@H](CO)Cc2ccc([O-])cc2)[n-]c2c1CN(C(=O)c1ccccc1)CC2 (chirality)
Nc1n/c(=N/[C@H](CO)Cc2ccc([O-])cc2)[n-]c2c1CN(C(=O)c1ccccc1)CC2 (cis-trans isomerization)
Nc1n/c(=N/[C@H](CO)Cc2ccc([O-])cc2)[n-]c2c1CN(C(=O)c1ccccc1)CC2 (3D coordinates assigned)
Nc1n/c(=N/[C@H](CO)Cc2ccc([O-])cc2)[n-]c2c1CN(C(=O)c1ccccc1)CC2 (nonaromatic ring conformer: 64.02583023473457 kcal/mol)

>  <smiles>  (73) 
Nc1nc(=NC(CO)Cc2ccc(O)cc2)[nH]c2c1CN(C(=O)c1ccccc1)CC2

>  <score_type>  (73) 
oracle

>  <origin>  (73) 
adg

>  <m_score__min__energy>  (73) 
-13.08

>  <m_primary>  (73) 
energy

$$$$
73:0
     RDKit          3D

 38 40  0  0  0  0  0  0  0  0999 V2000
   56.4050   22.7190   47.6200 C   0  0  0  0  0  0  0  0  0  0  0  0
   56.4860   23.9600   47.1280 C   0  0  0  0  0  0  0  0  0  0  0  0
   55.5250   24.4280   46.2170 C   0  0  0  0  0  0  0  0  0  0  0  0
   55.6080   25.7250   45.7030 C   0  0  0  0  0  0  0  0  0  0  0  0
   56.6560   26.5890   46.0880 C   0  0  0  0  0  0  0  0  0  0  0  0
   56.7370   27.8430   45.5900 C   0  0  0  0  0  0  0  0  0  0  0  0
   55.6530   28.5790   45.2460 N   0  0  0  0  0  0  0  0  0  0  0  0
   56.1800   29.7330   44.8100 C   0  0  0  0  0  0  0  0  0  0  0  0
   55.4860   30.6890   44.3730 O   0  0  0  0  0  0  0  0  0  0  0  0
   57.5570   29.6900   44.8960 C   0  0  0  0  0  0  0  0  0  0  0  0
   58.4520   30.6340   44.5660 C   0  0  0  0  0  0  0  0  0  0  0  0
   58.5150   31.9670   45.2000 C   0  0  0  0  0  0  0  0  0  0  0  0
   57.9160   33.0380   44.5200 C   0  0  0  0  0  0  0  0  0  0  0  0
   57.9050   34.3170   45.0770 C   0  0  0  0  0  0  0  0  0  0  0  0
   58.4980   34.5410   46.3190 C   0  0  0  0  0  0  0  0  0  0  0  0
   59.1190   33.4930   46.9990 C   0  0  0  0  0  0  0  0  0  0  0  0
   59.1560   32.1970   46.4480 C   0  0  0  0  0  0  0  0  0  0  0  0
   59.8800   31.1280   47.1840 C   0  0  0  0  0  0  0  0  0  0  0  0
   61.0370   30.7850   46.8130 O   0  0  0  0  0  0  0  0  0  0  0  0
   59.2790   30.4850   48.2710 O   0  0  0  0  0  0  0  0  0  0  0  0
   58.9510   29.1010   48.2610 C   0  0  0  0  0  0  0  0  0  0  0  0
   57.9110   28.4880   45.3850 N   0  0  0  0  0  0  0  0  0  0  0  0
   57.6160   26.1090   47.0040 C   0  0  0  0  0  0  0  0  0  0  0  0
   57.5310   24.8110   47.5170 C   0  0  0  0  0  0  0  0  0  0  0  0
   57.1615   22.3596   48.3331 H   0  0  0  0  0  0  0  0  0  0  0  0
   55.5819   22.0577   47.3115 H   0  0  0  0  0  0  0  0  0  0  0  0
   54.7011   23.7690   45.9058 H   0  0  0  0  0  0  0  0  0  0  0  0
   54.8478   26.0768   44.9900 H   0  0  0  0  0  0  0  0  0  0  0  0
   59.1820   30.4015   43.7767 H   0  0  0  0  0  0  0  0  0  0  0  0
   57.4505   32.8676   43.5380 H   0  0  0  0  0  0  0  0  0  0  0  0
   57.4287   35.1484   44.5367 H   0  0  0  0  0  0  0  0  0  0  0  0
   58.4761   35.5468   46.7638 H   0  0  0  0  0  0  0  0  0  0  0  0
   59.5854   33.6809   47.9773 H   0  0  0  0  0  0  0  0  0  0  0  0
   58.8648   28.7371   49.2955 H   0  0  0  0  0  0  0  0  0  0  0  0
   57.9933   28.9549   47.7399 H   0  0  0  0  0  0  0  0  0  0  0  0
   59.7412   28.5407   47.7399 H   0  0  0  0  0  0  0  0  0  0  0  0
   58.4417   26.7642   47.3185 H   0  0  0  0  0  0  0  0  0  0  0  0
   58.2887   24.4548   48.2304 H   0  0  0  0  0  0  0  0  0  0  0  0
  1  2  2  0
  2  3  1  0
  3  4  2  0
  4  5  1  0
  5  6  2  3
  6  7  1  0
  7  8  1  0
  8  9  2  0
  8 10  1  0
 10 11  2  3
 11 12  1  0
 12 13  2  0
 13 14  1  0
 14 15  2  0
 15 16  1  0
 16 17  2  0
 17 18  1  0
 18 19  2  0
 18 20  1  0
 20 21  1  0
 10 22  1  0
  5 23  1  0
 23 24  2  0
 24  2  1  0
 22  6  1  0
 17 12  1  0
  1 25  1  0
  1 26  1  0
  3 27  1  0
  4 28  1  0
 11 29  1  0
 13 30  1  0
 14 31  1  0
 15 32  1  0
 16 33  1  0
 21 34  1  0
 21 35  1  0
 21 36  1  0
 23 37  1  0
 24 38  1  0
M  CHG  2   7  -1  22  -1
M  END
>  <UniqueID>  (74) 
70

>  <SMILES>  (74) 
C=c1ccc(=c2[n-]c(=O)c(=Cc3ccccc3C(=O)OC)[n-]2)cc1

>  <Energy>  (74) 
84.26100965037377

>  <Genealogy>  (74) 
C=c1ccc(=c2[n-]c(=O)c(=Cc3ccccc3C(=O)OC)[n-]2)cc1 (protonated)
C=c1ccc(=c2[n-]c(=O)c(=Cc3ccccc3C(=O)OC)[n-]2)cc1 (3D coordinates assigned)
C=c1ccc(=c2[n-]c(=O)c(=Cc3ccccc3C(=O)OC)[n-]2)cc1 (optimized conformer: 84.26100965037377 kcal/mol)

>  <smiles>  (74) 
C=c1ccc(=c2[nH]c(=O)c(=Cc3ccccc3C(=O)OC)[nH]2)cc1

>  <score_type>  (74) 
oracle

>  <origin>  (74) 
adg

>  <m_score__min__energy>  (74) 
-11.01

>  <m_primary>  (74) 
energy

$$$$
74:0
     RDKit          3D

 54 56  0  0  1  0  0  0  0  0999 V2000
   61.7240   26.1650   51.6730 C   0  0  0  0  0  0  0  0  0  0  0  0
   62.6880   25.2750   52.4190 C   0  0  0  0  0  0  0  0  0  0  0  0
   64.0830   25.4380   51.9190 C   0  0  0  0  0  0  0  0  0  0  0  0
   64.4870   24.8400   50.8870 O   0  0  0  0  0  0  0  0  0  0  0  0
   64.9430   26.3080   52.6670 N   0  0  0  0  0  0  0  0  0  0  0  0
   65.7480   27.0770   52.0250 C   0  0  0  0  0  0  0  0  0  0  0  0
   65.7460   28.4510   52.1570 C   0  0  0  0  0  0  0  0  0  0  0  0
   66.6780   29.1420   51.3920 C   0  0  0  0  0  0  0  0  0  0  0  0
   66.7360   30.5440   51.4720 O   0  0  0  0  0  0  0  0  0  0  0  0
   65.7160   31.2340   50.8470 C   0  0  0  0  0  0  0  0  0  0  0  0
   64.3990   30.8290   50.9060 C   0  0  0  0  0  0  0  0  0  0  0  0
   63.3890   31.5540   50.2590 C   0  0  0  0  0  0  0  0  0  0  0  0
   63.6450   32.6880   49.5400 C   0  0  0  0  0  0  0  0  0  0  0  0
   62.7010   33.4800   48.8650 N   0  0  0  0  0  0  0  0  0  0  0  0
   61.7140   33.0480   47.9590 C   0  0  0  0  0  0  0  0  0  0  0  0
   61.6230   31.8500   47.6940 O   0  0  0  0  0  0  0  0  0  0  0  0
   60.8390   33.9600   47.3580 N   0  0  0  0  0  0  0  0  0  0  0  0
   59.8040   33.6930   46.4440 C   0  0  0  0  0  0  0  0  0  0  0  0
   59.1920   34.7730   45.7840 C   0  0  0  0  0  0  0  0  0  0  0  0
   58.1730   34.5870   44.8800 C   0  0  0  0  0  0  0  0  0  0  0  0
   57.6920   33.3440   44.5680 C   0  0  0  0  0  0  0  0  0  0  0  0
   58.2800   32.2620   45.2070 C   0  0  0  0  0  0  0  0  0  0  0  0
   57.7610   30.9470   44.8670 C   0  0  0  0  0  0  0  0  0  0  0  0
   56.5170   30.7640   44.8440 O   0  0  0  0  0  0  0  0  0  0  0  0
   58.5790   29.8290   44.5540 N   0  0  0  0  0  0  0  0  0  0  0  0
   58.0000   28.5470   44.2250 C   0  0  0  0  0  0  0  0  0  0  0  0
   59.3080   32.4590   46.1170 C   0  0  0  0  0  0  0  0  0  0  0  0
   64.9950   33.0770   49.4970 C   0  0  0  0  0  0  0  0  0  0  0  0
   65.9840   32.3760   50.1240 C   0  0  0  0  0  0  0  0  0  0  0  0
   67.2660   32.7820   50.0580 F   0  0  0  0  0  0  0  0  0  0  0  0
   67.5300   28.4890   50.5680 N   0  0  0  0  0  0  0  0  0  0  0  0
   67.5100   27.1490   50.4580 C   0  0  0  0  0  0  0  0  0  0  0  0
   66.6210   26.4480   51.1860 N   0  0  0  0  0  0  0  0  0  0  0  0
   61.1132   26.7289   52.3933 H   0  0  0  0  0  0  0  0  0  0  0  0
   62.2874   26.8673   51.0410 H   0  0  0  0  0  0  0  0  0  0  0  0
   61.0689   25.5475   51.0410 H   0  0  0  0  0  0  0  0  0  0  0  0
   62.6591   25.5338   53.4877 H   0  0  0  0  0  0  0  0  0  0  0  0
   62.3851   24.2295   52.2602 H   0  0  0  0  0  0  0  0  0  0  0  0
   65.0466   28.9694   52.8294 H   0  0  0  0  0  0  0  0  0  0  0  0
   64.1369   29.9219   51.4702 H   0  0  0  0  0  0  0  0  0  0  0  0
   62.3512   31.1970   50.3326 H   0  0  0  0  0  0  0  0  0  0  0  0
   62.7330   34.5210   49.0550 H   0  0  0  0  0  0  0  0  0  0  0  0
   60.9690   34.9840   47.6250 H   0  0  0  0  0  0  0  0  0  0  0  0
   59.5381   35.7952   45.9968 H   0  0  0  0  0  0  0  0  0  0  0  0
   57.7293   35.4667   44.3909 H   0  0  0  0  0  0  0  0  0  0  0  0
   56.8758   33.2091   43.8431 H   0  0  0  0  0  0  0  0  0  0  0  0
   59.6170   29.9080   44.5540 H   0  0  0  0  0  0  0  0  0  0  0  0
   57.7558   28.0064   45.1513 H   0  0  0  0  0  0  0  0  0  0  0  0
   57.0831   28.6989   43.6366 H   0  0  0  0  0  0  0  0  0  0  0  0
   58.7202   27.9596   43.6366 H   0  0  0  0  0  0  0  0  0  0  0  0
   59.7490   31.5760   46.6026 H   0  0  0  0  0  0  0  0  0  0  0  0
   65.2654   33.9832   48.9352 H   0  0  0  0  0  0  0  0  0  0  0  0
   68.2095   26.6336   49.7834 H   0  0  0  0  0  0  0  0  0  0  0  0
   66.6160   25.3980   51.0900 H   0  0  0  0  0  0  0  0  0  0  0  0
  1  2  1  0
  2  3  1  0
  3  4  2  0
  3  5  1  0
  5  6  2  0
  6  7  1  0
  7  8  2  0
  8  9  1  0
  9 10  1  0
 10 11  2  0
 11 12  1  0
 12 13  2  0
 13 14  1  0
 14 15  1  0
 15 16  2  0
 15 17  1  0
 17 18  1  0
 18 19  2  0
 19 20  1  0
 20 21  2  0
 21 22  1  0
 22 23  1  0
 23 24  2  0
 23 25  1  0
 25 26  1  0
 22 27  2  0
 13 28  1  0
 28 29  2  0
 29 30  1  0
  8 31  1  0
 31 32  2  0
 32 33  1  0
 33  6  1  0
 29 10  1  0
 27 18  1  0
  1 34  1  0
  1 35  1  0
  1 36  1  0
  2 37  1  0
  2 38  1  0
  7 39  1  0
 11 40  1  0
 12 41  1  0
 14 42  1  0
 17 43  1  0
 19 44  1  0
 20 45  1  0
 21 46  1  0
 25 47  1  0
 26 48  1  0
 26 49  1  0
 26 50  1  0
 27 51  1  0
 28 52  1  0
 32 53  1  0
 33 54  1  0
M  END
>  <smiles>  (75) 
CCC(=O)N=c1cc(Oc2ccc(NC(=O)Nc3cccc(C(=O)NC)c3)cc2F)nc[nH]1

>  <score_type>  (75) 
oracle

>  <origin>  (75) 
adg

>  <m_score__min__energy>  (75) 
-8.4000000000000004

>  <m_primary>  (75) 
energy

$$$$
75:0
     RDKit          3D

 41 43  0  0  0  0  0  0  0  0999 V2000
   59.3470   27.6260   49.1210 H   0  0  0  0  0  0  0  0  0  0  0  0
   59.6190   28.4820   49.5820 O   0  0  0  0  0  0  0  0  0  0  0  0
   60.2400   29.5610   48.9480 C   0  0  0  0  0  0  0  0  0  0  0  0
   60.3760   30.7450   49.6800 C   0  0  0  0  0  0  0  0  0  0  0  0
   60.0136   30.7866   50.7178 H   0  0  0  0  0  0  0  0  0  0  0  0
   60.9650   31.8730   49.1110 C   0  0  0  0  0  0  0  0  0  0  0  0
   61.0649   32.7944   49.7035 H   0  0  0  0  0  0  0  0  0  0  0  0
   61.4290   31.8420   47.7950 C   0  0  0  0  0  0  0  0  0  0  0  0
   62.0000   33.0080   47.2630 O   0  0  0  0  0  0  0  0  0  0  0  0
   63.3920   33.1900   47.0330 C   0  0  0  0  0  0  0  0  0  0  0  0
   63.9170   33.2586   47.9972 H   0  0  0  0  0  0  0  0  0  0  0  0
   63.7841   32.3355   46.4620 H   0  0  0  0  0  0  0  0  0  0  0  0
   63.5512   34.1166   46.4620 H   0  0  0  0  0  0  0  0  0  0  0  0
   61.3090   30.6530   47.0520 C   0  0  0  0  0  0  0  0  0  0  0  0
   61.6765   30.6222   46.0156 H   0  0  0  0  0  0  0  0  0  0  0  0
   60.7260   29.5030   47.6150 C   0  0  0  0  0  0  0  0  0  0  0  0
   60.5850   28.2800   46.7350 C   0  0  0  0  0  0  0  0  0  0  0  0
   61.0543   28.4781   45.7600 H   0  0  0  0  0  0  0  0  0  0  0  0
   61.0792   27.4276   47.2241 H   0  0  0  0  0  0  0  0  0  0  0  0
   59.1250   27.9500   46.5280 C   0  0  0  0  0  0  0  0  0  0  0  0
   58.3260   28.8040   45.7570 C   0  0  0  0  0  0  0  0  0  0  0  0
   58.7455   29.7501   45.3843 H   0  0  0  0  0  0  0  0  0  0  0  0
   56.9990   28.4690   45.4540 C   0  0  0  0  0  0  0  0  0  0  0  0
   56.1970   29.3460   44.5680 C   0  0  0  0  0  0  0  0  0  0  0  0
   54.9550   29.1630   44.4740 O   0  0  0  0  0  0  0  0  0  0  0  0
   56.7820   30.4530   43.8580 N   0  0  0  0  0  0  0  0  0  0  0  0
   57.3450   31.5010   44.3930 C   0  0  0  0  0  0  0  0  0  0  0  0
   57.4000   31.6570   45.7470 N   0  0  0  0  0  0  0  0  0  0  0  0
   57.9810   32.7400   46.3270 C   0  0  0  0  0  0  0  0  0  0  0  0
   57.9995   32.8336   47.4229 H   0  0  0  0  0  0  0  0  0  0  0  0
   58.5540   33.7330   45.5320 C   0  0  0  0  0  0  0  0  0  0  0  0
   59.0227   34.6141   45.9945 H   0  0  0  0  0  0  0  0  0  0  0  0
   58.5260   33.5960   44.1430 C   0  0  0  0  0  0  0  0  0  0  0  0
   58.9766   34.3697   43.5040 H   0  0  0  0  0  0  0  0  0  0  0  0
   57.9250   32.4750   43.5660 C   0  0  0  0  0  0  0  0  0  0  0  0
   57.9000   32.3380   42.1810 O   0  0  0  0  0  0  0  0  0  0  0  0
   56.4660   27.2890   45.9980 C   0  0  0  0  0  0  0  0  0  0  0  0
   55.1500   26.9170   45.7460 O   0  0  0  0  0  0  0  0  0  0  0  0
   57.2470   26.4810   46.7640 N   0  0  0  0  0  0  0  0  0  0  0  0
   58.5470   26.7670   47.0300 C   0  0  0  0  0  0  0  0  0  0  0  0
   59.2240   25.9630   47.7250 O   0  0  0  0  0  0  0  0  0  0  0  0
  1  2  1  0
  2  3  1  0
  3  4  2  0
  4  5  1  0
  4  6  1  0
  6  7  1  0
  6  8  2  0
  8  9  1  0
  9 10  1  0
 10 11  1  0
 10 12  1  0
 10 13  1  0
  8 14  1  0
 14 15  1  0
 14 16  2  0
 16 17  1  0
 17 18  1  0
 17 19  1  0
 17 20  1  0
 20 21  2  0
 21 22  1  0
 21 23  1  0
 23 24  1  0
 24 25  2  0
 24 26  1  0
 26 27  2  0
 27 28  1  0
 28 29  1  0
 29 30  1  0
 29 31  2  0
 31 32  1  0
 31 33  1  0
 33 34  1  0
 33 35  2  0
 35 36  1  0
 23 37  2  0
 37 38  1  0
 37 39  1  0
 39 40  1  0
 40 41  2  0
 16  3  1  0
 40 20  1  0
 35 27  1  0
M  CHG  4  28  -1  36  -1  38  -1  39  -1
M  END
>  <UniqueID>  (76) 
71

>  <SMILES>  (76) 
COc1ccc(O)c(Cc2cc(C(=O)/N=c3\[n-]cccc3[O-])c([O-])[n-]c2=O)c1

>  <Energy>  (76) 
53.650849642068316

>  <Genealogy>  (76) 
COc1ccc(O)c(Cc2cc(C(=O)N=c3[n-]cccc3[O-])c([O-])[n-]c2=O)c1 (protonated)
COc1ccc(O)c(Cc2cc(C(=O)/N=c3\[n-]cccc3[O-])c([O-])[n-]c2=O)c1 (cis-trans isomerization)
COc1ccc(O)c(Cc2cc(C(=O)/N=c3\[n-]cccc3[O-])c([O-])[n-]c2=O)c1 (3D coordinates assigned)
COc1ccc(O)c(Cc2cc(C(=O)/N=c3\[n-]cccc3[O-])c([O-])[n-]c2=O)c1 (optimized conformer: 53.650849642068316 kcal/mol)

>  <smiles>  (76) 
COc1ccc(O)c(Cc2cc(C(=O)N=c3[nH]cccc3O)c(O)[nH]c2=O)c1

>  <score_type>  (76) 
oracle

>  <origin>  (76) 
adg

>  <m_score__min__energy>  (76) 
-17.039999999999999

>  <m_primary>  (76) 
energy

$$$$
76:0
     RDKit          3D

 47 50  0  0  0  0  0  0  0  0999 V2000
   57.2104   30.3108   42.3796 H   0  0  0  0  0  0  0  0  0  0  0  0
   57.0280   31.2680   42.8900 C   0  0  0  0  0  0  0  0  0  0  0  0
   56.4868   32.0733   42.3717 H   0  0  0  0  0  0  0  0  0  0  0  0
   57.4650   31.4530   44.1430 C   0  0  0  0  0  0  0  0  0  0  0  0
   57.2020   32.6580   44.7040 N   0  0  0  0  0  0  0  0  0  0  0  0
   57.7570   33.0600   45.8690 C   0  0  0  0  0  0  0  0  0  0  0  0
   57.4480   34.1920   46.3280 O   0  0  0  0  0  0  0  0  0  0  0  0
   58.6590   32.2600   46.5150 N   0  0  0  0  0  0  0  0  0  0  0  0
   59.3440   32.7430   47.7330 C   0  0  0  0  0  0  0  0  0  0  0  0
   58.9646   33.7431   47.9897 H   0  0  0  0  0  0  0  0  0  0  0  0
   59.1457   32.0406   48.5560 H   0  0  0  0  0  0  0  0  0  0  0  0
   60.8320   32.8200   47.5040 C   0  0  0  0  0  0  0  0  0  0  0  0
   61.3620   33.7210   46.5650 C   0  0  0  0  0  0  0  0  0  0  0  0
   60.6869   34.3584   45.9751 H   0  0  0  0  0  0  0  0  0  0  0  0
   62.7460   33.8100   46.3780 C   0  0  0  0  0  0  0  0  0  0  0  0
   63.1559   34.5135   45.6384 H   0  0  0  0  0  0  0  0  0  0  0  0
   63.6080   33.0070   47.1290 C   0  0  0  0  0  0  0  0  0  0  0  0
   64.6956   33.0789   46.9808 H   0  0  0  0  0  0  0  0  0  0  0  0
   63.0880   32.1120   48.0690 C   0  0  0  0  0  0  0  0  0  0  0  0
   63.7668   31.4799   48.6603 H   0  0  0  0  0  0  0  0  0  0  0  0
   61.7050   32.0200   48.2580 C   0  0  0  0  0  0  0  0  0  0  0  0
   61.2996   31.3174   49.0010 H   0  0  0  0  0  0  0  0  0  0  0  0
   58.9410   31.0110   46.0160 C   0  0  0  0  0  0  0  0  0  0  0  0
   59.7660   30.2730   46.6260 O   0  0  0  0  0  0  0  0  0  0  0  0
   58.2870   30.5260   44.8510 C   0  0  0  0  0  0  0  0  0  0  0  0
   58.4670   29.2230   44.4970 C   0  0  0  0  0  0  0  0  0  0  0  0
   59.3022   29.0035   43.8156 H   0  0  0  0  0  0  0  0  0  0  0  0
   57.6490   28.0780   44.9400 C   0  0  0  0  0  0  0  0  0  0  0  0
   58.1440   26.8800   45.1710 O   0  0  0  0  0  0  0  0  0  0  0  0
   57.1730   26.0980   45.5960 C   0  0  0  0  0  0  0  0  0  0  0  0
   57.3600   24.7120   45.9100 N   0  0  0  0  0  0  0  0  0  0  0  0
   57.6010   24.4700   46.8970 H   0  0  0  0  0  0  0  0  0  0  0  0
   57.2330   23.6430   44.9590 C   0  0  0  0  0  0  0  0  0  0  0  0
   56.2970   23.7520   43.9190 C   0  0  0  0  0  0  0  0  0  0  0  0
   55.6527   24.6412   43.8538 H   0  0  0  0  0  0  0  0  0  0  0  0
   56.1790   22.7360   42.9650 C   0  0  0  0  0  0  0  0  0  0  0  0
   55.4345   22.8220   42.1598 H   0  0  0  0  0  0  0  0  0  0  0  0
   57.0060   21.6120   43.0340 C   0  0  0  0  0  0  0  0  0  0  0  0
   56.9071   20.8101   42.2876 H   0  0  0  0  0  0  0  0  0  0  0  0
   57.9590   21.5060   44.0510 C   0  0  0  0  0  0  0  0  0  0  0  0
   58.6145   20.6241   44.1008 H   0  0  0  0  0  0  0  0  0  0  0  0
   58.0790   22.5210   45.0050 C   0  0  0  0  0  0  0  0  0  0  0  0
   58.8394   22.4413   45.7958 H   0  0  0  0  0  0  0  0  0  0  0  0
   55.9870   26.8090   45.6440 C   0  0  0  0  0  0  0  0  0  0  0  0
   54.7280   26.3370   45.9940 O   0  0  0  0  0  0  0  0  0  0  0  0
   56.2970   28.0820   45.2390 C   0  0  0  0  0  0  0  0  0  0  0  0
   55.4220   29.1590   45.1660 O   0  0  0  0  0  0  0  0  0  0  0  0
  1  2  1  0
  2  3  1  0
  2  4  2  0
  4  5  1  0
  5  6  1  0
  6  7  2  0
  6  8  1  0
  8  9  1  0
  9 10  1  0
  9 11  1  0
  9 12  1  0
 12 13  2  0
 13 14  1  0
 13 15  1  0
 15 16  1  0
 15 17  2  0
 17 18  1  0
 17 19  1  0
 19 20  1  0
 19 21  2  0
 21 22  1  0
  8 23  1  0
 23 24  2  0
 23 25  1  0
 25 26  2  0
 26 27  1  0
 26 28  1  0
 28 29  1  0
 29 30  1  0
 30 31  1  0
 31 32  1  0
 31 33  1  0
 33 34  2  0
 34 35  1  0
 34 36  1  0
 36 37  1  0
 36 38  2  0
 38 39  1  0
 38 40  1  0
 40 41  1  0
 40 42  2  0
 42 43  1  0
 30 44  2  0
 44 45  1  0
 44 46  1  0
 46 47  1  0
 25  4  1  0
 46 28  2  0
 21 12  1  0
 42 33  1  0
M  CHG  3   5  -1  45  -1  47  -1
M  END
>  <UniqueID>  (77) 
72

>  <SMILES>  (77) 
C=c1[n-]c(=O)n(Cc2ccccc2)c(=O)/c1=C/c1oc(Nc2ccccc2)c([O-])c1[O-]

>  <Energy>  (77) 
114.31153811839513

>  <Genealogy>  (77) 
C=c1[n-]c(=O)n(Cc2ccccc2)c(=O)c1=Cc1oc(Nc2ccccc2)c([O-])c1[O-] (protonated)
C=c1[n-]c(=O)n(Cc2ccccc2)c(=O)/c1=C/c1oc(Nc2ccccc2)c([O-])c1[O-] (cis-trans isomerization)
C=c1[n-]c(=O)n(Cc2ccccc2)c(=O)/c1=C/c1oc(Nc2ccccc2)c([O-])c1[O-] (3D coordinates assigned)
C=c1[n-]c(=O)n(Cc2ccccc2)c(=O)/c1=C/c1oc(Nc2ccccc2)c([O-])c1[O-] (optimized conformer: 114.31153811839513 kcal/mol)

>  <smiles>  (77) 
C=c1[nH]c(=O)n(Cc2ccccc2)c(=O)c1=Cc1oc(Nc2ccccc2)c(O)c1O

>  <score_type>  (77) 
oracle

>  <origin>  (77) 
adg

>  <m_score__min__energy>  (77) 
-17.210000000000001

>  <m_primary>  (77) 
energy

$$$$
77:0
     RDKit          3D

 63 66  0  0  0  0  0  0  0  0999 V2000
   60.0000   22.2320   44.9070 C   0  0  0  0  0  0  0  0  0  0  0  0
   59.6260   23.4100   45.6120 O   0  0  0  0  0  0  0  0  0  0  0  0
   58.3330   23.9600   45.6180 C   0  0  0  0  0  0  0  0  0  0  0  0
   57.2160   23.2340   45.1570 C   0  0  0  0  0  0  0  0  0  0  0  0
   55.9440   23.8130   45.1650 C   0  0  0  0  0  0  0  0  0  0  0  0
   55.7720   25.1200   45.6200 C   0  0  0  0  0  0  0  0  0  0  0  0
   56.8700   25.8500   46.0770 C   0  0  0  0  0  0  0  0  0  0  0  0
   58.1520   25.2770   46.0940 C   0  0  0  0  0  0  0  0  0  0  0  0
   59.3170   26.0760   46.6340 C   0  0  0  0  0  0  0  0  0  0  0  0
   58.8490   27.1930   47.5900 C   0  0  2  0  0  0  0  0  0  0  0  0
   58.4240   28.3950   46.8600 N   0  0  0  0  0  0  0  0  0  0  0  0
   59.2550   29.2800   46.0940 C   0  0  0  0  0  0  0  0  0  0  0  0
   60.5070   29.1330   46.0810 O   0  0  0  0  0  0  0  0  0  0  0  0
   58.6420   30.4320   45.4020 C   0  0  0  0  0  0  0  0  0  0  0  0
   58.1310   30.2500   44.1050 C   0  0  0  0  0  0  0  0  0  0  0  0
   57.7000   31.3460   43.3540 C   0  0  0  0  0  0  0  0  0  0  0  0
   57.7870   32.6350   43.8810 C   0  0  0  0  0  0  0  0  0  0  0  0
   58.2710   32.8290   45.1770 C   0  0  0  0  0  0  0  0  0  0  0  0
   58.6610   31.7320   45.9590 C   0  0  0  0  0  0  0  0  0  0  0  0
   59.1070   31.9940   47.6860 S   0  0  0  0  0  0  0  0  0  0  0  0
   60.8420   32.3730   47.3550 C   0  0  0  0  0  0  0  0  0  0  0  0
   61.7790   31.3460   47.5420 C   0  0  0  0  0  0  0  0  0  0  0  0
   63.1380   31.5800   47.3310 C   0  0  0  0  0  0  0  0  0  0  0  0
   63.5760   32.8420   46.9300 C   0  0  0  0  0  0  0  0  0  0  0  0
   62.6540   33.8720   46.7290 C   0  0  0  0  0  0  0  0  0  0  0  0
   61.2860   33.6470   46.9360 C   0  0  0  0  0  0  0  0  0  0  0  0
   60.3670   34.7190   46.6490 C   0  0  0  0  0  0  0  0  0  0  0  0
   59.6480   35.5940   46.4110 N   0  0  0  0  0  0  0  0  0  0  0  0
   59.9070   27.5010   48.6230 C   0  0  0  0  0  0  0  0  0  0  0  0
   60.4280   26.5780   49.3070 O   0  0  0  0  0  0  0  0  0  0  0  0
   60.3190   28.8600   48.8300 N   0  0  0  0  0  0  0  0  0  0  0  0
   61.0930   29.2690   49.9990 C   0  0  0  0  0  0  0  0  0  0  0  0
   60.5660   30.5730   50.5350 C   0  0  0  0  0  0  0  0  0  0  0  0
   59.1920   30.7550   50.7570 C   0  0  0  0  0  0  0  0  0  0  0  0
   58.7290   31.9870   51.2280 C   0  0  0  0  0  0  0  0  0  0  0  0
   59.6050   33.0010   51.4650 N   0  0  0  0  0  0  0  0  0  0  0  0
   60.9410   32.8520   51.2540 C   0  0  0  0  0  0  0  0  0  0  0  0
   61.4460   31.6370   50.7850 C   0  0  0  0  0  0  0  0  0  0  0  0
   60.2519   21.4387   45.6262 H   0  0  0  0  0  0  0  0  0  0  0  0
   59.1626   21.9015   44.2749 H   0  0  0  0  0  0  0  0  0  0  0  0
   60.8747   22.4451   44.2749 H   0  0  0  0  0  0  0  0  0  0  0  0
   57.3463   22.2057   44.7888 H   0  0  0  0  0  0  0  0  0  0  0  0
   55.0765   23.2364   44.8116 H   0  0  0  0  0  0  0  0  0  0  0  0
   54.7708   25.5755   45.6186 H   0  0  0  0  0  0  0  0  0  0  0  0
   56.7301   26.8834   46.4270 H   0  0  0  0  0  0  0  0  0  0  0  0
   59.9910   25.3992   47.1795 H   0  0  0  0  0  0  0  0  0  0  0  0
   59.8334   26.5462   45.7842 H   0  0  0  0  0  0  0  0  0  0  0  0
   57.9628   26.8232   48.1265 H   0  0  0  0  0  0  0  0  0  0  0  0
   58.0702   29.2378   43.6788 H   0  0  0  0  0  0  0  0  0  0  0  0
   57.2909   31.1925   42.3445 H   0  0  0  0  0  0  0  0  0  0  0  0
   57.4744   33.4987   43.2758 H   0  0  0  0  0  0  0  0  0  0  0  0
   58.3466   33.8472   45.5862 H   0  0  0  0  0  0  0  0  0  0  0  0
   61.4396   30.3484   47.8575 H   0  0  0  0  0  0  0  0  0  0  0  0
   63.8650   30.7682   47.4811 H   0  0  0  0  0  0  0  0  0  0  0  0
   64.6488   33.0265   46.7718 H   0  0  0  0  0  0  0  0  0  0  0  0
   63.0031   34.8641   46.4068 H   0  0  0  0  0  0  0  0  0  0  0  0
   60.0040   29.5960   48.1580 H   0  0  0  0  0  0  0  0  0  0  0  0
   61.0128   28.4961   50.7776 H   0  0  0  0  0  0  0  0  0  0  0  0
   62.1460   29.3975   49.7079 H   0  0  0  0  0  0  0  0  0  0  0  0
   58.4854   29.9349   50.5619 H   0  0  0  0  0  0  0  0  0  0  0  0
   57.6542   32.1371   51.4075 H   0  0  0  0  0  0  0  0  0  0  0  0
   61.6249   33.6902   51.4532 H   0  0  0  0  0  0  0  0  0  0  0  0
   62.5256   31.5152   50.6129 H   0  0  0  0  0  0  0  0  0  0  0  0
  1  2  1  0
  2  3  1  0
  3  4  2  0
  4  5  1  0
  5  6  2  0
  6  7  1  0
  7  8  2  0
  8  9  1  0
  9 10  1  0
 10 11  1  0
 11 12  1  0
 12 13  2  0
 12 14  1  0
 14 15  2  0
 15 16  1  0
 16 17  2  0
 17 18  1  0
 18 19  2  0
 19 20  1  0
 20 21  1  0
 21 22  2  0
 22 23  1  0
 23 24  2  0
 24 25  1  0
 25 26  2  0
 26 27  1  0
 27 28  3  0
 10 29  1  0
 29 30  2  0
 29 31  1  0
 31 32  1  0
 32 33  1  0
 33 34  2  0
 34 35  1  0
 35 36  2  0
 36 37  1  0
 37 38  2  0
  8  3  1  0
 19 14  1  0
 26 21  1  0
 38 33  1  0
  1 39  1  0
  1 40  1  0
  1 41  1  0
  4 42  1  0
  5 43  1  0
  6 44  1  0
  7 45  1  0
  9 46  1  0
  9 47  1  0
 10 48  1  1
 15 49  1  0
 16 50  1  0
 17 51  1  0
 18 52  1  0
 22 53  1  0
 23 54  1  0
 24 55  1  0
 25 56  1  0
 31 57  1  0
 32 58  1  0
 32 59  1  0
 34 60  1  0
 35 61  1  0
 37 62  1  0
 38 63  1  0
M  CHG  1  11  -1
M  END
>  <UniqueID>  (78) 
73

>  <SMILES>  (78) 
COc1ccccc1C[C@H]([N-]C(=O)c1ccccc1Sc1ccccc1C#N)C(=O)NCc1ccncc1

>  <Energy>  (78) 
66.07566077602092

>  <Genealogy>  (78) 
COc1ccccc1CC([N-]C(=O)c1ccccc1Sc1ccccc1C#N)C(=O)NCc1ccncc1 (protonated)
COc1ccccc1C[C@H]([N-]C(=O)c1ccccc1Sc1ccccc1C#N)C(=O)NCc1ccncc1 (chirality)
COc1ccccc1C[C@H]([N-]C(=O)c1ccccc1Sc1ccccc1C#N)C(=O)NCc1ccncc1 (3D coordinates assigned)
COc1ccccc1C[C@H]([N-]C(=O)c1ccccc1Sc1ccccc1C#N)C(=O)NCc1ccncc1 (optimized conformer: 66.07566077602092 kcal/mol)

>  <smiles>  (78) 
COc1ccccc1CC(NC(=O)c1ccccc1Sc1ccccc1C#N)C(=O)NCc1ccncc1

>  <score_type>  (78) 
oracle

>  <origin>  (78) 
adg

>  <m_score__min__energy>  (78) 
-10.76

>  <m_primary>  (78) 
energy

$$$$
78:0
     RDKit          3D

 44 46  0  0  0  0  0  0  0  0999 V2000
   55.1720   29.7140   43.5190 C   0  0  0  0  0  0  0  0  0  0  0  0
   56.6140   29.8340   43.0250 C   0  0  0  0  0  0  0  0  0  0  0  0
   57.5610   30.4830   44.0670 C   0  0  1  0  0  0  0  0  0  0  0  0
   57.5110   32.0290   44.0780 C   0  0  0  0  0  0  0  0  0  0  0  0
   58.3140   32.6150   45.1990 C   0  0  0  0  0  0  0  0  0  0  0  0
   59.1150   31.8820   46.0120 N   0  0  0  0  0  0  0  0  0  0  0  0
   59.6930   32.6490   46.9720 C   0  0  0  0  0  0  0  0  0  0  0  0
   60.5620   32.1770   47.9570 C   0  0  0  0  0  0  0  0  0  0  0  0
   61.0810   33.0880   48.8930 C   0  0  0  0  0  0  0  0  0  0  0  0
   60.7250   34.4510   48.8350 C   0  0  0  0  0  0  0  0  0  0  0  0
   59.8490   34.9150   47.8410 C   0  0  0  0  0  0  0  0  0  0  0  0
   59.3490   33.9920   46.9250 C   0  0  0  0  0  0  0  0  0  0  0  0
   58.2870   34.2490   45.6490 S   0  0  0  0  0  0  0  0  0  0  0  0
   57.3530   29.9060   45.4080 N   0  0  0  0  0  0  0  0  0  0  0  0
   58.6170   28.8470   45.9910 S   0  0  0  0  0  0  0  0  0  0  0  0
   59.0730   29.3000   47.3510 O   0  0  0  0  0  0  0  0  0  0  0  0
   59.7900   28.9540   45.0570 O   0  0  0  0  0  0  0  0  0  0  0  0
   58.1240   27.1550   46.0480 C   0  0  0  0  0  0  0  0  0  0  0  0
   58.0460   26.4730   47.2680 C   0  0  0  0  0  0  0  0  0  0  0  0
   57.6360   25.1380   47.3030 C   0  0  0  0  0  0  0  0  0  0  0  0
   57.3050   24.4630   46.1170 C   0  0  0  0  0  0  0  0  0  0  0  0
   56.8600   23.0290   46.1680 C   0  0  0  0  0  0  0  0  0  0  0  0
   57.3980   25.1470   44.8870 C   0  0  0  0  0  0  0  0  0  0  0  0
   56.9980   24.3600   43.3640 Cl  0  0  0  0  0  0  0  0  0  0  0  0
   57.8110   26.4840   44.8600 C   0  0  0  0  0  0  0  0  0  0  0  0
   55.1601   29.7130   44.6189 H   0  0  0  0  0  0  0  0  0  0  0  0
   54.5847   30.5664   43.1467 H   0  0  0  0  0  0  0  0  0  0  0  0
   54.7337   28.7763   43.1467 H   0  0  0  0  0  0  0  0  0  0  0  0
   56.9889   28.8268   42.7906 H   0  0  0  0  0  0  0  0  0  0  0  0
   56.6044   30.4860   42.1391 H   0  0  0  0  0  0  0  0  0  0  0  0
   58.5843   30.2356   43.7481 H   0  0  0  0  0  0  0  0  0  0  0  0
   57.9102   32.4028   43.1236 H   0  0  0  0  0  0  0  0  0  0  0  0
   56.4630   32.3312   44.2204 H   0  0  0  0  0  0  0  0  0  0  0  0
   59.2600   30.8520   45.9180 H   0  0  0  0  0  0  0  0  0  0  0  0
   60.8354   31.1124   47.9999 H   0  0  0  0  0  0  0  0  0  0  0  0
   61.7691   32.7355   49.6755 H   0  0  0  0  0  0  0  0  0  0  0  0
   61.1362   35.1552   49.5732 H   0  0  0  0  0  0  0  0  0  0  0  0
   59.5656   35.9765   47.7869 H   0  0  0  0  0  0  0  0  0  0  0  0
   58.3085   26.9902   48.2026 H   0  0  0  0  0  0  0  0  0  0  0  0
   57.5720   24.6117   48.2668 H   0  0  0  0  0  0  0  0  0  0  0  0
   56.7618   22.7126   47.2169 H   0  0  0  0  0  0  0  0  0  0  0  0
   55.8884   22.9284   45.6622 H   0  0  0  0  0  0  0  0  0  0  0  0
   57.6040   22.3960   45.6622 H   0  0  0  0  0  0  0  0  0  0  0  0
   57.8902   27.0115   43.8980 H   0  0  0  0  0  0  0  0  0  0  0  0
  1  2  1  0
  2  3  1  0
  3  4  1  0
  4  5  1  0
  5  6  2  0
  6  7  1  0
  7  8  2  0
  8  9  1  0
  9 10  2  0
 10 11  1  0
 11 12  2  0
 12 13  1  0
  3 14  1  0
 14 15  1  0
 15 16  2  0
 15 17  2  0
 15 18  1  0
 18 19  2  0
 19 20  1  0
 20 21  2  0
 21 22  1  0
 21 23  1  0
 23 24  1  0
 23 25  2  0
 13  5  1  0
 25 18  1  0
 12  7  1  0
  1 26  1  0
  1 27  1  0
  1 28  1  0
  2 29  1  0
  2 30  1  0
  3 31  1  6
  4 32  1  0
  4 33  1  0
  6 34  1  0
  8 35  1  0
  9 36  1  0
 10 37  1  0
 11 38  1  0
 19 39  1  0
 20 40  1  0
 22 41  1  0
 22 42  1  0
 22 43  1  0
 25 44  1  0
M  CHG  2   6   1  14  -1
M  END
>  <UniqueID>  (79) 
74

>  <SMILES>  (79) 
CC[C@@H](Cc1[nH+]c2ccccc2s1)[N-]S(=O)(=O)c1ccc(C)c(Cl)c1

>  <Energy>  (79) 
79.3467836344565

>  <Genealogy>  (79) 
CCC(Cc1[nH+]c2ccccc2s1)[N-]S(=O)(=O)c1ccc(C)c(Cl)c1 (protonated)
CC[C@@H](Cc1[nH+]c2ccccc2s1)[N-]S(=O)(=O)c1ccc(C)c(Cl)c1 (chirality)
CC[C@@H](Cc1[nH+]c2ccccc2s1)[N-]S(=O)(=O)c1ccc(C)c(Cl)c1 (3D coordinates assigned)
CC[C@@H](Cc1[nH+]c2ccccc2s1)[N-]S(=O)(=O)c1ccc(C)c(Cl)c1 (optimized conformer: 79.3467836344565 kcal/mol)

>  <smiles>  (79) 
CCC(Cc1nc2ccccc2s1)NS(=O)(=O)c1ccc(C)c(Cl)c1

>  <score_type>  (79) 
oracle

>  <origin>  (79) 
adg

>  <m_score__min__energy>  (79) 
-9.1999999999999993

>  <m_primary>  (79) 
energy

$$$$
79:0
     RDKit          3D

 45 47  0  0  0  0  0  0  0  0999 V2000
   57.0190   21.0020   42.9480 C   0  0  0  0  0  0  0  0  0  0  0  0
   55.9390   21.9250   42.8760 O   0  0  0  0  0  0  0  0  0  0  0  0
   55.8070   22.9990   43.7610 C   0  0  0  0  0  0  0  0  0  0  0  0
   54.7070   23.6070   43.8740 O   0  0  0  0  0  0  0  0  0  0  0  0
   56.9930   23.4580   44.5440 C   0  0  0  0  0  0  0  0  0  0  0  0
   57.1090   22.6710   45.8150 C   0  0  0  0  0  0  0  0  0  0  0  0
   57.4910   21.3820   45.8550 N   0  0  0  0  0  0  0  0  0  0  0  0
   57.3900   21.0700   47.1630 C   0  0  0  0  0  0  0  0  0  0  0  0
   57.6700   19.9270   47.6110 O   0  0  0  0  0  0  0  0  0  0  0  0
   56.9590   22.0740   47.9520 N   0  0  0  0  0  0  0  0  0  0  0  0
   56.7910   23.0950   47.0920 C   0  0  0  0  0  0  0  0  0  0  0  0
   56.2300   24.4300   47.4850 C   0  0  0  0  0  0  0  0  0  0  0  0
   57.2630   25.4120   47.5780 O   0  0  0  0  0  0  0  0  0  0  0  0
   57.4920   26.4890   46.7020 C   0  0  0  0  0  0  0  0  0  0  0  0
   58.8090   26.9560   46.6050 C   0  0  0  0  0  0  0  0  0  0  0  0
   59.1360   28.0150   45.7560 C   0  0  0  0  0  0  0  0  0  0  0  0
   58.1450   28.6280   44.9740 C   0  0  0  0  0  0  0  0  0  0  0  0
   58.4760   29.7390   44.1160 N   0  0  0  0  0  0  0  0  0  0  0  0
   57.4550   30.7890   44.2380 C   0  0  0  0  0  0  0  0  0  0  0  0
   57.9760   31.9370   45.0560 C   0  0  0  0  0  0  0  0  0  0  0  0
   57.3180   33.1730   45.0540 C   0  0  0  0  0  0  0  0  0  0  0  0
   57.8620   34.2170   45.8010 C   0  0  0  0  0  0  0  0  0  0  0  0
   59.0100   34.0250   46.5010 N   0  0  0  0  0  0  0  0  0  0  0  0
   59.6430   32.8230   46.4840 C   0  0  0  0  0  0  0  0  0  0  0  0
   59.1290   31.7930   45.7620 N   0  0  0  0  0  0  0  0  0  0  0  0
   56.8190   28.1790   45.0770 C   0  0  0  0  0  0  0  0  0  0  0  0
   56.4850   27.1200   45.9300 C   0  0  0  0  0  0  0  0  0  0  0  0
   55.1540   26.7290   45.9970 O   0  0  0  0  0  0  0  0  0  0  0  0
   57.2575   20.7982   44.0023 H   0  0  0  0  0  0  0  0  0  0  0  0
   56.7338   20.0643   42.4487 H   0  0  0  0  0  0  0  0  0  0  0  0
   57.9009   21.4298   42.4487 H   0  0  0  0  0  0  0  0  0  0  0  0
   57.9031   23.3144   43.9431 H   0  0  0  0  0  0  0  0  0  0  0  0
   56.8707   24.5230   44.7906 H   0  0  0  0  0  0  0  0  0  0  0  0
   55.4974   24.7490   46.7290 H   0  0  0  0  0  0  0  0  0  0  0  0
   55.7498   24.3322   48.4698 H   0  0  0  0  0  0  0  0  0  0  0  0
   59.5977   26.4811   47.2070 H   0  0  0  0  0  0  0  0  0  0  0  0
   60.1754   28.3706   45.6998 H   0  0  0  0  0  0  0  0  0  0  0  0
   59.4120   30.1260   44.3830 H   0  0  0  0  0  0  0  0  0  0  0  0
   58.5310   29.4130   43.1230 H   0  0  0  0  0  0  0  0  0  0  0  0
   57.1870   31.1516   43.2347 H   0  0  0  0  0  0  0  0  0  0  0  0
   56.5701   30.3685   44.7381 H   0  0  0  0  0  0  0  0  0  0  0  0
   56.3931   33.3170   44.4763 H   0  0  0  0  0  0  0  0  0  0  0  0
   57.3614   35.1962   45.8234 H   0  0  0  0  0  0  0  0  0  0  0  0
   60.5726   32.6835   47.0553 H   0  0  0  0  0  0  0  0  0  0  0  0
   56.0329   28.6649   44.4804 H   0  0  0  0  0  0  0  0  0  0  0  0
  1  2  1  0
  2  3  1  0
  3  4  2  0
  3  5  1  0
  5  6  1  0
  6  7  1  0
  7  8  1  0
  8  9  2  0
  8 10  1  0
 10 11  1  0
 11 12  1  0
 12 13  1  0
 13 14  1  0
 14 15  2  0
 15 16  1  0
 16 17  2  0
 17 18  1  0
 18 19  1  0
 19 20  1  0
 20 21  2  0
 21 22  1  0
 22 23  2  0
 23 24  1  0
 24 25  2  0
 17 26  1  0
 26 27  2  0
 27 28  1  0
 11  6  2  0
 27 14  1  0
 25 20  1  0
  1 29  1  0
  1 30  1  0
  1 31  1  0
  5 32  1  0
  5 33  1  0
 12 34  1  0
 12 35  1  0
 15 36  1  0
 16 37  1  0
 18 38  1  0
 18 39  1  0
 19 40  1  0
 19 41  1  0
 21 42  1  0
 22 43  1  0
 24 44  1  0
 26 45  1  0
M  CHG  4   7  -1  10  -1  18   1  28  -1
M  END
>  <UniqueID>  (80) 
75

>  <SMILES>  (80) 
COC(=O)Cc1[n-]c(=O)[n-]c1COc1ccc([NH2+]Cc2ccncn2)cc1[O-]

>  <Energy>  (80) 
74.2736078384932

>  <Genealogy>  (80) 
COC(=O)Cc1[n-]c(=O)[n-]c1COc1ccc([NH2+]Cc2ccncn2)cc1[O-] (protonated)
COC(=O)Cc1[n-]c(=O)[n-]c1COc1ccc([NH2+]Cc2ccncn2)cc1[O-] (3D coordinates assigned)
COC(=O)Cc1[n-]c(=O)[n-]c1COc1ccc([NH2+]Cc2ccncn2)cc1[O-] (optimized conformer: 74.2736078384932 kcal/mol)

>  <smiles>  (80) 
COC(=O)Cc1[nH]c(=O)[nH]c1COc1ccc(NCc2ccncn2)cc1O

>  <score_type>  (80) 
oracle

>  <origin>  (80) 
adg

>  <m_score__min__energy>  (80) 
-13.140000000000001

>  <m_primary>  (80) 
energy

$$$$
80:0
     RDKit          3D

 49 51  0  0  0  0  0  0  0  0999 V2000
   55.2960   30.2850   44.2580 O   0  0  0  0  0  0  0  0  0  0  0  0
   56.4300   29.7340   44.2770 C   0  0  0  0  0  0  0  0  0  0  0  0
   56.6520   28.5270   45.1280 C   0  0  0  0  0  0  0  0  0  0  0  0
   57.3910   28.8990   46.3280 N   0  0  0  0  0  0  0  0  0  0  0  0
   58.8160   29.0320   46.3860 C   0  0  0  0  0  0  0  0  0  0  0  0
   59.4430   29.3340   45.3370 O   0  0  0  0  0  0  0  0  0  0  0  0
   59.5630   28.8350   47.6450 C   0  0  0  0  0  0  0  0  0  0  0  0
   60.0220   27.5490   47.9770 C   0  0  0  0  0  0  0  0  0  0  0  0
   60.7320   27.3320   49.1590 C   0  0  0  0  0  0  0  0  0  0  0  0
   61.0020   28.3990   50.0180 C   0  0  0  0  0  0  0  0  0  0  0  0
   60.5660   29.6850   49.6940 C   0  0  0  0  0  0  0  0  0  0  0  0
   59.8470   29.9140   48.5130 C   0  0  0  0  0  0  0  0  0  0  0  0
   59.3100   31.5960   48.1540 S   0  0  0  0  0  0  0  0  0  0  0  0
   60.9830   32.2400   48.0870 C   0  0  0  0  0  0  0  0  0  0  0  0
   61.3510   33.3340   48.8820 C   0  0  0  0  0  0  0  0  0  0  0  0
   62.6600   33.8280   48.8330 C   0  0  0  0  0  0  0  0  0  0  0  0
   63.6080   33.2170   48.0050 C   0  0  0  0  0  0  0  0  0  0  0  0
   63.2470   32.1120   47.2270 C   0  0  0  0  0  0  0  0  0  0  0  0
   61.9360   31.6280   47.2620 C   0  0  0  0  0  0  0  0  0  0  0  0
   57.5070   30.2640   43.4920 N   0  0  0  0  0  0  0  0  0  0  0  0
   57.4420   31.5710   42.8420 C   0  0  0  0  0  0  0  0  0  0  0  0
   58.2050   32.6340   43.6450 C   0  0  0  0  0  0  0  0  0  0  0  0
   57.4000   33.1300   44.8510 C   0  0  0  0  0  0  0  0  0  0  0  0
   58.2250   34.0030   45.6810 N   0  0  0  0  0  0  0  0  0  0  0  0
   59.3130   34.6890   45.2980 C   0  0  0  0  0  0  0  0  0  0  0  0
   59.8230   35.3240   46.4080 C   0  0  0  0  0  0  0  0  0  0  0  0
   59.0660   35.0300   47.4860 N   0  0  0  0  0  0  0  0  0  0  0  0
   58.1010   34.2170   47.0040 C   0  0  0  0  0  0  0  0  0  0  0  0
   55.6803   28.0989   45.4154 H   0  0  0  0  0  0  0  0  0  0  0  0
   57.2309   27.7835   44.5604 H   0  0  0  0  0  0  0  0  0  0  0  0
   59.8200   26.7062   47.2996 H   0  0  0  0  0  0  0  0  0  0  0  0
   61.0790   26.3198   49.4139 H   0  0  0  0  0  0  0  0  0  0  0  0
   61.5587   28.2262   50.9508 H   0  0  0  0  0  0  0  0  0  0  0  0
   60.7882   30.5239   50.3699 H   0  0  0  0  0  0  0  0  0  0  0  0
   60.6105   33.8050   49.5452 H   0  0  0  0  0  0  0  0  0  0  0  0
   62.9433   34.6966   49.4456 H   0  0  0  0  0  0  0  0  0  0  0  0
   64.6364   33.6053   47.9659 H   0  0  0  0  0  0  0  0  0  0  0  0
   63.9959   31.6231   46.5866 H   0  0  0  0  0  0  0  0  0  0  0  0
   61.6522   30.7655   46.6410 H   0  0  0  0  0  0  0  0  0  0  0  0
   58.3760   29.6960   43.3790 H   0  0  0  0  0  0  0  0  0  0  0  0
   57.8853   31.4940   41.8382 H   0  0  0  0  0  0  0  0  0  0  0  0
   56.3867   31.8750   42.7801 H   0  0  0  0  0  0  0  0  0  0  0  0
   59.1494   32.1984   44.0033 H   0  0  0  0  0  0  0  0  0  0  0  0
   58.3889   33.4929   42.9828 H   0  0  0  0  0  0  0  0  0  0  0  0
   56.5213   33.6889   44.4968 H   0  0  0  0  0  0  0  0  0  0  0  0
   57.0776   32.2647   45.4488 H   0  0  0  0  0  0  0  0  0  0  0  0
   59.7241   34.7356   44.2788 H   0  0  0  0  0  0  0  0  0  0  0  0
   60.7118   35.9721   46.4152 H   0  0  0  0  0  0  0  0  0  0  0  0
   57.3039   33.7793   47.6228 H   0  0  0  0  0  0  0  0  0  0  0  0
  1  2  2  0
  2  3  1  0
  3  4  1  0
  4  5  1  0
  5  6  2  0
  5  7  1  0
  7  8  2  0
  8  9  1  0
  9 10  2  0
 10 11  1  0
 11 12  2  0
 12 13  1  0
 13 14  1  0
 14 15  2  0
 15 16  1  0
 16 17  2  0
 17 18  1  0
 18 19  2  0
  2 20  1  0
 20 21  1  0
 21 22  1  0
 22 23  1  0
 23 24  1  0
 24 25  1  0
 25 26  2  0
 26 27  1  0
 27 28  2  0
 12  7  1  0
 19 14  1  0
 28 24  1  0
  3 29  1  0
  3 30  1  0
  8 31  1  0
  9 32  1  0
 10 33  1  0
 11 34  1  0
 15 35  1  0
 16 36  1  0
 17 37  1  0
 18 38  1  0
 19 39  1  0
 20 40  1  0
 21 41  1  0
 21 42  1  0
 22 43  1  0
 22 44  1  0
 23 45  1  0
 23 46  1  0
 25 47  1  0
 26 48  1  0
 28 49  1  0
M  CHG  1   4  -1
M  END
>  <UniqueID>  (81) 
76

>  <SMILES>  (81) 
O=C(C[N-]C(=O)c1ccccc1Sc1ccccc1)NCCCn1ccnc1

>  <Energy>  (81) 
68.86489356695238

>  <Genealogy>  (81) 
O=C(C[N-]C(=O)c1ccccc1Sc1ccccc1)NCCCn1ccnc1 (protonated)
O=C(C[N-]C(=O)c1ccccc1Sc1ccccc1)NCCCn1ccnc1 (3D coordinates assigned)
O=C(C[N-]C(=O)c1ccccc1Sc1ccccc1)NCCCn1ccnc1 (optimized conformer: 68.86489356695238 kcal/mol)

>  <smiles>  (81) 
O=C(CNC(=O)c1ccccc1Sc1ccccc1)NCCCn1ccnc1

>  <score_type>  (81) 
oracle

>  <origin>  (81) 
adg

>  <m_score__min__energy>  (81) 
-10.67

>  <m_primary>  (81) 
energy

$$$$
81:0
     RDKit          3D

 29 31  0  0  0  0  0  0  0  0999 V2000
   56.8906   30.7448   44.2661 H   0  0  0  0  0  0  0  0  0  0  0  0
   57.3350   29.8110   44.6410 C   0  0  0  0  0  0  0  0  0  0  0  0
   58.7140   29.6230   44.5740 C   0  0  0  0  0  0  0  0  0  0  0  0
   59.3534   30.4054   44.1392 H   0  0  0  0  0  0  0  0  0  0  0  0
   59.2860   28.4470   45.0560 C   0  0  0  0  0  0  0  0  0  0  0  0
   60.6220   28.2600   44.9100 F   0  0  0  0  0  0  0  0  0  0  0  0
   58.4780   27.4460   45.6310 C   0  0  0  0  0  0  0  0  0  0  0  0
   59.0580   26.2040   46.0680 N   0  0  0  0  0  0  0  0  0  0  0  0
   58.8280   25.0350   45.5460 C   0  0  0  0  0  0  0  0  0  0  0  0
   59.6660   24.0050   45.8320 N   0  0  0  0  0  0  0  0  0  0  0  0
   59.4850   22.7690   45.2970 C   0  0  0  0  0  0  0  0  0  0  0  0
   60.2850   21.8430   45.5960 O   0  0  0  0  0  0  0  0  0  0  0  0
   58.4130   22.5420   44.4180 C   0  0  0  0  0  0  0  0  0  0  0  0
   58.1680   21.2880   43.8300 C   0  0  0  0  0  0  0  0  0  0  0  0
   58.8280   20.4370   44.0542 H   0  0  0  0  0  0  0  0  0  0  0  0
   57.0850   21.1230   42.9600 C   0  0  0  0  0  0  0  0  0  0  0  0
   56.8953   20.1415   42.5009 H   0  0  0  0  0  0  0  0  0  0  0  0
   56.2430   22.2010   42.6720 C   0  0  0  0  0  0  0  0  0  0  0  0
   55.3926   22.0653   41.9875 H   0  0  0  0  0  0  0  0  0  0  0  0
   56.4790   23.4520   43.2520 C   0  0  0  0  0  0  0  0  0  0  0  0
   55.8151   24.2985   43.0223 H   0  0  0  0  0  0  0  0  0  0  0  0
   57.5590   23.6270   44.1240 C   0  0  0  0  0  0  0  0  0  0  0  0
   57.7890   24.8400   44.6880 N   0  0  0  0  0  0  0  0  0  0  0  0
   57.0730   27.6200   45.6750 C   0  0  0  0  0  0  0  0  0  0  0  0
   56.2180   26.5990   46.2260 N   0  0  0  0  0  0  0  0  0  0  0  0
   55.1000   26.3640   45.7230 O   0  0  0  0  0  0  0  0  0  0  0  0
   56.6350   25.8430   47.2970 O   0  0  0  0  0  0  0  0  0  0  0  0
   56.5150   28.8190   45.1820 C   0  0  0  0  0  0  0  0  0  0  0  0
   55.1440   29.0430   45.2430 O   0  0  0  0  0  0  0  0  0  0  0  0
  1  2  1  0
  2  3  2  0
  3  4  1  0
  3  5  1  0
  5  6  1  0
  5  7  2  0
  7  8  1  0
  8  9  2  0
  9 10  1  0
 10 11  1  0
 11 12  2  0
 11 13  1  0
 13 14  2  0
 14 15  1  0
 14 16  1  0
 16 17  1  0
 16 18  2  0
 18 19  1  0
 18 20  1  0
 20 21  1  0
 20 22  2  0
 22 23  1  0
  7 24  1  0
 24 25  1  0
 25 26  2  0
 25 27  1  0
 24 28  2  0
 28 29  1  0
 28  2  1  0
 23  9  1  0
 22 13  1  0
M  CHG  5  10  -1  23  -1  25   1  27  -1  29  -1
M  END
>  <UniqueID>  (82) 
77

>  <SMILES>  (82) 
O=c1[n-]/c(=N/c2c(F)ccc([O-])c2[N+](=O)[O-])[n-]c2ccccc12

>  <Energy>  (82) 
49.552894894281835

>  <Genealogy>  (82) 
O=c1[n-]c(=Nc2c(F)ccc([O-])c2[N+](=O)[O-])[n-]c2ccccc12 (protonated)
O=c1[n-]/c(=N/c2c(F)ccc([O-])c2[N+](=O)[O-])[n-]c2ccccc12 (cis-trans isomerization)
O=c1[n-]/c(=N/c2c(F)ccc([O-])c2[N+](=O)[O-])[n-]c2ccccc12 (3D coordinates assigned)
O=c1[n-]/c(=N/c2c(F)ccc([O-])c2[N+](=O)[O-])[n-]c2ccccc12 (optimized conformer: 49.552894894281835 kcal/mol)

>  <smiles>  (82) 
O=c1[nH]c(=Nc2c(F)ccc(O)c2[N+](=O)[O-])[nH]c2ccccc12

>  <score_type>  (82) 
oracle

>  <origin>  (82) 
adg

>  <m_score__min__energy>  (82) 
-13.44

>  <m_primary>  (82) 
energy

$$$$
82:0
     RDKit          3D

 56 58  0  0  0  0  0  0  0  0999 V2000
   52.1420   25.1180   45.4790 H   0  0  0  0  0  0  0  0  0  0  0  0
   52.5590   24.2070   45.6280 O   0  0  0  0  0  0  0  0  0  0  0  0
   53.9330   23.9920   45.5120 C   0  0  0  0  0  0  0  0  0  0  0  0
   54.3970   22.7010   45.2440 C   0  0  0  0  0  0  0  0  0  0  0  0
   53.6807   21.8745   45.1265 H   0  0  0  0  0  0  0  0  0  0  0  0
   55.7660   22.4570   45.1250 C   0  0  0  0  0  0  0  0  0  0  0  0
   56.1256   21.4386   44.9164 H   0  0  0  0  0  0  0  0  0  0  0  0
   56.6800   23.5020   45.2700 C   0  0  0  0  0  0  0  0  0  0  0  0
   57.7576   23.3020   45.1762 H   0  0  0  0  0  0  0  0  0  0  0  0
   56.2330   24.8080   45.5350 C   0  0  0  0  0  0  0  0  0  0  0  0
   57.2460   25.9210   45.6820 C   0  0  0  0  0  0  0  0  0  0  0  0
   58.0039   25.6137   46.4176 H   0  0  0  0  0  0  0  0  0  0  0  0
   56.7078   26.8226   46.0097 H   0  0  0  0  0  0  0  0  0  0  0  0
   57.9520   26.2530   44.3540 C   0  0  0  0  0  0  0  0  0  0  0  0
   57.1868   26.3990   43.5773 H   0  0  0  0  0  0  0  0  0  0  0  0
   58.6215   25.4126   44.1185 H   0  0  0  0  0  0  0  0  0  0  0  0
   58.8000   27.4960   44.4320 C   0  0  0  0  0  0  0  0  0  0  0  0
   59.7380   27.5550   45.2700 O   0  0  0  0  0  0  0  0  0  0  0  0
   58.4260   28.6900   43.7320 N   0  0  0  0  0  0  0  0  0  0  0  0
   57.3980   29.4610   43.9590 C   0  0  0  0  0  0  0  0  0  0  0  0
   56.5280   29.1380   45.1060 C   0  0  0  0  0  0  0  0  0  0  0  0
   57.0310   28.7490   46.1930 O   0  0  0  0  0  0  0  0  0  0  0  0
   55.1470   29.2540   45.0030 O   0  0  0  0  0  0  0  0  0  0  0  0
   57.1440   30.7370   43.1820 C   0  0  0  0  0  0  0  0  0  0  0  0
   57.7033   30.7012   42.2355 H   0  0  0  0  0  0  0  0  0  0  0  0
   56.0654   30.8226   42.9839 H   0  0  0  0  0  0  0  0  0  0  0  0
   57.5890   31.9390   43.9750 C   0  0  0  0  0  0  0  0  0  0  0  0
   58.4980   32.8590   43.4280 C   0  0  0  0  0  0  0  0  0  0  0  0
   58.8944   32.7009   42.4142 H   0  0  0  0  0  0  0  0  0  0  0  0
   58.9010   33.9750   44.1670 C   0  0  0  0  0  0  0  0  0  0  0  0
   59.6181   34.6862   43.7312 H   0  0  0  0  0  0  0  0  0  0  0  0
   58.4020   34.1970   45.4550 C   0  0  0  0  0  0  0  0  0  0  0  0
   58.8460   35.3330   46.1510 O   0  0  0  0  0  0  0  0  0  0  0  0
   59.9190   35.3640   47.0940 C   0  0  0  0  0  0  0  0  0  0  0  0
   60.8176   34.9293   46.6318 H   0  0  0  0  0  0  0  0  0  0  0  0
   60.1033   36.4093   47.3829 H   0  0  0  0  0  0  0  0  0  0  0  0
   59.5640   34.5630   48.3520 C   0  0  0  0  0  0  0  0  0  0  0  0
   59.6400   35.2198   49.2311 H   0  0  0  0  0  0  0  0  0  0  0  0
   58.5382   34.1796   48.2481 H   0  0  0  0  0  0  0  0  0  0  0  0
   60.4740   33.4290   48.5200 N   0  0  0  0  0  0  0  0  0  0  0  0
   60.2340   32.2150   48.1190 C   0  0  0  0  0  0  0  0  0  0  0  0
   61.0090   31.6260   47.1630 N   0  0  0  0  0  0  0  0  0  0  0  0
   60.7750   30.3580   46.7310 C   0  0  0  0  0  0  0  0  0  0  0  0
   61.4212   29.9120   45.9606 H   0  0  0  0  0  0  0  0  0  0  0  0
   59.7160   29.6220   47.2640 C   0  0  0  0  0  0  0  0  0  0  0  0
   59.5209   28.5968   46.9164 H   0  0  0  0  0  0  0  0  0  0  0  0
   58.9070   30.2010   48.2430 C   0  0  0  0  0  0  0  0  0  0  0  0
   58.0701   29.6321   48.6741 H   0  0  0  0  0  0  0  0  0  0  0  0
   59.1630   31.5050   48.6740 C   0  0  0  0  0  0  0  0  0  0  0  0
   58.5284   31.9698   49.4429 H   0  0  0  0  0  0  0  0  0  0  0  0
   57.4880   33.2750   46.0030 C   0  0  0  0  0  0  0  0  0  0  0  0
   57.0886   33.4355   47.0153 H   0  0  0  0  0  0  0  0  0  0  0  0
   57.0870   32.1580   45.2660 C   0  0  0  0  0  0  0  0  0  0  0  0
   56.3719   31.4447   45.7017 H   0  0  0  0  0  0  0  0  0  0  0  0
   54.8490   25.0500   45.6600 C   0  0  0  0  0  0  0  0  0  0  0  0
   54.3810   26.3310   45.9330 O   0  0  0  0  0  0  0  0  0  0  0  0
  1  2  1  0
  2  3  1  0
  3  4  2  0
  4  5  1  0
  4  6  1  0
  6  7  1  0
  6  8  2  0
  8  9  1  0
  8 10  1  0
 10 11  1  0
 11 12  1  0
 11 13  1  0
 11 14  1  0
 14 15  1  0
 14 16  1  0
 14 17  1  0
 17 18  2  0
 17 19  1  0
 19 20  2  3
 20 21  1  0
 21 22  2  0
 21 23  1  0
 20 24  1  0
 24 25  1  0
 24 26  1  0
 24 27  1  0
 27 28  2  0
 28 29  1  0
 28 30  1  0
 30 31  1  0
 30 32  2  0
 32 33  1  0
 33 34  1  0
 34 35  1  0
 34 36  1  0
 34 37  1  0
 37 38  1  0
 37 39  1  0
 37 40  1  0
 40 41  2  0
 41 42  1  0
 42 43  1  0
 43 44  1  0
 43 45  2  0
 45 46  1  0
 45 47  1  0
 47 48  1  0
 47 49  2  0
 49 50  1  0
 32 51  1  0
 51 52  1  0
 51 53  2  0
 53 54  1  0
 10 55  2  0
 55 56  1  0
 55  3  1  0
 53 27  1  0
 49 41  1  0
M  CHG  3  23  -1  42  -1  56  -1
M  END
>  <UniqueID>  (83) 
78

>  <SMILES>  (83) 
O=C(CCc1cccc(O)c1[O-])N=C(Cc1ccc(OCC/N=c2/cccc[n-]2)cc1)C(=O)[O-]

>  <Energy>  (83) 
63.49048257245723

>  <Genealogy>  (83) 
O=C(CCc1cccc(O)c1[O-])N=C(Cc1ccc(OCCN=c2cccc[n-]2)cc1)C(=O)[O-] (protonated)
O=C(CCc1cccc(O)c1[O-])N=C(Cc1ccc(OCC/N=c2/cccc[n-]2)cc1)C(=O)[O-] (cis-trans isomerization)
O=C(CCc1cccc(O)c1[O-])N=C(Cc1ccc(OCC/N=c2/cccc[n-]2)cc1)C(=O)[O-] (3D coordinates assigned)
O=C(CCc1cccc(O)c1[O-])N=C(Cc1ccc(OCC/N=c2/cccc[n-]2)cc1)C(=O)[O-] (optimized conformer: 63.49048257245723 kcal/mol)

>  <smiles>  (83) 
O=C(CCc1cccc(O)c1O)N=C(Cc1ccc(OCCN=c2cccc[nH]2)cc1)C(=O)O

>  <score_type>  (83) 
oracle

>  <origin>  (83) 
adg

>  <m_score__min__energy>  (83) 
-15.27

>  <m_primary>  (83) 
energy

$$$$
83:0
     RDKit          3D

 55 57  0  0  0  0  0  0  0  0999 V2000
   54.3740   27.0920   46.3640 H   0  0  0  0  0  0  0  0  0  0  0  0
   55.1480   26.7990   45.7810 O   0  0  0  0  0  0  0  0  0  0  0  0
   56.1460   25.9740   46.2880 C   0  0  0  0  0  0  0  0  0  0  0  0
   55.9400   25.0440   47.2350 N   0  0  0  0  0  0  0  0  0  0  0  0
   57.1580   24.4730   47.3580 C   0  0  0  0  0  0  0  0  0  0  0  0
   57.3850   23.5300   48.1580 O   0  0  0  0  0  0  0  0  0  0  0  0
   58.1090   24.9850   46.5460 N   0  0  0  0  0  0  0  0  0  0  0  0
   57.4620   25.9610   45.8870 C   0  0  0  0  0  0  0  0  0  0  0  0
   58.0620   26.7450   44.7980 C   0  0  0  0  0  0  0  0  0  0  0  0
   58.6476   26.1963   44.0456 H   0  0  0  0  0  0  0  0  0  0  0  0
   57.9550   28.0790   44.6440 C   0  0  0  0  0  0  0  0  0  0  0  0
   57.4980   28.6660   43.4760 C   0  0  0  0  0  0  0  0  0  0  0  0
   57.2267   28.1474   42.5446 H   0  0  0  0  0  0  0  0  0  0  0  0
   57.4480   30.0260   43.7040 C   0  0  0  0  0  0  0  0  0  0  0  0
   56.9890   31.0410   42.7010 C   0  0  0  0  0  0  0  0  0  0  0  0
   56.5908   31.9216   43.2264 H   0  0  0  0  0  0  0  0  0  0  0  0
   57.8380   31.3432   42.0703 H   0  0  0  0  0  0  0  0  0  0  0  0
   56.2013   30.6031   42.0703 H   0  0  0  0  0  0  0  0  0  0  0  0
   57.8980   30.3110   44.9470 N   0  0  0  0  0  0  0  0  0  0  0  0
   58.0110   31.6270   45.5180 C   0  0  0  0  0  0  0  0  0  0  0  0
   57.0690   32.6170   45.2080 C   0  0  0  0  0  0  0  0  0  0  0  0
   56.2324   32.3862   44.5321 H   0  0  0  0  0  0  0  0  0  0  0  0
   57.1900   33.8950   45.7550 C   0  0  0  0  0  0  0  0  0  0  0  0
   56.4510   34.6705   45.5048 H   0  0  0  0  0  0  0  0  0  0  0  0
   58.2460   34.1930   46.6190 C   0  0  0  0  0  0  0  0  0  0  0  0
   58.3413   35.2056   47.0379 H   0  0  0  0  0  0  0  0  0  0  0  0
   59.1880   33.2050   46.9560 C   0  0  0  0  0  0  0  0  0  0  0  0
   60.3110   33.5260   47.8620 C   0  0  0  0  0  0  0  0  0  0  0  0
   61.0750   34.4890   47.5790 O   0  0  0  0  0  0  0  0  0  0  0  0
   60.5520   32.7600   49.0570 N   0  0  0  0  0  0  0  0  0  0  0  0
   59.6230   32.8760   50.1850 C   0  0  0  0  0  0  0  0  0  0  0  0
   60.1825   32.8061   51.1295 H   0  0  0  0  0  0  0  0  0  0  0  0
   59.1060   33.8457   50.1360 H   0  0  0  0  0  0  0  0  0  0  0  0
   58.8834   32.0632   50.1360 H   0  0  0  0  0  0  0  0  0  0  0  0
   61.8150   32.0210   49.2070 C   0  0  0  0  0  0  0  0  0  0  0  0
   62.5139   32.6198   49.8094 H   0  0  0  0  0  0  0  0  0  0  0  0
   61.6058   31.0622   49.7039 H   0  0  0  0  0  0  0  0  0  0  0  0
   62.4460   31.7380   47.8380 C   0  0  0  0  0  0  0  0  0  0  0  0
   62.6304   30.6574   47.7468 H   0  0  0  0  0  0  0  0  0  0  0  0
   61.7497   32.0856   47.0606 H   0  0  0  0  0  0  0  0  0  0  0  0
   63.7260   32.4590   47.6670 N   0  0  0  0  0  0  0  0  0  0  0  0
   64.1130   33.1090   48.9280 C   0  0  0  0  0  0  0  0  0  0  0  0
   63.7545   32.5069   49.7759 H   0  0  0  0  0  0  0  0  0  0  0  0
   65.2087   33.1937   48.9757 H   0  0  0  0  0  0  0  0  0  0  0  0
   63.6653   34.1126   48.9757 H   0  0  0  0  0  0  0  0  0  0  0  0
   63.6250   33.4760   46.6050 C   0  0  0  0  0  0  0  0  0  0  0  0
   63.5260   34.4726   47.0599 H   0  0  0  0  0  0  0  0  0  0  0  0
   64.5305   33.4460   45.9812 H   0  0  0  0  0  0  0  0  0  0  0  0
   62.7431   33.2684   45.9812 H   0  0  0  0  0  0  0  0  0  0  0  0
   59.0700   31.9260   46.3880 C   0  0  0  0  0  0  0  0  0  0  0  0
   59.8143   31.1522   46.6274 H   0  0  0  0  0  0  0  0  0  0  0  0
   58.2400   29.1330   45.5290 C   0  0  0  0  0  0  0  0  0  0  0  0
   58.8910   29.0550   46.6990 C   0  0  0  0  0  0  0  0  0  0  0  0
   59.0498   29.9615   47.3015 H   0  0  0  0  0  0  0  0  0  0  0  0
   59.2661   28.0845   47.0561 H   0  0  0  0  0  0  0  0  0  0  0  0
  1  2  1  0
  2  3  1  0
  3  4  1  0
  4  5  1  0
  5  6  2  0
  5  7  1  0
  7  8  1  0
  8  9  1  0
  9 10  1  0
  9 11  2  0
 11 12  1  0
 12 13  1  0
 12 14  2  0
 14 15  1  0
 15 16  1  0
 15 17  1  0
 15 18  1  0
 14 19  1  0
 19 20  1  0
 20 21  2  0
 21 22  1  0
 21 23  1  0
 23 24  1  0
 23 25  2  0
 25 26  1  0
 25 27  1  0
 27 28  1  0
 28 29  2  0
 28 30  1  0
 30 31  1  0
 31 32  1  0
 31 33  1  0
 31 34  1  0
 30 35  1  0
 35 36  1  0
 35 37  1  0
 35 38  1  0
 38 39  1  0
 38 40  1  0
 38 41  1  0
 41 42  1  0
 42 43  1  0
 42 44  1  0
 42 45  1  0
 41 46  1  0
 46 47  1  0
 46 48  1  0
 46 49  1  0
 27 50  2  0
 50 51  1  0
 19 52  1  0
 52 53  2  0
 53 54  1  0
 53 55  1  0
  8  3  2  0
 52 11  1  0
 50 20  1  0
M  CHG  2   4  -1   7  -1
M  END
>  <UniqueID>  (84) 
79

>  <SMILES>  (84) 
C=c1/c(=C\c2[n-]c(=O)[n-]c2O)cc(C)n1-c1cccc(C(=O)N(C)CCN(C)C)c1

>  <Energy>  (84) 
130.1581093211262

>  <Genealogy>  (84) 
C=c1c(=Cc2[n-]c(=O)[n-]c2O)cc(C)n1-c1cccc(C(=O)N(C)CCN(C)C)c1 (protonated)
C=c1/c(=C\c2[n-]c(=O)[n-]c2O)cc(C)n1-c1cccc(C(=O)N(C)CCN(C)C)c1 (cis-trans isomerization)
C=c1/c(=C\c2[n-]c(=O)[n-]c2O)cc(C)n1-c1cccc(C(=O)N(C)CCN(C)C)c1 (3D coordinates assigned)
C=c1/c(=C\c2[n-]c(=O)[n-]c2O)cc(C)n1-c1cccc(C(=O)N(C)CCN(C)C)c1 (optimized conformer: 130.1581093211262 kcal/mol)

>  <smiles>  (84) 
C=c1c(=Cc2[nH]c(=O)[nH]c2O)cc(C)n1-c1cccc(C(=O)N(C)CCN(C)C)c1

>  <score_type>  (84) 
oracle

>  <origin>  (84) 
adg

>  <m_score__min__energy>  (84) 
-13.710000000000001

>  <m_primary>  (84) 
energy

$$$$
84:0
     RDKit          3D

 41 43  0  0  0  0  0  0  0  0999 V2000
   53.3414   25.0243   45.1904 H   0  0  0  0  0  0  0  0  0  0  0  0
   53.9620   24.2020   45.5760 C   0  0  0  0  0  0  0  0  0  0  0  0
   53.6620   23.0150   45.2770 O   0  0  0  0  0  0  0  0  0  0  0  0
   55.0930   24.5100   46.4070 N   0  0  0  0  0  0  0  0  0  0  0  0
   55.9130   25.5110   46.2680 C   0  0  0  0  0  0  0  0  0  0  0  0
   55.4440   26.6860   45.7750 N   0  0  0  0  0  0  0  0  0  0  0  0
   56.2710   27.7510   45.6220 C   0  0  0  0  0  0  0  0  0  0  0  0
   55.7990   28.8570   45.1260 N   0  0  0  0  0  0  0  0  0  0  0  0
   56.5500   29.9100   44.4970 C   0  0  0  0  0  0  0  0  0  0  0  0
   56.3400   30.1630   43.1340 C   0  0  0  0  0  0  0  0  0  0  0  0
   55.6278   29.5456   42.5670 H   0  0  0  0  0  0  0  0  0  0  0  0
   57.0300   31.1950   42.4910 C   0  0  0  0  0  0  0  0  0  0  0  0
   56.8706   31.3774   41.4180 H   0  0  0  0  0  0  0  0  0  0  0  0
   57.9220   31.9950   43.2100 C   0  0  0  0  0  0  0  0  0  0  0  0
   58.4720   32.8002   42.7009 H   0  0  0  0  0  0  0  0  0  0  0  0
   58.1150   31.7720   44.5750 C   0  0  0  0  0  0  0  0  0  0  0  0
   58.8105   32.4080   45.1422 H   0  0  0  0  0  0  0  0  0  0  0  0
   57.4260   30.7420   45.2220 C   0  0  0  0  0  0  0  0  0  0  0  0
   57.5682   30.5805   46.3007 H   0  0  0  0  0  0  0  0  0  0  0  0
   57.5850   27.6280   45.9500 N   0  0  0  0  0  0  0  0  0  0  0  0
   58.0660   26.4570   46.4460 C   0  0  0  0  0  0  0  0  0  0  0  0
   59.3170   26.3350   46.7720 N   0  0  0  0  0  0  0  0  0  0  0  0
   60.3590   27.2780   46.3760 C   0  0  0  0  0  0  0  0  0  0  0  0
   60.3652   27.3799   45.2807 H   0  0  0  0  0  0  0  0  0  0  0  0
   61.3382   26.9078   46.7137 H   0  0  0  0  0  0  0  0  0  0  0  0
   60.0840   28.6140   47.0020 C   0  0  0  0  0  0  0  0  0  0  0  0
   59.4540   28.6930   48.2530 C   0  0  0  0  0  0  0  0  0  0  0  0
   59.1365   27.7729   48.7654 H   0  0  0  0  0  0  0  0  0  0  0  0
   59.2280   29.9360   48.8510 C   0  0  0  0  0  0  0  0  0  0  0  0
   58.7247   29.9879   49.8277 H   0  0  0  0  0  0  0  0  0  0  0  0
   59.6370   31.1160   48.2170 C   0  0  0  0  0  0  0  0  0  0  0  0
   59.3870   32.3380   48.8590 O   0  0  0  0  0  0  0  0  0  0  0  0
   59.3230   33.5950   48.1940 C   0  0  0  0  0  0  0  0  0  0  0  0
   59.2819   34.4026   48.9397 H   0  0  0  0  0  0  0  0  0  0  0  0
   60.2158   33.7225   47.5642 H   0  0  0  0  0  0  0  0  0  0  0  0
   58.4219   33.6312   47.5642 H   0  0  0  0  0  0  0  0  0  0  0  0
   60.2830   31.0350   46.9680 C   0  0  0  0  0  0  0  0  0  0  0  0
   60.6119   31.9541   46.4610 H   0  0  0  0  0  0  0  0  0  0  0  0
   60.5080   29.7920   46.3700 C   0  0  0  0  0  0  0  0  0  0  0  0
   61.0205   29.7373   45.3982 H   0  0  0  0  0  0  0  0  0  0  0  0
   57.2270   25.4030   46.6030 N   0  0  0  0  0  0  0  0  0  0  0  0
  1  2  1  0
  2  3  2  0
  2  4  1  0
  4  5  2  3
  5  6  1  0
  6  7  1  0
  7  8  2  0
  8  9  1  0
  9 10  2  0
 10 11  1  0
 10 12  1  0
 12 13  1  0
 12 14  2  0
 14 15  1  0
 14 16  1  0
 16 17  1  0
 16 18  2  0
 18 19  1  0
  7 20  1  0
 20 21  1  0
 21 22  2  0
 22 23  1  0
 23 24  1  0
 23 25  1  0
 23 26  1  0
 26 27  2  0
 27 28  1  0
 27 29  1  0
 29 30  1  0
 29 31  2  0
 31 32  1  0
 32 33  1  0
 33 34  1  0
 33 35  1  0
 33 36  1  0
 31 37  1  0
 37 38  1  0
 37 39  2  0
 39 40  1  0
 21 41  1  0
 41  5  1  0
 18  9  1  0
 39 26  1  0
M  CHG  3   6  -1  20  -1  41  -1
M  END
>  <UniqueID>  (85) 
80

>  <SMILES>  (85) 
COc1ccc(C/N=c2/[n-]c(=NC=O)[n-]/c(=N/c3ccccc3)[n-]2)cc1

>  <Energy>  (85) 
50.22744767689149

>  <Genealogy>  (85) 
COc1ccc(CN=c2[n-]c(=NC=O)[n-]c(=Nc3ccccc3)[n-]2)cc1 (protonated)
COc1ccc(C/N=c2/[n-]c(=NC=O)[n-]/c(=N/c3ccccc3)[n-]2)cc1 (cis-trans isomerization)
COc1ccc(C/N=c2/[n-]c(=NC=O)[n-]/c(=N/c3ccccc3)[n-]2)cc1 (3D coordinates assigned)
COc1ccc(C/N=c2/[n-]c(=NC=O)[n-]/c(=N/c3ccccc3)[n-]2)cc1 (optimized conformer: 50.22744767689149 kcal/mol)

>  <smiles>  (85) 
COc1ccc(CN=c2[nH]c(=NC=O)[nH]c(=Nc3ccccc3)[nH]2)cc1

>  <score_type>  (85) 
oracle

>  <origin>  (85) 
adg

>  <m_score__min__energy>  (85) 
-12.23

>  <m_primary>  (85) 
energy

$$$$
85:0
     RDKit          3D

 16 16  0  0  0  0  0  0  0  0999 V2000
   56.3760   25.3760   46.6330 O   0  0  0  0  0  0  0  0  0  0  0  0
   55.7810   26.3550   46.1130 C   0  0  0  0  0  0  0  0  0  0  0  0
   54.3960   26.3310   45.9920 O   0  0  0  0  0  0  0  0  0  0  0  0
   56.5410   27.5150   45.6370 C   0  0  0  0  0  0  0  0  0  0  0  0
   57.7940   27.4340   45.5350 O   0  0  0  0  0  0  0  0  0  0  0  0
   55.8470   28.7060   45.2450 N   0  0  0  0  0  0  0  0  0  0  0  0
   56.4250   29.8750   44.6450 C   0  0  0  0  0  0  0  0  0  0  0  0
   56.4150   30.0840   43.2580 C   0  0  0  0  0  0  0  0  0  0  0  0
   57.0210   31.2340   42.7500 C   0  0  0  0  0  0  0  0  0  0  0  0
   57.0230   31.4470   41.5090 O   0  0  0  0  0  0  0  0  0  0  0  0
   57.6130   32.1210   43.5950 N   0  0  0  0  0  0  0  0  0  0  0  0
   57.6330   31.8930   44.9370 C   0  0  0  0  0  0  0  0  0  0  0  0
   58.1940   32.7140   45.7100 O   0  0  0  0  0  0  0  0  0  0  0  0
   57.0490   30.7790   45.4470 N   0  0  0  0  0  0  0  0  0  0  0  0
   55.9391   29.3562   42.5843 H   0  0  0  0  0  0  0  0  0  0  0  0
   58.0650   32.9820   43.2090 H   0  0  0  0  0  0  0  0  0  0  0  0
  1  2  2  0
  2  3  1  0
  2  4  1  0
  4  5  2  0
  4  6  1  0
  6  7  1  0
  7  8  2  0
  8  9  1  0
  9 10  2  0
  9 11  1  0
 11 12  1  0
 12 13  2  0
 12 14  1  0
 14  7  1  0
  8 15  1  0
 11 16  1  0
M  CHG  3   3  -1   6  -1  14  -1
M  END
>  <UniqueID>  (86) 
81

>  <SMILES>  (86) 
O=C([O-])C(=O)[N-]c1cc(=O)[nH]c(=O)[n-]1

>  <Energy>  (86) 
17.751303469782258

>  <Genealogy>  (86) 
O=C([O-])C(=O)[N-]c1cc(=O)[nH]c(=O)[n-]1 (protonated)
O=C([O-])C(=O)[N-]c1cc(=O)[nH]c(=O)[n-]1 (3D coordinates assigned)
O=C([O-])C(=O)[N-]c1cc(=O)[nH]c(=O)[n-]1 (optimized conformer: 17.751303469782258 kcal/mol)

>  <smiles>  (86) 
O=C(O)C(=O)Nc1cc(=O)[nH]c(=O)[nH]1

>  <score_type>  (86) 
oracle

>  <origin>  (86) 
adg

>  <m_score__min__energy>  (86) 
-11.69

>  <m_primary>  (86) 
energy

$$$$
86:0
     RDKit          3D

 50 54  0  0  1  0  0  0  0  0999 V2000
   56.8530   25.1340   43.8750 N   0  0  0  0  0  0  0  0  0  0  0  0
   56.9810   24.8700   45.5650 S   0  0  0  0  0  0  0  0  0  0  0  0
   55.5930   24.9080   46.1240 O   0  0  0  0  0  0  0  0  0  0  0  0
   57.5430   23.4890   45.8060 O   0  0  0  0  0  0  0  0  0  0  0  0
   57.9930   26.0630   46.3310 C   0  0  0  0  0  0  0  0  0  0  0  0
   57.4550   27.0820   47.0870 C   0  0  0  0  0  0  0  0  0  0  0  0
   58.2470   28.0320   47.6980 C   0  0  0  0  0  0  0  0  0  0  0  0
   59.6230   27.9520   47.5430 C   0  0  0  0  0  0  0  0  0  0  0  0
   60.4280   28.9350   48.1760 N   0  0  0  0  0  0  0  0  0  0  0  0
   58.2540   32.3780   45.7700 C   0  0  0  0  0  0  0  0  0  0  0  0
   58.5100   33.7130   45.7540 C   0  0  0  0  0  0  0  0  0  0  0  0
   60.9650   32.4980   48.0080 C   0  0  0  0  0  0  0  0  0  0  0  0
   61.8060   33.5250   48.5320 N   0  0  0  0  0  0  0  0  0  0  0  0
   63.0440   33.8980   47.8920 C   0  0  0  0  0  0  0  0  0  0  0  0
   62.9610   33.8600   46.3620 C   0  0  0  0  0  0  0  0  0  0  0  0
   63.8870   32.9770   47.1310 C   0  0  0  0  0  0  0  0  0  0  0  0
   59.9750   32.8090   47.1290 N   0  0  0  0  0  0  0  0  0  0  0  0
   59.5460   33.9130   46.5820 N   0  0  0  0  0  0  0  0  0  0  0  0
   61.0990   31.1680   48.3490 C   0  0  0  0  0  0  0  0  0  0  0  0
   60.2930   30.1680   47.8500 C   0  0  0  0  0  0  0  0  0  0  0  0
   57.2950   31.7860   45.0750 C   0  0  0  0  0  0  0  0  0  0  0  0
   57.4800   30.3860   44.7100 C   0  0  0  0  0  0  0  0  0  0  0  0
   58.6740   29.8510   44.4120 N   0  0  0  0  0  0  0  0  0  0  0  0
   58.4910   28.5540   44.1250 C   0  0  0  0  0  0  0  0  0  0  0  0
   59.4030   27.7630   43.8050 O   0  0  0  0  0  0  0  0  0  0  0  0
   57.1830   28.2920   44.2470 N   0  0  0  0  0  0  0  0  0  0  0  0
   56.5060   29.4030   44.6110 C   0  0  0  0  0  0  0  0  0  0  0  0
   55.1450   29.5510   44.8400 O   0  0  0  0  0  0  0  0  0  0  0  0
   59.1780   31.8210   46.6370 C   0  0  0  0  0  0  0  0  0  0  0  0
   59.3320   30.5320   46.9880 N   0  0  0  0  0  0  0  0  0  0  0  0
   60.1810   26.9310   46.7840 C   0  0  0  0  0  0  0  0  0  0  0  0
   59.3670   25.9780   46.1740 C   0  0  0  0  0  0  0  0  0  0  0  0
   57.2020   26.0890   43.6380 H   0  0  0  0  0  0  0  0  0  0  0  0
   55.9200   24.9110   43.4970 H   0  0  0  0  0  0  0  0  0  0  0  0
   56.3630   27.1395   47.2066 H   0  0  0  0  0  0  0  0  0  0  0  0
   57.7960   28.8373   48.2965 H   0  0  0  0  0  0  0  0  0  0  0  0
   57.9728   34.4790   45.1755 H   0  0  0  0  0  0  0  0  0  0  0  0
   61.4550   33.9890   49.4230 H   0  0  0  0  0  0  0  0  0  0  0  0
   63.2987   34.5908   48.7076 H   0  0  0  0  0  0  0  0  0  0  0  0
   62.0760   33.4378   45.8635 H   0  0  0  0  0  0  0  0  0  0  0  0
   63.0611   34.5913   45.5464 H   0  0  0  0  0  0  0  0  0  0  0  0
   63.6911   31.8957   47.1794 H   0  0  0  0  0  0  0  0  0  0  0  0
   64.9702   32.7892   47.0922 H   0  0  0  0  0  0  0  0  0  0  0  0
   61.8928   30.8906   49.0582 H   0  0  0  0  0  0  0  0  0  0  0  0
   56.3868   32.3331   44.7819 H   0  0  0  0  0  0  0  0  0  0  0  0
   59.5970   30.3420   44.4000 H   0  0  0  0  0  0  0  0  0  0  0  0
   56.7730   27.3520   44.0790 H   0  0  0  0  0  0  0  0  0  0  0  0
   54.7250   28.9650   45.5440 H   0  0  0  0  0  0  0  0  0  0  0  0
   61.2729   26.8742   46.6636 H   0  0  0  0  0  0  0  0  0  0  0  0
   59.8100   25.1684   45.5754 H   0  0  0  0  0  0  0  0  0  0  0  0
  1  2  1  0
  2  3  2  0
  2  4  2  0
  2  5  1  0
  5  6  2  0
  6  7  1  0
  7  8  2  0
  8  9  1  0
  9 10  2  0
 10 11  1  0
 11 12  2  0
 12 13  1  0
 13 14  1  0
 14 15  1  0
 15 16  1  0
 12 17  1  0
 17 18  1  0
 18 19  2  0
 19 20  1  0
 20 21  2  0
 21 22  1  0
 22 23  1  0
 23 24  1  0
 24 25  2  0
 24 26  1  0
 26 27  1  0
 27 28  1  0
 20 29  1  0
 29 30  2  0
  8 31  1  0
 31 32  2  0
 32  5  1  0
 30 10  1  0
 16 14  1  0
 29 17  1  0
 27 22  2  0
  1 33  1  0
  1 34  1  0
  6 35  1  0
  7 36  1  0
 11 37  1  0
 13 38  1  0
 14 39  1  0
 15 40  1  0
 15 41  1  0
 16 42  1  0
 16 43  1  0
 19 44  1  0
 21 45  1  0
 23 46  1  0
 26 47  1  0
 28 48  1  0
 31 49  1  0
 32 50  1  0
M  END
>  <smiles>  (87) 
NS(=O)(=O)c1ccc(N=c2cc(NC3CC3)n3ncc(=Cc4[nH]c(=O)[nH]c4O)c3n2)cc1

>  <score_type>  (87) 
oracle

>  <origin>  (87) 
adg

>  <m_score__min__energy>  (87) 
-10.210000000000001

>  <m_primary>  (87) 
energy

$$$$
87:0
     RDKit          3D

 58 61  0  0  0  0  0  0  0  0999 V2000
   55.1420   28.1790   45.6820 H   0  0  0  0  0  0  0  0  0  0  0  0
   55.3940   29.0140   45.1710 O   0  0  0  0  0  0  0  0  0  0  0  0
   56.6560   29.6010   45.2670 C   0  0  0  0  0  0  0  0  0  0  0  0
   56.8390   30.8410   44.7490 N   0  0  0  0  0  0  0  0  0  0  0  0
   58.0230   31.4910   44.8760 C   0  0  0  0  0  0  0  0  0  0  0  0
   58.2200   33.1120   44.1480 S   0  0  0  0  0  0  0  0  0  0  0  0
   57.2740   34.0290   45.4250 C   0  0  0  0  0  0  0  0  0  0  0  0
   56.2368   33.6631   45.4083 H   0  0  0  0  0  0  0  0  0  0  0  0
   57.3683   35.0945   45.1683 H   0  0  0  0  0  0  0  0  0  0  0  0
   57.7960   33.8900   46.8360 C   0  0  0  0  0  0  0  0  0  0  0  0
   57.2060   33.0900   47.6100 O   0  0  0  0  0  0  0  0  0  0  0  0
   58.9330   34.6040   47.3430 N   0  0  0  0  0  0  0  0  0  0  0  0
   60.2940   34.1620   47.4270 C   0  0  0  0  0  0  0  0  0  0  0  0
   61.1440   34.2010   46.3120 C   0  0  0  0  0  0  0  0  0  0  0  0
   60.7768   34.6036   45.3565 H   0  0  0  0  0  0  0  0  0  0  0  0
   62.4530   33.7310   46.4110 C   0  0  0  0  0  0  0  0  0  0  0  0
   63.1128   33.7563   45.5312 H   0  0  0  0  0  0  0  0  0  0  0  0
   62.9280   33.2290   47.6220 C   0  0  0  0  0  0  0  0  0  0  0  0
   63.9531   32.8352   47.6860 H   0  0  0  0  0  0  0  0  0  0  0  0
   62.1070   33.2230   48.7590 C   0  0  0  0  0  0  0  0  0  0  0  0
   62.7180   32.5410   50.2730 S   0  0  0  0  0  0  0  0  0  0  0  0
   62.7430   33.6000   51.3410 O   0  0  0  0  0  0  0  0  0  0  0  0
   61.7950   31.4350   50.7060 O   0  0  0  0  0  0  0  0  0  0  0  0
   64.3320   31.9130   50.0090 N   0  0  0  0  0  0  0  0  0  0  0  0
   65.3090   32.9870   49.7260 C   0  0  0  0  0  0  0  0  0  0  0  0
   65.9777   32.6509   48.9199 H   0  0  0  0  0  0  0  0  0  0  0  0
   64.7420   33.8841   49.4367 H   0  0  0  0  0  0  0  0  0  0  0  0
   66.1620   33.3520   50.9530 C   0  0  0  0  0  0  0  0  0  0  0  0
   67.0409   32.6918   50.9938 H   0  0  0  0  0  0  0  0  0  0  0  0
   66.4834   34.4005   50.8675 H   0  0  0  0  0  0  0  0  0  0  0  0
   65.4080   33.1970   52.1340 O   0  0  0  0  0  0  0  0  0  0  0  0
   65.1580   31.8240   52.3770 C   0  0  0  0  0  0  0  0  0  0  0  0
   66.0695   31.3740   52.7973 H   0  0  0  0  0  0  0  0  0  0  0  0
   64.3055   31.7700   53.0701 H   0  0  0  0  0  0  0  0  0  0  0  0
   64.7610   31.0300   51.1080 C   0  0  0  0  0  0  0  0  0  0  0  0
   65.6283   30.4426   50.7722 H   0  0  0  0  0  0  0  0  0  0  0  0
   63.9129   30.3797   51.3687 H   0  0  0  0  0  0  0  0  0  0  0  0
   60.7930   33.7280   48.6680 C   0  0  0  0  0  0  0  0  0  0  0  0
   59.7540   33.8250   50.0920 Cl  0  0  0  0  0  0  0  0  0  0  0  0
   59.0440   30.9180   45.5640 N   0  0  0  0  0  0  0  0  0  0  0  0
   58.9230   29.6670   46.0770 C   0  0  0  0  0  0  0  0  0  0  0  0
   59.8950   29.1480   46.6880 O   0  0  0  0  0  0  0  0  0  0  0  0
   57.7320   28.9510   45.9010 C   0  0  0  0  0  0  0  0  0  0  0  0
   57.6460   27.5830   46.3370 N   0  0  0  0  0  0  0  0  0  0  0  0
   56.5830   26.8720   46.2960 N   0  0  0  0  0  0  0  0  0  0  0  0
   56.4420   25.6280   45.5890 C   0  0  0  0  0  0  0  0  0  0  0  0
   57.4810   25.1930   44.7600 C   0  0  0  0  0  0  0  0  0  0  0  0
   58.3809   25.8143   44.6405 H   0  0  0  0  0  0  0  0  0  0  0  0
   57.3840   23.9740   44.0820 C   0  0  0  0  0  0  0  0  0  0  0  0
   58.2165   23.6337   43.4486 H   0  0  0  0  0  0  0  0  0  0  0  0
   56.2300   23.1800   44.2040 C   0  0  0  0  0  0  0  0  0  0  0  0
   56.1300   21.8800   43.5080 C   0  0  0  0  0  0  0  0  0  0  0  0
   56.2430   21.8130   42.2550 O   0  0  0  0  0  0  0  0  0  0  0  0
   55.9150   20.7090   44.2280 O   0  0  0  0  0  0  0  0  0  0  0  0
   55.1680   23.6410   45.0010 C   0  0  0  0  0  0  0  0  0  0  0  0
   54.2522   23.0386   45.0926 H   0  0  0  0  0  0  0  0  0  0  0  0
   55.2680   24.8600   45.6780 C   0  0  0  0  0  0  0  0  0  0  0  0
   54.4234   25.2202   46.2837 H   0  0  0  0  0  0  0  0  0  0  0  0
  1  2  1  0
  2  3  1  0
  3  4  1  0
  4  5  1  0
  5  6  1  0
  6  7  1  0
  7  8  1  0
  7  9  1  0
  7 10  1  0
 10 11  2  0
 10 12  1  0
 12 13  1  0
 13 14  2  0
 14 15  1  0
 14 16  1  0
 16 17  1  0
 16 18  2  0
 18 19  1  0
 18 20  1  0
 20 21  1  0
 21 22  2  0
 21 23  2  0
 21 24  1  0
 24 25  1  0
 25 26  1  0
 25 27  1  0
 25 28  1  0
 28 29  1  0
 28 30  1  0
 28 31  1  0
 31 32  1  0
 32 33  1  0
 32 34  1  0
 32 35  1  0
 35 36  1  0
 35 37  1  0
 20 38  2  0
 38 39  1  0
  5 40  2  0
 40 41  1  0
 41 42  2  0
 41 43  1  0
 43 44  1  0
 44 45  2  0
 45 46  1  0
 46 47  2  0
 47 48  1  0
 47 49  1  0
 49 50  1  0
 49 51  2  0
 51 52  1  0
 52 53  2  0
 52 54  1  0
 51 55  1  0
 55 56  1  0
 55 57  2  0
 57 58  1  0
 43  3  2  0
 57 46  1  0
 38 13  1  0
 35 24  1  0
M  CHG  3   4  -1  12  -1  54  -1
M  END
>  <UniqueID>  (88) 
82

>  <SMILES>  (88) 
O=C(CSc1nc(=O)c(/N=N\c2ccc(C(=O)[O-])cc2)c(O)[n-]1)[N-]c1cccc(S(=O)(=O)N2CCOCC2)c1Cl

>  <Energy>  (88) 
90.0623503551177

>  <Genealogy>  (88) 
O=C(CSc1nc(=O)c(N=Nc2ccc(C(=O)[O-])cc2)c(O)[n-]1)[N-]c1cccc(S(=O)(=O)N2CCOCC2)c1Cl (protonated)
O=C(CSc1nc(=O)c(/N=N\c2ccc(C(=O)[O-])cc2)c(O)[n-]1)[N-]c1cccc(S(=O)(=O)N2CCOCC2)c1Cl (cis-trans isomerization)
O=C(CSc1nc(=O)c(/N=N\c2ccc(C(=O)[O-])cc2)c(O)[n-]1)[N-]c1cccc(S(=O)(=O)N2CCOCC2)c1Cl (3D coordinates assigned)
O=C(CSc1nc(=O)c(/N=N\c2ccc(C(=O)[O-])cc2)c(O)[n-]1)[N-]c1cccc(S(=O)(=O)N2CCOCC2)c1Cl (nonaromatic ring conformer: 90.0623503551177 kcal/mol)

>  <smiles>  (88) 
O=C(CSc1nc(=O)c(N=Nc2ccc(C(=O)O)cc2)c(O)[nH]1)Nc1cccc(S(=O)(=O)N2CCOCC2)c1Cl

>  <score_type>  (88) 
oracle

>  <origin>  (88) 
adg

>  <m_score__min__energy>  (88) 
-15.699999999999999

>  <m_primary>  (88) 
energy

$$$$
88:0
     RDKit          3D

 49 52  0  0  0  0  0  0  0  0999 V2000
   54.7920   26.7040   45.2570 H   0  0  0  0  0  0  0  0  0  0  0  0
   54.2490   25.9620   45.7530 N   0  0  0  0  0  0  0  0  0  0  0  0
   55.2140   24.5300   45.7300 S   0  0  0  0  0  0  0  0  0  0  0  0
   54.8020   23.6270   46.8580 O   0  0  0  0  0  0  0  0  0  0  0  0
   55.0010   23.8050   44.4300 O   0  0  0  0  0  0  0  0  0  0  0  0
   56.9130   24.9620   45.9040 C   0  0  0  0  0  0  0  0  0  0  0  0
   57.9130   24.0600   45.5220 C   0  0  0  0  0  0  0  0  0  0  0  0
   57.6384   23.0725   45.1228 H   0  0  0  0  0  0  0  0  0  0  0  0
   59.2590   24.4120   45.6470 C   0  0  0  0  0  0  0  0  0  0  0  0
   60.0424   23.6993   45.3498 H   0  0  0  0  0  0  0  0  0  0  0  0
   59.6130   25.6680   46.1490 C   0  0  0  0  0  0  0  0  0  0  0  0
   60.6748   25.9384   46.2458 H   0  0  0  0  0  0  0  0  0  0  0  0
   58.6200   26.5880   46.5310 C   0  0  0  0  0  0  0  0  0  0  0  0
   58.9950   27.9240   47.0610 C   0  0  0  0  0  0  0  0  0  0  0  0
   59.7830   28.0440   48.2130 C   0  0  0  0  0  0  0  0  0  0  0  0
   60.1245   27.1403   48.7390 H   0  0  0  0  0  0  0  0  0  0  0  0
   58.5270   31.6500   44.8560 N   0  0  0  0  0  0  0  0  0  0  0  0
   58.1270   32.7420   44.1480 C   0  0  0  0  0  0  0  0  0  0  0  0
   58.2150   32.7070   42.8490 N   0  0  0  0  0  0  0  0  0  0  0  0
   61.2830   32.3070   48.4010 C   0  0  0  0  0  0  0  0  0  0  0  0
   62.2230   31.9380   47.4190 C   0  0  0  0  0  0  0  0  0  0  0  0
   62.0411   31.0531   46.7914 H   0  0  0  0  0  0  0  0  0  0  0  0
   63.3860   32.6920   47.2390 C   0  0  0  0  0  0  0  0  0  0  0  0
   64.1237   32.3900   46.4810 H   0  0  0  0  0  0  0  0  0  0  0  0
   63.6140   33.8280   48.0190 C   0  0  0  0  0  0  0  0  0  0  0  0
   64.5354   34.4133   47.8833 H   0  0  0  0  0  0  0  0  0  0  0  0
   62.6700   34.2200   48.9720 C   0  0  0  0  0  0  0  0  0  0  0  0
   62.8438   35.1218   49.5775 H   0  0  0  0  0  0  0  0  0  0  0  0
   61.5050   33.4690   49.1580 C   0  0  0  0  0  0  0  0  0  0  0  0
   60.5690   33.8780   50.1010 O   0  0  0  0  0  0  0  0  0  0  0  0
   57.6370   33.8660   44.8430 C   0  0  0  0  0  0  0  0  0  0  0  0
   58.4750   31.5920   46.2170 C   0  0  0  0  0  0  0  0  0  0  0  0
   60.1270   29.2690   48.6830 N   0  0  0  0  0  0  0  0  0  0  0  0
   59.7380   30.4240   48.0750 C   0  0  0  0  0  0  0  0  0  0  0  0
   60.0560   31.5810   48.5880 N   0  0  0  0  0  0  0  0  0  0  0  0
   57.4080   31.8840   41.9540 C   0  0  0  0  0  0  0  0  0  0  0  0
   56.7599   31.2231   42.5483 H   0  0  0  0  0  0  0  0  0  0  0  0
   56.7866   32.5331   41.3195 H   0  0  0  0  0  0  0  0  0  0  0  0
   58.0692   31.2755   41.3195 H   0  0  0  0  0  0  0  0  0  0  0  0
   58.9290   30.3630   46.9180 C   0  0  0  0  0  0  0  0  0  0  0  0
   57.3063   34.7585   44.2915 H   0  0  0  0  0  0  0  0  0  0  0  0
   58.5710   29.0970   46.4190 C   0  0  0  0  0  0  0  0  0  0  0  0
   57.9505   29.0262   45.5135 H   0  0  0  0  0  0  0  0  0  0  0  0
   57.9940   32.7010   46.9300 C   0  0  0  0  0  0  0  0  0  0  0  0
   57.9475   32.6750   48.0287 H   0  0  0  0  0  0  0  0  0  0  0  0
   57.5750   33.8370   46.2360 C   0  0  0  0  0  0  0  0  0  0  0  0
   57.1958   34.7097   46.7878 H   0  0  0  0  0  0  0  0  0  0  0  0
   57.2660   26.2240   46.4000 C   0  0  0  0  0  0  0  0  0  0  0  0
   56.4791   26.9361   46.6894 H   0  0  0  0  0  0  0  0  0  0  0  0
  1  2  1  0
  2  3  1  0
  3  4  2  0
  3  5  2  0
  3  6  1  0
  6  7  2  0
  7  8  1  0
  7  9  1  0
  9 10  1  0
  9 11  2  0
 11 12  1  0
 11 13  1  0
 13 14  1  0
 14 15  2  0
 15 16  1  0
 15 17  1  0
 17 18  1  0
 18 19  2  0
 19 20  1  0
 20 21  2  0
 21 22  1  0
 21 23  1  0
 23 24  1  0
 23 25  2  0
 25 26  1  0
 25 27  1  0
 27 28  1  0
 27 29  2  0
 29 30  1  0
 18 31  1  0
 31 32  1  0
 32 33  1  0
 33 34  1  0
 34 35  2  0
 35 36  1  0
 36 37  1  0
 36 38  1  0
 36 39  1  0
 34 40  1  0
 40 41  1  0
 40 42  2  0
 42 43  1  0
 42 44  1  0
 44 45  1  0
 31 46  2  0
 46 47  1  0
 13 48  2  0
 48 49  1  0
 48  6  1  0
 46 14  1  0
 29 20  1  0
 44 32  2  0
M  CHG  4   2  -1  17  -1  30  -1  33  -1
M  END
>  <UniqueID>  (89) 
83

>  <SMILES>  (89) 
C/N=c1\cccc(-c2cc(-c3cccc(S([NH-])(=O)=O)c3)c[n-]/c2=N\c2ccccc2[O-])[n-]1

>  <Energy>  (89) 
73.25571765792427

>  <Genealogy>  (89) 
CN=c1cccc(-c2cc(-c3cccc(S([NH-])(=O)=O)c3)c[n-]c2=Nc2ccccc2[O-])[n-]1 (protonated)
C/N=c1\cccc(-c2cc(-c3cccc(S([NH-])(=O)=O)c3)c[n-]/c2=N\c2ccccc2[O-])[n-]1 (cis-trans isomerization)
C/N=c1\cccc(-c2cc(-c3cccc(S([NH-])(=O)=O)c3)c[n-]/c2=N\c2ccccc2[O-])[n-]1 (3D coordinates assigned)
C/N=c1\cccc(-c2cc(-c3cccc(S([NH-])(=O)=O)c3)c[n-]/c2=N\c2ccccc2[O-])[n-]1 (optimized conformer: 73.25571765792427 kcal/mol)

>  <smiles>  (89) 
CN=c1cccc(-c2cc(-c3cccc(S(N)(=O)=O)c3)c[nH]c2=Nc2ccccc2O)[nH]1

>  <score_type>  (89) 
oracle

>  <origin>  (89) 
adg

>  <m_score__min__energy>  (89) 
-15.65

>  <m_primary>  (89) 
energy

$$$$
89:0
     RDKit          3D

 47 50  0  0  1  0  0  0  0  0999 V2000
   57.9030   26.8170   43.5860 N   0  0  0  0  0  0  0  0  0  0  0  0
   56.8350   30.1060   44.3950 C   0  0  0  0  0  0  0  0  0  0  0  0
   59.1300   28.7070   44.1590 C   0  0  0  0  0  0  0  0  0  0  0  0
   59.1200   30.0410   44.5120 C   0  0  0  0  0  0  0  0  0  0  0  0
   57.9950   30.7670   44.6390 N   0  0  0  0  0  0  0  0  0  0  0  0
   58.0920   32.1290   45.0150 C   0  0  0  0  0  0  0  0  0  0  0  0
   58.1530   32.4410   46.4630 C   0  0  2  0  0  0  0  0  0  0  0  0
   57.8350   33.8400   46.8650 C   0  0  0  0  0  0  0  0  0  0  0  0
   59.1280   34.6300   46.7150 C   0  0  0  0  0  0  0  0  0  0  0  0
   60.1780   33.5970   46.4720 C   0  0  0  0  0  0  0  0  0  0  0  0
   59.5660   32.3630   46.8300 N   0  0  0  0  0  0  0  0  0  0  0  0
   59.7500   31.9610   48.1930 C   0  0  0  0  0  0  0  0  0  0  0  0
   59.8120   30.4780   48.2320 C   0  0  0  0  0  0  0  0  0  0  0  0
   60.5480   29.7760   49.1420 N   0  0  0  0  0  0  0  0  0  0  0  0
   60.4050   28.4610   48.9280 C   0  0  0  0  0  0  0  0  0  0  0  0
   59.5530   28.3540   47.8490 C   0  0  0  0  0  0  0  0  0  0  0  0
   59.0480   27.1550   47.1820 C   0  0  0  0  0  0  0  0  0  0  0  0
   59.9690   26.2840   46.6430 C   0  0  0  0  0  0  0  0  0  0  0  0
   59.5030   25.1400   46.0060 C   0  0  0  0  0  0  0  0  0  0  0  0
   58.1480   24.9100   45.9340 C   0  0  0  0  0  0  0  0  0  0  0  0
   57.2290   25.7910   46.4790 C   0  0  0  0  0  0  0  0  0  0  0  0
   57.6890   26.9240   47.1090 C   0  0  0  0  0  0  0  0  0  0  0  0
   59.2450   29.5790   47.4920 O   0  0  0  0  0  0  0  0  0  0  0  0
   57.9250   28.0800   43.9220 C   0  0  0  0  0  0  0  0  0  0  0  0
   55.7470   30.7260   44.4940 O   0  0  0  0  0  0  0  0  0  0  0  0
   56.8000   28.8070   44.0490 N   0  0  0  0  0  0  0  0  0  0  0  0
   57.0310   26.4910   43.1130 H   0  0  0  0  0  0  0  0  0  0  0  0
   60.0779   28.1562   44.0687 H   0  0  0  0  0  0  0  0  0  0  0  0
   60.0837   30.5371   44.6995 H   0  0  0  0  0  0  0  0  0  0  0  0
   59.0048   32.5332   44.5530 H   0  0  0  0  0  0  0  0  0  0  0  0
   57.1489   32.5800   44.6727 H   0  0  0  0  0  0  0  0  0  0  0  0
   57.4292   31.7546   46.9265 H   0  0  0  0  0  0  0  0  0  0  0  0
   57.0554   34.2569   46.2104 H   0  0  0  0  0  0  0  0  0  0  0  0
   57.4560   33.8841   47.8967 H   0  0  0  0  0  0  0  0  0  0  0  0
   59.0621   35.3237   45.8638 H   0  0  0  0  0  0  0  0  0  0  0  0
   59.3456   35.2438   47.6015 H   0  0  0  0  0  0  0  0  0  0  0  0
   60.4754   33.5888   45.4130 H   0  0  0  0  0  0  0  0  0  0  0  0
   61.0920   33.7903   47.0528 H   0  0  0  0  0  0  0  0  0  0  0  0
   60.6876   32.3838   48.5831 H   0  0  0  0  0  0  0  0  0  0  0  0
   58.9173   32.3241   48.8132 H   0  0  0  0  0  0  0  0  0  0  0  0
   60.8694   27.6399   49.4938 H   0  0  0  0  0  0  0  0  0  0  0  0
   61.0473   26.4889   46.7150 H   0  0  0  0  0  0  0  0  0  0  0  0
   60.2113   24.4244   45.5631 H   0  0  0  0  0  0  0  0  0  0  0  0
   57.7852   24.0020   45.4300 H   0  0  0  0  0  0  0  0  0  0  0  0
   56.1501   25.5883   46.4093 H   0  0  0  0  0  0  0  0  0  0  0  0
   56.9801   27.6397   47.5508 H   0  0  0  0  0  0  0  0  0  0  0  0
   55.8980   28.3030   43.8620 H   0  0  0  0  0  0  0  0  0  0  0  0
  1  2  2  3
  2  3  1  0
  3  4  2  0
  4  5  1  0
  5  6  1  0
  6  7  1  0
  7  8  1  0
  8  9  1  0
  9 10  1  0
 10 11  1  0
 11 12  1  0
 12 13  1  0
 13 14  2  0
 14 15  1  0
 15 16  2  0
 16 17  1  0
 17 18  2  0
 18 19  1  0
 19 20  2  0
 20 21  1  0
 21 22  2  0
 16 23  1  0
  5 24  1  0
 24 25  2  0
 24 26  1  0
 26  2  1  0
 11  7  1  0
 23 13  1  0
 22 17  1  0
  1 27  1  0
  3 28  1  0
  4 29  1  0
  6 30  1  0
  6 31  1  0
  7 32  1  1
  8 33  1  0
  8 34  1  0
  9 35  1  0
  9 36  1  0
 10 37  1  0
 10 38  1  0
 12 39  1  0
 12 40  1  0
 15 41  1  0
 18 42  1  0
 19 43  1  0
 20 44  1  0
 21 45  1  0
 22 46  1  0
 26 47  1  0
M  END
>  <smiles>  (90) 
N=c1ccn(CC2CCCN2Cc2ncc(-c3ccccc3)o2)c(=O)[nH]1

>  <score_type>  (90) 
oracle

>  <origin>  (90) 
adg

>  <m_score__min__energy>  (90) 
-9.2100000000000009

>  <m_primary>  (90) 
energy

$$$$
90:0
     RDKit          3D

 47 49  0  0  0  0  0  0  0  0999 V2000
   60.7140   29.7100   48.3350 C   0  0  0  0  0  0  0  0  0  0  0  0
   59.7830   28.9860   46.9480 S   0  0  0  0  0  0  0  0  0  0  0  0
   59.1820   30.5730   46.3730 C   0  0  0  0  0  0  0  0  0  0  0  0
   57.9500   30.6600   45.8090 N   0  0  0  0  0  0  0  0  0  0  0  0
   57.4630   31.8500   45.3780 C   0  0  0  0  0  0  0  0  0  0  0  0
   56.3160   31.9080   44.8640 O   0  0  0  0  0  0  0  0  0  0  0  0
   58.2300   33.0080   45.5130 C   0  0  0  0  0  0  0  0  0  0  0  0
   59.4930   32.9110   46.1150 C   0  0  0  0  0  0  0  0  0  0  0  0
   60.3430   34.1400   46.3150 C   0  0  0  0  0  0  0  0  0  0  0  0
   61.4920   33.8690   47.2720 C   0  0  0  0  0  0  0  0  0  0  0  0
   62.6880   33.3500   46.7420 C   0  0  0  0  0  0  0  0  0  0  0  0
   63.7720   33.0580   47.5720 C   0  0  0  0  0  0  0  0  0  0  0  0
   63.6780   33.2730   48.9460 C   0  0  0  0  0  0  0  0  0  0  0  0
   62.5010   33.7810   49.4990 C   0  0  0  0  0  0  0  0  0  0  0  0
   62.4320   33.9540   50.8450 F   0  0  0  0  0  0  0  0  0  0  0  0
   61.3970   34.0910   48.6770 C   0  0  0  0  0  0  0  0  0  0  0  0
   60.1220   34.5790   49.3440 C   0  0  0  0  0  0  0  0  0  0  0  0
   59.3390   33.4920   50.0580 C   0  0  0  0  0  0  0  0  0  0  0  0
   58.9260   32.3010   49.4240 C   0  0  0  0  0  0  0  0  0  0  0  0
   58.1450   31.3680   50.1100 C   0  0  0  0  0  0  0  0  0  0  0  0
   57.7610   31.6040   51.4360 C   0  0  0  0  0  0  0  0  0  0  0  0
   56.7870   30.4130   52.2920 S   0  0  0  0  0  0  0  0  0  0  0  0
   56.8410   30.7470   54.0400 C   0  0  0  0  0  0  0  0  0  0  0  0
   57.3240   29.0350   52.0200 O   0  0  0  0  0  0  0  0  0  0  0  0
   55.3590   30.4750   51.8230 O   0  0  0  0  0  0  0  0  0  0  0  0
   58.1780   32.7770   52.0780 C   0  0  0  0  0  0  0  0  0  0  0  0
   58.9520   33.7180   51.3910 C   0  0  0  0  0  0  0  0  0  0  0  0
   59.9480   31.6910   46.5220 N   0  0  0  0  0  0  0  0  0  0  0  0
   60.2778   29.3708   49.2861 H   0  0  0  0  0  0  0  0  0  0  0  0
   61.7647   29.3893   48.2784 H   0  0  0  0  0  0  0  0  0  0  0  0
   60.6620   30.8073   48.2784 H   0  0  0  0  0  0  0  0  0  0  0  0
   57.8518   33.9768   45.1547 H   0  0  0  0  0  0  0  0  0  0  0  0
   60.7526   34.4540   45.3436 H   0  0  0  0  0  0  0  0  0  0  0  0
   59.7121   34.9312   46.7463 H   0  0  0  0  0  0  0  0  0  0  0  0
   62.7698   33.1721   45.6596 H   0  0  0  0  0  0  0  0  0  0  0  0
   64.7015   32.6577   47.1410 H   0  0  0  0  0  0  0  0  0  0  0  0
   64.5341   33.0416   49.5968 H   0  0  0  0  0  0  0  0  0  0  0  0
   60.3912   35.3507   50.0802 H   0  0  0  0  0  0  0  0  0  0  0  0
   59.4728   34.9627   48.5432 H   0  0  0  0  0  0  0  0  0  0  0  0
   59.2211   32.1060   48.3824 H   0  0  0  0  0  0  0  0  0  0  0  0
   57.8297   30.4426   49.6059 H   0  0  0  0  0  0  0  0  0  0  0  0
   56.6896   29.8106   54.5971 H   0  0  0  0  0  0  0  0  0  0  0  0
   57.8200   31.1750   54.3014 H   0  0  0  0  0  0  0  0  0  0  0  0
   56.0467   31.4617   54.3014 H   0  0  0  0  0  0  0  0  0  0  0  0
   57.8960   32.9587   53.1256 H   0  0  0  0  0  0  0  0  0  0  0  0
   59.2610   34.6438   51.8983 H   0  0  0  0  0  0  0  0  0  0  0  0
   60.8920   31.6070   46.9610 H   0  0  0  0  0  0  0  0  0  0  0  0
  1  2  1  0
  2  3  1  0
  3  4  2  0
  4  5  1  0
  5  6  2  0
  5  7  1  0
  7  8  2  0
  8  9  1  0
  9 10  1  0
 10 11  2  0
 11 12  1  0
 12 13  2  0
 13 14  1  0
 14 15  1  0
 14 16  2  0
 16 17  1  0
 17 18  1  0
 18 19  2  0
 19 20  1  0
 20 21  2  0
 21 22  1  0
 22 23  1  0
 22 24  2  0
 22 25  2  0
 21 26  1  0
 26 27  2  0
  8 28  1  0
 28  3  1  0
 16 10  1  0
 27 18  1  0
  1 29  1  0
  1 30  1  0
  1 31  1  0
  7 32  1  0
  9 33  1  0
  9 34  1  0
 11 35  1  0
 12 36  1  0
 13 37  1  0
 17 38  1  0
 17 39  1  0
 19 40  1  0
 20 41  1  0
 23 42  1  0
 23 43  1  0
 23 44  1  0
 26 45  1  0
 27 46  1  0
 28 47  1  0
M  END
>  <UniqueID>  (91) 
84

>  <SMILES>  (91) 
CSc1nc(=O)cc(Cc2cccc(F)c2Cc2ccc(S(C)(=O)=O)cc2)[nH]1

>  <Energy>  (91) 
42.806919002340585

>  <Genealogy>  (91) 
CSc1nc(=O)cc(Cc2cccc(F)c2Cc2ccc(S(C)(=O)=O)cc2)[nH]1 (3D coordinates assigned)
CSc1nc(=O)cc(Cc2cccc(F)c2Cc2ccc(S(C)(=O)=O)cc2)[nH]1 (optimized conformer: 42.806919002340585 kcal/mol)

>  <smiles>  (91) 
CSc1nc(=O)cc(Cc2cccc(F)c2Cc2ccc(S(C)(=O)=O)cc2)[nH]1

>  <score_type>  (91) 
oracle

>  <origin>  (91) 
adg

>  <m_score__min__energy>  (91) 
-9.25

>  <m_primary>  (91) 
energy

$$$$
