0:0
     RDKit          3D

 39 41  0  0  0  0  0  0  0  0999 V2000
   59.9780   30.0310   48.3620 C   0  0  0  0  0  0  0  0  0  0  0  0
   59.6340   29.3960   47.0470 C   0  0  0  0  0  0  0  0  0  0  0  0
   60.6130   29.2610   46.0510 C   0  0  0  0  0  0  0  0  0  0  0  0
   60.2850   28.7050   44.8130 C   0  0  0  0  0  0  0  0  0  0  0  0
   58.9770   28.2860   44.5570 C   0  0  0  0  0  0  0  0  0  0  0  0
   57.9870   28.4100   45.5430 C   0  0  0  0  0  0  0  0  0  0  0  0
   56.5860   27.9210   45.2760 C   0  0  0  0  0  0  0  0  0  0  0  0
   55.7270   29.0020   44.7640 N   0  0  0  0  0  0  0  0  0  0  0  0
   56.1820   29.5240   43.4660 C   0  0  0  0  0  0  0  0  0  0  0  0
   57.0230   30.7480   43.6590 C   0  0  0  0  0  0  0  0  0  0  0  0
   57.3760   31.6500   42.6810 C   0  0  0  0  0  0  0  0  0  0  0  0
   57.9990   32.6390   43.2710 O   0  0  0  0  0  0  0  0  0  0  0  0
   58.0280   32.3710   44.5590 C   0  0  0  0  0  0  0  0  0  0  0  0
   58.6110   33.2730   45.5730 C   0  0  0  0  0  0  0  0  0  0  0  0
   59.0710   34.5480   45.2030 C   0  0  0  0  0  0  0  0  0  0  0  0
   59.5930   35.4160   46.1660 C   0  0  0  0  0  0  0  0  0  0  0  0
   59.6590   35.0210   47.5050 C   0  0  0  0  0  0  0  0  0  0  0  0
   59.2040   33.7540   47.8830 C   0  0  0  0  0  0  0  0  0  0  0  0
   59.2750   33.2620   49.5650 Cl  0  0  0  0  0  0  0  0  0  0  0  0
   58.6850   32.8810   46.9200 C   0  0  0  0  0  0  0  0  0  0  0  0
   57.4330   31.1970   44.8590 N   0  0  0  0  0  0  0  0  0  0  0  0
   58.3180   28.9870   46.7820 C   0  0  0  0  0  0  0  0  0  0  0  0
   59.6291   29.3869   49.1826 H   0  0  0  0  0  0  0  0  0  0  0  0
   61.0683   30.1580   48.4338 H   0  0  0  0  0  0  0  0  0  0  0  0
   59.4889   31.0136   48.4338 H   0  0  0  0  0  0  0  0  0  0  0  0
   61.6429   29.5945   46.2463 H   0  0  0  0  0  0  0  0  0  0  0  0
   61.0578   28.5966   44.0378 H   0  0  0  0  0  0  0  0  0  0  0  0
   58.7221   27.8565   43.5769 H   0  0  0  0  0  0  0  0  0  0  0  0
   56.6252   27.1122   44.5314 H   0  0  0  0  0  0  0  0  0  0  0  0
   56.1594   27.5597   46.2234 H   0  0  0  0  0  0  0  0  0  0  0  0
   54.7740   28.5930   44.6180 H   0  0  0  0  0  0  0  0  0  0  0  0
   56.7767   28.7531   42.9541 H   0  0  0  0  0  0  0  0  0  0  0  0
   55.3024   29.7883   42.8606 H   0  0  0  0  0  0  0  0  0  0  0  0
   57.1725   31.5572   41.6040 H   0  0  0  0  0  0  0  0  0  0  0  0
   59.0201   34.8644   44.1507 H   0  0  0  0  0  0  0  0  0  0  0  0
   59.9527   36.4123   45.8694 H   0  0  0  0  0  0  0  0  0  0  0  0
   60.0688   35.7066   48.2613 H   0  0  0  0  0  0  0  0  0  0  0  0
   58.3332   31.8827   47.2194 H   0  0  0  0  0  0  0  0  0  0  0  0
   57.5402   29.1186   47.5486 H   0  0  0  0  0  0  0  0  0  0  0  0
  1  2  1  0
  2  3  2  0
  3  4  1  0
  4  5  2  0
  5  6  1  0
  6  7  1  0
  7  8  1  0
  8  9  1  0
  9 10  1  0
 10 11  2  0
 11 12  1  0
 12 13  1  0
 13 14  1  0
 14 15  2  0
 15 16  1  0
 16 17  2  0
 17 18  1  0
 18 19  1  0
 18 20  2  0
 13 21  2  0
  6 22  2  0
 22  2  1  0
 21 10  1  0
 20 14  1  0
  1 23  1  0
  1 24  1  0
  1 25  1  0
  3 26  1  0
  4 27  1  0
  5 28  1  0
  7 29  1  0
  7 30  1  0
  8 31  1  0
  9 32  1  0
  9 33  1  0
 11 34  1  0
 15 35  1  0
 16 36  1  0
 17 37  1  0
 20 38  1  0
 22 39  1  0
M  END
>  <UniqueID>  (1) 
1

>  <SMILES>  (1) 
Cc1cccc(CNCc2coc(-c3cccc(Cl)c3)n2)c1

>  <Energy>  (1) 
64.3320847717322

>  <Genealogy>  (1) 
Cc1cccc(CNCc2coc(-c3cccc(Cl)c3)n2)c1 (3D coordinates assigned)
Cc1cccc(CNCc2coc(-c3cccc(Cl)c3)n2)c1 (optimized conformer: 64.3320847717322 kcal/mol)

>  <smiles>  (1) 
Cc1cccc(CNCc2coc(-c3cccc(Cl)c3)n2)c1

>  <score_type>  (1) 
oracle

>  <origin>  (1) 
adg

>  <m_score__min__energy>  (1) 
-8.0299999999999994

>  <m_primary>  (1) 
energy

$$$$
1:0
     RDKit          3D

 45 46  0  0  0  0  0  0  0  0999 V2000
   64.0100   33.3980   47.9010 C   0  0  0  0  0  0  0  0  0  0  0  0
   62.7960   32.6290   47.4840 C   0  0  0  0  0  0  0  0  0  0  0  0
   62.9330   31.4240   47.1430 O   0  0  0  0  0  0  0  0  0  0  0  0
   61.4390   33.2290   47.4820 C   0  0  0  0  0  0  0  0  0  0  0  0
   61.0940   34.0700   46.4090 C   0  0  0  0  0  0  0  0  0  0  0  0
   59.8600   34.7220   46.3800 C   0  0  0  0  0  0  0  0  0  0  0  0
   58.9620   34.5620   47.4330 C   0  0  0  0  0  0  0  0  0  0  0  0
   59.2890   33.7410   48.5120 C   0  0  0  0  0  0  0  0  0  0  0  0
   60.5050   33.0380   48.5360 C   0  0  0  0  0  0  0  0  0  0  0  0
   60.8600   32.3220   49.7730 C   0  0  0  0  0  0  0  0  0  0  0  0
   60.0760   31.4550   50.4350 C   0  0  0  0  0  0  0  0  0  0  0  0
   59.2650   30.3590   49.8560 C   0  0  0  0  0  0  0  0  0  0  0  0
   58.0860   30.2190   50.2770 O   0  0  0  0  0  0  0  0  0  0  0  0
   59.7230   29.4700   48.7340 C   0  0  0  0  0  0  0  0  0  0  0  0
   58.5380   28.9770   47.8940 C   0  0  0  0  0  0  0  0  0  0  0  0
   58.4160   29.7790   46.6210 C   0  0  0  0  0  0  0  0  0  0  0  0
   59.2260   30.9100   46.4380 C   0  0  0  0  0  0  0  0  0  0  0  0
   59.1000   31.6910   45.2910 C   0  0  0  0  0  0  0  0  0  0  0  0
   58.1710   31.3490   44.3110 C   0  0  0  0  0  0  0  0  0  0  0  0
   57.3450   30.2300   44.4730 C   0  0  0  0  0  0  0  0  0  0  0  0
   56.1980   29.7850   43.0030 Br  0  0  0  0  0  0  0  0  0  0  0  0
   57.4450   29.4450   45.6490 C   0  0  0  0  0  0  0  0  0  0  0  0
   56.6280   28.3300   45.8920 O   0  0  0  0  0  0  0  0  0  0  0  0
   57.0670   26.9770   45.8640 C   0  0  0  0  0  0  0  0  0  0  0  0
   55.9560   26.0970   46.3280 C   0  0  0  0  0  0  0  0  0  0  0  0
   54.7700   26.3430   45.9880 O   0  0  0  0  0  0  0  0  0  0  0  0
   56.2340   24.9710   47.0930 O   0  0  0  0  0  0  0  0  0  0  0  0
   64.0633   33.4318   48.9992 H   0  0  0  0  0  0  0  0  0  0  0  0
   64.9102   32.9050   47.5052 H   0  0  0  0  0  0  0  0  0  0  0  0
   63.9489   34.4225   47.5052 H   0  0  0  0  0  0  0  0  0  0  0  0
   61.8051   34.2158   45.5825 H   0  0  0  0  0  0  0  0  0  0  0  0
   59.5966   35.3624   45.5253 H   0  0  0  0  0  0  0  0  0  0  0  0
   57.9939   35.0838   47.4134 H   0  0  0  0  0  0  0  0  0  0  0  0
   58.5872   33.6429   49.3533 H   0  0  0  0  0  0  0  0  0  0  0  0
   61.8582   32.5147   50.1932 H   0  0  0  0  0  0  0  0  0  0  0  0
   60.0313   31.5719   51.5279 H   0  0  0  0  0  0  0  0  0  0  0  0
   60.4103   30.0349   48.0871 H   0  0  0  0  0  0  0  0  0  0  0  0
   60.2282   28.5949   49.1687 H   0  0  0  0  0  0  0  0  0  0  0  0
   58.6913   27.9177   47.6401 H   0  0  0  0  0  0  0  0  0  0  0  0
   57.6146   29.0995   48.4790 H   0  0  0  0  0  0  0  0  0  0  0  0
   59.9657   31.1820   47.2054 H   0  0  0  0  0  0  0  0  0  0  0  0
   59.7353   32.5793   45.1591 H   0  0  0  0  0  0  0  0  0  0  0  0
   58.0856   31.9631   43.4024 H   0  0  0  0  0  0  0  0  0  0  0  0
   57.3509   26.7024   44.8373 H   0  0  0  0  0  0  0  0  0  0  0  0
   57.9385   26.8550   46.5241 H   0  0  0  0  0  0  0  0  0  0  0  0
  1  2  1  0
  2  3  2  0
  2  4  1  0
  4  5  2  0
  5  6  1  0
  6  7  2  0
  7  8  1  0
  8  9  2  0
  9 10  1  0
 10 11  2  3
 11 12  1  0
 12 13  2  0
 12 14  1  0
 14 15  1  0
 15 16  1  0
 16 17  2  0
 17 18  1  0
 18 19  2  0
 19 20  1  0
 20 21  1  0
 20 22  2  0
 22 23  1  0
 23 24  1  0
 24 25  1  0
 25 26  2  0
 25 27  1  0
  9  4  1  0
 22 16  1  0
  1 28  1  0
  1 29  1  0
  1 30  1  0
  5 31  1  0
  6 32  1  0
  7 33  1  0
  8 34  1  0
 10 35  1  0
 11 36  1  0
 14 37  1  0
 14 38  1  0
 15 39  1  0
 15 40  1  0
 17 41  1  0
 18 42  1  0
 19 43  1  0
 24 44  1  0
 24 45  1  0
M  CHG  1  27  -1
M  END
>  <UniqueID>  (2) 
2

>  <SMILES>  (2) 
CC(=O)c1ccccc1C=CC(=O)CCc1cccc(Br)c1OCC(=O)[O-]

>  <Energy>  (2) 
63.583250216664325

>  <Genealogy>  (2) 
CC(=O)c1ccccc1C=CC(=O)CCc1cccc(Br)c1OCC(=O)[O-] (protonated)
CC(=O)c1ccccc1C=CC(=O)CCc1cccc(Br)c1OCC(=O)[O-] (3D coordinates assigned)
CC(=O)c1ccccc1C=CC(=O)CCc1cccc(Br)c1OCC(=O)[O-] (optimized conformer: 63.583250216664325 kcal/mol)

>  <smiles>  (2) 
CC(=O)c1ccccc1C=CC(=O)CCc1cccc(Br)c1OCC(=O)O

>  <score_type>  (2) 
oracle

>  <origin>  (2) 
adg

>  <m_score__min__energy>  (2) 
-12.06

>  <m_primary>  (2) 
energy

$$$$
2:0
     RDKit          3D

 55 57  0  0  0  0  0  0  0  0999 V2000
   59.4760   29.2520   49.4490 C   0  0  0  0  0  0  0  0  0  0  0  0
   58.5800   30.7900   49.8230 S   0  0  0  0  0  0  0  0  0  0  0  0
   59.2790   31.6660   48.4290 C   0  0  0  0  0  0  0  0  0  0  0  0
   58.4700   32.1270   47.4440 N   0  0  0  0  0  0  0  0  0  0  0  0
   58.9990   32.8050   46.3950 C   0  0  0  0  0  0  0  0  0  0  0  0
   57.9310   33.4330   45.1000 S   0  0  0  0  0  0  0  0  0  0  0  0
   57.9300   31.8850   44.1280 C   0  0  0  0  0  0  0  0  0  0  0  0
   56.9990   30.8770   44.7450 C   0  0  0  0  0  0  0  0  0  0  0  0
   55.8720   30.6760   44.2230 O   0  0  0  0  0  0  0  0  0  0  0  0
   57.3390   30.1700   45.9450 N   0  0  0  0  0  0  0  0  0  0  0  0
   58.0390   28.9200   46.0170 C   0  0  0  0  0  0  0  0  0  0  0  0
   57.2960   27.7320   46.0080 C   0  0  0  0  0  0  0  0  0  0  0  0
   57.9420   26.4890   46.0590 C   0  0  0  0  0  0  0  0  0  0  0  0
   57.0170   24.9900   46.0680 S   0  0  0  0  0  0  0  0  0  0  0  0
   57.3100   24.2530   47.3450 O   0  0  0  0  0  0  0  0  0  0  0  0
   55.5430   25.2860   46.0060 O   0  0  0  0  0  0  0  0  0  0  0  0
   57.4820   24.0140   44.6960 N   0  0  0  0  0  0  0  0  0  0  0  0
   56.6940   24.3710   43.4940 C   0  0  0  0  0  0  0  0  0  0  0  0
   55.6230   23.3140   43.1660 C   0  0  0  0  0  0  0  0  0  0  0  0
   56.1640   22.0180   42.9540 O   0  0  0  0  0  0  0  0  0  0  0  0
   57.2890   21.7220   43.7740 C   0  0  0  0  0  0  0  0  0  0  0  0
   57.3860   22.5830   45.0440 C   0  0  0  0  0  0  0  0  0  0  0  0
   59.3400   26.4370   46.0940 C   0  0  0  0  0  0  0  0  0  0  0  0
   60.0880   27.6150   46.0730 C   0  0  0  0  0  0  0  0  0  0  0  0
   59.4470   28.8600   46.0210 C   0  0  0  0  0  0  0  0  0  0  0  0
   60.2040   30.0280   45.9470 O   0  0  0  0  0  0  0  0  0  0  0  0
   60.3370   33.0110   46.3260 N   0  0  0  0  0  0  0  0  0  0  0  0
   61.1570   32.5470   47.3090 C   0  0  0  0  0  0  0  0  0  0  0  0
   62.5780   32.7730   47.2380 N   0  0  0  0  0  0  0  0  0  0  0  0
   63.4860   31.9340   48.0260 C   0  0  0  0  0  0  0  0  0  0  0  0
   63.1030   33.8460   46.3870 C   0  0  0  0  0  0  0  0  0  0  0  0
   60.6180   31.8740   48.3600 N   0  0  0  0  0  0  0  0  0  0  0  0
   59.7640   28.7577   50.3885 H   0  0  0  0  0  0  0  0  0  0  0  0
   58.8269   28.5820   48.8661 H   0  0  0  0  0  0  0  0  0  0  0  0
   60.3790   29.4862   48.8661 H   0  0  0  0  0  0  0  0  0  0  0  0
   57.5998   32.1022   43.1015 H   0  0  0  0  0  0  0  0  0  0  0  0
   58.9486   31.4699   44.1184 H   0  0  0  0  0  0  0  0  0  0  0  0
   56.1979   27.7751   45.9606 H   0  0  0  0  0  0  0  0  0  0  0  0
   56.1969   25.3363   43.6700 H   0  0  0  0  0  0  0  0  0  0  0  0
   57.3859   24.4270   42.6407 H   0  0  0  0  0  0  0  0  0  0  0  0
   54.9128   23.2637   44.0045 H   0  0  0  0  0  0  0  0  0  0  0  0
   55.1348   23.6222   42.2297 H   0  0  0  0  0  0  0  0  0  0  0  0
   57.2273   20.6663   44.0766 H   0  0  0  0  0  0  0  0  0  0  0  0
   58.1845   21.9412   43.1739 H   0  0  0  0  0  0  0  0  0  0  0  0
   56.4895   22.4203   45.6603 H   0  0  0  0  0  0  0  0  0  0  0  0
   58.2889   22.2924   45.6010 H   0  0  0  0  0  0  0  0  0  0  0  0
   59.8512   25.4640   46.1382 H   0  0  0  0  0  0  0  0  0  0  0  0
   61.1866   27.5659   46.0974 H   0  0  0  0  0  0  0  0  0  0  0  0
   59.9660   30.8500   46.4880 H   0  0  0  0  0  0  0  0  0  0  0  0
   63.3037   32.1025   49.0976 H   0  0  0  0  0  0  0  0  0  0  0  0
   63.3083   30.8754   47.7858 H   0  0  0  0  0  0  0  0  0  0  0  0
   64.5273   32.1947   47.7858 H   0  0  0  0  0  0  0  0  0  0  0  0
   63.4987   34.6548   47.0189 H   0  0  0  0  0  0  0  0  0  0  0  0
   63.9088   33.4493   45.7519 H   0  0  0  0  0  0  0  0  0  0  0  0
   62.2953   34.2387   45.7519 H   0  0  0  0  0  0  0  0  0  0  0  0
  1  2  1  0
  2  3  1  0
  3  4  2  0
  4  5  1  0
  5  6  1  0
  6  7  1  0
  7  8  1  0
  8  9  2  0
  8 10  1  0
 10 11  1  0
 11 12  2  0
 12 13  1  0
 13 14  1  0
 14 15  2  0
 14 16  2  0
 14 17  1  0
 17 18  1  0
 18 19  1  0
 19 20  1  0
 20 21  1  0
 21 22  1  0
 13 23  2  0
 23 24  1  0
 24 25  2  0
 25 26  1  0
  5 27  2  0
 27 28  1  0
 28 29  1  0
 29 30  1  0
 29 31  1  0
 28 32  2  0
 32  3  1  0
 25 11  1  0
 22 17  1  0
  1 33  1  0
  1 34  1  0
  1 35  1  0
  7 36  1  0
  7 37  1  0
 12 38  1  0
 18 39  1  0
 18 40  1  0
 19 41  1  0
 19 42  1  0
 21 43  1  0
 21 44  1  0
 22 45  1  0
 22 46  1  0
 23 47  1  0
 24 48  1  0
 26 49  1  0
 30 50  1  0
 30 51  1  0
 30 52  1  0
 31 53  1  0
 31 54  1  0
 31 55  1  0
M  CHG  1  10  -1
M  END
>  <UniqueID>  (3) 
3

>  <SMILES>  (3) 
CSc1nc(SCC(=O)[N-]c2cc(S(=O)(=O)N3CCOCC3)ccc2O)nc(N(C)C)n1

>  <Energy>  (3) 
63.9773149776737

>  <Genealogy>  (3) 
CSc1nc(SCC(=O)[N-]c2cc(S(=O)(=O)N3CCOCC3)ccc2O)nc(N(C)C)n1 (protonated)
CSc1nc(SCC(=O)[N-]c2cc(S(=O)(=O)N3CCOCC3)ccc2O)nc(N(C)C)n1 (3D coordinates assigned)
CSc1nc(SCC(=O)[N-]c2cc(S(=O)(=O)N3CCOCC3)ccc2O)nc(N(C)C)n1 (nonaromatic ring conformer: 63.9773149776737 kcal/mol)

>  <smiles>  (3) 
CSc1nc(SCC(=O)Nc2cc(S(=O)(=O)N3CCOCC3)ccc2O)nc(N(C)C)n1

>  <score_type>  (3) 
oracle

>  <origin>  (3) 
adg

>  <m_score__min__energy>  (3) 
-10.050000000000001

>  <m_primary>  (3) 
energy

$$$$
3:0
     RDKit          3D

 42 44  0  0  0  0  0  0  0  0999 V2000
   57.7840   27.8410   43.1650 C   0  0  0  0  0  0  0  0  0  0  0  0
   58.3850   28.3070   44.4660 C   0  0  0  0  0  0  0  0  0  0  0  0
   59.5800   27.7110   44.9030 C   0  0  0  0  0  0  0  0  0  0  0  0
   60.2000   28.1330   46.0780 C   0  0  0  0  0  0  0  0  0  0  0  0
   59.6430   29.1620   46.8470 C   0  0  0  0  0  0  0  0  0  0  0  0
   60.3100   29.6100   48.0960 C   0  0  0  0  0  0  0  0  0  0  0  0
   60.5940   28.7610   48.9860 O   0  0  0  0  0  0  0  0  0  0  0  0
   60.6430   30.9970   48.3140 N   0  0  0  0  0  0  0  0  0  0  0  0
   61.7690   31.5130   47.7370 C   0  0  0  0  0  0  0  0  0  0  0  0
   62.1260   32.8520   47.9300 C   0  0  0  0  0  0  0  0  0  0  0  0
   63.3450   33.3740   47.2730 C   0  0  0  0  0  0  0  0  0  0  0  0
   63.3060   33.8830   46.1200 O   0  0  0  0  0  0  0  0  0  0  0  0
   61.2990   33.6400   48.7490 C   0  0  0  0  0  0  0  0  0  0  0  0
   61.5660   34.8530   48.9640 O   0  0  0  0  0  0  0  0  0  0  0  0
   60.1940   33.0900   49.3220 N   0  0  0  0  0  0  0  0  0  0  0  0
   59.8620   31.7880   49.1130 C   0  0  0  0  0  0  0  0  0  0  0  0
   58.8200   31.3230   49.6540 O   0  0  0  0  0  0  0  0  0  0  0  0
   58.4310   29.7410   46.4350 C   0  0  0  0  0  0  0  0  0  0  0  0
   57.7870   29.3250   45.2550 C   0  0  0  0  0  0  0  0  0  0  0  0
   56.5050   29.9780   44.8840 C   0  0  0  0  0  0  0  0  0  0  0  0
   55.4160   29.3520   44.9880 O   0  0  0  0  0  0  0  0  0  0  0  0
   56.5010   31.3530   44.4810 N   0  0  0  0  0  0  0  0  0  0  0  0
   57.3990   32.3680   44.9480 C   0  0  0  0  0  0  0  0  0  0  0  0
   57.3970   32.6890   46.3120 C   0  0  0  0  0  0  0  0  0  0  0  0
   58.2670   33.6620   46.8130 C   0  0  0  0  0  0  0  0  0  0  0  0
   59.1610   34.3070   45.9560 C   0  0  0  0  0  0  0  0  0  0  0  0
   59.1950   33.9710   44.6000 C   0  0  0  0  0  0  0  0  0  0  0  0
   58.3250   33.0000   44.0930 C   0  0  0  0  0  0  0  0  0  0  0  0
   58.4340   32.6400   42.7900 F   0  0  0  0  0  0  0  0  0  0  0  0
   56.9302   27.1790   43.3718 H   0  0  0  0  0  0  0  0  0  0  0  0
   57.4412   28.7117   42.5868 H   0  0  0  0  0  0  0  0  0  0  0  0
   58.5419   27.2922   42.5868 H   0  0  0  0  0  0  0  0  0  0  0  0
   60.0318   26.9016   44.3107 H   0  0  0  0  0  0  0  0  0  0  0  0
   61.1348   27.6535   46.4039 H   0  0  0  0  0  0  0  0  0  0  0  0
   62.4034   30.8670   47.1123 H   0  0  0  0  0  0  0  0  0  0  0  0
   64.3073   33.3166   47.8027 H   0  0  0  0  0  0  0  0  0  0  0  0
   59.5850   33.6840   49.9310 H   0  0  0  0  0  0  0  0  0  0  0  0
   57.9768   30.5346   47.0465 H   0  0  0  0  0  0  0  0  0  0  0  0
   56.7058   32.1716   46.9936 H   0  0  0  0  0  0  0  0  0  0  0  0
   58.2472   33.9194   47.8823 H   0  0  0  0  0  0  0  0  0  0  0  0
   59.8386   35.0797   46.3483 H   0  0  0  0  0  0  0  0  0  0  0  0
   59.9084   34.4718   43.9290 H   0  0  0  0  0  0  0  0  0  0  0  0
  1  2  1  0
  2  3  2  0
  3  4  1  0
  4  5  2  0
  5  6  1  0
  6  7  2  0
  6  8  1  0
  8  9  1  0
  9 10  2  0
 10 11  1  0
 11 12  2  0
 10 13  1  0
 13 14  2  0
 13 15  1  0
 15 16  1  0
 16 17  2  0
  5 18  1  0
 18 19  2  0
 19 20  1  0
 20 21  2  0
 20 22  1  0
 22 23  1  0
 23 24  2  0
 24 25  1  0
 25 26  2  0
 26 27  1  0
 27 28  2  0
 28 29  1  0
 19  2  1  0
 28 23  1  0
 16  8  1  0
  1 30  1  0
  1 31  1  0
  1 32  1  0
  3 33  1  0
  4 34  1  0
  9 35  1  0
 11 36  1  0
 15 37  1  0
 18 38  1  0
 24 39  1  0
 25 40  1  0
 26 41  1  0
 27 42  1  0
M  CHG  1  22  -1
M  END
>  <UniqueID>  (4) 
4

>  <SMILES>  (4) 
Cc1ccc(C(=O)n2cc(C=O)c(=O)[nH]c2=O)cc1C(=O)[N-]c1ccccc1F

>  <Energy>  (4) 
64.71387972350463

>  <Genealogy>  (4) 
Cc1ccc(C(=O)n2cc(C=O)c(=O)[nH]c2=O)cc1C(=O)[N-]c1ccccc1F (protonated)
Cc1ccc(C(=O)n2cc(C=O)c(=O)[nH]c2=O)cc1C(=O)[N-]c1ccccc1F (3D coordinates assigned)
Cc1ccc(C(=O)n2cc(C=O)c(=O)[nH]c2=O)cc1C(=O)[N-]c1ccccc1F (optimized conformer: 64.71387972350463 kcal/mol)

>  <smiles>  (4) 
Cc1ccc(C(=O)n2cc(C=O)c(=O)[nH]c2=O)cc1C(=O)Nc1ccccc1F

>  <score_type>  (4) 
oracle

>  <origin>  (4) 
adg

>  <m_score__min__energy>  (4) 
-10.5

>  <m_primary>  (4) 
energy

$$$$
4:0
     RDKit          3D

 50 52  0  0  0  0  0  0  0  0999 V2000
   50.3310   24.9390   43.6890 C   0  0  0  0  0  0  0  0  0  0  0  0
   51.1040   24.4330   44.6490 C   0  0  0  0  0  0  0  0  0  0  0  0
   51.5040   23.0110   44.6780 C   0  0  0  0  0  0  0  0  0  0  0  0
   50.9810   22.1910   43.8770 O   0  0  0  0  0  0  0  0  0  0  0  0
   52.4510   22.5260   45.6390 N   0  0  0  0  0  0  0  0  0  0  0  0
   53.7980   22.9950   45.7710 C   0  0  0  0  0  0  0  0  0  0  0  0
   54.0190   24.3760   45.8460 C   0  0  0  0  0  0  0  0  0  0  0  0
   55.3130   24.8920   45.9800 C   0  0  0  0  0  0  0  0  0  0  0  0
   55.4890   26.3180   46.0010 N   0  0  0  0  0  0  0  0  0  0  0  0
   56.5490   26.9810   45.6380 C   0  0  0  0  0  0  0  0  0  0  0  0
   56.4180   28.2760   45.2510 N   0  0  0  0  0  0  0  0  0  0  0  0
   57.4960   29.0220   44.8780 C   0  0  0  0  0  0  0  0  0  0  0  0
   57.3170   30.3960   44.4830 N   0  0  0  0  0  0  0  0  0  0  0  0
   56.9990   30.7030   43.0870 C   0  0  0  0  0  0  0  0  0  0  0  0
   57.6170   31.4760   45.3890 C   0  0  0  0  0  0  0  0  0  0  0  0
   56.7720   32.3970   45.5600 O   0  0  0  0  0  0  0  0  0  0  0  0
   58.8720   31.5180   46.0870 N   0  0  0  0  0  0  0  0  0  0  0  0
   59.1940   32.5540   47.0260 C   0  0  0  0  0  0  0  0  0  0  0  0
   59.3250   32.2660   48.4010 C   0  0  0  0  0  0  0  0  0  0  0  0
   59.0410   30.6490   49.0330 Cl  0  0  0  0  0  0  0  0  0  0  0  0
   59.6350   33.2920   49.3020 C   0  0  0  0  0  0  0  0  0  0  0  0
   59.8010   34.6020   48.8470 C   0  0  0  0  0  0  0  0  0  0  0  0
   59.6480   34.8960   47.4910 C   0  0  0  0  0  0  0  0  0  0  0  0
   59.3390   33.8810   46.5800 C   0  0  0  0  0  0  0  0  0  0  0  0
   59.1600   34.2890   44.8790 Cl  0  0  0  0  0  0  0  0  0  0  0  0
   58.7720   28.4460   44.9250 C   0  0  0  0  0  0  0  0  0  0  0  0
   58.8930   27.1180   45.3310 C   0  0  0  0  0  0  0  0  0  0  0  0
   57.7860   26.4140   45.6810 N   0  0  0  0  0  0  0  0  0  0  0  0
   56.4040   24.0060   45.9950 C   0  0  0  0  0  0  0  0  0  0  0  0
   56.1930   22.6270   45.9520 C   0  0  0  0  0  0  0  0  0  0  0  0
   54.8920   22.1040   45.8730 C   0  0  0  0  0  0  0  0  0  0  0  0
   54.7050   20.6120   45.8740 C   0  0  0  0  0  0  0  0  0  0  0  0
   50.0578   26.0044   43.7072 H   0  0  0  0  0  0  0  0  0  0  0  0
   49.9660   24.2914   42.8782 H   0  0  0  0  0  0  0  0  0  0  0  0
   51.4576   25.0989   45.4500 H   0  0  0  0  0  0  0  0  0  0  0  0
   53.1629   25.0652   45.7989 H   0  0  0  0  0  0  0  0  0  0  0  0
   56.2081   31.4666   43.0505 H   0  0  0  0  0  0  0  0  0  0  0  0
   57.8988   31.0827   42.5809 H   0  0  0  0  0  0  0  0  0  0  0  0
   56.6512   29.7904   42.5809 H   0  0  0  0  0  0  0  0  0  0  0  0
   59.5420   30.7230   45.9910 H   0  0  0  0  0  0  0  0  0  0  0  0
   59.7482   33.0654   50.3724 H   0  0  0  0  0  0  0  0  0  0  0  0
   60.0526   35.4029   49.5579 H   0  0  0  0  0  0  0  0  0  0  0  0
   59.7710   35.9304   47.1376 H   0  0  0  0  0  0  0  0  0  0  0  0
   59.6614   29.0304   44.6469 H   0  0  0  0  0  0  0  0  0  0  0  0
   59.8836   26.6412   45.3678 H   0  0  0  0  0  0  0  0  0  0  0  0
   57.4294   24.4015   46.0409 H   0  0  0  0  0  0  0  0  0  0  0  0
   57.0541   21.9431   45.9803 H   0  0  0  0  0  0  0  0  0  0  0  0
   54.6595   20.2489   46.9113 H   0  0  0  0  0  0  0  0  0  0  0  0
   53.7682   20.3595   45.3557 H   0  0  0  0  0  0  0  0  0  0  0  0
   55.5505   20.1361   45.3557 H   0  0  0  0  0  0  0  0  0  0  0  0
  1  2  2  0
  2  3  1  0
  3  4  2  0
  3  5  1  0
  5  6  1  0
  6  7  2  0
  7  8  1  0
  8  9  1  0
  9 10  2  3
 10 11  1  0
 11 12  2  0
 12 13  1  0
 13 14  1  0
 13 15  1  0
 15 16  2  0
 15 17  1  0
 17 18  1  0
 18 19  2  0
 19 20  1  0
 19 21  1  0
 21 22  2  0
 22 23  1  0
 23 24  2  0
 24 25  1  0
 12 26  1  0
 26 27  2  0
 27 28  1  0
  8 29  2  0
 29 30  1  0
 30 31  2  0
 31 32  1  0
 31  6  1  0
 28 10  1  0
 24 18  1  0
  1 33  1  0
  1 34  1  0
  2 35  1  0
  7 36  1  0
 14 37  1  0
 14 38  1  0
 14 39  1  0
 17 40  1  0
 21 41  1  0
 22 42  1  0
 23 43  1  0
 26 44  1  0
 27 45  1  0
 29 46  1  0
 30 47  1  0
 32 48  1  0
 32 49  1  0
 32 50  1  0
M  CHG  2   5  -1  28  -1
M  END
>  <UniqueID>  (5) 
5

>  <SMILES>  (5) 
C=CC(=O)[N-]c1cc(N=c2nc(N(C)C(=O)Nc3c(Cl)cccc3Cl)cc[n-]2)ccc1C

>  <Energy>  (5) 
76.5980568129165

>  <Genealogy>  (5) 
C=CC(=O)[N-]c1cc(N=c2nc(N(C)C(=O)Nc3c(Cl)cccc3Cl)cc[n-]2)ccc1C (protonated)
C=CC(=O)[N-]c1cc(N=c2nc(N(C)C(=O)Nc3c(Cl)cccc3Cl)cc[n-]2)ccc1C (3D coordinates assigned)
C=CC(=O)[N-]c1cc(N=c2nc(N(C)C(=O)Nc3c(Cl)cccc3Cl)cc[n-]2)ccc1C (optimized conformer: 76.5980568129165 kcal/mol)

>  <smiles>  (5) 
C=CC(=O)Nc1cc(N=c2nc(N(C)C(=O)Nc3c(Cl)cccc3Cl)cc[nH]2)ccc1C

>  <score_type>  (5) 
oracle

>  <origin>  (5) 
adg

>  <m_score__min__energy>  (5) 
-12.210000000000001

>  <m_primary>  (5) 
energy

$$$$
5:0
     RDKit          3D

 35 37  0  0  0  0  0  0  0  0999 V2000
   54.7600   29.3050   44.1490 O   0  0  0  0  0  0  0  0  0  0  0  0
   55.9860   29.3510   44.4370 C   0  0  0  0  0  0  0  0  0  0  0  0
   56.5580   28.2580   45.1710 N   0  0  0  0  0  0  0  0  0  0  0  0
   57.8880   28.1990   45.7060 C   0  0  0  0  0  0  0  0  0  0  0  0
   58.0620   27.8470   47.0510 C   0  0  0  0  0  0  0  0  0  0  0  0
   59.3440   27.7780   47.6020 C   0  0  0  0  0  0  0  0  0  0  0  0
   60.4630   28.0460   46.8100 C   0  0  0  0  0  0  0  0  0  0  0  0
   60.3050   28.3750   45.4590 C   0  0  0  0  0  0  0  0  0  0  0  0
   61.4300   28.6290   44.6780 O   0  0  0  0  0  0  0  0  0  0  0  0
   59.0190   28.4420   44.9050 C   0  0  0  0  0  0  0  0  0  0  0  0
   56.7780   30.5450   44.0560 C   0  0  0  0  0  0  0  0  0  0  0  0
   56.9570   30.8660   42.7010 C   0  0  0  0  0  0  0  0  0  0  0  0
   57.7130   31.9790   42.3330 C   0  0  0  0  0  0  0  0  0  0  0  0
   58.2940   32.7890   43.3110 C   0  0  0  0  0  0  0  0  0  0  0  0
   58.1140   32.4990   44.6740 C   0  0  0  0  0  0  0  0  0  0  0  0
   58.7300   33.3600   45.7170 C   0  0  0  0  0  0  0  0  0  0  0  0
   58.8100   32.9250   47.0510 C   0  0  0  0  0  0  0  0  0  0  0  0
   59.3970   33.7500   48.0130 C   0  0  0  0  0  0  0  0  0  0  0  0
   59.8920   34.9650   47.6610 N   0  0  0  0  0  0  0  0  0  0  0  0
   59.8310   35.4140   46.3790 C   0  0  0  0  0  0  0  0  0  0  0  0
   59.2510   34.6220   45.3850 C   0  0  0  0  0  0  0  0  0  0  0  0
   57.3430   31.3790   45.0370 C   0  0  0  0  0  0  0  0  0  0  0  0
   57.1849   27.6239   47.6762 H   0  0  0  0  0  0  0  0  0  0  0  0
   59.4725   27.5121   48.6616 H   0  0  0  0  0  0  0  0  0  0  0  0
   61.4704   27.9983   47.2491 H   0  0  0  0  0  0  0  0  0  0  0  0
   61.5310   28.2290   43.7520 H   0  0  0  0  0  0  0  0  0  0  0  0
   58.8936   28.6856   43.8397 H   0  0  0  0  0  0  0  0  0  0  0  0
   56.4982   30.2359   41.9248 H   0  0  0  0  0  0  0  0  0  0  0  0
   57.8520   32.2195   41.2687 H   0  0  0  0  0  0  0  0  0  0  0  0
   58.8964   33.6596   43.0124 H   0  0  0  0  0  0  0  0  0  0  0  0
   58.4123   31.9398   47.3360 H   0  0  0  0  0  0  0  0  0  0  0  0
   59.4587   33.4149   49.0589 H   0  0  0  0  0  0  0  0  0  0  0  0
   60.2393   36.4031   46.1240 H   0  0  0  0  0  0  0  0  0  0  0  0
   59.2024   34.9846   44.3476 H   0  0  0  0  0  0  0  0  0  0  0  0
   57.1804   31.1533   46.1012 H   0  0  0  0  0  0  0  0  0  0  0  0
  1  2  2  0
  2  3  1  0
  3  4  1  0
  4  5  2  0
  5  6  1  0
  6  7  2  0
  7  8  1  0
  8  9  1  0
  8 10  2  0
  2 11  1  0
 11 12  2  0
 12 13  1  0
 13 14  2  0
 14 15  1  0
 15 16  1  0
 16 17  2  0
 17 18  1  0
 18 19  2  0
 19 20  1  0
 20 21  2  0
 15 22  2  0
 10  4  1  0
 22 11  1  0
 21 16  1  0
  5 23  1  0
  6 24  1  0
  7 25  1  0
  9 26  1  0
 10 27  1  0
 12 28  1  0
 13 29  1  0
 14 30  1  0
 17 31  1  0
 18 32  1  0
 20 33  1  0
 21 34  1  0
 22 35  1  0
M  CHG  1   3  -1
M  END
>  <UniqueID>  (6) 
6

>  <SMILES>  (6) 
O=C([N-]c1cccc(O)c1)c1cccc(-c2ccncc2)c1

>  <Energy>  (6) 
50.10627571678132

>  <Genealogy>  (6) 
O=C([N-]c1cccc(O)c1)c1cccc(-c2ccncc2)c1 (protonated)
O=C([N-]c1cccc(O)c1)c1cccc(-c2ccncc2)c1 (3D coordinates assigned)
O=C([N-]c1cccc(O)c1)c1cccc(-c2ccncc2)c1 (optimized conformer: 50.10627571678132 kcal/mol)

>  <smiles>  (6) 
O=C(Nc1cccc(O)c1)c1cccc(-c2ccncc2)c1

>  <score_type>  (6) 
oracle

>  <origin>  (6) 
adg

>  <m_score__min__energy>  (6) 
-10.67

>  <m_primary>  (6) 
energy

$$$$
6:0
     RDKit          3D

 56 59  0  0  0  0  0  0  0  0999 V2000
   57.2690   22.3200   43.8370 C   0  0  0  0  0  0  0  0  0  0  0  0
   56.0840   23.0960   44.3060 C   0  0  0  0  0  0  0  0  0  0  0  0
   54.8350   22.5890   44.3910 N   0  0  0  0  0  0  0  0  0  0  0  0
   54.0450   23.5210   44.9090 N   0  0  0  0  0  0  0  0  0  0  0  0
   52.6380   23.3180   45.1430 C   0  0  0  0  0  0  0  0  0  0  0  0
   51.6740   23.6920   44.1870 C   0  0  0  0  0  0  0  0  0  0  0  0
   50.3130   23.4970   44.4420 C   0  0  0  0  0  0  0  0  0  0  0  0
   49.8990   22.9370   45.6520 C   0  0  0  0  0  0  0  0  0  0  0  0
   50.8460   22.5750   46.6140 C   0  0  0  0  0  0  0  0  0  0  0  0
   52.2070   22.7690   46.3640 C   0  0  0  0  0  0  0  0  0  0  0  0
   54.7810   24.6270   45.1590 C   0  0  0  0  0  0  0  0  0  0  0  0
   54.3340   25.6860   45.6740 O   0  0  0  0  0  0  0  0  0  0  0  0
   56.0860   24.3970   44.7750 C   0  0  0  0  0  0  0  0  0  0  0  0
   57.2350   25.2410   44.9470 N   0  0  0  0  0  0  0  0  0  0  0  0
   57.3880   26.1640   46.0410 C   0  0  0  0  0  0  0  0  0  0  0  0
   56.4220   26.3780   46.8220 O   0  0  0  0  0  0  0  0  0  0  0  0
   58.6530   26.8860   46.2980 C   0  0  0  0  0  0  0  0  0  0  0  0
   59.2110   27.7510   45.4350 C   0  0  0  0  0  0  0  0  0  0  0  0
   58.9300   29.2070   45.4450 C   0  0  0  0  0  0  0  0  0  0  0  0
   59.8250   30.0630   46.1090 C   0  0  0  0  0  0  0  0  0  0  0  0
   59.5910   31.4400   46.1570 C   0  0  0  0  0  0  0  0  0  0  0  0
   58.4530   31.9830   45.5490 C   0  0  0  0  0  0  0  0  0  0  0  0
   58.1310   33.7130   45.6360 S   0  0  0  0  0  0  0  0  0  0  0  0
   56.6450   33.9330   45.5700 O   0  0  0  0  0  0  0  0  0  0  0  0
   58.7700   34.4110   44.4660 O   0  0  0  0  0  0  0  0  0  0  0  0
   58.7540   34.3600   47.1340 N   0  0  0  0  0  0  0  0  0  0  0  0
   58.6340   33.3520   48.2040 C   0  0  0  0  0  0  0  0  0  0  0  0
   59.5970   33.6740   49.3600 C   0  0  0  0  0  0  0  0  0  0  0  0
   60.9680   33.7100   48.9860 O   0  0  0  0  0  0  0  0  0  0  0  0
   61.1780   33.9200   47.5970 C   0  0  0  0  0  0  0  0  0  0  0  0
   60.1380   34.8610   46.9640 C   0  0  0  0  0  0  0  0  0  0  0  0
   57.5440   31.1350   44.9040 C   0  0  0  0  0  0  0  0  0  0  0  0
   57.7760   29.7580   44.8520 C   0  0  0  0  0  0  0  0  0  0  0  0
   57.8329   21.9507   44.7063 H   0  0  0  0  0  0  0  0  0  0  0  0
   56.9318   21.4672   43.2295 H   0  0  0  0  0  0  0  0  0  0  0  0
   57.9159   22.9700   43.2295 H   0  0  0  0  0  0  0  0  0  0  0  0
   51.9934   24.1400   43.2345 H   0  0  0  0  0  0  0  0  0  0  0  0
   49.5666   23.7856   43.6873 H   0  0  0  0  0  0  0  0  0  0  0  0
   48.8280   22.7808   45.8481 H   0  0  0  0  0  0  0  0  0  0  0  0
   50.5196   22.1370   47.5688 H   0  0  0  0  0  0  0  0  0  0  0  0
   52.9473   22.4901   47.1283 H   0  0  0  0  0  0  0  0  0  0  0  0
   57.9520   25.2050   44.1920 H   0  0  0  0  0  0  0  0  0  0  0  0
   59.1676   26.7037   47.2529 H   0  0  0  0  0  0  0  0  0  0  0  0
   59.9118   27.3595   44.6829 H   0  0  0  0  0  0  0  0  0  0  0  0
   60.7186   29.6451   46.5958 H   0  0  0  0  0  0  0  0  0  0  0  0
   60.3035   32.0994   46.6743 H   0  0  0  0  0  0  0  0  0  0  0  0
   57.6016   33.3485   48.5836 H   0  0  0  0  0  0  0  0  0  0  0  0
   58.8907   32.3648   47.7924 H   0  0  0  0  0  0  0  0  0  0  0  0
   59.3259   34.6579   49.7704 H   0  0  0  0  0  0  0  0  0  0  0  0
   59.4917   32.8612   50.0936 H   0  0  0  0  0  0  0  0  0  0  0  0
   62.1773   34.3577   47.4564 H   0  0  0  0  0  0  0  0  0  0  0  0
   61.0819   32.9435   47.0998 H   0  0  0  0  0  0  0  0  0  0  0  0
   60.2181   35.8493   47.4402 H   0  0  0  0  0  0  0  0  0  0  0  0
   60.3465   34.9186   45.8855 H   0  0  0  0  0  0  0  0  0  0  0  0
   56.6419   31.5555   44.4355 H   0  0  0  0  0  0  0  0  0  0  0  0
   57.0541   29.1004   44.3455 H   0  0  0  0  0  0  0  0  0  0  0  0
  1  2  1  0
  2  3  1  0
  3  4  1  0
  4  5  1  0
  5  6  2  0
  6  7  1  0
  7  8  2  0
  8  9  1  0
  9 10  2  0
  4 11  1  0
 11 12  2  0
 11 13  1  0
 13 14  1  0
 14 15  1  0
 15 16  2  0
 15 17  1  0
 17 18  2  3
 18 19  1  0
 19 20  2  0
 20 21  1  0
 21 22  2  0
 22 23  1  0
 23 24  2  0
 23 25  2  0
 23 26  1  0
 26 27  1  0
 27 28  1  0
 28 29  1  0
 29 30  1  0
 30 31  1  0
 22 32  1  0
 32 33  2  0
 13  2  2  0
 33 19  1  0
 10  5  1  0
 31 26  1  0
  1 34  1  0
  1 35  1  0
  1 36  1  0
  6 37  1  0
  7 38  1  0
  8 39  1  0
  9 40  1  0
 10 41  1  0
 14 42  1  0
 17 43  1  0
 18 44  1  0
 20 45  1  0
 21 46  1  0
 27 47  1  0
 27 48  1  0
 28 49  1  0
 28 50  1  0
 30 51  1  0
 30 52  1  0
 31 53  1  0
 31 54  1  0
 32 55  1  0
 33 56  1  0
M  CHG  1   3  -1
M  END
>  <UniqueID>  (7) 
7

>  <SMILES>  (7) 
Cc1[n-]n(-c2ccccc2)c(=O)c1NC(=O)C=Cc1ccc(S(=O)(=O)N2CCOCC2)cc1

>  <Energy>  (7) 
115.43545816659072

>  <Genealogy>  (7) 
Cc1[n-]n(-c2ccccc2)c(=O)c1NC(=O)C=Cc1ccc(S(=O)(=O)N2CCOCC2)cc1 (protonated)
Cc1[n-]n(-c2ccccc2)c(=O)c1NC(=O)C=Cc1ccc(S(=O)(=O)N2CCOCC2)cc1 (3D coordinates assigned)
Cc1[n-]n(-c2ccccc2)c(=O)c1NC(=O)C=Cc1ccc(S(=O)(=O)N2CCOCC2)cc1 (nonaromatic ring conformer: 115.43545816659072 kcal/mol)

>  <smiles>  (7) 
Cc1[nH]n(-c2ccccc2)c(=O)c1NC(=O)C=Cc1ccc(S(=O)(=O)N2CCOCC2)cc1

>  <score_type>  (7) 
oracle

>  <origin>  (7) 
adg

>  <m_score__min__energy>  (7) 
-11.220000000000001

>  <m_primary>  (7) 
energy

$$$$
7:0
     RDKit          3D

 52 55  0  0  0  0  0  0  0  0999 V2000
   56.6390   22.3160   42.8910 C   0  0  0  0  0  0  0  0  0  0  0  0
   56.7940   23.6790   43.2710 O   0  0  0  0  0  0  0  0  0  0  0  0
   56.9600   24.1200   44.5930 C   0  0  0  0  0  0  0  0  0  0  0  0
   57.0080   25.4860   44.9330 C   0  0  0  0  0  0  0  0  0  0  0  0
   57.1850   25.8780   46.2720 C   0  0  0  0  0  0  0  0  0  0  0  0
   57.2160   27.2600   46.6580 N   0  0  0  0  0  0  0  0  0  0  0  0
   57.0280   28.3880   45.7960 C   0  0  0  0  0  0  0  0  0  0  0  0
   55.9220   28.5720   45.2180 O   0  0  0  0  0  0  0  0  0  0  0  0
   58.1410   29.2510   45.5230 N   0  0  0  0  0  0  0  0  0  0  0  0
   58.0390   30.5140   44.8420 C   0  0  0  0  0  0  0  0  0  0  0  0
   57.7690   30.5860   43.4630 C   0  0  0  0  0  0  0  0  0  0  0  0
   57.6400   31.8260   42.8350 C   0  0  0  0  0  0  0  0  0  0  0  0
   57.7670   33.0050   43.5730 C   0  0  0  0  0  0  0  0  0  0  0  0
   58.0260   32.9510   44.9510 C   0  0  0  0  0  0  0  0  0  0  0  0
   58.1080   34.2190   45.7560 C   0  0  0  0  0  0  0  0  0  0  0  0
   59.2300   34.1260   46.7400 C   0  0  0  0  0  0  0  0  0  0  0  0
   58.9770   34.2250   48.0720 N   0  0  0  0  0  0  0  0  0  0  0  0
   59.9680   34.1040   48.9930 C   0  0  0  0  0  0  0  0  0  0  0  0
   59.6900   34.2070   50.2170 O   0  0  0  0  0  0  0  0  0  0  0  0
   61.2860   33.8610   48.5680 C   0  0  0  0  0  0  0  0  0  0  0  0
   62.3570   33.7240   49.4690 C   0  0  0  0  0  0  0  0  0  0  0  0
   63.6480   33.4790   48.9890 C   0  0  0  0  0  0  0  0  0  0  0  0
   63.8770   33.3680   47.6140 C   0  0  0  0  0  0  0  0  0  0  0  0
   62.8190   33.5030   46.7100 C   0  0  0  0  0  0  0  0  0  0  0  0
   61.5240   33.7510   47.1810 C   0  0  0  0  0  0  0  0  0  0  0  0
   60.4950   33.8810   46.3050 N   0  0  0  0  0  0  0  0  0  0  0  0
   58.1420   31.7030   45.5820 C   0  0  0  0  0  0  0  0  0  0  0  0
   57.2720   24.9010   47.2690 C   0  0  0  0  0  0  0  0  0  0  0  0
   57.2260   23.5340   46.9410 C   0  0  0  0  0  0  0  0  0  0  0  0
   57.3240   22.5240   47.9090 O   0  0  0  0  0  0  0  0  0  0  0  0
   56.2790   22.1630   48.8050 C   0  0  0  0  0  0  0  0  0  0  0  0
   57.0760   23.1580   45.6020 C   0  0  0  0  0  0  0  0  0  0  0  0
   56.5678   21.6898   43.7926 H   0  0  0  0  0  0  0  0  0  0  0  0
   55.7223   22.2039   42.2934 H   0  0  0  0  0  0  0  0  0  0  0  0
   57.5071   22.0010   42.2934 H   0  0  0  0  0  0  0  0  0  0  0  0
   56.9066   26.2496   44.1477 H   0  0  0  0  0  0  0  0  0  0  0  0
   59.0920   28.9020   45.7770 H   0  0  0  0  0  0  0  0  0  0  0  0
   57.6591   29.6614   42.8774 H   0  0  0  0  0  0  0  0  0  0  0  0
   57.4376   31.8748   41.7549 H   0  0  0  0  0  0  0  0  0  0  0  0
   57.6636   33.9790   43.0723 H   0  0  0  0  0  0  0  0  0  0  0  0
   58.2849   35.0690   45.0805 H   0  0  0  0  0  0  0  0  0  0  0  0
   57.1622   34.3653   46.2983 H   0  0  0  0  0  0  0  0  0  0  0  0
   62.1796   33.8095   50.5512 H   0  0  0  0  0  0  0  0  0  0  0  0
   64.4850   33.3734   49.6949 H   0  0  0  0  0  0  0  0  0  0  0  0
   64.8938   33.1737   47.2420 H   0  0  0  0  0  0  0  0  0  0  0  0
   63.0039   33.4144   45.6293 H   0  0  0  0  0  0  0  0  0  0  0  0
   58.3154   31.6556   46.6672 H   0  0  0  0  0  0  0  0  0  0  0  0
   57.3775   25.2049   48.3209 H   0  0  0  0  0  0  0  0  0  0  0  0
   56.6269   22.2832   49.8416 H   0  0  0  0  0  0  0  0  0  0  0  0
   55.4079   22.8123   48.6330 H   0  0  0  0  0  0  0  0  0  0  0  0
   55.9944   21.1145   48.6330 H   0  0  0  0  0  0  0  0  0  0  0  0
   57.0489   22.0903   45.3386 H   0  0  0  0  0  0  0  0  0  0  0  0
  1  2  1  0
  2  3  1  0
  3  4  2  0
  4  5  1  0
  5  6  1  0
  6  7  1  0
  7  8  2  0
  7  9  1  0
  9 10  1  0
 10 11  2  0
 11 12  1  0
 12 13  2  0
 13 14  1  0
 14 15  1  0
 15 16  1  0
 16 17  2  0
 17 18  1  0
 18 19  2  0
 18 20  1  0
 20 21  2  0
 21 22  1  0
 22 23  2  0
 23 24  1  0
 24 25  2  0
 25 26  1  0
 14 27  2  0
  5 28  2  0
 28 29  1  0
 29 30  1  0
 30 31  1  0
 29 32  2  0
 32  3  1  0
 27 10  1  0
 26 16  1  0
 25 20  1  0
  1 33  1  0
  1 34  1  0
  1 35  1  0
  4 36  1  0
  9 37  1  0
 11 38  1  0
 12 39  1  0
 13 40  1  0
 15 41  1  0
 15 42  1  0
 21 43  1  0
 22 44  1  0
 23 45  1  0
 24 46  1  0
 27 47  1  0
 28 48  1  0
 31 49  1  0
 31 50  1  0
 31 51  1  0
 32 52  1  0
M  CHG  2   6  -1  26  -1
M  END
>  <UniqueID>  (8) 
8

>  <SMILES>  (8) 
COc1cc([N-]C(=O)Nc2cccc(Cc3nc(=O)c4ccccc4[n-]3)c2)cc(OC)c1

>  <Energy>  (8) 
64.47889502590121

>  <Genealogy>  (8) 
COc1cc([N-]C(=O)Nc2cccc(Cc3nc(=O)c4ccccc4[n-]3)c2)cc(OC)c1 (protonated)
COc1cc([N-]C(=O)Nc2cccc(Cc3nc(=O)c4ccccc4[n-]3)c2)cc(OC)c1 (3D coordinates assigned)
COc1cc([N-]C(=O)Nc2cccc(Cc3nc(=O)c4ccccc4[n-]3)c2)cc(OC)c1 (optimized conformer: 64.47889502590121 kcal/mol)

>  <smiles>  (8) 
COc1cc(NC(=O)Nc2cccc(Cc3nc(=O)c4ccccc4[nH]3)c2)cc(OC)c1

>  <score_type>  (8) 
oracle

>  <origin>  (8) 
adg

>  <m_score__min__energy>  (8) 
-12.109999999999999

>  <m_primary>  (8) 
energy

$$$$
8:0
     RDKit          3D

 32 34  0  0  0  0  0  0  0  0999 V2000
   54.0180   26.3410   46.3750 H   0  0  0  0  0  0  0  0  0  0  0  0
   54.9080   26.2980   45.8920 O   0  0  0  0  0  0  0  0  0  0  0  0
   55.9080   25.4180   46.2920 C   0  0  0  0  0  0  0  0  0  0  0  0
   55.7390   24.4900   47.2490 N   0  0  0  0  0  0  0  0  0  0  0  0
   56.9520   23.9020   47.3100 C   0  0  0  0  0  0  0  0  0  0  0  0
   57.2100   22.9630   48.1090 O   0  0  0  0  0  0  0  0  0  0  0  0
   57.8700   24.4010   46.4570 N   0  0  0  0  0  0  0  0  0  0  0  0
   57.1890   25.3520   45.7900 C   0  0  0  0  0  0  0  0  0  0  0  0
   57.7940   26.2890   44.8300 C   0  0  0  0  0  0  0  0  0  0  0  0
   58.0223   25.9027   43.8257 H   0  0  0  0  0  0  0  0  0  0  0  0
   58.0920   27.5790   45.0760 C   0  0  0  0  0  0  0  0  0  0  0  0
   57.3200   28.6330   44.6150 C   0  0  0  0  0  0  0  0  0  0  0  0
   56.4265   28.5611   43.9775 H   0  0  0  0  0  0  0  0  0  0  0  0
   57.8870   29.7910   45.1090 C   0  0  0  0  0  0  0  0  0  0  0  0
   57.3470   31.1520   44.9100 C   0  0  0  0  0  0  0  0  0  0  0  0
   56.1640   31.2800   44.4930 O   0  0  0  0  0  0  0  0  0  0  0  0
   58.1350   32.3680   45.1940 C   0  0  0  0  0  0  0  0  0  0  0  0
   59.1480   32.3030   46.1030 N   0  0  0  0  0  0  0  0  0  0  0  0
   59.8980   33.3900   46.4290 C   0  0  0  0  0  0  0  0  0  0  0  0
   60.8280   33.2790   47.2690 O   0  0  0  0  0  0  0  0  0  0  0  0
   59.6330   34.6260   45.8340 C   0  0  0  0  0  0  0  0  0  0  0  0
   60.2395   35.5078   46.0881 H   0  0  0  0  0  0  0  0  0  0  0  0
   58.5890   34.7280   44.9130 C   0  0  0  0  0  0  0  0  0  0  0  0
   58.3651   35.6954   44.4397 H   0  0  0  0  0  0  0  0  0  0  0  0
   57.8290   33.6010   44.5930 C   0  0  0  0  0  0  0  0  0  0  0  0
   56.9978   33.6777   43.8766 H   0  0  0  0  0  0  0  0  0  0  0  0
   58.9780   29.4990   45.8450 N   0  0  0  0  0  0  0  0  0  0  0  0
   59.5960   30.1810   46.3400 H   0  0  0  0  0  0  0  0  0  0  0  0
   59.1400   28.1600   45.8070 C   0  0  0  0  0  0  0  0  0  0  0  0
   60.2300   27.5680   46.3040 C   0  0  0  0  0  0  0  0  0  0  0  0
   60.3312   26.4737   46.2572 H   0  0  0  0  0  0  0  0  0  0  0  0
   61.0260   28.1750   46.7599 H   0  0  0  0  0  0  0  0  0  0  0  0
  1  2  1  0
  2  3  1  0
  3  4  1  0
  4  5  1  0
  5  6  2  0
  5  7  1  0
  7  8  1  0
  8  9  1  0
  9 10  1  0
  9 11  2  0
 11 12  1  0
 12 13  1  0
 12 14  2  0
 14 15  1  0
 15 16  2  0
 15 17  1  0
 17 18  1  0
 18 19  1  0
 19 20  2  0
 19 21  1  0
 21 22  1  0
 21 23  2  0
 23 24  1  0
 23 25  1  0
 25 26  1  0
 14 27  1  0
 27 28  1  0
 27 29  1  0
 29 30  2  0
 30 31  1  0
 30 32  1  0
  8  3  2  0
 29 11  1  0
 25 17  2  0
M  CHG  3   4  -1   7  -1  18  -1
M  END
>  <UniqueID>  (9) 
9

>  <SMILES>  (9) 
C=c1[nH]c(C(=O)c2cccc(=O)[n-]2)c/c1=C/c1[n-]c(=O)[n-]c1O

>  <Energy>  (9) 
105.5294538494788

>  <Genealogy>  (9) 
C=c1[nH]c(C(=O)c2cccc(=O)[n-]2)cc1=Cc1[n-]c(=O)[n-]c1O (protonated)
C=c1[nH]c(C(=O)c2cccc(=O)[n-]2)c/c1=C/c1[n-]c(=O)[n-]c1O (cis-trans isomerization)
C=c1[nH]c(C(=O)c2cccc(=O)[n-]2)c/c1=C/c1[n-]c(=O)[n-]c1O (3D coordinates assigned)
C=c1[nH]c(C(=O)c2cccc(=O)[n-]2)c/c1=C/c1[n-]c(=O)[n-]c1O (optimized conformer: 105.5294538494788 kcal/mol)

>  <smiles>  (9) 
C=c1[nH]c(C(=O)c2cccc(=O)[nH]2)cc1=Cc1[nH]c(=O)[nH]c1O

>  <score_type>  (9) 
oracle

>  <origin>  (9) 
adg

>  <m_score__min__energy>  (9) 
-13.52

>  <m_primary>  (9) 
energy

$$$$
9:0
     RDKit          3D

 45 47  0  0  0  0  0  0  0  0999 V2000
   60.7150   30.2050   47.6080 C   0  0  0  0  0  0  0  0  0  0  0  0
   61.2290   30.0990   46.3810 C   0  0  0  0  0  0  0  0  0  0  0  0
   60.9930   28.8830   45.5260 C   0  0  0  0  0  0  0  0  0  0  0  0
   59.5580   28.5260   45.5130 N   0  0  0  0  0  0  0  0  0  0  0  0
   58.6370   29.3760   44.9580 C   0  0  0  0  0  0  0  0  0  0  0  0
   59.0150   30.4540   44.4210 O   0  0  0  0  0  0  0  0  0  0  0  0
   57.2700   29.0490   44.9670 C   0  0  0  0  0  0  0  0  0  0  0  0
   56.2570   29.9600   44.3680 C   0  0  0  0  0  0  0  0  0  0  0  0
   55.4730   29.5330   43.4770 O   0  0  0  0  0  0  0  0  0  0  0  0
   56.1310   31.3080   44.8460 N   0  0  0  0  0  0  0  0  0  0  0  0
   57.2020   32.2160   45.1360 C   0  0  0  0  0  0  0  0  0  0  0  0
   57.7610   32.2060   46.4210 C   0  0  0  0  0  0  0  0  0  0  0  0
   58.8220   33.0620   46.7380 C   0  0  0  0  0  0  0  0  0  0  0  0
   59.3410   33.9220   45.7680 C   0  0  0  0  0  0  0  0  0  0  0  0
   58.8070   33.9220   44.4770 C   0  0  0  0  0  0  0  0  0  0  0  0
   57.7450   33.0690   44.1560 C   0  0  0  0  0  0  0  0  0  0  0  0
   56.8850   27.8400   45.5680 C   0  0  0  0  0  0  0  0  0  0  0  0
   55.5340   27.5010   45.6210 O   0  0  0  0  0  0  0  0  0  0  0  0
   57.8210   27.0060   46.1160 N   0  0  0  0  0  0  0  0  0  0  0  0
   57.4000   25.7560   46.7830 C   0  0  0  0  0  0  0  0  0  0  0  0
   57.3640   24.6160   45.7960 C   0  0  0  0  0  0  0  0  0  0  0  0
   58.4470   23.7250   45.6980 C   0  0  0  0  0  0  0  0  0  0  0  0
   58.3990   22.6510   44.8050 C   0  0  0  0  0  0  0  0  0  0  0  0
   57.2690   22.4550   44.0070 C   0  0  0  0  0  0  0  0  0  0  0  0
   56.1870   23.3330   44.0990 C   0  0  0  0  0  0  0  0  0  0  0  0
   56.2320   24.4090   44.9910 C   0  0  0  0  0  0  0  0  0  0  0  0
   59.1490   27.3510   46.0920 C   0  0  0  0  0  0  0  0  0  0  0  0
   60.0060   26.5810   46.6110 O   0  0  0  0  0  0  0  0  0  0  0  0
   60.9058   31.1069   48.2082 H   0  0  0  0  0  0  0  0  0  0  0  0
   60.1006   29.3905   48.0192 H   0  0  0  0  0  0  0  0  0  0  0  0
   61.8413   30.9221   45.9840 H   0  0  0  0  0  0  0  0  0  0  0  0
   61.3222   29.0946   44.4979 H   0  0  0  0  0  0  0  0  0  0  0  0
   61.5642   28.0403   45.9428 H   0  0  0  0  0  0  0  0  0  0  0  0
   57.3636   31.5215   47.1849 H   0  0  0  0  0  0  0  0  0  0  0  0
   59.2475   33.0573   47.7524 H   0  0  0  0  0  0  0  0  0  0  0  0
   60.1702   34.5994   46.0203 H   0  0  0  0  0  0  0  0  0  0  0  0
   59.2221   34.5938   43.7113 H   0  0  0  0  0  0  0  0  0  0  0  0
   57.3335   33.0649   43.1359 H   0  0  0  0  0  0  0  0  0  0  0  0
   58.1124   25.5168   47.5863 H   0  0  0  0  0  0  0  0  0  0  0  0
   56.3918   25.8975   47.1995 H   0  0  0  0  0  0  0  0  0  0  0  0
   59.3368   23.8739   46.3274 H   0  0  0  0  0  0  0  0  0  0  0  0
   59.2513   21.9596   44.7304 H   0  0  0  0  0  0  0  0  0  0  0  0
   57.2316   21.6084   43.3057 H   0  0  0  0  0  0  0  0  0  0  0  0
   55.2985   23.1781   43.4692 H   0  0  0  0  0  0  0  0  0  0  0  0
   55.3765   25.0967   45.0625 H   0  0  0  0  0  0  0  0  0  0  0  0
  1  2  2  0
  2  3  1  0
  3  4  1  0
  4  5  1  0
  5  6  2  0
  5  7  1  0
  7  8  1  0
  8  9  2  0
  8 10  1  0
 10 11  1  0
 11 12  2  0
 12 13  1  0
 13 14  2  0
 14 15  1  0
 15 16  2  0
  7 17  2  0
 17 18  1  0
 17 19  1  0
 19 20  1  0
 20 21  1  0
 21 22  2  0
 22 23  1  0
 23 24  2  0
 24 25  1  0
 25 26  2  0
 19 27  1  0
 27 28  2  0
 27  4  1  0
 16 11  1  0
 26 21  1  0
  1 29  1  0
  1 30  1  0
  2 31  1  0
  3 32  1  0
  3 33  1  0
 12 34  1  0
 13 35  1  0
 14 36  1  0
 15 37  1  0
 16 38  1  0
 20 39  1  0
 20 40  1  0
 22 41  1  0
 23 42  1  0
 24 43  1  0
 25 44  1  0
 26 45  1  0
M  CHG  2  10  -1  18  -1
M  END
>  <UniqueID>  (10) 
10

>  <SMILES>  (10) 
C=CCn1c(=O)c(C(=O)[N-]c2ccccc2)c([O-])n(Cc2ccccc2)c1=O

>  <Energy>  (10) 
60.4329374101558

>  <Genealogy>  (10) 
C=CCn1c(=O)c(C(=O)[N-]c2ccccc2)c([O-])n(Cc2ccccc2)c1=O (protonated)
C=CCn1c(=O)c(C(=O)[N-]c2ccccc2)c([O-])n(Cc2ccccc2)c1=O (3D coordinates assigned)
C=CCn1c(=O)c(C(=O)[N-]c2ccccc2)c([O-])n(Cc2ccccc2)c1=O (optimized conformer: 60.4329374101558 kcal/mol)

>  <smiles>  (10) 
C=CCn1c(=O)c(C(=O)Nc2ccccc2)c(O)n(Cc2ccccc2)c1=O

>  <score_type>  (10) 
oracle

>  <origin>  (10) 
adg

>  <m_score__min__energy>  (10) 
-13.19

>  <m_primary>  (10) 
energy

$$$$
10:0
     RDKit          3D

 53 55  0  0  0  0  0  0  0  0999 V2000
   58.6090   28.2480   53.4650 C   0  0  0  0  0  0  0  0  0  0  0  0
   58.1840   29.2810   52.4730 C   0  0  0  0  0  0  0  0  0  0  0  0
   56.9010   29.4920   52.1190 N   0  0  0  0  0  0  0  0  0  0  0  0
   56.8950   30.4820   51.2730 O   0  0  0  0  0  0  0  0  0  0  0  0
   58.1090   30.9320   51.0600 C   0  0  0  0  0  0  0  0  0  0  0  0
   58.4350   32.0670   50.1450 C   0  0  0  0  0  0  0  0  0  0  0  0
   58.9930   30.2050   51.8350 C   0  0  0  0  0  0  0  0  0  0  0  0
   60.4900   30.3320   51.8960 C   0  0  0  0  0  0  0  0  0  0  0  0
   61.1190   29.2730   51.1750 O   0  0  0  0  0  0  0  0  0  0  0  0
   60.7980   28.8840   49.8650 C   0  0  0  0  0  0  0  0  0  0  0  0
   60.6780   29.8070   48.8100 C   0  0  0  0  0  0  0  0  0  0  0  0
   60.3650   29.3660   47.5220 C   0  0  0  0  0  0  0  0  0  0  0  0
   60.1850   28.0000   47.2600 C   0  0  0  0  0  0  0  0  0  0  0  0
   59.8880   27.5600   45.8830 C   0  0  0  0  0  0  0  0  0  0  0  0
   60.3920   28.1980   44.9220 O   0  0  0  0  0  0  0  0  0  0  0  0
   59.1140   26.3850   45.5900 N   0  0  0  0  0  0  0  0  0  0  0  0
   57.7420   26.0950   46.0070 C   0  0  0  0  0  0  0  0  0  0  0  0
   56.7940   27.2050   45.6560 C   0  0  0  0  0  0  0  0  0  0  0  0
   55.5820   27.0920   45.9820 O   0  0  0  0  0  0  0  0  0  0  0  0
   57.2650   28.3930   44.9980 N   0  0  0  0  0  0  0  0  0  0  0  0
   56.3950   29.4190   44.4950 C   0  0  0  0  0  0  0  0  0  0  0  0
   55.1430   29.3180   44.6140 O   0  0  0  0  0  0  0  0  0  0  0  0
   56.9650   30.5960   43.7650 C   0  0  0  0  0  0  0  0  0  0  0  0
   57.4990   31.6030   44.7470 C   0  0  0  0  0  0  0  0  0  0  0  0
   57.3780   32.9790   44.4960 C   0  0  0  0  0  0  0  0  0  0  0  0
   57.8630   33.9090   45.4210 C   0  0  0  0  0  0  0  0  0  0  0  0
   58.4610   33.4710   46.6070 C   0  0  0  0  0  0  0  0  0  0  0  0
   58.5730   32.1040   46.8690 C   0  0  0  0  0  0  0  0  0  0  0  0
   58.0920   31.1710   45.9460 C   0  0  0  0  0  0  0  0  0  0  0  0
   60.2700   27.0840   48.3210 C   0  0  0  0  0  0  0  0  0  0  0  0
   60.5870   27.5250   49.6090 C   0  0  0  0  0  0  0  0  0  0  0  0
   58.4513   28.6313   54.4839 H   0  0  0  0  0  0  0  0  0  0  0  0
   58.0137   27.3343   53.3208 H   0  0  0  0  0  0  0  0  0  0  0  0
   59.6749   28.0178   53.3208 H   0  0  0  0  0  0  0  0  0  0  0  0
   58.6904   32.9561   50.7402 H   0  0  0  0  0  0  0  0  0  0  0  0
   59.2906   31.7924   49.5105 H   0  0  0  0  0  0  0  0  0  0  0  0
   57.5641   32.2883   49.5105 H   0  0  0  0  0  0  0  0  0  0  0  0
   60.7883   31.2948   51.4556 H   0  0  0  0  0  0  0  0  0  0  0  0
   60.8055   30.2777   52.9484 H   0  0  0  0  0  0  0  0  0  0  0  0
   60.8312   30.8796   49.0000 H   0  0  0  0  0  0  0  0  0  0  0  0
   60.2588   30.0963   46.7063 H   0  0  0  0  0  0  0  0  0  0  0  0
   57.4079   25.1733   45.5082 H   0  0  0  0  0  0  0  0  0  0  0  0
   57.7391   25.9829   47.1013 H   0  0  0  0  0  0  0  0  0  0  0  0
   58.2930   28.4980   44.8410 H   0  0  0  0  0  0  0  0  0  0  0  0
   57.7816   30.2576   43.1102 H   0  0  0  0  0  0  0  0  0  0  0  0
   56.1728   31.0648   43.1628 H   0  0  0  0  0  0  0  0  0  0  0  0
   56.9000   33.3269   43.5684 H   0  0  0  0  0  0  0  0  0  0  0  0
   57.7741   34.9860   45.2156 H   0  0  0  0  0  0  0  0  0  0  0  0
   58.8431   34.2034   47.3334 H   0  0  0  0  0  0  0  0  0  0  0  0
   59.0407   31.7607   47.8036 H   0  0  0  0  0  0  0  0  0  0  0  0
   58.1778   30.0952   46.1586 H   0  0  0  0  0  0  0  0  0  0  0  0
   60.0864   26.0150   48.1378 H   0  0  0  0  0  0  0  0  0  0  0  0
   60.6713   26.7966   50.4290 H   0  0  0  0  0  0  0  0  0  0  0  0
  1  2  1  0
  2  3  2  0
  3  4  1  0
  4  5  1  0
  5  6  1  0
  5  7  2  0
  7  8  1  0
  8  9  1  0
  9 10  1  0
 10 11  2  0
 11 12  1  0
 12 13  2  0
 13 14  1  0
 14 15  2  0
 14 16  1  0
 16 17  1  0
 17 18  1  0
 18 19  2  0
 18 20  1  0
 20 21  1  0
 21 22  2  0
 21 23  1  0
 23 24  1  0
 24 25  2  0
 25 26  1  0
 26 27  2  0
 27 28  1  0
 28 29  2  0
 13 30  1  0
 30 31  2  0
  7  2  1  0
 31 10  1  0
 29 24  1  0
  1 32  1  0
  1 33  1  0
  1 34  1  0
  6 35  1  0
  6 36  1  0
  6 37  1  0
  8 38  1  0
  8 39  1  0
 11 40  1  0
 12 41  1  0
 17 42  1  0
 17 43  1  0
 20 44  1  0
 23 45  1  0
 23 46  1  0
 25 47  1  0
 26 48  1  0
 27 49  1  0
 28 50  1  0
 29 51  1  0
 30 52  1  0
 31 53  1  0
M  CHG  1  16  -1
M  END
>  <UniqueID>  (11) 
11

>  <SMILES>  (11) 
Cc1noc(C)c1COc1ccc(C(=O)[N-]CC(=O)NC(=O)Cc2ccccc2)cc1

>  <Energy>  (11) 
78.693978082619

>  <Genealogy>  (11) 
Cc1noc(C)c1COc1ccc(C(=O)[N-]CC(=O)NC(=O)Cc2ccccc2)cc1 (protonated)
Cc1noc(C)c1COc1ccc(C(=O)[N-]CC(=O)NC(=O)Cc2ccccc2)cc1 (3D coordinates assigned)
Cc1noc(C)c1COc1ccc(C(=O)[N-]CC(=O)NC(=O)Cc2ccccc2)cc1 (optimized conformer: 78.693978082619 kcal/mol)

>  <smiles>  (11) 
Cc1noc(C)c1COc1ccc(C(=O)NCC(=O)NC(=O)Cc2ccccc2)cc1

>  <score_type>  (11) 
oracle

>  <origin>  (11) 
adg

>  <m_score__min__energy>  (11) 
-10.5

>  <m_primary>  (11) 
energy

$$$$
11:0
     RDKit          3D

 51 55  0  0  0  0  0  0  0  0999 V2000
   52.5620   24.6330   45.5150 H   0  0  0  0  0  0  0  0  0  0  0  0
   53.4100   24.2580   46.0020 N   0  0  0  0  0  0  0  0  0  0  0  0
   54.5940   24.3060   45.4770 C   0  0  0  0  0  0  0  0  0  0  0  0
   55.5010   25.2050   45.9490 N   0  0  0  0  0  0  0  0  0  0  0  0
   58.1090   31.4580   45.5920 C   0  0  0  0  0  0  0  0  0  0  0  0
   58.3944   32.4964   45.3676 H   0  0  0  0  0  0  0  0  0  0  0  0
   58.8770   30.7010   46.4910 C   0  0  0  0  0  0  0  0  0  0  0  0
   60.0820   31.2930   47.1200 C   0  0  0  0  0  0  0  0  0  0  0  0
   60.7550   32.2870   46.4660 N   0  0  0  0  0  0  0  0  0  0  0  0
   61.8640   32.8310   47.0210 C   0  0  0  0  0  0  0  0  0  0  0  0
   62.6430   33.8330   46.4400 C   0  0  0  0  0  0  0  0  0  0  0  0
   62.4181   34.2988   45.4692 H   0  0  0  0  0  0  0  0  0  0  0  0
   63.7390   34.1760   47.2310 C   0  0  0  0  0  0  0  0  0  0  0  0
   64.4920   34.9380   46.9813 H   0  0  0  0  0  0  0  0  0  0  0  0
   63.7260   33.2320   48.6380 S   0  0  0  0  0  0  0  0  0  0  0  0
   62.3230   32.3960   48.2430 C   0  0  0  0  0  0  0  0  0  0  0  0
   61.6400   31.3970   48.9320 C   0  0  0  0  0  0  0  0  0  0  0  0
   62.0870   30.9400   50.2190 N   0  0  0  0  0  0  0  0  0  0  0  0
   63.5310   30.8370   50.4830 C   0  0  0  0  0  0  0  0  0  0  0  0
   64.0262   30.4462   49.5819 H   0  0  0  0  0  0  0  0  0  0  0  0
   63.8930   31.8426   50.7434 H   0  0  0  0  0  0  0  0  0  0  0  0
   63.8580   29.8990   51.6750 C   0  0  0  0  0  0  0  0  0  0  0  0
   64.5314   29.1053   51.3192 H   0  0  0  0  0  0  0  0  0  0  0  0
   64.3210   30.5184   52.4573 H   0  0  0  0  0  0  0  0  0  0  0  0
   62.7110   29.2920   52.2470 O   0  0  0  0  0  0  0  0  0  0  0  0
   61.7620   30.2830   52.5700 C   0  0  0  0  0  0  0  0  0  0  0  0
   61.0022   29.8604   53.2439 H   0  0  0  0  0  0  0  0  0  0  0  0
   62.2606   31.1257   53.0713 H   0  0  0  0  0  0  0  0  0  0  0  0
   61.0950   30.7680   51.2880 C   0  0  0  0  0  0  0  0  0  0  0  0
   60.3453   30.0289   50.9692 H   0  0  0  0  0  0  0  0  0  0  0  0
   60.6154   31.7382   51.4844 H   0  0  0  0  0  0  0  0  0  0  0  0
   60.5260   30.8590   48.3480 N   0  0  0  0  0  0  0  0  0  0  0  0
   59.9860   30.1340   48.8720 H   0  0  0  0  0  0  0  0  0  0  0  0
   56.2350   23.5330   43.8790 C   0  0  0  0  0  0  0  0  0  0  0  0
   56.5295   22.8641   43.0569 H   0  0  0  0  0  0  0  0  0  0  0  0
   54.9510   23.4480   44.4240 C   0  0  0  0  0  0  0  0  0  0  0  0
   56.9510   27.5020   46.3280 O   0  0  0  0  0  0  0  0  0  0  0  0
   57.6970   26.3450   45.9600 C   0  0  0  0  0  0  0  0  0  0  0  0
   58.4263   26.6095   45.1802 H   0  0  0  0  0  0  0  0  0  0  0  0
   58.2319   25.9538   46.8380 H   0  0  0  0  0  0  0  0  0  0  0  0
   56.7580   25.3040   45.4360 C   0  0  0  0  0  0  0  0  0  0  0  0
   57.0150   30.9140   44.9980 N   0  0  0  0  0  0  0  0  0  0  0  0
   56.6270   29.6320   45.2350 C   0  0  0  0  0  0  0  0  0  0  0  0
   55.5740   29.1590   44.6500 N   0  0  0  0  0  0  0  0  0  0  0  0
   55.2160   28.2010   44.8590 H   0  0  0  0  0  0  0  0  0  0  0  0
   57.3660   28.8250   46.1100 C   0  0  0  0  0  0  0  0  0  0  0  0
   54.2280   22.7172   44.0326 H   0  0  0  0  0  0  0  0  0  0  0  0
   58.5000   29.3720   46.7370 C   0  0  0  0  0  0  0  0  0  0  0  0
   59.0954   28.7537   47.4249 H   0  0  0  0  0  0  0  0  0  0  0  0
   57.1440   24.4680   44.3790 C   0  0  0  0  0  0  0  0  0  0  0  0
   58.1528   24.5476   43.9477 H   0  0  0  0  0  0  0  0  0  0  0  0
  1  2  1  0
  2  3  2  0
  3  4  1  0
  4  5  1  0
  5  6  1  0
  5  7  2  0
  7  8  1  0
  8  9  2  0
  9 10  1  0
 10 11  1  0
 11 12  1  0
 11 13  2  0
 13 14  1  0
 13 15  1  0
 15 16  1  0
 16 17  1  0
 17 18  1  0
 18 19  1  0
 19 20  1  0
 19 21  1  0
 19 22  1  0
 22 23  1  0
 22 24  1  0
 22 25  1  0
 25 26  1  0
 26 27  1  0
 26 28  1  0
 26 29  1  0
 29 30  1  0
 29 31  1  0
 17 32  2  0
 32 33  1  0
  7 34  1  0
 34 35  1  0
 34 36  2  0
 36 37  1  0
 37 38  1  0
 38 39  1  0
 38 40  1  0
 38 41  1  0
 41 42  1  0
 42 43  1  0
 43 44  2  0
 44 45  1  0
 43 46  1  0
 46 47  1  0
 46 48  2  0
 48 49  1  0
 48 50  1  0
 50 51  1  0
 36  3  1  0
 50 41  2  0
 32  8  1  0
 16 10  2  0
 29 18  1  0
M  CHG  3   4  -1  32   1  42  -1
M  END
>  <UniqueID>  (12) 
12

>  <SMILES>  (12) 
[H]/N=c1\[n-]cc(-c2nc3ccsc3c(N3CCOCC3)[nH+]2)cc1OCc1ccc/c(=N\[H])[n-]1

>  <Energy>  (12) 
103.6511285183354

>  <Genealogy>  (12) 
N=c1cccc(COc2cc(-c3nc4ccsc4c(N4CCOCC4)[nH+]3)c[n-]c2=N)[n-]1 (protonated)
[H]/N=c1\[n-]cc(-c2nc3ccsc3c(N3CCOCC3)[nH+]2)cc1OCc1ccc/c(=N\[H])[n-]1 (cis-trans isomerization)
[H]/N=c1\[n-]cc(-c2nc3ccsc3c(N3CCOCC3)[nH+]2)cc1OCc1ccc/c(=N\[H])[n-]1 (3D coordinates assigned)
[H]/N=c1\[n-]cc(-c2nc3ccsc3c(N3CCOCC3)[nH+]2)cc1OCc1ccc/c(=N\[H])[n-]1 (nonaromatic ring conformer: 103.6511285183354 kcal/mol)

>  <smiles>  (12) 
N=c1cccc(COc2cc(-c3nc(N4CCOCC4)c4sccc4n3)c[nH]c2=N)[nH]1

>  <score_type>  (12) 
oracle

>  <origin>  (12) 
adg

>  <m_score__min__energy>  (12) 
-10.19

>  <m_primary>  (12) 
energy

$$$$
12:0
     RDKit          3D

 51 54  0  0  0  0  0  0  0  0999 V2000
   58.3860   29.4750   49.0130 O   0  0  0  0  0  0  0  0  0  0  0  0
   59.4070   30.1700   48.7540 C   0  0  0  0  0  0  0  0  0  0  0  0
   60.6490   29.5030   48.2510 C   0  0  0  0  0  0  0  0  0  0  0  0
   61.0500   30.1140   46.9760 N   0  0  0  0  0  0  0  0  0  0  0  0
   60.7640   29.4070   45.7140 C   0  0  0  0  0  0  0  0  0  0  0  0
   59.2780   29.2950   45.4870 C   0  0  0  0  0  0  0  0  0  0  0  0
   58.5680   30.3390   44.8660 C   0  0  0  0  0  0  0  0  0  0  0  0
   57.1900   30.2290   44.6640 C   0  0  0  0  0  0  0  0  0  0  0  0
   56.5080   29.0800   45.0800 C   0  0  0  0  0  0  0  0  0  0  0  0
   55.1370   28.9730   44.8790 O   0  0  0  0  0  0  0  0  0  0  0  0
   57.2070   28.0400   45.7020 C   0  0  0  0  0  0  0  0  0  0  0  0
   58.5860   28.1460   45.9080 C   0  0  0  0  0  0  0  0  0  0  0  0
   61.7360   31.3910   46.9950 C   0  0  0  0  0  0  0  0  0  0  0  0
   61.1810   32.4000   46.4740 O   0  0  0  0  0  0  0  0  0  0  0  0
   63.0760   31.5700   47.6650 C   0  0  0  0  0  0  0  0  0  0  0  0
   62.9710   32.5090   48.8380 C   0  0  0  0  0  0  0  0  0  0  0  0
   61.8090   33.2310   49.1280 C   0  0  0  0  0  0  0  0  0  0  0  0
   62.0850   34.1980   50.4860 S   0  0  0  0  0  0  0  0  0  0  0  0
   63.6770   33.7170   50.7050 C   0  0  0  0  0  0  0  0  0  0  0  0
   64.5740   34.1260   51.6890 C   0  0  0  0  0  0  0  0  0  0  0  0
   65.8690   33.5840   51.6760 C   0  0  0  0  0  0  0  0  0  0  0  0
   66.2440   32.6630   50.6820 C   0  0  0  0  0  0  0  0  0  0  0  0
   65.3240   32.2630   49.6980 C   0  0  0  0  0  0  0  0  0  0  0  0
   64.0250   32.7970   49.7250 C   0  0  0  0  0  0  0  0  0  0  0  0
   59.3680   31.5930   48.8750 N   0  0  0  0  0  0  0  0  0  0  0  0
   58.1640   32.3740   48.6310 C   0  0  0  0  0  0  0  0  0  0  0  0
   58.3890   33.2740   47.4620 C   0  0  0  0  0  0  0  0  0  0  0  0
   57.8440   33.1170   46.1960 C   0  0  0  0  0  0  0  0  0  0  0  0
   58.3000   34.0670   45.2760 C   0  0  0  0  0  0  0  0  0  0  0  0
   59.2190   34.9620   45.8090 C   0  0  0  0  0  0  0  0  0  0  0  0
   59.4640   34.5670   47.4250 S   0  0  0  0  0  0  0  0  0  0  0  0
   61.4564   29.6278   48.9876 H   0  0  0  0  0  0  0  0  0  0  0  0
   60.4542   28.4311   48.0992 H   0  0  0  0  0  0  0  0  0  0  0  0
   61.2153   29.9630   44.8790 H   0  0  0  0  0  0  0  0  0  0  0  0
   61.1885   28.3940   45.7738 H   0  0  0  0  0  0  0  0  0  0  0  0
   59.0996   31.2446   44.5385 H   0  0  0  0  0  0  0  0  0  0  0  0
   56.6398   31.0475   44.1768 H   0  0  0  0  0  0  0  0  0  0  0  0
   56.6708   27.1371   46.0296 H   0  0  0  0  0  0  0  0  0  0  0  0
   59.1311   27.3276   46.4011 H   0  0  0  0  0  0  0  0  0  0  0  0
   63.4354   30.5921   48.0179 H   0  0  0  0  0  0  0  0  0  0  0  0
   63.7788   31.9979   46.9350 H   0  0  0  0  0  0  0  0  0  0  0  0
   60.8667   33.1780   48.5629 H   0  0  0  0  0  0  0  0  0  0  0  0
   64.2753   34.8550   52.4567 H   0  0  0  0  0  0  0  0  0  0  0  0
   66.5943   33.8815   52.4477 H   0  0  0  0  0  0  0  0  0  0  0  0
   67.2646   32.2527   50.6746 H   0  0  0  0  0  0  0  0  0  0  0  0
   65.6163   31.5433   48.9191 H   0  0  0  0  0  0  0  0  0  0  0  0
   57.3238   31.6970   48.4173 H   0  0  0  0  0  0  0  0  0  0  0  0
   57.9290   32.9768   49.5206 H   0  0  0  0  0  0  0  0  0  0  0  0
   57.1250   32.3245   45.9410 H   0  0  0  0  0  0  0  0  0  0  0  0
   57.9628   34.1020   44.2296 H   0  0  0  0  0  0  0  0  0  0  0  0
   59.7034   35.7875   45.2669 H   0  0  0  0  0  0  0  0  0  0  0  0
  1  2  2  0
  2  3  1  0
  3  4  1  0
  4  5  1  0
  5  6  1  0
  6  7  2  0
  7  8  1  0
  8  9  2  0
  9 10  1  0
  9 11  1  0
 11 12  2  0
  4 13  1  0
 13 14  2  0
 13 15  1  0
 15 16  1  0
 16 17  2  0
 17 18  1  0
 18 19  1  0
 19 20  2  0
 20 21  1  0
 21 22  2  0
 22 23  1  0
 23 24  2  0
  2 25  1  0
 25 26  1  0
 26 27  1  0
 27 28  2  0
 28 29  1  0
 29 30  2  0
 30 31  1  0
 12  6  1  0
 24 16  1  0
 31 27  1  0
 24 19  1  0
  3 32  1  0
  3 33  1  0
  5 34  1  0
  5 35  1  0
  7 36  1  0
  8 37  1  0
 11 38  1  0
 12 39  1  0
 15 40  1  0
 15 41  1  0
 17 42  1  0
 20 43  1  0
 21 44  1  0
 22 45  1  0
 23 46  1  0
 26 47  1  0
 26 48  1  0
 28 49  1  0
 29 50  1  0
 30 51  1  0
M  CHG  2  10  -1  25  -1
M  END
>  <UniqueID>  (13) 
13

>  <SMILES>  (13) 
O=C(CN(Cc1ccc([O-])cc1)C(=O)Cc1csc2ccccc12)[N-]Cc1cccs1

>  <Energy>  (13) 
101.62194074947982

>  <Genealogy>  (13) 
O=C(CN(Cc1ccc([O-])cc1)C(=O)Cc1csc2ccccc12)[N-]Cc1cccs1 (protonated)
O=C(CN(Cc1ccc([O-])cc1)C(=O)Cc1csc2ccccc12)[N-]Cc1cccs1 (3D coordinates assigned)
O=C(CN(Cc1ccc([O-])cc1)C(=O)Cc1csc2ccccc12)[N-]Cc1cccs1 (optimized conformer: 101.62194074947982 kcal/mol)

>  <smiles>  (13) 
O=C(CN(Cc1ccc(O)cc1)C(=O)Cc1csc2ccccc12)NCc1cccs1

>  <score_type>  (13) 
oracle

>  <origin>  (13) 
adg

>  <m_score__min__energy>  (13) 
-12.81

>  <m_primary>  (13) 
energy

$$$$
13:0
     RDKit          3D

 36 38  0  0  0  0  0  0  0  0999 V2000
   57.0210   31.5930   41.7520 C   0  0  0  0  0  0  0  0  0  0  0  0
   57.3330   31.6790   43.1740 N   0  0  0  0  0  0  0  0  0  0  0  0
   57.9840   32.6840   43.7810 C   0  0  0  0  0  0  0  0  0  0  0  0
   57.9990   32.4210   45.1420 C   0  0  0  0  0  0  0  0  0  0  0  0
   58.6030   33.2560   46.2080 C   0  0  0  0  0  0  0  0  0  0  0  0
   59.0790   34.5550   45.9410 C   0  0  0  0  0  0  0  0  0  0  0  0
   59.6430   35.3260   46.9620 C   0  0  0  0  0  0  0  0  0  0  0  0
   59.7400   34.8120   48.2570 C   0  0  0  0  0  0  0  0  0  0  0  0
   59.2740   33.5260   48.5350 C   0  0  0  0  0  0  0  0  0  0  0  0
   58.7090   32.7510   47.5180 C   0  0  0  0  0  0  0  0  0  0  0  0
   57.3460   31.2630   45.3810 N   0  0  0  0  0  0  0  0  0  0  0  0
   56.9450   30.8470   44.1620 C   0  0  0  0  0  0  0  0  0  0  0  0
   55.9890   29.3470   43.9200 S   0  0  0  0  0  0  0  0  0  0  0  0
   57.1660   28.3380   44.8280 C   0  0  0  0  0  0  0  0  0  0  0  0
   58.5340   28.5940   44.7200 C   0  0  0  0  0  0  0  0  0  0  0  0
   59.4380   27.8360   45.4080 N   0  0  0  0  0  0  0  0  0  0  0  0
   60.8710   28.1400   45.3060 C   0  0  0  0  0  0  0  0  0  0  0  0
   59.0010   26.8220   46.2200 C   0  0  0  0  0  0  0  0  0  0  0  0
   59.8270   26.1280   46.8760 O   0  0  0  0  0  0  0  0  0  0  0  0
   57.6710   26.5520   46.3240 N   0  0  0  0  0  0  0  0  0  0  0  0
   56.7500   27.2820   45.6430 C   0  0  0  0  0  0  0  0  0  0  0  0
   55.5260   27.0000   45.7450 O   0  0  0  0  0  0  0  0  0  0  0  0
   55.9677   31.3027   41.6246 H   0  0  0  0  0  0  0  0  0  0  0  0
   57.1913   32.5716   41.2794 H   0  0  0  0  0  0  0  0  0  0  0  0
   57.6687   30.8399   41.2794 H   0  0  0  0  0  0  0  0  0  0  0  0
   58.4270   33.5608   43.2861 H   0  0  0  0  0  0  0  0  0  0  0  0
   59.0064   34.9651   44.9229 H   0  0  0  0  0  0  0  0  0  0  0  0
   60.0111   36.3396   46.7448 H   0  0  0  0  0  0  0  0  0  0  0  0
   60.1839   35.4210   49.0583 H   0  0  0  0  0  0  0  0  0  0  0  0
   59.3514   33.1220   49.5552 H   0  0  0  0  0  0  0  0  0  0  0  0
   58.3441   31.7380   47.7431 H   0  0  0  0  0  0  0  0  0  0  0  0
   58.8867   29.4128   44.0756 H   0  0  0  0  0  0  0  0  0  0  0  0
   61.2993   28.2309   46.3151 H   0  0  0  0  0  0  0  0  0  0  0  0
   61.3800   27.3298   44.7632 H   0  0  0  0  0  0  0  0  0  0  0  0
   61.0072   29.0870   44.7632 H   0  0  0  0  0  0  0  0  0  0  0  0
   57.3520   25.7680   46.9390 H   0  0  0  0  0  0  0  0  0  0  0  0
  1  2  1  0
  2  3  1  0
  3  4  2  0
  4  5  1  0
  5  6  2  0
  6  7  1  0
  7  8  2  0
  8  9  1  0
  9 10  2  0
  4 11  1  0
 11 12  2  0
 12 13  1  0
 13 14  1  0
 14 15  2  0
 15 16  1  0
 16 17  1  0
 16 18  1  0
 18 19  2  0
 18 20  1  0
 20 21  1  0
 21 22  2  0
 12  2  1  0
 21 14  1  0
 10  5  1  0
  1 23  1  0
  1 24  1  0
  1 25  1  0
  3 26  1  0
  6 27  1  0
  7 28  1  0
  8 29  1  0
  9 30  1  0
 10 31  1  0
 15 32  1  0
 17 33  1  0
 17 34  1  0
 17 35  1  0
 20 36  1  0
M  END
>  <UniqueID>  (14) 
14

>  <SMILES>  (14) 
Cn1cc(-c2ccccc2)nc1Sc1cn(C)c(=O)[nH]c1=O

>  <Energy>  (14) 
66.89574127152895

>  <Genealogy>  (14) 
Cn1cc(-c2ccccc2)nc1Sc1cn(C)c(=O)[nH]c1=O (3D coordinates assigned)
Cn1cc(-c2ccccc2)nc1Sc1cn(C)c(=O)[nH]c1=O (optimized conformer: 66.89574127152895 kcal/mol)

>  <smiles>  (14) 
Cn1cc(-c2ccccc2)nc1Sc1cn(C)c(=O)[nH]c1=O

>  <score_type>  (14) 
oracle

>  <origin>  (14) 
adg

>  <m_score__min__energy>  (14) 
-7.5800000000000001

>  <m_primary>  (14) 
energy

$$$$
14:0
     RDKit          3D

 50 53  0  0  0  0  0  0  0  0999 V2000
   57.5510   31.7860   42.8950 C   0  0  0  0  0  0  0  0  0  0  0  0
   58.1570   31.6660   44.0870 C   0  0  0  0  0  0  0  0  0  0  0  0
   58.4620   30.4750   44.7660 C   0  0  0  0  0  0  0  0  0  0  0  0
   58.4360   29.1920   44.3580 C   0  0  0  0  0  0  0  0  0  0  0  0
   57.5900   28.1300   44.9300 C   0  0  0  0  0  0  0  0  0  0  0  0
   58.0550   26.9540   45.3920 N   0  0  0  0  0  0  0  0  0  0  0  0
   56.9610   26.3780   45.9370 C   0  0  0  0  0  0  0  0  0  0  0  0
   56.9900   25.2390   46.4700 O   0  0  0  0  0  0  0  0  0  0  0  0
   55.8380   27.1250   45.8760 N   0  0  0  0  0  0  0  0  0  0  0  0
   56.2550   28.2370   45.2480 C   0  0  0  0  0  0  0  0  0  0  0  0
   55.4240   29.3210   44.9760 O   0  0  0  0  0  0  0  0  0  0  0  0
   58.8520   30.8460   46.0400 C   0  0  0  0  0  0  0  0  0  0  0  0
   58.8230   32.2250   46.0850 C   0  0  0  0  0  0  0  0  0  0  0  0
   59.1770   33.0180   47.2770 C   0  0  0  0  0  0  0  0  0  0  0  0
   58.4650   34.0140   47.5770 O   0  0  0  0  0  0  0  0  0  0  0  0
   60.3370   32.7030   48.0660 N   0  0  0  0  0  0  0  0  0  0  0  0
   61.5840   32.3010   47.3980 C   0  0  0  0  0  0  0  0  0  0  0  0
   62.6840   31.9530   48.4080 C   0  0  0  0  0  0  0  0  0  0  0  0
   62.7850   32.9900   49.4470 N   0  0  0  0  0  0  0  0  0  0  0  0
   64.0640   33.2990   50.0440 C   0  0  0  0  0  0  0  0  0  0  0  0
   65.2500   32.7360   49.5340 C   0  0  0  0  0  0  0  0  0  0  0  0
   66.4850   33.0320   50.1190 C   0  0  0  0  0  0  0  0  0  0  0  0
   66.5530   33.8910   51.2190 C   0  0  0  0  0  0  0  0  0  0  0  0
   68.1030   34.2610   51.9500 Cl  0  0  0  0  0  0  0  0  0  0  0  0
   65.3830   34.4520   51.7370 C   0  0  0  0  0  0  0  0  0  0  0  0
   64.1450   34.1590   51.1560 C   0  0  0  0  0  0  0  0  0  0  0  0
   61.5640   33.6110   49.9890 C   0  0  0  0  0  0  0  0  0  0  0  0
   60.3060   32.8750   49.5240 C   0  0  0  0  0  0  0  0  0  0  0  0
   58.4330   32.7270   44.8900 N   0  0  0  0  0  0  0  0  0  0  0  0
   58.3240   34.1460   44.5310 C   0  0  0  0  0  0  0  0  0  0  0  0
   57.3685   32.7835   42.4687 H   0  0  0  0  0  0  0  0  0  0  0  0
   57.2370   30.8868   42.3446 H   0  0  0  0  0  0  0  0  0  0  0  0
   59.1022   28.9135   43.5282 H   0  0  0  0  0  0  0  0  0  0  0  0
   55.3460   30.1000   45.6200 H   0  0  0  0  0  0  0  0  0  0  0  0
   59.1321   30.1702   46.8615 H   0  0  0  0  0  0  0  0  0  0  0  0
   61.3841   31.4194   46.7713 H   0  0  0  0  0  0  0  0  0  0  0  0
   61.9341   33.1475   46.7890 H   0  0  0  0  0  0  0  0  0  0  0  0
   62.4468   30.9892   48.8821 H   0  0  0  0  0  0  0  0  0  0  0  0
   63.6449   31.8913   47.8762 H   0  0  0  0  0  0  0  0  0  0  0  0
   65.2044   32.0582   48.6688 H   0  0  0  0  0  0  0  0  0  0  0  0
   67.4053   32.5875   49.7123 H   0  0  0  0  0  0  0  0  0  0  0  0
   65.4357   35.1263   52.6045 H   0  0  0  0  0  0  0  0  0  0  0  0
   63.2282   34.6035   51.5706 H   0  0  0  0  0  0  0  0  0  0  0  0
   61.6075   33.5851   51.0878 H   0  0  0  0  0  0  0  0  0  0  0  0
   61.5125   34.6471   49.6231 H   0  0  0  0  0  0  0  0  0  0  0  0
   60.2618   31.8876   50.0068 H   0  0  0  0  0  0  0  0  0  0  0  0
   59.4191   33.4643   49.8001 H   0  0  0  0  0  0  0  0  0  0  0  0
   58.2773   34.7534   45.4469 H   0  0  0  0  0  0  0  0  0  0  0  0
   59.2020   34.4428   43.9385 H   0  0  0  0  0  0  0  0  0  0  0  0
   57.4110   34.3052   43.9385 H   0  0  0  0  0  0  0  0  0  0  0  0
  1  2  2  0
  2  3  1  0
  3  4  2  3
  4  5  1  0
  5  6  1  0
  6  7  1  0
  7  8  2  0
  7  9  1  0
  9 10  1  0
 10 11  1  0
  3 12  1  0
 12 13  2  0
 13 14  1  0
 14 15  2  0
 14 16  1  0
 16 17  1  0
 17 18  1  0
 18 19  1  0
 19 20  1  0
 20 21  2  0
 21 22  1  0
 22 23  2  0
 23 24  1  0
 23 25  1  0
 25 26  2  0
 19 27  1  0
 27 28  1  0
 13 29  1  0
 29 30  1  0
 29  2  1  0
 10  5  2  0
 28 16  1  0
 26 20  1  0
  1 31  1  0
  1 32  1  0
  4 33  1  0
 11 34  1  0
 12 35  1  0
 17 36  1  0
 17 37  1  0
 18 38  1  0
 18 39  1  0
 21 40  1  0
 22 41  1  0
 25 42  1  0
 26 43  1  0
 27 44  1  0
 27 45  1  0
 28 46  1  0
 28 47  1  0
 30 48  1  0
 30 49  1  0
 30 50  1  0
M  CHG  2   6  -1   9  -1
M  END
>  <UniqueID>  (15) 
15

>  <SMILES>  (15) 
C=c1c(=Cc2[n-]c(=O)[n-]c2O)cc(C(=O)N2CCN(c3ccc(Cl)cc3)CC2)n1C

>  <Energy>  (15) 
131.5018386773286

>  <Genealogy>  (15) 
C=c1c(=Cc2[n-]c(=O)[n-]c2O)cc(C(=O)N2CCN(c3ccc(Cl)cc3)CC2)n1C (protonated)
C=c1c(=Cc2[n-]c(=O)[n-]c2O)cc(C(=O)N2CCN(c3ccc(Cl)cc3)CC2)n1C (3D coordinates assigned)
C=c1c(=Cc2[n-]c(=O)[n-]c2O)cc(C(=O)N2CCN(c3ccc(Cl)cc3)CC2)n1C (nonaromatic ring conformer: 131.5018386773286 kcal/mol)

>  <smiles>  (15) 
C=c1c(=Cc2[nH]c(=O)[nH]c2O)cc(C(=O)N2CCN(c3ccc(Cl)cc3)CC2)n1C

>  <score_type>  (15) 
oracle

>  <origin>  (15) 
adg

>  <m_score__min__energy>  (15) 
-13.17

>  <m_primary>  (15) 
energy

$$$$
15:0
     RDKit          3D

 25 25  0  0  0  0  0  0  0  0999 V2000
   56.3130   24.6520   47.0240 H   0  0  0  0  0  0  0  0  0  0  0  0
   57.1970   25.1470   47.0060 O   0  0  0  0  0  0  0  0  0  0  0  0
   57.3050   26.4270   46.4670 C   0  0  0  0  0  0  0  0  0  0  0  0
   58.5450   27.0790   46.4290 C   0  0  0  0  0  0  0  0  0  0  0  0
   59.4408   26.5720   46.8169 H   0  0  0  0  0  0  0  0  0  0  0  0
   58.6520   28.3780   45.8980 C   0  0  0  0  0  0  0  0  0  0  0  0
   59.9500   29.0900   45.8260 C   0  0  0  0  0  0  0  0  0  0  0  0
   60.7437   28.6370   45.2138 H   0  0  0  0  0  0  0  0  0  0  0  0
   60.2330   30.2470   46.4510 C   0  0  0  0  0  0  0  0  0  0  0  0
   59.5330   31.4420   46.0490 C   0  0  0  0  0  0  0  0  0  0  0  0
   58.9710   32.4020   45.7280 N   0  0  0  0  0  0  0  0  0  0  0  0
   61.1920   30.3490   47.5720 C   0  0  0  0  0  0  0  0  0  0  0  0
   62.4320   31.4150   47.4650 S   0  0  0  0  0  0  0  0  0  0  0  0
   61.0300   29.5830   48.7760 N   0  0  0  0  0  0  0  0  0  0  0  0
   61.8100   29.5670   49.4710 H   0  0  0  0  0  0  0  0  0  0  0  0
   59.7550   28.9920   49.1670 C   0  0  0  0  0  0  0  0  0  0  0  0
   59.6867   28.9604   50.2644 H   0  0  0  0  0  0  0  0  0  0  0  0
   58.9307   29.5998   48.7657 H   0  0  0  0  0  0  0  0  0  0  0  0
   59.6861   27.9701   48.7657 H   0  0  0  0  0  0  0  0  0  0  0  0
   57.5110   28.9900   45.3580 C   0  0  0  0  0  0  0  0  0  0  0  0
   57.5912   29.9877   44.9018 H   0  0  0  0  0  0  0  0  0  0  0  0
   56.2730   28.3420   45.3950 C   0  0  0  0  0  0  0  0  0  0  0  0
   55.1490   28.9710   44.8740 O   0  0  0  0  0  0  0  0  0  0  0  0
   56.1680   27.0630   45.9530 C   0  0  0  0  0  0  0  0  0  0  0  0
   54.9350   26.4210   45.9920 O   0  0  0  0  0  0  0  0  0  0  0  0
  1  2  1  0
  2  3  1  0
  3  4  2  0
  4  5  1  0
  4  6  1  0
  6  7  1  0
  7  8  1  0
  7  9  2  0
  9 10  1  0
 10 11  3  0
  9 12  1  0
 12 13  2  0
 12 14  1  0
 14 15  1  0
 14 16  1  0
 16 17  1  0
 16 18  1  0
 16 19  1  0
  6 20  2  0
 20 21  1  0
 20 22  1  0
 22 23  1  0
 22 24  2  0
 24 25  1  0
 24  3  1  0
M  CHG  2  23  -1  25  -1
M  END
>  <UniqueID>  (16) 
16

>  <SMILES>  (16) 
CNC(=S)/C(C#N)=C\c1cc([O-])c([O-])c(O)c1

>  <Energy>  (16) 
30.894510074519705

>  <Genealogy>  (16) 
CNC(=S)C(C#N)=Cc1cc([O-])c([O-])c(O)c1 (protonated)
CNC(=S)/C(C#N)=C\c1cc([O-])c([O-])c(O)c1 (cis-trans isomerization)
CNC(=S)/C(C#N)=C\c1cc([O-])c([O-])c(O)c1 (3D coordinates assigned)
CNC(=S)/C(C#N)=C\c1cc([O-])c([O-])c(O)c1 (optimized conformer: 30.894510074519705 kcal/mol)

>  <smiles>  (16) 
CNC(=S)C(C#N)=Cc1cc(O)c(O)c(O)c1

>  <score_type>  (16) 
oracle

>  <origin>  (16) 
adg

>  <m_score__min__energy>  (16) 
-14.359999999999999

>  <m_primary>  (16) 
energy

$$$$
16:0
     RDKit          3D

 32 33  0  0  0  0  0  0  0  0999 V2000
   57.2171   23.0109   42.8342 H   0  0  0  0  0  0  0  0  0  0  0  0
   56.2940   22.7550   43.3750 C   0  0  0  0  0  0  0  0  0  0  0  0
   56.0583   21.7030   43.5936 H   0  0  0  0  0  0  0  0  0  0  0  0
   55.4600   23.7210   43.7660 C   0  0  0  0  0  0  0  0  0  0  0  0
   55.7081   24.7687   43.5408 H   0  0  0  0  0  0  0  0  0  0  0  0
   54.1930   23.4110   44.5050 C   0  0  0  0  0  0  0  0  0  0  0  0
   53.3301   23.7100   43.8918 H   0  0  0  0  0  0  0  0  0  0  0  0
   54.1465   22.3311   44.7088 H   0  0  0  0  0  0  0  0  0  0  0  0
   54.1660   24.1400   45.7660 N   0  0  0  0  0  0  0  0  0  0  0  0
   55.1290   24.0680   46.6300 C   0  0  0  0  0  0  0  0  0  0  0  0
   55.0126   23.4164   47.5086 H   0  0  0  0  0  0  0  0  0  0  0  0
   56.3890   24.8440   46.4650 C   0  0  0  0  0  0  0  0  0  0  0  0
   56.3980   26.2180   46.1450 C   0  0  0  0  0  0  0  0  0  0  0  0
   55.1980   26.9110   45.9900 O   0  0  0  0  0  0  0  0  0  0  0  0
   57.5850   26.8870   45.9990 N   0  0  0  0  0  0  0  0  0  0  0  0
   57.5790   28.2890   45.6660 C   0  0  0  0  0  0  0  0  0  0  0  0
   57.0060   28.7300   44.4630 C   0  0  0  0  0  0  0  0  0  0  0  0
   56.5595   28.0016   43.7701 H   0  0  0  0  0  0  0  0  0  0  0  0
   57.0000   30.0910   44.1410 C   0  0  0  0  0  0  0  0  0  0  0  0
   56.5492   30.4304   43.1968 H   0  0  0  0  0  0  0  0  0  0  0  0
   57.5670   31.0210   45.0190 C   0  0  0  0  0  0  0  0  0  0  0  0
   57.5600   32.7280   44.6150 Cl  0  0  0  0  0  0  0  0  0  0  0  0
   58.1410   30.5880   46.2200 C   0  0  0  0  0  0  0  0  0  0  0  0
   58.5871   31.3189   46.9105 H   0  0  0  0  0  0  0  0  0  0  0  0
   58.1480   29.2280   46.5430 C   0  0  0  0  0  0  0  0  0  0  0  0
   58.6007   28.8915   47.4874 H   0  0  0  0  0  0  0  0  0  0  0  0
   58.7720   26.2260   46.1670 C   0  0  0  0  0  0  0  0  0  0  0  0
   59.8700   26.8330   46.0220 O   0  0  0  0  0  0  0  0  0  0  0  0
   58.7830   24.9050   46.4810 N   0  0  0  0  0  0  0  0  0  0  0  0
   59.6980   24.4150   46.6050 H   0  0  0  0  0  0  0  0  0  0  0  0
   57.6290   24.2050   46.6310 C   0  0  0  0  0  0  0  0  0  0  0  0
   57.6860   22.9780   46.9180 O   0  0  0  0  0  0  0  0  0  0  0  0
  1  2  1  0
  2  3  1  0
  2  4  2  0
  4  5  1  0
  4  6  1  0
  6  7  1  0
  6  8  1  0
  6  9  1  0
  9 10  2  0
 10 11  1  0
 10 12  1  0
 12 13  2  0
 13 14  1  0
 13 15  1  0
 15 16  1  0
 16 17  2  0
 17 18  1  0
 17 19  1  0
 19 20  1  0
 19 21  2  0
 21 22  1  0
 21 23  1  0
 23 24  1  0
 23 25  2  0
 25 26  1  0
 15 27  1  0
 27 28  2  0
 27 29  1  0
 29 30  1  0
 29 31  1  0
 31 32  2  0
 31 12  1  0
 25 16  1  0
M  CHG  1  14  -1
M  END
>  <UniqueID>  (17) 
17

>  <SMILES>  (17) 
C=CC/N=C/c1c([O-])n(-c2ccc(Cl)cc2)c(=O)[nH]c1=O

>  <Energy>  (17) 
40.19674385750195

>  <Genealogy>  (17) 
C=CCN=Cc1c([O-])n(-c2ccc(Cl)cc2)c(=O)[nH]c1=O (protonated)
C=CC/N=C/c1c([O-])n(-c2ccc(Cl)cc2)c(=O)[nH]c1=O (cis-trans isomerization)
C=CC/N=C/c1c([O-])n(-c2ccc(Cl)cc2)c(=O)[nH]c1=O (3D coordinates assigned)
C=CC/N=C/c1c([O-])n(-c2ccc(Cl)cc2)c(=O)[nH]c1=O (optimized conformer: 40.19674385750195 kcal/mol)

>  <smiles>  (17) 
C=CCN=Cc1c(O)n(-c2ccc(Cl)cc2)c(=O)[nH]c1=O

>  <score_type>  (17) 
oracle

>  <origin>  (17) 
adg

>  <m_score__min__energy>  (17) 
-9.4800000000000004

>  <m_primary>  (17) 
energy

$$$$
17:0
     RDKit          3D

 55 58  0  0  0  0  0  0  0  0999 V2000
   53.6340   29.3270   52.5610 N   0  0  0  0  0  0  0  0  0  0  0  0
   54.8530   29.6680   52.2900 C   0  0  0  0  0  0  0  0  0  0  0  0
   55.1400   30.8630   51.6170 C   0  0  0  0  0  0  0  0  0  0  0  0
   56.4320   31.1860   51.3470 N   0  0  0  0  0  0  0  0  0  0  0  0
   57.4600   30.3660   51.7130 C   0  0  0  0  0  0  0  0  0  0  0  0
   58.8650   30.7240   51.3930 C   0  0  0  0  0  0  0  0  0  0  0  0
   59.7400   31.1290   52.4170 C   0  0  0  0  0  0  0  0  0  0  0  0
   61.0680   31.4520   52.1280 C   0  0  0  0  0  0  0  0  0  0  0  0
   61.5480   31.3700   50.8130 C   0  0  0  0  0  0  0  0  0  0  0  0
   62.9770   31.7220   50.5140 C   0  0  0  0  0  0  0  0  0  0  0  0
   63.1950   33.0740   50.8520 O   0  0  0  0  0  0  0  0  0  0  0  0
   63.7300   33.7590   49.7390 C   0  0  0  0  0  0  0  0  0  0  0  0
   62.6700   33.8670   48.6820 C   0  0  0  0  0  0  0  0  0  0  0  0
   62.9390   33.4870   47.3600 C   0  0  0  0  0  0  0  0  0  0  0  0
   61.9340   33.5510   46.3910 C   0  0  0  0  0  0  0  0  0  0  0  0
   60.6400   33.9560   46.7390 C   0  0  0  0  0  0  0  0  0  0  0  0
   59.6250   33.9760   45.7330 N   0  0  0  0  0  0  0  0  0  0  0  0
   58.0710   33.2310   45.9360 S   0  0  0  0  0  0  0  0  0  0  0  0
   57.8570   32.8290   47.3680 O   0  0  0  0  0  0  0  0  0  0  0  0
   57.0010   34.2100   45.5440 O   0  0  0  0  0  0  0  0  0  0  0  0
   57.9580   31.7800   44.9020 C   0  0  0  0  0  0  0  0  0  0  0  0
   58.5470   30.5850   45.6030 C   0  0  0  0  0  0  0  0  0  0  0  0
   59.8280   30.6560   46.1700 C   0  0  0  0  0  0  0  0  0  0  0  0
   60.3770   29.5220   46.7750 C   0  0  0  0  0  0  0  0  0  0  0  0
   59.6700   28.3610   46.8180 N   0  0  0  0  0  0  0  0  0  0  0  0
   58.4240   28.2660   46.2800 C   0  0  0  0  0  0  0  0  0  0  0  0
   57.8410   29.3740   45.6590 C   0  0  0  0  0  0  0  0  0  0  0  0
   60.3720   34.3610   48.0580 C   0  0  0  0  0  0  0  0  0  0  0  0
   59.1580   34.8610   48.3980 F   0  0  0  0  0  0  0  0  0  0  0  0
   61.3810   34.3010   49.0250 C   0  0  0  0  0  0  0  0  0  0  0  0
   60.6750   30.9800   49.7870 C   0  0  0  0  0  0  0  0  0  0  0  0
   59.3450   30.6540   50.0720 C   0  0  0  0  0  0  0  0  0  0  0  0
   58.5450   30.2250   49.0630 F   0  0  0  0  0  0  0  0  0  0  0  0
   57.1660   29.1750   52.3950 C   0  0  0  0  0  0  0  0  0  0  0  0
   55.8740   28.8550   52.6620 N   0  0  0  0  0  0  0  0  0  0  0  0
   53.1280   28.5820   52.0300 H   0  0  0  0  0  0  0  0  0  0  0  0
   54.3252   31.5349   51.3094 H   0  0  0  0  0  0  0  0  0  0  0  0
   56.6260   32.0930   50.8660 H   0  0  0  0  0  0  0  0  0  0  0  0
   59.3759   31.1919   53.4531 H   0  0  0  0  0  0  0  0  0  0  0  0
   61.7412   31.7726   52.9368 H   0  0  0  0  0  0  0  0  0  0  0  0
   63.6468   31.0808   51.1058 H   0  0  0  0  0  0  0  0  0  0  0  0
   63.1829   31.5674   49.4446 H   0  0  0  0  0  0  0  0  0  0  0  0
   64.0517   34.7657   50.0442 H   0  0  0  0  0  0  0  0  0  0  0  0
   64.5972   33.2097   49.3437 H   0  0  0  0  0  0  0  0  0  0  0  0
   63.9447   33.1371   47.0842 H   0  0  0  0  0  0  0  0  0  0  0  0
   62.1611   33.2816   45.3490 H   0  0  0  0  0  0  0  0  0  0  0  0
   56.9008   31.5804   44.6729 H   0  0  0  0  0  0  0  0  0  0  0  0
   58.5201   31.9603   43.9738 H   0  0  0  0  0  0  0  0  0  0  0  0
   60.3963   31.5973   46.1387 H   0  0  0  0  0  0  0  0  0  0  0  0
   61.3831   29.5686   47.2173 H   0  0  0  0  0  0  0  0  0  0  0  0
   57.8741   27.3148   46.3339 H   0  0  0  0  0  0  0  0  0  0  0  0
   56.8364   29.2971   45.2176 H   0  0  0  0  0  0  0  0  0  0  0  0
   61.1620   34.5963   50.0618 H   0  0  0  0  0  0  0  0  0  0  0  0
   61.0390   30.9301   48.7502 H   0  0  0  0  0  0  0  0  0  0  0  0
   57.9784   28.5043   52.7115 H   0  0  0  0  0  0  0  0  0  0  0  0
  1  2  2  3
  2  3  1  0
  3  4  2  0
  4  5  1  0
  5  6  1  0
  6  7  2  0
  7  8  1  0
  8  9  2  0
  9 10  1  0
 10 11  1  0
 11 12  1  0
 12 13  1  0
 13 14  2  0
 14 15  1  0
 15 16  2  0
 16 17  1  0
 17 18  1  0
 18 19  2  0
 18 20  2  0
 18 21  1  0
 21 22  1  0
 22 23  2  0
 23 24  1  0
 24 25  2  0
 25 26  1  0
 26 27  2  0
 16 28  1  0
 28 29  1  0
 28 30  2  0
  9 31  1  0
 31 32  2  0
 32 33  1  0
  5 34  2  0
 34 35  1  0
 35  2  1  0
 32  6  1  0
 30 13  1  0
 27 22  1  0
  1 36  1  0
  3 37  1  0
  4 38  1  0
  7 39  1  0
  8 40  1  0
 10 41  1  0
 10 42  1  0
 12 43  1  0
 12 44  1  0
 14 45  1  0
 15 46  1  0
 21 47  1  0
 21 48  1  0
 23 49  1  0
 24 50  1  0
 26 51  1  0
 27 52  1  0
 30 53  1  0
 31 54  1  0
 34 55  1  0
M  CHG  3   4   1  17  -1  35  -1
M  END
>  <UniqueID>  (18) 
18

>  <SMILES>  (18) 
N=c1c[nH+]c(-c2ccc(COCc3ccc([N-]S(=O)(=O)Cc4ccncc4)c(F)c3)cc2F)c[n-]1

>  <Energy>  (18) 
70.32888562589173

>  <Genealogy>  (18) 
N=c1c[nH+]c(-c2ccc(COCc3ccc([N-]S(=O)(=O)Cc4ccncc4)c(F)c3)cc2F)c[n-]1 (protonated)
N=c1c[nH+]c(-c2ccc(COCc3ccc([N-]S(=O)(=O)Cc4ccncc4)c(F)c3)cc2F)c[n-]1 (3D coordinates assigned)
N=c1c[nH+]c(-c2ccc(COCc3ccc([N-]S(=O)(=O)Cc4ccncc4)c(F)c3)cc2F)c[n-]1 (optimized conformer: 70.32888562589173 kcal/mol)

>  <smiles>  (18) 
N=c1cnc(-c2ccc(COCc3ccc(NS(=O)(=O)Cc4ccncc4)c(F)c3)cc2F)c[nH]1

>  <score_type>  (18) 
oracle

>  <origin>  (18) 
adg

>  <m_score__min__energy>  (18) 
-11.880000000000001

>  <m_primary>  (18) 
energy

$$$$
18:0
     RDKit          3D

 51 53  0  0  0  0  0  0  0  0999 V2000
   56.5190   20.0280   44.2910 N   0  0  0  0  0  0  0  0  0  0  0  0
   57.0270   21.4210   43.4030 S   0  0  0  0  0  0  0  0  0  0  0  0
   58.2670   21.0940   42.6200 O   0  0  0  0  0  0  0  0  0  0  0  0
   55.9420   21.8200   42.4410 O   0  0  0  0  0  0  0  0  0  0  0  0
   57.3640   22.7430   44.5160 C   0  0  0  0  0  0  0  0  0  0  0  0
   58.6750   22.9720   44.9510 C   0  0  0  0  0  0  0  0  0  0  0  0
   58.9500   24.0170   45.8370 C   0  0  0  0  0  0  0  0  0  0  0  0
   57.9180   24.8330   46.3160 C   0  0  0  0  0  0  0  0  0  0  0  0
   58.2490   25.9080   47.2070 N   0  0  0  0  0  0  0  0  0  0  0  0
   58.8060   27.1790   46.8460 C   0  0  0  0  0  0  0  0  0  0  0  0
   59.6060   27.7660   47.6260 O   0  0  0  0  0  0  0  0  0  0  0  0
   58.4330   27.7930   45.5130 C   0  0  2  0  0  0  0  0  0  0  0  0
   59.6230   28.5160   44.8680 C   0  0  0  0  0  0  0  0  0  0  0  0
   59.9970   29.8170   45.5980 C   0  0  0  0  0  0  0  0  0  0  0  0
   58.8720   30.3610   46.4960 C   0  0  0  0  0  0  0  0  0  0  0  0
   57.5240   30.1500   45.9350 N   0  0  0  0  0  0  0  0  0  0  0  0
   57.1610   31.2590   44.6280 S   0  0  0  0  0  0  0  0  0  0  0  0
   55.8900   30.8190   43.9570 O   0  0  0  0  0  0  0  0  0  0  0  0
   58.2710   31.2570   43.6140 O   0  0  0  0  0  0  0  0  0  0  0  0
   56.9320   32.9250   45.2400 C   0  0  0  0  0  0  0  0  0  0  0  0
   58.1480   33.3760   46.0000 C   0  0  0  0  0  0  0  0  0  0  0  0
   59.2690   33.8720   45.3120 C   0  0  0  0  0  0  0  0  0  0  0  0
   60.3870   34.3230   46.0210 C   0  0  0  0  0  0  0  0  0  0  0  0
   60.3900   34.2890   47.4180 C   0  0  0  0  0  0  0  0  0  0  0  0
   59.2760   33.8080   48.1090 C   0  0  0  0  0  0  0  0  0  0  0  0
   58.1560   33.3550   47.4040 C   0  0  0  0  0  0  0  0  0  0  0  0
   57.2070   28.7430   45.5740 C   0  0  0  0  0  0  0  0  0  0  0  0
   56.6040   24.6130   45.8650 C   0  0  0  0  0  0  0  0  0  0  0  0
   56.3290   23.5680   44.9770 C   0  0  0  0  0  0  0  0  0  0  0  0
   57.3510   19.6840   44.8210 H   0  0  0  0  0  0  0  0  0  0  0  0
   56.2800   19.2900   43.5920 H   0  0  0  0  0  0  0  0  0  0  0  0
   59.4914   22.3270   44.5940 H   0  0  0  0  0  0  0  0  0  0  0  0
   59.9853   24.1999   46.1606 H   0  0  0  0  0  0  0  0  0  0  0  0
   58.1408   26.9392   44.8840 H   0  0  0  0  0  0  0  0  0  0  0  0
   60.4928   27.8427   44.8819 H   0  0  0  0  0  0  0  0  0  0  0  0
   59.3309   28.7843   43.8420 H   0  0  0  0  0  0  0  0  0  0  0  0
   60.8801   29.6233   46.2247 H   0  0  0  0  0  0  0  0  0  0  0  0
   60.1919   30.5767   44.8267 H   0  0  0  0  0  0  0  0  0  0  0  0
   58.9277   29.8545   47.4709 H   0  0  0  0  0  0  0  0  0  0  0  0
   59.0219   31.4472   46.5841 H   0  0  0  0  0  0  0  0  0  0  0  0
   56.7634   33.6032   44.3905 H   0  0  0  0  0  0  0  0  0  0  0  0
   56.0634   32.9410   45.9147 H   0  0  0  0  0  0  0  0  0  0  0  0
   59.2669   33.9055   44.2125 H   0  0  0  0  0  0  0  0  0  0  0  0
   61.2645   34.7047   45.4786 H   0  0  0  0  0  0  0  0  0  0  0  0
   61.2711   34.6416   47.9741 H   0  0  0  0  0  0  0  0  0  0  0  0
   59.2792   33.7853   49.2088 H   0  0  0  0  0  0  0  0  0  0  0  0
   57.2783   32.9809   47.9515 H   0  0  0  0  0  0  0  0  0  0  0  0
   56.5051   28.3477   46.3230 H   0  0  0  0  0  0  0  0  0  0  0  0
   56.7876   28.7718   44.5575 H   0  0  0  0  0  0  0  0  0  0  0  0
   55.7893   25.2655   46.2121 H   0  0  0  0  0  0  0  0  0  0  0  0
   55.2969   23.3930   44.6393 H   0  0  0  0  0  0  0  0  0  0  0  0
  1  2  1  0
  2  3  2  0
  2  4  2  0
  2  5  1  0
  5  6  2  0
  6  7  1  0
  7  8  2  0
  8  9  1  0
  9 10  1  0
 10 11  2  0
 10 12  1  0
 12 13  1  0
 13 14  1  0
 14 15  1  0
 15 16  1  0
 16 17  1  0
 17 18  2  0
 17 19  2  0
 17 20  1  0
 20 21  1  0
 21 22  2  0
 22 23  1  0
 23 24  2  0
 24 25  1  0
 25 26  2  0
 16 27  1  0
  8 28  1  0
 28 29  2  0
 29  5  1  0
 27 12  1  0
 26 21  1  0
  1 30  1  0
  1 31  1  0
  6 32  1  0
  7 33  1  0
 12 34  1  6
 13 35  1  0
 13 36  1  0
 14 37  1  0
 14 38  1  0
 15 39  1  0
 15 40  1  0
 20 41  1  0
 20 42  1  0
 22 43  1  0
 23 44  1  0
 24 45  1  0
 25 46  1  0
 26 47  1  0
 27 48  1  0
 27 49  1  0
 28 50  1  0
 29 51  1  0
M  CHG  1   9  -1
M  END
>  <UniqueID>  (19) 
19

>  <SMILES>  (19) 
NS(=O)(=O)c1ccc([N-]C(=O)[C@@H]2CCCN(S(=O)(=O)Cc3ccccc3)C2)cc1

>  <Energy>  (19) 
60.68563668722084

>  <Genealogy>  (19) 
NS(=O)(=O)c1ccc([N-]C(=O)C2CCCN(S(=O)(=O)Cc3ccccc3)C2)cc1 (protonated)
NS(=O)(=O)c1ccc([N-]C(=O)[C@@H]2CCCN(S(=O)(=O)Cc3ccccc3)C2)cc1 (chirality)
NS(=O)(=O)c1ccc([N-]C(=O)[C@@H]2CCCN(S(=O)(=O)Cc3ccccc3)C2)cc1 (3D coordinates assigned)
NS(=O)(=O)c1ccc([N-]C(=O)[C@@H]2CCCN(S(=O)(=O)Cc3ccccc3)C2)cc1 (nonaromatic ring conformer: 60.68563668722084 kcal/mol)

>  <smiles>  (19) 
NS(=O)(=O)c1ccc(NC(=O)C2CCCN(S(=O)(=O)Cc3ccccc3)C2)cc1

>  <score_type>  (19) 
oracle

>  <origin>  (19) 
adg

>  <m_score__min__energy>  (19) 
-11.57

>  <m_primary>  (19) 
energy

$$$$
19:0
     RDKit          3D

 44 46  0  0  0  0  0  0  0  0999 V2000
   58.4680   31.0210   43.6090 O   0  0  0  0  0  0  0  0  0  0  0  0
   57.5900   30.7510   44.4730 C   0  0  0  0  0  0  0  0  0  0  0  0
   56.7230   31.7890   44.9450 N   0  0  0  0  0  0  0  0  0  0  0  0
   57.0810   33.2010   44.8720 C   0  0  0  0  0  0  0  0  0  0  0  0
   58.0630   33.5040   45.9680 C   0  0  0  0  0  0  0  0  0  0  0  0
   57.8210   33.0300   47.2660 C   0  0  0  0  0  0  0  0  0  0  0  0
   58.8270   33.0830   48.2340 C   0  0  0  0  0  0  0  0  0  0  0  0
   60.0900   33.5930   47.9090 C   0  0  0  0  0  0  0  0  0  0  0  0
   61.4190   33.4620   49.0570 S   0  0  0  0  0  0  0  0  0  0  0  0
   60.8820   33.5890   50.4550 O   0  0  0  0  0  0  0  0  0  0  0  0
   62.3770   34.5970   48.8260 O   0  0  0  0  0  0  0  0  0  0  0  0
   62.2770   31.9410   48.8950 N   0  0  0  0  0  0  0  0  0  0  0  0
   61.6970   30.8670   49.7250 C   0  0  0  0  0  0  0  0  0  0  0  0
   60.5030   30.1480   49.0520 C   0  0  0  0  0  0  0  0  0  0  0  0
   60.2910   30.5540   47.7160 O   0  0  0  0  0  0  0  0  0  0  0  0
   61.5010   30.4730   47.0020 C   0  0  0  0  0  0  0  0  0  0  0  0
   62.4890   31.5490   47.4840 C   0  0  0  0  0  0  0  0  0  0  0  0
   60.3160   34.1200   46.6300 C   0  0  0  0  0  0  0  0  0  0  0  0
   59.3100   34.0710   45.6630 C   0  0  0  0  0  0  0  0  0  0  0  0
   57.4940   29.3860   45.0480 C   0  0  0  0  0  0  0  0  0  0  0  0
   58.6650   28.6990   45.4140 C   0  0  0  0  0  0  0  0  0  0  0  0
   58.6000   27.3890   45.8900 C   0  0  0  0  0  0  0  0  0  0  0  0
   60.0800   26.5420   46.3150 Cl  0  0  0  0  0  0  0  0  0  0  0  0
   57.3520   26.7670   46.0050 C   0  0  0  0  0  0  0  0  0  0  0  0
   57.2650   25.5840   46.4290 O   0  0  0  0  0  0  0  0  0  0  0  0
   56.2270   27.4390   45.6540 N   0  0  0  0  0  0  0  0  0  0  0  0
   56.2590   28.7160   45.1830 C   0  0  0  0  0  0  0  0  0  0  0  0
   55.0640   29.3440   44.8430 O   0  0  0  0  0  0  0  0  0  0  0  0
   57.5377   33.4174   43.8950 H   0  0  0  0  0  0  0  0  0  0  0  0
   56.1817   33.8232   44.9907 H   0  0  0  0  0  0  0  0  0  0  0  0
   56.8352   32.6149   47.5227 H   0  0  0  0  0  0  0  0  0  0  0  0
   58.6264   32.7232   49.2540 H   0  0  0  0  0  0  0  0  0  0  0  0
   62.4809   30.1233   49.9309 H   0  0  0  0  0  0  0  0  0  0  0  0
   61.3175   31.3360   50.6448 H   0  0  0  0  0  0  0  0  0  0  0  0
   60.6961   29.0651   49.0620 H   0  0  0  0  0  0  0  0  0  0  0  0
   59.5994   30.4115   49.6213 H   0  0  0  0  0  0  0  0  0  0  0  0
   61.9458   29.4789   47.1566 H   0  0  0  0  0  0  0  0  0  0  0  0
   61.2934   30.6359   45.9341 H   0  0  0  0  0  0  0  0  0  0  0  0
   63.5116   31.1575   47.3792 H   0  0  0  0  0  0  0  0  0  0  0  0
   62.3257   32.4446   46.8666 H   0  0  0  0  0  0  0  0  0  0  0  0
   61.2884   34.5734   46.3875 H   0  0  0  0  0  0  0  0  0  0  0  0
   59.4956   34.4784   44.6582 H   0  0  0  0  0  0  0  0  0  0  0  0
   59.6408   29.1987   45.3243 H   0  0  0  0  0  0  0  0  0  0  0  0
   55.0120   30.3510   44.7500 H   0  0  0  0  0  0  0  0  0  0  0  0
  1  2  2  0
  2  3  1  0
  3  4  1  0
  4  5  1  0
  5  6  2  0
  6  7  1  0
  7  8  2  0
  8  9  1  0
  9 10  2  0
  9 11  2  0
  9 12  1  0
 12 13  1  0
 13 14  1  0
 14 15  1  0
 15 16  1  0
 16 17  1  0
  8 18  1  0
 18 19  2  0
  2 20  1  0
 20 21  1  0
 21 22  2  0
 22 23  1  0
 22 24  1  0
 24 25  2  0
 24 26  1  0
 26 27  1  0
 27 28  1  0
 19  5  1  0
 27 20  2  0
 17 12  1  0
  4 29  1  0
  4 30  1  0
  6 31  1  0
  7 32  1  0
 13 33  1  0
 13 34  1  0
 14 35  1  0
 14 36  1  0
 16 37  1  0
 16 38  1  0
 17 39  1  0
 17 40  1  0
 18 41  1  0
 19 42  1  0
 21 43  1  0
 28 44  1  0
M  CHG  2   3  -1  26  -1
M  END
>  <UniqueID>  (20) 
20

>  <SMILES>  (20) 
O=C([N-]Cc1ccc(S(=O)(=O)N2CCOCC2)cc1)c1cc(Cl)c(=O)[n-]c1O

>  <Energy>  (20) 
56.5079762388049

>  <Genealogy>  (20) 
O=C([N-]Cc1ccc(S(=O)(=O)N2CCOCC2)cc1)c1cc(Cl)c(=O)[n-]c1O (protonated)
O=C([N-]Cc1ccc(S(=O)(=O)N2CCOCC2)cc1)c1cc(Cl)c(=O)[n-]c1O (3D coordinates assigned)
O=C([N-]Cc1ccc(S(=O)(=O)N2CCOCC2)cc1)c1cc(Cl)c(=O)[n-]c1O (nonaromatic ring conformer: 56.5079762388049 kcal/mol)

>  <smiles>  (20) 
O=C(NCc1ccc(S(=O)(=O)N2CCOCC2)cc1)c1cc(Cl)c(=O)[nH]c1O

>  <score_type>  (20) 
oracle

>  <origin>  (20) 
adg

>  <m_score__min__energy>  (20) 
-12.6

>  <m_primary>  (20) 
energy

$$$$
20:0
     RDKit          3D

 54 57  0  0  0  0  0  0  0  0999 V2000
   56.4500   29.3670   43.2230 O   0  0  0  0  0  0  0  0  0  0  0  0
   56.7940   29.7680   44.3660 C   0  0  0  0  0  0  0  0  0  0  0  0
   56.3990   31.0850   44.7770 N   0  0  0  0  0  0  0  0  0  0  0  0
   57.2730   32.1370   45.2100 C   0  0  0  0  0  0  0  0  0  0  0  0
   57.3750   33.3490   44.5060 C   0  0  0  0  0  0  0  0  0  0  0  0
   58.2370   34.3500   44.9550 C   0  0  0  0  0  0  0  0  0  0  0  0
   58.9870   34.1630   46.1180 C   0  0  0  0  0  0  0  0  0  0  0  0
   58.8640   32.9750   46.8570 C   0  0  0  0  0  0  0  0  0  0  0  0
   59.6610   32.7820   48.0910 C   0  0  0  0  0  0  0  0  0  0  0  0
   59.1150   32.2390   49.0910 O   0  0  0  0  0  0  0  0  0  0  0  0
   61.0370   33.1970   48.1770 N   0  0  0  0  0  0  0  0  0  0  0  0
   61.6000   33.5620   49.4810 C   0  0  0  0  0  0  0  0  0  0  0  0
   62.9450   34.2790   49.3030 C   0  0  0  0  0  0  0  0  0  0  0  0
   63.9220   33.4910   48.5060 N   0  0  0  0  0  0  0  0  0  0  0  0
   64.8540   32.7440   49.3780 C   0  0  0  0  0  0  0  0  0  0  0  0
   64.1190   32.0970   50.5250 C   0  0  0  0  0  0  0  0  0  0  0  0
   63.3300   30.9570   50.3000 C   0  0  0  0  0  0  0  0  0  0  0  0
   62.6270   30.3680   51.3560 C   0  0  0  0  0  0  0  0  0  0  0  0
   62.7060   30.9130   52.6400 C   0  0  0  0  0  0  0  0  0  0  0  0
   63.4850   32.0510   52.8710 C   0  0  0  0  0  0  0  0  0  0  0  0
   64.1890   32.6430   51.8170 C   0  0  0  0  0  0  0  0  0  0  0  0
   63.3070   32.6050   47.4800 C   0  0  0  0  0  0  0  0  0  0  0  0
   61.9330   33.1000   47.0180 C   0  0  0  0  0  0  0  0  0  0  0  0
   58.0080   31.9630   46.3900 C   0  0  0  0  0  0  0  0  0  0  0  0
   57.5300   28.8530   45.2730 C   0  0  0  0  0  0  0  0  0  0  0  0
   58.8890   29.0840   45.5530 C   0  0  0  0  0  0  0  0  0  0  0  0
   59.5910   28.2310   46.4100 C   0  0  0  0  0  0  0  0  0  0  0  0
   58.9440   27.1480   47.0040 C   0  0  0  0  0  0  0  0  0  0  0  0
   57.5920   26.9120   46.7420 C   0  0  0  0  0  0  0  0  0  0  0  0
   56.8820   27.7580   45.8830 C   0  0  0  0  0  0  0  0  0  0  0  0
   55.5410   27.4910   45.6280 O   0  0  0  0  0  0  0  0  0  0  0  0
   56.7738   33.5089   43.5988 H   0  0  0  0  0  0  0  0  0  0  0  0
   58.3262   35.2900   44.3908 H   0  0  0  0  0  0  0  0  0  0  0  0
   59.6772   34.9496   46.4568 H   0  0  0  0  0  0  0  0  0  0  0  0
   60.8997   34.2302   50.0036 H   0  0  0  0  0  0  0  0  0  0  0  0
   61.7597   32.6461   50.0689 H   0  0  0  0  0  0  0  0  0  0  0  0
   62.7669   35.2366   48.7919 H   0  0  0  0  0  0  0  0  0  0  0  0
   63.3767   34.4224   50.3045 H   0  0  0  0  0  0  0  0  0  0  0  0
   65.3542   31.9639   48.7853 H   0  0  0  0  0  0  0  0  0  0  0  0
   65.5922   33.4491   49.7877 H   0  0  0  0  0  0  0  0  0  0  0  0
   63.2648   30.5260   49.2900 H   0  0  0  0  0  0  0  0  0  0  0  0
   62.0112   29.4746   51.1753 H   0  0  0  0  0  0  0  0  0  0  0  0
   62.1549   30.4465   53.4699 H   0  0  0  0  0  0  0  0  0  0  0  0
   63.5443   32.4809   53.8818 H   0  0  0  0  0  0  0  0  0  0  0  0
   64.7996   33.5393   52.0009 H   0  0  0  0  0  0  0  0  0  0  0  0
   63.9760   32.5593   46.6080 H   0  0  0  0  0  0  0  0  0  0  0  0
   63.1666   31.6146   47.9376 H   0  0  0  0  0  0  0  0  0  0  0  0
   62.0374   34.0902   46.5504 H   0  0  0  0  0  0  0  0  0  0  0  0
   61.5138   32.3935   46.2864 H   0  0  0  0  0  0  0  0  0  0  0  0
   57.9141   31.0248   46.9566 H   0  0  0  0  0  0  0  0  0  0  0  0
   59.4030   29.9417   45.0945 H   0  0  0  0  0  0  0  0  0  0  0  0
   60.6558   28.4146   46.6161 H   0  0  0  0  0  0  0  0  0  0  0  0
   59.4982   26.4793   47.6791 H   0  0  0  0  0  0  0  0  0  0  0  0
   57.0837   26.0577   47.2130 H   0  0  0  0  0  0  0  0  0  0  0  0
  1  2  2  0
  2  3  1  0
  3  4  1  0
  4  5  2  0
  5  6  1  0
  6  7  2  0
  7  8  1  0
  8  9  1  0
  9 10  2  0
  9 11  1  0
 11 12  1  0
 12 13  1  0
 13 14  1  0
 14 15  1  0
 15 16  1  0
 16 17  2  0
 17 18  1  0
 18 19  2  0
 19 20  1  0
 20 21  2  0
 14 22  1  0
 22 23  1  0
  8 24  2  0
  2 25  1  0
 25 26  2  0
 26 27  1  0
 27 28  2  0
 28 29  1  0
 29 30  2  0
 30 31  1  0
 24  4  1  0
 30 25  1  0
 23 11  1  0
 21 16  1  0
  5 32  1  0
  6 33  1  0
  7 34  1  0
 12 35  1  0
 12 36  1  0
 13 37  1  0
 13 38  1  0
 15 39  1  0
 15 40  1  0
 17 41  1  0
 18 42  1  0
 19 43  1  0
 20 44  1  0
 21 45  1  0
 22 46  1  0
 22 47  1  0
 23 48  1  0
 23 49  1  0
 24 50  1  0
 26 51  1  0
 27 52  1  0
 28 53  1  0
 29 54  1  0
M  CHG  2   3  -1  31  -1
M  END
>  <UniqueID>  (21) 
21

>  <SMILES>  (21) 
O=C([N-]c1cccc(C(=O)N2CCN(Cc3ccccc3)CC2)c1)c1ccccc1[O-]

>  <Energy>  (21) 
77.74186240225005

>  <Genealogy>  (21) 
O=C([N-]c1cccc(C(=O)N2CCN(Cc3ccccc3)CC2)c1)c1ccccc1[O-] (protonated)
O=C([N-]c1cccc(C(=O)N2CCN(Cc3ccccc3)CC2)c1)c1ccccc1[O-] (3D coordinates assigned)
O=C([N-]c1cccc(C(=O)N2CCN(Cc3ccccc3)CC2)c1)c1ccccc1[O-] (nonaromatic ring conformer: 77.74186240225005 kcal/mol)

>  <smiles>  (21) 
O=C(Nc1cccc(C(=O)N2CCN(Cc3ccccc3)CC2)c1)c1ccccc1O

>  <score_type>  (21) 
oracle

>  <origin>  (21) 
adg

>  <m_score__min__energy>  (21) 
-15.35

>  <m_primary>  (21) 
energy

$$$$
21:0
     RDKit          3D

 55 58  0  0  0  0  0  0  0  0999 V2000
   56.6840   29.2320   42.8950 C   0  0  0  0  0  0  0  0  0  0  0  0
   57.4710   29.1310   43.9790 C   0  0  0  0  0  0  0  0  0  0  0  0
   57.8720   27.9450   44.6170 C   0  0  0  0  0  0  0  0  0  0  0  0
   57.4840   26.6660   44.4410 C   0  0  0  0  0  0  0  0  0  0  0  0
   57.0410   25.7460   45.4990 C   0  0  0  0  0  0  0  0  0  0  0  0
   57.8290   24.8030   46.0420 N   0  0  0  0  0  0  0  0  0  0  0  0
   57.0700   24.2980   47.0390 C   0  0  0  0  0  0  0  0  0  0  0  0
   57.4640   23.3630   47.7830 O   0  0  0  0  0  0  0  0  0  0  0  0
   55.8600   24.8820   47.1830 N   0  0  0  0  0  0  0  0  0  0  0  0
   55.8640   25.8070   46.2110 C   0  0  0  0  0  0  0  0  0  0  0  0
   54.8250   26.7040   45.9950 O   0  0  0  0  0  0  0  0  0  0  0  0
   58.8140   28.3130   45.5580 C   0  0  0  0  0  0  0  0  0  0  0  0
   58.9190   29.6870   45.5130 C   0  0  0  0  0  0  0  0  0  0  0  0
   59.8130   30.4690   46.3880 C   0  0  0  0  0  0  0  0  0  0  0  0
   59.5030   30.6750   47.5910 O   0  0  0  0  0  0  0  0  0  0  0  0
   58.1000   30.1940   44.5550 N   0  0  0  0  0  0  0  0  0  0  0  0
   58.0320   31.6020   44.1230 C   0  0  0  0  0  0  0  0  0  0  0  0
   57.4330   32.4920   45.2220 C   0  0  0  0  0  0  0  0  0  0  0  0
   58.4970   33.2260   45.9390 N   0  0  0  0  0  0  0  0  0  0  0  0
   58.1510   33.4520   47.3520 C   0  0  0  0  0  0  0  0  0  0  0  0
   59.3840   33.9790   48.1160 C   0  0  0  0  0  0  0  0  0  0  0  0
   60.3490   34.7030   47.2520 N   0  0  0  0  0  0  0  0  0  0  0  0
   61.4340   33.8240   46.7560 C   0  0  0  0  0  0  0  0  0  0  0  0
   62.3940   33.4660   47.8590 C   0  0  0  0  0  0  0  0  0  0  0  0
   63.2450   32.3580   47.7210 C   0  0  0  0  0  0  0  0  0  0  0  0
   64.1290   32.0160   48.7490 C   0  0  0  0  0  0  0  0  0  0  0  0
   64.1680   32.7770   49.9210 C   0  0  0  0  0  0  0  0  0  0  0  0
   63.3210   33.8800   50.0670 C   0  0  0  0  0  0  0  0  0  0  0  0
   62.4360   34.2260   49.0410 C   0  0  0  0  0  0  0  0  0  0  0  0
   59.6590   35.4360   46.1690 C   0  0  0  0  0  0  0  0  0  0  0  0
   58.8060   34.5090   45.2750 C   0  0  0  0  0  0  0  0  0  0  0  0
   56.4382   30.2223   42.4841 H   0  0  0  0  0  0  0  0  0  0  0  0
   56.2853   28.3244   42.4183 H   0  0  0  0  0  0  0  0  0  0  0  0
   57.5003   26.2753   43.4129 H   0  0  0  0  0  0  0  0  0  0  0  0
   59.3752   27.6365   46.2194 H   0  0  0  0  0  0  0  0  0  0  0  0
   60.7543   30.8738   45.9879 H   0  0  0  0  0  0  0  0  0  0  0  0
   59.0473   31.9550   43.8892 H   0  0  0  0  0  0  0  0  0  0  0  0
   57.3859   31.6629   43.2348 H   0  0  0  0  0  0  0  0  0  0  0  0
   56.7415   33.2147   44.7642 H   0  0  0  0  0  0  0  0  0  0  0  0
   56.8981   31.8539   45.9408 H   0  0  0  0  0  0  0  0  0  0  0  0
   57.3391   34.1915   47.4151 H   0  0  0  0  0  0  0  0  0  0  0  0
   57.8245   32.5027   47.8016 H   0  0  0  0  0  0  0  0  0  0  0  0
   59.0389   34.6649   48.9037 H   0  0  0  0  0  0  0  0  0  0  0  0
   59.9094   33.1041   48.5265 H   0  0  0  0  0  0  0  0  0  0  0  0
   60.9916   32.9013   46.3523 H   0  0  0  0  0  0  0  0  0  0  0  0
   61.9885   34.3636   45.9741 H   0  0  0  0  0  0  0  0  0  0  0  0
   63.2163   31.7565   46.8005 H   0  0  0  0  0  0  0  0  0  0  0  0
   64.7943   31.1474   48.6354 H   0  0  0  0  0  0  0  0  0  0  0  0
   64.8650   32.5081   50.7284 H   0  0  0  0  0  0  0  0  0  0  0  0
   63.3509   34.4766   50.9906 H   0  0  0  0  0  0  0  0  0  0  0  0
   61.7714   35.0945   49.1590 H   0  0  0  0  0  0  0  0  0  0  0  0
   59.0013   36.1938   46.6198 H   0  0  0  0  0  0  0  0  0  0  0  0
   60.4302   35.8952   45.5332 H   0  0  0  0  0  0  0  0  0  0  0  0
   57.8621   35.0196   45.0335 H   0  0  0  0  0  0  0  0  0  0  0  0
   59.3850   34.2889   44.3660 H   0  0  0  0  0  0  0  0  0  0  0  0
  1  2  2  0
  2  3  1  0
  3  4  2  3
  4  5  1  0
  5  6  1  0
  6  7  1  0
  7  8  2  0
  7  9  1  0
  9 10  1  0
 10 11  1  0
  3 12  1  0
 12 13  2  0
 13 14  1  0
 14 15  2  0
 13 16  1  0
 16 17  1  0
 17 18  1  0
 18 19  1  0
 19 20  1  0
 20 21  1  0
 21 22  1  0
 22 23  1  0
 23 24  1  0
 24 25  2  0
 25 26  1  0
 26 27  2  0
 27 28  1  0
 28 29  2  0
 22 30  1  0
 30 31  1  0
 16  2  1  0
 31 19  1  0
 10  5  2  0
 29 24  1  0
  1 32  1  0
  1 33  1  0
  4 34  1  0
 12 35  1  0
 14 36  1  0
 17 37  1  0
 17 38  1  0
 18 39  1  0
 18 40  1  0
 20 41  1  0
 20 42  1  0
 21 43  1  0
 21 44  1  0
 23 45  1  0
 23 46  1  0
 25 47  1  0
 26 48  1  0
 27 49  1  0
 28 50  1  0
 29 51  1  0
 30 52  1  0
 30 53  1  0
 31 54  1  0
 31 55  1  0
M  CHG  3   6  -1   9  -1  11  -1
M  END
>  <UniqueID>  (22) 
22

>  <SMILES>  (22) 
C=c1c(=Cc2[n-]c(=O)[n-]c2[O-])cc(C=O)n1CCN1CCN(Cc2ccccc2)CC1

>  <Energy>  (22) 
136.0845644618552

>  <Genealogy>  (22) 
C=c1c(=Cc2[n-]c(=O)[n-]c2[O-])cc(C=O)n1CCN1CCN(Cc2ccccc2)CC1 (protonated)
C=c1c(=Cc2[n-]c(=O)[n-]c2[O-])cc(C=O)n1CCN1CCN(Cc2ccccc2)CC1 (3D coordinates assigned)
C=c1c(=Cc2[n-]c(=O)[n-]c2[O-])cc(C=O)n1CCN1CCN(Cc2ccccc2)CC1 (nonaromatic ring conformer: 136.0845644618552 kcal/mol)

>  <smiles>  (22) 
C=c1c(=Cc2[nH]c(=O)[nH]c2O)cc(C=O)n1CCN1CCN(Cc2ccccc2)CC1

>  <score_type>  (22) 
oracle

>  <origin>  (22) 
adg

>  <m_score__min__energy>  (22) 
-17.539999999999999

>  <m_primary>  (22) 
energy

$$$$
22:0
     RDKit          3D

 58 61  0  0  1  0  0  0  0  0999 V2000
   51.6520   31.1320   53.4920 C   0  0  0  0  0  0  0  0  0  0  0  0
   52.0470   30.4060   52.2440 C   0  0  0  0  0  0  0  0  0  0  0  0
   51.3880   29.0220   52.2140 C   0  0  0  0  0  0  0  0  0  0  0  0
   51.6250   31.1990   51.0270 C   0  0  0  0  0  0  0  0  0  0  0  0
   53.5080   30.1950   52.1600 C   0  0  0  0  0  0  0  0  0  0  0  0
   54.5260   31.1210   51.9910 C   0  0  0  0  0  0  0  0  0  0  0  0
   55.7290   30.4310   51.9750 C   0  0  0  0  0  0  0  0  0  0  0  0
   57.0780   30.9770   51.8220 C   0  0  0  0  0  0  0  0  0  0  0  0
   57.9900   30.5760   52.5980 O   0  0  0  0  0  0  0  0  0  0  0  0
   57.3380   31.9360   50.8170 N   0  0  0  0  0  0  0  0  0  0  0  0
   58.6110   32.5240   50.5890 C   0  0  0  0  0  0  0  0  0  0  0  0
   59.3240   32.9360   51.6830 C   0  0  0  0  0  0  0  0  0  0  0  0
   60.5540   33.5050   51.4720 C   0  0  0  0  0  0  0  0  0  0  0  0
   61.0690   33.6620   50.2030 C   0  0  0  0  0  0  0  0  0  0  0  0
   60.3590   33.2480   49.0640 C   0  0  0  0  0  0  0  0  0  0  0  0
   60.9010   33.4570   47.7230 C   0  0  0  0  0  0  0  0  0  0  0  0
   60.1590   33.5230   46.5720 N   0  0  0  0  0  0  0  0  0  0  0  0
   59.1190   33.0860   46.0630 C   0  0  0  0  0  0  0  0  0  0  0  0
   58.1170   33.9320   45.7850 N   0  0  0  0  0  0  0  0  0  0  0  0
   56.9600   33.5820   45.2410 C   0  0  0  0  0  0  0  0  0  0  0  0
   56.7320   32.2940   44.9290 N   0  0  0  0  0  0  0  0  0  0  0  0
   57.7060   31.3710   45.1830 C   0  0  0  0  0  0  0  0  0  0  0  0
   57.4860   30.0480   44.8690 C   0  0  0  0  0  0  0  0  0  0  0  0
   56.2270   29.6190   44.2700 C   0  0  0  0  0  0  0  0  0  0  0  0
   56.1610   29.3310   42.8870 N   0  0  0  0  0  0  0  0  0  0  0  0
   55.2080   29.5130   45.0090 O   0  0  0  0  0  0  0  0  0  0  0  0
   58.4780   29.1190   45.1300 C   0  0  0  0  0  0  0  0  0  0  0  0
   59.6680   29.5310   45.6980 C   0  0  0  0  0  0  0  0  0  0  0  0
   59.9030   30.8510   46.0180 C   0  0  0  0  0  0  0  0  0  0  0  0
   58.9040   31.7520   45.7500 C   0  0  0  0  0  0  0  0  0  0  0  0
   59.1040   32.6710   49.3090 C   0  0  0  0  0  0  0  0  0  0  0  0
   55.3980   29.1370   52.1320 N   0  0  0  0  0  0  0  0  0  0  0  0
   54.0930   28.9870   52.2420 N   0  0  0  0  0  0  0  0  0  0  0  0
   51.9685   30.5503   54.3703 H   0  0  0  0  0  0  0  0  0  0  0  0
   52.1376   32.1188   53.5114 H   0  0  0  0  0  0  0  0  0  0  0  0
   50.5597   31.2604   53.5114 H   0  0  0  0  0  0  0  0  0  0  0  0
   51.2217   28.6727   53.2437 H   0  0  0  0  0  0  0  0  0  0  0  0
   50.4238   29.0863   51.6884 H   0  0  0  0  0  0  0  0  0  0  0  0
   52.0457   28.3140   51.6884 H   0  0  0  0  0  0  0  0  0  0  0  0
   51.1307   32.1278   51.3479 H   0  0  0  0  0  0  0  0  0  0  0  0
   52.5116   31.4449   50.4240 H   0  0  0  0  0  0  0  0  0  0  0  0
   50.9258   30.6010   50.4240 H   0  0  0  0  0  0  0  0  0  0  0  0
   54.4017   32.2091   51.8880 H   0  0  0  0  0  0  0  0  0  0  0  0
   56.5450   32.2490   50.1820 H   0  0  0  0  0  0  0  0  0  0  0  0
   58.9226   32.8144   52.6999 H   0  0  0  0  0  0  0  0  0  0  0  0
   61.1438   33.8443   52.3363 H   0  0  0  0  0  0  0  0  0  0  0  0
   62.0602   34.1227   50.0794 H   0  0  0  0  0  0  0  0  0  0  0  0
   61.4470   34.4106   47.7738 H   0  0  0  0  0  0  0  0  0  0  0  0
   61.4174   32.4981   47.5686 H   0  0  0  0  0  0  0  0  0  0  0  0
   58.2750   34.9250   46.0180 H   0  0  0  0  0  0  0  0  0  0  0  0
   56.1894   34.3422   45.0455 H   0  0  0  0  0  0  0  0  0  0  0  0
   56.3680   28.3340   42.6010 H   0  0  0  0  0  0  0  0  0  0  0  0
   55.9220   30.0390   42.1500 H   0  0  0  0  0  0  0  0  0  0  0  0
   58.3198   28.0580   44.8864 H   0  0  0  0  0  0  0  0  0  0  0  0
   60.4501   28.7845   45.9006 H   0  0  0  0  0  0  0  0  0  0  0  0
   60.8539   31.1692   46.4703 H   0  0  0  0  0  0  0  0  0  0  0  0
   58.4973   32.3269   48.4584 H   0  0  0  0  0  0  0  0  0  0  0  0
   53.5910   28.0680   52.3730 H   0  0  0  0  0  0  0  0  0  0  0  0
  1  2  1  0
  2  3  1  0
  2  4  1  0
  2  5  1  0
  5  6  2  0
  6  7  1  0
  7  8  1  0
  8  9  2  0
  8 10  1  0
 10 11  1  0
 11 12  2  0
 12 13  1  0
 13 14  2  0
 14 15  1  0
 15 16  1  0
 16 17  1  0
 17 18  2  0
 18 19  1  0
 19 20  1  0
 20 21  2  0
 21 22  1  0
 22 23  2  0
 23 24  1  0
 24 25  1  0
 24 26  2  0
 23 27  1  0
 27 28  2  0
 28 29  1  0
 29 30  2  0
 15 31  2  0
  7 32  2  0
 32 33  1  0
 33  5  1  0
 31 11  1  0
 30 18  1  0
 30 22  1  0
  1 34  1  0
  1 35  1  0
  1 36  1  0
  3 37  1  0
  3 38  1  0
  3 39  1  0
  4 40  1  0
  4 41  1  0
  4 42  1  0
  6 43  1  0
 10 44  1  0
 12 45  1  0
 13 46  1  0
 14 47  1  0
 16 48  1  0
 16 49  1  0
 19 50  1  0
 20 51  1  0
 25 52  1  0
 25 53  1  0
 27 54  1  0
 28 55  1  0
 29 56  1  0
 31 57  1  0
 33 58  1  0
M  END
>  <smiles>  (23) 
CC(C)(C)c1cc(C(=O)Nc2cccc(CN=c3[nH]cnc4c(C(N)=O)cccc34)c2)n[nH]1

>  <score_type>  (23) 
oracle

>  <origin>  (23) 
adg

>  <m_score__min__energy>  (23) 
-10.33

>  <m_primary>  (23) 
energy

$$$$
23:0
     RDKit          3D

 49 51  0  0  1  0  0  0  0  0999 V2000
   60.2510   29.3210   45.2670 C   0  0  0  0  0  0  0  0  0  0  0  0
   58.9090   28.6180   45.2850 C   0  0  0  0  0  0  0  0  0  0  0  0
   57.7990   29.4610   44.9570 N   0  0  0  0  0  0  0  0  0  0  0  0
   56.4690   28.8910   44.8850 C   0  0  0  0  0  0  0  0  0  0  0  0
   55.4910   29.7110   44.0980 C   0  0  0  0  0  0  0  0  0  0  0  0
   57.9090   30.8620   44.6780 C   0  0  0  0  0  0  0  0  0  0  0  0
   57.8470   31.7910   45.6780 N   0  0  0  0  0  0  0  0  0  0  0  0
   57.9400   33.0930   45.4670 C   0  0  0  0  0  0  0  0  0  0  0  0
   57.8770   33.9240   46.4380 N   0  0  0  0  0  0  0  0  0  0  0  0
   58.8790   34.1730   47.4270 C   0  0  0  0  0  0  0  0  0  0  0  0
   59.7860   33.0210   47.6710 C   0  0  0  0  0  0  0  0  0  0  0  0
   61.0790   33.0320   47.1830 C   0  0  0  0  0  0  0  0  0  0  0  0
   61.6520   34.1670   46.4170 C   0  0  0  0  0  0  0  0  0  0  0  0
   61.9120   31.9300   47.4170 C   0  0  0  0  0  0  0  0  0  0  0  0
   61.4840   30.8280   48.1230 C   0  0  0  0  0  0  0  0  0  0  0  0
   60.2270   30.8460   48.5840 N   0  0  0  0  0  0  0  0  0  0  0  0
   59.7540   29.6840   49.3360 C   0  0  0  0  0  0  0  0  0  0  0  0
   60.3620   28.3520   49.0040 C   0  0  0  0  0  0  0  0  0  0  0  0
   58.9300   28.6540   48.6200 C   0  0  0  0  0  0  0  0  0  0  0  0
   59.4030   31.8930   48.3740 C   0  0  0  0  0  0  0  0  0  0  0  0
   58.2460   31.7960   48.8530 O   0  0  0  0  0  0  0  0  0  0  0  0
   58.1090   33.5840   44.1990 C   0  0  0  0  0  0  0  0  0  0  0  0
   58.1760   32.6720   43.1700 C   0  0  0  0  0  0  0  0  0  0  0  0
   58.0750   31.3530   43.4390 N   0  0  0  0  0  0  0  0  0  0  0  0
   60.5867   29.4968   46.2997 H   0  0  0  0  0  0  0  0  0  0  0  0
   60.9871   28.6927   44.7441 H   0  0  0  0  0  0  0  0  0  0  0  0
   60.1536   30.2839   44.7441 H   0  0  0  0  0  0  0  0  0  0  0  0
   58.9421   27.7932   44.5579 H   0  0  0  0  0  0  0  0  0  0  0  0
   58.7481   28.2716   46.3165 H   0  0  0  0  0  0  0  0  0  0  0  0
   56.5437   27.8989   44.4158 H   0  0  0  0  0  0  0  0  0  0  0  0
   56.0875   28.8471   45.9158 H   0  0  0  0  0  0  0  0  0  0  0  0
   54.8347   30.2613   44.7883 H   0  0  0  0  0  0  0  0  0  0  0  0
   56.0375   30.4249   43.4642 H   0  0  0  0  0  0  0  0  0  0  0  0
   54.8833   29.0484   43.4642 H   0  0  0  0  0  0  0  0  0  0  0  0
   59.4869   35.0280   47.0961 H   0  0  0  0  0  0  0  0  0  0  0  0
   58.3518   34.3692   48.3723 H   0  0  0  0  0  0  0  0  0  0  0  0
   62.0347   34.9251   47.1161 H   0  0  0  0  0  0  0  0  0  0  0  0
   62.4747   33.8037   45.7836 H   0  0  0  0  0  0  0  0  0  0  0  0
   60.8712   34.6133   45.7836 H   0  0  0  0  0  0  0  0  0  0  0  0
   62.9395   31.9456   47.0246 H   0  0  0  0  0  0  0  0  0  0  0  0
   62.1472   29.9686   48.3009 H   0  0  0  0  0  0  0  0  0  0  0  0
   59.6182   30.2741   50.2543 H   0  0  0  0  0  0  0  0  0  0  0  0
   61.1369   28.2786   48.2267 H   0  0  0  0  0  0  0  0  0  0  0  0
   60.8645   27.5597   49.5782 H   0  0  0  0  0  0  0  0  0  0  0  0
   58.6624   28.8003   47.5631 H   0  0  0  0  0  0  0  0  0  0  0  0
   57.9572   28.1726   48.7986 H   0  0  0  0  0  0  0  0  0  0  0  0
   58.1881   34.6649   44.0106 H   0  0  0  0  0  0  0  0  0  0  0  0
   58.3111   33.0162   42.1340 H   0  0  0  0  0  0  0  0  0  0  0  0
   58.1330   30.7170   42.6140 H   0  0  0  0  0  0  0  0  0  0  0  0
  1  2  1  0
  2  3  1  0
  3  4  1  0
  4  5  1  0
  3  6  1  0
  6  7  2  0
  7  8  1  0
  8  9  2  0
  9 10  1  0
 10 11  1  0
 11 12  2  0
 12 13  1  0
 12 14  1  0
 14 15  2  0
 15 16  1  0
 16 17  1  0
 17 18  1  0
 18 19  1  0
 16 20  1  0
 20 21  2  0
  8 22  1  0
 22 23  2  0
 23 24  1  0
 24  6  1  0
 20 11  1  0
 19 17  1  0
  1 25  1  0
  1 26  1  0
  1 27  1  0
  2 28  1  0
  2 29  1  0
  4 30  1  0
  4 31  1  0
  5 32  1  0
  5 33  1  0
  5 34  1  0
 10 35  1  0
 10 36  1  0
 13 37  1  0
 13 38  1  0
 13 39  1  0
 14 40  1  0
 15 41  1  0
 17 42  1  0
 18 43  1  0
 18 44  1  0
 19 45  1  0
 19 46  1  0
 22 47  1  0
 23 48  1  0
 24 49  1  0
M  END
>  <smiles>  (24) 
CCN(CC)c1nc(=NCc2c(C)ccn(C3CC3)c2=O)cc[nH]1

>  <score_type>  (24) 
oracle

>  <origin>  (24) 
adg

>  <m_score__min__energy>  (24) 
-7.6299999999999999

>  <m_primary>  (24) 
energy

$$$$
24:0
     RDKit          3D

 47 50  0  0  0  0  0  0  0  0999 V2000
   55.1660   30.3770   44.4710 O   0  0  0  0  0  0  0  0  0  0  0  0
   56.1600   29.7160   44.8810 C   0  0  0  0  0  0  0  0  0  0  0  0
   57.4580   30.3160   44.9460 N   0  0  0  0  0  0  0  0  0  0  0  0
   57.7680   31.6390   45.4080 C   0  0  0  0  0  0  0  0  0  0  0  0
   57.6400   32.7710   44.5800 C   0  0  0  0  0  0  0  0  0  0  0  0
   57.9310   34.0440   45.0780 C   0  0  0  0  0  0  0  0  0  0  0  0
   58.3380   34.2010   46.4060 C   0  0  0  0  0  0  0  0  0  0  0  0
   58.4440   33.0850   47.2400 C   0  0  0  0  0  0  0  0  0  0  0  0
   58.1530   31.8110   46.7450 C   0  0  0  0  0  0  0  0  0  0  0  0
   56.0200   28.3710   45.2360 O   0  0  0  0  0  0  0  0  0  0  0  0
   57.0450   27.3970   45.0450 C   0  0  0  0  0  0  0  0  0  0  0  0
   57.6990   27.0260   46.3820 C   0  0  2  0  0  0  0  0  0  0  0  0
   58.1210   28.2840   47.1940 C   0  0  0  0  0  0  0  0  0  0  0  0
   59.5770   28.2130   47.2850 N   0  0  0  0  0  0  0  0  0  0  0  0
   60.4320   29.2310   47.8440 C   0  0  0  0  0  0  0  0  0  0  0  0
   60.6650   29.2750   49.2280 C   0  0  0  0  0  0  0  0  0  0  0  0
   61.4840   30.2640   49.7810 C   0  0  0  0  0  0  0  0  0  0  0  0
   62.0730   31.2430   48.9640 C   0  0  0  0  0  0  0  0  0  0  0  0
   62.9240   32.2540   49.5410 N   0  0  0  0  0  0  0  0  0  0  0  0
   64.3010   32.0530   49.9840 C   0  0  0  0  0  0  0  0  0  0  0  0
   64.8170   33.4590   50.3710 C   0  0  0  0  0  0  0  0  0  0  0  0
   63.7040   34.3310   50.2190 O   0  0  0  0  0  0  0  0  0  0  0  0
   62.6260   33.6240   49.7400 C   0  0  0  0  0  0  0  0  0  0  0  0
   61.4900   34.1360   49.5620 O   0  0  0  0  0  0  0  0  0  0  0  0
   61.8380   31.2000   47.5790 C   0  0  0  0  0  0  0  0  0  0  0  0
   61.0210   30.2100   47.0270 C   0  0  0  0  0  0  0  0  0  0  0  0
   59.9690   26.9970   46.6750 C   0  0  0  0  0  0  0  0  0  0  0  0
   61.1490   26.5580   46.6620 O   0  0  0  0  0  0  0  0  0  0  0  0
   58.9040   26.3040   46.1500 O   0  0  0  0  0  0  0  0  0  0  0  0
   57.3097   32.6528   43.5374 H   0  0  0  0  0  0  0  0  0  0  0  0
   57.8396   34.9237   44.4239 H   0  0  0  0  0  0  0  0  0  0  0  0
   58.5747   35.2026   46.7943 H   0  0  0  0  0  0  0  0  0  0  0  0
   58.7568   33.2094   48.2872 H   0  0  0  0  0  0  0  0  0  0  0  0
   58.2265   30.9371   47.4090 H   0  0  0  0  0  0  0  0  0  0  0  0
   56.6056   26.4943   44.5956 H   0  0  0  0  0  0  0  0  0  0  0  0
   57.8138   27.8194   44.3813 H   0  0  0  0  0  0  0  0  0  0  0  0
   56.9519   26.4387   46.9360 H   0  0  0  0  0  0  0  0  0  0  0  0
   57.8118   29.2014   46.6717 H   0  0  0  0  0  0  0  0  0  0  0  0
   57.6486   28.3088   48.1871 H   0  0  0  0  0  0  0  0  0  0  0  0
   60.1988   28.5244   49.8832 H   0  0  0  0  0  0  0  0  0  0  0  0
   61.6687   30.2755   50.8653 H   0  0  0  0  0  0  0  0  0  0  0  0
   64.3313   31.3792   50.8530 H   0  0  0  0  0  0  0  0  0  0  0  0
   64.9197   31.5914   49.2004 H   0  0  0  0  0  0  0  0  0  0  0  0
   65.1698   33.4650   51.4129 H   0  0  0  0  0  0  0  0  0  0  0  0
   65.6648   33.7683   49.7421 H   0  0  0  0  0  0  0  0  0  0  0  0
   62.3013   31.9524   46.9238 H   0  0  0  0  0  0  0  0  0  0  0  0
   60.8374   30.1972   45.9425 H   0  0  0  0  0  0  0  0  0  0  0  0
  1  2  2  0
  2  3  1  0
  3  4  1  0
  4  5  2  0
  5  6  1  0
  6  7  2  0
  7  8  1  0
  8  9  2  0
  2 10  1  0
 10 11  1  0
 11 12  1  0
 12 13  1  0
 13 14  1  0
 14 15  1  0
 15 16  2  0
 16 17  1  0
 17 18  2  0
 18 19  1  0
 19 20  1  0
 20 21  1  0
 21 22  1  0
 22 23  1  0
 23 24  2  0
 18 25  1  0
 25 26  2  0
 14 27  1  0
 27 28  2  0
 27 29  1  0
  9  4  1  0
 29 12  1  0
 26 15  1  0
 23 19  1  0
  5 30  1  0
  6 31  1  0
  7 32  1  0
  8 33  1  0
  9 34  1  0
 11 35  1  0
 11 36  1  0
 12 37  1  1
 13 38  1  0
 13 39  1  0
 16 40  1  0
 17 41  1  0
 20 42  1  0
 20 43  1  0
 21 44  1  0
 21 45  1  0
 25 46  1  0
 26 47  1  0
M  CHG  1   3  -1
M  END
>  <UniqueID>  (25) 
23

>  <SMILES>  (25) 
O=C([N-]c1ccccc1)OC[C@@H]1CN(c2ccc(N3CCOC3=O)cc2)C(=O)O1

>  <Energy>  (25) 
87.99929660358453

>  <Genealogy>  (25) 
O=C([N-]c1ccccc1)OCC1CN(c2ccc(N3CCOC3=O)cc2)C(=O)O1 (protonated)
O=C([N-]c1ccccc1)OC[C@@H]1CN(c2ccc(N3CCOC3=O)cc2)C(=O)O1 (chirality)
O=C([N-]c1ccccc1)OC[C@@H]1CN(c2ccc(N3CCOC3=O)cc2)C(=O)O1 (3D coordinates assigned)
O=C([N-]c1ccccc1)OC[C@@H]1CN(c2ccc(N3CCOC3=O)cc2)C(=O)O1 (nonaromatic ring conformer: 87.99929660358453 kcal/mol)

>  <smiles>  (25) 
O=C(Nc1ccccc1)OCC1CN(c2ccc(N3CCOC3=O)cc2)C(=O)O1

>  <score_type>  (25) 
oracle

>  <origin>  (25) 
adg

>  <m_score__min__energy>  (25) 
-9.3699999999999992

>  <m_primary>  (25) 
energy

$$$$
25:0
     RDKit          3D

 53 56  0  0  0  0  0  0  0  0999 V2000
   53.7910   29.0810   54.6530 C   0  0  0  0  0  0  0  0  0  0  0  0
   54.3500   29.5220   53.5140 C   0  0  0  0  0  0  0  0  0  0  0  0
   53.7020   30.1900   52.4620 C   0  0  0  0  0  0  0  0  0  0  0  0
   52.3940   30.3950   52.2150 C   0  0  0  0  0  0  0  0  0  0  0  0
   51.8210   30.8570   50.9420 C   0  0  0  0  0  0  0  0  0  0  0  0
   51.6990   30.0760   49.8550 N   0  0  0  0  0  0  0  0  0  0  0  0
   51.0200   30.8550   48.9850 C   0  0  0  0  0  0  0  0  0  0  0  0
   50.7210   30.4730   47.8250 O   0  0  0  0  0  0  0  0  0  0  0  0
   50.6770   32.0710   49.4610 N   0  0  0  0  0  0  0  0  0  0  0  0
   51.1790   32.0520   50.7060 C   0  0  0  0  0  0  0  0  0  0  0  0
   51.0280   33.0910   51.6160 O   0  0  0  0  0  0  0  0  0  0  0  0
   54.7020   30.6690   51.6350 C   0  0  0  0  0  0  0  0  0  0  0  0
   55.9040   30.2490   52.1680 C   0  0  0  0  0  0  0  0  0  0  0  0
   57.2150   30.6060   51.5910 C   0  0  0  0  0  0  0  0  0  0  0  0
   57.9650   29.6890   51.1600 O   0  0  0  0  0  0  0  0  0  0  0  0
   57.6240   31.9740   51.4380 N   0  0  0  0  0  0  0  0  0  0  0  0
   57.3480   32.9410   52.4950 C   0  0  0  0  0  0  0  0  0  0  0  0
   58.5680   33.8450   52.5690 C   0  0  0  0  0  0  0  0  0  0  0  0
   59.2580   33.6950   51.2230 C   0  0  0  0  0  0  0  0  0  0  0  0
   58.8510   32.3080   50.7150 C   0  0  2  0  0  0  0  0  0  0  0  0
   58.6500   32.3200   49.1830 C   0  0  0  0  0  0  0  0  0  0  0  0
   58.7540   30.9730   48.5780 N   0  0  0  0  0  0  0  0  0  0  0  0
   58.7630   31.0920   47.1060 C   0  0  0  0  0  0  0  0  0  0  0  0
   58.8830   29.7030   46.4400 C   0  0  0  0  0  0  0  0  0  0  0  0
   59.2100   28.6820   47.3630 O   0  0  0  0  0  0  0  0  0  0  0  0
   60.3280   29.0780   48.1260 C   0  0  0  0  0  0  0  0  0  0  0  0
   59.9630   30.2550   49.0490 C   0  0  0  0  0  0  0  0  0  0  0  0
   55.6910   29.5180   53.2880 N   0  0  0  0  0  0  0  0  0  0  0  0
   56.7150   28.8550   54.1000 C   0  0  0  0  0  0  0  0  0  0  0  0
   54.4078   28.5686   55.4060 H   0  0  0  0  0  0  0  0  0  0  0  0
   52.7164   29.2322   54.8328 H   0  0  0  0  0  0  0  0  0  0  0  0
   51.6919   30.1994   53.0389 H   0  0  0  0  0  0  0  0  0  0  0  0
   54.5652   31.2709   50.7245 H   0  0  0  0  0  0  0  0  0  0  0  0
   56.4514   33.5292   52.2496 H   0  0  0  0  0  0  0  0  0  0  0  0
   57.1590   32.4418   53.4568 H   0  0  0  0  0  0  0  0  0  0  0  0
   58.2646   34.8896   52.7326 H   0  0  0  0  0  0  0  0  0  0  0  0
   59.2312   33.5728   53.4033 H   0  0  0  0  0  0  0  0  0  0  0  0
   58.9186   34.4758   50.5264 H   0  0  0  0  0  0  0  0  0  0  0  0
   60.3499   33.7978   51.3072 H   0  0  0  0  0  0  0  0  0  0  0  0
   59.6281   31.5513   50.8981 H   0  0  0  0  0  0  0  0  0  0  0  0
   57.6522   32.7275   48.9631 H   0  0  0  0  0  0  0  0  0  0  0  0
   59.4495   32.9391   48.7499 H   0  0  0  0  0  0  0  0  0  0  0  0
   57.8277   31.5689   46.7777 H   0  0  0  0  0  0  0  0  0  0  0  0
   59.6301   31.6999   46.8084 H   0  0  0  0  0  0  0  0  0  0  0  0
   57.9213   29.4551   45.9670 H   0  0  0  0  0  0  0  0  0  0  0  0
   59.6969   29.7573   45.7020 H   0  0  0  0  0  0  0  0  0  0  0  0
   60.6668   28.2295   48.7386 H   0  0  0  0  0  0  0  0  0  0  0  0
   61.1290   29.3973   47.4431 H   0  0  0  0  0  0  0  0  0  0  0  0
   59.7749   29.8680   50.0613 H   0  0  0  0  0  0  0  0  0  0  0  0
   60.8037   30.9644   49.0454 H   0  0  0  0  0  0  0  0  0  0  0  0
   56.4888   29.0014   55.1665 H   0  0  0  0  0  0  0  0  0  0  0  0
   56.7243   27.7790   53.8715 H   0  0  0  0  0  0  0  0  0  0  0  0
   57.7005   29.2869   53.8715 H   0  0  0  0  0  0  0  0  0  0  0  0
  1  2  2  0
  2  3  1  0
  3  4  2  3
  4  5  1  0
  5  6  1  0
  6  7  1  0
  7  8  2  0
  7  9  1  0
  9 10  1  0
 10 11  1  0
  3 12  1  0
 12 13  2  0
 13 14  1  0
 14 15  2  0
 14 16  1  0
 16 17  1  0
 17 18  1  0
 18 19  1  0
 19 20  1  0
 20 21  1  0
 21 22  1  0
 22 23  1  0
 23 24  1  0
 24 25  1  0
 25 26  1  0
 26 27  1  0
 13 28  1  0
 28 29  1  0
 28  2  1  0
 10  5  2  0
 20 16  1  0
 27 22  1  0
  1 30  1  0
  1 31  1  0
  4 32  1  0
 12 33  1  0
 17 34  1  0
 17 35  1  0
 18 36  1  0
 18 37  1  0
 19 38  1  0
 19 39  1  0
 20 40  1  6
 21 41  1  0
 21 42  1  0
 23 43  1  0
 23 44  1  0
 24 45  1  0
 24 46  1  0
 26 47  1  0
 26 48  1  0
 27 49  1  0
 27 50  1  0
 29 51  1  0
 29 52  1  0
 29 53  1  0
M  CHG  3   6  -1   9  -1  11  -1
M  END
>  <UniqueID>  (26) 
24

>  <SMILES>  (26) 
C=c1c(=Cc2[n-]c(=O)[n-]c2[O-])cc(C(=O)N2CCC[C@@H]2CN2CCOCC2)n1C

>  <Energy>  (26) 
139.66817403147644

>  <Genealogy>  (26) 
C=c1c(=Cc2[n-]c(=O)[n-]c2[O-])cc(C(=O)N2CCCC2CN2CCOCC2)n1C (protonated)
C=c1c(=Cc2[n-]c(=O)[n-]c2[O-])cc(C(=O)N2CCC[C@@H]2CN2CCOCC2)n1C (chirality)
C=c1c(=Cc2[n-]c(=O)[n-]c2[O-])cc(C(=O)N2CCC[C@@H]2CN2CCOCC2)n1C (3D coordinates assigned)
C=c1c(=Cc2[n-]c(=O)[n-]c2[O-])cc(C(=O)N2CCC[C@@H]2CN2CCOCC2)n1C (nonaromatic ring conformer: 139.66817403147644 kcal/mol)

>  <smiles>  (26) 
C=c1c(=Cc2[nH]c(=O)[nH]c2O)cc(C(=O)N2CCCC2CN2CCOCC2)n1C

>  <score_type>  (26) 
oracle

>  <origin>  (26) 
adg

>  <m_score__min__energy>  (26) 
-17.789999999999999

>  <m_primary>  (26) 
energy

$$$$
26:0
     RDKit          3D

 48 51  0  0  0  0  0  0  0  0999 V2000
   53.6660   25.7700   46.2640 H   0  0  0  0  0  0  0  0  0  0  0  0
   53.6300   24.9530   45.6160 N   0  0  0  0  0  0  0  0  0  0  0  0
   54.3100   23.8600   45.7760 C   0  0  0  0  0  0  0  0  0  0  0  0
   53.6850   22.6710   45.5560 N   0  0  0  0  0  0  0  0  0  0  0  0
   54.3030   21.4780   45.7480 C   0  0  0  0  0  0  0  0  0  0  0  0
   53.7626   20.5409   45.5486 H   0  0  0  0  0  0  0  0  0  0  0  0
   55.6230   21.4390   46.1980 C   0  0  0  0  0  0  0  0  0  0  0  0
   56.4250   19.9020   46.4640 Cl  0  0  0  0  0  0  0  0  0  0  0  0
   56.3000   22.6360   46.4270 C   0  0  0  0  0  0  0  0  0  0  0  0
   57.3409   22.6159   46.7821 H   0  0  0  0  0  0  0  0  0  0  0  0
   55.6610   23.8680   46.2070 C   0  0  0  0  0  0  0  0  0  0  0  0
   56.4340   25.1140   46.4250 C   0  0  0  0  0  0  0  0  0  0  0  0
   56.1720   26.2590   45.6620 C   0  0  0  0  0  0  0  0  0  0  0  0
   55.3609   26.2550   44.9189 H   0  0  0  0  0  0  0  0  0  0  0  0
   56.9500   27.4110   45.8510 C   0  0  0  0  0  0  0  0  0  0  0  0
   56.6980   28.6410   45.0780 C   0  0  0  0  0  0  0  0  0  0  0  0
   57.6570   29.3300   44.6360 O   0  0  0  0  0  0  0  0  0  0  0  0
   55.3580   29.0580   44.8230 N   0  0  0  0  0  0  0  0  0  0  0  0
   54.7310   29.3550   45.6010 H   0  0  0  0  0  0  0  0  0  0  0  0
   57.9690   27.3890   46.7530 N   0  0  0  0  0  0  0  0  0  0  0  0
   58.2680   26.2910   47.4980 C   0  0  0  0  0  0  0  0  0  0  0  0
   59.2860   26.3490   48.3110 N   0  0  0  0  0  0  0  0  0  0  0  0
   60.5140   27.1300   48.1380 C   0  0  0  0  0  0  0  0  0  0  0  0
   61.0225   27.2207   49.1092 H   0  0  0  0  0  0  0  0  0  0  0  0
   61.1590   26.6130   47.4122 H   0  0  0  0  0  0  0  0  0  0  0  0
   60.2070   28.5100   47.6110 C   0  0  0  0  0  0  0  0  0  0  0  0
   60.4930   28.8420   46.2770 C   0  0  0  0  0  0  0  0  0  0  0  0
   60.9658   28.0987   45.6182 H   0  0  0  0  0  0  0  0  0  0  0  0
   60.1810   30.1100   45.7810 C   0  0  0  0  0  0  0  0  0  0  0  0
   60.4013   30.3551   44.7315 H   0  0  0  0  0  0  0  0  0  0  0  0
   59.5870   31.0760   46.6140 C   0  0  0  0  0  0  0  0  0  0  0  0
   59.2430   32.4200   46.0840 C   0  0  0  0  0  0  0  0  0  0  0  0
   58.1200   32.5930   45.2510 C   0  0  0  0  0  0  0  0  0  0  0  0
   57.4913   31.7278   44.9939 H   0  0  0  0  0  0  0  0  0  0  0  0
   57.8000   33.8590   44.7490 C   0  0  0  0  0  0  0  0  0  0  0  0
   56.9214   33.9860   44.0995 H   0  0  0  0  0  0  0  0  0  0  0  0
   58.5940   34.9620   45.0710 C   0  0  0  0  0  0  0  0  0  0  0  0
   58.3408   35.9563   44.6745 H   0  0  0  0  0  0  0  0  0  0  0  0
   59.7090   34.8030   45.8960 C   0  0  0  0  0  0  0  0  0  0  0  0
   60.3323   35.6730   46.1501 H   0  0  0  0  0  0  0  0  0  0  0  0
   60.0350   33.5400   46.4000 C   0  0  0  0  0  0  0  0  0  0  0  0
   60.9161   33.4209   47.0476 H   0  0  0  0  0  0  0  0  0  0  0  0
   59.3240   30.7480   47.9560 C   0  0  0  0  0  0  0  0  0  0  0  0
   58.8697   31.4963   48.6220 H   0  0  0  0  0  0  0  0  0  0  0  0
   59.6360   29.4770   48.4500 C   0  0  0  0  0  0  0  0  0  0  0  0
   59.4320   29.2348   49.5034 H   0  0  0  0  0  0  0  0  0  0  0  0
   57.4840   25.1310   47.3510 C   0  0  0  0  0  0  0  0  0  0  0  0
   57.6957   24.2409   47.9617 H   0  0  0  0  0  0  0  0  0  0  0  0
  1  2  1  0
  2  3  2  3
  3  4  1  0
  4  5  1  0
  5  6  1  0
  5  7  2  0
  7  8  1  0
  7  9  1  0
  9 10  1  0
  9 11  2  0
 11 12  1  0
 12 13  1  0
 13 14  1  0
 13 15  2  0
 15 16  1  0
 16 17  2  0
 16 18  1  0
 18 19  1  0
 15 20  1  0
 20 21  1  0
 21 22  2  0
 22 23  1  0
 23 24  1  0
 23 25  1  0
 23 26  1  0
 26 27  2  0
 27 28  1  0
 27 29  1  0
 29 30  1  0
 29 31  2  0
 31 32  1  0
 32 33  2  0
 33 34  1  0
 33 35  1  0
 35 36  1  0
 35 37  2  0
 37 38  1  0
 37 39  1  0
 39 40  1  0
 39 41  2  0
 41 42  1  0
 31 43  1  0
 43 44  1  0
 43 45  2  0
 45 46  1  0
 21 47  1  0
 47 48  1  0
 11  3  1  0
 47 12  2  0
 45 26  1  0
 41 32  1  0
M  CHG  3   4  -1  18  -1  20  -1
M  END
>  <UniqueID>  (27) 
25

>  <SMILES>  (27) 
N=c1[n-]cc(Cl)cc1-c1cc(C([NH-])=O)[n-]/c(=N/Cc2ccc(-c3ccccc3)cc2)c1

>  <Energy>  (27) 
68.24281254863257

>  <Genealogy>  (27) 
N=c1[n-]cc(Cl)cc1-c1cc(C([NH-])=O)[n-]c(=NCc2ccc(-c3ccccc3)cc2)c1 (protonated)
N=c1[n-]cc(Cl)cc1-c1cc(C([NH-])=O)[n-]/c(=N/Cc2ccc(-c3ccccc3)cc2)c1 (cis-trans isomerization)
N=c1[n-]cc(Cl)cc1-c1cc(C([NH-])=O)[n-]/c(=N/Cc2ccc(-c3ccccc3)cc2)c1 (3D coordinates assigned)
N=c1[n-]cc(Cl)cc1-c1cc(C([NH-])=O)[n-]/c(=N/Cc2ccc(-c3ccccc3)cc2)c1 (optimized conformer: 68.24281254863257 kcal/mol)

>  <smiles>  (27) 
N=c1[nH]cc(Cl)cc1-c1cc(C(N)=O)[nH]c(=NCc2ccc(-c3ccccc3)cc2)c1

>  <score_type>  (27) 
oracle

>  <origin>  (27) 
adg

>  <m_score__min__energy>  (27) 
-14.34

>  <m_primary>  (27) 
energy

$$$$
27:0
     RDKit          3D

 49 52  0  0  0  0  0  0  0  0999 V2000
   59.9907   29.5166   44.1024 H   0  0  0  0  0  0  0  0  0  0  0  0
   59.4000   28.7060   44.5540 C   0  0  0  0  0  0  0  0  0  0  0  0
   59.8841   27.7543   44.8186 H   0  0  0  0  0  0  0  0  0  0  0  0
   58.0890   28.8780   44.7820 C   0  0  0  0  0  0  0  0  0  0  0  0
   57.1780   27.9700   45.3440 C   0  0  0  0  0  0  0  0  0  0  0  0
   57.3690   26.7710   45.9240 C   0  0  0  0  0  0  0  0  0  0  0  0
   57.9112   26.7581   46.8810 H   0  0  0  0  0  0  0  0  0  0  0  0
   56.9170   25.4750   45.3920 C   0  0  0  0  0  0  0  0  0  0  0  0
   57.3750   25.0430   44.1380 C   0  0  0  0  0  0  0  0  0  0  0  0
   58.0983   25.6537   43.5777 H   0  0  0  0  0  0  0  0  0  0  0  0
   56.9140   23.8380   43.5990 C   0  0  0  0  0  0  0  0  0  0  0  0
   57.2905   23.4931   42.6247 H   0  0  0  0  0  0  0  0  0  0  0  0
   55.9750   23.0700   44.2960 C   0  0  0  0  0  0  0  0  0  0  0  0
   55.5200   21.8720   43.7580 O   0  0  0  0  0  0  0  0  0  0  0  0
   55.4920   23.5110   45.5320 C   0  0  0  0  0  0  0  0  0  0  0  0
   54.7500   22.9102   46.0784 H   0  0  0  0  0  0  0  0  0  0  0  0
   55.9520   24.7160   46.0740 C   0  0  0  0  0  0  0  0  0  0  0  0
   55.5566   25.0701   47.0375 H   0  0  0  0  0  0  0  0  0  0  0  0
   55.9750   28.4890   45.2280 O   0  0  0  0  0  0  0  0  0  0  0  0
   56.1050   29.6660   44.6660 C   0  0  0  0  0  0  0  0  0  0  0  0
   55.1310   30.4250   44.4160 O   0  0  0  0  0  0  0  0  0  0  0  0
   57.3880   29.9670   44.3810 N   0  0  0  0  0  0  0  0  0  0  0  0
   57.8670   31.1640   43.6740 C   0  0  0  0  0  0  0  0  0  0  0  0
   58.7932   30.9183   43.1338 H   0  0  0  0  0  0  0  0  0  0  0  0
   57.0904   31.4932   42.9679 H   0  0  0  0  0  0  0  0  0  0  0  0
   58.1430   32.2810   44.6480 C   0  0  0  0  0  0  0  0  0  0  0  0
   58.4930   33.5560   44.1770 C   0  0  0  0  0  0  0  0  0  0  0  0
   58.5494   33.7432   43.0945 H   0  0  0  0  0  0  0  0  0  0  0  0
   58.7700   34.5880   45.0760 C   0  0  0  0  0  0  0  0  0  0  0  0
   59.0540   35.5821   44.7003 H   0  0  0  0  0  0  0  0  0  0  0  0
   58.6870   34.3600   46.4520 C   0  0  0  0  0  0  0  0  0  0  0  0
   58.9184   35.1728   47.1562 H   0  0  0  0  0  0  0  0  0  0  0  0
   58.3110   33.1030   46.9390 C   0  0  0  0  0  0  0  0  0  0  0  0
   58.2440   32.9020   48.3590 N   0  0  0  0  0  0  0  0  0  0  0  0
   59.3590   32.8480   49.2610 C   0  0  0  0  0  0  0  0  0  0  0  0
   59.1340   32.6590   50.4850 O   0  0  0  0  0  0  0  0  0  0  0  0
   60.7590   32.9570   48.7880 C   0  0  0  0  0  0  0  0  0  0  0  0
   61.5510   34.0700   49.1290 C   0  0  0  0  0  0  0  0  0  0  0  0
   61.1277   34.8730   49.7503 H   0  0  0  0  0  0  0  0  0  0  0  0
   62.8730   34.1600   48.6820 C   0  0  0  0  0  0  0  0  0  0  0  0
   63.4885   35.0284   48.9593 H   0  0  0  0  0  0  0  0  0  0  0  0
   63.4130   33.1490   47.8840 C   0  0  0  0  0  0  0  0  0  0  0  0
   64.4547   33.2195   47.5378 H   0  0  0  0  0  0  0  0  0  0  0  0
   62.6310   32.0480   47.5250 C   0  0  0  0  0  0  0  0  0  0  0  0
   63.1560   31.0710   46.7460 F   0  0  0  0  0  0  0  0  0  0  0  0
   61.3090   31.9540   47.9700 C   0  0  0  0  0  0  0  0  0  0  0  0
   60.6947   31.0894   47.6782 H   0  0  0  0  0  0  0  0  0  0  0  0
   58.0580   32.0590   46.0320 C   0  0  0  0  0  0  0  0  0  0  0  0
   57.7914   31.0607   46.4093 H   0  0  0  0  0  0  0  0  0  0  0  0
  1  2  1  0
  2  3  1  0
  2  4  2  0
  4  5  1  0
  5  6  2  0
  6  7  1  0
  6  8  1  0
  8  9  2  0
  9 10  1  0
  9 11  1  0
 11 12  1  0
 11 13  2  0
 13 14  1  0
 13 15  1  0
 15 16  1  0
 15 17  2  0
 17 18  1  0
  5 19  1  0
 19 20  1  0
 20 21  2  0
 20 22  1  0
 22 23  1  0
 23 24  1  0
 23 25  1  0
 23 26  1  0
 26 27  2  0
 27 28  1  0
 27 29  1  0
 29 30  1  0
 29 31  2  0
 31 32  1  0
 31 33  1  0
 33 34  1  0
 34 35  1  0
 35 36  2  0
 35 37  1  0
 37 38  2  0
 38 39  1  0
 38 40  1  0
 40 41  1  0
 40 42  2  0
 42 43  1  0
 42 44  1  0
 44 45  1  0
 44 46  2  0
 46 47  1  0
 33 48  2  0
 48 49  1  0
 22  4  1  0
 48 26  1  0
 17  8  1  0
 46 37  1  0
M  CHG  2  14  -1  34  -1
M  END
>  <UniqueID>  (28) 
26

>  <SMILES>  (28) 
C=c1/c(=C\c2ccc([O-])cc2)oc(=O)n1Cc1cccc([N-]C(=O)c2cccc(F)c2)c1

>  <Energy>  (28) 
106.43298637580546

>  <Genealogy>  (28) 
C=c1c(=Cc2ccc([O-])cc2)oc(=O)n1Cc1cccc([N-]C(=O)c2cccc(F)c2)c1 (protonated)
C=c1/c(=C\c2ccc([O-])cc2)oc(=O)n1Cc1cccc([N-]C(=O)c2cccc(F)c2)c1 (cis-trans isomerization)
C=c1/c(=C\c2ccc([O-])cc2)oc(=O)n1Cc1cccc([N-]C(=O)c2cccc(F)c2)c1 (3D coordinates assigned)
C=c1/c(=C\c2ccc([O-])cc2)oc(=O)n1Cc1cccc([N-]C(=O)c2cccc(F)c2)c1 (optimized conformer: 106.43298637580546 kcal/mol)

>  <smiles>  (28) 
C=c1c(=Cc2ccc(O)cc2)oc(=O)n1Cc1cccc(NC(=O)c2cccc(F)c2)c1

>  <score_type>  (28) 
oracle

>  <origin>  (28) 
adg

>  <m_score__min__energy>  (28) 
-13.93

>  <m_primary>  (28) 
energy

$$$$
28:0
     RDKit          3D

 59 62  0  0  0  0  0  0  0  0999 V2000
   59.8188   28.4010   48.4789 H   0  0  0  0  0  0  0  0  0  0  0  0
   59.3540   27.9980   47.5670 C   0  0  0  0  0  0  0  0  0  0  0  0
   59.5047   26.9434   47.2928 H   0  0  0  0  0  0  0  0  0  0  0  0
   58.6020   28.7940   46.7880 C   0  0  0  0  0  0  0  0  0  0  0  0
   57.9510   28.4190   45.6020 C   0  0  0  0  0  0  0  0  0  0  0  0
   57.6790   27.2040   45.0850 C   0  0  0  0  0  0  0  0  0  0  0  0
   57.8576   27.0642   44.0086 H   0  0  0  0  0  0  0  0  0  0  0  0
   57.1630   26.0470   45.8380 C   0  0  0  0  0  0  0  0  0  0  0  0
   57.9240   25.0730   46.3690 N   0  0  0  0  0  0  0  0  0  0  0  0
   57.0390   24.3280   47.0660 C   0  0  0  0  0  0  0  0  0  0  0  0
   57.3730   23.2950   47.7060 O   0  0  0  0  0  0  0  0  0  0  0  0
   55.7700   24.7830   47.0370 N   0  0  0  0  0  0  0  0  0  0  0  0
   55.8700   25.8800   46.2670 C   0  0  0  0  0  0  0  0  0  0  0  0
   54.8020   26.7150   45.9690 O   0  0  0  0  0  0  0  0  0  0  0  0
   57.5790   29.5950   44.9800 C   0  0  0  0  0  0  0  0  0  0  0  0
   57.0867   29.6880   44.0007 H   0  0  0  0  0  0  0  0  0  0  0  0
   57.9410   30.6330   45.8180 C   0  0  0  0  0  0  0  0  0  0  0  0
   57.7520   32.0610   45.4700 C   0  0  0  0  0  0  0  0  0  0  0  0
   56.5960   32.4700   45.1770 O   0  0  0  0  0  0  0  0  0  0  0  0
   58.8750   32.9470   45.3720 N   0  0  0  0  0  0  0  0  0  0  0  0
   59.7600   33.3380   46.4300 C   0  0  0  0  0  0  0  0  0  0  0  0
   59.2480   34.1130   47.4780 C   0  0  0  0  0  0  0  0  0  0  0  0
   58.1869   34.4030   47.4743 H   0  0  0  0  0  0  0  0  0  0  0  0
   60.0750   34.5210   48.5290 C   0  0  0  0  0  0  0  0  0  0  0  0
   59.6593   35.1222   49.3510 H   0  0  0  0  0  0  0  0  0  0  0  0
   61.4330   34.1670   48.5400 C   0  0  0  0  0  0  0  0  0  0  0  0
   62.3170   34.5880   49.6860 C   0  0  0  0  0  0  0  0  0  0  0  0
   63.2068   35.0975   49.2876 H   0  0  0  0  0  0  0  0  0  0  0  0
   61.7498   35.2668   50.3399 H   0  0  0  0  0  0  0  0  0  0  0  0
   62.7430   33.4130   50.4750 N   0  0  0  0  0  0  0  0  0  0  0  0
   61.7700   32.3050   50.3780 C   0  0  0  0  0  0  0  0  0  0  0  0
   61.5623   32.1082   49.3159 H   0  0  0  0  0  0  0  0  0  0  0  0
   62.2105   31.4254   50.8701 H   0  0  0  0  0  0  0  0  0  0  0  0
   60.4390   32.6310   51.0930 C   0  0  0  0  0  0  0  0  0  0  0  0
   59.7269   33.0295   50.3553 H   0  0  0  0  0  0  0  0  0  0  0  0
   60.0597   31.7043   51.5483 H   0  0  0  0  0  0  0  0  0  0  0  0
   60.6230   33.6290   52.1680 N   0  0  0  0  0  0  0  0  0  0  0  0
   59.4570   33.7410   53.0720 C   0  0  0  0  0  0  0  0  0  0  0  0
   59.5599   32.9830   53.8625 H   0  0  0  0  0  0  0  0  0  0  0  0
   59.4590   34.7693   53.4627 H   0  0  0  0  0  0  0  0  0  0  0  0
   58.0980   33.5350   52.3810 C   0  0  0  0  0  0  0  0  0  0  0  0
   57.3135   33.4161   53.1429 H   0  0  0  0  0  0  0  0  0  0  0  0
   57.8698   34.4088   51.7530 H   0  0  0  0  0  0  0  0  0  0  0  0
   58.1390   32.6328   51.7530 H   0  0  0  0  0  0  0  0  0  0  0  0
   61.9070   33.4610   52.8630 C   0  0  0  0  0  0  0  0  0  0  0  0
   61.9594   34.1608   53.7101 H   0  0  0  0  0  0  0  0  0  0  0  0
   61.9902   32.4286   53.2335 H   0  0  0  0  0  0  0  0  0  0  0  0
   63.0640   33.7500   51.8860 C   0  0  0  0  0  0  0  0  0  0  0  0
   63.3081   34.8211   51.9418 H   0  0  0  0  0  0  0  0  0  0  0  0
   63.9098   33.1145   52.1873 H   0  0  0  0  0  0  0  0  0  0  0  0
   61.9560   33.4240   47.4710 C   0  0  0  0  0  0  0  0  0  0  0  0
   63.0238   33.1600   47.4601 H   0  0  0  0  0  0  0  0  0  0  0  0
   61.1300   33.0170   46.4200 C   0  0  0  0  0  0  0  0  0  0  0  0
   61.5523   32.4435   45.5817 H   0  0  0  0  0  0  0  0  0  0  0  0
   58.5260   30.1440   46.9410 N   0  0  0  0  0  0  0  0  0  0  0  0
   59.0260   30.9340   48.0770 C   0  0  0  0  0  0  0  0  0  0  0  0
   58.7224   30.4542   49.0191 H   0  0  0  0  0  0  0  0  0  0  0  0
   60.1237   30.9889   48.0306 H   0  0  0  0  0  0  0  0  0  0  0  0
   58.6058   31.9495   48.0306 H   0  0  0  0  0  0  0  0  0  0  0  0
  1  2  1  0
  2  3  1  0
  2  4  2  0
  4  5  1  0
  5  6  2  0
  6  7  1  0
  6  8  1  0
  8  9  1  0
  9 10  1  0
 10 11  2  0
 10 12  1  0
 12 13  1  0
 13 14  1  0
  5 15  1  0
 15 16  1  0
 15 17  2  0
 17 18  1  0
 18 19  2  0
 18 20  1  0
 20 21  1  0
 21 22  2  0
 22 23  1  0
 22 24  1  0
 24 25  1  0
 24 26  2  0
 26 27  1  0
 27 28  1  0
 27 29  1  0
 27 30  1  0
 30 31  1  0
 31 32  1  0
 31 33  1  0
 31 34  1  0
 34 35  1  0
 34 36  1  0
 34 37  1  0
 37 38  1  0
 38 39  1  0
 38 40  1  0
 38 41  1  0
 41 42  1  0
 41 43  1  0
 41 44  1  0
 37 45  1  0
 45 46  1  0
 45 47  1  0
 45 48  1  0
 48 49  1  0
 48 50  1  0
 26 51  1  0
 51 52  1  0
 51 53  2  0
 53 54  1  0
 17 55  1  0
 55 56  1  0
 56 57  1  0
 56 58  1  0
 56 59  1  0
 55  4  1  0
 13  8  2  0
 53 21  1  0
 48 30  1  0
M  CHG  4   9  -1  12  -1  14  -1  20  -1
M  END
>  <UniqueID>  (29) 
27

>  <SMILES>  (29) 
C=c1/c(=C\c2[n-]c(=O)[n-]c2[O-])cc(C(=O)[N-]c2ccc(CN3CCN(CC)CC3)cc2)n1C

>  <Energy>  (29) 
149.8671345638729

>  <Genealogy>  (29) 
C=c1c(=Cc2[n-]c(=O)[n-]c2[O-])cc(C(=O)[N-]c2ccc(CN3CCN(CC)CC3)cc2)n1C (protonated)
C=c1/c(=C\c2[n-]c(=O)[n-]c2[O-])cc(C(=O)[N-]c2ccc(CN3CCN(CC)CC3)cc2)n1C (cis-trans isomerization)
C=c1/c(=C\c2[n-]c(=O)[n-]c2[O-])cc(C(=O)[N-]c2ccc(CN3CCN(CC)CC3)cc2)n1C (3D coordinates assigned)
C=c1/c(=C\c2[n-]c(=O)[n-]c2[O-])cc(C(=O)[N-]c2ccc(CN3CCN(CC)CC3)cc2)n1C (nonaromatic ring conformer: 149.8671345638729 kcal/mol)

>  <smiles>  (29) 
C=c1c(=Cc2[nH]c(=O)[nH]c2O)cc(C(=O)Nc2ccc(CN3CCN(CC)CC3)cc2)n1C

>  <score_type>  (29) 
oracle

>  <origin>  (29) 
adg

>  <m_score__min__energy>  (29) 
-19.550000000000001

>  <m_primary>  (29) 
energy

$$$$
29:0
     RDKit          3D

 41 43  0  0  0  0  0  0  0  0999 V2000
   59.6630   33.5890   49.7020 C   0  0  0  0  0  0  0  0  0  0  0  0
   60.4410   34.1560   48.7740 C   0  0  0  0  0  0  0  0  0  0  0  0
   60.5470   33.6180   47.3630 C   0  0  2  0  0  0  0  0  0  0  0  0
   60.6960   34.6540   46.3970 O   0  0  0  0  0  0  0  0  0  0  0  0
   59.4940   34.7560   45.6990 C   0  0  0  0  0  0  0  0  0  0  0  0
   59.2570   35.6460   44.8420 O   0  0  0  0  0  0  0  0  0  0  0  0
   58.5920   33.6650   46.0540 C   0  0  0  0  0  0  0  0  0  0  0  0
   57.4260   33.1860   45.2330 C   0  0  0  0  0  0  0  0  0  0  0  0
   57.8550   32.3570   44.0110 C   0  0  0  0  0  0  0  0  0  0  0  0
   56.9180   31.2120   43.7170 C   0  0  0  0  0  0  0  0  0  0  0  0
   56.7420   30.8540   42.5230 O   0  0  0  0  0  0  0  0  0  0  0  0
   56.2910   30.4480   44.7570 N   0  0  0  0  0  0  0  0  0  0  0  0
   56.2970   28.9940   44.8780 C   0  0  0  0  0  0  0  0  0  0  0  0
   57.6540   28.4910   45.2930 C   0  0  0  0  0  0  0  0  0  0  0  0
   57.7900   27.6930   46.4410 C   0  0  0  0  0  0  0  0  0  0  0  0
   59.0380   27.1670   46.7900 C   0  0  0  0  0  0  0  0  0  0  0  0
   60.1590   27.4410   46.0040 C   0  0  0  0  0  0  0  0  0  0  0  0
   60.0310   28.2290   44.8570 C   0  0  0  0  0  0  0  0  0  0  0  0
   58.7840   28.7460   44.4960 C   0  0  0  0  0  0  0  0  0  0  0  0
   59.2930   32.9450   46.9190 C   0  0  0  0  0  0  0  0  0  0  0  0
   59.3270   31.5630   46.9990 O   0  0  0  0  0  0  0  0  0  0  0  0
   60.6670   31.2430   47.1700 C   0  0  0  0  0  0  0  0  0  0  0  0
   61.1000   30.0610   47.2110 O   0  0  0  0  0  0  0  0  0  0  0  0
   61.4890   32.4550   47.2700 C   0  0  0  0  0  0  0  0  0  0  0  0
   62.8150   32.5050   47.3770 C   0  0  0  0  0  0  0  0  0  0  0  0
   59.6167   34.0142   50.7154 H   0  0  0  0  0  0  0  0  0  0  0  0
   59.0693   32.6974   49.4520 H   0  0  0  0  0  0  0  0  0  0  0  0
   61.0260   35.0469   49.0461 H   0  0  0  0  0  0  0  0  0  0  0  0
   56.7802   32.5638   45.8701 H   0  0  0  0  0  0  0  0  0  0  0  0
   56.8977   34.0756   44.8594 H   0  0  0  0  0  0  0  0  0  0  0  0
   57.8869   33.0183   43.1325 H   0  0  0  0  0  0  0  0  0  0  0  0
   58.8414   31.9254   44.2361 H   0  0  0  0  0  0  0  0  0  0  0  0
   55.5558   28.6931   45.6331 H   0  0  0  0  0  0  0  0  0  0  0  0
   56.0480   28.5605   43.8982 H   0  0  0  0  0  0  0  0  0  0  0  0
   56.9114   27.4810   47.0680 H   0  0  0  0  0  0  0  0  0  0  0  0
   59.1366   26.5361   47.6857 H   0  0  0  0  0  0  0  0  0  0  0  0
   61.1421   27.0369   46.2874 H   0  0  0  0  0  0  0  0  0  0  0  0
   60.9140   28.4428   44.2368 H   0  0  0  0  0  0  0  0  0  0  0  0
   58.6860   29.3547   43.5850 H   0  0  0  0  0  0  0  0  0  0  0  0
   63.3250   33.4772   47.4453 H   0  0  0  0  0  0  0  0  0  0  0  0
   63.4007   31.5741   47.3971 H   0  0  0  0  0  0  0  0  0  0  0  0
  1  2  2  0
  3  2  1  1
  3  4  1  0
  4  5  1  0
  5  6  2  0
  5  7  1  0
  7  8  1  0
  8  9  1  0
  9 10  1  0
 10 11  2  0
 10 12  1  0
 12 13  1  0
 13 14  1  0
 14 15  2  0
 15 16  1  0
 16 17  2  0
 17 18  1  0
 18 19  2  0
  7 20  2  0
 20 21  1  0
 21 22  1  0
 22 23  2  0
 22 24  1  0
 24 25  2  0
 20  3  1  0
 24  3  1  0
 19 14  1  0
  1 26  1  0
  1 27  1  0
  2 28  1  0
  8 29  1  0
  8 30  1  0
  9 31  1  0
  9 32  1  0
 13 33  1  0
 13 34  1  0
 15 35  1  0
 16 36  1  0
 17 37  1  0
 18 38  1  0
 19 39  1  0
 25 40  1  0
 25 41  1  0
M  CHG  1  12  -1
M  END
>  <UniqueID>  (30) 
28

>  <SMILES>  (30) 
C=C[C@]12OC(=O)C(CCC(=O)[N-]Cc3ccccc3)=C1OC(=O)C2=C

>  <Energy>  (30) 
90.97290276987667

>  <Genealogy>  (30) 
C=CC12OC(=O)C(CCC(=O)[N-]Cc3ccccc3)=C1OC(=O)C2=C (protonated)
C=C[C@]12OC(=O)C(CCC(=O)[N-]Cc3ccccc3)=C1OC(=O)C2=C (chirality)
C=C[C@]12OC(=O)C(CCC(=O)[N-]Cc3ccccc3)=C1OC(=O)C2=C (3D coordinates assigned)
C=C[C@]12OC(=O)C(CCC(=O)[N-]Cc3ccccc3)=C1OC(=O)C2=C (nonaromatic ring conformer: 90.97290276987667 kcal/mol)

>  <smiles>  (30) 
C=CC12OC(=O)C(CCC(=O)NCc3ccccc3)=C1OC(=O)C2=C

>  <score_type>  (30) 
oracle

>  <origin>  (30) 
adg

>  <m_score__min__energy>  (30) 
-10.52

>  <m_primary>  (30) 
energy

$$$$
30:0
     RDKit          3D

 52 54  0  0  0  0  0  0  0  0999 V2000
   60.0240   30.1730   48.5560 C   0  0  0  0  0  0  0  0  0  0  0  0
   61.1210   30.3580   49.2950 C   0  0  0  0  0  0  0  0  0  0  0  0
   61.6680   31.7310   49.5760 C   0  0  0  0  0  0  0  0  0  0  0  0
   61.5310   32.5760   48.3850 N   0  0  0  0  0  0  0  0  0  0  0  0
   62.4400   32.7130   47.3930 C   0  0  0  0  0  0  0  0  0  0  0  0
   63.7430   31.9760   47.3130 C   0  0  0  0  0  0  0  0  0  0  0  0
   61.9930   33.6160   46.4500 C   0  0  0  0  0  0  0  0  0  0  0  0
   60.7620   34.0660   46.8920 C   0  0  0  0  0  0  0  0  0  0  0  0
   59.8910   35.0270   46.1790 C   0  0  0  0  0  0  0  0  0  0  0  0
   59.6480   36.1490   46.6940 O   0  0  0  0  0  0  0  0  0  0  0  0
   59.2560   34.6820   44.9410 N   0  0  0  0  0  0  0  0  0  0  0  0
   58.5580   33.4550   44.6920 C   0  0  0  0  0  0  0  0  0  0  0  0
   58.1810   32.6500   45.7730 C   0  0  0  0  0  0  0  0  0  0  0  0
   57.5550   31.4200   45.5510 C   0  0  0  0  0  0  0  0  0  0  0  0
   57.2820   30.9920   44.2440 C   0  0  0  0  0  0  0  0  0  0  0  0
   56.5800   29.3990   43.9560 S   0  0  0  0  0  0  0  0  0  0  0  0
   55.2250   29.3260   44.6050 O   0  0  0  0  0  0  0  0  0  0  0  0
   56.3990   29.1970   42.4770 O   0  0  0  0  0  0  0  0  0  0  0  0
   57.5980   28.1290   44.5970 N   0  0  0  0  0  0  0  0  0  0  0  0
   57.5180   28.1000   46.0710 C   0  0  0  0  0  0  0  0  0  0  0  0
   58.7420   27.3840   46.6660 C   0  0  0  0  0  0  0  0  0  0  0  0
   59.9850   27.9990   46.3460 O   0  0  0  0  0  0  0  0  0  0  0  0
   59.9490   28.7820   45.1610 C   0  0  0  0  0  0  0  0  0  0  0  0
   58.9860   28.2310   44.0950 C   0  0  0  0  0  0  0  0  0  0  0  0
   57.6020   31.8260   43.1650 C   0  0  0  0  0  0  0  0  0  0  0  0
   58.2360   33.0500   43.3860 C   0  0  0  0  0  0  0  0  0  0  0  0
   60.5090   33.4200   48.0960 C   0  0  0  0  0  0  0  0  0  0  0  0
   59.2790   33.5950   48.9420 C   0  0  0  0  0  0  0  0  0  0  0  0
   59.6513   29.1549   48.3702 H   0  0  0  0  0  0  0  0  0  0  0  0
   59.4932   31.0387   48.1332 H   0  0  0  0  0  0  0  0  0  0  0  0
   61.6395   29.4812   49.7102 H   0  0  0  0  0  0  0  0  0  0  0  0
   61.1101   32.1824   50.4097 H   0  0  0  0  0  0  0  0  0  0  0  0
   62.7323   31.6495   49.8419 H   0  0  0  0  0  0  0  0  0  0  0  0
   64.1099   31.7685   48.3290 H   0  0  0  0  0  0  0  0  0  0  0  0
   63.5954   31.0276   46.7756 H   0  0  0  0  0  0  0  0  0  0  0  0
   64.4798   32.5911   46.7756 H   0  0  0  0  0  0  0  0  0  0  0  0
   62.5129   33.9182   45.5289 H   0  0  0  0  0  0  0  0  0  0  0  0
   58.3781   32.9866   46.8015 H   0  0  0  0  0  0  0  0  0  0  0  0
   57.2755   30.7854   46.4049 H   0  0  0  0  0  0  0  0  0  0  0  0
   57.4824   29.1315   46.4514 H   0  0  0  0  0  0  0  0  0  0  0  0
   56.6099   27.5539   46.3660 H   0  0  0  0  0  0  0  0  0  0  0  0
   58.6354   27.3687   47.7607 H   0  0  0  0  0  0  0  0  0  0  0  0
   58.7643   26.3751   46.2283 H   0  0  0  0  0  0  0  0  0  0  0  0
   59.6304   29.8010   45.4257 H   0  0  0  0  0  0  0  0  0  0  0  0
   60.9598   28.7625   44.7274 H   0  0  0  0  0  0  0  0  0  0  0  0
   58.9995   28.9026   43.2240 H   0  0  0  0  0  0  0  0  0  0  0  0
   59.3233   27.2194   43.8249 H   0  0  0  0  0  0  0  0  0  0  0  0
   57.3528   31.5153   42.1396 H   0  0  0  0  0  0  0  0  0  0  0  0
   58.4844   33.6999   42.5340 H   0  0  0  0  0  0  0  0  0  0  0  0
   59.5569   33.5555   50.0056 H   0  0  0  0  0  0  0  0  0  0  0  0
   58.8165   34.5680   48.7198 H   0  0  0  0  0  0  0  0  0  0  0  0
   58.5635   32.7896   48.7198 H   0  0  0  0  0  0  0  0  0  0  0  0
  1  2  2  0
  2  3  1  0
  3  4  1  0
  4  5  1  0
  5  6  1  0
  5  7  2  0
  7  8  1  0
  8  9  1  0
  9 10  2  0
  9 11  1  0
 11 12  1  0
 12 13  2  0
 13 14  1  0
 14 15  2  0
 15 16  1  0
 16 17  2  0
 16 18  2  0
 16 19  1  0
 19 20  1  0
 20 21  1  0
 21 22  1  0
 22 23  1  0
 23 24  1  0
 15 25  1  0
 25 26  2  0
  8 27  2  0
 27 28  1  0
 27  4  1  0
 26 12  1  0
 24 19  1  0
  1 29  1  0
  1 30  1  0
  2 31  1  0
  3 32  1  0
  3 33  1  0
  6 34  1  0
  6 35  1  0
  6 36  1  0
  7 37  1  0
 13 38  1  0
 14 39  1  0
 20 40  1  0
 20 41  1  0
 21 42  1  0
 21 43  1  0
 23 44  1  0
 23 45  1  0
 24 46  1  0
 24 47  1  0
 25 48  1  0
 26 49  1  0
 28 50  1  0
 28 51  1  0
 28 52  1  0
M  CHG  1  11  -1
M  END
>  <UniqueID>  (31) 
29

>  <SMILES>  (31) 
C=CCn1c(C)cc(C(=O)[N-]c2ccc(S(=O)(=O)N3CCOCC3)cc2)c1C

>  <Energy>  (31) 
91.04374344622462

>  <Genealogy>  (31) 
C=CCn1c(C)cc(C(=O)[N-]c2ccc(S(=O)(=O)N3CCOCC3)cc2)c1C (protonated)
C=CCn1c(C)cc(C(=O)[N-]c2ccc(S(=O)(=O)N3CCOCC3)cc2)c1C (3D coordinates assigned)
C=CCn1c(C)cc(C(=O)[N-]c2ccc(S(=O)(=O)N3CCOCC3)cc2)c1C (nonaromatic ring conformer: 91.04374344622462 kcal/mol)

>  <smiles>  (31) 
C=CCn1c(C)cc(C(=O)Nc2ccc(S(=O)(=O)N3CCOCC3)cc2)c1C

>  <score_type>  (31) 
oracle

>  <origin>  (31) 
adg

>  <m_score__min__energy>  (31) 
-10.69

>  <m_primary>  (31) 
energy

$$$$
31:0
     RDKit          3D

 67 70  0  0  0  0  0  0  0  0999 V2000
   54.2120   23.2480   45.2020 C   0  0  0  0  0  0  0  0  0  0  0  0
   55.4390   22.4280   45.2210 N   0  0  0  0  0  0  0  0  0  0  0  0
   56.2480   22.6700   46.4360 C   0  0  0  0  0  0  0  0  0  0  0  0
   56.7910   24.1070   46.4790 C   0  0  0  0  0  0  0  0  0  0  0  0
   57.1690   24.5660   45.1340 N   0  0  0  0  0  0  0  0  0  0  0  0
   57.3980   25.9710   44.8840 C   0  0  0  0  0  0  0  0  0  0  0  0
   57.1710   26.9230   45.8940 C   0  0  0  0  0  0  0  0  0  0  0  0
   57.4000   28.2800   45.6580 C   0  0  0  0  0  0  0  0  0  0  0  0
   57.8950   28.7120   44.4160 C   0  0  0  0  0  0  0  0  0  0  0  0
   58.1370   30.1020   44.1380 N   0  0  0  0  0  0  0  0  0  0  0  0
   57.1400   31.1350   44.2080 C   0  0  0  0  0  0  0  0  0  0  0  0
   55.9530   30.8690   44.5460 O   0  0  0  0  0  0  0  0  0  0  0  0
   57.5260   32.5650   43.9450 C   0  0  0  0  0  0  0  0  0  0  0  0
   58.2860   33.1430   45.1130 C   0  0  0  0  0  0  0  0  0  0  0  0
   57.9580   32.7630   46.4280 C   0  0  0  0  0  0  0  0  0  0  0  0
   58.6640   33.2950   47.5120 C   0  0  0  0  0  0  0  0  0  0  0  0
   59.7250   34.1840   47.3000 C   0  0  0  0  0  0  0  0  0  0  0  0
   60.4550   34.6240   48.4130 O   0  0  0  0  0  0  0  0  0  0  0  0
   61.7000   34.1010   48.7740 C   0  0  0  0  0  0  0  0  0  0  0  0
   62.1530   34.2630   50.0900 C   0  0  0  0  0  0  0  0  0  0  0  0
   63.3910   33.7380   50.4760 C   0  0  0  0  0  0  0  0  0  0  0  0
   64.1750   33.0230   49.5560 C   0  0  0  0  0  0  0  0  0  0  0  0
   65.4680   32.4540   49.9910 C   0  0  0  0  0  0  0  0  0  0  0  0
   66.5220   33.0920   49.7340 O   0  0  0  0  0  0  0  0  0  0  0  0
   65.5430   31.2170   50.7330 N   0  0  0  0  0  0  0  0  0  0  0  0
   66.8460   30.5640   50.8960 C   0  0  0  0  0  0  0  0  0  0  0  0
   64.3580   30.6360   51.3600 C   0  0  0  0  0  0  0  0  0  0  0  0
   63.7350   32.8890   48.2280 C   0  0  0  0  0  0  0  0  0  0  0  0
   62.5050   33.4360   47.8360 C   0  0  0  0  0  0  0  0  0  0  0  0
   60.0350   34.5930   45.9870 C   0  0  0  0  0  0  0  0  0  0  0  0
   59.3060   34.0930   44.9060 C   0  0  0  0  0  0  0  0  0  0  0  0
   58.1180   27.7660   43.4070 C   0  0  0  0  0  0  0  0  0  0  0  0
   57.8800   26.4110   43.6380 C   0  0  0  0  0  0  0  0  0  0  0  0
   57.4200   23.5530   44.0990 C   0  0  0  0  0  0  0  0  0  0  0  0
   56.2260   22.5790   43.9730 C   0  0  0  0  0  0  0  0  0  0  0  0
   53.8961   23.4591   46.2343 H   0  0  0  0  0  0  0  0  0  0  0  0
   54.4118   24.1947   44.6788 H   0  0  0  0  0  0  0  0  0  0  0  0
   53.4137   22.7013   44.6788 H   0  0  0  0  0  0  0  0  0  0  0  0
   55.6197   22.4994   47.3227 H   0  0  0  0  0  0  0  0  0  0  0  0
   57.1043   21.9796   46.4216 H   0  0  0  0  0  0  0  0  0  0  0  0
   56.0142   24.7736   46.8819 H   0  0  0  0  0  0  0  0  0  0  0  0
   57.6843   24.1259   47.1206 H   0  0  0  0  0  0  0  0  0  0  0  0
   56.8094   26.5952   46.8798 H   0  0  0  0  0  0  0  0  0  0  0  0
   57.1916   29.0153   46.4492 H   0  0  0  0  0  0  0  0  0  0  0  0
   59.1310   30.3990   44.0250 H   0  0  0  0  0  0  0  0  0  0  0  0
   58.1598   32.6072   43.0470 H   0  0  0  0  0  0  0  0  0  0  0  0
   56.6089   33.1542   43.7973 H   0  0  0  0  0  0  0  0  0  0  0  0
   57.1434   32.0450   46.6039 H   0  0  0  0  0  0  0  0  0  0  0  0
   58.3839   33.0132   48.5377 H   0  0  0  0  0  0  0  0  0  0  0  0
   61.5341   34.8040   50.8210 H   0  0  0  0  0  0  0  0  0  0  0  0
   63.7519   33.8859   51.5045 H   0  0  0  0  0  0  0  0  0  0  0  0
   67.0687   30.4524   51.9674 H   0  0  0  0  0  0  0  0  0  0  0  0
   66.8209   29.5720   50.4214 H   0  0  0  0  0  0  0  0  0  0  0  0
   67.6257   31.1779   50.4214 H   0  0  0  0  0  0  0  0  0  0  0  0
   64.4602   30.6861   52.4541 H   0  0  0  0  0  0  0  0  0  0  0  0
   63.4654   31.1987   51.0490 H   0  0  0  0  0  0  0  0  0  0  0  0
   64.2562   29.5858   51.0490 H   0  0  0  0  0  0  0  0  0  0  0  0
   64.3566   32.3541   47.4949 H   0  0  0  0  0  0  0  0  0  0  0  0
   62.1705   33.3439   46.7922 H   0  0  0  0  0  0  0  0  0  0  0  0
   60.8530   35.3077   45.8136 H   0  0  0  0  0  0  0  0  0  0  0  0
   59.5292   34.4427   43.8872 H   0  0  0  0  0  0  0  0  0  0  0  0
   58.4842   28.0948   42.4233 H   0  0  0  0  0  0  0  0  0  0  0  0
   58.0710   25.6800   42.8385 H   0  0  0  0  0  0  0  0  0  0  0  0
   57.5763   24.0567   43.1336 H   0  0  0  0  0  0  0  0  0  0  0  0
   58.3128   22.9767   44.3832 H   0  0  0  0  0  0  0  0  0  0  0  0
   55.5563   22.9524   43.1843 H   0  0  0  0  0  0  0  0  0  0  0  0
   56.6448   21.5894   43.7381 H   0  0  0  0  0  0  0  0  0  0  0  0
  1  2  1  0
  2  3  1  0
  3  4  1  0
  4  5  1  0
  5  6  1  0
  6  7  2  0
  7  8  1  0
  8  9  2  0
  9 10  1  0
 10 11  1  0
 11 12  2  0
 11 13  1  0
 13 14  1  0
 14 15  2  0
 15 16  1  0
 16 17  2  0
 17 18  1  0
 18 19  1  0
 19 20  2  0
 20 21  1  0
 21 22  2  0
 22 23  1  0
 23 24  2  0
 23 25  1  0
 25 26  1  0
 25 27  1  0
 22 28  1  0
 28 29  2  0
 17 30  1  0
 30 31  2  0
  9 32  1  0
 32 33  2  0
  5 34  1  0
 34 35  1  0
 35  2  1  0
 33  6  1  0
 31 14  1  0
 29 19  1  0
  1 36  1  0
  1 37  1  0
  1 38  1  0
  3 39  1  0
  3 40  1  0
  4 41  1  0
  4 42  1  0
  7 43  1  0
  8 44  1  0
 10 45  1  0
 13 46  1  0
 13 47  1  0
 15 48  1  0
 16 49  1  0
 20 50  1  0
 21 51  1  0
 26 52  1  0
 26 53  1  0
 26 54  1  0
 27 55  1  0
 27 56  1  0
 27 57  1  0
 28 58  1  0
 29 59  1  0
 30 60  1  0
 31 61  1  0
 32 62  1  0
 33 63  1  0
 34 64  1  0
 34 65  1  0
 35 66  1  0
 35 67  1  0
M  END
>  <UniqueID>  (32) 
30

>  <SMILES>  (32) 
CN1CCN(c2ccc(NC(=O)Cc3ccc(Oc4ccc(C(=O)N(C)C)cc4)cc3)cc2)CC1

>  <Energy>  (32) 
99.70927696873217

>  <Genealogy>  (32) 
CN1CCN(c2ccc(NC(=O)Cc3ccc(Oc4ccc(C(=O)N(C)C)cc4)cc3)cc2)CC1 (3D coordinates assigned)
CN1CCN(c2ccc(NC(=O)Cc3ccc(Oc4ccc(C(=O)N(C)C)cc4)cc3)cc2)CC1 (nonaromatic ring conformer: 99.70927696873217 kcal/mol)

>  <smiles>  (32) 
CN1CCN(c2ccc(NC(=O)Cc3ccc(Oc4ccc(C(=O)N(C)C)cc4)cc3)cc2)CC1

>  <score_type>  (32) 
oracle

>  <origin>  (32) 
adg

>  <m_score__min__energy>  (32) 
-10.630000000000001

>  <m_primary>  (32) 
energy

$$$$
32:0
     RDKit          3D

 50 52  0  0  0  0  0  0  0  0999 V2000
   63.6990   33.4230   47.6670 C   0  0  0  0  0  0  0  0  0  0  0  0
   62.4970   33.6770   48.5710 C   0  0  0  0  0  0  0  0  0  0  0  0
   61.2410   33.4580   47.8380 N   0  0  0  0  0  0  0  0  0  0  0  0
   61.2210   32.4710   46.7440 C   0  0  0  0  0  0  0  0  0  0  0  0
   60.2470   31.3590   47.0160 C   0  0  0  0  0  0  0  0  0  0  0  0
   59.6770   31.2770   48.1400 O   0  0  0  0  0  0  0  0  0  0  0  0
   60.0520   30.3380   46.0260 N   0  0  0  0  0  0  0  0  0  0  0  0
   59.0060   29.3540   46.0850 C   0  0  0  0  0  0  0  0  0  0  0  0
   59.0610   28.3500   47.0630 C   0  0  0  0  0  0  0  0  0  0  0  0
   58.0650   27.3740   47.1320 C   0  0  0  0  0  0  0  0  0  0  0  0
   57.0180   27.3640   46.2040 C   0  0  0  0  0  0  0  0  0  0  0  0
   56.0310   26.3730   46.3120 O   0  0  0  0  0  0  0  0  0  0  0  0
   55.9450   25.2280   45.5050 C   0  0  0  0  0  0  0  0  0  0  0  0
   54.7890   24.4240   45.4740 C   0  0  0  0  0  0  0  0  0  0  0  0
   54.7390   23.2970   44.6480 C   0  0  0  0  0  0  0  0  0  0  0  0
   55.8320   22.9700   43.8410 C   0  0  0  0  0  0  0  0  0  0  0  0
   56.9730   23.7770   43.8500 C   0  0  0  0  0  0  0  0  0  0  0  0
   57.0230   24.9100   44.6710 C   0  0  0  0  0  0  0  0  0  0  0  0
   56.9570   28.3690   45.2240 C   0  0  0  0  0  0  0  0  0  0  0  0
   57.9480   29.3520   45.1590 C   0  0  0  0  0  0  0  0  0  0  0  0
   60.0350   34.1940   48.1540 C   0  0  0  0  0  0  0  0  0  0  0  0
   59.5330   34.0950   49.3080 O   0  0  0  0  0  0  0  0  0  0  0  0
   59.3340   35.0400   47.1170 C   0  0  0  0  0  0  0  0  0  0  0  0
   58.5880   34.2050   46.1190 C   0  0  0  0  0  0  0  0  0  0  0  0
   57.4710   33.4220   46.3830 C   0  0  0  0  0  0  0  0  0  0  0  0
   57.0100   32.7270   45.2570 C   0  0  0  0  0  0  0  0  0  0  0  0
   57.7660   32.9520   44.1110 C   0  0  0  0  0  0  0  0  0  0  0  0
   59.0100   34.0170   44.5000 S   0  0  0  0  0  0  0  0  0  0  0  0
   64.5893   33.2349   48.2850 H   0  0  0  0  0  0  0  0  0  0  0  0
   63.5016   32.5467   47.0320 H   0  0  0  0  0  0  0  0  0  0  0  0
   63.8730   34.3042   47.0320 H   0  0  0  0  0  0  0  0  0  0  0  0
   62.5389   32.9902   49.4292 H   0  0  0  0  0  0  0  0  0  0  0  0
   62.5280   34.7209   48.9163 H   0  0  0  0  0  0  0  0  0  0  0  0
   60.9318   32.9781   45.8117 H   0  0  0  0  0  0  0  0  0  0  0  0
   62.2264   32.0330   46.6591 H   0  0  0  0  0  0  0  0  0  0  0  0
   60.7610   30.2590   45.2630 H   0  0  0  0  0  0  0  0  0  0  0  0
   59.8946   28.3315   47.7805 H   0  0  0  0  0  0  0  0  0  0  0  0
   58.1037   26.6083   47.9208 H   0  0  0  0  0  0  0  0  0  0  0  0
   53.9233   24.6834   46.1012 H   0  0  0  0  0  0  0  0  0  0  0  0
   53.8377   22.6666   44.6334 H   0  0  0  0  0  0  0  0  0  0  0  0
   55.7943   22.0777   43.1989 H   0  0  0  0  0  0  0  0  0  0  0  0
   57.8320   23.5220   43.2119 H   0  0  0  0  0  0  0  0  0  0  0  0
   57.9147   25.5540   44.6605 H   0  0  0  0  0  0  0  0  0  0  0  0
   56.1251   28.3821   44.5044 H   0  0  0  0  0  0  0  0  0  0  0  0
   57.9002   30.1274   44.3802 H   0  0  0  0  0  0  0  0  0  0  0  0
   58.6215   35.7063   47.6253 H   0  0  0  0  0  0  0  0  0  0  0  0
   60.0993   35.6141   46.5741 H   0  0  0  0  0  0  0  0  0  0  0  0
   56.9975   33.3547   47.3736 H   0  0  0  0  0  0  0  0  0  0  0  0
   56.1318   32.0649   45.2773 H   0  0  0  0  0  0  0  0  0  0  0  0
   57.5823   32.5098   43.1207 H   0  0  0  0  0  0  0  0  0  0  0  0
  1  2  1  0
  2  3  1  0
  3  4  1  0
  4  5  1  0
  5  6  2  0
  5  7  1  0
  7  8  1  0
  8  9  2  0
  9 10  1  0
 10 11  2  0
 11 12  1  0
 12 13  1  0
 13 14  2  0
 14 15  1  0
 15 16  2  0
 16 17  1  0
 17 18  2  0
 11 19  1  0
 19 20  2  0
  3 21  1  0
 21 22  2  0
 21 23  1  0
 23 24  1  0
 24 25  2  0
 25 26  1  0
 26 27  2  0
 27 28  1  0
 20  8  1  0
 28 24  1  0
 18 13  1  0
  1 29  1  0
  1 30  1  0
  1 31  1  0
  2 32  1  0
  2 33  1  0
  4 34  1  0
  4 35  1  0
  7 36  1  0
  9 37  1  0
 10 38  1  0
 14 39  1  0
 15 40  1  0
 16 41  1  0
 17 42  1  0
 18 43  1  0
 19 44  1  0
 20 45  1  0
 23 46  1  0
 23 47  1  0
 25 48  1  0
 26 49  1  0
 27 50  1  0
M  END
>  <UniqueID>  (33) 
31

>  <SMILES>  (33) 
CCN(CC(=O)Nc1ccc(Oc2ccccc2)cc1)C(=O)Cc1cccs1

>  <Energy>  (33) 
83.39138130538109

>  <Genealogy>  (33) 
CCN(CC(=O)Nc1ccc(Oc2ccccc2)cc1)C(=O)Cc1cccs1 (3D coordinates assigned)
CCN(CC(=O)Nc1ccc(Oc2ccccc2)cc1)C(=O)Cc1cccs1 (optimized conformer: 83.39138130538109 kcal/mol)

>  <smiles>  (33) 
CCN(CC(=O)Nc1ccc(Oc2ccccc2)cc1)C(=O)Cc1cccs1

>  <score_type>  (33) 
oracle

>  <origin>  (33) 
adg

>  <m_score__min__energy>  (33) 
-8.1300000000000008

>  <m_primary>  (33) 
energy

$$$$
33:0
     RDKit          3D

 41 43  0  0  0  0  0  0  0  0999 V2000
   56.5390   29.1220   52.3070 O   0  0  0  0  0  0  0  0  0  0  0  0
   56.4950   30.3770   52.2020 C   0  0  0  0  0  0  0  0  0  0  0  0
   55.1980   31.0470   51.8860 C   0  0  0  0  0  0  0  0  0  0  0  0
   54.2710   30.0710   51.3300 N   0  0  0  0  0  0  0  0  0  0  0  0
   52.9200   30.3140   50.9120 C   0  0  0  0  0  0  0  0  0  0  0  0
   52.4960   29.7090   49.8920 O   0  0  0  0  0  0  0  0  0  0  0  0
   51.9840   31.1940   51.6420 C   0  0  0  0  0  0  0  0  0  0  0  0
   51.4010   30.9530   52.8770 C   0  0  0  0  0  0  0  0  0  0  0  0
   50.6570   32.0710   53.1810 C   0  0  0  0  0  0  0  0  0  0  0  0
   50.8390   32.9360   52.1270 C   0  0  0  0  0  0  0  0  0  0  0  0
   50.2690   34.1970   52.0310 O   0  0  0  0  0  0  0  0  0  0  0  0
   51.6500   32.4200   51.1870 N   0  0  0  0  0  0  0  0  0  0  0  0
   57.6550   31.1760   52.4670 N   0  0  0  0  0  0  0  0  0  0  0  0
   58.5680   31.7150   51.4990 C   0  0  0  0  0  0  0  0  0  0  0  0
   58.8060   33.0960   51.3830 C   0  0  0  0  0  0  0  0  0  0  0  0
   59.7320   33.5770   50.4520 C   0  0  0  0  0  0  0  0  0  0  0  0
   60.4460   32.6870   49.6300 C   0  0  0  0  0  0  0  0  0  0  0  0
   61.4180   33.1750   48.6840 N   0  0  0  0  0  0  0  0  0  0  0  0
   62.8520   33.0920   48.9800 C   0  0  0  0  0  0  0  0  0  0  0  0
   63.6410   32.9640   47.6730 C   0  0  0  0  0  0  0  0  0  0  0  0
   63.2850   33.9930   46.7660 O   0  0  0  0  0  0  0  0  0  0  0  0
   61.9290   33.8500   46.3870 C   0  0  0  0  0  0  0  0  0  0  0  0
   61.0040   34.0600   47.5900 C   0  0  0  0  0  0  0  0  0  0  0  0
   60.2240   31.3060   49.7690 C   0  0  0  0  0  0  0  0  0  0  0  0
   59.2970   30.8280   50.6980 C   0  0  0  0  0  0  0  0  0  0  0  0
   54.7724   31.4746   52.8058 H   0  0  0  0  0  0  0  0  0  0  0  0
   55.3686   31.8498   51.1536 H   0  0  0  0  0  0  0  0  0  0  0  0
   51.5112   30.0477   53.4921 H   0  0  0  0  0  0  0  0  0  0  0  0
   50.0447   32.2377   54.0795 H   0  0  0  0  0  0  0  0  0  0  0  0
   58.2612   33.8014   52.0277 H   0  0  0  0  0  0  0  0  0  0  0  0
   59.9032   34.6599   50.3620 H   0  0  0  0  0  0  0  0  0  0  0  0
   63.1692   34.0014   49.5113 H   0  0  0  0  0  0  0  0  0  0  0  0
   63.0441   32.2110   49.6100 H   0  0  0  0  0  0  0  0  0  0  0  0
   64.7165   33.0337   47.8930 H   0  0  0  0  0  0  0  0  0  0  0  0
   63.4057   31.9927   47.2134 H   0  0  0  0  0  0  0  0  0  0  0  0
   61.6900   34.5949   45.6137 H   0  0  0  0  0  0  0  0  0  0  0  0
   61.7766   32.8325   45.9979 H   0  0  0  0  0  0  0  0  0  0  0  0
   61.0655   35.1070   47.9218 H   0  0  0  0  0  0  0  0  0  0  0  0
   59.9682   33.8276   47.3017 H   0  0  0  0  0  0  0  0  0  0  0  0
   60.7842   30.5969   49.1418 H   0  0  0  0  0  0  0  0  0  0  0  0
   59.1383   29.7444   50.8012 H   0  0  0  0  0  0  0  0  0  0  0  0
  1  2  2  0
  2  3  1  0
  3  4  1  0
  4  5  1  0
  5  6  2  0
  5  7  1  0
  7  8  2  0
  8  9  1  0
  9 10  2  0
 10 11  1  0
 10 12  1  0
  2 13  1  0
 13 14  1  0
 14 15  2  0
 15 16  1  0
 16 17  2  0
 17 18  1  0
 18 19  1  0
 19 20  1  0
 20 21  1  0
 21 22  1  0
 22 23  1  0
 17 24  1  0
 24 25  2  0
 12  7  1  0
 25 14  1  0
 23 18  1  0
  3 26  1  0
  3 27  1  0
  8 28  1  0
  9 29  1  0
 15 30  1  0
 16 31  1  0
 19 32  1  0
 19 33  1  0
 20 34  1  0
 20 35  1  0
 22 36  1  0
 22 37  1  0
 23 38  1  0
 23 39  1  0
 24 40  1  0
 25 41  1  0
M  CHG  4   4  -1  11  -1  12  -1  13  -1
M  END
>  <UniqueID>  (34) 
32

>  <SMILES>  (34) 
O=C(C[N-]C(=O)c1ccc([O-])[n-]1)[N-]c1ccc(N2CCOCC2)cc1

>  <Energy>  (34) 
77.30510373389112

>  <Genealogy>  (34) 
O=C(C[N-]C(=O)c1ccc([O-])[n-]1)[N-]c1ccc(N2CCOCC2)cc1 (protonated)
O=C(C[N-]C(=O)c1ccc([O-])[n-]1)[N-]c1ccc(N2CCOCC2)cc1 (3D coordinates assigned)
O=C(C[N-]C(=O)c1ccc([O-])[n-]1)[N-]c1ccc(N2CCOCC2)cc1 (nonaromatic ring conformer: 77.30510373389112 kcal/mol)

>  <smiles>  (34) 
O=C(CNC(=O)c1ccc(O)[nH]1)Nc1ccc(N2CCOCC2)cc1

>  <score_type>  (34) 
oracle

>  <origin>  (34) 
adg

>  <m_score__min__energy>  (34) 
-16.030000000000001

>  <m_primary>  (34) 
energy

$$$$
34:0
     RDKit          3D

 41 42  0  0  0  0  0  0  0  0999 V2000
   57.7140   31.9890   42.9340 C   0  0  0  0  0  0  0  0  0  0  0  0
   57.2570   31.7360   44.3400 C   0  0  0  0  0  0  0  0  0  0  0  0
   56.2680   30.9750   44.5210 O   0  0  0  0  0  0  0  0  0  0  0  0
   57.9370   32.3530   45.5100 C   0  0  0  0  0  0  0  0  0  0  0  0
   58.3650   33.6920   45.4520 C   0  0  0  0  0  0  0  0  0  0  0  0
   58.9970   34.2840   46.5480 C   0  0  0  0  0  0  0  0  0  0  0  0
   59.2060   33.5540   47.7190 C   0  0  0  0  0  0  0  0  0  0  0  0
   58.7790   32.2210   47.8030 C   0  0  0  0  0  0  0  0  0  0  0  0
   59.0030   31.4400   48.9860 N   0  0  0  0  0  0  0  0  0  0  0  0
   58.8410   31.9650   50.3160 C   0  0  0  0  0  0  0  0  0  0  0  0
   58.7560   33.2070   50.5040 O   0  0  0  0  0  0  0  0  0  0  0  0
   58.7410   31.0940   51.4520 N   0  0  0  0  0  0  0  0  0  0  0  0
   57.8890   31.3180   52.6160 C   0  0  0  0  0  0  0  0  0  0  0  0
   56.4400   31.5480   52.1890 C   0  0  0  0  0  0  0  0  0  0  0  0
   55.7750   30.2650   51.9980 N   0  0  0  0  0  0  0  0  0  0  0  0
   54.4280   29.9670   52.3900 C   0  0  0  0  0  0  0  0  0  0  0  0
   54.2390   29.1890   53.3610 O   0  0  0  0  0  0  0  0  0  0  0  0
   53.2570   30.4980   51.6600 C   0  0  0  0  0  0  0  0  0  0  0  0
   52.8790   29.9230   50.4350 C   0  0  0  0  0  0  0  0  0  0  0  0
   51.7760   30.4150   49.7340 C   0  0  0  0  0  0  0  0  0  0  0  0
   51.0330   31.4790   50.2540 C   0  0  0  0  0  0  0  0  0  0  0  0
   51.3870   32.0450   51.4820 C   0  0  0  0  0  0  0  0  0  0  0  0
   50.6400   33.0920   52.0050 O   0  0  0  0  0  0  0  0  0  0  0  0
   52.4910   31.5530   52.1870 C   0  0  0  0  0  0  0  0  0  0  0  0
   58.1610   31.6220   46.6950 C   0  0  0  0  0  0  0  0  0  0  0  0
   58.6762   32.5217   42.9515 H   0  0  0  0  0  0  0  0  0  0  0  0
   57.8355   31.0297   42.4097 H   0  0  0  0  0  0  0  0  0  0  0  0
   56.9654   32.6012   42.4097 H   0  0  0  0  0  0  0  0  0  0  0  0
   58.2005   34.2778   44.5356 H   0  0  0  0  0  0  0  0  0  0  0  0
   59.3315   35.3302   46.4879 H   0  0  0  0  0  0  0  0  0  0  0  0
   59.7066   34.0252   48.5777 H   0  0  0  0  0  0  0  0  0  0  0  0
   59.1150   30.4110   48.8550 H   0  0  0  0  0  0  0  0  0  0  0  0
   57.9363   30.4370   53.2729 H   0  0  0  0  0  0  0  0  0  0  0  0
   58.2465   32.2114   53.1490 H   0  0  0  0  0  0  0  0  0  0  0  0
   55.9152   32.1194   52.9688 H   0  0  0  0  0  0  0  0  0  0  0  0
   56.4234   32.1113   51.2443 H   0  0  0  0  0  0  0  0  0  0  0  0
   53.4554   29.0802   50.0257 H   0  0  0  0  0  0  0  0  0  0  0  0
   51.4914   29.9648   48.7715 H   0  0  0  0  0  0  0  0  0  0  0  0
   50.1695   31.8709   49.6965 H   0  0  0  0  0  0  0  0  0  0  0  0
   52.7610   31.9936   53.1581 H   0  0  0  0  0  0  0  0  0  0  0  0
   57.8473   30.5692   46.7513 H   0  0  0  0  0  0  0  0  0  0  0  0
  1  2  1  0
  2  3  2  0
  2  4  1  0
  4  5  2  0
  5  6  1  0
  6  7  2  0
  7  8  1  0
  8  9  1  0
  9 10  1  0
 10 11  2  0
 10 12  1  0
 12 13  1  0
 13 14  1  0
 14 15  1  0
 15 16  1  0
 16 17  2  0
 16 18  1  0
 18 19  2  0
 19 20  1  0
 20 21  2  0
 21 22  1  0
 22 23  1  0
 22 24  2  0
  8 25  2  0
 25  4  1  0
 24 18  1  0
  1 26  1  0
  1 27  1  0
  1 28  1  0
  5 29  1  0
  6 30  1  0
  7 31  1  0
  9 32  1  0
 13 33  1  0
 13 34  1  0
 14 35  1  0
 14 36  1  0
 19 37  1  0
 20 38  1  0
 21 39  1  0
 24 40  1  0
 25 41  1  0
M  CHG  3  12  -1  15  -1  23  -1
M  END
>  <UniqueID>  (35) 
33

>  <SMILES>  (35) 
CC(=O)c1cccc(NC(=O)[N-]CC[N-]C(=O)c2cccc([O-])c2)c1

>  <Energy>  (35) 
44.90160322715436

>  <Genealogy>  (35) 
CC(=O)c1cccc(NC(=O)[N-]CC[N-]C(=O)c2cccc([O-])c2)c1 (protonated)
CC(=O)c1cccc(NC(=O)[N-]CC[N-]C(=O)c2cccc([O-])c2)c1 (3D coordinates assigned)
CC(=O)c1cccc(NC(=O)[N-]CC[N-]C(=O)c2cccc([O-])c2)c1 (optimized conformer: 44.90160322715436 kcal/mol)

>  <smiles>  (35) 
CC(=O)c1cccc(NC(=O)NCCNC(=O)c2cccc(O)c2)c1

>  <score_type>  (35) 
oracle

>  <origin>  (35) 
adg

>  <m_score__min__energy>  (35) 
-14.33

>  <m_primary>  (35) 
energy

$$$$
35:0
     RDKit          3D

 49 52  0  0  0  0  0  0  0  0999 V2000
   56.3990   29.4100   44.9120 C   0  0  0  0  0  0  0  0  0  0  0  0
   57.6910   29.1700   45.1830 C   0  0  0  0  0  0  0  0  0  0  0  0
   58.3140   27.9210   45.3290 C   0  0  0  0  0  0  0  0  0  0  0  0
   57.8720   26.6770   45.0610 C   0  0  0  0  0  0  0  0  0  0  0  0
   57.3030   25.7420   46.0440 C   0  0  0  0  0  0  0  0  0  0  0  0
   58.0170   24.7750   46.6430 N   0  0  0  0  0  0  0  0  0  0  0  0
   57.0950   24.1130   47.3740 C   0  0  0  0  0  0  0  0  0  0  0  0
   57.3850   23.1270   48.1000 O   0  0  0  0  0  0  0  0  0  0  0  0
   55.8340   24.5820   47.2580 N   0  0  0  0  0  0  0  0  0  0  0  0
   55.9750   25.6040   46.3980 C   0  0  0  0  0  0  0  0  0  0  0  0
   54.9050   26.3650   45.9330 O   0  0  0  0  0  0  0  0  0  0  0  0
   59.5890   28.1780   45.8080 C   0  0  0  0  0  0  0  0  0  0  0  0
   59.7270   29.5480   45.8650 C   0  0  0  0  0  0  0  0  0  0  0  0
   60.9610   30.2650   46.3210 C   0  0  0  0  0  0  0  0  0  0  0  0
   58.5810   30.1510   45.4820 N   0  0  0  0  0  0  0  0  0  0  0  0
   58.3600   31.5730   45.4300 C   0  0  0  0  0  0  0  0  0  0  0  0
   58.1180   32.1900   44.1960 C   0  0  0  0  0  0  0  0  0  0  0  0
   57.9120   33.5670   44.1300 C   0  0  0  0  0  0  0  0  0  0  0  0
   57.9520   34.3210   45.3030 C   0  0  0  0  0  0  0  0  0  0  0  0
   58.1820   33.7130   46.4960 N   0  0  0  0  0  0  0  0  0  0  0  0
   58.3760   32.3680   46.6000 C   0  0  0  0  0  0  0  0  0  0  0  0
   58.6270   31.7800   47.9670 C   0  0  0  0  0  0  0  0  0  0  0  0
   58.9690   32.8450   48.9350 N   0  0  0  0  0  0  0  0  0  0  0  0
   60.2430   33.5070   48.5910 C   0  0  0  0  0  0  0  0  0  0  0  0
   61.4610   32.5880   48.8520 C   0  0  0  0  0  0  0  0  0  0  0  0
   61.1610   31.4840   49.6900 O   0  0  0  0  0  0  0  0  0  0  0  0
   60.3890   31.9090   50.7930 C   0  0  0  0  0  0  0  0  0  0  0  0
   58.9850   32.3530   50.3340 C   0  0  0  0  0  0  0  0  0  0  0  0
   56.0388   30.4456   44.8233 H   0  0  0  0  0  0  0  0  0  0  0  0
   55.7000   28.5712   44.7785 H   0  0  0  0  0  0  0  0  0  0  0  0
   57.9425   26.3311   44.0192 H   0  0  0  0  0  0  0  0  0  0  0  0
   53.9940   26.3190   46.3690 H   0  0  0  0  0  0  0  0  0  0  0  0
   60.3461   27.4311   46.0890 H   0  0  0  0  0  0  0  0  0  0  0  0
   60.9901   30.2819   47.4205 H   0  0  0  0  0  0  0  0  0  0  0  0
   61.8507   29.7432   45.9386 H   0  0  0  0  0  0  0  0  0  0  0  0
   60.9482   31.2963   45.9386 H   0  0  0  0  0  0  0  0  0  0  0  0
   58.0905   31.5864   43.2768 H   0  0  0  0  0  0  0  0  0  0  0  0
   57.7198   34.0542   43.1627 H   0  0  0  0  0  0  0  0  0  0  0  0
   57.7971   35.4093   45.2620 H   0  0  0  0  0  0  0  0  0  0  0  0
   57.7209   31.2581   48.3084 H   0  0  0  0  0  0  0  0  0  0  0  0
   59.4691   31.0753   47.9017 H   0  0  0  0  0  0  0  0  0  0  0  0
   60.2254   33.7798   47.5255 H   0  0  0  0  0  0  0  0  0  0  0  0
   60.3463   34.3982   49.2274 H   0  0  0  0  0  0  0  0  0  0  0  0
   61.8229   32.2052   47.8863 H   0  0  0  0  0  0  0  0  0  0  0  0
   62.2207   33.1927   49.3690 H   0  0  0  0  0  0  0  0  0  0  0  0
   60.2900   31.0778   51.5067 H   0  0  0  0  0  0  0  0  0  0  0  0
   60.8925   32.7626   51.2705 H   0  0  0  0  0  0  0  0  0  0  0  0
   58.3012   31.4950   50.4131 H   0  0  0  0  0  0  0  0  0  0  0  0
   58.6711   33.1845   50.9821 H   0  0  0  0  0  0  0  0  0  0  0  0
  1  2  2  0
  2  3  1  0
  3  4  2  3
  4  5  1  0
  5  6  1  0
  6  7  1  0
  7  8  2  0
  7  9  1  0
  9 10  1  0
 10 11  1  0
  3 12  1  0
 12 13  2  0
 13 14  1  0
 13 15  1  0
 15 16  1  0
 16 17  2  0
 17 18  1  0
 18 19  2  0
 19 20  1  0
 20 21  2  0
 21 22  1  0
 22 23  1  0
 23 24  1  0
 24 25  1  0
 25 26  1  0
 26 27  1  0
 27 28  1  0
 15  2  1  0
 21 16  1  0
 28 23  1  0
 10  5  2  0
  1 29  1  0
  1 30  1  0
  4 31  1  0
 11 32  1  0
 12 33  1  0
 14 34  1  0
 14 35  1  0
 14 36  1  0
 17 37  1  0
 18 38  1  0
 19 39  1  0
 22 40  1  0
 22 41  1  0
 24 42  1  0
 24 43  1  0
 25 44  1  0
 25 45  1  0
 27 46  1  0
 27 47  1  0
 28 48  1  0
 28 49  1  0
M  CHG  2   6  -1   9  -1
M  END
>  <UniqueID>  (36) 
34

>  <SMILES>  (36) 
C=c1c(=Cc2[n-]c(=O)[n-]c2O)cc(C)n1-c1cccnc1CN1CCOCC1

>  <Energy>  (36) 
138.07361864099363

>  <Genealogy>  (36) 
C=c1c(=Cc2[n-]c(=O)[n-]c2O)cc(C)n1-c1cccnc1CN1CCOCC1 (protonated)
C=c1c(=Cc2[n-]c(=O)[n-]c2O)cc(C)n1-c1cccnc1CN1CCOCC1 (3D coordinates assigned)
C=c1c(=Cc2[n-]c(=O)[n-]c2O)cc(C)n1-c1cccnc1CN1CCOCC1 (nonaromatic ring conformer: 138.07361864099363 kcal/mol)

>  <smiles>  (36) 
C=c1c(=Cc2[nH]c(=O)[nH]c2O)cc(C)n1-c1cccnc1CN1CCOCC1

>  <score_type>  (36) 
oracle

>  <origin>  (36) 
adg

>  <m_score__min__energy>  (36) 
-12.960000000000001

>  <m_primary>  (36) 
energy

$$$$
36:0
     RDKit          3D

 57 60  0  0  0  0  0  0  0  0999 V2000
   59.3450   24.0620   45.9220 C   0  0  0  0  0  0  0  0  0  0  0  0
   58.8870   25.3250   45.8670 C   0  0  0  0  0  0  0  0  0  0  0  0
   57.7370   25.7610   45.1940 C   0  0  0  0  0  0  0  0  0  0  0  0
   56.8800   25.0030   44.4750 C   0  0  0  0  0  0  0  0  0  0  0  0
   55.5370   24.5580   44.9110 C   0  0  0  0  0  0  0  0  0  0  0  0
   55.0030   23.3390   44.7160 N   0  0  0  0  0  0  0  0  0  0  0  0
   53.7890   23.4250   45.3000 C   0  0  0  0  0  0  0  0  0  0  0  0
   52.9770   22.4640   45.3200 O   0  0  0  0  0  0  0  0  0  0  0  0
   53.5150   24.6210   45.8620 N   0  0  0  0  0  0  0  0  0  0  0  0
   54.6310   25.3240   45.6100 C   0  0  0  0  0  0  0  0  0  0  0  0
   54.8170   26.6410   46.0090 O   0  0  0  0  0  0  0  0  0  0  0  0
   57.6490   27.1260   45.4410 C   0  0  0  0  0  0  0  0  0  0  0  0
   58.7200   27.4610   46.2460 C   0  0  0  0  0  0  0  0  0  0  0  0
   58.9500   28.8180   46.7760 C   0  0  0  0  0  0  0  0  0  0  0  0
   58.2540   29.7730   46.3360 O   0  0  0  0  0  0  0  0  0  0  0  0
   59.9090   29.0470   47.8200 N   0  0  0  0  0  0  0  0  0  0  0  0
   60.2460   30.3970   48.2850 C   0  0  0  0  0  0  0  0  0  0  0  0
   61.0030   31.1810   47.1840 C   0  0  0  0  0  0  0  0  0  0  0  0
   60.0640   32.0320   46.3240 C   0  0  0  0  0  0  0  0  0  0  0  0
   59.2990   32.9670   47.1650 N   0  0  0  0  0  0  0  0  0  0  0  0
   58.8610   34.2420   46.6470 C   0  0  0  0  0  0  0  0  0  0  0  0
   58.5980   35.1810   47.4490 O   0  0  0  0  0  0  0  0  0  0  0  0
   58.7710   34.4950   45.1630 C   0  0  0  0  0  0  0  0  0  0  0  0
   58.1870   33.3130   44.4340 C   0  0  0  0  0  0  0  0  0  0  0  0
   57.2610   32.4730   45.0750 C   0  0  0  0  0  0  0  0  0  0  0  0
   56.6900   31.3970   44.3870 C   0  0  0  0  0  0  0  0  0  0  0  0
   57.0340   31.1560   43.0530 C   0  0  0  0  0  0  0  0  0  0  0  0
   57.9470   31.9950   42.4040 C   0  0  0  0  0  0  0  0  0  0  0  0
   58.5190   33.0720   43.0890 C   0  0  0  0  0  0  0  0  0  0  0  0
   59.0350   32.6330   48.5740 C   0  0  0  0  0  0  0  0  0  0  0  0
   58.9630   31.1150   48.7630 C   0  0  0  0  0  0  0  0  0  0  0  0
   59.4920   26.3730   46.4830 N   0  0  0  0  0  0  0  0  0  0  0  0
   60.7570   26.3440   47.2280 C   0  0  0  0  0  0  0  0  0  0  0  0
   60.2633   23.8339   46.4829 H   0  0  0  0  0  0  0  0  0  0  0  0
   58.8013   23.2569   45.4061 H   0  0  0  0  0  0  0  0  0  0  0  0
   57.2104   24.6878   43.4743 H   0  0  0  0  0  0  0  0  0  0  0  0
   56.8732   27.8099   45.0663 H   0  0  0  0  0  0  0  0  0  0  0  0
   60.3350   28.2160   48.2930 H   0  0  0  0  0  0  0  0  0  0  0  0
   60.9293   30.3368   49.1449 H   0  0  0  0  0  0  0  0  0  0  0  0
   61.7393   31.8425   47.6640 H   0  0  0  0  0  0  0  0  0  0  0  0
   61.4901   30.4478   46.5244 H   0  0  0  0  0  0  0  0  0  0  0  0
   60.6585   32.6035   45.5961 H   0  0  0  0  0  0  0  0  0  0  0  0
   59.3606   31.3672   45.8012 H   0  0  0  0  0  0  0  0  0  0  0  0
   58.1322   35.3733   44.9886 H   0  0  0  0  0  0  0  0  0  0  0  0
   59.7880   34.6672   44.7807 H   0  0  0  0  0  0  0  0  0  0  0  0
   56.9837   32.6622   46.1225 H   0  0  0  0  0  0  0  0  0  0  0  0
   55.9696   30.7397   44.8959 H   0  0  0  0  0  0  0  0  0  0  0  0
   56.5872   30.3075   42.5142 H   0  0  0  0  0  0  0  0  0  0  0  0
   58.2151   31.8072   41.3538 H   0  0  0  0  0  0  0  0  0  0  0  0
   59.2313   33.7330   42.5736 H   0  0  0  0  0  0  0  0  0  0  0  0
   59.8446   33.0373   49.1993 H   0  0  0  0  0  0  0  0  0  0  0  0
   58.0710   33.0735   48.8686 H   0  0  0  0  0  0  0  0  0  0  0  0
   58.8153   30.8992   49.8315 H   0  0  0  0  0  0  0  0  0  0  0  0
   58.1253   30.7420   48.1553 H   0  0  0  0  0  0  0  0  0  0  0  0
   60.5468   26.3488   48.3077 H   0  0  0  0  0  0  0  0  0  0  0  0
   61.3153   25.4328   46.9672 H   0  0  0  0  0  0  0  0  0  0  0  0
   61.3565   27.2286   46.9672 H   0  0  0  0  0  0  0  0  0  0  0  0
  1  2  2  0
  2  3  1  0
  3  4  2  3
  4  5  1  0
  5  6  1  0
  6  7  1  0
  7  8  2  0
  7  9  1  0
  9 10  1  0
 10 11  1  0
  3 12  1  0
 12 13  2  0
 13 14  1  0
 14 15  2  0
 14 16  1  0
 16 17  1  0
 17 18  1  0
 18 19  1  0
 19 20  1  0
 20 21  1  0
 21 22  2  0
 21 23  1  0
 23 24  1  0
 24 25  2  0
 25 26  1  0
 26 27  2  0
 27 28  1  0
 28 29  2  0
 20 30  1  0
 30 31  1  0
 13 32  1  0
 32 33  1  0
 32  2  1  0
 10  5  2  0
 31 17  1  0
 29 24  1  0
  1 34  1  0
  1 35  1  0
  4 36  1  0
 12 37  1  0
 16 38  1  0
 17 39  1  0
 18 40  1  0
 18 41  1  0
 19 42  1  0
 19 43  1  0
 23 44  1  0
 23 45  1  0
 25 46  1  0
 26 47  1  0
 27 48  1  0
 28 49  1  0
 29 50  1  0
 30 51  1  0
 30 52  1  0
 31 53  1  0
 31 54  1  0
 33 55  1  0
 33 56  1  0
 33 57  1  0
M  CHG  3   6  -1   9  -1  11  -1
M  END
>  <UniqueID>  (37) 
35

>  <SMILES>  (37) 
C=c1c(=Cc2[n-]c(=O)[n-]c2[O-])cc(C(=O)NC2CCN(C(=O)Cc3ccccc3)CC2)n1C

>  <Energy>  (37) 
127.17559733011034

>  <Genealogy>  (37) 
C=c1c(=Cc2[n-]c(=O)[n-]c2[O-])cc(C(=O)NC2CCN(C(=O)Cc3ccccc3)CC2)n1C (protonated)
C=c1c(=Cc2[n-]c(=O)[n-]c2[O-])cc(C(=O)NC2CCN(C(=O)Cc3ccccc3)CC2)n1C (3D coordinates assigned)
C=c1c(=Cc2[n-]c(=O)[n-]c2[O-])cc(C(=O)NC2CCN(C(=O)Cc3ccccc3)CC2)n1C (nonaromatic ring conformer: 127.17559733011034 kcal/mol)

>  <smiles>  (37) 
C=c1c(=Cc2[nH]c(=O)[nH]c2O)cc(C(=O)NC2CCN(C(=O)Cc3ccccc3)CC2)n1C

>  <score_type>  (37) 
oracle

>  <origin>  (37) 
adg

>  <m_score__min__energy>  (37) 
-18.670000000000002

>  <m_primary>  (37) 
energy

$$$$
37:0
     RDKit          3D

 41 43  0  0  0  0  0  0  0  0999 V2000
   60.3880   28.5820   48.2160 C   0  0  0  0  0  0  0  0  0  0  0  0
   59.6750   29.3930   47.4270 C   0  0  0  0  0  0  0  0  0  0  0  0
   59.6480   30.7280   47.6210 N   0  0  0  0  0  0  0  0  0  0  0  0
   58.7050   31.2320   46.8010 C   0  0  0  0  0  0  0  0  0  0  0  0
   58.3200   32.6570   46.7350 C   0  0  0  0  0  0  0  0  0  0  0  0
   57.5120   33.1100   47.5930 O   0  0  0  0  0  0  0  0  0  0  0  0
   58.8850   33.5740   45.6670 C   0  0  1  0  0  0  0  0  0  0  0  0
   57.8000   34.3010   44.8600 C   0  0  0  0  0  0  0  0  0  0  0  0
   59.8890   34.5680   46.2210 C   0  0  0  0  0  0  0  0  0  0  0  0
   59.6940   35.7910   45.9820 O   0  0  0  0  0  0  0  0  0  0  0  0
   61.0900   34.1830   47.0110 C   0  0  0  0  0  0  0  0  0  0  0  0
   61.0160   34.1760   48.4170 C   0  0  0  0  0  0  0  0  0  0  0  0
   62.1310   33.8280   49.1850 C   0  0  0  0  0  0  0  0  0  0  0  0
   63.3290   33.4750   48.5610 C   0  0  0  0  0  0  0  0  0  0  0  0
   63.4130   33.4680   47.1680 C   0  0  0  0  0  0  0  0  0  0  0  0
   62.3010   33.8150   46.3950 C   0  0  0  0  0  0  0  0  0  0  0  0
   58.1270   30.2210   46.0570 C   0  0  0  0  0  0  0  0  0  0  0  0
   58.7630   29.0430   46.4210 C   0  0  0  0  0  0  0  0  0  0  0  0
   58.4880   27.8550   45.8490 C   0  0  0  0  0  0  0  0  0  0  0  0
   57.2650   27.0650   46.0660 C   0  0  0  0  0  0  0  0  0  0  0  0
   57.2470   25.8180   46.5730 N   0  0  0  0  0  0  0  0  0  0  0  0
   55.9530   25.4510   46.4540 C   0  0  0  0  0  0  0  0  0  0  0  0
   55.5280   24.3320   46.8390 O   0  0  0  0  0  0  0  0  0  0  0  0
   55.1530   26.3750   45.8800 N   0  0  0  0  0  0  0  0  0  0  0  0
   56.0010   27.3860   45.6270 C   0  0  0  0  0  0  0  0  0  0  0  0
   55.6160   28.5730   45.0080 O   0  0  0  0  0  0  0  0  0  0  0  0
   60.3897   27.4975   48.0320 H   0  0  0  0  0  0  0  0  0  0  0  0
   60.9728   28.9995   49.0489 H   0  0  0  0  0  0  0  0  0  0  0  0
   60.2160   31.2590   48.3180 H   0  0  0  0  0  0  0  0  0  0  0  0
   59.4174   32.9059   44.9740 H   0  0  0  0  0  0  0  0  0  0  0  0
   57.0880   34.7781   45.5495 H   0  0  0  0  0  0  0  0  0  0  0  0
   58.2672   35.0690   44.2261 H   0  0  0  0  0  0  0  0  0  0  0  0
   57.2674   33.5768   44.2261 H   0  0  0  0  0  0  0  0  0  0  0  0
   60.0733   34.4465   48.9151 H   0  0  0  0  0  0  0  0  0  0  0  0
   62.0644   33.8323   50.2830 H   0  0  0  0  0  0  0  0  0  0  0  0
   64.2058   33.2026   49.1668 H   0  0  0  0  0  0  0  0  0  0  0  0
   64.3568   33.1887   46.6768 H   0  0  0  0  0  0  0  0  0  0  0  0
   62.3729   33.8003   45.2975 H   0  0  0  0  0  0  0  0  0  0  0  0
   57.3188   30.3294   45.3188 H   0  0  0  0  0  0  0  0  0  0  0  0
   59.2404   27.4403   45.1621 H   0  0  0  0  0  0  0  0  0  0  0  0
   55.8480   28.7610   44.0410 H   0  0  0  0  0  0  0  0  0  0  0  0
  1  2  2  0
  2  3  1  0
  3  4  1  0
  4  5  1  0
  5  6  2  0
  5  7  1  0
  7  8  1  0
  7  9  1  0
  9 10  2  0
  9 11  1  0
 11 12  2  0
 12 13  1  0
 13 14  2  0
 14 15  1  0
 15 16  2  0
  4 17  2  0
 17 18  1  0
 18 19  2  3
 19 20  1  0
 20 21  1  0
 21 22  1  0
 22 23  2  0
 22 24  1  0
 24 25  1  0
 25 26  1  0
 18  2  1  0
 25 20  2  0
 16 11  1  0
  1 27  1  0
  1 28  1  0
  3 29  1  0
  7 30  1  6
  8 31  1  0
  8 32  1  0
  8 33  1  0
 12 34  1  0
 13 35  1  0
 14 36  1  0
 15 37  1  0
 16 38  1  0
 17 39  1  0
 19 40  1  0
 26 41  1  0
M  CHG  2  21  -1  24  -1
M  END
>  <UniqueID>  (38) 
36

>  <SMILES>  (38) 
C=c1[nH]c(C(=O)[C@@H](C)C(=O)c2ccccc2)cc1=Cc1[n-]c(=O)[n-]c1O

>  <Energy>  (38) 
111.45852919812518

>  <Genealogy>  (38) 
C=c1[nH]c(C(=O)C(C)C(=O)c2ccccc2)cc1=Cc1[n-]c(=O)[n-]c1O (protonated)
C=c1[nH]c(C(=O)[C@@H](C)C(=O)c2ccccc2)cc1=Cc1[n-]c(=O)[n-]c1O (chirality)
C=c1[nH]c(C(=O)[C@@H](C)C(=O)c2ccccc2)cc1=Cc1[n-]c(=O)[n-]c1O (3D coordinates assigned)
C=c1[nH]c(C(=O)[C@@H](C)C(=O)c2ccccc2)cc1=Cc1[n-]c(=O)[n-]c1O (optimized conformer: 111.45852919812518 kcal/mol)

>  <smiles>  (38) 
C=c1[nH]c(C(=O)C(C)C(=O)c2ccccc2)cc1=Cc1[nH]c(=O)[nH]c1O

>  <score_type>  (38) 
oracle

>  <origin>  (38) 
adg

>  <m_score__min__energy>  (38) 
-13.85

>  <m_primary>  (38) 
energy

$$$$
38:0
     RDKit          3D

 37 39  0  0  0  0  0  0  0  0999 V2000
   56.6620   30.0060   43.0060 C   0  0  0  0  0  0  0  0  0  0  0  0
   57.4160   30.5960   43.9530 C   0  0  0  0  0  0  0  0  0  0  0  0
   57.4080   31.9580   44.0050 N   0  0  0  0  0  0  0  0  0  0  0  0
   57.9170   32.6440   45.0580 C   0  0  0  0  0  0  0  0  0  0  0  0
   57.8560   33.9050   45.0510 O   0  0  0  0  0  0  0  0  0  0  0  0
   58.4670   31.9790   46.1200 N   0  0  0  0  0  0  0  0  0  0  0  0
   58.9330   32.7280   47.3060 C   0  0  0  0  0  0  0  0  0  0  0  0
   60.4390   32.7620   47.3500 C   0  0  0  0  0  0  0  0  0  0  0  0
   61.1490   33.7190   46.6040 C   0  0  0  0  0  0  0  0  0  0  0  0
   62.5440   33.7710   46.6700 C   0  0  0  0  0  0  0  0  0  0  0  0
   63.2420   32.8730   47.4830 C   0  0  0  0  0  0  0  0  0  0  0  0
   62.5440   31.9210   48.2310 C   0  0  0  0  0  0  0  0  0  0  0  0
   61.1480   31.8660   48.1680 C   0  0  0  0  0  0  0  0  0  0  0  0
   58.5640   30.6100   46.0910 C   0  0  0  0  0  0  0  0  0  0  0  0
   59.0920   30.0070   47.0690 O   0  0  0  0  0  0  0  0  0  0  0  0
   58.1160   29.8710   44.9650 C   0  0  0  0  0  0  0  0  0  0  0  0
   58.4070   28.5380   44.9060 C   0  0  0  0  0  0  0  0  0  0  0  0
   57.6280   27.4380   45.5230 C   0  0  0  0  0  0  0  0  0  0  0  0
   56.2260   27.4950   45.6330 C   0  0  0  0  0  0  0  0  0  0  0  0
   55.5190   28.6020   45.1760 O   0  0  0  0  0  0  0  0  0  0  0  0
   55.5460   26.4520   46.1760 N   0  0  0  0  0  0  0  0  0  0  0  0
   56.1930   25.3370   46.6000 C   0  0  0  0  0  0  0  0  0  0  0  0
   55.5420   24.3860   47.1040 O   0  0  0  0  0  0  0  0  0  0  0  0
   57.5420   25.2460   46.4760 N   0  0  0  0  0  0  0  0  0  0  0  0
   58.2690   26.2610   45.9420 C   0  0  0  0  0  0  0  0  0  0  0  0
   59.5200   26.1380   45.8380 O   0  0  0  0  0  0  0  0  0  0  0  0
   56.6377   28.9091   42.9266 H   0  0  0  0  0  0  0  0  0  0  0  0
   56.0704   30.6209   42.3118 H   0  0  0  0  0  0  0  0  0  0  0  0
   56.9460   32.5110   43.2440 H   0  0  0  0  0  0  0  0  0  0  0  0
   58.5488   33.7576   47.2580 H   0  0  0  0  0  0  0  0  0  0  0  0
   58.5616   32.2268   48.2120 H   0  0  0  0  0  0  0  0  0  0  0  0
   60.6041   34.4300   45.9656 H   0  0  0  0  0  0  0  0  0  0  0  0
   63.0939   34.5199   46.0811 H   0  0  0  0  0  0  0  0  0  0  0  0
   64.3400   32.9158   47.5339 H   0  0  0  0  0  0  0  0  0  0  0  0
   63.0933   31.2140   48.8701 H   0  0  0  0  0  0  0  0  0  0  0  0
   60.6024   31.1178   48.7616 H   0  0  0  0  0  0  0  0  0  0  0  0
   59.3090   28.2522   44.3450 H   0  0  0  0  0  0  0  0  0  0  0  0
  1  2  2  0
  2  3  1  0
  3  4  1  0
  4  5  2  0
  4  6  1  0
  6  7  1  0
  7  8  1  0
  8  9  2  0
  9 10  1  0
 10 11  2  0
 11 12  1  0
 12 13  2  0
  6 14  1  0
 14 15  2  0
 14 16  1  0
 16 17  2  3
 17 18  1  0
 18 19  2  0
 19 20  1  0
 19 21  1  0
 21 22  1  0
 22 23  2  0
 22 24  1  0
 24 25  1  0
 25 26  2  0
 16  2  1  0
 25 18  1  0
 13  8  1  0
  1 27  1  0
  1 28  1  0
  3 29  1  0
  7 30  1  0
  7 31  1  0
  9 32  1  0
 10 33  1  0
 11 34  1  0
 12 35  1  0
 13 36  1  0
 17 37  1  0
M  CHG  3  20  -1  21  -1  24  -1
M  END
>  <UniqueID>  (39) 
37

>  <SMILES>  (39) 
C=c1[nH]c(=O)n(Cc2ccccc2)c(=O)c1=Cc1c([O-])[n-]c(=O)[n-]c1=O

>  <Energy>  (39) 
70.89538886695377

>  <Genealogy>  (39) 
C=c1[nH]c(=O)n(Cc2ccccc2)c(=O)c1=Cc1c([O-])[n-]c(=O)[n-]c1=O (protonated)
C=c1[nH]c(=O)n(Cc2ccccc2)c(=O)c1=Cc1c([O-])[n-]c(=O)[n-]c1=O (3D coordinates assigned)
C=c1[nH]c(=O)n(Cc2ccccc2)c(=O)c1=Cc1c([O-])[n-]c(=O)[n-]c1=O (optimized conformer: 70.89538886695377 kcal/mol)

>  <smiles>  (39) 
C=c1[nH]c(=O)n(Cc2ccccc2)c(=O)c1=Cc1c(O)[nH]c(=O)[nH]c1=O

>  <score_type>  (39) 
oracle

>  <origin>  (39) 
adg

>  <m_score__min__energy>  (39) 
-15.76

>  <m_primary>  (39) 
energy

$$$$
39:0
     RDKit          3D

 55 57  0  0  0  0  0  0  0  0999 V2000
   56.7120   29.5710   44.7220 C   0  0  0  0  0  0  0  0  0  0  0  0
   57.6480   29.3040   45.6490 C   0  0  0  0  0  0  0  0  0  0  0  0
   58.3380   28.0910   45.7970 C   0  0  0  0  0  0  0  0  0  0  0  0
   58.0950   26.8660   45.2910 C   0  0  0  0  0  0  0  0  0  0  0  0
   57.4210   25.7660   45.9980 C   0  0  0  0  0  0  0  0  0  0  0  0
   58.0690   24.6890   46.4740 N   0  0  0  0  0  0  0  0  0  0  0  0
   57.0990   23.9940   47.1070 C   0  0  0  0  0  0  0  0  0  0  0  0
   57.3160   22.8950   47.6790 O   0  0  0  0  0  0  0  0  0  0  0  0
   55.8800   24.5740   47.0850 N   0  0  0  0  0  0  0  0  0  0  0  0
   56.0990   25.7040   46.3940 C   0  0  0  0  0  0  0  0  0  0  0  0
   55.1140   26.6600   46.1640 O   0  0  0  0  0  0  0  0  0  0  0  0
   59.4230   28.3630   46.6080 C   0  0  0  0  0  0  0  0  0  0  0  0
   59.3250   29.6860   46.9820 C   0  0  0  0  0  0  0  0  0  0  0  0
   60.3630   30.3810   47.7750 C   0  0  0  0  0  0  0  0  0  0  0  0
   61.5720   30.2750   47.4410 O   0  0  0  0  0  0  0  0  0  0  0  0
   60.0050   31.2030   48.9050 N   0  0  0  0  0  0  0  0  0  0  0  0
   60.9550   32.2230   49.3810 C   0  0  0  0  0  0  0  0  0  0  0  0
   60.2180   33.4190   49.9960 C   0  0  0  0  0  0  0  0  0  0  0  0
   59.1690   32.9680   50.9710 C   0  0  0  0  0  0  0  0  0  0  0  0
   58.6080   33.7880   51.6830 O   0  0  0  0  0  0  0  0  0  0  0  0
   58.8270   31.5120   51.0890 C   0  0  0  0  0  0  0  0  0  0  0  0
   58.8090   30.8610   49.7010 C   0  0  0  0  0  0  0  0  0  0  0  0
   58.2100   30.2530   46.4500 N   0  0  0  0  0  0  0  0  0  0  0  0
   57.8080   31.6680   46.5690 C   0  0  0  0  0  0  0  0  0  0  0  0
   58.4400   32.5710   45.4770 C   0  0  0  0  0  0  0  0  0  0  0  0
   59.1830   33.8620   45.9410 C   0  0  0  0  0  0  0  0  0  0  0  0
   59.2570   34.9070   44.8100 C   0  0  0  0  0  0  0  0  0  0  0  0
   60.6270   33.4660   46.3210 C   0  0  0  0  0  0  0  0  0  0  0  0
   58.5140   34.4780   47.1880 C   0  0  0  0  0  0  0  0  0  0  0  0
   56.2313   30.5600   44.6947 H   0  0  0  0  0  0  0  0  0  0  0  0
   56.4267   28.8005   43.9906 H   0  0  0  0  0  0  0  0  0  0  0  0
   58.4292   26.6719   44.2611 H   0  0  0  0  0  0  0  0  0  0  0  0
   54.2860   26.7190   46.7430 H   0  0  0  0  0  0  0  0  0  0  0  0
   60.2149   27.6575   46.8999 H   0  0  0  0  0  0  0  0  0  0  0  0
   61.6114   31.7755   50.1418 H   0  0  0  0  0  0  0  0  0  0  0  0
   61.5445   32.5791   48.5232 H   0  0  0  0  0  0  0  0  0  0  0  0
   60.9446   34.0570   50.5204 H   0  0  0  0  0  0  0  0  0  0  0  0
   59.7243   33.9772   49.1869 H   0  0  0  0  0  0  0  0  0  0  0  0
   59.5793   31.0112   51.7160 H   0  0  0  0  0  0  0  0  0  0  0  0
   57.8317   31.4118   51.5466 H   0  0  0  0  0  0  0  0  0  0  0  0
   58.7662   29.7687   49.8233 H   0  0  0  0  0  0  0  0  0  0  0  0
   57.9276   31.2404   49.1632 H   0  0  0  0  0  0  0  0  0  0  0  0
   56.7130   31.7297   46.4845 H   0  0  0  0  0  0  0  0  0  0  0  0
   58.1654   32.0310   47.5439 H   0  0  0  0  0  0  0  0  0  0  0  0
   59.1647   31.9568   44.9224 H   0  0  0  0  0  0  0  0  0  0  0  0
   57.5840   32.9390   44.8924 H   0  0  0  0  0  0  0  0  0  0  0  0
   59.3283   35.9145   45.2458 H   0  0  0  0  0  0  0  0  0  0  0  0
   60.1436   34.7126   44.1886 H   0  0  0  0  0  0  0  0  0  0  0  0
   58.3518   34.8395   44.1886 H   0  0  0  0  0  0  0  0  0  0  0  0
   60.7237   33.4395   47.4164 H   0  0  0  0  0  0  0  0  0  0  0  0
   60.8552   32.4721   45.9086 H   0  0  0  0  0  0  0  0  0  0  0  0
   61.3303   34.2044   45.9086 H   0  0  0  0  0  0  0  0  0  0  0  0
   58.9715   34.0568   48.0953 H   0  0  0  0  0  0  0  0  0  0  0  0
   58.6552   35.5689   47.1787 H   0  0  0  0  0  0  0  0  0  0  0  0
   57.4385   34.2474   47.1787 H   0  0  0  0  0  0  0  0  0  0  0  0
  1  2  2  0
  2  3  1  0
  3  4  2  3
  4  5  1  0
  5  6  1  0
  6  7  1  0
  7  8  2  0
  7  9  1  0
  9 10  1  0
 10 11  1  0
  3 12  1  0
 12 13  2  0
 13 14  1  0
 14 15  2  0
 14 16  1  0
 16 17  1  0
 17 18  1  0
 18 19  1  0
 19 20  2  0
 19 21  1  0
 21 22  1  0
 13 23  1  0
 23 24  1  0
 24 25  1  0
 25 26  1  0
 26 27  1  0
 26 28  1  0
 26 29  1  0
 23  2  1  0
 10  5  2  0
 22 16  1  0
  1 30  1  0
  1 31  1  0
  4 32  1  0
 11 33  1  0
 12 34  1  0
 17 35  1  0
 17 36  1  0
 18 37  1  0
 18 38  1  0
 21 39  1  0
 21 40  1  0
 22 41  1  0
 22 42  1  0
 24 43  1  0
 24 44  1  0
 25 45  1  0
 25 46  1  0
 27 47  1  0
 27 48  1  0
 27 49  1  0
 28 50  1  0
 28 51  1  0
 28 52  1  0
 29 53  1  0
 29 54  1  0
 29 55  1  0
M  CHG  2   6  -1   9  -1
M  END
>  <UniqueID>  (40) 
38

>  <SMILES>  (40) 
C=c1c(=Cc2[n-]c(=O)[n-]c2O)cc(C(=O)N2CCC(=O)CC2)n1CCC(C)(C)C

>  <Energy>  (40) 
127.23266293222686

>  <Genealogy>  (40) 
C=c1c(=Cc2[n-]c(=O)[n-]c2O)cc(C(=O)N2CCC(=O)CC2)n1CCC(C)(C)C (protonated)
C=c1c(=Cc2[n-]c(=O)[n-]c2O)cc(C(=O)N2CCC(=O)CC2)n1CCC(C)(C)C (3D coordinates assigned)
C=c1c(=Cc2[n-]c(=O)[n-]c2O)cc(C(=O)N2CCC(=O)CC2)n1CCC(C)(C)C (nonaromatic ring conformer: 127.23266293222686 kcal/mol)

>  <smiles>  (40) 
C=c1c(=Cc2[nH]c(=O)[nH]c2O)cc(C(=O)N2CCC(=O)CC2)n1CCC(C)(C)C

>  <score_type>  (40) 
oracle

>  <origin>  (40) 
adg

>  <m_score__min__energy>  (40) 
-13.369999999999999

>  <m_primary>  (40) 
energy

$$$$
40:0
     RDKit          3D

 50 52  0  0  0  0  0  0  0  0999 V2000
   65.7900   32.7580   50.1060 C   0  0  0  0  0  0  0  0  0  0  0  0
   64.6740   33.2140   49.3490 O   0  0  0  0  0  0  0  0  0  0  0  0
   63.6410   32.3850   48.8850 C   0  0  0  0  0  0  0  0  0  0  0  0
   63.2760   32.3190   47.5280 C   0  0  0  0  0  0  0  0  0  0  0  0
   62.2340   31.4800   47.1180 C   0  0  0  0  0  0  0  0  0  0  0  0
   61.5500   30.6840   48.0500 C   0  0  0  0  0  0  0  0  0  0  0  0
   60.4440   29.8070   47.6030 C   0  0  0  0  0  0  0  0  0  0  0  0
   60.0200   28.7120   48.3660 C   0  0  0  0  0  0  0  0  0  0  0  0
   58.9840   27.9130   47.8930 C   0  0  0  0  0  0  0  0  0  0  0  0
   58.3880   28.2170   46.6730 C   0  0  0  0  0  0  0  0  0  0  0  0
   57.4460   27.4930   46.2470 O   0  0  0  0  0  0  0  0  0  0  0  0
   58.8310   29.2940   45.9510 N   0  0  0  0  0  0  0  0  0  0  0  0
   58.2000   29.6770   44.6830 C   0  0  0  0  0  0  0  0  0  0  0  0
   57.6020   31.0490   44.8000 C   0  0  0  0  0  0  0  0  0  0  0  0
   56.3930   31.2200   44.4820 O   0  0  0  0  0  0  0  0  0  0  0  0
   58.3940   32.1440   45.2880 N   0  0  0  0  0  0  0  0  0  0  0  0
   57.8800   33.4730   45.4840 C   0  0  0  0  0  0  0  0  0  0  0  0
   56.6420   33.7010   45.3880 O   0  0  0  0  0  0  0  0  0  0  0  0
   58.7720   34.5460   45.8400 N   0  0  0  0  0  0  0  0  0  0  0  0
   60.0000   34.0290   46.4620 C   0  0  0  0  0  0  0  0  0  0  0  0
   59.7720   33.6150   47.8970 C   0  0  0  0  0  0  0  0  0  0  0  0
   60.4970   34.2170   48.9380 C   0  0  0  0  0  0  0  0  0  0  0  0
   60.2660   33.8400   50.2630 C   0  0  0  0  0  0  0  0  0  0  0  0
   59.3010   32.8750   50.5610 C   0  0  0  0  0  0  0  0  0  0  0  0
   58.5580   32.2920   49.5340 C   0  0  0  0  0  0  0  0  0  0  0  0
   58.7910   32.6580   48.2050 C   0  0  0  0  0  0  0  0  0  0  0  0
   59.8250   30.0570   46.4170 N   0  0  0  0  0  0  0  0  0  0  0  0
   61.9150   30.7580   49.4050 C   0  0  0  0  0  0  0  0  0  0  0  0
   62.9510   31.6020   49.8140 C   0  0  0  0  0  0  0  0  0  0  0  0
   65.5669   32.8491   51.1793 H   0  0  0  0  0  0  0  0  0  0  0  0
   65.9930   31.7048   49.8618 H   0  0  0  0  0  0  0  0  0  0  0  0
   66.6724   33.3677   49.8618 H   0  0  0  0  0  0  0  0  0  0  0  0
   63.8119   32.9294   46.7863 H   0  0  0  0  0  0  0  0  0  0  0  0
   61.9485   31.4439   46.0563 H   0  0  0  0  0  0  0  0  0  0  0  0
   60.5010   28.4860   49.3291 H   0  0  0  0  0  0  0  0  0  0  0  0
   58.6389   27.0481   48.4786 H   0  0  0  0  0  0  0  0  0  0  0  0
   58.9569   29.6766   43.8849 H   0  0  0  0  0  0  0  0  0  0  0  0
   57.4045   28.9560   44.4437 H   0  0  0  0  0  0  0  0  0  0  0  0
   59.4030   31.9710   45.4960 H   0  0  0  0  0  0  0  0  0  0  0  0
   58.2820   35.1660   46.5270 H   0  0  0  0  0  0  0  0  0  0  0  0
   59.0010   35.1200   44.9960 H   0  0  0  0  0  0  0  0  0  0  0  0
   60.3478   33.1557   45.8907 H   0  0  0  0  0  0  0  0  0  0  0  0
   60.7513   34.8324   46.4537 H   0  0  0  0  0  0  0  0  0  0  0  0
   61.2485   34.9871   48.7096 H   0  0  0  0  0  0  0  0  0  0  0  0
   60.8458   34.3045   51.0743 H   0  0  0  0  0  0  0  0  0  0  0  0
   59.1270   32.5749   51.6049 H   0  0  0  0  0  0  0  0  0  0  0  0
   57.7877   31.5432   49.7704 H   0  0  0  0  0  0  0  0  0  0  0  0
   58.2042   32.1951   47.3979 H   0  0  0  0  0  0  0  0  0  0  0  0
   61.3817   30.1476   50.1486 H   0  0  0  0  0  0  0  0  0  0  0  0
   63.2260   31.6504   50.8780 H   0  0  0  0  0  0  0  0  0  0  0  0
  1  2  1  0
  2  3  1  0
  3  4  2  0
  4  5  1  0
  5  6  2  0
  6  7  1  0
  7  8  1  0
  8  9  2  0
  9 10  1  0
 10 11  2  0
 10 12  1  0
 12 13  1  0
 13 14  1  0
 14 15  2  0
 14 16  1  0
 16 17  1  0
 17 18  2  0
 17 19  1  0
 19 20  1  0
 20 21  1  0
 21 22  2  0
 22 23  1  0
 23 24  2  0
 24 25  1  0
 25 26  2  0
 12 27  1  0
  6 28  1  0
 28 29  2  0
 29  3  1  0
 27  7  2  0
 26 21  1  0
  1 30  1  0
  1 31  1  0
  1 32  1  0
  4 33  1  0
  5 34  1  0
  8 35  1  0
  9 36  1  0
 13 37  1  0
 13 38  1  0
 16 39  1  0
 19 40  1  0
 19 41  1  0
 20 42  1  0
 20 43  1  0
 22 44  1  0
 23 45  1  0
 24 46  1  0
 25 47  1  0
 26 48  1  0
 28 49  1  0
 29 50  1  0
M  CHG  1  19   1
M  END
>  <UniqueID>  (41) 
39

>  <SMILES>  (41) 
COc1ccc(-c2ccc(=O)n(CC(=O)NC(=O)[NH2+]Cc3ccccc3)n2)cc1

>  <Energy>  (41) 
51.276526555957204

>  <Genealogy>  (41) 
COc1ccc(-c2ccc(=O)n(CC(=O)NC(=O)[NH2+]Cc3ccccc3)n2)cc1 (protonated)
COc1ccc(-c2ccc(=O)n(CC(=O)NC(=O)[NH2+]Cc3ccccc3)n2)cc1 (3D coordinates assigned)
COc1ccc(-c2ccc(=O)n(CC(=O)NC(=O)[NH2+]Cc3ccccc3)n2)cc1 (optimized conformer: 51.276526555957204 kcal/mol)

>  <smiles>  (41) 
COc1ccc(-c2ccc(=O)n(CC(=O)NC(=O)NCc3ccccc3)n2)cc1

>  <score_type>  (41) 
oracle

>  <origin>  (41) 
adg

>  <m_score__min__energy>  (41) 
-8.0299999999999994

>  <m_primary>  (41) 
energy

$$$$
41:0
     RDKit          3D

 64 68  0  0  0  0  0  0  0  0999 V2000
   55.1470   28.9830   44.4740 O   0  0  0  0  0  0  0  0  0  0  0  0
   56.1580   29.5570   44.9500 C   0  0  0  0  0  0  0  0  0  0  0  0
   56.5600   30.8600   44.4990 N   0  0  0  0  0  0  0  0  0  0  0  0
   57.4520   31.8170   45.0950 C   0  0  0  0  0  0  0  0  0  0  0  0
   57.7690   31.8350   46.4680 C   0  0  0  0  0  0  0  0  0  0  0  0
   58.6380   32.8050   46.9780 C   0  0  0  0  0  0  0  0  0  0  0  0
   59.2040   33.7710   46.1330 C   0  0  0  0  0  0  0  0  0  0  0  0
   60.1350   34.8200   46.6910 C   0  0  0  0  0  0  0  0  0  0  0  0
   60.5990   34.5130   48.1250 C   0  0  0  0  0  0  0  0  0  0  0  0
   62.0570   34.2680   48.1950 N   0  0  0  0  0  0  0  0  0  0  0  0
   62.5980   33.8370   46.8930 C   0  0  0  0  0  0  0  0  0  0  0  0
   63.5290   32.6520   47.1290 C   0  0  0  0  0  0  0  0  0  0  0  0
   63.6630   32.5460   48.6280 C   0  0  0  0  0  0  0  0  0  0  0  0
   62.4210   33.2220   49.1610 C   0  0  0  0  0  0  0  0  0  0  0  0
   58.9120   33.7340   44.7620 C   0  0  0  0  0  0  0  0  0  0  0  0
   58.0390   32.7690   44.2530 C   0  0  0  0  0  0  0  0  0  0  0  0
   56.8900   28.9060   45.9930 N   0  0  0  0  0  0  0  0  0  0  0  0
   57.5770   27.6540   45.8660 C   0  0  0  0  0  0  0  0  0  0  0  0
   56.9350   26.5320   45.3100 C   0  0  0  0  0  0  0  0  0  0  0  0
   57.5970   25.3040   45.2370 C   0  0  0  0  0  0  0  0  0  0  0  0
   58.9010   25.1830   45.7200 C   0  0  0  0  0  0  0  0  0  0  0  0
   59.5430   26.2860   46.2880 C   0  0  0  0  0  0  0  0  0  0  0  0
   58.8830   27.5240   46.3760 C   0  0  0  0  0  0  0  0  0  0  0  0
   59.5630   28.6610   46.9340 N   0  0  0  0  0  0  0  0  0  0  0  0
   60.6720   29.2800   46.2010 C   0  0  0  0  0  0  0  0  0  0  0  0
   61.0420   30.6180   46.8440 C   0  0  0  0  0  0  0  0  0  0  0  0
   61.2500   30.4480   48.2300 O   0  0  0  0  0  0  0  0  0  0  0  0
   60.0620   30.0670   48.9260 C   0  0  2  0  0  0  0  0  0  0  0  0
   59.4960   31.2690   49.7170 C   0  0  0  0  0  0  0  0  0  0  0  0
   59.2010   30.7600   51.1370 C   0  0  0  0  0  0  0  0  0  0  0  0
   59.9750   29.5450   51.2990 N   0  0  0  0  0  0  0  0  0  0  0  0
   60.4520   29.1500   50.0300 C   0  0  0  0  0  0  0  0  0  0  0  0
   61.1630   28.1230   49.8700 O   0  0  0  0  0  0  0  0  0  0  0  0
   58.9570   29.3870   48.0520 C   0  0  0  0  0  0  0  0  0  0  0  0
   57.3313   31.0832   47.1412 H   0  0  0  0  0  0  0  0  0  0  0  0
   58.8797   32.8104   48.0511 H   0  0  0  0  0  0  0  0  0  0  0  0
   61.0210   34.8827   46.0421 H   0  0  0  0  0  0  0  0  0  0  0  0
   59.5794   35.7689   46.7219 H   0  0  0  0  0  0  0  0  0  0  0  0
   60.3513   35.3693   48.7695 H   0  0  0  0  0  0  0  0  0  0  0  0
   60.0844   33.6006   48.4608 H   0  0  0  0  0  0  0  0  0  0  0  0
   61.7741   33.5361   46.2292 H   0  0  0  0  0  0  0  0  0  0  0  0
   63.1490   34.6631   46.4197 H   0  0  0  0  0  0  0  0  0  0  0  0
   63.0934   31.7308   46.7147 H   0  0  0  0  0  0  0  0  0  0  0  0
   64.5035   32.7909   46.6381 H   0  0  0  0  0  0  0  0  0  0  0  0
   63.6992   31.4926   48.9427 H   0  0  0  0  0  0  0  0  0  0  0  0
   64.5879   33.0096   49.0017 H   0  0  0  0  0  0  0  0  0  0  0  0
   61.6034   32.4921   49.2543 H   0  0  0  0  0  0  0  0  0  0  0  0
   62.6030   33.6518   50.1571 H   0  0  0  0  0  0  0  0  0  0  0  0
   59.3723   34.4680   44.0842 H   0  0  0  0  0  0  0  0  0  0  0  0
   57.8101   32.7572   43.1771 H   0  0  0  0  0  0  0  0  0  0  0  0
   55.9064   26.6224   44.9308 H   0  0  0  0  0  0  0  0  0  0  0  0
   57.0902   24.4317   44.7985 H   0  0  0  0  0  0  0  0  0  0  0  0
   59.4239   24.2176   45.6533 H   0  0  0  0  0  0  0  0  0  0  0  0
   60.5702   26.1853   46.6683 H   0  0  0  0  0  0  0  0  0  0  0  0
   61.5442   28.6102   46.2262 H   0  0  0  0  0  0  0  0  0  0  0  0
   60.3644   29.4529   45.1591 H   0  0  0  0  0  0  0  0  0  0  0  0
   61.9637   31.0014   46.3819 H   0  0  0  0  0  0  0  0  0  0  0  0
   60.2204   31.3325   46.6877 H   0  0  0  0  0  0  0  0  0  0  0  0
   60.2353   32.0828   49.7514 H   0  0  0  0  0  0  0  0  0  0  0  0
   58.5871   31.6650   49.2406 H   0  0  0  0  0  0  0  0  0  0  0  0
   59.5067   31.5093   51.8820 H   0  0  0  0  0  0  0  0  0  0  0  0
   58.1266   30.5735   51.2813 H   0  0  0  0  0  0  0  0  0  0  0  0
   58.3858   28.6824   48.6742 H   0  0  0  0  0  0  0  0  0  0  0  0
   58.2906   30.1652   47.6518 H   0  0  0  0  0  0  0  0  0  0  0  0
  1  2  2  0
  2  3  1  0
  3  4  1  0
  4  5  2  0
  5  6  1  0
  6  7  2  0
  7  8  1  0
  8  9  1  0
  9 10  1  0
 10 11  1  0
 11 12  1  0
 12 13  1  0
 13 14  1  0
  7 15  1  0
 15 16  2  0
  2 17  1  0
 17 18  1  0
 18 19  2  0
 19 20  1  0
 20 21  2  0
 21 22  1  0
 22 23  2  0
 23 24  1  0
 24 25  1  0
 25 26  1  0
 26 27  1  0
 28 27  1  6
 28 29  1  0
 29 30  1  0
 30 31  1  0
 31 32  1  0
 32 33  2  0
 28 34  1  0
 16  4  1  0
 23 18  1  0
 34 24  1  0
 14 10  1  0
 32 28  1  0
  5 35  1  0
  6 36  1  0
  8 37  1  0
  8 38  1  0
  9 39  1  0
  9 40  1  0
 11 41  1  0
 11 42  1  0
 12 43  1  0
 12 44  1  0
 13 45  1  0
 13 46  1  0
 14 47  1  0
 14 48  1  0
 15 49  1  0
 16 50  1  0
 19 51  1  0
 20 52  1  0
 21 53  1  0
 22 54  1  0
 25 55  1  0
 25 56  1  0
 26 57  1  0
 26 58  1  0
 29 59  1  0
 29 60  1  0
 30 61  1  0
 30 62  1  0
 34 63  1  0
 34 64  1  0
M  CHG  3   3  -1  17  -1  31  -1
M  END
>  <UniqueID>  (42) 
40

>  <SMILES>  (42) 
O=C([N-]c1ccc(CCN2CCCC2)cc1)[N-]c1ccccc1N1CCO[C@@]2(CC[N-]C2=O)C1

>  <Energy>  (42) 
97.85040806008882

>  <Genealogy>  (42) 
O=C([N-]c1ccc(CCN2CCCC2)cc1)[N-]c1ccccc1N1CCOC2(CC[N-]C2=O)C1 (protonated)
O=C([N-]c1ccc(CCN2CCCC2)cc1)[N-]c1ccccc1N1CCO[C@@]2(CC[N-]C2=O)C1 (chirality)
O=C([N-]c1ccc(CCN2CCCC2)cc1)[N-]c1ccccc1N1CCO[C@@]2(CC[N-]C2=O)C1 (3D coordinates assigned)
O=C([N-]c1ccc(CCN2CCCC2)cc1)[N-]c1ccccc1N1CCO[C@@]2(CC[N-]C2=O)C1 (nonaromatic ring conformer: 97.85040806008882 kcal/mol)

>  <smiles>  (42) 
O=C(Nc1ccc(CCN2CCCC2)cc1)Nc1ccccc1N1CCOC2(CCNC2=O)C1

>  <score_type>  (42) 
oracle

>  <origin>  (42) 
adg

>  <m_score__min__energy>  (42) 
-15.01

>  <m_primary>  (42) 
energy

$$$$
42:0
     RDKit          3D

 39 42  0  0  0  0  0  0  0  0999 V2000
   54.2670   26.6910   46.7540 H   0  0  0  0  0  0  0  0  0  0  0  0
   54.8880   26.3130   46.0500 O   0  0  0  0  0  0  0  0  0  0  0  0
   55.9330   25.4680   46.4070 C   0  0  0  0  0  0  0  0  0  0  0  0
   55.7610   24.2340   46.9080 N   0  0  0  0  0  0  0  0  0  0  0  0
   57.0290   23.8150   47.1010 C   0  0  0  0  0  0  0  0  0  0  0  0
   57.3040   22.6800   47.5710 O   0  0  0  0  0  0  0  0  0  0  0  0
   57.9800   24.7080   46.7530 N   0  0  0  0  0  0  0  0  0  0  0  0
   57.2740   25.7620   46.3020 C   0  0  0  0  0  0  0  0  0  0  0  0
   57.8340   27.0450   45.8230 C   0  0  0  0  0  0  0  0  0  0  0  0
   57.6274   27.3256   44.7796 H   0  0  0  0  0  0  0  0  0  0  0  0
   58.5770   27.9010   46.5570 C   0  0  0  0  0  0  0  0  0  0  0  0
   58.1590   29.0800   47.1650 C   0  0  0  0  0  0  0  0  0  0  0  0
   57.1463   29.5089   47.1417 H   0  0  0  0  0  0  0  0  0  0  0  0
   59.2650   29.6070   47.8040 C   0  0  0  0  0  0  0  0  0  0  0  0
   59.2830   30.8760   48.6040 C   0  0  0  0  0  0  0  0  0  0  0  0
   58.2797   31.0561   49.0175 H   0  0  0  0  0  0  0  0  0  0  0  0
   60.0179   30.7712   49.4157 H   0  0  0  0  0  0  0  0  0  0  0  0
   59.6810   32.0510   47.7370 C   0  0  0  0  0  0  0  0  0  0  0  0
   58.6610   32.8230   47.1500 C   0  0  0  0  0  0  0  0  0  0  0  0
   57.6084   32.5727   47.3486 H   0  0  0  0  0  0  0  0  0  0  0  0
   58.9670   33.9010   46.3200 C   0  0  0  0  0  0  0  0  0  0  0  0
   58.1564   34.4967   45.8749 H   0  0  0  0  0  0  0  0  0  0  0  0
   60.2950   34.2270   46.0520 C   0  0  0  0  0  0  0  0  0  0  0  0
   60.5293   35.0816   45.4003 H   0  0  0  0  0  0  0  0  0  0  0  0
   61.3300   33.4710   46.6090 C   0  0  0  0  0  0  0  0  0  0  0  0
   62.6200   33.7950   46.3280 N   0  0  0  0  0  0  0  0  0  0  0  0
   63.6640   33.0910   46.8350 C   0  0  0  0  0  0  0  0  0  0  0  0
   64.6954   33.3825   46.5875 H   0  0  0  0  0  0  0  0  0  0  0  0
   63.4300   31.9990   47.6690 C   0  0  0  0  0  0  0  0  0  0  0  0
   64.2741   31.4253   48.0795 H   0  0  0  0  0  0  0  0  0  0  0  0
   62.1190   31.6380   47.9800 C   0  0  0  0  0  0  0  0  0  0  0  0
   61.9294   30.7769   48.6377 H   0  0  0  0  0  0  0  0  0  0  0  0
   61.0360   32.3720   47.4550 C   0  0  0  0  0  0  0  0  0  0  0  0
   60.3350   28.8100   47.6330 N   0  0  0  0  0  0  0  0  0  0  0  0
   61.2920   28.9710   48.0200 H   0  0  0  0  0  0  0  0  0  0  0  0
   59.9340   27.7700   46.8770 C   0  0  0  0  0  0  0  0  0  0  0  0
   60.7630   26.7850   46.5140 C   0  0  0  0  0  0  0  0  0  0  0  0
   60.3925   25.9542   45.8955 H   0  0  0  0  0  0  0  0  0  0  0  0
   61.8152   26.8057   46.8340 H   0  0  0  0  0  0  0  0  0  0  0  0
  1  2  1  0
  2  3  1  0
  3  4  1  0
  4  5  1  0
  5  6  2  0
  5  7  1  0
  7  8  1  0
  8  9  1  0
  9 10  1  0
  9 11  2  0
 11 12  1  0
 12 13  1  0
 12 14  2  0
 14 15  1  0
 15 16  1  0
 15 17  1  0
 15 18  1  0
 18 19  2  0
 19 20  1  0
 19 21  1  0
 21 22  1  0
 21 23  2  0
 23 24  1  0
 23 25  1  0
 25 26  2  0
 26 27  1  0
 27 28  1  0
 27 29  2  0
 29 30  1  0
 29 31  1  0
 31 32  1  0
 31 33  2  0
 14 34  1  0
 34 35  1  0
 34 36  1  0
 36 37  2  0
 37 38  1  0
 37 39  1  0
  8  3  2  0
 36 11  1  0
 33 18  1  0
 33 25  1  0
M  CHG  2   4  -1   7  -1
M  END
>  <UniqueID>  (43) 
41

>  <SMILES>  (43) 
C=c1[nH]c(Cc2cccc3ncccc23)c/c1=C\c1[n-]c(=O)[n-]c1O

>  <Energy>  (43) 
106.62893510906247

>  <Genealogy>  (43) 
C=c1[nH]c(Cc2cccc3ncccc23)cc1=Cc1[n-]c(=O)[n-]c1O (protonated)
C=c1[nH]c(Cc2cccc3ncccc23)c/c1=C\c1[n-]c(=O)[n-]c1O (cis-trans isomerization)
C=c1[nH]c(Cc2cccc3ncccc23)c/c1=C\c1[n-]c(=O)[n-]c1O (3D coordinates assigned)
C=c1[nH]c(Cc2cccc3ncccc23)c/c1=C\c1[n-]c(=O)[n-]c1O (optimized conformer: 106.62893510906247 kcal/mol)

>  <smiles>  (43) 
C=c1[nH]c(Cc2cccc3ncccc23)cc1=Cc1[nH]c(=O)[nH]c1O

>  <score_type>  (43) 
oracle

>  <origin>  (43) 
adg

>  <m_score__min__energy>  (43) 
-13.31

>  <m_primary>  (43) 
energy

$$$$
43:0
     RDKit          3D

 44 46  0  0  0  0  0  0  0  0999 V2000
   55.1690   27.8470   46.0080 H   0  0  0  0  0  0  0  0  0  0  0  0
   55.3290   26.8680   46.0380 O   0  0  0  0  0  0  0  0  0  0  0  0
   56.6960   26.6890   45.7980 C   0  0  0  0  0  0  0  0  0  0  0  0
   56.8331   26.0258   44.9312 H   0  0  0  0  0  0  0  0  0  0  0  0
   57.1691   26.2364   46.6819 H   0  0  0  0  0  0  0  0  0  0  0  0
   57.3300   28.0230   45.5150 C   0  0  0  0  0  0  0  0  0  0  0  0
   58.7030   28.2110   45.7530 C   0  0  0  0  0  0  0  0  0  0  0  0
   59.3115   27.3733   46.1243 H   0  0  0  0  0  0  0  0  0  0  0  0
   59.3040   29.4580   45.5210 C   0  0  0  0  0  0  0  0  0  0  0  0
   60.7680   29.6630   45.8070 C   0  0  0  0  0  0  0  0  0  0  0  0
   61.2184   30.2479   44.9915 H   0  0  0  0  0  0  0  0  0  0  0  0
   61.2581   28.6811   45.8827 H   0  0  0  0  0  0  0  0  0  0  0  0
   60.9500   30.4030   47.1090 C   0  0  0  0  0  0  0  0  0  0  0  0
   61.1870   31.7830   47.1070 C   0  0  0  0  0  0  0  0  0  0  0  0
   61.2697   32.3246   46.1531 H   0  0  0  0  0  0  0  0  0  0  0  0
   61.3150   32.4540   48.2810 N   0  0  0  0  0  0  0  0  0  0  0  0
   61.2190   31.8110   49.4760 C   0  0  0  0  0  0  0  0  0  0  0  0
   61.3190   32.4570   50.6010 N   0  0  0  0  0  0  0  0  0  0  0  0
   60.2740   32.6830   51.5630 C   0  0  0  0  0  0  0  0  0  0  0  0
   60.5140   33.5720   52.6180 C   0  0  0  0  0  0  0  0  0  0  0  0
   61.4962   34.0593   52.7068 H   0  0  0  0  0  0  0  0  0  0  0  0
   59.5150   33.8470   53.5620 C   0  0  0  0  0  0  0  0  0  0  0  0
   59.7730   34.8250   54.6710 C   0  0  0  0  0  0  0  0  0  0  0  0
   59.6406   34.3230   55.6408 H   0  0  0  0  0  0  0  0  0  0  0  0
   60.8022   35.2053   54.5925 H   0  0  0  0  0  0  0  0  0  0  0  0
   59.0653   35.6635   54.5925 H   0  0  0  0  0  0  0  0  0  0  0  0
   58.2490   33.2610   53.4200 C   0  0  0  0  0  0  0  0  0  0  0  0
   57.4543   33.4942   54.1439 H   0  0  0  0  0  0  0  0  0  0  0  0
   57.9900   32.3790   52.3600 C   0  0  0  0  0  0  0  0  0  0  0  0
   56.6180   31.7980   52.1820 C   0  0  0  0  0  0  0  0  0  0  0  0
   56.1695   31.6081   53.1683 H   0  0  0  0  0  0  0  0  0  0  0  0
   55.9892   32.5071   51.6236 H   0  0  0  0  0  0  0  0  0  0  0  0
   56.6896   30.8530   51.6236 H   0  0  0  0  0  0  0  0  0  0  0  0
   58.9960   32.1110   51.4210 C   0  0  0  0  0  0  0  0  0  0  0  0
   58.7851   31.4494   50.5679 H   0  0  0  0  0  0  0  0  0  0  0  0
   60.9670   30.4760   49.4990 N   0  0  0  0  0  0  0  0  0  0  0  0
   60.8300   29.7610   48.3530 C   0  0  0  0  0  0  0  0  0  0  0  0
   60.5960   28.5250   48.4220 O   0  0  0  0  0  0  0  0  0  0  0  0
   58.5180   30.5290   45.0720 C   0  0  0  0  0  0  0  0  0  0  0  0
   58.9805   31.5111   44.8946 H   0  0  0  0  0  0  0  0  0  0  0  0
   57.1500   30.3540   44.8490 C   0  0  0  0  0  0  0  0  0  0  0  0
   56.5400   31.1985   44.4959 H   0  0  0  0  0  0  0  0  0  0  0  0
   56.5530   29.1090   45.0730 C   0  0  0  0  0  0  0  0  0  0  0  0
   55.1860   28.9630   44.8580 O   0  0  0  0  0  0  0  0  0  0  0  0
  1  2  1  0
  2  3  1  0
  3  4  1  0
  3  5  1  0
  3  6  1  0
  6  7  2  0
  7  8  1  0
  7  9  1  0
  9 10  1  0
 10 11  1  0
 10 12  1  0
 10 13  1  0
 13 14  2  0
 14 15  1  0
 14 16  1  0
 16 17  1  0
 17 18  2  0
 18 19  1  0
 19 20  2  0
 20 21  1  0
 20 22  1  0
 22 23  1  0
 23 24  1  0
 23 25  1  0
 23 26  1  0
 22 27  2  0
 27 28  1  0
 27 29  1  0
 29 30  1  0
 30 31  1  0
 30 32  1  0
 30 33  1  0
 29 34  2  0
 34 35  1  0
 17 36  1  0
 36 37  1  0
 37 38  2  0
  9 39  2  0
 39 40  1  0
 39 41  1  0
 41 42  1  0
 41 43  2  0
 43 44  1  0
 43  6  1  0
 37 13  1  0
 34 19  1  0
M  CHG  3  16  -1  36  -1  44  -1
M  END
>  <UniqueID>  (44) 
42

>  <SMILES>  (44) 
Cc1cc(C)cc(/N=c2\[n-]cc(Cc3ccc([O-])c(CO)c3)c(=O)[n-]2)c1

>  <Energy>  (44) 
51.338003604742276

>  <Genealogy>  (44) 
Cc1cc(C)cc(N=c2[n-]cc(Cc3ccc([O-])c(CO)c3)c(=O)[n-]2)c1 (protonated)
Cc1cc(C)cc(/N=c2\[n-]cc(Cc3ccc([O-])c(CO)c3)c(=O)[n-]2)c1 (cis-trans isomerization)
Cc1cc(C)cc(/N=c2\[n-]cc(Cc3ccc([O-])c(CO)c3)c(=O)[n-]2)c1 (3D coordinates assigned)
Cc1cc(C)cc(/N=c2\[n-]cc(Cc3ccc([O-])c(CO)c3)c(=O)[n-]2)c1 (optimized conformer: 51.338003604742276 kcal/mol)

>  <smiles>  (44) 
Cc1cc(C)cc(N=c2[nH]cc(Cc3ccc(O)c(CO)c3)c(=O)[nH]2)c1

>  <score_type>  (44) 
oracle

>  <origin>  (44) 
adg

>  <m_score__min__energy>  (44) 
-14.029999999999999

>  <m_primary>  (44) 
energy

$$$$
44:0
     RDKit          3D

 43 45  0  0  0  0  0  0  0  0999 V2000
   55.1370   29.3590   44.8490 N   0  0  0  0  0  0  0  0  0  0  0  0
   56.2200   29.8360   44.0550 C   0  0  0  0  0  0  0  0  0  0  0  0
   56.3210   29.4630   42.8570 O   0  0  0  0  0  0  0  0  0  0  0  0
   57.2150   30.7530   44.6420 C   0  0  0  0  0  0  0  0  0  0  0  0
   57.2420   32.1260   44.4720 C   0  0  0  0  0  0  0  0  0  0  0  0
   58.3070   32.5880   45.2230 C   0  0  0  0  0  0  0  0  0  0  0  0
   58.7270   33.9920   45.3400 C   0  0  0  0  0  0  0  0  0  0  0  0
   58.0060   34.9070   44.8570 O   0  0  0  0  0  0  0  0  0  0  0  0
   59.9530   34.3130   46.0050 N   0  0  0  0  0  0  0  0  0  0  0  0
   60.1140   34.2940   47.4550 C   0  0  0  0  0  0  0  0  0  0  0  0
   61.5110   33.8780   47.8220 C   0  0  0  0  0  0  0  0  0  0  0  0
   62.4320   33.5010   46.8280 C   0  0  0  0  0  0  0  0  0  0  0  0
   63.7240   33.1030   47.1800 C   0  0  0  0  0  0  0  0  0  0  0  0
   64.1060   33.0720   48.5240 C   0  0  0  0  0  0  0  0  0  0  0  0
   63.1950   33.4380   49.5180 C   0  0  0  0  0  0  0  0  0  0  0  0
   61.9020   33.8400   49.1710 C   0  0  0  0  0  0  0  0  0  0  0  0
   58.9260   31.5650   45.8430 N   0  0  0  0  0  0  0  0  0  0  0  0
   58.2660   30.4430   45.4970 C   0  0  0  0  0  0  0  0  0  0  0  0
   58.6630   29.1000   45.9600 C   0  0  0  0  0  0  0  0  0  0  0  0
   58.3820   27.9960   45.1380 C   0  0  0  0  0  0  0  0  0  0  0  0
   58.7790   26.7140   45.5170 C   0  0  0  0  0  0  0  0  0  0  0  0
   59.4650   26.5190   46.7160 C   0  0  0  0  0  0  0  0  0  0  0  0
   59.7480   27.6080   47.5450 C   0  0  0  0  0  0  0  0  0  0  0  0
   59.3460   28.9050   47.1830 C   0  0  0  0  0  0  0  0  0  0  0  0
   59.6900   30.2460   48.2870 S   0  0  0  0  0  0  0  0  0  0  0  0
   59.8880   29.6390   49.8930 N   0  0  0  0  0  0  0  0  0  0  0  0
   60.9420   30.9580   47.8560 O   0  0  0  0  0  0  0  0  0  0  0  0
   58.5540   31.2300   48.2720 O   0  0  0  0  0  0  0  0  0  0  0  0
   55.3020   28.6920   45.6350 H   0  0  0  0  0  0  0  0  0  0  0  0
   56.5539   32.7292   43.8615 H   0  0  0  0  0  0  0  0  0  0  0  0
   59.9187   35.3001   47.8545 H   0  0  0  0  0  0  0  0  0  0  0  0
   59.4028   33.5724   47.8834 H   0  0  0  0  0  0  0  0  0  0  0  0
   62.1338   33.5196   45.7694 H   0  0  0  0  0  0  0  0  0  0  0  0
   64.4417   32.8136   46.3982 H   0  0  0  0  0  0  0  0  0  0  0  0
   65.1241   32.7594   48.7993 H   0  0  0  0  0  0  0  0  0  0  0  0
   63.4958   33.4098   50.5757 H   0  0  0  0  0  0  0  0  0  0  0  0
   61.1881   34.1276   49.9568 H   0  0  0  0  0  0  0  0  0  0  0  0
   59.7710   31.6230   46.4540 H   0  0  0  0  0  0  0  0  0  0  0  0
   57.8453   28.1437   44.1892 H   0  0  0  0  0  0  0  0  0  0  0  0
   58.5508   25.8548   44.8692 H   0  0  0  0  0  0  0  0  0  0  0  0
   59.7833   25.5077   47.0091 H   0  0  0  0  0  0  0  0  0  0  0  0
   60.2900   27.4485   48.4888 H   0  0  0  0  0  0  0  0  0  0  0  0
   58.9340   29.4140   50.2560 H   0  0  0  0  0  0  0  0  0  0  0  0
  1  2  1  0
  2  3  2  0
  2  4  1  0
  4  5  1  0
  5  6  2  0
  6  7  1  0
  7  8  2  0
  7  9  1  0
  9 10  1  0
 10 11  1  0
 11 12  2  0
 12 13  1  0
 13 14  2  0
 14 15  1  0
 15 16  2  0
  6 17  1  0
 17 18  1  0
 18 19  1  0
 19 20  2  0
 20 21  1  0
 21 22  2  0
 22 23  1  0
 23 24  2  0
 24 25  1  0
 25 26  1  0
 25 27  2  0
 25 28  2  0
 18  4  2  0
 24 19  1  0
 16 11  1  0
  1 29  1  0
  5 30  1  0
 10 31  1  0
 10 32  1  0
 12 33  1  0
 13 34  1  0
 14 35  1  0
 15 36  1  0
 16 37  1  0
 17 38  1  0
 20 39  1  0
 21 40  1  0
 22 41  1  0
 23 42  1  0
 26 43  1  0
M  CHG  3   1  -1   9  -1  26  -1
M  END
>  <UniqueID>  (45) 
43

>  <SMILES>  (45) 
[NH-]C(=O)c1cc(C(=O)[N-]Cc2ccccc2)[nH]c1-c1ccccc1S([NH-])(=O)=O

>  <Energy>  (45) 
74.89354804513725

>  <Genealogy>  (45) 
[NH-]C(=O)c1cc(C(=O)[N-]Cc2ccccc2)[nH]c1-c1ccccc1S([NH-])(=O)=O (protonated)
[NH-]C(=O)c1cc(C(=O)[N-]Cc2ccccc2)[nH]c1-c1ccccc1S([NH-])(=O)=O (3D coordinates assigned)
[NH-]C(=O)c1cc(C(=O)[N-]Cc2ccccc2)[nH]c1-c1ccccc1S([NH-])(=O)=O (optimized conformer: 74.89354804513725 kcal/mol)

>  <smiles>  (45) 
NC(=O)c1cc(C(=O)NCc2ccccc2)[nH]c1-c1ccccc1S(N)(=O)=O

>  <score_type>  (45) 
oracle

>  <origin>  (45) 
adg

>  <m_score__min__energy>  (45) 
-13.24

>  <m_primary>  (45) 
energy

$$$$
45:0
     RDKit          3D

 47 49  0  0  0  0  0  0  0  0999 V2000
   57.0830   31.5950   42.5390 C   0  0  0  0  0  0  0  0  0  0  0  0
   57.7670   32.1210   43.7720 C   0  0  0  0  0  0  0  0  0  0  0  0
   57.5900   33.4640   44.1420 C   0  0  0  0  0  0  0  0  0  0  0  0
   58.2120   33.9740   45.2820 C   0  0  0  0  0  0  0  0  0  0  0  0
   59.0120   33.1470   46.0790 C   0  0  0  0  0  0  0  0  0  0  0  0
   59.7970   33.7910   47.5250 S   0  0  0  0  0  0  0  0  0  0  0  0
   58.8830   33.6080   48.7060 O   0  0  0  0  0  0  0  0  0  0  0  0
   60.0340   35.2650   47.3460 O   0  0  0  0  0  0  0  0  0  0  0  0
   61.3230   32.9980   47.8370 N   0  0  0  0  0  0  0  0  0  0  0  0
   62.3390   33.4250   46.8550 C   0  0  0  0  0  0  0  0  0  0  0  0
   63.7550   33.1670   47.3940 C   0  0  0  0  0  0  0  0  0  0  0  0
   64.0510   33.8580   48.6020 O   0  0  0  0  0  0  0  0  0  0  0  0
   62.9000   34.2080   49.3590 C   0  0  0  0  0  0  0  0  0  0  0  0
   61.7580   33.1830   49.2390 C   0  0  0  0  0  0  0  0  0  0  0  0
   59.1800   31.8040   45.7260 C   0  0  0  0  0  0  0  0  0  0  0  0
   58.5750   31.2810   44.5700 C   0  0  0  0  0  0  0  0  0  0  0  0
   58.7330   29.8900   44.2410 N   0  0  0  0  0  0  0  0  0  0  0  0
   59.2320   28.9100   45.1650 C   0  0  0  0  0  0  0  0  0  0  0  0
   59.8030   29.2660   46.2310 O   0  0  0  0  0  0  0  0  0  0  0  0
   59.0580   27.4470   44.8740 C   0  0  0  0  0  0  0  0  0  0  0  0
   57.5770   27.0760   44.7220 C   0  0  0  0  0  0  0  0  0  0  0  0
   57.1620   26.0140   45.7030 C   0  0  0  0  0  0  0  0  0  0  0  0
   58.1420   24.7470   46.2340 S   0  0  0  0  0  0  0  0  0  0  0  0
   56.9010   24.0580   47.1360 C   0  0  0  0  0  0  0  0  0  0  0  0
   57.0170   23.0030   47.8110 O   0  0  0  0  0  0  0  0  0  0  0  0
   55.7470   24.7550   47.0520 N   0  0  0  0  0  0  0  0  0  0  0  0
   55.8920   25.8440   46.2510 C   0  0  0  0  0  0  0  0  0  0  0  0
   54.8370   26.7150   46.0060 O   0  0  0  0  0  0  0  0  0  0  0  0
   56.2428   30.9489   42.8332 H   0  0  0  0  0  0  0  0  0  0  0  0
   56.7056   32.4378   41.9413 H   0  0  0  0  0  0  0  0  0  0  0  0
   57.8006   31.0139   41.9413 H   0  0  0  0  0  0  0  0  0  0  0  0
   56.9554   34.1197   43.5277 H   0  0  0  0  0  0  0  0  0  0  0  0
   58.0731   35.0303   45.5556 H   0  0  0  0  0  0  0  0  0  0  0  0
   62.1992   32.8602   45.9215 H   0  0  0  0  0  0  0  0  0  0  0  0
   62.2214   34.5028   46.6692 H   0  0  0  0  0  0  0  0  0  0  0  0
   63.8635   32.0879   47.5777 H   0  0  0  0  0  0  0  0  0  0  0  0
   64.4570   33.5410   46.6341 H   0  0  0  0  0  0  0  0  0  0  0  0
   63.1888   34.2867   50.4175 H   0  0  0  0  0  0  0  0  0  0  0  0
   62.5250   35.1620   48.9599 H   0  0  0  0  0  0  0  0  0  0  0  0
   62.1055   32.2167   49.6333 H   0  0  0  0  0  0  0  0  0  0  0  0
   60.8999   33.5623   49.8133 H   0  0  0  0  0  0  0  0  0  0  0  0
   59.7936   31.1485   46.3614 H   0  0  0  0  0  0  0  0  0  0  0  0
   58.4920   29.5740   43.2750 H   0  0  0  0  0  0  0  0  0  0  0  0
   59.5852   27.2032   43.9399 H   0  0  0  0  0  0  0  0  0  0  0  0
   59.4720   26.8757   45.7179 H   0  0  0  0  0  0  0  0  0  0  0  0
   56.9659   27.9749   44.8911 H   0  0  0  0  0  0  0  0  0  0  0  0
   57.4269   26.6801   43.7068 H   0  0  0  0  0  0  0  0  0  0  0  0
  1  2  1  0
  2  3  2  0
  3  4  1  0
  4  5  2  0
  5  6  1  0
  6  7  2  0
  6  8  2  0
  6  9  1  0
  9 10  1  0
 10 11  1  0
 11 12  1  0
 12 13  1  0
 13 14  1  0
  5 15  1  0
 15 16  2  0
 16 17  1  0
 17 18  1  0
 18 19  2  0
 18 20  1  0
 20 21  1  0
 21 22  1  0
 22 23  1  0
 23 24  1  0
 24 25  2  0
 24 26  1  0
 26 27  1  0
 27 28  1  0
 16  2  1  0
 27 22  2  0
 14  9  1  0
  1 29  1  0
  1 30  1  0
  1 31  1  0
  3 32  1  0
  4 33  1  0
 10 34  1  0
 10 35  1  0
 11 36  1  0
 11 37  1  0
 13 38  1  0
 13 39  1  0
 14 40  1  0
 14 41  1  0
 15 42  1  0
 17 43  1  0
 20 44  1  0
 20 45  1  0
 21 46  1  0
 21 47  1  0
M  CHG  2  26  -1  28  -1
M  END
>  <UniqueID>  (46) 
44

>  <SMILES>  (46) 
Cc1ccc(S(=O)(=O)N2CCOCC2)cc1NC(=O)CCc1sc(=O)[n-]c1[O-]

>  <Energy>  (46) 
88.47739594146725

>  <Genealogy>  (46) 
Cc1ccc(S(=O)(=O)N2CCOCC2)cc1NC(=O)CCc1sc(=O)[n-]c1[O-] (protonated)
Cc1ccc(S(=O)(=O)N2CCOCC2)cc1NC(=O)CCc1sc(=O)[n-]c1[O-] (3D coordinates assigned)
Cc1ccc(S(=O)(=O)N2CCOCC2)cc1NC(=O)CCc1sc(=O)[n-]c1[O-] (nonaromatic ring conformer: 88.47739594146725 kcal/mol)

>  <smiles>  (46) 
Cc1ccc(S(=O)(=O)N2CCOCC2)cc1NC(=O)CCc1sc(=O)[nH]c1O

>  <score_type>  (46) 
oracle

>  <origin>  (46) 
adg

>  <m_score__min__energy>  (46) 
-15.41

>  <m_primary>  (46) 
energy

$$$$
46:0
     RDKit          3D

 47 49  0  0  0  0  0  0  0  0999 V2000
   59.8720   34.9400   47.8720 C   0  0  0  0  0  0  0  0  0  0  0  0
   59.6520   33.4360   47.6730 C   0  0  1  0  0  0  0  0  0  0  0  0
   58.4110   33.2060   46.9030 N   0  0  0  0  0  0  0  0  0  0  0  0
   58.0750   31.7780   46.8400 C   0  0  0  0  0  0  0  0  0  0  0  0
   57.6240   31.4260   45.4580 C   0  0  0  0  0  0  0  0  0  0  0  0
   56.7200   30.4710   45.1790 N   0  0  0  0  0  0  0  0  0  0  0  0
   56.5800   30.5590   43.8370 C   0  0  0  0  0  0  0  0  0  0  0  0
   55.8090   29.8080   43.1860 O   0  0  0  0  0  0  0  0  0  0  0  0
   57.3280   31.5200   43.2500 N   0  0  0  0  0  0  0  0  0  0  0  0
   57.9780   32.0630   44.2930 C   0  0  0  0  0  0  0  0  0  0  0  0
   58.8730   33.1230   44.1870 O   0  0  0  0  0  0  0  0  0  0  0  0
   60.8430   32.8520   46.9430 C   0  0  0  0  0  0  0  0  0  0  0  0
   61.4140   33.5330   46.0500 O   0  0  0  0  0  0  0  0  0  0  0  0
   61.3950   31.5750   47.2940 N   0  0  0  0  0  0  0  0  0  0  0  0
   60.8120   30.2940   47.0150 C   0  0  0  0  0  0  0  0  0  0  0  0
   60.7290   29.8070   45.7010 C   0  0  0  0  0  0  0  0  0  0  0  0
   60.1780   28.5490   45.4440 C   0  0  0  0  0  0  0  0  0  0  0  0
   59.7160   27.7450   46.5000 C   0  0  0  0  0  0  0  0  0  0  0  0
   59.1240   26.4090   46.2260 C   0  0  0  0  0  0  0  0  0  0  0  0
   59.9520   25.2900   46.0220 C   0  0  0  0  0  0  0  0  0  0  0  0
   59.3950   24.0360   45.7600 C   0  0  0  0  0  0  0  0  0  0  0  0
   58.0080   23.8820   45.7010 C   0  0  0  0  0  0  0  0  0  0  0  0
   57.1690   24.9840   45.9110 C   0  0  0  0  0  0  0  0  0  0  0  0
   55.4220   24.7920   45.8160 S   0  0  0  0  0  0  0  0  0  0  0  0
   54.6620   26.3340   45.9930 N   0  0  0  0  0  0  0  0  0  0  0  0
   54.9470   23.8710   46.9050 O   0  0  0  0  0  0  0  0  0  0  0  0
   55.0450   24.1990   44.4870 O   0  0  0  0  0  0  0  0  0  0  0  0
   57.7270   26.2440   46.1670 C   0  0  0  0  0  0  0  0  0  0  0  0
   59.8290   28.2220   47.8180 C   0  0  0  0  0  0  0  0  0  0  0  0
   60.3820   29.4830   48.0760 C   0  0  0  0  0  0  0  0  0  0  0  0
   60.4970   30.0410   49.7390 Cl  0  0  0  0  0  0  0  0  0  0  0  0
   59.9051   35.1665   48.9479 H   0  0  0  0  0  0  0  0  0  0  0  0
   60.8231   35.2363   47.4054 H   0  0  0  0  0  0  0  0  0  0  0  0
   59.0457   35.4963   47.4054 H   0  0  0  0  0  0  0  0  0  0  0  0
   59.5503   32.9433   48.6512 H   0  0  0  0  0  0  0  0  0  0  0  0
   58.5470   33.5330   45.9170 H   0  0  0  0  0  0  0  0  0  0  0  0
   58.9628   31.1819   47.0977 H   0  0  0  0  0  0  0  0  0  0  0  0
   57.2654   31.5628   47.5529 H   0  0  0  0  0  0  0  0  0  0  0  0
   59.5110   33.3370   44.9420 H   0  0  0  0  0  0  0  0  0  0  0  0
   61.1007   30.4206   44.8671 H   0  0  0  0  0  0  0  0  0  0  0  0
   60.1054   28.1855   44.4083 H   0  0  0  0  0  0  0  0  0  0  0  0
   61.0451   25.4033   46.0691 H   0  0  0  0  0  0  0  0  0  0  0  0
   60.0506   23.1674   45.5997 H   0  0  0  0  0  0  0  0  0  0  0  0
   57.5738   22.8938   45.4893 H   0  0  0  0  0  0  0  0  0  0  0  0
   55.1500   26.9900   45.3430 H   0  0  0  0  0  0  0  0  0  0  0  0
   57.0682   27.1109   46.3231 H   0  0  0  0  0  0  0  0  0  0  0  0
   59.4798   27.5989   48.6545 H   0  0  0  0  0  0  0  0  0  0  0  0
  1  2  1  0
  2  3  1  0
  3  4  1  0
  4  5  1  0
  5  6  1  0
  6  7  1  0
  7  8  2  0
  7  9  1  0
  9 10  1  0
 10 11  1  0
  2 12  1  0
 12 13  2  0
 12 14  1  0
 14 15  1  0
 15 16  2  0
 16 17  1  0
 17 18  2  0
 18 19  1  0
 19 20  2  0
 20 21  1  0
 21 22  2  0
 22 23  1  0
 23 24  1  0
 24 25  1  0
 24 26  2  0
 24 27  2  0
 23 28  2  0
 18 29  1  0
 29 30  2  0
 30 31  1  0
 10  5  2  0
 30 15  1  0
 28 19  1  0
  1 32  1  0
  1 33  1  0
  1 34  1  0
  2 35  1  1
  3 36  1  0
  4 37  1  0
  4 38  1  0
 11 39  1  0
 16 40  1  0
 17 41  1  0
 20 42  1  0
 21 43  1  0
 22 44  1  0
 25 45  1  0
 28 46  1  0
 29 47  1  0
M  CHG  4   6  -1   9  -1  14  -1  25  -1
M  END
>  <UniqueID>  (47) 
45

>  <SMILES>  (47) 
C[C@@H](NCc1[n-]c(=O)[n-]c1O)C(=O)[N-]c1ccc(-c2cccc(S([NH-])(=O)=O)c2)cc1Cl

>  <Energy>  (47) 
85.17582069571634

>  <Genealogy>  (47) 
CC(NCc1[n-]c(=O)[n-]c1O)C(=O)[N-]c1ccc(-c2cccc(S([NH-])(=O)=O)c2)cc1Cl (protonated)
C[C@@H](NCc1[n-]c(=O)[n-]c1O)C(=O)[N-]c1ccc(-c2cccc(S([NH-])(=O)=O)c2)cc1Cl (chirality)
C[C@@H](NCc1[n-]c(=O)[n-]c1O)C(=O)[N-]c1ccc(-c2cccc(S([NH-])(=O)=O)c2)cc1Cl (3D coordinates assigned)
C[C@@H](NCc1[n-]c(=O)[n-]c1O)C(=O)[N-]c1ccc(-c2cccc(S([NH-])(=O)=O)c2)cc1Cl (optimized conformer: 85.17582069571634 kcal/mol)

>  <smiles>  (47) 
CC(NCc1[nH]c(=O)[nH]c1O)C(=O)Nc1ccc(-c2cccc(S(N)(=O)=O)c2)cc1Cl

>  <score_type>  (47) 
oracle

>  <origin>  (47) 
adg

>  <m_score__min__energy>  (47) 
-15.300000000000001

>  <m_primary>  (47) 
energy

$$$$
47:0
     RDKit          3D

 45 47  0  0  0  0  0  0  0  0999 V2000
   59.5210   33.4670   51.0050 C   0  0  0  0  0  0  0  0  0  0  0  0
   60.2850   33.3820   49.8260 O   0  0  0  0  0  0  0  0  0  0  0  0
   59.7190   33.6840   48.6120 C   0  0  0  0  0  0  0  0  0  0  0  0
   60.1940   34.6010   47.7100 C   0  0  0  0  0  0  0  0  0  0  0  0
   59.5930   34.8750   46.4990 C   0  0  0  0  0  0  0  0  0  0  0  0
   58.4490   34.1970   46.1570 C   0  0  0  0  0  0  0  0  0  0  0  0
   57.7020   34.3760   44.8900 C   0  0  0  0  0  0  0  0  0  0  0  0
   58.1340   33.0370   43.7780 S   0  0  0  0  0  0  0  0  0  0  0  0
   57.7700   31.4190   44.4270 C   0  0  0  0  0  0  0  0  0  0  0  0
   56.5570   30.8500   44.3610 N   0  0  0  0  0  0  0  0  0  0  0  0
   56.3990   29.6180   44.8740 C   0  0  0  0  0  0  0  0  0  0  0  0
   55.2760   29.0190   44.8460 O   0  0  0  0  0  0  0  0  0  0  0  0
   57.4400   28.9110   45.4680 C   0  0  0  0  0  0  0  0  0  0  0  0
   57.2010   27.5520   46.0270 C   0  0  0  0  0  0  0  0  0  0  0  0
   58.6580   29.5120   45.5200 C   0  0  0  0  0  0  0  0  0  0  0  0
   59.8590   28.8700   46.0970 C   0  0  0  0  0  0  0  0  0  0  0  0
   60.5400   29.7000   47.1210 C   0  0  0  0  0  0  0  0  0  0  0  0
   60.4280   29.7230   48.4870 C   0  0  0  0  0  0  0  0  0  0  0  0
   61.2850   30.6760   48.9350 N   0  0  0  0  0  0  0  0  0  0  0  0
   61.9060   31.2270   47.8940 N   0  0  0  0  0  0  0  0  0  0  0  0
   62.9140   32.2960   47.9250 C   0  0  0  0  0  0  0  0  0  0  0  0
   61.4880   30.6650   46.7480 C   0  0  0  0  0  0  0  0  0  0  0  0
   58.7910   30.7450   45.0010 N   0  0  0  0  0  0  0  0  0  0  0  0
   57.9410   33.2590   47.0500 C   0  0  0  0  0  0  0  0  0  0  0  0
   58.5610   33.0000   48.2600 C   0  0  0  0  0  0  0  0  0  0  0  0
   60.1854   33.3931   51.8786 H   0  0  0  0  0  0  0  0  0  0  0  0
   58.9896   34.4298   51.0289 H   0  0  0  0  0  0  0  0  0  0  0  0
   58.7909   32.6445   51.0289 H   0  0  0  0  0  0  0  0  0  0  0  0
   61.1105   35.1519   47.9679 H   0  0  0  0  0  0  0  0  0  0  0  0
   60.0232   35.6244   45.8184 H   0  0  0  0  0  0  0  0  0  0  0  0
   56.6207   34.3565   45.0912 H   0  0  0  0  0  0  0  0  0  0  0  0
   57.9618   35.3425   44.4336 H   0  0  0  0  0  0  0  0  0  0  0  0
   57.2096   27.6008   47.1259 H   0  0  0  0  0  0  0  0  0  0  0  0
   56.2238   27.1811   45.6841 H   0  0  0  0  0  0  0  0  0  0  0  0
   57.9930   26.8700   45.6841 H   0  0  0  0  0  0  0  0  0  0  0  0
   59.5563   27.9208   46.5633 H   0  0  0  0  0  0  0  0  0  0  0  0
   60.5733   28.7215   45.2738 H   0  0  0  0  0  0  0  0  0  0  0  0
   59.7704   29.0910   49.1019 H   0  0  0  0  0  0  0  0  0  0  0  0
   63.1505   32.5468   48.9696 H   0  0  0  0  0  0  0  0  0  0  0  0
   63.8265   31.9545   47.4143 H   0  0  0  0  0  0  0  0  0  0  0  0
   62.5195   33.1868   47.4143 H   0  0  0  0  0  0  0  0  0  0  0  0
   61.8200   30.9103   45.7284 H   0  0  0  0  0  0  0  0  0  0  0  0
   59.7520   31.2010   45.0500 H   0  0  0  0  0  0  0  0  0  0  0  0
   57.0245   32.7100   46.7881 H   0  0  0  0  0  0  0  0  0  0  0  0
   58.1365   32.2511   48.9448 H   0  0  0  0  0  0  0  0  0  0  0  0
  1  2  1  0
  2  3  1  0
  3  4  2  0
  4  5  1  0
  5  6  2  0
  6  7  1  0
  7  8  1  0
  8  9  1  0
  9 10  2  0
 10 11  1  0
 11 12  2  0
 11 13  1  0
 13 14  1  0
 13 15  2  0
 15 16  1  0
 16 17  1  0
 17 18  1  0
 18 19  2  0
 19 20  1  0
 20 21  1  0
 20 22  1  0
 15 23  1  0
  6 24  1  0
 24 25  2  0
 25  3  1  0
 23  9  1  0
 22 17  2  0
  1 26  1  0
  1 27  1  0
  1 28  1  0
  4 29  1  0
  5 30  1  0
  7 31  1  0
  7 32  1  0
 14 33  1  0
 14 34  1  0
 14 35  1  0
 16 36  1  0
 16 37  1  0
 18 38  1  0
 21 39  1  0
 21 40  1  0
 21 41  1  0
 22 42  1  0
 23 43  1  0
 24 44  1  0
 25 45  1  0
M  END
>  <smiles>  (48) 
COc1ccc(CSc2nc(=O)c(C)c(Cc3cnn(C)c3)[nH]2)cc1

>  <score_type>  (48) 
oracle

>  <origin>  (48) 
adg

>  <m_score__min__energy>  (48) 
-7.8200000000000003

>  <m_primary>  (48) 
energy

$$$$
48:0
     RDKit          3D

 57 60  0  0  0  0  0  0  0  0999 V2000
   55.9210   28.4820   45.2550 O   0  0  0  0  0  0  0  0  0  0  0  0
   57.0190   28.2120   44.6940 C   0  0  0  0  0  0  0  0  0  0  0  0
   57.8050   27.0210   45.1790 C   0  0  0  0  0  0  0  0  0  0  0  0
   57.3140   26.5960   46.4930 N   0  0  0  0  0  0  0  0  0  0  0  0
   56.0900   25.3640   46.3450 S   0  0  0  0  0  0  0  0  0  0  0  0
   54.7910   26.0090   45.9490 O   0  0  0  0  0  0  0  0  0  0  0  0
   55.9030   24.6960   47.6800 O   0  0  0  0  0  0  0  0  0  0  0  0
   56.5370   24.1390   45.1550 C   0  0  0  0  0  0  0  0  0  0  0  0
   57.6530   23.3140   45.3680 C   0  0  0  0  0  0  0  0  0  0  0  0
   57.9730   22.3140   44.4450 C   0  0  0  0  0  0  0  0  0  0  0  0
   57.1800   22.1320   43.3080 C   0  0  0  0  0  0  0  0  0  0  0  0
   56.0700   22.9520   43.0910 C   0  0  0  0  0  0  0  0  0  0  0  0
   55.7490   23.9550   44.0110 C   0  0  0  0  0  0  0  0  0  0  0  0
   57.4930   29.0920   43.6600 N   0  0  0  0  0  0  0  0  0  0  0  0
   57.5750   30.3870   43.7070 C   0  0  0  0  0  0  0  0  0  0  0  0
   57.4340   31.2080   42.6410 N   0  0  0  0  0  0  0  0  0  0  0  0
   57.5320   32.4960   42.9600 N   0  0  0  0  0  0  0  0  0  0  0  0
   57.7410   32.6970   44.2800 C   0  0  0  0  0  0  0  0  0  0  0  0
   57.9010   34.3130   45.0310 S   0  0  0  0  0  0  0  0  0  0  0  0
   59.5020   33.9350   45.8180 C   0  0  0  0  0  0  0  0  0  0  0  0
   59.3490   33.8690   47.3030 C   0  0  0  0  0  0  0  0  0  0  0  0
   58.4170   33.1850   47.8060 O   0  0  0  0  0  0  0  0  0  0  0  0
   60.2690   34.5920   48.1330 N   0  0  0  0  0  0  0  0  0  0  0  0
   61.4880   34.1230   48.7310 C   0  0  0  0  0  0  0  0  0  0  0  0
   62.5450   33.7630   47.8840 C   0  0  0  0  0  0  0  0  0  0  0  0
   63.7420   33.2670   48.4080 C   0  0  0  0  0  0  0  0  0  0  0  0
   63.9030   33.1230   49.7950 C   0  0  0  0  0  0  0  0  0  0  0  0
   65.1260   32.5990   50.3420 N   0  0  0  0  0  0  0  0  0  0  0  0
   66.2630   33.4900   50.5890 C   0  0  0  0  0  0  0  0  0  0  0  0
   67.5670   32.6920   50.5050 C   0  0  0  0  0  0  0  0  0  0  0  0
   67.5160   31.5570   51.3520 O   0  0  0  0  0  0  0  0  0  0  0  0
   66.5250   30.6580   50.8890 C   0  0  0  0  0  0  0  0  0  0  0  0
   65.1300   31.2840   50.9920 C   0  0  0  0  0  0  0  0  0  0  0  0
   62.8400   33.4670   50.6460 C   0  0  0  0  0  0  0  0  0  0  0  0
   61.6380   33.9530   50.1210 C   0  0  0  0  0  0  0  0  0  0  0  0
   57.8110   31.2450   45.1320 S   0  0  0  0  0  0  0  0  0  0  0  0
   57.6914   26.1938   44.4629 H   0  0  0  0  0  0  0  0  0  0  0  0
   58.8659   27.2993   45.2633 H   0  0  0  0  0  0  0  0  0  0  0  0
   58.2768   23.4548   46.2630 H   0  0  0  0  0  0  0  0  0  0  0  0
   58.8489   21.6702   44.6133 H   0  0  0  0  0  0  0  0  0  0  0  0
   57.4303   21.3427   42.5839 H   0  0  0  0  0  0  0  0  0  0  0  0
   55.4477   22.8085   42.1953 H   0  0  0  0  0  0  0  0  0  0  0  0
   54.8760   24.6010   43.8363 H   0  0  0  0  0  0  0  0  0  0  0  0
   59.8682   32.9660   45.4478 H   0  0  0  0  0  0  0  0  0  0  0  0
   60.2195   34.7304   45.5679 H   0  0  0  0  0  0  0  0  0  0  0  0
   62.4313   33.8720   46.7953 H   0  0  0  0  0  0  0  0  0  0  0  0
   64.5621   32.9880   47.7301 H   0  0  0  0  0  0  0  0  0  0  0  0
   66.2732   34.2890   49.8331 H   0  0  0  0  0  0  0  0  0  0  0  0
   66.1693   33.9333   51.5913 H   0  0  0  0  0  0  0  0  0  0  0  0
   67.7216   32.3613   49.4673 H   0  0  0  0  0  0  0  0  0  0  0  0
   68.3974   33.3370   50.8282 H   0  0  0  0  0  0  0  0  0  0  0  0
   66.7301   30.4055   49.8382 H   0  0  0  0  0  0  0  0  0  0  0  0
   66.5516   29.7526   51.5131 H   0  0  0  0  0  0  0  0  0  0  0  0
   64.3984   30.6292   50.4959 H   0  0  0  0  0  0  0  0  0  0  0  0
   64.8625   31.4023   52.0524 H   0  0  0  0  0  0  0  0  0  0  0  0
   62.9536   33.3533   51.7342 H   0  0  0  0  0  0  0  0  0  0  0  0
   60.8067   34.2034   50.7964 H   0  0  0  0  0  0  0  0  0  0  0  0
  1  2  2  0
  2  3  1  0
  3  4  1  0
  4  5  1  0
  5  6  2  0
  5  7  2  0
  5  8  1  0
  8  9  2  0
  9 10  1  0
 10 11  2  0
 11 12  1  0
 12 13  2  0
  2 14  1  0
 14 15  2  3
 15 16  1  0
 16 17  1  0
 17 18  2  0
 18 19  1  0
 19 20  1  0
 20 21  1  0
 21 22  2  0
 21 23  1  0
 23 24  1  0
 24 25  2  0
 25 26  1  0
 26 27  2  0
 27 28  1  0
 28 29  1  0
 29 30  1  0
 30 31  1  0
 31 32  1  0
 32 33  1  0
 27 34  1  0
 34 35  2  0
 18 36  1  0
 13  8  1  0
 36 15  1  0
 35 24  1  0
 33 28  1  0
  3 37  1  0
  3 38  1  0
  9 39  1  0
 10 40  1  0
 11 41  1  0
 12 42  1  0
 13 43  1  0
 20 44  1  0
 20 45  1  0
 25 46  1  0
 26 47  1  0
 29 48  1  0
 29 49  1  0
 30 50  1  0
 30 51  1  0
 32 52  1  0
 32 53  1  0
 33 54  1  0
 33 55  1  0
 34 56  1  0
 35 57  1  0
M  CHG  3   4  -1  16  -1  23  -1
M  END
>  <UniqueID>  (49) 
46

>  <SMILES>  (49) 
O=C(C[N-]S(=O)(=O)c1ccccc1)N=c1[n-]nc(SCC(=O)[N-]c2ccc(N3CCOCC3)cc2)s1

>  <Energy>  (49) 
101.46236530570297

>  <Genealogy>  (49) 
O=C(C[N-]S(=O)(=O)c1ccccc1)N=c1[n-]nc(SCC(=O)[N-]c2ccc(N3CCOCC3)cc2)s1 (protonated)
O=C(C[N-]S(=O)(=O)c1ccccc1)N=c1[n-]nc(SCC(=O)[N-]c2ccc(N3CCOCC3)cc2)s1 (3D coordinates assigned)
O=C(C[N-]S(=O)(=O)c1ccccc1)N=c1[n-]nc(SCC(=O)[N-]c2ccc(N3CCOCC3)cc2)s1 (nonaromatic ring conformer: 101.46236530570297 kcal/mol)

>  <smiles>  (49) 
O=C(CNS(=O)(=O)c1ccccc1)N=c1[nH]nc(SCC(=O)Nc2ccc(N3CCOCC3)cc2)s1

>  <score_type>  (49) 
oracle

>  <origin>  (49) 
adg

>  <m_score__min__energy>  (49) 
-14.77

>  <m_primary>  (49) 
energy

$$$$
49:0
     RDKit          3D

 50 53  0  0  0  0  0  0  0  0999 V2000
   60.2428   32.7341   50.8062 H   0  0  0  0  0  0  0  0  0  0  0  0
   59.2790   33.0050   51.2620 C   0  0  0  0  0  0  0  0  0  0  0  0
   59.0141   34.0637   51.4001 H   0  0  0  0  0  0  0  0  0  0  0  0
   58.4300   32.0480   51.6480 C   0  0  0  0  0  0  0  0  0  0  0  0
   56.9390   32.3750   52.3520 S   0  0  0  0  0  0  0  0  0  0  0  0
   56.5170   30.7510   52.5210 C   0  0  0  0  0  0  0  0  0  0  0  0
   55.3580   30.2670   52.9960 C   0  0  0  0  0  0  0  0  0  0  0  0
   55.3993   29.4071   53.6807 H   0  0  0  0  0  0  0  0  0  0  0  0
   54.0310   30.8190   52.6550 C   0  0  0  0  0  0  0  0  0  0  0  0
   52.9960   30.8840   53.6040 C   0  0  0  0  0  0  0  0  0  0  0  0
   53.1721   30.5325   54.6313 H   0  0  0  0  0  0  0  0  0  0  0  0
   51.7450   31.3930   53.2480 C   0  0  0  0  0  0  0  0  0  0  0  0
   50.9423   31.4510   53.9979 H   0  0  0  0  0  0  0  0  0  0  0  0
   51.5110   31.8290   51.9400 C   0  0  0  0  0  0  0  0  0  0  0  0
   50.2690   32.3420   51.5900 O   0  0  0  0  0  0  0  0  0  0  0  0
   52.5270   31.7450   50.9840 C   0  0  0  0  0  0  0  0  0  0  0  0
   52.3414   32.0828   49.9537 H   0  0  0  0  0  0  0  0  0  0  0  0
   53.7790   31.2320   51.3360 C   0  0  0  0  0  0  0  0  0  0  0  0
   54.5706   31.1513   50.5765 H   0  0  0  0  0  0  0  0  0  0  0  0
   57.5700   29.9880   52.0080 C   0  0  0  0  0  0  0  0  0  0  0  0
   57.5430   28.7250   51.9880 O   0  0  0  0  0  0  0  0  0  0  0  0
   58.6340   30.7040   51.5270 N   0  0  0  0  0  0  0  0  0  0  0  0
   59.8110   30.0770   50.9020 C   0  0  0  0  0  0  0  0  0  0  0  0
   60.6469   30.7921   50.9066 H   0  0  0  0  0  0  0  0  0  0  0  0
   60.0785   29.1759   51.4733 H   0  0  0  0  0  0  0  0  0  0  0  0
   59.5070   29.6790   49.4800 C   0  0  0  0  0  0  0  0  0  0  0  0
   59.7190   28.3600   49.0440 C   0  0  0  0  0  0  0  0  0  0  0  0
   60.0920   27.6031   49.7497 H   0  0  0  0  0  0  0  0  0  0  0  0
   59.4580   28.0060   47.7180 C   0  0  0  0  0  0  0  0  0  0  0  0
   59.6398   26.9753   47.3796 H   0  0  0  0  0  0  0  0  0  0  0  0
   58.9670   28.9570   46.8210 C   0  0  0  0  0  0  0  0  0  0  0  0
   58.7745   28.6753   45.7753 H   0  0  0  0  0  0  0  0  0  0  0  0
   58.7180   30.2710   47.2480 C   0  0  0  0  0  0  0  0  0  0  0  0
   58.2000   31.2870   46.3090 C   0  0  0  0  0  0  0  0  0  0  0  0
   57.3110   30.9510   45.4790 O   0  0  0  0  0  0  0  0  0  0  0  0
   58.7020   32.6370   46.2990 N   0  0  0  0  0  0  0  0  0  0  0  0
   59.9870   33.0330   46.8580 C   0  0  0  0  0  0  0  0  0  0  0  0
   59.9238   33.1015   47.9540 H   0  0  0  0  0  0  0  0  0  0  0  0
   60.7742   32.3007   46.6255 H   0  0  0  0  0  0  0  0  0  0  0  0
   60.2940   34.3990   46.2570 C   0  0  0  0  0  0  0  0  0  0  0  0
   60.6895   35.0768   47.0278 H   0  0  0  0  0  0  0  0  0  0  0  0
   61.0541   34.3319   45.4647 H   0  0  0  0  0  0  0  0  0  0  0  0
   58.9650   34.9230   45.7190 C   0  0  0  0  0  0  0  0  0  0  0  0
   58.4995   35.6051   46.4457 H   0  0  0  0  0  0  0  0  0  0  0  0
   59.1002   35.4887   44.7853 H   0  0  0  0  0  0  0  0  0  0  0  0
   58.0900   33.6930   45.5090 C   0  0  0  0  0  0  0  0  0  0  0  0
   57.0647   33.8874   45.8569 H   0  0  0  0  0  0  0  0  0  0  0  0
   58.0228   33.4185   44.4459 H   0  0  0  0  0  0  0  0  0  0  0  0
   59.0080   30.6290   48.5750 C   0  0  0  0  0  0  0  0  0  0  0  0
   58.8424   31.6641   48.9083 H   0  0  0  0  0  0  0  0  0  0  0  0
  1  2  1  0
  2  3  1  0
  2  4  2  0
  4  5  1  0
  5  6  1  0
  6  7  2  0
  7  8  1  0
  7  9  1  0
  9 10  2  0
 10 11  1  0
 10 12  1  0
 12 13  1  0
 12 14  2  0
 14 15  1  0
 14 16  1  0
 16 17  1  0
 16 18  2  0
 18 19  1  0
  6 20  1  0
 20 21  2  0
 20 22  1  0
 22 23  1  0
 23 24  1  0
 23 25  1  0
 23 26  1  0
 26 27  2  0
 27 28  1  0
 27 29  1  0
 29 30  1  0
 29 31  2  0
 31 32  1  0
 31 33  1  0
 33 34  1  0
 34 35  2  0
 34 36  1  0
 36 37  1  0
 37 38  1  0
 37 39  1  0
 37 40  1  0
 40 41  1  0
 40 42  1  0
 40 43  1  0
 43 44  1  0
 43 45  1  0
 43 46  1  0
 46 47  1  0
 46 48  1  0
 33 49  2  0
 49 50  1  0
 22  4  1  0
 49 26  1  0
 18  9  1  0
 46 36  1  0
M  CHG  1  15  -1
M  END
>  <UniqueID>  (50) 
47

>  <SMILES>  (50) 
C=c1s/c(=C\c2ccc([O-])cc2)c(=O)n1Cc1cccc(C(=O)N2CCCC2)c1

>  <Energy>  (50) 
95.35233055446965

>  <Genealogy>  (50) 
C=c1sc(=Cc2ccc([O-])cc2)c(=O)n1Cc1cccc(C(=O)N2CCCC2)c1 (protonated)
C=c1s/c(=C\c2ccc([O-])cc2)c(=O)n1Cc1cccc(C(=O)N2CCCC2)c1 (cis-trans isomerization)
C=c1s/c(=C\c2ccc([O-])cc2)c(=O)n1Cc1cccc(C(=O)N2CCCC2)c1 (3D coordinates assigned)
C=c1s/c(=C\c2ccc([O-])cc2)c(=O)n1Cc1cccc(C(=O)N2CCCC2)c1 (nonaromatic ring conformer: 95.35233055446965 kcal/mol)

>  <smiles>  (50) 
C=c1sc(=Cc2ccc(O)cc2)c(=O)n1Cc1cccc(C(=O)N2CCCC2)c1

>  <score_type>  (50) 
oracle

>  <origin>  (50) 
adg

>  <m_score__min__energy>  (50) 
-13.119999999999999

>  <m_primary>  (50) 
energy

$$$$
50:0
     RDKit          3D

 64 67  0  0  0  0  0  0  0  0999 V2000
   55.1372   28.4295   52.2855 H   0  0  0  0  0  0  0  0  0  0  0  0
   54.9550   29.5000   52.4610 C   0  0  0  0  0  0  0  0  0  0  0  0
   56.0220   30.4480   52.0660 C   0  0  0  0  0  0  0  0  0  0  0  0
   55.8490   31.6890   52.1950 O   0  0  0  0  0  0  0  0  0  0  0  0
   57.3100   29.9760   51.6490 N   0  0  0  0  0  0  0  0  0  0  0  0
   58.1430   30.5570   50.6370 C   0  0  0  0  0  0  0  0  0  0  0  0
   58.4650   31.9250   50.6410 C   0  0  0  0  0  0  0  0  0  0  0  0
   58.0525   32.5829   51.4201 H   0  0  0  0  0  0  0  0  0  0  0  0
   59.3070   32.4520   49.6590 C   0  0  0  0  0  0  0  0  0  0  0  0
   59.5499   33.5248   49.6624 H   0  0  0  0  0  0  0  0  0  0  0  0
   59.8410   31.6200   48.6730 C   0  0  0  0  0  0  0  0  0  0  0  0
   60.5026   32.0408   47.9015 H   0  0  0  0  0  0  0  0  0  0  0  0
   59.5380   30.2490   48.6610 C   0  0  0  0  0  0  0  0  0  0  0  0
   60.1250   29.3450   47.5950 C   0  0  0  0  0  0  0  0  0  0  0  0
   60.9594   29.8753   47.1128 H   0  0  0  0  0  0  0  0  0  0  0  0
   60.4456   28.4224   48.1011 H   0  0  0  0  0  0  0  0  0  0  0  0
   59.1590   28.9450   46.5460 N   0  0  0  0  0  0  0  0  0  0  0  0
   59.7850   28.6700   45.2420 C   0  0  0  0  0  0  0  0  0  0  0  0
   60.5531   29.4308   45.0390 H   0  0  0  0  0  0  0  0  0  0  0  0
   60.2461   27.6716   45.2662 H   0  0  0  0  0  0  0  0  0  0  0  0
   58.7220   28.7090   44.1290 C   0  0  0  0  0  0  0  0  0  0  0  0
   58.6548   29.7379   43.7457 H   0  0  0  0  0  0  0  0  0  0  0  0
   59.0371   27.9979   43.3511 H   0  0  0  0  0  0  0  0  0  0  0  0
   57.3150   28.2700   44.6120 C   0  0  0  0  0  0  0  0  0  0  0  0
   56.8516   27.7326   43.7715 H   0  0  0  0  0  0  0  0  0  0  0  0
   56.4250   29.4460   44.9350 C   0  0  0  0  0  0  0  0  0  0  0  0
   55.1700   29.3460   44.8450 O   0  0  0  0  0  0  0  0  0  0  0  0
   57.0190   30.6890   45.3140 N   0  0  0  0  0  0  0  0  0  0  0  0
   57.0310   31.8580   44.4460 C   0  0  0  0  0  0  0  0  0  0  0  0
   57.5154   31.6022   43.4921 H   0  0  0  0  0  0  0  0  0  0  0  0
   55.9983   32.1851   44.2548 H   0  0  0  0  0  0  0  0  0  0  0  0
   57.7930   32.9650   45.1140 C   0  0  0  0  0  0  0  0  0  0  0  0
   58.7070   33.7420   44.3820 C   0  0  0  0  0  0  0  0  0  0  0  0
   58.8415   33.5616   43.3053 H   0  0  0  0  0  0  0  0  0  0  0  0
   59.4460   34.7440   45.0190 C   0  0  0  0  0  0  0  0  0  0  0  0
   60.1558   35.3543   44.4413 H   0  0  0  0  0  0  0  0  0  0  0  0
   59.2840   34.9710   46.3880 C   0  0  0  0  0  0  0  0  0  0  0  0
   59.8637   35.7620   46.8862 H   0  0  0  0  0  0  0  0  0  0  0  0
   58.3860   34.1940   47.1250 C   0  0  0  0  0  0  0  0  0  0  0  0
   58.2606   34.3724   48.2032 H   0  0  0  0  0  0  0  0  0  0  0  0
   57.6470   33.1900   46.4920 C   0  0  0  0  0  0  0  0  0  0  0  0
   56.9480   32.5736   47.0764 H   0  0  0  0  0  0  0  0  0  0  0  0
   57.4020   27.3030   45.8070 C   0  0  0  0  0  0  0  0  0  0  0  0
   56.3841   27.1135   46.1785 H   0  0  0  0  0  0  0  0  0  0  0  0
   57.8886   26.3836   45.4494 H   0  0  0  0  0  0  0  0  0  0  0  0
   58.2560   27.8520   46.9720 C   0  0  0  0  0  0  0  0  0  0  0  0
   57.5828   28.2347   47.7532 H   0  0  0  0  0  0  0  0  0  0  0  0
   58.8814   27.0278   47.3457 H   0  0  0  0  0  0  0  0  0  0  0  0
   58.7040   29.7230   49.6620 C   0  0  0  0  0  0  0  0  0  0  0  0
   58.4894   28.6443   49.6800 H   0  0  0  0  0  0  0  0  0  0  0  0
   53.7840   29.8450   53.0160 C   0  0  0  0  0  0  0  0  0  0  0  0
   53.5554   29.4505   54.0171 H   0  0  0  0  0  0  0  0  0  0  0  0
   52.7820   30.7170   52.3760 C   0  0  0  0  0  0  0  0  0  0  0  0
   52.8030   31.0790   51.0450 C   0  0  0  0  0  0  0  0  0  0  0  0
   53.5315   30.7576   50.2861 H   0  0  0  0  0  0  0  0  0  0  0  0
   51.7280   31.9250   50.8540 C   0  0  0  0  0  0  0  0  0  0  0  0
   51.4235   32.3967   49.9080 H   0  0  0  0  0  0  0  0  0  0  0  0
   51.1090   32.0640   52.0820 C   0  0  0  0  0  0  0  0  0  0  0  0
   50.2128   32.6729   52.2720 H   0  0  0  0  0  0  0  0  0  0  0  0
   51.7650   31.3440   53.0110 N   0  0  0  0  0  0  0  0  0  0  0  0
   51.4210   31.2850   54.4300 C   0  0  0  0  0  0  0  0  0  0  0  0
   52.3273   31.4404   55.0338 H   0  0  0  0  0  0  0  0  0  0  0  0
   50.6866   32.0703   54.6622 H   0  0  0  0  0  0  0  0  0  0  0  0
   50.9902   30.2999   54.6622 H   0  0  0  0  0  0  0  0  0  0  0  0
  1  2  1  0
  2  3  1  0
  3  4  2  0
  3  5  1  0
  5  6  1  0
  6  7  2  0
  7  8  1  0
  7  9  1  0
  9 10  1  0
  9 11  2  0
 11 12  1  0
 11 13  1  0
 13 14  1  0
 14 15  1  0
 14 16  1  0
 14 17  1  0
 17 18  1  0
 18 19  1  0
 18 20  1  0
 18 21  1  0
 21 22  1  0
 21 23  1  0
 21 24  1  0
 24 25  1  0
 24 26  1  0
 26 27  2  0
 26 28  1  0
 28 29  1  0
 29 30  1  0
 29 31  1  0
 29 32  1  0
 32 33  2  0
 33 34  1  0
 33 35  1  0
 35 36  1  0
 35 37  2  0
 37 38  1  0
 37 39  1  0
 39 40  1  0
 39 41  2  0
 41 42  1  0
 24 43  1  0
 43 44  1  0
 43 45  1  0
 43 46  1  0
 46 47  1  0
 46 48  1  0
 13 49  2  0
 49 50  1  0
  2 51  2  0
 51 52  1  0
 51 53  1  0
 53 54  2  0
 54 55  1  0
 54 56  1  0
 56 57  1  0
 56 58  2  0
 58 59  1  0
 58 60  1  0
 60 61  1  0
 61 62  1  0
 61 63  1  0
 61 64  1  0
 49  6  1  0
 60 53  1  0
 46 17  1  0
 41 32  1  0
M  CHG  2   5  -1  28  -1
M  END
>  <UniqueID>  (51) 
48

>  <SMILES>  (51) 
Cn1cccc1/C=C\C(=O)[N-]c1cccc(CN2CCC(C(=O)[N-]Cc3ccccc3)CC2)c1

>  <Energy>  (51) 
110.05279491455204

>  <Genealogy>  (51) 
Cn1cccc1C=CC(=O)[N-]c1cccc(CN2CCC(C(=O)[N-]Cc3ccccc3)CC2)c1 (protonated)
Cn1cccc1/C=C\C(=O)[N-]c1cccc(CN2CCC(C(=O)[N-]Cc3ccccc3)CC2)c1 (cis-trans isomerization)
Cn1cccc1/C=C\C(=O)[N-]c1cccc(CN2CCC(C(=O)[N-]Cc3ccccc3)CC2)c1 (3D coordinates assigned)
Cn1cccc1/C=C\C(=O)[N-]c1cccc(CN2CCC(C(=O)[N-]Cc3ccccc3)CC2)c1 (nonaromatic ring conformer: 110.05279491455204 kcal/mol)

>  <smiles>  (51) 
Cn1cccc1C=CC(=O)Nc1cccc(CN2CCC(C(=O)NCc3ccccc3)CC2)c1

>  <score_type>  (51) 
oracle

>  <origin>  (51) 
adg

>  <m_score__min__energy>  (51) 
-12.74

>  <m_primary>  (51) 
energy

$$$$
51:0
     RDKit          3D

 39 40  0  0  0  0  0  0  0  0999 V2000
   57.2050   32.3710   40.9460 C   0  0  0  0  0  0  0  0  0  0  0  0
   58.1790   32.7070   41.9290 O   0  0  0  0  0  0  0  0  0  0  0  0
   58.0690   32.4010   43.2930 C   0  0  0  0  0  0  0  0  0  0  0  0
   57.9160   31.0810   43.7590 C   0  0  0  0  0  0  0  0  0  0  0  0
   57.7910   30.8220   45.1280 C   0  0  0  0  0  0  0  0  0  0  0  0
   57.6660   29.4620   45.5660 N   0  0  0  0  0  0  0  0  0  0  0  0
   56.5550   28.5820   45.3400 C   0  0  0  0  0  0  0  0  0  0  0  0
   55.4920   29.0610   44.8650 O   0  0  0  0  0  0  0  0  0  0  0  0
   56.5980   27.1220   45.6920 C   0  0  0  0  0  0  0  0  0  0  0  0
   55.2620   26.6410   46.0140 N   0  0  0  0  0  0  0  0  0  0  0  0
   54.7660   25.3780   45.5630 C   0  0  0  0  0  0  0  0  0  0  0  0
   53.5500   25.0810   45.7100 O   0  0  0  0  0  0  0  0  0  0  0  0
   55.6930   24.4130   44.8950 C   0  0  0  0  0  0  0  0  0  0  0  0
   56.2760   23.4550   45.8900 C   0  0  0  0  0  0  0  0  0  0  0  0
   56.7850   22.2530   45.5670 N   0  0  0  0  0  0  0  0  0  0  0  0
   57.2460   21.7850   46.7480 C   0  0  0  0  0  0  0  0  0  0  0  0
   57.8050   20.6620   46.8590 O   0  0  0  0  0  0  0  0  0  0  0  0
   57.0660   22.6140   47.7980 N   0  0  0  0  0  0  0  0  0  0  0  0
   56.4520   23.6690   47.2380 C   0  0  0  0  0  0  0  0  0  0  0  0
   56.0620   24.8040   47.9390 O   0  0  0  0  0  0  0  0  0  0  0  0
   57.8630   31.8840   46.0420 C   0  0  0  0  0  0  0  0  0  0  0  0
   58.0030   33.2020   45.5950 C   0  0  0  0  0  0  0  0  0  0  0  0
   58.0350   34.2290   46.5500 O   0  0  0  0  0  0  0  0  0  0  0  0
   59.2280   34.8150   47.0600 C   0  0  0  0  0  0  0  0  0  0  0  0
   58.1090   33.4520   44.2140 C   0  0  0  0  0  0  0  0  0  0  0  0
   56.2775   32.0510   41.4433 H   0  0  0  0  0  0  0  0  0  0  0  0
   56.9997   33.2503   40.3177 H   0  0  0  0  0  0  0  0  0  0  0  0
   57.5855   31.5522   40.3177 H   0  0  0  0  0  0  0  0  0  0  0  0
   57.8946   30.2476   43.0414 H   0  0  0  0  0  0  0  0  0  0  0  0
   56.9920   26.5538   44.8365 H   0  0  0  0  0  0  0  0  0  0  0  0
   57.2491   26.9838   46.5677 H   0  0  0  0  0  0  0  0  0  0  0  0
   55.1362   23.8470   44.1337 H   0  0  0  0  0  0  0  0  0  0  0  0
   56.5135   24.9788   44.4295 H   0  0  0  0  0  0  0  0  0  0  0  0
   55.5160   25.5270   47.4870 H   0  0  0  0  0  0  0  0  0  0  0  0
   57.8088   31.6780   47.1212 H   0  0  0  0  0  0  0  0  0  0  0  0
   59.2018   34.8021   48.1596 H   0  0  0  0  0  0  0  0  0  0  0  0
   60.0980   34.2417   46.7072 H   0  0  0  0  0  0  0  0  0  0  0  0
   59.3060   35.8540   46.7072 H   0  0  0  0  0  0  0  0  0  0  0  0
   58.2246   34.4855   43.8555 H   0  0  0  0  0  0  0  0  0  0  0  0
  1  2  1  0
  2  3  1  0
  3  4  2  0
  4  5  1  0
  5  6  1  0
  6  7  1  0
  7  8  2  0
  7  9  1  0
  9 10  1  0
 10 11  1  0
 11 12  2  0
 11 13  1  0
 13 14  1  0
 14 15  1  0
 15 16  1  0
 16 17  2  0
 16 18  1  0
 18 19  1  0
 19 20  1  0
  5 21  2  0
 21 22  1  0
 22 23  1  0
 23 24  1  0
 22 25  2  0
 25  3  1  0
 19 14  2  0
  1 26  1  0
  1 27  1  0
  1 28  1  0
  4 29  1  0
  9 30  1  0
  9 31  1  0
 13 32  1  0
 13 33  1  0
 20 34  1  0
 21 35  1  0
 24 36  1  0
 24 37  1  0
 24 38  1  0
 25 39  1  0
M  CHG  4   6  -1  10  -1  15  -1  18  -1
M  END
>  <UniqueID>  (52) 
49

>  <SMILES>  (52) 
COc1cc([N-]C(=O)C[N-]C(=O)Cc2[n-]c(=O)[n-]c2O)cc(OC)c1

>  <Energy>  (52) 
61.593538711116885

>  <Genealogy>  (52) 
COc1cc([N-]C(=O)C[N-]C(=O)Cc2[n-]c(=O)[n-]c2O)cc(OC)c1 (protonated)
COc1cc([N-]C(=O)C[N-]C(=O)Cc2[n-]c(=O)[n-]c2O)cc(OC)c1 (3D coordinates assigned)
COc1cc([N-]C(=O)C[N-]C(=O)Cc2[n-]c(=O)[n-]c2O)cc(OC)c1 (optimized conformer: 61.593538711116885 kcal/mol)

>  <smiles>  (52) 
COc1cc(NC(=O)CNC(=O)Cc2[nH]c(=O)[nH]c2O)cc(OC)c1

>  <score_type>  (52) 
oracle

>  <origin>  (52) 
adg

>  <m_score__min__energy>  (52) 
-13.57

>  <m_primary>  (52) 
energy

$$$$
52:0
     RDKit          3D

 60 64  0  0  0  0  0  0  0  0999 V2000
   54.7790   26.3460   45.9230 O   0  0  0  0  0  0  0  0  0  0  0  0
   55.8920   25.9010   46.3060 C   0  0  0  0  0  0  0  0  0  0  0  0
   55.9750   24.6120   46.8170 O   0  0  0  0  0  0  0  0  0  0  0  0
   57.0940   26.7370   46.2120 C   0  0  0  0  0  0  0  0  0  0  0  0
   57.8520   26.9410   45.0590 C   0  0  0  0  0  0  0  0  0  0  0  0
   58.9380   27.7960   45.2780 C   0  0  0  0  0  0  0  0  0  0  0  0
   59.8630   28.2070   44.3150 C   0  0  0  0  0  0  0  0  0  0  0  0
   60.8840   29.0920   44.6920 C   0  0  0  0  0  0  0  0  0  0  0  0
   60.9770   29.5560   46.0180 C   0  0  0  0  0  0  0  0  0  0  0  0
   60.0500   29.1310   46.9890 C   0  0  0  0  0  0  0  0  0  0  0  0
   60.1360   29.6010   48.3430 N   0  0  0  0  0  0  0  0  0  0  0  0
   61.1770   29.0840   49.2310 C   0  0  0  0  0  0  0  0  0  0  0  0
   61.2020   29.8820   50.5450 C   0  0  0  0  0  0  0  0  0  0  0  0
   61.0880   31.3460   50.3070 N   0  0  0  0  0  0  0  0  0  0  0  0
   62.2560   31.9560   49.5810 C   0  0  0  0  0  0  0  0  0  0  0  0
   62.3670   33.5010   49.7070 C   0  0  0  0  0  0  0  0  0  0  0  0
   61.1980   34.2380   49.0180 C   0  0  0  0  0  0  0  0  0  0  0  0
   60.5530   33.4160   47.9690 N   0  0  0  0  0  0  0  0  0  0  0  0
   59.6960   34.2520   47.1060 C   0  0  0  0  0  0  0  0  0  0  0  0
   59.0180   33.3990   46.0670 C   0  0  0  0  0  0  0  0  0  0  0  0
   58.9490   33.8400   44.7350 C   0  0  0  0  0  0  0  0  0  0  0  0
   58.3140   33.0570   43.7660 C   0  0  0  0  0  0  0  0  0  0  0  0
   57.7400   31.8320   44.1200 C   0  0  0  0  0  0  0  0  0  0  0  0
   56.9430   30.8510   42.9030 Cl  0  0  0  0  0  0  0  0  0  0  0  0
   57.8030   31.3880   45.4450 C   0  0  0  0  0  0  0  0  0  0  0  0
   58.4380   32.1680   46.4160 C   0  0  0  0  0  0  0  0  0  0  0  0
   61.5670   32.6870   47.1840 C   0  0  0  0  0  0  0  0  0  0  0  0
   62.2330   31.6030   48.0560 C   0  0  0  0  0  0  0  0  0  0  0  0
   59.7870   31.6790   49.6300 C   0  0  0  0  0  0  0  0  0  0  0  0
   59.1200   30.5020   48.8870 C   0  0  0  0  0  0  0  0  0  0  0  0
   59.0370   28.2530   46.5870 C   0  0  0  0  0  0  0  0  0  0  0  0
   57.7680   27.6160   47.4910 S   0  0  0  0  0  0  0  0  0  0  0  0
   57.6219   26.4813   44.0865 H   0  0  0  0  0  0  0  0  0  0  0  0
   59.7919   27.8430   43.2794 H   0  0  0  0  0  0  0  0  0  0  0  0
   61.6187   29.4265   43.9448 H   0  0  0  0  0  0  0  0  0  0  0  0
   61.7790   30.2551   46.2973 H   0  0  0  0  0  0  0  0  0  0  0  0
   60.9724   28.0262   49.4527 H   0  0  0  0  0  0  0  0  0  0  0  0
   62.1532   29.1828   48.7337 H   0  0  0  0  0  0  0  0  0  0  0  0
   60.3602   29.5574   51.1743 H   0  0  0  0  0  0  0  0  0  0  0  0
   62.1649   29.6912   51.0415 H   0  0  0  0  0  0  0  0  0  0  0  0
   61.0530   31.7820   51.2580 H   0  0  0  0  0  0  0  0  0  0  0  0
   63.1311   31.5143   50.0802 H   0  0  0  0  0  0  0  0  0  0  0  0
   62.3719   33.7681   50.7741 H   0  0  0  0  0  0  0  0  0  0  0  0
   63.2969   33.8103   49.2073 H   0  0  0  0  0  0  0  0  0  0  0  0
   60.4454   34.4951   49.7780 H   0  0  0  0  0  0  0  0  0  0  0  0
   61.6067   35.1379   48.5352 H   0  0  0  0  0  0  0  0  0  0  0  0
   58.9329   34.7488   47.7231 H   0  0  0  0  0  0  0  0  0  0  0  0
   60.3191   35.0055   46.6021 H   0  0  0  0  0  0  0  0  0  0  0  0
   59.3961   34.8047   44.4533 H   0  0  0  0  0  0  0  0  0  0  0  0
   58.2659   33.4052   42.7237 H   0  0  0  0  0  0  0  0  0  0  0  0
   57.3523   30.4239   45.7233 H   0  0  0  0  0  0  0  0  0  0  0  0
   58.4837   31.8165   47.4573 H   0  0  0  0  0  0  0  0  0  0  0  0
   61.0838   32.2112   46.3179 H   0  0  0  0  0  0  0  0  0  0  0  0
   62.3352   33.3958   46.8411 H   0  0  0  0  0  0  0  0  0  0  0  0
   61.6792   30.6617   47.9247 H   0  0  0  0  0  0  0  0  0  0  0  0
   63.2794   31.5206   47.7270 H   0  0  0  0  0  0  0  0  0  0  0  0
   59.0858   32.0403   50.3966 H   0  0  0  0  0  0  0  0  0  0  0  0
   60.0223   32.4330   48.8644 H   0  0  0  0  0  0  0  0  0  0  0  0
   58.4808   29.9460   49.5886 H   0  0  0  0  0  0  0  0  0  0  0  0
   58.5153   30.8997   48.0586 H   0  0  0  0  0  0  0  0  0  0  0  0
  1  2  2  0
  2  3  1  0
  2  4  1  0
  4  5  2  0
  5  6  1  0
  6  7  2  0
  7  8  1  0
  8  9  2  0
  9 10  1  0
 10 11  1  0
 11 12  1  0
 12 13  1  0
 13 14  1  0
 14 15  1  0
 15 16  1  0
 16 17  1  0
 17 18  1  0
 18 19  1  0
 19 20  1  0
 20 21  2  0
 21 22  1  0
 22 23  2  0
 23 24  1  0
 23 25  1  0
 25 26  2  0
 18 27  1  0
 27 28  1  0
 14 29  1  0
 29 30  1  0
 10 31  2  0
 31 32  1  0
 32  4  1  0
 31  6  1  0
 30 11  1  0
 28 15  1  0
 26 20  1  0
  5 33  1  0
  7 34  1  0
  8 35  1  0
  9 36  1  0
 12 37  1  0
 12 38  1  0
 13 39  1  0
 13 40  1  0
 14 41  1  0
 15 42  1  0
 16 43  1  0
 16 44  1  0
 17 45  1  0
 17 46  1  0
 19 47  1  0
 19 48  1  0
 21 49  1  0
 22 50  1  0
 25 51  1  0
 26 52  1  0
 27 53  1  0
 27 54  1  0
 28 55  1  0
 28 56  1  0
 29 57  1  0
 29 58  1  0
 30 59  1  0
 30 60  1  0
M  CHG  2   3  -1  14   1
M  END
>  <UniqueID>  (53) 
50

>  <SMILES>  (53) 
O=C([O-])c1cc2cccc(N3CC[NH+](C4CCN(Cc5ccc(Cl)cc5)CC4)CC3)c2s1

>  <Energy>  (53) 
120.43893910352752

>  <Genealogy>  (53) 
O=C([O-])c1cc2cccc(N3CC[NH+](C4CCN(Cc5ccc(Cl)cc5)CC4)CC3)c2s1 (protonated)
O=C([O-])c1cc2cccc(N3CC[NH+](C4CCN(Cc5ccc(Cl)cc5)CC4)CC3)c2s1 (3D coordinates assigned)
O=C([O-])c1cc2cccc(N3CC[NH+](C4CCN(Cc5ccc(Cl)cc5)CC4)CC3)c2s1 (nonaromatic ring conformer: 120.43893910352752 kcal/mol)

>  <smiles>  (53) 
O=C(O)c1cc2cccc(N3CCN(C4CCN(Cc5ccc(Cl)cc5)CC4)CC3)c2s1

>  <score_type>  (53) 
oracle

>  <origin>  (53) 
adg

>  <m_score__min__energy>  (53) 
-11.27

>  <m_primary>  (53) 
energy

$$$$
53:0
     RDKit          3D

 49 53  0  0  0  0  0  0  0  0999 V2000
   54.6490   25.6070   46.3620 H   0  0  0  0  0  0  0  0  0  0  0  0
   54.0110   25.2520   45.6600 O   0  0  0  0  0  0  0  0  0  0  0  0
   53.4150   24.0040   45.8070 C   0  0  0  0  0  0  0  0  0  0  0  0
   52.0630   23.8580   45.8740 N   0  0  0  0  0  0  0  0  0  0  0  0
   51.7170   22.5610   46.0110 C   0  0  0  0  0  0  0  0  0  0  0  0
   50.1710   22.0530   46.1200 S   0  0  0  0  0  0  0  0  0  0  0  0
   53.0550   21.5440   46.0560 S   0  0  0  0  0  0  0  0  0  0  0  0
   54.1430   22.8200   45.8950 C   0  0  0  0  0  0  0  0  0  0  0  0
   55.6350   22.6800   45.8510 C   0  0  0  0  0  0  0  0  0  0  0  0
   55.9265   22.1870   44.9119 H   0  0  0  0  0  0  0  0  0  0  0  0
   55.9652   22.0762   46.7092 H   0  0  0  0  0  0  0  0  0  0  0  0
   56.2680   24.0010   45.9220 N   0  0  0  0  0  0  0  0  0  0  0  0
   56.3710   24.7850   47.0150 C   0  0  0  0  0  0  0  0  0  0  0  0
   55.9600   24.4440   48.1570 O   0  0  0  0  0  0  0  0  0  0  0  0
   56.9510   25.9770   46.7770 N   0  0  0  0  0  0  0  0  0  0  0  0
   57.2290   25.9510   45.4550 C   0  0  0  0  0  0  0  0  0  0  0  0
   57.7870   26.9800   44.7940 C   0  0  0  0  0  0  0  0  0  0  0  0
   58.2671   26.7823   43.8243 H   0  0  0  0  0  0  0  0  0  0  0  0
   57.7850   28.3610   45.3090 C   0  0  0  0  0  0  0  0  0  0  0  0
   56.7090   29.2370   45.2910 C   0  0  0  0  0  0  0  0  0  0  0  0
   55.4430   28.9230   44.8130 O   0  0  0  0  0  0  0  0  0  0  0  0
   57.0230   30.4510   45.8010 N   0  0  0  0  0  0  0  0  0  0  0  0
   58.3240   30.3410   46.1310 C   0  0  0  0  0  0  0  0  0  0  0  0
   59.1270   31.3460   46.6660 C   0  0  0  0  0  0  0  0  0  0  0  0
   58.7102   32.3370   46.8987 H   0  0  0  0  0  0  0  0  0  0  0  0
   60.4900   31.0600   46.9020 C   0  0  0  0  0  0  0  0  0  0  0  0
   61.3770   32.1040   47.4620 C   0  0  0  0  0  0  0  0  0  0  0  0
   62.7340   32.1020   47.0960 C   0  0  0  0  0  0  0  0  0  0  0  0
   63.1068   31.3458   46.3895 H   0  0  0  0  0  0  0  0  0  0  0  0
   63.6130   33.0510   47.6210 C   0  0  0  0  0  0  0  0  0  0  0  0
   64.6732   33.0395   47.3280 H   0  0  0  0  0  0  0  0  0  0  0  0
   63.1480   34.0140   48.5170 C   0  0  0  0  0  0  0  0  0  0  0  0
   63.8442   34.7548   48.9372 H   0  0  0  0  0  0  0  0  0  0  0  0
   61.8010   34.0390   48.8810 C   0  0  0  0  0  0  0  0  0  0  0  0
   61.4426   34.7983   49.5917 H   0  0  0  0  0  0  0  0  0  0  0  0
   60.8980   33.1030   48.3480 C   0  0  0  0  0  0  0  0  0  0  0  0
   59.4480   33.1810   48.7490 C   0  0  0  0  0  0  0  0  0  0  0  0
   59.3707   33.1852   49.8463 H   0  0  0  0  0  0  0  0  0  0  0  0
   59.0055   34.1042   48.3468 H   0  0  0  0  0  0  0  0  0  0  0  0
   58.9090   32.3106   48.3468 H   0  0  0  0  0  0  0  0  0  0  0  0
   61.0110   29.7880   46.5600 C   0  0  0  0  0  0  0  0  0  0  0  0
   62.0784   29.5762   46.7210 H   0  0  0  0  0  0  0  0  0  0  0  0
   60.1790   28.7930   46.0170 C   0  0  0  0  0  0  0  0  0  0  0  0
   60.5802   27.8064   45.7418 H   0  0  0  0  0  0  0  0  0  0  0  0
   58.8280   29.0960   45.8380 C   0  0  0  0  0  0  0  0  0  0  0  0
   56.7980   24.7380   44.9170 C   0  0  0  0  0  0  0  0  0  0  0  0
   56.8770   24.3410   43.6400 C   0  0  0  0  0  0  0  0  0  0  0  0
   56.4962   23.3514   43.3471 H   0  0  0  0  0  0  0  0  0  0  0  0
   57.3227   25.0046   42.8843 H   0  0  0  0  0  0  0  0  0  0  0  0
  1  2  1  0
  2  3  1  0
  3  4  1  0
  4  5  1  0
  5  6  2  0
  5  7  1  0
  7  8  1  0
  8  9  1  0
  9 10  1  0
  9 11  1  0
  9 12  1  0
 12 13  1  0
 13 14  2  0
 13 15  1  0
 15 16  1  0
 16 17  2  0
 17 18  1  0
 17 19  1  0
 19 20  2  0
 20 21  1  0
 20 22  1  0
 22 23  1  0
 23 24  2  0
 24 25  1  0
 24 26  1  0
 26 27  1  0
 27 28  2  0
 28 29  1  0
 28 30  1  0
 30 31  1  0
 30 32  2  0
 32 33  1  0
 32 34  1  0
 34 35  1  0
 34 36  2  0
 36 37  1  0
 37 38  1  0
 37 39  1  0
 37 40  1  0
 26 41  2  0
 41 42  1  0
 41 43  1  0
 43 44  1  0
 43 45  2  0
 16 46  1  0
 46 47  2  0
 47 48  1  0
 47 49  1  0
  8  3  2  0
 46 12  1  0
 45 19  1  0
 45 23  1  0
 36 27  1  0
M  CHG  4   4  -1  15  -1  21  -1  22  -1
M  END
>  <UniqueID>  (54) 
51

>  <SMILES>  (54) 
C=c1/c(=C/c2c([O-])[n-]c3cc(-c4ccccc4C)ccc23)[n-]c(=O)n1Cc1sc(=S)[n-]c1O

>  <Energy>  (54) 
162.85729804073154

>  <Genealogy>  (54) 
C=c1c(=Cc2c([O-])[n-]c3cc(-c4ccccc4C)ccc23)[n-]c(=O)n1Cc1sc(=S)[n-]c1O (protonated)
C=c1/c(=C/c2c([O-])[n-]c3cc(-c4ccccc4C)ccc23)[n-]c(=O)n1Cc1sc(=S)[n-]c1O (cis-trans isomerization)
C=c1/c(=C/c2c([O-])[n-]c3cc(-c4ccccc4C)ccc23)[n-]c(=O)n1Cc1sc(=S)[n-]c1O (3D coordinates assigned)
C=c1/c(=C/c2c([O-])[n-]c3cc(-c4ccccc4C)ccc23)[n-]c(=O)n1Cc1sc(=S)[n-]c1O (optimized conformer: 162.85729804073154 kcal/mol)

>  <smiles>  (54) 
C=c1c(=Cc2c(O)[nH]c3cc(-c4ccccc4C)ccc23)[nH]c(=O)n1Cc1sc(=S)[nH]c1O

>  <score_type>  (54) 
oracle

>  <origin>  (54) 
adg

>  <m_score__min__energy>  (54) 
-16.329999999999998

>  <m_primary>  (54) 
energy

$$$$
54:0
     RDKit          3D

 42 44  0  0  0  0  0  0  0  0999 V2000
   59.3140   30.5440   48.5330 O   0  0  0  0  0  0  0  0  0  0  0  0
   59.9190   30.7720   47.4490 C   0  0  0  0  0  0  0  0  0  0  0  0
   59.7370   29.8930   46.3290 N   0  0  0  0  0  0  0  0  0  0  0  0
   58.5810   29.0570   46.1460 C   0  0  0  0  0  0  0  0  0  0  0  0
   57.5390   29.4920   45.3130 C   0  0  0  0  0  0  0  0  0  0  0  0
   56.3960   28.7050   45.1370 C   0  0  0  0  0  0  0  0  0  0  0  0
   56.2770   27.4830   45.8050 C   0  0  0  0  0  0  0  0  0  0  0  0
   55.1410   26.7020   45.6300 O   0  0  0  0  0  0  0  0  0  0  0  0
   57.3010   27.0490   46.6530 C   0  0  0  0  0  0  0  0  0  0  0  0
   58.4460   27.8330   46.8300 C   0  0  0  0  0  0  0  0  0  0  0  0
   60.8920   31.8810   47.3940 C   0  0  0  0  0  0  0  0  0  0  0  0
   62.0560   31.7490   48.0870 N   0  0  0  0  0  0  0  0  0  0  0  0
   63.0030   32.7220   48.0770 C   0  0  0  0  0  0  0  0  0  0  0  0
   64.5240   32.4990   48.9960 S   0  0  0  0  0  0  0  0  0  0  0  0
   63.7760   32.8600   50.6220 C   0  0  0  0  0  0  0  0  0  0  0  0
   62.5240   33.6760   50.4670 C   0  0  0  0  0  0  0  0  0  0  0  0
   62.6260   34.8870   50.1300 O   0  0  0  0  0  0  0  0  0  0  0  0
   61.2200   33.1000   50.6610 N   0  0  0  0  0  0  0  0  0  0  0  0
   59.9920   33.8290   50.3970 C   0  0  0  0  0  0  0  0  0  0  0  0
   58.8680   32.8170   50.5640 C   0  0  0  0  0  0  0  0  0  0  0  0
   59.4720   31.6410   51.3280 C   0  0  0  0  0  0  0  0  0  0  0  0
   60.9790   31.7450   51.1300 C   0  0  0  0  0  0  0  0  0  0  0  0
   62.7950   33.8660   47.3780 N   0  0  0  0  0  0  0  0  0  0  0  0
   61.6460   34.0560   46.6830 C   0  0  0  0  0  0  0  0  0  0  0  0
   60.6550   33.0720   46.6770 C   0  0  0  0  0  0  0  0  0  0  0  0
   59.1350   33.4160   45.8580 Cl  0  0  0  0  0  0  0  0  0  0  0  0
   60.5370   29.7790   45.6650 H   0  0  0  0  0  0  0  0  0  0  0  0
   57.6215   30.4587   44.7947 H   0  0  0  0  0  0  0  0  0  0  0  0
   55.5898   29.0483   44.4720 H   0  0  0  0  0  0  0  0  0  0  0  0
   57.2059   26.0892   47.1819 H   0  0  0  0  0  0  0  0  0  0  0  0
   59.2441   27.4923   47.5060 H   0  0  0  0  0  0  0  0  0  0  0  0
   63.5286   31.9125   51.1230 H   0  0  0  0  0  0  0  0  0  0  0  0
   64.4979   33.4344   51.2212 H   0  0  0  0  0  0  0  0  0  0  0  0
   59.8744   34.6546   51.1143 H   0  0  0  0  0  0  0  0  0  0  0  0
   59.9920   34.2732   49.3907 H   0  0  0  0  0  0  0  0  0  0  0  0
   58.0379   33.2582   51.1352 H   0  0  0  0  0  0  0  0  0  0  0  0
   58.4623   32.5007   49.5917 H   0  0  0  0  0  0  0  0  0  0  0  0
   59.2208   31.7094   52.3967 H   0  0  0  0  0  0  0  0  0  0  0  0
   59.0820   30.6792   50.9635 H   0  0  0  0  0  0  0  0  0  0  0  0
   61.5041   31.5687   52.0804 H   0  0  0  0  0  0  0  0  0  0  0  0
   61.3478   30.9954   50.4145 H   0  0  0  0  0  0  0  0  0  0  0  0
   61.4939   34.9895   46.1214 H   0  0  0  0  0  0  0  0  0  0  0  0
  1  2  2  0
  2  3  1  0
  3  4  1  0
  4  5  2  0
  5  6  1  0
  6  7  2  0
  7  8  1  0
  7  9  1  0
  9 10  2  0
  2 11  1  0
 11 12  2  0
 12 13  1  0
 13 14  1  0
 14 15  1  0
 15 16  1  0
 16 17  2  0
 16 18  1  0
 18 19  1  0
 19 20  1  0
 20 21  1  0
 21 22  1  0
 13 23  2  0
 23 24  1  0
 24 25  2  0
 25 26  1  0
 10  4  1  0
 25 11  1  0
 22 18  1  0
  3 27  1  0
  5 28  1  0
  6 29  1  0
  9 30  1  0
 10 31  1  0
 15 32  1  0
 15 33  1  0
 19 34  1  0
 19 35  1  0
 20 36  1  0
 20 37  1  0
 21 38  1  0
 21 39  1  0
 22 40  1  0
 22 41  1  0
 24 42  1  0
M  CHG  1   8  -1
M  END
>  <UniqueID>  (55) 
52

>  <SMILES>  (55) 
O=C(Nc1ccc([O-])cc1)c1nc(SCC(=O)N2CCCC2)ncc1Cl

>  <Energy>  (55) 
46.303248844062125

>  <Genealogy>  (55) 
O=C(Nc1ccc([O-])cc1)c1nc(SCC(=O)N2CCCC2)ncc1Cl (protonated)
O=C(Nc1ccc([O-])cc1)c1nc(SCC(=O)N2CCCC2)ncc1Cl (3D coordinates assigned)
O=C(Nc1ccc([O-])cc1)c1nc(SCC(=O)N2CCCC2)ncc1Cl (nonaromatic ring conformer: 46.303248844062125 kcal/mol)

>  <smiles>  (55) 
O=C(Nc1ccc(O)cc1)c1nc(SCC(=O)N2CCCC2)ncc1Cl

>  <score_type>  (55) 
oracle

>  <origin>  (55) 
adg

>  <m_score__min__energy>  (55) 
-11.470000000000001

>  <m_primary>  (55) 
energy

$$$$
55:0
     RDKit          3D

 32 33  0  0  0  0  0  0  0  0999 V2000
   59.8900   26.3500   47.0060 C   0  0  0  0  0  0  0  0  0  0  0  0
   58.9990   26.9820   46.2260 C   0  0  0  0  0  0  0  0  0  0  0  0
   58.0600   26.3860   45.3690 C   0  0  0  0  0  0  0  0  0  0  0  0
   57.6470   25.1090   45.2590 C   0  0  0  0  0  0  0  0  0  0  0  0
   56.2480   24.6540   45.2930 C   0  0  0  0  0  0  0  0  0  0  0  0
   55.8480   23.3830   45.1070 N   0  0  0  0  0  0  0  0  0  0  0  0
   54.5230   23.4310   45.3660 C   0  0  0  0  0  0  0  0  0  0  0  0
   53.7790   22.4200   45.2830 O   0  0  0  0  0  0  0  0  0  0  0  0
   54.0610   24.6460   45.7300 N   0  0  0  0  0  0  0  0  0  0  0  0
   55.1690   25.4060   45.6930 C   0  0  0  0  0  0  0  0  0  0  0  0
   55.1990   26.7560   46.0220 O   0  0  0  0  0  0  0  0  0  0  0  0
   57.5610   27.4060   44.5770 C   0  0  0  0  0  0  0  0  0  0  0  0
   58.1380   28.5790   45.0180 C   0  0  0  0  0  0  0  0  0  0  0  0
   57.8900   29.9220   44.3830 C   0  0  0  0  0  0  0  0  0  0  0  0
   56.4140   30.0750   43.9920 C   0  0  0  0  0  0  0  0  0  0  0  0
   55.5530   29.2520   44.8390 N   0  0  0  0  0  0  0  0  0  0  0  0
   59.0030   28.3280   46.0300 N   0  0  0  0  0  0  0  0  0  0  0  0
   59.8890   29.2990   46.6820 C   0  0  0  0  0  0  0  0  0  0  0  0
   60.5778   26.9312   47.6377 H   0  0  0  0  0  0  0  0  0  0  0  0
   59.9324   25.2508   47.0135 H   0  0  0  0  0  0  0  0  0  0  0  0
   58.4226   24.3393   45.1328 H   0  0  0  0  0  0  0  0  0  0  0  0
   55.1050   27.4640   45.3040 H   0  0  0  0  0  0  0  0  0  0  0  0
   56.8408   27.3010   43.7522 H   0  0  0  0  0  0  0  0  0  0  0  0
   58.1578   30.7140   45.0979 H   0  0  0  0  0  0  0  0  0  0  0  0
   58.5057   30.0020   43.4750 H   0  0  0  0  0  0  0  0  0  0  0  0
   56.1217   31.1298   44.1013 H   0  0  0  0  0  0  0  0  0  0  0  0
   56.2945   29.7444   42.9497 H   0  0  0  0  0  0  0  0  0  0  0  0
   55.5140   28.2840   44.4420 H   0  0  0  0  0  0  0  0  0  0  0  0
   55.9790   29.1880   45.7920 H   0  0  0  0  0  0  0  0  0  0  0  0
   59.7998   29.2012   47.7740 H   0  0  0  0  0  0  0  0  0  0  0  0
   60.9292   29.1065   46.3804 H   0  0  0  0  0  0  0  0  0  0  0  0
   59.6023   30.3172   46.3804 H   0  0  0  0  0  0  0  0  0  0  0  0
  1  2  2  0
  2  3  1  0
  3  4  2  3
  4  5  1  0
  5  6  1  0
  6  7  1  0
  7  8  2  0
  7  9  1  0
  9 10  1  0
 10 11  1  0
  3 12  1  0
 12 13  2  0
 13 14  1  0
 14 15  1  0
 15 16  1  0
 13 17  1  0
 17 18  1  0
 17  2  1  0
 10  5  2  0
  1 19  1  0
  1 20  1  0
  4 21  1  0
 11 22  1  0
 12 23  1  0
 14 24  1  0
 14 25  1  0
 15 26  1  0
 15 27  1  0
 16 28  1  0
 16 29  1  0
 18 30  1  0
 18 31  1  0
 18 32  1  0
M  CHG  2   6  -1   9  -1
M  END
>  <UniqueID>  (56) 
53

>  <SMILES>  (56) 
C=c1c(=Cc2[n-]c(=O)[n-]c2O)cc(CCN)n1C

>  <Energy>  (56) 
96.45854138825958

>  <Genealogy>  (56) 
C=c1c(=Cc2[n-]c(=O)[n-]c2O)cc(CCN)n1C (protonated)
C=c1c(=Cc2[n-]c(=O)[n-]c2O)cc(CCN)n1C (3D coordinates assigned)
C=c1c(=Cc2[n-]c(=O)[n-]c2O)cc(CCN)n1C (optimized conformer: 96.45854138825958 kcal/mol)

>  <smiles>  (56) 
C=c1c(=Cc2[nH]c(=O)[nH]c2O)cc(CCN)n1C

>  <score_type>  (56) 
oracle

>  <origin>  (56) 
adg

>  <m_score__min__energy>  (56) 
-10.81

>  <m_primary>  (56) 
energy

$$$$
56:0
     RDKit          3D

 29 30  0  0  0  0  0  0  0  0999 V2000
   57.4500   31.6360   42.7740 C   0  0  0  0  0  0  0  0  0  0  0  0
   57.7730   32.2390   43.9210 C   0  0  0  0  0  0  0  0  0  0  0  0
   57.4100   31.6440   45.2520 C   0  0  0  0  0  0  0  0  0  0  0  0
   57.8640   30.2580   45.3300 N   0  0  0  0  0  0  0  0  0  0  0  0
   59.0590   29.8980   45.7690 N   0  0  0  0  0  0  0  0  0  0  0  0
   59.1600   28.5550   45.6570 C   0  0  0  0  0  0  0  0  0  0  0  0
   60.2410   27.8980   46.0830 C   0  0  0  0  0  0  0  0  0  0  0  0
   57.9760   28.0400   45.0990 C   0  0  0  0  0  0  0  0  0  0  0  0
   57.6090   26.7860   44.7680 C   0  0  0  0  0  0  0  0  0  0  0  0
   57.2260   25.7360   45.7270 C   0  0  0  0  0  0  0  0  0  0  0  0
   55.9380   25.6880   46.2990 C   0  0  0  0  0  0  0  0  0  0  0  0
   54.9520   26.6200   45.9720 O   0  0  0  0  0  0  0  0  0  0  0  0
   55.6400   24.7120   47.1960 N   0  0  0  0  0  0  0  0  0  0  0  0
   56.5630   23.7880   47.5670 C   0  0  0  0  0  0  0  0  0  0  0  0
   56.1670   22.6310   48.6460 S   0  0  0  0  0  0  0  0  0  0  0  0
   57.8150   23.8310   47.0460 N   0  0  0  0  0  0  0  0  0  0  0  0
   58.1680   24.7820   46.1450 C   0  0  0  0  0  0  0  0  0  0  0  0
   59.3410   24.7930   45.6840 O   0  0  0  0  0  0  0  0  0  0  0  0
   57.1940   29.1670   44.9210 C   0  0  0  0  0  0  0  0  0  0  0  0
   56.0310   29.1910   44.4330 O   0  0  0  0  0  0  0  0  0  0  0  0
   57.7287   32.0948   41.8139 H   0  0  0  0  0  0  0  0  0  0  0  0
   56.9052   30.6805   42.7893 H   0  0  0  0  0  0  0  0  0  0  0  0
   58.3178   33.1941   43.8905 H   0  0  0  0  0  0  0  0  0  0  0  0
   57.8879   32.2277   46.0526 H   0  0  0  0  0  0  0  0  0  0  0  0
   56.3164   31.6687   45.3680 H   0  0  0  0  0  0  0  0  0  0  0  0
   60.2963   26.8043   45.9792 H   0  0  0  0  0  0  0  0  0  0  0  0
   61.0765   28.4503   46.5378 H   0  0  0  0  0  0  0  0  0  0  0  0
   57.5944   26.5269   43.6991 H   0  0  0  0  0  0  0  0  0  0  0  0
   55.1510   27.4760   45.4710 H   0  0  0  0  0  0  0  0  0  0  0  0
  1  2  2  0
  2  3  1  0
  3  4  1  0
  4  5  1  0
  5  6  1  0
  6  7  2  0
  6  8  1  0
  8  9  2  3
  9 10  1  0
 10 11  2  0
 11 12  1  0
 11 13  1  0
 13 14  1  0
 14 15  2  0
 14 16  1  0
 16 17  1  0
 17 18  2  0
  8 19  1  0
 19 20  2  0
 19  4  1  0
 17 10  1  0
  1 21  1  0
  1 22  1  0
  2 23  1  0
  3 24  1  0
  3 25  1  0
  7 26  1  0
  7 27  1  0
  9 28  1  0
 12 29  1  0
M  CHG  3   5  -1  13  -1  16  -1
M  END
>  <UniqueID>  (57) 
54

>  <SMILES>  (57) 
C=CCn1[n-]c(=C)c(=Cc2c(O)[n-]c(=S)[n-]c2=O)c1=O

>  <Energy>  (57) 
73.27476451869548

>  <Genealogy>  (57) 
C=CCn1[n-]c(=C)c(=Cc2c(O)[n-]c(=S)[n-]c2=O)c1=O (protonated)
C=CCn1[n-]c(=C)c(=Cc2c(O)[n-]c(=S)[n-]c2=O)c1=O (3D coordinates assigned)
C=CCn1[n-]c(=C)c(=Cc2c(O)[n-]c(=S)[n-]c2=O)c1=O (optimized conformer: 73.27476451869548 kcal/mol)

>  <smiles>  (57) 
C=CCn1[nH]c(=C)c(=Cc2c(O)[nH]c(=S)[nH]c2=O)c1=O

>  <score_type>  (57) 
oracle

>  <origin>  (57) 
adg

>  <m_score__min__energy>  (57) 
-11.99

>  <m_primary>  (57) 
energy

$$$$
57:0
     RDKit          3D

 55 58  0  0  0  0  0  0  0  0999 V2000
   57.4070   25.5210   43.1820 C   0  0  0  0  0  0  0  0  0  0  0  0
   57.2560   24.2510   43.9800 C   0  0  0  0  0  0  0  0  0  0  0  0
   56.7320   23.1060   43.3520 C   0  0  0  0  0  0  0  0  0  0  0  0
   56.5880   21.9100   44.0590 C   0  0  0  0  0  0  0  0  0  0  0  0
   56.9700   21.8390   45.3990 C   0  0  0  0  0  0  0  0  0  0  0  0
   57.4990   22.9630   46.0360 C   0  0  0  0  0  0  0  0  0  0  0  0
   57.6480   24.1780   45.3420 C   0  0  0  0  0  0  0  0  0  0  0  0
   58.2290   25.3690   46.0730 C   0  0  0  0  0  0  0  0  0  0  0  0
   57.1750   26.1420   46.7180 N   0  0  0  0  0  0  0  0  0  0  0  0
   56.0810   26.7460   46.0190 C   0  0  0  0  0  0  0  0  0  0  0  0
   54.9530   26.1870   46.0220 O   0  0  0  0  0  0  0  0  0  0  0  0
   56.2350   27.9870   45.3100 N   0  0  0  0  0  0  0  0  0  0  0  0
   57.0130   28.9880   45.6060 C   0  0  0  0  0  0  0  0  0  0  0  0
   56.7900   30.2280   45.1220 N   0  0  0  0  0  0  0  0  0  0  0  0
   57.7210   31.1220   45.5520 C   0  0  0  0  0  0  0  0  0  0  0  0
   58.7090   30.5960   46.3930 C   0  0  0  0  0  0  0  0  0  0  0  0
   59.8450   31.3290   47.0090 C   0  0  0  0  0  0  0  0  0  0  0  0
   61.0780   30.6920   47.2500 C   0  0  0  0  0  0  0  0  0  0  0  0
   62.1380   31.3920   47.8360 C   0  0  0  0  0  0  0  0  0  0  0  0
   61.9870   32.7380   48.1870 C   0  0  0  0  0  0  0  0  0  0  0  0
   63.3090   33.6160   48.9520 S   0  0  0  0  0  0  0  0  0  0  0  0
   64.4220   33.8290   47.9610 O   0  0  0  0  0  0  0  0  0  0  0  0
   62.8040   34.9620   49.3970 O   0  0  0  0  0  0  0  0  0  0  0  0
   63.8920   32.7190   50.3320 N   0  0  0  0  0  0  0  0  0  0  0  0
   62.8620   31.7680   50.7950 C   0  0  0  0  0  0  0  0  0  0  0  0
   63.4450   30.7500   51.7980 C   0  0  0  0  0  0  0  0  0  0  0  0
   64.7190   31.1570   52.2550 O   0  0  0  0  0  0  0  0  0  0  0  0
   65.6350   31.1590   51.1740 C   0  0  0  0  0  0  0  0  0  0  0  0
   65.1390   32.0160   49.9880 C   0  0  0  0  0  0  0  0  0  0  0  0
   60.7630   33.3770   47.9610 C   0  0  0  0  0  0  0  0  0  0  0  0
   59.7010   32.6810   47.3770 C   0  0  0  0  0  0  0  0  0  0  0  0
   58.3790   28.9540   46.5930 S   0  0  0  0  0  0  0  0  0  0  0  0
   57.5085   26.3751   43.8678 H   0  0  0  0  0  0  0  0  0  0  0  0
   58.3032   25.4513   42.5480 H   0  0  0  0  0  0  0  0  0  0  0  0
   56.5195   25.6634   42.5480 H   0  0  0  0  0  0  0  0  0  0  0  0
   56.4330   23.1532   42.2945 H   0  0  0  0  0  0  0  0  0  0  0  0
   56.1728   21.0228   43.5585 H   0  0  0  0  0  0  0  0  0  0  0  0
   56.8542   20.8964   45.9541 H   0  0  0  0  0  0  0  0  0  0  0  0
   57.8025   22.8982   47.0913 H   0  0  0  0  0  0  0  0  0  0  0  0
   58.9357   25.0139   46.8375 H   0  0  0  0  0  0  0  0  0  0  0  0
   58.7452   26.0129   45.3457 H   0  0  0  0  0  0  0  0  0  0  0  0
   57.6991   32.1823   45.2598 H   0  0  0  0  0  0  0  0  0  0  0  0
   61.2085   29.6349   46.9750 H   0  0  0  0  0  0  0  0  0  0  0  0
   63.0947   30.8818   48.0217 H   0  0  0  0  0  0  0  0  0  0  0  0
   64.0900   33.4090   51.0950 H   0  0  0  0  0  0  0  0  0  0  0  0
   62.0516   32.3284   51.2842 H   0  0  0  0  0  0  0  0  0  0  0  0
   62.4835   31.2159   49.9222 H   0  0  0  0  0  0  0  0  0  0  0  0
   62.7653   30.6643   52.6586 H   0  0  0  0  0  0  0  0  0  0  0  0
   63.5501   29.7802   51.2896 H   0  0  0  0  0  0  0  0  0  0  0  0
   66.5960   31.5631   51.5251 H   0  0  0  0  0  0  0  0  0  0  0  0
   65.7407   30.1229   50.8200 H   0  0  0  0  0  0  0  0  0  0  0  0
   65.9108   32.7566   49.7315 H   0  0  0  0  0  0  0  0  0  0  0  0
   64.9434   31.3523   49.1329 H   0  0  0  0  0  0  0  0  0  0  0  0
   60.6359   34.4323   48.2443 H   0  0  0  0  0  0  0  0  0  0  0  0
   58.7436   33.1939   47.2031 H   0  0  0  0  0  0  0  0  0  0  0  0
  1  2  1  0
  2  3  2  0
  3  4  1  0
  4  5  2  0
  5  6  1  0
  6  7  2  0
  7  8  1  0
  8  9  1  0
  9 10  1  0
 10 11  2  0
 10 12  1  0
 12 13  2  3
 13 14  1  0
 14 15  1  0
 15 16  2  0
 16 17  1  0
 17 18  2  0
 18 19  1  0
 19 20  2  0
 20 21  1  0
 21 22  2  0
 21 23  2  0
 21 24  1  0
 24 25  1  0
 25 26  1  0
 26 27  1  0
 27 28  1  0
 28 29  1  0
 20 30  1  0
 30 31  2  0
 16 32  1  0
  7  2  1  0
 32 13  1  0
 31 17  1  0
 29 24  1  0
  1 33  1  0
  1 34  1  0
  1 35  1  0
  3 36  1  0
  4 37  1  0
  5 38  1  0
  6 39  1  0
  8 40  1  0
  8 41  1  0
 15 42  1  0
 18 43  1  0
 19 44  1  0
 24 45  1  0
 25 46  1  0
 25 47  1  0
 26 48  1  0
 26 49  1  0
 28 50  1  0
 28 51  1  0
 29 52  1  0
 29 53  1  0
 30 54  1  0
 31 55  1  0
M  CHG  3   9  -1  14  -1  24   1
M  END
>  <UniqueID>  (58) 
55

>  <SMILES>  (58) 
Cc1ccccc1C[N-]C(=O)N=c1[n-]cc(-c2ccc(S(=O)(=O)[NH+]3CCOCC3)cc2)s1

>  <Energy>  (58) 
99.88396656164349

>  <Genealogy>  (58) 
Cc1ccccc1C[N-]C(=O)N=c1[n-]cc(-c2ccc(S(=O)(=O)[NH+]3CCOCC3)cc2)s1 (protonated)
Cc1ccccc1C[N-]C(=O)N=c1[n-]cc(-c2ccc(S(=O)(=O)[NH+]3CCOCC3)cc2)s1 (3D coordinates assigned)
Cc1ccccc1C[N-]C(=O)N=c1[n-]cc(-c2ccc(S(=O)(=O)[NH+]3CCOCC3)cc2)s1 (nonaromatic ring conformer: 99.88396656164349 kcal/mol)

>  <smiles>  (58) 
Cc1ccccc1CNC(=O)N=c1[nH]cc(-c2ccc(S(=O)(=O)N3CCOCC3)cc2)s1

>  <score_type>  (58) 
oracle

>  <origin>  (58) 
adg

>  <m_score__min__energy>  (58) 
-9.9399999999999995

>  <m_primary>  (58) 
energy

$$$$
58:0
     RDKit          3D

 51 54  0  0  0  0  0  0  0  0999 V2000
   59.2820   35.3070   46.3070 O   0  0  0  0  0  0  0  0  0  0  0  0
   59.6730   34.1600   46.6550 C   0  0  0  0  0  0  0  0  0  0  0  0
   60.8610   34.0300   47.5300 C   0  0  0  0  0  0  0  0  0  0  0  0
   60.7490   34.2430   48.9140 C   0  0  0  0  0  0  0  0  0  0  0  0
   61.8700   34.1310   49.7410 C   0  0  0  0  0  0  0  0  0  0  0  0
   63.1300   33.8150   49.2020 C   0  0  0  0  0  0  0  0  0  0  0  0
   64.2870   33.7010   50.0560 N   0  0  0  0  0  0  0  0  0  0  0  0
   65.4320   33.0420   49.7760 C   0  0  0  0  0  0  0  0  0  0  0  0
   66.3130   33.1590   50.8320 C   0  0  0  0  0  0  0  0  0  0  0  0
   65.6790   33.9180   51.7930 C   0  0  0  0  0  0  0  0  0  0  0  0
   64.4360   34.2370   51.2860 C   0  0  0  0  0  0  0  0  0  0  0  0
   63.2410   33.6160   47.8140 C   0  0  0  0  0  0  0  0  0  0  0  0
   62.1200   33.7260   46.9880 C   0  0  0  0  0  0  0  0  0  0  0  0
   58.9740   33.0000   46.1700 N   0  0  0  0  0  0  0  0  0  0  0  0
   58.4750   32.9940   44.7880 C   0  0  0  0  0  0  0  0  0  0  0  0
   58.0030   31.5940   44.3700 C   0  0  0  0  0  0  0  0  0  0  0  0
   58.9420   30.5150   44.9750 C   0  0  0  0  0  0  0  0  0  0  0  0
   58.7000   29.1630   44.3670 N   0  0  0  0  0  0  0  0  0  0  0  0
   57.4850   28.4930   44.9170 C   0  0  0  0  0  0  0  0  0  0  0  0
   57.4260   27.0000   44.5800 C   0  0  0  0  0  0  0  0  0  0  0  0
   58.6590   26.0450   45.5350 S   0  0  0  0  0  0  0  0  0  0  0  0
   59.9070   27.3710   45.6990 C   0  0  0  0  0  0  0  0  0  0  0  0
   59.9150   28.2930   44.4730 C   0  0  0  0  0  0  0  0  0  0  0  0
   58.7510   30.5440   46.5240 C   0  0  0  0  0  0  0  0  0  0  0  0
   58.5260   31.9580   47.1030 C   0  0  0  0  0  0  0  0  0  0  0  0
   59.7722   34.4997   49.3498 H   0  0  0  0  0  0  0  0  0  0  0  0
   61.7658   34.2916   50.8242 H   0  0  0  0  0  0  0  0  0  0  0  0
   65.6328   32.4931   48.8441 H   0  0  0  0  0  0  0  0  0  0  0  0
   67.3241   32.7303   50.8948 H   0  0  0  0  0  0  0  0  0  0  0  0
   66.0848   34.2117   52.7723 H   0  0  0  0  0  0  0  0  0  0  0  0
   63.6778   34.8396   51.8075 H   0  0  0  0  0  0  0  0  0  0  0  0
   64.2195   33.3715   47.3750 H   0  0  0  0  0  0  0  0  0  0  0  0
   62.2245   33.5732   45.9037 H   0  0  0  0  0  0  0  0  0  0  0  0
   57.6309   33.6949   44.7090 H   0  0  0  0  0  0  0  0  0  0  0  0
   59.2963   33.2962   44.1216 H   0  0  0  0  0  0  0  0  0  0  0  0
   56.9781   31.4310   44.7347 H   0  0  0  0  0  0  0  0  0  0  0  0
   58.0248   31.5179   43.2728 H   0  0  0  0  0  0  0  0  0  0  0  0
   59.9937   30.7362   44.7405 H   0  0  0  0  0  0  0  0  0  0  0  0
   58.5170   29.3090   43.3450 H   0  0  0  0  0  0  0  0  0  0  0  0
   57.4861   28.6065   46.0111 H   0  0  0  0  0  0  0  0  0  0  0  0
   56.6071   28.9709   44.4578 H   0  0  0  0  0  0  0  0  0  0  0  0
   56.4206   26.6205   44.8150 H   0  0  0  0  0  0  0  0  0  0  0  0
   57.6512   26.8797   43.5101 H   0  0  0  0  0  0  0  0  0  0  0  0
   59.6777   27.9685   46.5936 H   0  0  0  0  0  0  0  0  0  0  0  0
   60.8985   26.9021   45.7836 H   0  0  0  0  0  0  0  0  0  0  0  0
   60.8022   28.9407   44.5312 H   0  0  0  0  0  0  0  0  0  0  0  0
   59.9261   27.6458   43.5836 H   0  0  0  0  0  0  0  0  0  0  0  0
   57.8782   29.9240   46.7765 H   0  0  0  0  0  0  0  0  0  0  0  0
   59.6833   30.1636   46.9667 H   0  0  0  0  0  0  0  0  0  0  0  0
   57.4532   32.0954   47.3037 H   0  0  0  0  0  0  0  0  0  0  0  0
   59.1128   32.0488   48.0290 H   0  0  0  0  0  0  0  0  0  0  0  0
  1  2  2  0
  2  3  1  0
  3  4  2  0
  4  5  1  0
  5  6  2  0
  6  7  1  0
  7  8  1  0
  8  9  2  0
  9 10  1  0
 10 11  2  0
  6 12  1  0
 12 13  2  0
  2 14  1  0
 14 15  1  0
 15 16  1  0
 16 17  1  0
 17 18  1  0
 18 19  1  0
 19 20  1  0
 20 21  1  0
 21 22  1  0
 22 23  1  0
 17 24  1  0
 24 25  1  0
 13  3  1  0
 25 14  1  0
 11  7  1  0
 23 18  1  0
  4 26  1  0
  5 27  1  0
  8 28  1  0
  9 29  1  0
 10 30  1  0
 11 31  1  0
 12 32  1  0
 13 33  1  0
 15 34  1  0
 15 35  1  0
 16 36  1  0
 16 37  1  0
 17 38  1  0
 18 39  1  0
 19 40  1  0
 19 41  1  0
 20 42  1  0
 20 43  1  0
 22 44  1  0
 22 45  1  0
 23 46  1  0
 23 47  1  0
 24 48  1  0
 24 49  1  0
 25 50  1  0
 25 51  1  0
M  CHG  1  18   1
M  END
>  <UniqueID>  (59) 
56

>  <SMILES>  (59) 
O=C(c1ccc(-n2cccc2)cc1)N1CCC([NH+]2CCSCC2)CC1

>  <Energy>  (59) 
103.34444717306482

>  <Genealogy>  (59) 
O=C(c1ccc(-n2cccc2)cc1)N1CCC([NH+]2CCSCC2)CC1 (protonated)
O=C(c1ccc(-n2cccc2)cc1)N1CCC([NH+]2CCSCC2)CC1 (3D coordinates assigned)
O=C(c1ccc(-n2cccc2)cc1)N1CCC([NH+]2CCSCC2)CC1 (nonaromatic ring conformer: 103.34444717306482 kcal/mol)

>  <smiles>  (59) 
O=C(c1ccc(-n2cccc2)cc1)N1CCC(N2CCSCC2)CC1

>  <score_type>  (59) 
oracle

>  <origin>  (59) 
adg

>  <m_score__min__energy>  (59) 
-6.5199999999999996

>  <m_primary>  (59) 
energy

$$$$
59:0
     RDKit          3D

 69 72  0  0  0  0  0  0  0  0999 V2000
   56.0310   30.1050   43.5570 C   0  0  0  0  0  0  0  0  0  0  0  0
   55.8900   29.3560   44.8810 C   0  0  0  0  0  0  0  0  0  0  0  0
   56.8350   28.2300   44.9520 N   0  0  0  0  0  0  0  0  0  0  0  0
   57.8980   28.1070   43.9380 C   0  0  0  0  0  0  0  0  0  0  0  0
   59.1270   28.9830   44.2430 C   0  0  2  0  0  0  0  0  0  0  0  0
   60.2820   28.2300   44.8760 C   0  0  0  0  0  0  0  0  0  0  0  0
   61.0250   29.3270   45.5810 C   0  0  0  0  0  0  0  0  0  0  0  0
   59.9740   30.4160   45.7690 C   0  0  0  0  0  0  0  0  0  0  0  0
   58.7920   30.0540   45.0900 O   0  0  0  0  0  0  0  0  0  0  0  0
   56.6460   27.1930   45.9390 C   0  0  0  0  0  0  0  0  0  0  0  0
   55.5020   26.6940   46.1170 O   0  0  0  0  0  0  0  0  0  0  0  0
   57.7660   26.7030   46.6880 N   0  0  0  0  0  0  0  0  0  0  0  0
   58.6400   27.4640   47.5340 C   0  0  0  0  0  0  0  0  0  0  0  0
   58.3540   28.7890   47.9110 C   0  0  0  0  0  0  0  0  0  0  0  0
   59.2540   29.5050   48.7060 C   0  0  0  0  0  0  0  0  0  0  0  0
   60.4660   28.9210   49.1070 C   0  0  0  0  0  0  0  0  0  0  0  0
   61.4490   29.6550   49.9280 C   0  0  0  0  0  0  0  0  0  0  0  0
   61.8440   29.1320   51.0060 O   0  0  0  0  0  0  0  0  0  0  0  0
   62.0840   30.8540   49.4480 N   0  0  0  0  0  0  0  0  0  0  0  0
   63.0910   31.5590   50.2560 C   0  0  0  0  0  0  0  0  0  0  0  0
   63.7790   32.6730   49.4540 C   0  0  0  0  0  0  0  0  0  0  0  0
   62.7690   33.6300   48.7920 C   0  0  0  0  0  0  0  0  0  0  0  0
   61.4750   32.9280   48.3060 C   0  0  1  0  0  0  0  0  0  0  0  0
   60.9610   33.5480   47.0220 C   0  0  0  0  0  0  0  0  0  0  0  0
   61.7610   34.2140   46.3080 O   0  0  0  0  0  0  0  0  0  0  0  0
   59.5820   33.4150   46.6060 N   0  0  0  0  0  0  0  0  0  0  0  0
   58.5460   32.9620   47.5440 C   0  0  0  0  0  0  0  0  0  0  0  0
   57.1660   33.4580   47.1020 C   0  0  0  0  0  0  0  0  0  0  0  0
   56.9270   33.1410   45.7450 O   0  0  0  0  0  0  0  0  0  0  0  0
   57.8330   33.8550   44.9270 C   0  0  0  0  0  0  0  0  0  0  0  0
   59.2710   33.3870   45.1720 C   0  0  0  0  0  0  0  0  0  0  0  0
   61.6730   31.4110   48.1520 C   0  0  0  0  0  0  0  0  0  0  0  0
   60.7470   27.6000   48.7310 C   0  0  0  0  0  0  0  0  0  0  0  0
   59.8460   26.8830   47.9400 C   0  0  0  0  0  0  0  0  0  0  0  0
   56.2311   31.1681   43.7566 H   0  0  0  0  0  0  0  0  0  0  0  0
   56.8643   29.6770   42.9805 H   0  0  0  0  0  0  0  0  0  0  0  0
   55.0991   30.0093   42.9805 H   0  0  0  0  0  0  0  0  0  0  0  0
   56.0935   30.0495   45.7103 H   0  0  0  0  0  0  0  0  0  0  0  0
   54.8663   28.9600   44.9529 H   0  0  0  0  0  0  0  0  0  0  0  0
   58.2195   27.0560   43.8933 H   0  0  0  0  0  0  0  0  0  0  0  0
   57.4796   28.4504   42.9804 H   0  0  0  0  0  0  0  0  0  0  0  0
   59.4567   29.3466   43.2586 H   0  0  0  0  0  0  0  0  0  0  0  0
   59.9222   27.4711   45.5864 H   0  0  0  0  0  0  0  0  0  0  0  0
   60.8964   27.6736   44.1529 H   0  0  0  0  0  0  0  0  0  0  0  0
   61.4076   28.9798   46.5521 H   0  0  0  0  0  0  0  0  0  0  0  0
   61.9031   29.6760   45.0179 H   0  0  0  0  0  0  0  0  0  0  0  0
   59.7585   30.5358   46.8410 H   0  0  0  0  0  0  0  0  0  0  0  0
   60.3536   31.3647   45.3618 H   0  0  0  0  0  0  0  0  0  0  0  0
   57.4187   29.2634   47.5790 H   0  0  0  0  0  0  0  0  0  0  0  0
   59.0112   30.5312   49.0189 H   0  0  0  0  0  0  0  0  0  0  0  0
   62.5979   32.0029   51.1334 H   0  0  0  0  0  0  0  0  0  0  0  0
   63.8573   30.8318   50.5626 H   0  0  0  0  0  0  0  0  0  0  0  0
   64.4214   33.2523   50.1335 H   0  0  0  0  0  0  0  0  0  0  0  0
   64.3645   32.1972   48.6535 H   0  0  0  0  0  0  0  0  0  0  0  0
   62.4914   34.4030   49.5237 H   0  0  0  0  0  0  0  0  0  0  0  0
   63.2601   34.0524   47.9029 H   0  0  0  0  0  0  0  0  0  0  0  0
   60.7105   33.0807   49.0821 H   0  0  0  0  0  0  0  0  0  0  0  0
   58.5422   31.8625   47.5753 H   0  0  0  0  0  0  0  0  0  0  0  0
   58.7672   33.3698   48.5414 H   0  0  0  0  0  0  0  0  0  0  0  0
   56.3952   32.9804   47.7246 H   0  0  0  0  0  0  0  0  0  0  0  0
   57.1313   34.5512   47.2190 H   0  0  0  0  0  0  0  0  0  0  0  0
   57.5742   33.6880   43.8710 H   0  0  0  0  0  0  0  0  0  0  0  0
   57.7632   34.9248   45.1734 H   0  0  0  0  0  0  0  0  0  0  0  0
   59.3866   32.3596   44.7963 H   0  0  0  0  0  0  0  0  0  0  0  0
   59.9604   34.0627   44.6446 H   0  0  0  0  0  0  0  0  0  0  0  0
   60.7292   30.9454   47.8319 H   0  0  0  0  0  0  0  0  0  0  0  0
   62.4463   31.2095   47.3961 H   0  0  0  0  0  0  0  0  0  0  0  0
   61.6828   27.1251   49.0609 H   0  0  0  0  0  0  0  0  0  0  0  0
   60.0866   25.8541   47.6342 H   0  0  0  0  0  0  0  0  0  0  0  0
  1  2  1  0
  2  3  1  0
  3  4  1  0
  4  5  1  0
  5  6  1  0
  6  7  1  0
  7  8  1  0
  8  9  1  0
  3 10  1  0
 10 11  2  0
 10 12  1  0
 12 13  1  0
 13 14  2  0
 14 15  1  0
 15 16  2  0
 16 17  1  0
 17 18  2  0
 17 19  1  0
 19 20  1  0
 20 21  1  0
 21 22  1  0
 22 23  1  0
 23 24  1  0
 24 25  2  0
 24 26  1  0
 26 27  1  0
 27 28  1  0
 28 29  1  0
 29 30  1  0
 30 31  1  0
 23 32  1  0
 16 33  1  0
 33 34  2  0
  9  5  1  0
 34 13  1  0
 32 19  1  0
 31 26  1  0
  1 35  1  0
  1 36  1  0
  1 37  1  0
  2 38  1  0
  2 39  1  0
  4 40  1  0
  4 41  1  0
  5 42  1  6
  6 43  1  0
  6 44  1  0
  7 45  1  0
  7 46  1  0
  8 47  1  0
  8 48  1  0
 14 49  1  0
 15 50  1  0
 20 51  1  0
 20 52  1  0
 21 53  1  0
 21 54  1  0
 22 55  1  0
 22 56  1  0
 23 57  1  1
 27 58  1  0
 27 59  1  0
 28 60  1  0
 28 61  1  0
 30 62  1  0
 30 63  1  0
 31 64  1  0
 31 65  1  0
 32 66  1  0
 32 67  1  0
 33 68  1  0
 34 69  1  0
M  CHG  1  12  -1
M  END
>  <UniqueID>  (60) 
57

>  <SMILES>  (60) 
CCN(C[C@@H]1CCCO1)C(=O)[N-]c1ccc(C(=O)N2CCC[C@@H](C(=O)N3CCOCC3)C2)cc1

>  <Energy>  (60) 
82.58670642949086

>  <Genealogy>  (60) 
CCN(CC1CCCO1)C(=O)[N-]c1ccc(C(=O)N2CCCC(C(=O)N3CCOCC3)C2)cc1 (protonated)
CCN(C[C@@H]1CCCO1)C(=O)[N-]c1ccc(C(=O)N2CCC[C@@H](C(=O)N3CCOCC3)C2)cc1 (chirality)
CCN(C[C@@H]1CCCO1)C(=O)[N-]c1ccc(C(=O)N2CCC[C@@H](C(=O)N3CCOCC3)C2)cc1 (3D coordinates assigned)
CCN(C[C@@H]1CCCO1)C(=O)[N-]c1ccc(C(=O)N2CCC[C@@H](C(=O)N3CCOCC3)C2)cc1 (nonaromatic ring conformer: 82.58670642949086 kcal/mol)

>  <smiles>  (60) 
CCN(CC1CCCO1)C(=O)Nc1ccc(C(=O)N2CCCC(C(=O)N3CCOCC3)C2)cc1

>  <score_type>  (60) 
oracle

>  <origin>  (60) 
adg

>  <m_score__min__energy>  (60) 
-12.460000000000001

>  <m_primary>  (60) 
energy

$$$$
60:0
     RDKit          3D

 53 53  0  0  0  0  0  0  0  0999 V2000
   57.8160   33.5370   46.8210 C   0  0  0  0  0  0  0  0  0  0  0  0
   57.9550   33.9120   45.3410 C   0  0  0  0  0  0  0  0  0  0  0  0
   59.2390   34.7230   45.1260 C   0  0  0  0  0  0  0  0  0  0  0  0
   57.9480   32.6730   44.4250 C   0  0  0  0  0  0  0  0  0  0  0  0
   57.0950   31.6480   44.9410 O   0  0  0  0  0  0  0  0  0  0  0  0
   57.3640   30.2690   44.9770 C   0  0  0  0  0  0  0  0  0  0  0  0
   57.2380   29.5490   43.7860 C   0  0  0  0  0  0  0  0  0  0  0  0
   57.4820   28.1740   43.7520 C   0  0  0  0  0  0  0  0  0  0  0  0
   57.8520   27.4840   44.9200 C   0  0  0  0  0  0  0  0  0  0  0  0
   58.0800   26.0180   44.8690 C   0  0  0  0  0  0  0  0  0  0  0  0
   59.1870   25.5550   45.2610 O   0  0  0  0  0  0  0  0  0  0  0  0
   57.0850   25.1220   44.3410 N   0  0  0  0  0  0  0  0  0  0  0  0
   57.3810   23.7200   44.0500 C   0  0  0  0  0  0  0  0  0  0  0  0
   56.1620   23.0270   43.5230 C   0  0  0  0  0  0  0  0  0  0  0  0
   56.2540   21.8530   43.0740 O   0  0  0  0  0  0  0  0  0  0  0  0
   54.9080   23.7140   43.4970 N   0  0  0  0  0  0  0  0  0  0  0  0
   53.9550   23.6960   44.5960 C   0  0  0  0  0  0  0  0  0  0  0  0
   54.5290   24.4470   45.7530 C   0  0  0  0  0  0  0  0  0  0  0  0
   54.8240   25.6650   45.6240 O   0  0  0  0  0  0  0  0  0  0  0  0
   54.7130   23.7690   47.0030 N   0  0  0  0  0  0  0  0  0  0  0  0
   55.9460   23.1490   47.5010 C   0  0  0  0  0  0  0  0  0  0  0  0
   56.3940   22.0190   46.5580 C   0  0  0  0  0  0  0  0  0  0  0  0
   55.7320   22.6090   48.9280 C   0  0  0  0  0  0  0  0  0  0  0  0
   57.0310   24.2360   47.5350 C   0  0  0  0  0  0  0  0  0  0  0  0
   58.0020   28.2110   46.1140 C   0  0  0  0  0  0  0  0  0  0  0  0
   57.7600   29.5880   46.1450 C   0  0  0  0  0  0  0  0  0  0  0  0
   58.1307   34.3861   47.4455 H   0  0  0  0  0  0  0  0  0  0  0  0
   56.7666   33.2901   47.0397 H   0  0  0  0  0  0  0  0  0  0  0  0
   58.4509   32.6658   47.0397 H   0  0  0  0  0  0  0  0  0  0  0  0
   57.0821   34.5238   45.0695 H   0  0  0  0  0  0  0  0  0  0  0  0
   59.6688   34.9945   46.1015 H   0  0  0  0  0  0  0  0  0  0  0  0
   59.9641   34.1187   44.5612 H   0  0  0  0  0  0  0  0  0  0  0  0
   59.0049   35.6374   44.5612 H   0  0  0  0  0  0  0  0  0  0  0  0
   57.5906   32.9675   43.4272 H   0  0  0  0  0  0  0  0  0  0  0  0
   58.9726   32.2764   44.3710 H   0  0  0  0  0  0  0  0  0  0  0  0
   56.9431   30.0714   42.8640 H   0  0  0  0  0  0  0  0  0  0  0  0
   57.3838   27.6262   42.8032 H   0  0  0  0  0  0  0  0  0  0  0  0
   56.2060   25.5090   43.9320 H   0  0  0  0  0  0  0  0  0  0  0  0
   58.1816   23.6673   43.2975 H   0  0  0  0  0  0  0  0  0  0  0  0
   57.7007   23.2230   44.9778 H   0  0  0  0  0  0  0  0  0  0  0  0
   53.0160   24.1721   44.2772 H   0  0  0  0  0  0  0  0  0  0  0  0
   53.7514   22.6566   44.8931 H   0  0  0  0  0  0  0  0  0  0  0  0
   56.7351   21.1587   47.1527 H   0  0  0  0  0  0  0  0  0  0  0  0
   55.5487   21.7141   45.9235 H   0  0  0  0  0  0  0  0  0  0  0  0
   57.2186   22.3762   45.9235 H   0  0  0  0  0  0  0  0  0  0  0  0
   56.0350   23.3735   49.6586 H   0  0  0  0  0  0  0  0  0  0  0  0
   54.6692   22.3649   49.0721 H   0  0  0  0  0  0  0  0  0  0  0  0
   56.3391   21.7031   49.0721 H   0  0  0  0  0  0  0  0  0  0  0  0
   57.2737   24.4792   48.5800 H   0  0  0  0  0  0  0  0  0  0  0  0
   57.9337   23.8691   47.0247 H   0  0  0  0  0  0  0  0  0  0  0  0
   56.6624   25.1381   47.0247 H   0  0  0  0  0  0  0  0  0  0  0  0
   58.3127   27.6917   47.0326 H   0  0  0  0  0  0  0  0  0  0  0  0
   57.8796   30.1429   47.0872 H   0  0  0  0  0  0  0  0  0  0  0  0
  1  2  1  0
  2  3  1  0
  2  4  1  0
  4  5  1  0
  5  6  1  0
  6  7  2  0
  7  8  1  0
  8  9  2  0
  9 10  1  0
 10 11  2  0
 10 12  1  0
 12 13  1  0
 13 14  1  0
 14 15  2  0
 14 16  1  0
 16 17  1  0
 17 18  1  0
 18 19  2  0
 18 20  1  0
 20 21  1  0
 21 22  1  0
 21 23  1  0
 21 24  1  0
  9 25  1  0
 25 26  2  0
 26  6  1  0
  1 27  1  0
  1 28  1  0
  1 29  1  0
  2 30  1  0
  3 31  1  0
  3 32  1  0
  3 33  1  0
  4 34  1  0
  4 35  1  0
  7 36  1  0
  8 37  1  0
 12 38  1  0
 13 39  1  0
 13 40  1  0
 17 41  1  0
 17 42  1  0
 22 43  1  0
 22 44  1  0
 22 45  1  0
 23 46  1  0
 23 47  1  0
 23 48  1  0
 24 49  1  0
 24 50  1  0
 24 51  1  0
 25 52  1  0
 26 53  1  0
M  CHG  2  16  -1  20  -1
M  END
>  <UniqueID>  (61) 
58

>  <SMILES>  (61) 
CC(C)COc1ccc(C(=O)NCC(=O)[N-]CC(=O)[N-]C(C)(C)C)cc1

>  <Energy>  (61) 
34.52496180923125

>  <Genealogy>  (61) 
CC(C)COc1ccc(C(=O)NCC(=O)[N-]CC(=O)[N-]C(C)(C)C)cc1 (protonated)
CC(C)COc1ccc(C(=O)NCC(=O)[N-]CC(=O)[N-]C(C)(C)C)cc1 (3D coordinates assigned)
CC(C)COc1ccc(C(=O)NCC(=O)[N-]CC(=O)[N-]C(C)(C)C)cc1 (optimized conformer: 34.52496180923125 kcal/mol)

>  <smiles>  (61) 
CC(C)COc1ccc(C(=O)NCC(=O)NCC(=O)NC(C)(C)C)cc1

>  <score_type>  (61) 
oracle

>  <origin>  (61) 
adg

>  <m_score__min__energy>  (61) 
-11.82

>  <m_primary>  (61) 
energy

$$$$
61:0
     RDKit          3D

 49 50  0  0  0  0  0  0  0  0999 V2000
   60.2320   27.5090   46.0000 C   0  0  0  0  0  0  0  0  0  0  0  0
   59.2110   28.2680   45.5440 C   0  0  0  0  0  0  0  0  0  0  0  0
   59.2340   29.6840   45.7230 C   0  0  0  0  0  0  0  0  0  0  0  0
   60.1920   30.3830   46.6670 C   0  0  0  0  0  0  0  0  0  0  0  0
   59.6320   30.4090   48.0930 C   0  0  0  0  0  0  0  0  0  0  0  0
   59.7880   31.7690   48.7050 C   0  0  0  0  0  0  0  0  0  0  0  0
   58.8270   32.6230   48.6390 N   0  0  0  0  0  0  0  0  0  0  0  0
   58.7490   33.6310   47.6030 C   0  0  0  0  0  0  0  0  0  0  0  0
   57.6470   33.2870   46.5950 C   0  0  0  0  0  0  0  0  0  0  0  0
   57.7330   34.1880   45.3590 C   0  0  0  0  0  0  0  0  0  0  0  0
   59.1750   34.3330   44.8800 C   0  0  0  0  0  0  0  0  0  0  0  0
   58.4050   30.4710   44.9780 N   0  0  0  0  0  0  0  0  0  0  0  0
   57.5360   29.9560   44.0680 C   0  0  0  0  0  0  0  0  0  0  0  0
   56.6540   30.8760   43.2660 C   0  0  0  0  0  0  0  0  0  0  0  0
   57.4940   31.8650   42.4650 C   0  0  0  0  0  0  0  0  0  0  0  0
   57.3930   28.5740   43.9530 C   0  0  0  0  0  0  0  0  0  0  0  0
   58.1590   27.7050   44.7500 C   0  0  0  0  0  0  0  0  0  0  0  0
   57.8200   26.3900   44.7150 C   0  0  0  0  0  0  0  0  0  0  0  0
   57.2220   25.6120   45.8170 C   0  0  0  0  0  0  0  0  0  0  0  0
   57.8080   24.5320   46.3610 N   0  0  0  0  0  0  0  0  0  0  0  0
   56.8870   24.0830   47.2400 C   0  0  0  0  0  0  0  0  0  0  0  0
   57.0780   23.0730   47.9660 O   0  0  0  0  0  0  0  0  0  0  0  0
   55.7400   24.7940   47.2710 N   0  0  0  0  0  0  0  0  0  0  0  0
   55.9600   25.7500   46.3560 C   0  0  0  0  0  0  0  0  0  0  0  0
   55.0170   26.7060   45.9990 O   0  0  0  0  0  0  0  0  0  0  0  0
   60.2113   26.4181   45.8605 H   0  0  0  0  0  0  0  0  0  0  0  0
   61.0837   27.9822   46.5106 H   0  0  0  0  0  0  0  0  0  0  0  0
   61.1528   29.8474   46.6670 H   0  0  0  0  0  0  0  0  0  0  0  0
   60.3300   31.4191   46.3244 H   0  0  0  0  0  0  0  0  0  0  0  0
   58.5640   30.1470   48.0652 H   0  0  0  0  0  0  0  0  0  0  0  0
   60.1902   29.6833   48.7028 H   0  0  0  0  0  0  0  0  0  0  0  0
   60.7265   32.0378   49.2119 H   0  0  0  0  0  0  0  0  0  0  0  0
   58.5265   34.6052   48.0629 H   0  0  0  0  0  0  0  0  0  0  0  0
   59.7127   33.6701   47.0741 H   0  0  0  0  0  0  0  0  0  0  0  0
   57.7588   32.2379   46.2839 H   0  0  0  0  0  0  0  0  0  0  0  0
   56.6704   33.4442   47.0761 H   0  0  0  0  0  0  0  0  0  0  0  0
   57.1294   33.7478   44.5516 H   0  0  0  0  0  0  0  0  0  0  0  0
   57.3537   35.1849   45.6280 H   0  0  0  0  0  0  0  0  0  0  0  0
   59.8452   34.4004   45.7496 H   0  0  0  0  0  0  0  0  0  0  0  0
   59.4493   33.4579   44.2726 H   0  0  0  0  0  0  0  0  0  0  0  0
   59.2696   35.2452   44.2726 H   0  0  0  0  0  0  0  0  0  0  0  0
   58.4530   31.5100   45.0870 H   0  0  0  0  0  0  0  0  0  0  0  0
   56.0428   30.2779   42.5741 H   0  0  0  0  0  0  0  0  0  0  0  0
   56.0085   31.4383   43.9568 H   0  0  0  0  0  0  0  0  0  0  0  0
   58.0486   32.5180   43.1549 H   0  0  0  0  0  0  0  0  0  0  0  0
   58.2042   31.3138   41.8312 H   0  0  0  0  0  0  0  0  0  0  0  0
   56.8351   32.4766   41.8312 H   0  0  0  0  0  0  0  0  0  0  0  0
   56.6737   28.1592   43.2315 H   0  0  0  0  0  0  0  0  0  0  0  0
   58.0097   25.8531   43.7739 H   0  0  0  0  0  0  0  0  0  0  0  0
  1  2  2  0
  2  3  1  0
  3  4  1  0
  4  5  1  0
  5  6  1  0
  6  7  2  3
  7  8  1  0
  8  9  1  0
  9 10  1  0
 10 11  1  0
  3 12  2  0
 12 13  1  0
 13 14  1  0
 14 15  1  0
 13 16  2  0
 16 17  1  0
 17 18  2  3
 18 19  1  0
 19 20  1  0
 20 21  1  0
 21 22  2  0
 21 23  1  0
 23 24  1  0
 24 25  1  0
 17  2  1  0
 24 19  2  0
  1 26  1  0
  1 27  1  0
  4 28  1  0
  4 29  1  0
  5 30  1  0
  5 31  1  0
  6 32  1  0
  8 33  1  0
  8 34  1  0
  9 35  1  0
  9 36  1  0
 10 37  1  0
 10 38  1  0
 11 39  1  0
 11 40  1  0
 11 41  1  0
 12 42  1  0
 14 43  1  0
 14 44  1  0
 15 45  1  0
 15 46  1  0
 15 47  1  0
 16 48  1  0
 18 49  1  0
M  CHG  4  12   1  20  -1  23  -1  25  -1
M  END
>  <UniqueID>  (62) 
59

>  <SMILES>  (62) 
C=c1c(CCC=NCCCC)[nH+]c(CC)cc1=Cc1[n-]c(=O)[n-]c1[O-]

>  <Energy>  (62) 
86.26949565829403

>  <Genealogy>  (62) 
C=c1c(CCC=NCCCC)[nH+]c(CC)cc1=Cc1[n-]c(=O)[n-]c1[O-] (protonated)
C=c1c(CCC=NCCCC)[nH+]c(CC)cc1=Cc1[n-]c(=O)[n-]c1[O-] (3D coordinates assigned)
C=c1c(CCC=NCCCC)[nH+]c(CC)cc1=Cc1[n-]c(=O)[n-]c1[O-] (optimized conformer: 86.26949565829403 kcal/mol)

>  <smiles>  (62) 
C=c1c(CCC=NCCCC)nc(CC)cc1=Cc1[nH]c(=O)[nH]c1O

>  <score_type>  (62) 
oracle

>  <origin>  (62) 
adg

>  <m_score__min__energy>  (62) 
-13.24

>  <m_primary>  (62) 
energy

$$$$
62:0
     RDKit          3D

 42 44  0  0  0  0  0  0  0  0999 V2000
   56.5670   29.9200   42.2480 N   0  0  0  0  0  0  0  0  0  0  0  0
   56.2130   29.8930   43.9390 S   0  0  0  0  0  0  0  0  0  0  0  0
   54.8270   29.3510   44.1530 O   0  0  0  0  0  0  0  0  0  0  0  0
   56.2710   31.2920   44.4860 O   0  0  0  0  0  0  0  0  0  0  0  0
   57.3840   28.8770   44.7720 C   0  0  0  0  0  0  0  0  0  0  0  0
   56.9500   27.8520   45.6240 C   0  0  0  0  0  0  0  0  0  0  0  0
   57.8810   27.0590   46.3030 C   0  0  0  0  0  0  0  0  0  0  0  0
   59.2570   27.2850   46.1380 C   0  0  0  0  0  0  0  0  0  0  0  0
   60.2520   26.4510   46.9000 C   0  0  0  0  0  0  0  0  0  0  0  0
   60.5930   27.0910   48.1710 N   0  0  0  0  0  0  0  0  0  0  0  0
   60.2990   28.3160   48.4880 C   0  0  0  0  0  0  0  0  0  0  0  0
   60.9930   29.3630   47.9640 N   0  0  0  0  0  0  0  0  0  0  0  0
   60.6810   30.6440   48.2840 C   0  0  0  0  0  0  0  0  0  0  0  0
   59.6290   30.9130   49.1690 C   0  0  0  0  0  0  0  0  0  0  0  0
   59.2500   32.3410   49.4890 C   0  0  0  0  0  0  0  0  0  0  0  0
   59.1230   33.1590   48.2240 C   0  0  0  0  0  0  0  0  0  0  0  0
   57.9350   33.0650   47.4750 C   0  0  0  0  0  0  0  0  0  0  0  0
   57.7640   33.8210   46.3130 C   0  0  0  0  0  0  0  0  0  0  0  0
   58.7760   34.6780   45.8820 C   0  0  0  0  0  0  0  0  0  0  0  0
   59.9640   34.7780   46.6090 C   0  0  0  0  0  0  0  0  0  0  0  0
   60.1480   34.0270   47.7760 C   0  0  0  0  0  0  0  0  0  0  0  0
   61.6820   34.1940   48.6240 Cl  0  0  0  0  0  0  0  0  0  0  0  0
   58.9250   29.8180   49.6980 C   0  0  0  0  0  0  0  0  0  0  0  0
   57.9680   29.9930   50.4980 O   0  0  0  0  0  0  0  0  0  0  0  0
   59.2760   28.5530   49.3500 N   0  0  0  0  0  0  0  0  0  0  0  0
   59.6880   28.3180   45.2910 C   0  0  0  0  0  0  0  0  0  0  0  0
   58.7560   29.1090   44.6140 C   0  0  0  0  0  0  0  0  0  0  0  0
   57.4910   29.4490   42.1220 H   0  0  0  0  0  0  0  0  0  0  0  0
   55.8550   29.3170   41.7770 H   0  0  0  0  0  0  0  0  0  0  0  0
   55.8735   27.6706   45.7591 H   0  0  0  0  0  0  0  0  0  0  0  0
   57.5338   26.2552   46.9688 H   0  0  0  0  0  0  0  0  0  0  0  0
   59.8166   25.4606   47.0991 H   0  0  0  0  0  0  0  0  0  0  0  0
   61.1663   26.3499   46.2968 H   0  0  0  0  0  0  0  0  0  0  0  0
   61.2559   31.4739   47.8472 H   0  0  0  0  0  0  0  0  0  0  0  0
   58.2873   32.3480   50.0212 H   0  0  0  0  0  0  0  0  0  0  0  0
   60.0378   32.7827   50.1169 H   0  0  0  0  0  0  0  0  0  0  0  0
   57.1333   32.3895   47.8081 H   0  0  0  0  0  0  0  0  0  0  0  0
   56.8301   33.7402   45.7374 H   0  0  0  0  0  0  0  0  0  0  0  0
   58.6384   35.2756   44.9688 H   0  0  0  0  0  0  0  0  0  0  0  0
   60.7612   35.4519   46.2621 H   0  0  0  0  0  0  0  0  0  0  0  0
   60.7639   28.5056   45.1596 H   0  0  0  0  0  0  0  0  0  0  0  0
   59.1017   29.9180   43.9537 H   0  0  0  0  0  0  0  0  0  0  0  0
  1  2  1  0
  2  3  2  0
  2  4  2  0
  2  5  1  0
  5  6  2  0
  6  7  1  0
  7  8  2  0
  8  9  1  0
  9 10  1  0
 10 11  2  3
 11 12  1  0
 12 13  1  0
 13 14  2  0
 14 15  1  0
 15 16  1  0
 16 17  2  0
 17 18  1  0
 18 19  2  0
 19 20  1  0
 20 21  2  0
 21 22  1  0
 14 23  1  0
 23 24  2  0
 23 25  1  0
  8 26  1  0
 26 27  2  0
 27  5  1  0
 25 11  1  0
 21 16  1  0
  1 28  1  0
  1 29  1  0
  6 30  1  0
  7 31  1  0
  9 32  1  0
  9 33  1  0
 13 34  1  0
 15 35  1  0
 15 36  1  0
 17 37  1  0
 18 38  1  0
 19 39  1  0
 20 40  1  0
 26 41  1  0
 27 42  1  0
M  CHG  2  12  -1  25  -1
M  END
>  <UniqueID>  (63) 
60

>  <SMILES>  (63) 
NS(=O)(=O)c1ccc(CN=c2[n-]cc(Cc3ccccc3Cl)c(=O)[n-]2)cc1

>  <Energy>  (63) 
45.01292957565882

>  <Genealogy>  (63) 
NS(=O)(=O)c1ccc(CN=c2[n-]cc(Cc3ccccc3Cl)c(=O)[n-]2)cc1 (protonated)
NS(=O)(=O)c1ccc(CN=c2[n-]cc(Cc3ccccc3Cl)c(=O)[n-]2)cc1 (3D coordinates assigned)
NS(=O)(=O)c1ccc(CN=c2[n-]cc(Cc3ccccc3Cl)c(=O)[n-]2)cc1 (optimized conformer: 45.01292957565882 kcal/mol)

>  <smiles>  (63) 
NS(=O)(=O)c1ccc(CN=c2[nH]cc(Cc3ccccc3Cl)c(=O)[nH]2)cc1

>  <score_type>  (63) 
oracle

>  <origin>  (63) 
adg

>  <m_score__min__energy>  (63) 
-11.6

>  <m_primary>  (63) 
energy

$$$$
63:0
     RDKit          3D

 51 53  0  0  0  0  0  0  0  0999 V2000
   53.7030   28.1910   53.1680 C   0  0  0  0  0  0  0  0  0  0  0  0
   53.4340   29.5370   52.5710 C   0  0  0  0  0  0  0  0  0  0  0  0
   52.1810   30.0800   52.3400 C   0  0  0  0  0  0  0  0  0  0  0  0
   52.4420   31.3230   51.7870 C   0  0  0  0  0  0  0  0  0  0  0  0
   51.4410   32.3010   51.3420 C   0  0  0  0  0  0  0  0  0  0  0  0
   51.0140   32.3240   49.9820 N   0  0  0  0  0  0  0  0  0  0  0  0
   50.9590   33.1270   52.1620 O   0  0  0  0  0  0  0  0  0  0  0  0
   53.7750   31.5020   51.7040 N   0  0  0  0  0  0  0  0  0  0  0  0
   54.3760   30.4270   52.1890 N   0  0  0  0  0  0  0  0  0  0  0  0
   55.8260   30.2400   52.1960 C   0  0  0  0  0  0  0  0  0  0  0  0
   56.3990   30.6270   53.5640 C   0  0  0  0  0  0  0  0  0  0  0  0
   57.9280   30.4790   53.6190 C   0  0  0  0  0  0  0  0  0  0  0  0
   58.5030   29.6190   52.5130 C   0  0  0  0  0  0  0  0  0  0  0  0
   58.6470   28.3790   52.7080 O   0  0  0  0  0  0  0  0  0  0  0  0
   58.9660   30.2020   51.2740 N   0  0  0  0  0  0  0  0  0  0  0  0
   58.6180   31.5920   50.9280 C   0  0  0  0  0  0  0  0  0  0  0  0
   59.0970   31.9750   49.5220 C   0  0  0  0  0  0  0  0  0  0  0  0
   60.4850   31.5430   49.3150 N   0  0  0  0  0  0  0  0  0  0  0  0
   61.3480   32.3080   48.4500 C   0  0  0  0  0  0  0  0  0  0  0  0
   62.7380   32.3240   48.6740 C   0  0  0  0  0  0  0  0  0  0  0  0
   63.5790   33.0720   47.8460 C   0  0  0  0  0  0  0  0  0  0  0  0
   63.0460   33.8070   46.7860 C   0  0  0  0  0  0  0  0  0  0  0  0
   61.6690   33.7950   46.5500 C   0  0  0  0  0  0  0  0  0  0  0  0
   60.8200   33.0490   47.3750 C   0  0  0  0  0  0  0  0  0  0  0  0
   59.4930   33.0220   47.0980 F   0  0  0  0  0  0  0  0  0  0  0  0
   60.9210   30.2180   49.7800 C   0  0  0  0  0  0  0  0  0  0  0  0
   59.7470   29.3970   50.3220 C   0  0  0  0  0  0  0  0  0  0  0  0
   53.6878   28.2669   54.2653 H   0  0  0  0  0  0  0  0  0  0  0  0
   52.9287   27.4825   52.8387 H   0  0  0  0  0  0  0  0  0  0  0  0
   54.6902   27.8345   52.8387 H   0  0  0  0  0  0  0  0  0  0  0  0
   51.2006   29.6269   52.5485 H   0  0  0  0  0  0  0  0  0  0  0  0
   49.9980   32.3430   49.7390 H   0  0  0  0  0  0  0  0  0  0  0  0
   54.2690   32.3370   51.3150 H   0  0  0  0  0  0  0  0  0  0  0  0
   56.0580   29.1848   51.9894 H   0  0  0  0  0  0  0  0  0  0  0  0
   56.2759   30.8798   51.4225 H   0  0  0  0  0  0  0  0  0  0  0  0
   56.1372   31.6746   53.7736 H   0  0  0  0  0  0  0  0  0  0  0  0
   55.9679   29.9474   54.3139 H   0  0  0  0  0  0  0  0  0  0  0  0
   58.3755   31.4812   53.5462 H   0  0  0  0  0  0  0  0  0  0  0  0
   58.1656   29.9775   54.5687 H   0  0  0  0  0  0  0  0  0  0  0  0
   57.5248   31.7055   50.9732 H   0  0  0  0  0  0  0  0  0  0  0  0
   59.1188   32.2554   51.6484 H   0  0  0  0  0  0  0  0  0  0  0  0
   58.4517   31.4893   48.7752 H   0  0  0  0  0  0  0  0  0  0  0  0
   59.0455   33.0685   49.4147 H   0  0  0  0  0  0  0  0  0  0  0  0
   63.1644   31.7442   49.5058 H   0  0  0  0  0  0  0  0  0  0  0  0
   64.6635   33.0816   48.0300 H   0  0  0  0  0  0  0  0  0  0  0  0
   63.7102   34.3958   46.1363 H   0  0  0  0  0  0  0  0  0  0  0  0
   61.2510   34.3737   45.7131 H   0  0  0  0  0  0  0  0  0  0  0  0
   61.3771   29.6764   48.9382 H   0  0  0  0  0  0  0  0  0  0  0  0
   61.6466   30.3604   50.5943 H   0  0  0  0  0  0  0  0  0  0  0  0
   59.0998   29.0916   49.4866 H   0  0  0  0  0  0  0  0  0  0  0  0
   60.1368   28.5067   50.8372 H   0  0  0  0  0  0  0  0  0  0  0  0
  1  2  1  0
  2  3  2  0
  3  4  1  0
  4  5  1  0
  5  6  1  0
  5  7  2  0
  4  8  2  0
  8  9  1  0
  9 10  1  0
 10 11  1  0
 11 12  1  0
 12 13  1  0
 13 14  2  0
 13 15  1  0
 15 16  1  0
 16 17  1  0
 17 18  1  0
 18 19  1  0
 19 20  2  0
 20 21  1  0
 21 22  2  0
 22 23  1  0
 23 24  2  0
 24 25  1  0
 18 26  1  0
 26 27  1  0
  9  2  1  0
 27 15  1  0
 24 19  1  0
  1 28  1  0
  1 29  1  0
  1 30  1  0
  3 31  1  0
  6 32  1  0
  8 33  1  0
 10 34  1  0
 10 35  1  0
 11 36  1  0
 11 37  1  0
 12 38  1  0
 12 39  1  0
 16 40  1  0
 16 41  1  0
 17 42  1  0
 17 43  1  0
 20 44  1  0
 21 45  1  0
 22 46  1  0
 23 47  1  0
 26 48  1  0
 26 49  1  0
 27 50  1  0
 27 51  1  0
M  CHG  2   6  -1   8   1
M  END
>  <UniqueID>  (64) 
61

>  <SMILES>  (64) 
Cc1cc(C([NH-])=O)[nH+]n1CCCC(=O)N1CCN(c2ccccc2F)CC1

>  <Energy>  (64) 
81.5678949566953

>  <Genealogy>  (64) 
Cc1cc(C([NH-])=O)[nH+]n1CCCC(=O)N1CCN(c2ccccc2F)CC1 (protonated)
Cc1cc(C([NH-])=O)[nH+]n1CCCC(=O)N1CCN(c2ccccc2F)CC1 (3D coordinates assigned)
Cc1cc(C([NH-])=O)[nH+]n1CCCC(=O)N1CCN(c2ccccc2F)CC1 (nonaromatic ring conformer: 81.5678949566953 kcal/mol)

>  <smiles>  (64) 
Cc1cc(C(N)=O)nn1CCCC(=O)N1CCN(c2ccccc2F)CC1

>  <score_type>  (64) 
oracle

>  <origin>  (64) 
adg

>  <m_score__min__energy>  (64) 
-10.56

>  <m_primary>  (64) 
energy

$$$$
64:0
     RDKit          3D

 36 38  0  0  0  0  0  0  0  0999 V2000
   56.5110   27.3320   47.1040 H   0  0  0  0  0  0  0  0  0  0  0  0
   57.4610   27.3370   47.4560 O   0  0  0  0  0  0  0  0  0  0  0  0
   58.5410   27.6990   46.6530 C   0  0  0  0  0  0  0  0  0  0  0  0
   59.7500   26.9990   46.7890 C   0  0  0  0  0  0  0  0  0  0  0  0
   59.8357   26.2011   47.5414 H   0  0  0  0  0  0  0  0  0  0  0  0
   60.8430   27.3050   45.9800 C   0  0  0  0  0  0  0  0  0  0  0  0
   61.7853   26.7493   46.0953 H   0  0  0  0  0  0  0  0  0  0  0  0
   60.7420   28.3150   45.0250 C   0  0  0  0  0  0  0  0  0  0  0  0
   61.6039   28.5531   44.3844 H   0  0  0  0  0  0  0  0  0  0  0  0
   59.5490   29.0250   44.8800 C   0  0  0  0  0  0  0  0  0  0  0  0
   59.4799   29.8190   44.1219 H   0  0  0  0  0  0  0  0  0  0  0  0
   58.4320   28.7400   45.6900 C   0  0  0  0  0  0  0  0  0  0  0  0
   57.1750   29.5780   45.4570 C   0  0  2  0  0  0  0  0  0  0  0  0
   56.9937   30.0391   46.4391 H   0  0  0  0  0  0  0  0  0  0  0  0
   55.9070   28.8100   45.1800 C   0  0  0  0  0  0  0  0  0  0  0  0
   54.9440   29.3400   44.5670 O   0  0  0  0  0  0  0  0  0  0  0  0
   55.7940   27.4960   45.6160 O   0  0  0  0  0  0  0  0  0  0  0  0
   57.3950   30.6640   44.4610 N   0  0  0  0  0  0  0  0  0  0  0  0
   57.0270   30.4110   43.1620 C   0  0  0  0  0  0  0  0  0  0  0  0
   56.5773   29.4393   42.9098 H   0  0  0  0  0  0  0  0  0  0  0  0
   57.2110   31.3590   42.1560 C   0  0  0  0  0  0  0  0  0  0  0  0
   56.9052   31.1371   41.1229 H   0  0  0  0  0  0  0  0  0  0  0  0
   57.7830   32.5850   42.4680 C   0  0  0  0  0  0  0  0  0  0  0  0
   57.9281   33.3434   41.6846 H   0  0  0  0  0  0  0  0  0  0  0  0
   58.1710   32.8480   43.7760 C   0  0  0  0  0  0  0  0  0  0  0  0
   58.6189   33.8197   44.0314 H   0  0  0  0  0  0  0  0  0  0  0  0
   57.9920   31.8750   44.7720 C   0  0  0  0  0  0  0  0  0  0  0  0
   58.3960   32.2320   46.1470 C   0  0  0  0  0  0  0  0  0  0  0  0
   57.6439   32.1391   46.9443 H   0  0  0  0  0  0  0  0  0  0  0  0
   59.6200   32.6620   46.4870 C   0  0  0  0  0  0  0  0  0  0  0  0
   60.8620   31.5230   47.1070 S   0  0  0  0  0  0  0  0  0  0  0  0
   61.9850   32.9190   47.2160 C   0  0  0  0  0  0  0  0  0  0  0  0
   63.1660   32.7930   47.6340 O   0  0  0  0  0  0  0  0  0  0  0  0
   61.4750   34.1790   46.8090 N   0  0  0  0  0  0  0  0  0  0  0  0
   60.1310   34.0340   46.3910 C   0  0  0  0  0  0  0  0  0  0  0  0
   59.4660   35.0150   45.9640 O   0  0  0  0  0  0  0  0  0  0  0  0
  1  2  1  0
  2  3  1  0
  3  4  2  0
  4  5  1  0
  4  6  1  0
  6  7  1  0
  6  8  2  0
  8  9  1  0
  8 10  1  0
 10 11  1  0
 10 12  2  0
 12 13  1  0
 13 14  1  1
 13 15  1  0
 15 16  2  0
 15 17  1  0
 13 18  1  0
 18 19  2  0
 19 20  1  0
 19 21  1  0
 21 22  1  0
 21 23  2  0
 23 24  1  0
 23 25  1  0
 25 26  1  0
 25 27  2  0
 27 28  1  0
 28 29  1  0
 28 30  2  0
 30 31  1  0
 31 32  1  0
 32 33  2  0
 32 34  1  0
 34 35  1  0
 35 36  2  0
 12  3  1  0
 27 18  1  0
 35 30  1  0
M  CHG  3  17  -1  18   1  34  -1
M  END
>  <UniqueID>  (65) 
62

>  <SMILES>  (65) 
O=C1[N-]C(=O)/C(=C\c2cccc[n+]2[C@@H](C(=O)[O-])c2ccccc2O)S1

>  <Energy>  (65) 
76.85496280146862

>  <Genealogy>  (65) 
O=C1[N-]C(=O)C(=Cc2cccc[n+]2C(C(=O)[O-])c2ccccc2O)S1 (protonated)
O=C1[N-]C(=O)C(=Cc2cccc[n+]2[C@@H](C(=O)[O-])c2ccccc2O)S1 (chirality)
O=C1[N-]C(=O)/C(=C\c2cccc[n+]2[C@@H](C(=O)[O-])c2ccccc2O)S1 (cis-trans isomerization)
O=C1[N-]C(=O)/C(=C\c2cccc[n+]2[C@@H](C(=O)[O-])c2ccccc2O)S1 (3D coordinates assigned)
O=C1[N-]C(=O)/C(=C\c2cccc[n+]2[C@@H](C(=O)[O-])c2ccccc2O)S1 (nonaromatic ring conformer: 76.85496280146862 kcal/mol)

>  <smiles>  (65) 
O=C1NC(=O)C(=Cc2cccc[n+]2C(C(=O)[O-])c2ccccc2O)S1

>  <score_type>  (65) 
oracle

>  <origin>  (65) 
adg

>  <m_score__min__energy>  (65) 
-8.8599999999999994

>  <m_primary>  (65) 
energy

$$$$
65:0
     RDKit          3D

 45 47  0  0  0  0  0  0  0  0999 V2000
   60.2299   27.6224   47.2322 H   0  0  0  0  0  0  0  0  0  0  0  0
   60.3630   28.7140   47.2070 C   0  0  0  0  0  0  0  0  0  0  0  0
   61.0971   29.1940   47.8708 H   0  0  0  0  0  0  0  0  0  0  0  0
   59.6260   29.4640   46.3620 C   0  0  0  0  0  0  0  0  0  0  0  0
   59.8480   30.8560   46.3820 C   0  0  0  0  0  0  0  0  0  0  0  0
   60.6414   31.2626   47.0264 H   0  0  0  0  0  0  0  0  0  0  0  0
   59.0840   31.7360   45.6020 C   0  0  0  0  0  0  0  0  0  0  0  0
   59.2950   33.1280   45.6240 O   0  0  0  0  0  0  0  0  0  0  0  0
   59.1610   33.9740   46.7670 C   0  0  0  0  0  0  0  0  0  0  0  0
   58.9938   35.0085   46.4326 H   0  0  0  0  0  0  0  0  0  0  0  0
   58.3084   33.6239   47.3675 H   0  0  0  0  0  0  0  0  0  0  0  0
   60.4030   33.9240   47.6160 C   0  0  0  0  0  0  0  0  0  0  0  0
   60.3300   34.2430   48.9800 C   0  0  0  0  0  0  0  0  0  0  0  0
   59.3713   34.5421   49.4289 H   0  0  0  0  0  0  0  0  0  0  0  0
   61.4820   34.1780   49.7620 C   0  0  0  0  0  0  0  0  0  0  0  0
   61.4336   34.4178   50.8345 H   0  0  0  0  0  0  0  0  0  0  0  0
   62.6950   33.8090   49.1840 C   0  0  0  0  0  0  0  0  0  0  0  0
   63.6047   33.7434   49.7989 H   0  0  0  0  0  0  0  0  0  0  0  0
   62.7470   33.5220   47.8130 C   0  0  0  0  0  0  0  0  0  0  0  0
   64.0380   33.0870   47.1850 C   0  0  0  0  0  0  0  0  0  0  0  0
   64.7650   32.8420   47.9733 H   0  0  0  0  0  0  0  0  0  0  0  0
   63.8611   32.1989   46.5606 H   0  0  0  0  0  0  0  0  0  0  0  0
   64.4346   33.9011   46.5606 H   0  0  0  0  0  0  0  0  0  0  0  0
   61.6050   33.5760   47.0670 N   0  0  0  0  0  0  0  0  0  0  0  0
   61.6530   33.3400   46.0490 H   0  0  0  0  0  0  0  0  0  0  0  0
   58.0820   31.2200   44.7710 C   0  0  0  0  0  0  0  0  0  0  0  0
   57.2690   32.1360   43.8850 C   0  0  0  0  0  0  0  0  0  0  0  0
   56.2137   31.8274   43.9191 H   0  0  0  0  0  0  0  0  0  0  0  0
   57.3783   33.1679   44.2501 H   0  0  0  0  0  0  0  0  0  0  0  0
   57.7620   32.0730   42.4430 C   0  0  0  0  0  0  0  0  0  0  0  0
   58.8531   31.9336   42.4343 H   0  0  0  0  0  0  0  0  0  0  0  0
   57.2804   31.2291   41.9274 H   0  0  0  0  0  0  0  0  0  0  0  0
   57.5081   33.0109   41.9274 H   0  0  0  0  0  0  0  0  0  0  0  0
   57.8750   29.8370   44.7030 C   0  0  0  0  0  0  0  0  0  0  0  0
   57.1096   29.4457   44.0166 H   0  0  0  0  0  0  0  0  0  0  0  0
   58.6200   28.9270   45.4900 C   0  0  0  0  0  0  0  0  0  0  0  0
   58.4120   27.5880   45.3600 C   0  0  0  0  0  0  0  0  0  0  0  0
   59.2196   26.9981   44.9019 H   0  0  0  0  0  0  0  0  0  0  0  0
   57.1960   26.8540   45.7800 C   0  0  0  0  0  0  0  0  0  0  0  0
   57.1700   25.5850   46.2290 N   0  0  0  0  0  0  0  0  0  0  0  0
   55.8520   25.3260   46.3650 C   0  0  0  0  0  0  0  0  0  0  0  0
   55.4180   24.2210   46.7810 O   0  0  0  0  0  0  0  0  0  0  0  0
   55.0370   26.3420   46.0090 N   0  0  0  0  0  0  0  0  0  0  0  0
   55.9030   27.2940   45.6300 C   0  0  0  0  0  0  0  0  0  0  0  0
   55.5180   28.5420   45.1540 O   0  0  0  0  0  0  0  0  0  0  0  0
  1  2  1  0
  2  3  1  0
  2  4  2  0
  4  5  1  0
  5  6  1  0
  5  7  2  0
  7  8  1  0
  8  9  1  0
  9 10  1  0
  9 11  1  0
  9 12  1  0
 12 13  2  0
 13 14  1  0
 13 15  1  0
 15 16  1  0
 15 17  2  0
 17 18  1  0
 17 19  1  0
 19 20  1  0
 20 21  1  0
 20 22  1  0
 20 23  1  0
 19 24  2  0
 24 25  1  0
  7 26  1  0
 26 27  1  0
 27 28  1  0
 27 29  1  0
 27 30  1  0
 30 31  1  0
 30 32  1  0
 30 33  1  0
 26 34  2  0
 34 35  1  0
 34 36  1  0
 36 37  2  0
 37 38  1  0
 37 39  1  0
 39 40  1  0
 40 41  1  0
 41 42  2  0
 41 43  1  0
 43 44  1  0
 44 45  1  0
 36  4  1  0
 44 39  2  0
 24 12  1  0
M  CHG  4  24   1  40  -1  43  -1  45  -1
M  END
>  <UniqueID>  (66) 
63

>  <SMILES>  (66) 
C=c1cc(OCc2cccc(C)[nH+]2)c(CC)c/c1=C\c1[n-]c(=O)[n-]c1[O-]

>  <Energy>  (66) 
88.09399946097582

>  <Genealogy>  (66) 
C=c1cc(OCc2cccc(C)[nH+]2)c(CC)cc1=Cc1[n-]c(=O)[n-]c1[O-] (protonated)
C=c1cc(OCc2cccc(C)[nH+]2)c(CC)c/c1=C\c1[n-]c(=O)[n-]c1[O-] (cis-trans isomerization)
C=c1cc(OCc2cccc(C)[nH+]2)c(CC)c/c1=C\c1[n-]c(=O)[n-]c1[O-] (3D coordinates assigned)
C=c1cc(OCc2cccc(C)[nH+]2)c(CC)c/c1=C\c1[n-]c(=O)[n-]c1[O-] (optimized conformer: 88.09399946097582 kcal/mol)

>  <smiles>  (66) 
C=c1cc(OCc2cccc(C)n2)c(CC)cc1=Cc1[nH]c(=O)[nH]c1O

>  <score_type>  (66) 
oracle

>  <origin>  (66) 
adg

>  <m_score__min__energy>  (66) 
-14.210000000000001

>  <m_primary>  (66) 
energy

$$$$
66:0
     RDKit          3D

 48 50  0  0  0  0  0  0  0  0999 V2000
   57.8550   28.0860   43.7510 C   0  0  0  0  0  0  0  0  0  0  0  0
   58.3950   27.3910   44.7660 C   0  0  0  0  0  0  0  0  0  0  0  0
   58.0720   26.0790   45.1490 C   0  0  0  0  0  0  0  0  0  0  0  0
   57.3600   25.1230   44.5220 C   0  0  0  0  0  0  0  0  0  0  0  0
   56.0130   24.6680   44.9080 C   0  0  0  0  0  0  0  0  0  0  0  0
   55.5690   23.4050   44.7740 N   0  0  0  0  0  0  0  0  0  0  0  0
   54.3610   23.4330   45.3750 C   0  0  0  0  0  0  0  0  0  0  0  0
   53.6140   22.4220   45.4450 O   0  0  0  0  0  0  0  0  0  0  0  0
   54.0190   24.6260   45.9060 N   0  0  0  0  0  0  0  0  0  0  0  0
   55.0810   25.3960   45.6140 C   0  0  0  0  0  0  0  0  0  0  0  0
   55.1850   26.7320   45.9890 O   0  0  0  0  0  0  0  0  0  0  0  0
   58.6540   25.8870   46.3890 C   0  0  0  0  0  0  0  0  0  0  0  0
   59.3590   27.0340   46.6890 C   0  0  0  0  0  0  0  0  0  0  0  0
   60.0800   27.2480   47.9630 C   0  0  0  0  0  0  0  0  0  0  0  0
   60.8410   26.3450   48.4070 O   0  0  0  0  0  0  0  0  0  0  0  0
   59.9780   28.5000   48.6650 N   0  0  0  0  0  0  0  0  0  0  0  0
   61.1220   28.9870   49.4470 C   0  0  0  0  0  0  0  0  0  0  0  0
   61.1840   30.5200   49.4080 C   0  0  0  0  0  0  0  0  0  0  0  0
   59.8380   31.1550   49.7970 C   0  0  0  0  0  0  0  0  0  0  0  0
   59.5700   30.8740   51.2140 N   0  0  0  0  0  0  0  0  0  0  0  0
   57.9290   31.2300   51.6870 S   0  0  0  0  0  0  0  0  0  0  0  0
   57.8000   31.7800   53.3800 C   0  0  0  0  0  0  0  0  0  0  0  0
   57.1130   29.9780   51.5390 O   0  0  0  0  0  0  0  0  0  0  0  0
   57.3600   32.2840   50.7790 O   0  0  0  0  0  0  0  0  0  0  0  0
   58.7260   30.6050   48.8800 C   0  0  0  0  0  0  0  0  0  0  0  0
   58.6560   29.0780   48.9440 C   0  0  0  0  0  0  0  0  0  0  0  0
   59.2280   27.9400   45.6890 N   0  0  0  0  0  0  0  0  0  0  0  0
   59.8170   29.2850   45.6560 C   0  0  0  0  0  0  0  0  0  0  0  0
   58.1919   29.1131   43.5471 H   0  0  0  0  0  0  0  0  0  0  0  0
   57.0760   27.6280   43.1238 H   0  0  0  0  0  0  0  0  0  0  0  0
   57.8232   24.6414   43.6482 H   0  0  0  0  0  0  0  0  0  0  0  0
   55.1340   27.4770   45.3050 H   0  0  0  0  0  0  0  0  0  0  0  0
   58.5703   24.9883   47.0178 H   0  0  0  0  0  0  0  0  0  0  0  0
   61.0153   28.6551   50.4903 H   0  0  0  0  0  0  0  0  0  0  0  0
   62.0483   28.5816   49.0139 H   0  0  0  0  0  0  0  0  0  0  0  0
   61.9565   30.8633   50.1118 H   0  0  0  0  0  0  0  0  0  0  0  0
   61.4228   30.8270   48.3791 H   0  0  0  0  0  0  0  0  0  0  0  0
   59.8701   32.2464   49.6639 H   0  0  0  0  0  0  0  0  0  0  0  0
   57.9981   30.9352   54.0561 H   0  0  0  0  0  0  0  0  0  0  0  0
   58.5356   32.5770   53.5637 H   0  0  0  0  0  0  0  0  0  0  0  0
   56.7868   32.1668   53.5637 H   0  0  0  0  0  0  0  0  0  0  0  0
   57.7594   31.0216   49.1997 H   0  0  0  0  0  0  0  0  0  0  0  0
   58.9535   30.8986   47.8446 H   0  0  0  0  0  0  0  0  0  0  0  0
   58.3290   28.7705   49.9483 H   0  0  0  0  0  0  0  0  0  0  0  0
   57.9395   28.7184   48.1908 H   0  0  0  0  0  0  0  0  0  0  0  0
   59.9734   29.6421   46.6846 H   0  0  0  0  0  0  0  0  0  0  0  0
   60.7821   29.2498   45.1293 H   0  0  0  0  0  0  0  0  0  0  0  0
   59.1367   29.9704   45.1293 H   0  0  0  0  0  0  0  0  0  0  0  0
  1  2  2  0
  2  3  1  0
  3  4  2  3
  4  5  1  0
  5  6  1  0
  6  7  1  0
  7  8  2  0
  7  9  1  0
  9 10  1  0
 10 11  1  0
  3 12  1  0
 12 13  2  0
 13 14  1  0
 14 15  2  0
 14 16  1  0
 16 17  1  0
 17 18  1  0
 18 19  1  0
 19 20  1  0
 20 21  1  0
 21 22  1  0
 21 23  2  0
 21 24  2  0
 19 25  1  0
 25 26  1  0
 13 27  1  0
 27 28  1  0
 27  2  1  0
 10  5  2  0
 26 16  1  0
  1 29  1  0
  1 30  1  0
  4 31  1  0
 11 32  1  0
 12 33  1  0
 17 34  1  0
 17 35  1  0
 18 36  1  0
 18 37  1  0
 19 38  1  0
 22 39  1  0
 22 40  1  0
 22 41  1  0
 25 42  1  0
 25 43  1  0
 26 44  1  0
 26 45  1  0
 28 46  1  0
 28 47  1  0
 28 48  1  0
M  CHG  3   6  -1   9  -1  20  -1
M  END
>  <UniqueID>  (67) 
64

>  <SMILES>  (67) 
C=c1c(=Cc2[n-]c(=O)[n-]c2O)cc(C(=O)N2CCC([N-]S(C)(=O)=O)CC2)n1C

>  <Energy>  (67) 
115.4607563780453

>  <Genealogy>  (67) 
C=c1c(=Cc2[n-]c(=O)[n-]c2O)cc(C(=O)N2CCC([N-]S(C)(=O)=O)CC2)n1C (protonated)
C=c1c(=Cc2[n-]c(=O)[n-]c2O)cc(C(=O)N2CCC([N-]S(C)(=O)=O)CC2)n1C (3D coordinates assigned)
C=c1c(=Cc2[n-]c(=O)[n-]c2O)cc(C(=O)N2CCC([N-]S(C)(=O)=O)CC2)n1C (nonaromatic ring conformer: 115.4607563780453 kcal/mol)

>  <smiles>  (67) 
C=c1c(=Cc2[nH]c(=O)[nH]c2O)cc(C(=O)N2CCC(NS(C)(=O)=O)CC2)n1C

>  <score_type>  (67) 
oracle

>  <origin>  (67) 
adg

>  <m_score__min__energy>  (67) 
-13.82

>  <m_primary>  (67) 
energy

$$$$
67:0
     RDKit          3D

 59 62  0  0  0  0  0  0  0  0999 V2000
   62.9710   33.8370   46.7080 C   0  0  0  0  0  0  0  0  0  0  0  0
   62.4070   32.8350   47.7220 C   0  0  1  0  0  0  0  0  0  0  0  0
   63.4260   32.4990   48.8330 C   0  0  0  0  0  0  0  0  0  0  0  0
   63.4620   33.5020   49.9050 N   0  0  0  0  0  0  0  0  0  0  0  0
   64.5820   33.5120   50.8090 C   0  0  0  0  0  0  0  0  0  0  0  0
   64.9690   34.6090   51.2990 O   0  0  0  0  0  0  0  0  0  0  0  0
   65.3080   32.2650   51.1520 C   0  0  0  0  0  0  0  0  0  0  0  0
   66.5230   31.9440   50.5200 C   0  0  0  0  0  0  0  0  0  0  0  0
   67.2160   30.7780   50.8670 C   0  0  0  0  0  0  0  0  0  0  0  0
   66.7080   29.9250   51.8490 C   0  0  0  0  0  0  0  0  0  0  0  0
   65.5090   30.2410   52.4930 C   0  0  0  0  0  0  0  0  0  0  0  0
   64.8120   31.4070   52.1500 C   0  0  0  0  0  0  0  0  0  0  0  0
   62.4490   34.5580   49.9830 C   0  0  0  0  0  0  0  0  0  0  0  0
   61.0800   34.0180   49.5740 C   0  0  0  0  0  0  0  0  0  0  0  0
   61.1260   33.3210   48.2750 N   0  0  0  0  0  0  0  0  0  0  0  0
   59.8970   33.1880   47.5190 C   0  0  0  0  0  0  0  0  0  0  0  0
   59.1740   34.2010   47.3060 O   0  0  0  0  0  0  0  0  0  0  0  0
   59.4540   31.8930   46.9720 C   0  0  0  0  0  0  0  0  0  0  0  0
   59.2530   31.7470   45.5940 C   0  0  0  0  0  0  0  0  0  0  0  0
   58.8420   30.5190   45.0680 C   0  0  0  0  0  0  0  0  0  0  0  0
   58.6110   29.4180   45.9140 C   0  0  0  0  0  0  0  0  0  0  0  0
   58.1860   28.1150   45.3390 C   0  0  0  0  0  0  0  0  0  0  0  0
   57.9750   28.0270   44.0960 O   0  0  0  0  0  0  0  0  0  0  0  0
   58.0360   26.9490   46.1670 N   0  0  0  0  0  0  0  0  0  0  0  0
   57.4610   25.7270   45.6790 C   0  0  0  0  0  0  0  0  0  0  0  0
   58.3150   24.6660   45.3380 C   0  0  0  0  0  0  0  0  0  0  0  0
   57.7970   23.4840   44.8070 C   0  0  0  0  0  0  0  0  0  0  0  0
   56.4200   23.3420   44.6240 C   0  0  0  0  0  0  0  0  0  0  0  0
   55.5570   24.3760   44.9890 C   0  0  0  0  0  0  0  0  0  0  0  0
   56.0600   25.5680   45.5370 C   0  0  0  0  0  0  0  0  0  0  0  0
   55.1410   26.5660   45.9980 N   0  0  0  0  0  0  0  0  0  0  0  0
   58.7720   29.5850   47.3020 C   0  0  0  0  0  0  0  0  0  0  0  0
   59.1910   30.8130   47.8250 C   0  0  0  0  0  0  0  0  0  0  0  0
   63.4424   34.6744   47.2433 H   0  0  0  0  0  0  0  0  0  0  0  0
   63.7203   33.3372   46.0766 H   0  0  0  0  0  0  0  0  0  0  0  0
   62.1550   34.2183   46.0766 H   0  0  0  0  0  0  0  0  0  0  0  0
   62.2092   31.8929   47.1898 H   0  0  0  0  0  0  0  0  0  0  0  0
   63.1572   31.5269   49.2721 H   0  0  0  0  0  0  0  0  0  0  0  0
   64.4229   32.4799   48.3685 H   0  0  0  0  0  0  0  0  0  0  0  0
   66.9312   32.6133   49.7483 H   0  0  0  0  0  0  0  0  0  0  0  0
   68.1634   30.5331   50.3646 H   0  0  0  0  0  0  0  0  0  0  0  0
   67.2508   29.0060   52.1150 H   0  0  0  0  0  0  0  0  0  0  0  0
   65.1114   29.5728   53.2711 H   0  0  0  0  0  0  0  0  0  0  0  0
   63.8712   31.6529   52.6643 H   0  0  0  0  0  0  0  0  0  0  0  0
   62.3962   34.9333   51.0156 H   0  0  0  0  0  0  0  0  0  0  0  0
   62.7297   35.3713   49.2976 H   0  0  0  0  0  0  0  0  0  0  0  0
   60.7323   33.3128   50.3432 H   0  0  0  0  0  0  0  0  0  0  0  0
   60.3933   34.8719   49.4770 H   0  0  0  0  0  0  0  0  0  0  0  0
   59.4192   32.6023   44.9226 H   0  0  0  0  0  0  0  0  0  0  0  0
   58.6977   30.4120   43.9828 H   0  0  0  0  0  0  0  0  0  0  0  0
   58.5870   26.8990   47.0540 H   0  0  0  0  0  0  0  0  0  0  0  0
   59.3997   24.7671   45.4904 H   0  0  0  0  0  0  0  0  0  0  0  0
   58.4748   22.6625   44.5320 H   0  0  0  0  0  0  0  0  0  0  0  0
   56.0154   22.4148   44.1920 H   0  0  0  0  0  0  0  0  0  0  0  0
   54.4728   24.2568   44.8464 H   0  0  0  0  0  0  0  0  0  0  0  0
   55.1770   27.5380   45.6160 H   0  0  0  0  0  0  0  0  0  0  0  0
   54.3570   26.3300   46.6450 H   0  0  0  0  0  0  0  0  0  0  0  0
   58.5669   28.7439   47.9806 H   0  0  0  0  0  0  0  0  0  0  0  0
   59.3146   30.9313   48.9116 H   0  0  0  0  0  0  0  0  0  0  0  0
  1  2  1  0
  2  3  1  0
  3  4  1  0
  4  5  1  0
  5  6  2  0
  5  7  1  0
  7  8  2  0
  8  9  1  0
  9 10  2  0
 10 11  1  0
 11 12  2  0
  4 13  1  0
 13 14  1  0
 14 15  1  0
 15 16  1  0
 16 17  2  0
 16 18  1  0
 18 19  2  0
 19 20  1  0
 20 21  2  0
 21 22  1  0
 22 23  2  0
 22 24  1  0
 24 25  1  0
 25 26  2  0
 26 27  1  0
 27 28  2  0
 28 29  1  0
 29 30  2  0
 30 31  1  0
 21 32  1  0
 32 33  2  0
 15  2  1  0
 33 18  1  0
 12  7  1  0
 30 25  1  0
  1 34  1  0
  1 35  1  0
  1 36  1  0
  2 37  1  6
  3 38  1  0
  3 39  1  0
  8 40  1  0
  9 41  1  0
 10 42  1  0
 11 43  1  0
 12 44  1  0
 13 45  1  0
 13 46  1  0
 14 47  1  0
 14 48  1  0
 19 49  1  0
 20 50  1  0
 24 51  1  0
 26 52  1  0
 27 53  1  0
 28 54  1  0
 29 55  1  0
 31 56  1  0
 31 57  1  0
 32 58  1  0
 33 59  1  0
M  END
>  <UniqueID>  (68) 
65

>  <SMILES>  (68) 
C[C@H]1CN(C(=O)c2ccccc2)CCN1C(=O)c1ccc(C(=O)Nc2ccccc2N)cc1

>  <Energy>  (68) 
82.56455918538718

>  <Genealogy>  (68) 
C[C@H]1CN(C(=O)c2ccccc2)CCN1C(=O)c1ccc(C(=O)Nc2ccccc2N)cc1 (chirality)
C[C@H]1CN(C(=O)c2ccccc2)CCN1C(=O)c1ccc(C(=O)Nc2ccccc2N)cc1 (3D coordinates assigned)
C[C@H]1CN(C(=O)c2ccccc2)CCN1C(=O)c1ccc(C(=O)Nc2ccccc2N)cc1 (nonaromatic ring conformer: 82.56455918538718 kcal/mol)

>  <smiles>  (68) 
CC1CN(C(=O)c2ccccc2)CCN1C(=O)c1ccc(C(=O)Nc2ccccc2N)cc1

>  <score_type>  (68) 
oracle

>  <origin>  (68) 
adg

>  <m_score__min__energy>  (68) 
-9.1500000000000004

>  <m_primary>  (68) 
energy

$$$$
68:0
     RDKit          3D

 49 52  0  0  0  0  0  0  0  0999 V2000
   53.1680   28.7950   54.8750 C   0  0  0  0  0  0  0  0  0  0  0  0
   53.8400   29.2230   53.8000 C   0  0  0  0  0  0  0  0  0  0  0  0
   55.1740   29.0610   53.6860 N   0  0  0  0  0  0  0  0  0  0  0  0
   55.5640   29.7350   52.5880 C   0  0  0  0  0  0  0  0  0  0  0  0
   56.9650   29.8520   52.1360 C   0  0  0  0  0  0  0  0  0  0  0  0
   57.8010   28.9770   52.4880 O   0  0  0  0  0  0  0  0  0  0  0  0
   57.3830   30.9360   51.2890 N   0  0  0  0  0  0  0  0  0  0  0  0
   57.0760   32.3230   51.6320 C   0  0  0  0  0  0  0  0  0  0  0  0
   58.3630   33.0450   52.0500 C   0  0  0  0  0  0  0  0  0  0  0  0
   59.4800   32.8230   51.1050 N   0  0  0  0  0  0  0  0  0  0  0  0
   59.7180   33.8800   50.1000 C   0  0  0  0  0  0  0  0  0  0  0  0
   59.6640   33.3860   48.6740 C   0  0  0  0  0  0  0  0  0  0  0  0
   58.4600   33.4280   47.9530 C   0  0  0  0  0  0  0  0  0  0  0  0
   58.4150   32.9800   46.6290 C   0  0  0  0  0  0  0  0  0  0  0  0
   59.5740   32.5040   46.0110 C   0  0  0  0  0  0  0  0  0  0  0  0
   60.7810   32.4800   46.7140 C   0  0  0  0  0  0  0  0  0  0  0  0
   60.8300   32.9270   48.0380 C   0  0  0  0  0  0  0  0  0  0  0  0
   59.6950   31.4280   50.6640 C   0  0  0  0  0  0  0  0  0  0  0  0
   58.3930   30.7290   50.2560 C   0  0  0  0  0  0  0  0  0  0  0  0
   54.4790   30.3420   51.9850 C   0  0  0  0  0  0  0  0  0  0  0  0
   53.3630   29.9890   52.7270 C   0  0  0  0  0  0  0  0  0  0  0  0
   52.1130   30.3620   52.3910 C   0  0  0  0  0  0  0  0  0  0  0  0
   51.6870   30.8370   51.0670 C   0  0  0  0  0  0  0  0  0  0  0  0
   51.5950   30.0430   49.9850 N   0  0  0  0  0  0  0  0  0  0  0  0
   51.0510   30.8520   49.0510 C   0  0  0  0  0  0  0  0  0  0  0  0
   50.8200   30.4680   47.8750 O   0  0  0  0  0  0  0  0  0  0  0  0
   50.7630   32.1000   49.4770 N   0  0  0  0  0  0  0  0  0  0  0  0
   51.1570   32.0700   50.7600 C   0  0  0  0  0  0  0  0  0  0  0  0
   51.0110   33.1370   51.6380 O   0  0  0  0  0  0  0  0  0  0  0  0
   52.0797   28.9422   54.9379 H   0  0  0  0  0  0  0  0  0  0  0  0
   53.7038   28.2959   55.6958 H   0  0  0  0  0  0  0  0  0  0  0  0
   55.7980   28.5660   54.3620 H   0  0  0  0  0  0  0  0  0  0  0  0
   56.6397   32.8286   50.7579 H   0  0  0  0  0  0  0  0  0  0  0  0
   56.3578   32.3436   52.4649 H   0  0  0  0  0  0  0  0  0  0  0  0
   58.1583   34.1244   52.1042 H   0  0  0  0  0  0  0  0  0  0  0  0
   58.6689   32.6372   53.0247 H   0  0  0  0  0  0  0  0  0  0  0  0
   58.9514   34.6586   50.2269 H   0  0  0  0  0  0  0  0  0  0  0  0
   60.7359   34.2610   50.2696 H   0  0  0  0  0  0  0  0  0  0  0  0
   57.5483   33.8149   48.4316 H   0  0  0  0  0  0  0  0  0  0  0  0
   57.4659   33.0024   46.0735 H   0  0  0  0  0  0  0  0  0  0  0  0
   59.5362   32.1481   44.9709 H   0  0  0  0  0  0  0  0  0  0  0  0
   61.6940   32.1090   46.2254 H   0  0  0  0  0  0  0  0  0  0  0  0
   61.7850   32.9193   48.5838 H   0  0  0  0  0  0  0  0  0  0  0  0
   60.3771   31.4329   49.8010 H   0  0  0  0  0  0  0  0  0  0  0  0
   60.1181   30.8724   51.5139 H   0  0  0  0  0  0  0  0  0  0  0  0
   58.0348   31.1484   49.3042 H   0  0  0  0  0  0  0  0  0  0  0  0
   58.5783   29.6513   50.1364 H   0  0  0  0  0  0  0  0  0  0  0  0
   54.4975   30.9812   51.0900 H   0  0  0  0  0  0  0  0  0  0  0  0
   51.3442   30.3062   53.1758 H   0  0  0  0  0  0  0  0  0  0  0  0
  1  2  2  0
  2  3  1  0
  3  4  1  0
  4  5  1  0
  5  6  2  0
  5  7  1  0
  7  8  1  0
  8  9  1  0
  9 10  1  0
 10 11  1  0
 11 12  1  0
 12 13  2  0
 13 14  1  0
 14 15  2  0
 15 16  1  0
 16 17  2  0
 10 18  1  0
 18 19  1  0
  4 20  2  0
 20 21  1  0
 21 22  2  3
 22 23  1  0
 23 24  1  0
 24 25  1  0
 25 26  2  0
 25 27  1  0
 27 28  1  0
 28 29  1  0
 21  2  1  0
 28 23  2  0
 19  7  1  0
 17 12  1  0
  1 30  1  0
  1 31  1  0
  3 32  1  0
  8 33  1  0
  8 34  1  0
  9 35  1  0
  9 36  1  0
 11 37  1  0
 11 38  1  0
 13 39  1  0
 14 40  1  0
 15 41  1  0
 16 42  1  0
 17 43  1  0
 18 44  1  0
 18 45  1  0
 19 46  1  0
 19 47  1  0
 20 48  1  0
 22 49  1  0
M  CHG  3  24  -1  27  -1  29  -1
M  END
>  <UniqueID>  (69) 
66

>  <SMILES>  (69) 
C=c1[nH]c(C(=O)N2CCN(Cc3ccccc3)CC2)cc1=Cc1[n-]c(=O)[n-]c1[O-]

>  <Energy>  (69) 
131.79743016110325

>  <Genealogy>  (69) 
C=c1[nH]c(C(=O)N2CCN(Cc3ccccc3)CC2)cc1=Cc1[n-]c(=O)[n-]c1[O-] (protonated)
C=c1[nH]c(C(=O)N2CCN(Cc3ccccc3)CC2)cc1=Cc1[n-]c(=O)[n-]c1[O-] (3D coordinates assigned)
C=c1[nH]c(C(=O)N2CCN(Cc3ccccc3)CC2)cc1=Cc1[n-]c(=O)[n-]c1[O-] (nonaromatic ring conformer: 131.79743016110325 kcal/mol)

>  <smiles>  (69) 
C=c1[nH]c(C(=O)N2CCN(Cc3ccccc3)CC2)cc1=Cc1[nH]c(=O)[nH]c1O

>  <score_type>  (69) 
oracle

>  <origin>  (69) 
adg

>  <m_score__min__energy>  (69) 
-18.100000000000001

>  <m_primary>  (69) 
energy

$$$$
69:0
     RDKit          3D

 53 56  0  0  0  0  0  0  0  0999 V2000
   55.8027   30.9483   43.3963 H   0  0  0  0  0  0  0  0  0  0  0  0
   55.4790   30.0350   43.9170 C   0  0  0  0  0  0  0  0  0  0  0  0
   54.4332   29.7019   43.8444 H   0  0  0  0  0  0  0  0  0  0  0  0
   56.3590   29.3280   44.6400 C   0  0  0  0  0  0  0  0  0  0  0  0
   55.8810   28.2120   45.2530 N   0  0  0  0  0  0  0  0  0  0  0  0
   56.6800   27.2920   45.8410 C   0  0  0  0  0  0  0  0  0  0  0  0
   56.2336   26.4320   46.3617 H   0  0  0  0  0  0  0  0  0  0  0  0
   58.0680   27.4290   45.7900 C   0  0  0  0  0  0  0  0  0  0  0  0
   58.9340   26.3730   46.3730 C   0  0  0  0  0  0  0  0  0  0  0  0
   59.3880   25.4620   45.6310 O   0  0  0  0  0  0  0  0  0  0  0  0
   59.2200   26.3220   47.7780 N   0  0  0  0  0  0  0  0  0  0  0  0
   59.8800   27.3440   48.5370 C   0  0  0  0  0  0  0  0  0  0  0  0
   60.5360   27.0560   49.7470 C   0  0  0  0  0  0  0  0  0  0  0  0
   60.5517   26.0252   50.1308 H   0  0  0  0  0  0  0  0  0  0  0  0
   61.1680   28.0760   50.4630 C   0  0  0  0  0  0  0  0  0  0  0  0
   61.6879   27.8449   51.4044 H   0  0  0  0  0  0  0  0  0  0  0  0
   61.1410   29.3880   49.9860 C   0  0  0  0  0  0  0  0  0  0  0  0
   61.6456   30.1868   50.5493 H   0  0  0  0  0  0  0  0  0  0  0  0
   60.4730   29.6900   48.7920 C   0  0  0  0  0  0  0  0  0  0  0  0
   60.4520   31.3440   48.1760 S   0  0  0  0  0  0  0  0  0  0  0  0
   60.2960   31.3100   46.6810 O   0  0  0  0  0  0  0  0  0  0  0  0
   59.2660   32.0700   48.7500 O   0  0  0  0  0  0  0  0  0  0  0  0
   61.9150   32.2070   48.5870 N   0  0  0  0  0  0  0  0  0  0  0  0
   62.4330   31.6180   49.2810 H   0  0  0  0  0  0  0  0  0  0  0  0
   62.7610   32.3960   47.3910 C   0  0  0  0  0  0  0  0  0  0  0  0
   63.2159   31.4325   47.1177 H   0  0  0  0  0  0  0  0  0  0  0  0
   62.1285   32.7729   46.5737 H   0  0  0  0  0  0  0  0  0  0  0  0
   63.8820   33.4250   47.6550 C   0  0  0  0  0  0  0  0  0  0  0  0
   64.8243   33.0462   47.2325 H   0  0  0  0  0  0  0  0  0  0  0  0
   63.6013   34.3771   47.1811 H   0  0  0  0  0  0  0  0  0  0  0  0
   64.0530   33.6460   49.0400 O   0  0  0  0  0  0  0  0  0  0  0  0
   62.8930   34.2600   49.5770 C   0  0  0  0  0  0  0  0  0  0  0  0
   62.9847   34.2890   50.6728 H   0  0  0  0  0  0  0  0  0  0  0  0
   62.8224   35.2711   49.1495 H   0  0  0  0  0  0  0  0  0  0  0  0
   61.5960   33.5030   49.2080 C   0  0  0  0  0  0  0  0  0  0  0  0
   61.0048   33.3319   50.1197 H   0  0  0  0  0  0  0  0  0  0  0  0
   61.0215   34.1090   48.4920 H   0  0  0  0  0  0  0  0  0  0  0  0
   59.8320   28.6660   48.0790 C   0  0  0  0  0  0  0  0  0  0  0  0
   59.2876   28.9036   47.1532 H   0  0  0  0  0  0  0  0  0  0  0  0
   58.6140   28.5810   45.1910 C   0  0  0  0  0  0  0  0  0  0  0  0
   59.8700   28.7210   45.1670 O   0  0  0  0  0  0  0  0  0  0  0  0
   57.7660   29.6010   44.6790 C   0  0  0  0  0  0  0  0  0  0  0  0
   58.3320   30.7760   44.2870 C   0  0  0  0  0  0  0  0  0  0  0  0
   59.0956   30.7239   43.4969 H   0  0  0  0  0  0  0  0  0  0  0  0
   58.0140   32.1140   44.8260 C   0  0  0  0  0  0  0  0  0  0  0  0
   57.8150   33.2430   44.0570 C   0  0  0  0  0  0  0  0  0  0  0  0
   57.7877   33.2973   42.9587 H   0  0  0  0  0  0  0  0  0  0  0  0
   57.6570   34.2910   44.9430 C   0  0  0  0  0  0  0  0  0  0  0  0
   57.4632   35.3435   44.6886 H   0  0  0  0  0  0  0  0  0  0  0  0
   57.7900   33.7590   46.2110 C   0  0  0  0  0  0  0  0  0  0  0  0
   57.7197   34.3338   47.1462 H   0  0  0  0  0  0  0  0  0  0  0  0
   58.0180   32.4360   46.1350 N   0  0  0  0  0  0  0  0  0  0  0  0
   58.2010   31.7970   46.9400 H   0  0  0  0  0  0  0  0  0  0  0  0
  1  2  1  0
  2  3  1  0
  2  4  2  0
  4  5  1  0
  5  6  1  0
  6  7  1  0
  6  8  2  0
  8  9  1  0
  9 10  2  0
  9 11  1  0
 11 12  1  0
 12 13  2  0
 13 14  1  0
 13 15  1  0
 15 16  1  0
 15 17  2  0
 17 18  1  0
 17 19  1  0
 19 20  1  0
 20 21  2  0
 20 22  2  0
 20 23  1  0
 23 24  1  0
 23 25  1  0
 25 26  1  0
 25 27  1  0
 25 28  1  0
 28 29  1  0
 28 30  1  0
 28 31  1  0
 31 32  1  0
 32 33  1  0
 32 34  1  0
 32 35  1  0
 35 36  1  0
 35 37  1  0
 19 38  2  0
 38 39  1  0
  8 40  1  0
 40 41  2  0
 40 42  1  0
 42 43  2  0
 43 44  1  0
 43 45  1  0
 45 46  2  0
 46 47  1  0
 46 48  1  0
 48 49  1  0
 48 50  2  0
 50 51  1  0
 50 52  1  0
 52 53  1  0
 42  4  1  0
 52 45  1  0
 38 12  1  0
 35 23  1  0
M  CHG  3   5  -1  11  -1  23   1
M  END
>  <UniqueID>  (70) 
67

>  <SMILES>  (70) 
C=c1[n-]cc(C(=O)[N-]c2cccc(S(=O)(=O)[NH+]3CCOCC3)c2)c(=O)/c1=C/c1ccc[nH]1

>  <Energy>  (70) 
119.04355409772509

>  <Genealogy>  (70) 
C=c1[n-]cc(C(=O)[N-]c2cccc(S(=O)(=O)[NH+]3CCOCC3)c2)c(=O)c1=Cc1ccc[nH]1 (protonated)
C=c1[n-]cc(C(=O)[N-]c2cccc(S(=O)(=O)[NH+]3CCOCC3)c2)c(=O)/c1=C/c1ccc[nH]1 (cis-trans isomerization)
C=c1[n-]cc(C(=O)[N-]c2cccc(S(=O)(=O)[NH+]3CCOCC3)c2)c(=O)/c1=C/c1ccc[nH]1 (3D coordinates assigned)
C=c1[n-]cc(C(=O)[N-]c2cccc(S(=O)(=O)[NH+]3CCOCC3)c2)c(=O)/c1=C/c1ccc[nH]1 (nonaromatic ring conformer: 119.04355409772509 kcal/mol)

>  <smiles>  (70) 
C=c1[nH]cc(C(=O)Nc2cccc(S(=O)(=O)N3CCOCC3)c2)c(=O)c1=Cc1ccc[nH]1

>  <score_type>  (70) 
oracle

>  <origin>  (70) 
adg

>  <m_score__min__energy>  (70) 
-10.550000000000001

>  <m_primary>  (70) 
energy

$$$$
70:0
     RDKit          3D

 61 64  0  0  0  0  0  0  0  0999 V2000
   60.6915   26.2961   47.0146 H   0  0  0  0  0  0  0  0  0  0  0  0
   59.8320   25.8970   46.4560 C   0  0  0  0  0  0  0  0  0  0  0  0
   59.6352   24.8148   46.4489 H   0  0  0  0  0  0  0  0  0  0  0  0
   59.0220   26.7320   45.7820 C   0  0  0  0  0  0  0  0  0  0  0  0
   57.8990   26.3600   45.0340 C   0  0  0  0  0  0  0  0  0  0  0  0
   57.3740   25.1230   44.9130 C   0  0  0  0  0  0  0  0  0  0  0  0
   58.0604   24.3061   44.6457 H   0  0  0  0  0  0  0  0  0  0  0  0
   55.9490   24.7770   45.1110 C   0  0  0  0  0  0  0  0  0  0  0  0
   55.3920   23.5740   44.8880 N   0  0  0  0  0  0  0  0  0  0  0  0
   54.1070   23.7460   45.2650 C   0  0  0  0  0  0  0  0  0  0  0  0
   53.2500   22.8270   45.1930 O   0  0  0  0  0  0  0  0  0  0  0  0
   53.8120   24.9800   45.7240 N   0  0  0  0  0  0  0  0  0  0  0  0
   54.9900   25.6180   45.6250 C   0  0  0  0  0  0  0  0  0  0  0  0
   55.1850   26.9390   46.0020 O   0  0  0  0  0  0  0  0  0  0  0  0
   57.4180   27.5290   44.4610 C   0  0  0  0  0  0  0  0  0  0  0  0
   56.5414   27.6214   43.8029 H   0  0  0  0  0  0  0  0  0  0  0  0
   58.2480   28.5560   44.8730 C   0  0  0  0  0  0  0  0  0  0  0  0
   58.1320   29.9640   44.4080 C   0  0  0  0  0  0  0  0  0  0  0  0
   57.4640   30.2180   43.3660 O   0  0  0  0  0  0  0  0  0  0  0  0
   58.6820   31.0560   45.1870 N   0  0  0  0  0  0  0  0  0  0  0  0
   59.7180   30.9160   45.2670 H   0  0  0  0  0  0  0  0  0  0  0  0
   58.4880   32.3730   44.5090 C   0  0  0  0  0  0  0  0  0  0  0  0
   59.4780   32.8154   44.3241 H   0  0  0  0  0  0  0  0  0  0  0  0
   57.9317   32.1730   43.5813 H   0  0  0  0  0  0  0  0  0  0  0  0
   57.6500   33.3830   45.3210 C   0  0  0  0  0  0  0  0  0  0  0  0
   57.7525   34.3753   44.8574 H   0  0  0  0  0  0  0  0  0  0  0  0
   56.6089   33.0281   45.3102 H   0  0  0  0  0  0  0  0  0  0  0  0
   58.0680   33.4800   46.7390 N   0  0  0  0  0  0  0  0  0  0  0  0
   58.8850   34.6640   47.0770 C   0  0  0  0  0  0  0  0  0  0  0  0
   58.4399   35.5448   46.5911 H   0  0  0  0  0  0  0  0  0  0  0  0
   58.8907   34.7518   48.1735 H   0  0  0  0  0  0  0  0  0  0  0  0
   60.3630   34.5450   46.6200 C   0  0  0  0  0  0  0  0  0  0  0  0
   60.3777   34.1598   45.5898 H   0  0  0  0  0  0  0  0  0  0  0  0
   60.8053   35.5490   46.6999 H   0  0  0  0  0  0  0  0  0  0  0  0
   61.1780   33.6460   47.4660 N   0  0  0  0  0  0  0  0  0  0  0  0
   61.4750   34.2130   48.8010 C   0  0  0  0  0  0  0  0  0  0  0  0
   61.8466   35.2412   48.6797 H   0  0  0  0  0  0  0  0  0  0  0  0
   60.5509   34.2029   49.3975 H   0  0  0  0  0  0  0  0  0  0  0  0
   62.5310   33.3840   49.5300 C   0  0  0  0  0  0  0  0  0  0  0  0
   62.6970   33.8122   50.5295 H   0  0  0  0  0  0  0  0  0  0  0  0
   62.1693   32.3481   49.6086 H   0  0  0  0  0  0  0  0  0  0  0  0
   63.8610   33.3800   48.7580 C   0  0  0  0  0  0  0  0  0  0  0  0
   64.4784   34.2153   49.1200 H   0  0  0  0  0  0  0  0  0  0  0  0
   64.3405   32.4061   48.9358 H   0  0  0  0  0  0  0  0  0  0  0  0
   63.6770   33.5300   47.2380 C   0  0  0  0  0  0  0  0  0  0  0  0
   63.7499   34.5954   46.9743 H   0  0  0  0  0  0  0  0  0  0  0  0
   64.4631   32.9437   46.7398 H   0  0  0  0  0  0  0  0  0  0  0  0
   62.3160   32.9950   46.7710 C   0  0  0  0  0  0  0  0  0  0  0  0
   62.2185   33.1754   45.6903 H   0  0  0  0  0  0  0  0  0  0  0  0
   62.2809   31.9214   47.0079 H   0  0  0  0  0  0  0  0  0  0  0  0
   58.5610   32.2280   47.3520 C   0  0  0  0  0  0  0  0  0  0  0  0
   59.6599   32.2578   47.3898 H   0  0  0  0  0  0  0  0  0  0  0  0
   58.1347   32.1493   48.3630 H   0  0  0  0  0  0  0  0  0  0  0  0
   58.1260   31.0010   46.5540 C   0  0  0  0  0  0  0  0  0  0  0  0
   58.4894   30.0930   47.0574 H   0  0  0  0  0  0  0  0  0  0  0  0
   57.0278   30.9840   46.4935 H   0  0  0  0  0  0  0  0  0  0  0  0
   59.2090   28.0760   45.6980 N   0  0  0  0  0  0  0  0  0  0  0  0
   60.2620   28.8640   46.3530 C   0  0  0  0  0  0  0  0  0  0  0  0
   60.1546   28.7836   47.4448 H   0  0  0  0  0  0  0  0  0  0  0  0
   61.2480   28.4801   46.0523 H   0  0  0  0  0  0  0  0  0  0  0  0
   60.1717   29.9182   46.0523 H   0  0  0  0  0  0  0  0  0  0  0  0
  1  2  1  0
  2  3  1  0
  2  4  2  0
  4  5  1  0
  5  6  2  0
  6  7  1  0
  6  8  1  0
  8  9  1  0
  9 10  1  0
 10 11  2  0
 10 12  1  0
 12 13  1  0
 13 14  1  0
  5 15  1  0
 15 16  1  0
 15 17  2  0
 17 18  1  0
 18 19  2  0
 18 20  1  0
 20 21  1  0
 20 22  1  0
 22 23  1  0
 22 24  1  0
 22 25  1  0
 25 26  1  0
 25 27  1  0
 25 28  1  0
 28 29  1  0
 29 30  1  0
 29 31  1  0
 29 32  1  0
 32 33  1  0
 32 34  1  0
 32 35  1  0
 35 36  1  0
 36 37  1  0
 36 38  1  0
 36 39  1  0
 39 40  1  0
 39 41  1  0
 39 42  1  0
 42 43  1  0
 42 44  1  0
 42 45  1  0
 45 46  1  0
 45 47  1  0
 45 48  1  0
 48 49  1  0
 48 50  1  0
 28 51  1  0
 51 52  1  0
 51 53  1  0
 51 54  1  0
 54 55  1  0
 54 56  1  0
 17 57  1  0
 57 58  1  0
 58 59  1  0
 58 60  1  0
 58 61  1  0
 57  4  1  0
 13  8  2  0
 54 20  1  0
 48 35  1  0
M  CHG  4   9  -1  12  -1  14  -1  20   1
M  END
>  <UniqueID>  (71) 
68

>  <SMILES>  (71) 
C=c1/c(=C/c2[n-]c(=O)[n-]c2[O-])cc(C(=O)[NH+]2CCN(CCN3CCCCC3)CC2)n1C

>  <Energy>  (71) 
156.02481799196664

>  <Genealogy>  (71) 
C=c1c(=Cc2[n-]c(=O)[n-]c2[O-])cc(C(=O)[NH+]2CCN(CCN3CCCCC3)CC2)n1C (protonated)
C=c1/c(=C/c2[n-]c(=O)[n-]c2[O-])cc(C(=O)[NH+]2CCN(CCN3CCCCC3)CC2)n1C (cis-trans isomerization)
C=c1/c(=C/c2[n-]c(=O)[n-]c2[O-])cc(C(=O)[NH+]2CCN(CCN3CCCCC3)CC2)n1C (3D coordinates assigned)
C=c1/c(=C/c2[n-]c(=O)[n-]c2[O-])cc(C(=O)[NH+]2CCN(CCN3CCCCC3)CC2)n1C (nonaromatic ring conformer: 156.02481799196664 kcal/mol)

>  <smiles>  (71) 
C=c1c(=Cc2[nH]c(=O)[nH]c2O)cc(C(=O)N2CCN(CCN3CCCCC3)CC2)n1C

>  <score_type>  (71) 
oracle

>  <origin>  (71) 
adg

>  <m_score__min__energy>  (71) 
-17.879999999999999

>  <m_primary>  (71) 
energy

$$$$
71:0
     RDKit          3D

 69 72  0  0  0  0  0  0  0  0999 V2000
   56.4620   25.7170   45.8680 C   0  0  0  0  0  0  0  0  0  0  0  0
   56.0750   27.0870   45.9160 O   0  0  0  0  0  0  0  0  0  0  0  0
   56.9740   28.1670   45.8830 C   0  0  0  0  0  0  0  0  0  0  0  0
   58.1980   28.1410   46.5790 C   0  0  0  0  0  0  0  0  0  0  0  0
   59.0600   29.2500   46.5440 C   0  0  0  0  0  0  0  0  0  0  0  0
   60.3140   29.2610   47.3790 C   0  0  0  0  0  0  0  0  0  0  0  0
   60.1580   30.1560   48.5470 N   0  0  0  0  0  0  0  0  0  0  0  0
   61.1420   29.8220   49.5820 C   0  0  0  0  0  0  0  0  0  0  0  0
   61.1920   30.9630   50.5940 C   0  0  0  0  0  0  0  0  0  0  0  0
   59.8510   31.4760   50.9620 N   0  0  0  0  0  0  0  0  0  0  0  0
   59.7050   32.9470   50.8940 C   0  0  0  0  0  0  0  0  0  0  0  0
   59.9130   33.5160   49.5160 C   0  0  0  0  0  0  0  0  0  0  0  0
   60.3180   34.7010   49.3660 O   0  0  0  0  0  0  0  0  0  0  0  0
   59.5130   32.7440   48.3790 N   0  0  0  0  0  0  0  0  0  0  0  0
   58.9910   33.3120   47.1690 C   0  0  0  0  0  0  0  0  0  0  0  0
   57.6070   33.2730   46.9550 C   0  0  0  0  0  0  0  0  0  0  0  0
   57.0520   33.8380   45.8050 C   0  0  0  0  0  0  0  0  0  0  0  0
   57.8770   34.4380   44.8540 C   0  0  0  0  0  0  0  0  0  0  0  0
   59.2620   34.4540   45.0380 C   0  0  0  0  0  0  0  0  0  0  0  0
   59.8350   33.8670   46.1790 C   0  0  0  0  0  0  0  0  0  0  0  0
   61.3300   33.8660   46.3260 C   0  0  0  0  0  0  0  0  0  0  0  0
   58.6600   30.7020   50.5280 C   0  0  2  0  0  0  0  0  0  0  0  0
   58.3430   29.6290   51.5350 C   0  0  0  0  0  0  0  0  0  0  0  0
   59.2230   28.7980   51.8900 O   0  0  0  0  0  0  0  0  0  0  0  0
   56.9950   29.4870   51.9900 N   0  0  0  0  0  0  0  0  0  0  0  0
   56.1160   30.6280   52.2170 C   0  0  0  0  0  0  0  0  0  0  0  0
   54.6830   30.1770   52.1290 C   0  0  0  0  0  0  0  0  0  0  0  0
   53.7700   30.8600   51.3080 C   0  0  0  0  0  0  0  0  0  0  0  0
   52.4200   30.4900   51.2950 C   0  0  0  0  0  0  0  0  0  0  0  0
   51.9730   29.4430   52.1060 C   0  0  0  0  0  0  0  0  0  0  0  0
   52.8750   28.7670   52.9350 C   0  0  0  0  0  0  0  0  0  0  0  0
   54.2240   29.1340   52.9490 C   0  0  0  0  0  0  0  0  0  0  0  0
   58.7930   30.0700   49.1100 C   0  0  0  0  0  0  0  0  0  0  0  0
   58.6990   30.3820   45.8000 C   0  0  0  0  0  0  0  0  0  0  0  0
   57.4950   30.4050   45.0950 C   0  0  0  0  0  0  0  0  0  0  0  0
   56.6290   29.3040   45.1390 C   0  0  0  0  0  0  0  0  0  0  0  0
   55.4170   29.3360   44.4510 O   0  0  0  0  0  0  0  0  0  0  0  0
   56.5711   25.3307   46.8921 H   0  0  0  0  0  0  0  0  0  0  0  0
   55.6925   25.1370   45.3374 H   0  0  0  0  0  0  0  0  0  0  0  0
   57.4212   25.6253   45.3374 H   0  0  0  0  0  0  0  0  0  0  0  0
   58.4810   27.2468   47.1537 H   0  0  0  0  0  0  0  0  0  0  0  0
   60.5216   28.2400   47.7319 H   0  0  0  0  0  0  0  0  0  0  0  0
   61.1466   29.6285   46.7611 H   0  0  0  0  0  0  0  0  0  0  0  0
   60.8461   28.8910   50.0877 H   0  0  0  0  0  0  0  0  0  0  0  0
   62.1331   29.6809   49.1261 H   0  0  0  0  0  0  0  0  0  0  0  0
   61.6899   30.6004   51.5054 H   0  0  0  0  0  0  0  0  0  0  0  0
   61.7419   31.7922   50.1249 H   0  0  0  0  0  0  0  0  0  0  0  0
   58.6907   33.2105   51.2284 H   0  0  0  0  0  0  0  0  0  0  0  0
   60.4861   33.3762   51.5387 H   0  0  0  0  0  0  0  0  0  0  0  0
   56.9528   32.7938   47.6983 H   0  0  0  0  0  0  0  0  0  0  0  0
   55.9635   33.8098   45.6491 H   0  0  0  0  0  0  0  0  0  0  0  0
   57.4367   34.8993   43.9577 H   0  0  0  0  0  0  0  0  0  0  0  0
   59.9079   34.9291   44.2849 H   0  0  0  0  0  0  0  0  0  0  0  0
   61.5934   33.8658   47.3940 H   0  0  0  0  0  0  0  0  0  0  0  0
   61.7451   32.9676   45.8458 H   0  0  0  0  0  0  0  0  0  0  0  0
   61.7463   34.7639   45.8458 H   0  0  0  0  0  0  0  0  0  0  0  0
   57.8367   31.4288   50.4658 H   0  0  0  0  0  0  0  0  0  0  0  0
   56.3086   31.0473   53.2155 H   0  0  0  0  0  0  0  0  0  0  0  0
   56.3075   31.3980   51.4551 H   0  0  0  0  0  0  0  0  0  0  0  0
   54.1173   31.6885   50.6732 H   0  0  0  0  0  0  0  0  0  0  0  0
   51.7102   31.0238   50.6459 H   0  0  0  0  0  0  0  0  0  0  0  0
   50.9127   29.1506   52.0925 H   0  0  0  0  0  0  0  0  0  0  0  0
   52.5223   27.9459   53.5764 H   0  0  0  0  0  0  0  0  0  0  0  0
   54.9290   28.6031   53.6056 H   0  0  0  0  0  0  0  0  0  0  0  0
   58.5101   29.0090   49.1746 H   0  0  0  0  0  0  0  0  0  0  0  0
   58.1323   30.6402   48.4404 H   0  0  0  0  0  0  0  0  0  0  0  0
   59.3673   31.2553   45.7719 H   0  0  0  0  0  0  0  0  0  0  0  0
   57.2244   31.2912   44.5021 H   0  0  0  0  0  0  0  0  0  0  0  0
   54.7550   28.5690   44.5080 H   0  0  0  0  0  0  0  0  0  0  0  0
  1  2  1  0
  2  3  1  0
  3  4  2  0
  4  5  1  0
  5  6  1  0
  6  7  1  0
  7  8  1  0
  8  9  1  0
  9 10  1  0
 10 11  1  0
 11 12  1  0
 12 13  2  0
 12 14  1  0
 14 15  1  0
 15 16  2  0
 16 17  1  0
 17 18  2  0
 18 19  1  0
 19 20  2  0
 20 21  1  0
 10 22  1  0
 22 23  1  0
 23 24  2  0
 23 25  1  0
 25 26  1  0
 26 27  1  0
 27 28  2  0
 28 29  1  0
 29 30  2  0
 30 31  1  0
 31 32  2  0
 22 33  1  0
  5 34  2  0
 34 35  1  0
 35 36  2  0
 36 37  1  0
 36  3  1  0
 33  7  1  0
 20 15  1  0
 32 27  1  0
  1 38  1  0
  1 39  1  0
  1 40  1  0
  4 41  1  0
  6 42  1  0
  6 43  1  0
  8 44  1  0
  8 45  1  0
  9 46  1  0
  9 47  1  0
 11 48  1  0
 11 49  1  0
 16 50  1  0
 17 51  1  0
 18 52  1  0
 19 53  1  0
 21 54  1  0
 21 55  1  0
 21 56  1  0
 22 57  1  6
 26 58  1  0
 26 59  1  0
 28 60  1  0
 29 61  1  0
 30 62  1  0
 31 63  1  0
 32 64  1  0
 33 65  1  0
 33 66  1  0
 34 67  1  0
 35 68  1  0
 37 69  1  0
M  CHG  2  14  -1  25  -1
M  END
>  <UniqueID>  (72) 
69

>  <SMILES>  (72) 
COc1cc(CN2CCN(CC(=O)[N-]c3ccccc3C)[C@H](C(=O)[N-]Cc3ccccc3)C2)ccc1O

>  <Energy>  (72) 
88.03950145886465

>  <Genealogy>  (72) 
COc1cc(CN2CCN(CC(=O)[N-]c3ccccc3C)C(C(=O)[N-]Cc3ccccc3)C2)ccc1O (protonated)
COc1cc(CN2CCN(CC(=O)[N-]c3ccccc3C)[C@H](C(=O)[N-]Cc3ccccc3)C2)ccc1O (chirality)
COc1cc(CN2CCN(CC(=O)[N-]c3ccccc3C)[C@H](C(=O)[N-]Cc3ccccc3)C2)ccc1O (3D coordinates assigned)
COc1cc(CN2CCN(CC(=O)[N-]c3ccccc3C)[C@H](C(=O)[N-]Cc3ccccc3)C2)ccc1O (nonaromatic ring conformer: 88.03950145886465 kcal/mol)

>  <smiles>  (72) 
COc1cc(CN2CCN(CC(=O)Nc3ccccc3C)C(C(=O)NCc3ccccc3)C2)ccc1O

>  <score_type>  (72) 
oracle

>  <origin>  (72) 
adg

>  <m_score__min__energy>  (72) 
-12.82

>  <m_primary>  (72) 
energy

$$$$
72:0
     RDKit          3D

 64 68  0  0  1  0  0  0  0  0999 V2000
   57.5210   19.4930   46.4300 C   0  0  0  0  0  0  0  0  0  0  0  0
   57.7900   20.7140   45.6880 N   0  0  0  0  0  0  0  0  0  0  0  0
   57.4310   21.9420   46.3150 C   0  0  0  0  0  0  0  0  0  0  0  0
   56.9060   21.8290   47.4730 O   0  0  0  0  0  0  0  0  0  0  0  0
   57.6450   23.2400   45.6870 C   0  0  0  0  0  0  0  0  0  0  0  0
   57.1000   23.6140   44.4900 C   0  0  0  0  0  0  0  0  0  0  0  0
   57.3250   24.8440   43.9350 C   0  0  0  0  0  0  0  0  0  0  0  0
   58.1280   25.7600   44.5880 C   0  0  0  0  0  0  0  0  0  0  0  0
   58.6890   25.4000   45.8000 C   0  0  0  0  0  0  0  0  0  0  0  0
   59.5210   26.3420   46.4790 N   0  0  0  0  0  0  0  0  0  0  0  0
   59.0440   27.2190   47.4820 C   0  0  0  0  0  0  0  0  0  0  0  0
   57.8000   27.1240   47.7580 O   0  0  0  0  0  0  0  0  0  0  0  0
   59.8910   28.1820   48.1770 C   0  0  0  0  0  0  0  0  0  0  0  0
   60.3020   28.0220   49.4840 C   0  0  0  0  0  0  0  0  0  0  0  0
   61.1050   28.9410   50.1370 C   0  0  0  0  0  0  0  0  0  0  0  0
   61.5220   30.0770   49.4610 C   0  0  0  0  0  0  0  0  0  0  0  0
   62.3790   31.0900   50.1110 C   0  0  0  0  0  0  0  0  0  0  0  0
   61.1080   30.2450   48.1380 C   0  0  0  0  0  0  0  0  0  0  0  0
   61.5600   31.4250   47.4820 N   0  0  0  0  0  0  0  0  0  0  0  0
   60.9300   32.5510   47.5290 C   0  0  0  0  0  0  0  0  0  0  0  0
   61.4290   33.5470   48.2810 N   0  0  0  0  0  0  0  0  0  0  0  0
   60.7450   34.7180   48.3100 C   0  0  0  0  0  0  0  0  0  0  0  0
   59.6020   34.9000   47.6170 N   0  0  0  0  0  0  0  0  0  0  0  0
   59.1080   33.9010   46.8670 C   0  0  0  0  0  0  0  0  0  0  0  0
   57.9470   34.0030   46.1290 C   0  0  0  0  0  0  0  0  0  0  0  0
   57.4560   33.0000   45.3800 N   0  0  0  0  0  0  0  0  0  0  0  0
   58.0900   31.8020   45.3060 C   0  0  0  0  0  0  0  0  0  0  0  0
   57.5550   30.7590   44.5100 N   0  0  0  0  0  0  0  0  0  0  0  0
   56.6350   30.9800   43.4110 C   0  0  0  0  0  0  0  0  0  0  0  0
   55.7550   29.7350   43.3670 C   0  0  0  0  0  0  0  0  0  0  0  0
   55.5300   29.2060   44.6350 O   0  0  0  0  0  0  0  0  0  0  0  0
   56.6730   28.6420   45.1810 C   0  0  0  0  0  0  0  0  0  0  0  0
   57.9290   29.3830   44.7840 C   0  0  0  0  0  0  0  0  0  0  0  0
   59.2420   31.6650   46.0240 C   0  0  0  0  0  0  0  0  0  0  0  0
   59.7730   32.6920   46.8100 C   0  0  0  0  0  0  0  0  0  0  0  0
   60.3030   29.3040   47.5130 C   0  0  0  0  0  0  0  0  0  0  0  0
   58.4440   24.1460   46.3410 C   0  0  0  0  0  0  0  0  0  0  0  0
   57.5670   19.7020   47.5090 H   0  0  0  0  0  0  0  0  0  0  0  0
   56.5191   19.1199   46.1712 H   0  0  0  0  0  0  0  0  0  0  0  0
   58.2733   18.7334   46.1712 H   0  0  0  0  0  0  0  0  0  0  0  0
   58.2260   20.7170   44.7400 H   0  0  0  0  0  0  0  0  0  0  0  0
   56.4574   22.9001   43.9539 H   0  0  0  0  0  0  0  0  0  0  0  0
   56.8669   25.1039   42.9693 H   0  0  0  0  0  0  0  0  0  0  0  0
   58.3167   26.7529   44.1537 H   0  0  0  0  0  0  0  0  0  0  0  0
   60.5270   26.3650   46.2030 H   0  0  0  0  0  0  0  0  0  0  0  0
   59.9774   27.1247   50.0313 H   0  0  0  0  0  0  0  0  0  0  0  0
   61.4088   28.7718   51.1806 H   0  0  0  0  0  0  0  0  0  0  0  0
   62.2970   30.9931   51.2036 H   0  0  0  0  0  0  0  0  0  0  0  0
   63.4247   30.9355   49.8066 H   0  0  0  0  0  0  0  0  0  0  0  0
   62.0533   32.0956   49.8066 H   0  0  0  0  0  0  0  0  0  0  0  0
   62.3050   33.4290   48.8210 H   0  0  0  0  0  0  0  0  0  0  0  0
   61.1353   35.5468   48.9189 H   0  0  0  0  0  0  0  0  0  0  0  0
   57.3944   34.9538   46.1546 H   0  0  0  0  0  0  0  0  0  0  0  0
   56.0249   31.8769   43.5935 H   0  0  0  0  0  0  0  0  0  0  0  0
   57.1633   31.1429   42.4600 H   0  0  0  0  0  0  0  0  0  0  0  0
   54.7871   30.0008   42.9170 H   0  0  0  0  0  0  0  0  0  0  0  0
   56.2774   28.9726   42.7704 H   0  0  0  0  0  0  0  0  0  0  0  0
   56.5854   28.6580   46.2774 H   0  0  0  0  0  0  0  0  0  0  0  0
   56.7552   27.6143   44.7974 H   0  0  0  0  0  0  0  0  0  0  0  0
   58.6606   29.3488   45.6047 H   0  0  0  0  0  0  0  0  0  0  0  0
   58.3872   28.9217   43.8967 H   0  0  0  0  0  0  0  0  0  0  0  0
   59.7764   30.7044   45.9826 H   0  0  0  0  0  0  0  0  0  0  0  0
   59.9921   29.4625   46.4698 H   0  0  0  0  0  0  0  0  0  0  0  0
   58.8956   23.8738   47.3064 H   0  0  0  0  0  0  0  0  0  0  0  0
  1  2  1  0
  2  3  1  0
  3  4  2  0
  3  5  1  0
  5  6  2  0
  6  7  1  0
  7  8  2  0
  8  9  1  0
  9 10  1  0
 10 11  1  0
 11 12  2  0
 11 13  1  0
 13 14  2  0
 14 15  1  0
 15 16  2  0
 16 17  1  0
 16 18  1  0
 18 19  1  0
 19 20  2  0
 20 21  1  0
 21 22  1  0
 22 23  2  0
 23 24  1  0
 24 25  2  0
 25 26  1  0
 26 27  2  0
 27 28  1  0
 28 29  1  0
 29 30  1  0
 30 31  1  0
 31 32  1  0
 32 33  1  0
 27 34  1  0
 34 35  2  0
 18 36  2  0
  9 37  2  0
 37  5  1  0
 36 13  1  0
 35 20  1  0
 35 24  1  0
 33 28  1  0
  1 38  1  0
  1 39  1  0
  1 40  1  0
  2 41  1  0
  6 42  1  0
  7 43  1  0
  8 44  1  0
 10 45  1  0
 14 46  1  0
 15 47  1  0
 17 48  1  0
 17 49  1  0
 17 50  1  0
 21 51  1  0
 22 52  1  0
 25 53  1  0
 29 54  1  0
 29 55  1  0
 30 56  1  0
 30 57  1  0
 32 58  1  0
 32 59  1  0
 33 60  1  0
 33 61  1  0
 34 62  1  0
 36 63  1  0
 37 64  1  0
M  END
>  <smiles>  (73) 
CNC(=O)c1cccc(NC(=O)c2ccc(C)c(N=c3[nH]cnc4cnc(N5CCOCC5)cc34)c2)c1

>  <score_type>  (73) 
oracle

>  <origin>  (73) 
adg

>  <m_score__min__energy>  (73) 
-9.9800000000000004

>  <m_primary>  (73) 
energy

$$$$
73:0
     RDKit          3D

 48 50  0  0  0  0  0  0  0  0999 V2000
   57.8090   32.0104   49.0386 H   0  0  0  0  0  0  0  0  0  0  0  0
   58.8740   32.2820   48.9950 C   0  0  0  0  0  0  0  0  0  0  0  0
   59.7500   31.3960   49.3760 N   0  0  0  0  0  0  0  0  0  0  0  0
   60.5580   30.5330   48.5590 C   0  0  0  0  0  0  0  0  0  0  0  0
   61.0300   29.4560   49.0140 O   0  0  0  0  0  0  0  0  0  0  0  0
   60.7840   30.8880   47.1410 C   0  0  0  0  0  0  0  0  0  0  0  0
   61.0850   32.0960   46.7510 N   0  0  0  0  0  0  0  0  0  0  0  0
   62.3600   32.7540   46.7970 C   0  0  0  0  0  0  0  0  0  0  0  0
   62.5570   33.8420   46.1890 O   0  0  0  0  0  0  0  0  0  0  0  0
   63.4910   32.1090   47.5310 C   0  0  0  0  0  0  0  0  0  0  0  0
   63.2594   31.0462   47.6951 H   0  0  0  0  0  0  0  0  0  0  0  0
   64.4093   32.2035   46.9329 H   0  0  0  0  0  0  0  0  0  0  0  0
   63.6960   32.7840   48.8580 C   0  0  0  0  0  0  0  0  0  0  0  0
   64.9100   32.6400   49.5500 C   0  0  0  0  0  0  0  0  0  0  0  0
   65.7067   32.0061   49.1334 H   0  0  0  0  0  0  0  0  0  0  0  0
   65.1090   33.3000   50.7670 C   0  0  0  0  0  0  0  0  0  0  0  0
   66.0579   33.1772   51.3097 H   0  0  0  0  0  0  0  0  0  0  0  0
   64.1030   34.1160   51.2950 C   0  0  0  0  0  0  0  0  0  0  0  0
   64.2614   34.6349   52.2519 H   0  0  0  0  0  0  0  0  0  0  0  0
   62.8970   34.2720   50.6070 C   0  0  0  0  0  0  0  0  0  0  0  0
   62.1067   34.9144   51.0228 H   0  0  0  0  0  0  0  0  0  0  0  0
   62.6930   33.6130   49.3910 C   0  0  0  0  0  0  0  0  0  0  0  0
   61.7446   33.7434   48.8493 H   0  0  0  0  0  0  0  0  0  0  0  0
   60.6660   29.8160   46.0920 C   0  0  0  0  0  0  0  0  0  0  0  0
   61.2073   30.1320   45.1880 H   0  0  0  0  0  0  0  0  0  0  0  0
   61.0981   28.8834   46.4839 H   0  0  0  0  0  0  0  0  0  0  0  0
   59.2200   29.5780   45.7470 C   0  0  0  0  0  0  0  0  0  0  0  0
   58.4710   30.5830   45.1120 C   0  0  0  0  0  0  0  0  0  0  0  0
   58.9517   31.5349   44.8423 H   0  0  0  0  0  0  0  0  0  0  0  0
   57.1200   30.3810   44.8210 C   0  0  0  0  0  0  0  0  0  0  0  0
   56.5405   31.1721   44.3228 H   0  0  0  0  0  0  0  0  0  0  0  0
   56.5040   29.1730   45.1630 C   0  0  0  0  0  0  0  0  0  0  0  0
   55.1610   28.9710   44.8700 O   0  0  0  0  0  0  0  0  0  0  0  0
   57.2400   28.1690   45.7990 C   0  0  0  0  0  0  0  0  0  0  0  0
   56.7552   27.2185   46.0664 H   0  0  0  0  0  0  0  0  0  0  0  0
   58.5920   28.3710   46.0960 C   0  0  0  0  0  0  0  0  0  0  0  0
   59.1653   27.5819   46.6046 H   0  0  0  0  0  0  0  0  0  0  0  0
   59.2360   33.6550   48.4990 C   0  0  0  0  0  0  0  0  0  0  0  0
   58.7995   34.4085   49.1711 H   0  0  0  0  0  0  0  0  0  0  0  0
   60.3320   33.7477   48.4825 H   0  0  0  0  0  0  0  0  0  0  0  0
   58.7140   33.8710   47.1140 C   0  0  0  0  0  0  0  0  0  0  0  0
   57.5580   33.4200   46.6830 O   0  0  0  0  0  0  0  0  0  0  0  0
   57.4030   33.7950   45.4320 C   0  0  0  0  0  0  0  0  0  0  0  0
   56.5311   33.5604   44.8037 H   0  0  0  0  0  0  0  0  0  0  0  0
   58.5010   34.5280   45.0270 C   0  0  0  0  0  0  0  0  0  0  0  0
   58.6652   34.9797   44.0375 H   0  0  0  0  0  0  0  0  0  0  0  0
   59.3510   34.5800   46.1130 C   0  0  0  0  0  0  0  0  0  0  0  0
   60.3291   35.0802   46.1700 H   0  0  0  0  0  0  0  0  0  0  0  0
  1  2  1  0
  2  3  2  3
  3  4  1  0
  4  5  2  0
  4  6  1  0
  6  7  2  0
  7  8  1  0
  8  9  2  0
  8 10  1  0
 10 11  1  0
 10 12  1  0
 10 13  1  0
 13 14  2  0
 14 15  1  0
 14 16  1  0
 16 17  1  0
 16 18  2  0
 18 19  1  0
 18 20  1  0
 20 21  1  0
 20 22  2  0
 22 23  1  0
  6 24  1  0
 24 25  1  0
 24 26  1  0
 24 27  1  0
 27 28  2  0
 28 29  1  0
 28 30  1  0
 30 31  1  0
 30 32  2  0
 32 33  1  0
 32 34  1  0
 34 35  1  0
 34 36  2  0
 36 37  1  0
  2 38  1  0
 38 39  1  0
 38 40  1  0
 38 41  1  0
 41 42  1  0
 42 43  1  0
 43 44  1  0
 43 45  2  0
 45 46  1  0
 45 47  1  0
 47 48  1  0
 22 13  1  0
 36 27  1  0
 47 41  2  0
M  CHG  1  33  -1
M  END
>  <UniqueID>  (74) 
70

>  <SMILES>  (74) 
O=C(Cc1ccccc1)/N=C(/Cc1ccc([O-])cc1)C(=O)N=CCc1ccco1

>  <Energy>  (74) 
81.4719296192306

>  <Genealogy>  (74) 
O=C(Cc1ccccc1)N=C(Cc1ccc([O-])cc1)C(=O)N=CCc1ccco1 (protonated)
O=C(Cc1ccccc1)/N=C(/Cc1ccc([O-])cc1)C(=O)N=CCc1ccco1 (cis-trans isomerization)
O=C(Cc1ccccc1)/N=C(/Cc1ccc([O-])cc1)C(=O)N=CCc1ccco1 (3D coordinates assigned)
O=C(Cc1ccccc1)/N=C(/Cc1ccc([O-])cc1)C(=O)N=CCc1ccco1 (optimized conformer: 81.4719296192306 kcal/mol)

>  <smiles>  (74) 
O=C(Cc1ccccc1)N=C(Cc1ccc(O)cc1)C(=O)N=CCc1ccco1

>  <score_type>  (74) 
oracle

>  <origin>  (74) 
adg

>  <m_score__min__energy>  (74) 
-11.51

>  <m_primary>  (74) 
energy

$$$$
74:0
     RDKit          3D

 49 52  0  0  0  0  0  0  0  0999 V2000
   56.5910   27.5300   45.9690 O   0  0  0  0  0  0  0  0  0  0  0  0
   57.1450   26.4660   46.3590 C   0  0  0  0  0  0  0  0  0  0  0  0
   58.5350   26.4740   46.7260 N   0  0  0  0  0  0  0  0  0  0  0  0
   59.2660   27.6620   47.0750 C   0  0  0  0  0  0  0  0  0  0  0  0
   59.6060   27.9480   48.4090 C   0  0  0  0  0  0  0  0  0  0  0  0
   60.3400   29.0970   48.7210 C   0  0  0  0  0  0  0  0  0  0  0  0
   60.7600   29.9710   47.7050 C   0  0  0  0  0  0  0  0  0  0  0  0
   61.5040   31.1620   48.0300 N   0  0  0  0  0  0  0  0  0  0  0  0
   61.2460   32.4300   47.3370 C   0  0  0  0  0  0  0  0  0  0  0  0
   62.5620   33.0390   46.8130 C   0  0  0  0  0  0  0  0  0  0  0  0
   63.7540   32.6490   47.5940 N   0  0  0  0  0  0  0  0  0  0  0  0
   63.4380   32.3560   48.9980 C   0  0  0  0  0  0  0  0  0  0  0  0
   62.5130   31.1340   49.0950 C   0  0  0  0  0  0  0  0  0  0  0  0
   60.4280   29.6780   46.3720 C   0  0  0  0  0  0  0  0  0  0  0  0
   59.6980   28.5280   46.0610 C   0  0  0  0  0  0  0  0  0  0  0  0
   56.3680   25.2010   46.3820 C   0  0  0  0  0  0  0  0  0  0  0  0
   55.0160   25.1810   46.0020 C   0  0  0  0  0  0  0  0  0  0  0  0
   54.3750   26.3390   45.5790 O   0  0  0  0  0  0  0  0  0  0  0  0
   54.3230   24.0180   46.0280 N   0  0  0  0  0  0  0  0  0  0  0  0
   54.8990   22.8540   46.4160 C   0  0  0  0  0  0  0  0  0  0  0  0
   54.2110   21.7970   46.4060 O   0  0  0  0  0  0  0  0  0  0  0  0
   56.2120   22.8310   46.8050 N   0  0  0  0  0  0  0  0  0  0  0  0
   56.8190   21.5910   47.2220 C   0  0  0  0  0  0  0  0  0  0  0  0
   57.4220   20.7500   46.2730 C   0  0  0  0  0  0  0  0  0  0  0  0
   58.0120   19.5460   46.6720 C   0  0  0  0  0  0  0  0  0  0  0  0
   58.0060   19.1770   48.0190 C   0  0  0  0  0  0  0  0  0  0  0  0
   57.4110   20.0100   48.9710 C   0  0  0  0  0  0  0  0  0  0  0  0
   56.8190   21.2150   48.5770 C   0  0  0  0  0  0  0  0  0  0  0  0
   56.2590   22.0220   49.5130 F   0  0  0  0  0  0  0  0  0  0  0  0
   56.9500   23.9870   46.8000 C   0  0  0  0  0  0  0  0  0  0  0  0
   58.1480   23.9700   47.2000 O   0  0  0  0  0  0  0  0  0  0  0  0
   59.0670   25.5790   46.6370 H   0  0  0  0  0  0  0  0  0  0  0  0
   59.2930   27.2642   49.2118 H   0  0  0  0  0  0  0  0  0  0  0  0
   60.5900   29.3176   49.7692 H   0  0  0  0  0  0  0  0  0  0  0  0
   60.5692   32.2476   46.4893 H   0  0  0  0  0  0  0  0  0  0  0  0
   60.7864   33.1346   48.0457 H   0  0  0  0  0  0  0  0  0  0  0  0
   62.7062   32.7101   45.7733 H   0  0  0  0  0  0  0  0  0  0  0  0
   62.4659   34.1313   46.9005 H   0  0  0  0  0  0  0  0  0  0  0  0
   64.1750   31.7910   47.1630 H   0  0  0  0  0  0  0  0  0  0  0  0
   64.3704   32.1490   49.5437 H   0  0  0  0  0  0  0  0  0  0  0  0
   62.9276   33.2256   49.4377 H   0  0  0  0  0  0  0  0  0  0  0  0
   63.1139   30.2176   48.9992 H   0  0  0  0  0  0  0  0  0  0  0  0
   62.0008   31.1543   50.0683 H   0  0  0  0  0  0  0  0  0  0  0  0
   60.7448   30.3583   45.5678 H   0  0  0  0  0  0  0  0  0  0  0  0
   59.4603   28.3003   45.0114 H   0  0  0  0  0  0  0  0  0  0  0  0
   57.4305   21.0390   45.2117 H   0  0  0  0  0  0  0  0  0  0  0  0
   58.4810   18.8894   45.9243 H   0  0  0  0  0  0  0  0  0  0  0  0
   58.4700   18.2298   48.3312 H   0  0  0  0  0  0  0  0  0  0  0  0
   57.4082   19.7177   50.0314 H   0  0  0  0  0  0  0  0  0  0  0  0
  1  2  2  0
  2  3  1  0
  3  4  1  0
  4  5  2  0
  5  6  1  0
  6  7  2  0
  7  8  1  0
  8  9  1  0
  9 10  1  0
 10 11  1  0
 11 12  1  0
 12 13  1  0
  7 14  1  0
 14 15  2  0
  2 16  1  0
 16 17  2  0
 17 18  1  0
 17 19  1  0
 19 20  1  0
 20 21  2  0
 20 22  1  0
 22 23  1  0
 23 24  2  0
 24 25  1  0
 25 26  2  0
 26 27  1  0
 27 28  2  0
 28 29  1  0
 22 30  1  0
 30 31  2  0
 15  4  1  0
 30 16  1  0
 13  8  1  0
 28 23  1  0
  3 32  1  0
  5 33  1  0
  6 34  1  0
  9 35  1  0
  9 36  1  0
 10 37  1  0
 10 38  1  0
 11 39  1  0
 12 40  1  0
 12 41  1  0
 13 42  1  0
 13 43  1  0
 14 44  1  0
 15 45  1  0
 24 46  1  0
 25 47  1  0
 26 48  1  0
 27 49  1  0
M  CHG  2  18  -1  19  -1
M  END
>  <UniqueID>  (75) 
71

>  <SMILES>  (75) 
O=C(Nc1ccc(N2CCNCC2)cc1)c1c([O-])[n-]c(=O)n(-c2ccccc2F)c1=O

>  <Energy>  (75) 
81.36538097916225

>  <Genealogy>  (75) 
O=C(Nc1ccc(N2CCNCC2)cc1)c1c([O-])[n-]c(=O)n(-c2ccccc2F)c1=O (protonated)
O=C(Nc1ccc(N2CCNCC2)cc1)c1c([O-])[n-]c(=O)n(-c2ccccc2F)c1=O (3D coordinates assigned)
O=C(Nc1ccc(N2CCNCC2)cc1)c1c([O-])[n-]c(=O)n(-c2ccccc2F)c1=O (nonaromatic ring conformer: 81.36538097916225 kcal/mol)

>  <smiles>  (75) 
O=C(Nc1ccc(N2CCNCC2)cc1)c1c(O)[nH]c(=O)n(-c2ccccc2F)c1=O

>  <score_type>  (75) 
oracle

>  <origin>  (75) 
adg

>  <m_score__min__energy>  (75) 
-12.67

>  <m_primary>  (75) 
energy

$$$$
75:0
     RDKit          3D

 43 45  0  0  0  0  0  0  0  0999 V2000
   57.7234   26.7162   43.7045 H   0  0  0  0  0  0  0  0  0  0  0  0
   57.6140   27.2710   44.6480 C   0  0  0  0  0  0  0  0  0  0  0  0
   57.5970   26.5580   45.7970 C   0  0  0  0  0  0  0  0  0  0  0  0
   56.3040   26.1020   46.3650 C   0  0  0  0  0  0  0  0  0  0  0  0
   56.2590   25.1550   47.1950 O   0  0  0  0  0  0  0  0  0  0  0  0
   55.1180   26.7200   45.9870 O   0  0  0  0  0  0  0  0  0  0  0  0
   58.8450   26.1830   46.5130 C   0  0  0  0  0  0  0  0  0  0  0  0
   59.2700   25.0010   46.4290 O   0  0  0  0  0  0  0  0  0  0  0  0
   59.5930   27.1650   47.3240 C   0  0  0  0  0  0  0  0  0  0  0  0
   60.8530   27.1120   47.3470 O   0  0  0  0  0  0  0  0  0  0  0  0
   58.8930   28.2080   48.0220 N   0  0  0  0  0  0  0  0  0  0  0  0
   57.8490   28.1860   48.0000 H   0  0  0  0  0  0  0  0  0  0  0  0
   59.5130   29.4520   48.3910 C   0  0  0  0  0  0  0  0  0  0  0  0
   60.7220   29.8680   47.8120 C   0  0  0  0  0  0  0  0  0  0  0  0
   61.2287   29.2243   47.0779 H   0  0  0  0  0  0  0  0  0  0  0  0
   61.2830   31.0960   48.1650 C   0  0  0  0  0  0  0  0  0  0  0  0
   62.2243   31.4226   47.6988 H   0  0  0  0  0  0  0  0  0  0  0  0
   60.6540   31.9120   49.1080 C   0  0  0  0  0  0  0  0  0  0  0  0
   61.0965   32.8847   49.3688 H   0  0  0  0  0  0  0  0  0  0  0  0
   59.4600   31.5010   49.7270 C   0  0  0  0  0  0  0  0  0  0  0  0
   58.8090   32.3740   50.7410 C   0  0  0  0  0  0  0  0  0  0  0  0
   59.2150   33.5570   50.9000 O   0  0  0  0  0  0  0  0  0  0  0  0
   57.6690   31.8910   51.5870 C   0  0  0  0  0  0  0  0  0  0  0  0
   57.9290   32.0012   52.6501 H   0  0  0  0  0  0  0  0  0  0  0  0
   56.7705   32.4858   51.3657 H   0  0  0  0  0  0  0  0  0  0  0  0
   57.4713   30.8318   51.3657 H   0  0  0  0  0  0  0  0  0  0  0  0
   58.9020   30.2590   49.3630 C   0  0  0  0  0  0  0  0  0  0  0  0
   57.9752   29.9177   49.8473 H   0  0  0  0  0  0  0  0  0  0  0  0
   57.4960   28.7440   44.5690 C   0  0  0  0  0  0  0  0  0  0  0  0
   56.9340   29.3310   43.4070 C   0  0  0  0  0  0  0  0  0  0  0  0
   56.5510   28.6860   42.6025 H   0  0  0  0  0  0  0  0  0  0  0  0
   56.8610   30.7290   43.2720 C   0  0  0  0  0  0  0  0  0  0  0  0
   56.4410   31.1902   42.3660 H   0  0  0  0  0  0  0  0  0  0  0  0
   57.3370   31.5110   44.3210 C   0  0  0  0  0  0  0  0  0  0  0  0
   57.8440   30.9520   45.4620 C   0  0  0  0  0  0  0  0  0  0  0  0
   57.9310   29.5720   45.6310 C   0  0  0  0  0  0  0  0  0  0  0  0
   58.3259   29.1390   46.5619 H   0  0  0  0  0  0  0  0  0  0  0  0
   58.2200   31.9830   46.2940 C   0  0  0  0  0  0  0  0  0  0  0  0
   58.6649   31.9044   47.2969 H   0  0  0  0  0  0  0  0  0  0  0  0
   57.9160   33.1450   45.5930 C   0  0  0  0  0  0  0  0  0  0  0  0
   58.0916   34.1643   45.9675 H   0  0  0  0  0  0  0  0  0  0  0  0
   57.3750   32.8520   44.3880 N   0  0  0  0  0  0  0  0  0  0  0  0
   57.0580   33.5310   43.6620 H   0  0  0  0  0  0  0  0  0  0  0  0
  1  2  1  0
  2  3  2  0
  3  4  1  0
  4  5  2  0
  4  6  1  0
  3  7  1  0
  7  8  2  0
  7  9  1  0
  9 10  2  0
  9 11  1  0
 11 12  1  0
 11 13  1  0
 13 14  2  0
 14 15  1  0
 14 16  1  0
 16 17  1  0
 16 18  2  0
 18 19  1  0
 18 20  1  0
 20 21  1  0
 21 22  2  0
 21 23  1  0
 23 24  1  0
 23 25  1  0
 23 26  1  0
 20 27  2  0
 27 28  1  0
  2 29  1  0
 29 30  2  0
 30 31  1  0
 30 32  1  0
 32 33  1  0
 32 34  2  0
 34 35  1  0
 35 36  2  0
 36 37  1  0
 35 38  1  0
 38 39  1  0
 38 40  2  0
 40 41  1  0
 40 42  1  0
 42 43  1  0
 27 13  1  0
 36 29  1  0
 42 34  1  0
M  CHG  1   6  -1
M  END
>  <UniqueID>  (76) 
72

>  <SMILES>  (76) 
CC(=O)c1cccc(NC(=O)C(=O)/C(=C\c2ccc3[nH]ccc3c2)C(=O)[O-])c1

>  <Energy>  (76) 
90.52690937746672

>  <Genealogy>  (76) 
CC(=O)c1cccc(NC(=O)C(=O)C(=Cc2ccc3[nH]ccc3c2)C(=O)[O-])c1 (protonated)
CC(=O)c1cccc(NC(=O)C(=O)/C(=C\c2ccc3[nH]ccc3c2)C(=O)[O-])c1 (cis-trans isomerization)
CC(=O)c1cccc(NC(=O)C(=O)/C(=C\c2ccc3[nH]ccc3c2)C(=O)[O-])c1 (3D coordinates assigned)
CC(=O)c1cccc(NC(=O)C(=O)/C(=C\c2ccc3[nH]ccc3c2)C(=O)[O-])c1 (optimized conformer: 90.52690937746672 kcal/mol)

>  <smiles>  (76) 
CC(=O)c1cccc(NC(=O)C(=O)C(=Cc2ccc3[nH]ccc3c2)C(=O)O)c1

>  <score_type>  (76) 
oracle

>  <origin>  (76) 
adg

>  <m_score__min__energy>  (76) 
-11.289999999999999

>  <m_primary>  (76) 
energy

$$$$
76:0
     RDKit          3D

 35 36  0  0  0  0  0  0  0  0999 V2000
   59.6830   22.5860   46.3450 H   0  0  0  0  0  0  0  0  0  0  0  0
   59.6910   23.5250   45.9650 O   0  0  0  0  0  0  0  0  0  0  0  0
   58.5540   24.3280   45.9850 C   0  0  0  0  0  0  0  0  0  0  0  0
   57.4270   23.9510   46.7280 C   0  0  0  0  0  0  0  0  0  0  0  0
   57.4403   23.0187   47.3117 H   0  0  0  0  0  0  0  0  0  0  0  0
   56.2870   24.7580   46.7280 C   0  0  0  0  0  0  0  0  0  0  0  0
   55.4017   24.4549   47.3062 H   0  0  0  0  0  0  0  0  0  0  0  0
   56.2660   25.9500   45.9960 C   0  0  0  0  0  0  0  0  0  0  0  0
   55.1010   26.7110   45.9710 O   0  0  0  0  0  0  0  0  0  0  0  0
   57.4080   26.3530   45.2750 C   0  0  0  0  0  0  0  0  0  0  0  0
   57.4220   27.5970   44.4750 C   0  0  0  0  0  0  0  0  0  0  0  0
   56.9010   27.5932   43.5062 H   0  0  0  0  0  0  0  0  0  0  0  0
   58.0330   28.7340   44.8590 C   0  0  0  0  0  0  0  0  0  0  0  0
   59.4670   28.8850   44.7470 C   0  0  0  0  0  0  0  0  0  0  0  0
   60.6140   29.0040   44.6590 N   0  0  0  0  0  0  0  0  0  0  0  0
   57.2390   29.9050   45.3030 C   0  0  0  0  0  0  0  0  0  0  0  0
   56.0670   30.0540   44.8660 O   0  0  0  0  0  0  0  0  0  0  0  0
   57.7470   30.8580   46.2480 N   0  0  0  0  0  0  0  0  0  0  0  0
   58.2310   32.1750   45.9450 C   0  0  0  0  0  0  0  0  0  0  0  0
   57.4980   33.0640   45.1410 C   0  0  0  0  0  0  0  0  0  0  0  0
   56.5301   32.7531   44.7209 H   0  0  0  0  0  0  0  0  0  0  0  0
   57.9950   34.3410   44.8740 C   0  0  0  0  0  0  0  0  0  0  0  0
   57.4232   35.0290   44.2339 H   0  0  0  0  0  0  0  0  0  0  0  0
   59.2160   34.7480   45.4170 C   0  0  0  0  0  0  0  0  0  0  0  0
   59.6072   35.7521   45.1964 H   0  0  0  0  0  0  0  0  0  0  0  0
   59.9470   33.8760   46.2460 C   0  0  0  0  0  0  0  0  0  0  0  0
   61.1730   34.2400   46.8240 O   0  0  0  0  0  0  0  0  0  0  0  0
   62.2570   33.3420   47.0410 C   0  0  0  0  0  0  0  0  0  0  0  0
   62.4144   33.2116   48.1218 H   0  0  0  0  0  0  0  0  0  0  0  0
   62.0239   32.3688   46.5844 H   0  0  0  0  0  0  0  0  0  0  0  0
   63.1699   33.7521   46.5844 H   0  0  0  0  0  0  0  0  0  0  0  0
   59.4420   32.5960   46.5080 C   0  0  0  0  0  0  0  0  0  0  0  0
   60.0031   31.9138   47.1635 H   0  0  0  0  0  0  0  0  0  0  0  0
   58.5380   25.5210   45.2560 C   0  0  0  0  0  0  0  0  0  0  0  0
   59.4182   25.8097   44.6628 H   0  0  0  0  0  0  0  0  0  0  0  0
  1  2  1  0
  2  3  1  0
  3  4  2  0
  4  5  1  0
  4  6  1  0
  6  7  1  0
  6  8  2  0
  8  9  1  0
  8 10  1  0
 10 11  1  0
 11 12  1  0
 11 13  2  0
 13 14  1  0
 14 15  3  0
 13 16  1  0
 16 17  2  0
 16 18  1  0
 18 19  1  0
 19 20  2  0
 20 21  1  0
 20 22  1  0
 22 23  1  0
 22 24  2  0
 24 25  1  0
 24 26  1  0
 26 27  1  0
 27 28  1  0
 28 29  1  0
 28 30  1  0
 28 31  1  0
 26 32  2  0
 32 33  1  0
 10 34  2  0
 34 35  1  0
 34  3  1  0
 32 19  1  0
M  CHG  2   9  -1  18  -1
M  END
>  <UniqueID>  (77) 
73

>  <SMILES>  (77) 
COc1cccc([N-]C(=O)/C(C#N)=C/c2cc(O)ccc2[O-])c1

>  <Energy>  (77) 
47.279444706187135

>  <Genealogy>  (77) 
COc1cccc([N-]C(=O)C(C#N)=Cc2cc(O)ccc2[O-])c1 (protonated)
COc1cccc([N-]C(=O)/C(C#N)=C/c2cc(O)ccc2[O-])c1 (cis-trans isomerization)
COc1cccc([N-]C(=O)/C(C#N)=C/c2cc(O)ccc2[O-])c1 (3D coordinates assigned)
COc1cccc([N-]C(=O)/C(C#N)=C/c2cc(O)ccc2[O-])c1 (optimized conformer: 47.279444706187135 kcal/mol)

>  <smiles>  (77) 
COc1cccc(NC(=O)C(C#N)=Cc2cc(O)ccc2O)c1

>  <score_type>  (77) 
oracle

>  <origin>  (77) 
adg

>  <m_score__min__energy>  (77) 
-12.25

>  <m_primary>  (77) 
energy

$$$$
77:0
     RDKit          3D

 43 45  0  0  0  0  0  0  0  0999 V2000
   55.4900   28.8950   45.6250 H   0  0  0  0  0  0  0  0  0  0  0  0
   55.1450   29.4890   44.8400 N   0  0  0  0  0  0  0  0  0  0  0  0
   56.0570   30.1980   44.0050 C   0  0  0  0  0  0  0  0  0  0  0  0
   55.9120   30.1690   42.7530 O   0  0  0  0  0  0  0  0  0  0  0  0
   57.2120   30.9430   44.6240 C   0  0  2  0  0  0  0  0  0  0  0  0
   57.9610   31.1022   43.8343 H   0  0  0  0  0  0  0  0  0  0  0  0
   57.8270   30.1600   45.6990 N   0  0  0  0  0  0  0  0  0  0  0  0
   58.7150   29.0470   45.5180 C   0  0  0  0  0  0  0  0  0  0  0  0
   59.9210   29.1750   45.8530 O   0  0  0  0  0  0  0  0  0  0  0  0
   58.2500   27.7510   44.9900 C   0  0  0  0  0  0  0  0  0  0  0  0
   58.2380   27.5180   43.6160 C   0  0  0  0  0  0  0  0  0  0  0  0
   58.5265   28.3196   42.9202 H   0  0  0  0  0  0  0  0  0  0  0  0
   57.8710   26.3040   43.1360 N   0  0  0  0  0  0  0  0  0  0  0  0
   57.4360   25.2930   43.9380 C   0  0  0  0  0  0  0  0  0  0  0  0
   57.3240   24.0840   43.3740 C   0  0  0  0  0  0  0  0  0  0  0  0
   56.9775   23.2282   43.9719 H   0  0  0  0  0  0  0  0  0  0  0  0
   57.5785   23.9465   42.3127 H   0  0  0  0  0  0  0  0  0  0  0  0
   57.2660   25.5380   45.3380 C   0  0  0  0  0  0  0  0  0  0  0  0
   56.6430   24.7100   46.2150 C   0  0  0  0  0  0  0  0  0  0  0  0
   57.2163   24.3999   47.1011 H   0  0  0  0  0  0  0  0  0  0  0  0
   55.2690   24.1870   46.0910 C   0  0  0  0  0  0  0  0  0  0  0  0
   54.9450   22.8830   46.0160 N   0  0  0  0  0  0  0  0  0  0  0  0
   53.6140   22.9050   45.7880 C   0  0  0  0  0  0  0  0  0  0  0  0
   52.9300   21.8560   45.6650 O   0  0  0  0  0  0  0  0  0  0  0  0
   53.0760   24.1390   45.6880 N   0  0  0  0  0  0  0  0  0  0  0  0
   54.1400   24.9380   45.8680 C   0  0  0  0  0  0  0  0  0  0  0  0
   54.0810   26.3240   45.8180 O   0  0  0  0  0  0  0  0  0  0  0  0
   57.7580   26.7590   45.8450 C   0  0  0  0  0  0  0  0  0  0  0  0
   57.7547   26.9341   46.9310 H   0  0  0  0  0  0  0  0  0  0  0  0
   56.7710   32.3190   45.1540 C   0  0  0  0  0  0  0  0  0  0  0  0
   56.3532   32.8985   44.3176 H   0  0  0  0  0  0  0  0  0  0  0  0
   56.0277   32.1422   45.9454 H   0  0  0  0  0  0  0  0  0  0  0  0
   57.9020   33.1090   45.7680 C   0  0  0  0  0  0  0  0  0  0  0  0
   58.2800   32.8880   47.1030 C   0  0  0  0  0  0  0  0  0  0  0  0
   57.7622   32.1219   47.6988 H   0  0  0  0  0  0  0  0  0  0  0  0
   59.3110   33.6370   47.6780 C   0  0  0  0  0  0  0  0  0  0  0  0
   59.6038   33.4570   48.7229 H   0  0  0  0  0  0  0  0  0  0  0  0
   59.9700   34.6140   46.9270 C   0  0  0  0  0  0  0  0  0  0  0  0
   60.7804   35.2033   47.3809 H   0  0  0  0  0  0  0  0  0  0  0  0
   59.5990   34.8420   45.5990 C   0  0  0  0  0  0  0  0  0  0  0  0
   60.1185   35.6108   45.0082 H   0  0  0  0  0  0  0  0  0  0  0  0
   58.5690   34.0950   45.0200 C   0  0  0  0  0  0  0  0  0  0  0  0
   58.2792   34.2794   43.9750 H   0  0  0  0  0  0  0  0  0  0  0  0
  1  2  1  0
  2  3  1  0
  3  4  2  0
  3  5  1  0
  5  6  1  6
  5  7  1  0
  7  8  1  0
  8  9  2  0
  8 10  1  0
 10 11  1  0
 11 12  1  0
 11 13  2  0
 13 14  1  0
 14 15  2  0
 15 16  1  0
 15 17  1  0
 14 18  1  0
 18 19  2  0
 19 20  1  0
 19 21  1  0
 21 22  1  0
 22 23  1  0
 23 24  2  0
 23 25  1  0
 25 26  1  0
 26 27  1  0
 18 28  1  0
 28 29  1  0
  5 30  1  0
 30 31  1  0
 30 32  1  0
 30 33  1  0
 33 34  2  0
 34 35  1  0
 34 36  1  0
 36 37  1  0
 36 38  2  0
 38 39  1  0
 38 40  1  0
 40 41  1  0
 40 42  2  0
 42 43  1  0
 28 10  2  0
 42 33  1  0
 26 21  2  0
M  CHG  5   2  -1   7  -1  22  -1  25  -1  27  -1
M  END
>  <UniqueID>  (78) 
74

>  <SMILES>  (78) 
C=c1ncc(C(=O)[N-][C@H](Cc2ccccc2)C([NH-])=O)c/c1=C/c1[n-]c(=O)[n-]c1[O-]

>  <Energy>  (78) 
95.71100417730977

>  <Genealogy>  (78) 
C=c1ncc(C(=O)[N-]C(Cc2ccccc2)C([NH-])=O)cc1=Cc1[n-]c(=O)[n-]c1[O-] (protonated)
C=c1ncc(C(=O)[N-][C@H](Cc2ccccc2)C([NH-])=O)cc1=Cc1[n-]c(=O)[n-]c1[O-] (chirality)
C=c1ncc(C(=O)[N-][C@H](Cc2ccccc2)C([NH-])=O)c/c1=C/c1[n-]c(=O)[n-]c1[O-] (cis-trans isomerization)
C=c1ncc(C(=O)[N-][C@H](Cc2ccccc2)C([NH-])=O)c/c1=C/c1[n-]c(=O)[n-]c1[O-] (3D coordinates assigned)
C=c1ncc(C(=O)[N-][C@H](Cc2ccccc2)C([NH-])=O)c/c1=C/c1[n-]c(=O)[n-]c1[O-] (optimized conformer: 95.71100417730977 kcal/mol)

>  <smiles>  (78) 
C=c1ncc(C(=O)NC(Cc2ccccc2)C(N)=O)cc1=Cc1[nH]c(=O)[nH]c1O

>  <score_type>  (78) 
oracle

>  <origin>  (78) 
adg

>  <m_score__min__energy>  (78) 
-19.399999999999999

>  <m_primary>  (78) 
energy

$$$$
78:0
     RDKit          3D

 53 55  0  0  0  0  0  0  0  0999 V2000
   54.4630   26.7050   46.7510 H   0  0  0  0  0  0  0  0  0  0  0  0
   54.7600   26.2350   45.9270 O   0  0  0  0  0  0  0  0  0  0  0  0
   56.1200   25.9030   46.0800 C   0  0  0  0  0  0  0  0  0  0  0  0
   56.9110   27.1340   46.2610 C   0  0  0  0  0  0  0  0  0  0  0  0
   57.5480   28.1450   46.4040 C   0  0  0  0  0  0  0  0  0  0  0  0
   58.2970   29.3640   46.5640 C   0  0  0  0  0  0  0  0  0  0  0  0
   58.7740   29.6780   47.7920 N   0  0  0  0  0  0  0  0  0  0  0  0
   59.4810   30.8150   48.0290 C   0  0  0  0  0  0  0  0  0  0  0  0
   59.8810   31.1070   49.2340 N   0  0  0  0  0  0  0  0  0  0  0  0
   59.1360   31.7610   50.2750 C   0  0  0  0  0  0  0  0  0  0  0  0
   59.6230   32.9760   50.7780 C   0  0  0  0  0  0  0  0  0  0  0  0
   60.5455   33.4079   50.3628 H   0  0  0  0  0  0  0  0  0  0  0  0
   58.9460   33.6420   51.8020 C   0  0  0  0  0  0  0  0  0  0  0  0
   59.3252   34.6041   52.1769 H   0  0  0  0  0  0  0  0  0  0  0  0
   57.7860   33.0860   52.3510 C   0  0  0  0  0  0  0  0  0  0  0  0
   57.2421   33.6232   53.1419 H   0  0  0  0  0  0  0  0  0  0  0  0
   57.3130   31.8440   51.8960 C   0  0  0  0  0  0  0  0  0  0  0  0
   56.0600   31.2540   52.4780 C   0  0  0  0  0  0  0  0  0  0  0  0
   56.1177   31.2812   53.5762 H   0  0  0  0  0  0  0  0  0  0  0  0
   55.1898   31.8370   52.1420 H   0  0  0  0  0  0  0  0  0  0  0  0
   55.9550   30.2118   52.1420 H   0  0  0  0  0  0  0  0  0  0  0  0
   57.9880   31.1840   50.8550 C   0  0  0  0  0  0  0  0  0  0  0  0
   57.6192   30.2136   50.4914 H   0  0  0  0  0  0  0  0  0  0  0  0
   59.7130   31.7120   46.9600 C   0  0  0  0  0  0  0  0  0  0  0  0
   60.4320   33.0040   47.1430 C   0  0  0  0  0  0  0  0  0  0  0  0
   61.1110   33.2010   48.1910 O   0  0  0  0  0  0  0  0  0  0  0  0
   60.3660   34.0280   46.1440 N   0  0  0  0  0  0  0  0  0  0  0  0
   59.1930   34.8690   45.9570 C   0  0  0  0  0  0  0  0  0  0  0  0
   59.6603   35.8382   46.1856 H   0  0  0  0  0  0  0  0  0  0  0  0
   58.2490   34.3690   44.8790 C   0  0  0  0  0  0  0  0  0  0  0  0
   57.6720   35.0862   44.2767 H   0  0  0  0  0  0  0  0  0  0  0  0
   58.3464   33.7119   44.0022 H   0  0  0  0  0  0  0  0  0  0  0  0
   57.9100   34.1620   46.3480 C   0  0  0  0  0  0  0  0  0  0  0  0
   57.0875   34.7293   46.8080 H   0  0  0  0  0  0  0  0  0  0  0  0
   57.6602   33.2926   46.9740 H   0  0  0  0  0  0  0  0  0  0  0  0
   59.2350   31.3880   45.7200 N   0  0  0  0  0  0  0  0  0  0  0  0
   59.4170   32.0290   44.9150 H   0  0  0  0  0  0  0  0  0  0  0  0
   58.5250   30.2450   45.4910 C   0  0  0  0  0  0  0  0  0  0  0  0
   58.0440   29.9340   44.0910 C   0  0  0  0  0  0  0  0  0  0  0  0
   58.0788   28.8462   43.9311 H   0  0  0  0  0  0  0  0  0  0  0  0
   58.6980   30.4480   43.3713 H   0  0  0  0  0  0  0  0  0  0  0  0
   56.6130   30.4240   43.8880 C   0  0  0  0  0  0  0  0  0  0  0  0
   56.1387   30.5864   44.8671 H   0  0  0  0  0  0  0  0  0  0  0  0
   56.6254   31.3691   43.3253 H   0  0  0  0  0  0  0  0  0  0  0  0
   56.0435   29.6697   43.3253 H   0  0  0  0  0  0  0  0  0  0  0  0
   56.3080   24.9810   47.2970 C   0  0  0  0  0  0  0  0  0  0  0  0
   56.1889   25.5652   48.2214 H   0  0  0  0  0  0  0  0  0  0  0  0
   55.5547   24.1798   47.2699 H   0  0  0  0  0  0  0  0  0  0  0  0
   57.3148   24.5387   47.2699 H   0  0  0  0  0  0  0  0  0  0  0  0
   56.5920   25.1920   44.8070 C   0  0  0  0  0  0  0  0  0  0  0  0
   57.1814   24.3042   45.0799 H   0  0  0  0  0  0  0  0  0  0  0  0
   55.7184   24.8840   44.2137 H   0  0  0  0  0  0  0  0  0  0  0  0
   57.2150   25.8775   44.2137 H   0  0  0  0  0  0  0  0  0  0  0  0
  1  2  1  0
  2  3  1  0
  3  4  1  0
  4  5  3  0
  5  6  1  0
  6  7  1  0
  7  8  1  0
  8  9  2  0
  9 10  1  0
 10 11  2  0
 11 12  1  0
 11 13  1  0
 13 14  1  0
 13 15  2  0
 15 16  1  0
 15 17  1  0
 17 18  1  0
 18 19  1  0
 18 20  1  0
 18 21  1  0
 17 22  2  0
 22 23  1  0
  8 24  1  0
 24 25  1  0
 25 26  2  0
 25 27  1  0
 27 28  1  0
 28 29  1  0
 28 30  1  0
 30 31  1  0
 30 32  1  0
 30 33  1  0
 33 34  1  0
 33 35  1  0
 24 36  2  0
 36 37  1  0
 36 38  1  0
 38 39  1  0
 39 40  1  0
 39 41  1  0
 39 42  1  0
 42 43  1  0
 42 44  1  0
 42 45  1  0
  3 46  1  0
 46 47  1  0
 46 48  1  0
 46 49  1  0
  3 50  1  0
 50 51  1  0
 50 52  1  0
 50 53  1  0
 38  6  2  0
 22 10  1  0
 33 28  1  0
M  CHG  3   7  -1  27  -1  36   1
M  END
>  <UniqueID>  (79) 
75

>  <SMILES>  (79) 
CCc1[nH+]c(C(=O)[N-]C2CC2)/c(=N/c2cccc(C)c2)[n-]c1C#CC(C)(C)O

>  <Energy>  (79) 
315.52633928739886

>  <Genealogy>  (79) 
CCc1[nH+]c(C(=O)[N-]C2CC2)c(=Nc2cccc(C)c2)[n-]c1C#CC(C)(C)O (protonated)
CCc1[nH+]c(C(=O)[N-]C2CC2)/c(=N/c2cccc(C)c2)[n-]c1C#CC(C)(C)O (cis-trans isomerization)
CCc1[nH+]c(C(=O)[N-]C2CC2)/c(=N/c2cccc(C)c2)[n-]c1C#CC(C)(C)O (3D coordinates assigned)
CCc1[nH+]c(C(=O)[N-]C2CC2)/c(=N/c2cccc(C)c2)[n-]c1C#CC(C)(C)O (nonaromatic ring conformer: 315.52633928739886 kcal/mol)

>  <smiles>  (79) 
CCc1nc(C(=O)NC2CC2)c(=Nc2cccc(C)c2)[nH]c1C#CC(C)(C)O

>  <score_type>  (79) 
oracle

>  <origin>  (79) 
adg

>  <m_score__min__energy>  (79) 
-8.4700000000000006

>  <m_primary>  (79) 
energy

$$$$
79:0
     RDKit          3D

 55 58  0  0  0  0  0  0  0  0999 V2000
   53.8506   29.2488   56.5236 H   0  0  0  0  0  0  0  0  0  0  0  0
   53.3730   29.7070   55.6450 C   0  0  0  0  0  0  0  0  0  0  0  0
   52.3120   29.9948   55.6833 H   0  0  0  0  0  0  0  0  0  0  0  0
   54.0850   29.9150   54.5260 C   0  0  0  0  0  0  0  0  0  0  0  0
   53.6110   30.4850   53.3400 C   0  0  0  0  0  0  0  0  0  0  0  0
   52.3830   30.9920   53.1100 C   0  0  0  0  0  0  0  0  0  0  0  0
   51.7866   31.3172   53.9752 H   0  0  0  0  0  0  0  0  0  0  0  0
   51.7930   31.1360   51.7670 C   0  0  0  0  0  0  0  0  0  0  0  0
   52.0340   30.2800   50.7580 N   0  0  0  0  0  0  0  0  0  0  0  0
   51.3770   30.8310   49.7150 C   0  0  0  0  0  0  0  0  0  0  0  0
   51.3580   30.3050   48.5710 O   0  0  0  0  0  0  0  0  0  0  0  0
   50.7540   31.9960   49.9890 N   0  0  0  0  0  0  0  0  0  0  0  0
   51.0380   32.1840   51.2880 C   0  0  0  0  0  0  0  0  0  0  0  0
   50.6600   33.3150   52.0020 O   0  0  0  0  0  0  0  0  0  0  0  0
   54.6750   30.4710   52.4500 C   0  0  0  0  0  0  0  0  0  0  0  0
   54.6703   30.8473   51.4164 H   0  0  0  0  0  0  0  0  0  0  0  0
   55.7410   29.8940   53.1110 C   0  0  0  0  0  0  0  0  0  0  0  0
   57.0540   29.6290   52.4870 C   0  0  0  0  0  0  0  0  0  0  0  0
   57.6920   28.5930   52.8200 O   0  0  0  0  0  0  0  0  0  0  0  0
   57.5880   30.4910   51.4620 N   0  0  0  0  0  0  0  0  0  0  0  0
   58.5000   29.9260   50.4590 C   0  0  0  0  0  0  0  0  0  0  0  0
   59.4327   29.6218   50.9566 H   0  0  0  0  0  0  0  0  0  0  0  0
   58.0030   29.0634   49.9912 H   0  0  0  0  0  0  0  0  0  0  0  0
   58.8320   30.9400   49.3590 C   0  0  0  0  0  0  0  0  0  0  0  0
   59.6589   30.5525   48.7457 H   0  0  0  0  0  0  0  0  0  0  0  0
   57.9401   31.0951   48.7341 H   0  0  0  0  0  0  0  0  0  0  0  0
   59.2300   32.2270   49.9540 N   0  0  0  0  0  0  0  0  0  0  0  0
   60.2910   33.0370   49.3950 C   0  0  0  0  0  0  0  0  0  0  0  0
   60.4850   34.2000   49.8440 O   0  0  0  0  0  0  0  0  0  0  0  0
   61.1640   32.5420   48.2690 C   0  0  0  0  0  0  0  0  0  0  0  0
   61.8142   33.3635   47.9338 H   0  0  0  0  0  0  0  0  0  0  0  0
   61.7604   31.6963   48.6421 H   0  0  0  0  0  0  0  0  0  0  0  0
   60.3840   32.0850   47.1600 O   0  0  0  0  0  0  0  0  0  0  0  0
   59.4570   32.8660   46.4490 C   0  0  0  0  0  0  0  0  0  0  0  0
   59.8410   33.9390   45.6190 C   0  0  0  0  0  0  0  0  0  0  0  0
   60.9055   34.1942   45.5107 H   0  0  0  0  0  0  0  0  0  0  0  0
   58.8740   34.6800   44.9330 C   0  0  0  0  0  0  0  0  0  0  0  0
   59.1796   35.5165   44.2873 H   0  0  0  0  0  0  0  0  0  0  0  0
   57.5190   34.3600   45.0660 C   0  0  0  0  0  0  0  0  0  0  0  0
   56.7601   34.9433   44.5239 H   0  0  0  0  0  0  0  0  0  0  0  0
   57.1300   33.3000   45.8870 C   0  0  0  0  0  0  0  0  0  0  0  0
   56.0642   33.0495   45.9931 H   0  0  0  0  0  0  0  0  0  0  0  0
   58.0950   32.5560   46.5750 C   0  0  0  0  0  0  0  0  0  0  0  0
   57.7828   31.7213   47.2198 H   0  0  0  0  0  0  0  0  0  0  0  0
   58.4560   32.7690   51.0860 C   0  0  0  0  0  0  0  0  0  0  0  0
   59.1037   32.8027   51.9745 H   0  0  0  0  0  0  0  0  0  0  0  0
   58.1076   33.7744   50.8070 H   0  0  0  0  0  0  0  0  0  0  0  0
   57.2240   31.9150   51.4050 C   0  0  0  0  0  0  0  0  0  0  0  0
   56.8114   32.2228   52.3771 H   0  0  0  0  0  0  0  0  0  0  0  0
   56.4744   32.0603   50.6132 H   0  0  0  0  0  0  0  0  0  0  0  0
   55.3890   29.5660   54.3780 N   0  0  0  0  0  0  0  0  0  0  0  0
   56.2510   28.9500   55.3960 C   0  0  0  0  0  0  0  0  0  0  0  0
   55.8815   29.2141   56.3979 H   0  0  0  0  0  0  0  0  0  0  0  0
   56.2362   27.8567   55.2761 H   0  0  0  0  0  0  0  0  0  0  0  0
   57.2806   29.3181   55.2761 H   0  0  0  0  0  0  0  0  0  0  0  0
  1  2  1  0
  2  3  1  0
  2  4  2  0
  4  5  1  0
  5  6  2  0
  6  7  1  0
  6  8  1  0
  8  9  1  0
  9 10  1  0
 10 11  2  0
 10 12  1  0
 12 13  1  0
 13 14  1  0
  5 15  1  0
 15 16  1  0
 15 17  2  0
 17 18  1  0
 18 19  2  0
 18 20  1  0
 20 21  1  0
 21 22  1  0
 21 23  1  0
 21 24  1  0
 24 25  1  0
 24 26  1  0
 24 27  1  0
 27 28  1  0
 28 29  2  0
 28 30  1  0
 30 31  1  0
 30 32  1  0
 30 33  1  0
 33 34  1  0
 34 35  2  0
 35 36  1  0
 35 37  1  0
 37 38  1  0
 37 39  2  0
 39 40  1  0
 39 41  1  0
 41 42  1  0
 41 43  2  0
 43 44  1  0
 27 45  1  0
 45 46  1  0
 45 47  1  0
 45 48  1  0
 48 49  1  0
 48 50  1  0
 17 51  1  0
 51 52  1  0
 52 53  1  0
 52 54  1  0
 52 55  1  0
 51  4  1  0
 13  8  2  0
 48 20  1  0
 43 34  1  0
M  CHG  3   9  -1  12  -1  14  -1
M  END
>  <UniqueID>  (80) 
76

>  <SMILES>  (80) 
C=c1/c(=C/c2[n-]c(=O)[n-]c2[O-])cc(C(=O)N2CCN(C(=O)COc3ccccc3)CC2)n1C

>  <Energy>  (80) 
129.8810872032956

>  <Genealogy>  (80) 
C=c1c(=Cc2[n-]c(=O)[n-]c2[O-])cc(C(=O)N2CCN(C(=O)COc3ccccc3)CC2)n1C (protonated)
C=c1/c(=C/c2[n-]c(=O)[n-]c2[O-])cc(C(=O)N2CCN(C(=O)COc3ccccc3)CC2)n1C (cis-trans isomerization)
C=c1/c(=C/c2[n-]c(=O)[n-]c2[O-])cc(C(=O)N2CCN(C(=O)COc3ccccc3)CC2)n1C (3D coordinates assigned)
C=c1/c(=C/c2[n-]c(=O)[n-]c2[O-])cc(C(=O)N2CCN(C(=O)COc3ccccc3)CC2)n1C (nonaromatic ring conformer: 129.8810872032956 kcal/mol)

>  <smiles>  (80) 
C=c1c(=Cc2[nH]c(=O)[nH]c2O)cc(C(=O)N2CCN(C(=O)COc3ccccc3)CC2)n1C

>  <score_type>  (80) 
oracle

>  <origin>  (80) 
adg

>  <m_score__min__energy>  (80) 
-18.030000000000001

>  <m_primary>  (80) 
energy

$$$$
80:0
     RDKit          3D

 53 55  0  0  0  0  0  0  0  0999 V2000
   53.5780   28.2880   53.4080 C   0  0  0  0  0  0  0  0  0  0  0  0
   54.4780   29.2290   53.0820 C   0  0  0  0  0  0  0  0  0  0  0  0
   54.2000   30.5020   52.5650 C   0  0  0  0  0  0  0  0  0  0  0  0
   53.0410   31.1870   52.4560 C   0  0  0  0  0  0  0  0  0  0  0  0
   52.1600   31.2120   51.2800 C   0  0  0  0  0  0  0  0  0  0  0  0
   52.2260   30.3080   50.2900 N   0  0  0  0  0  0  0  0  0  0  0  0
   51.3590   30.7930   49.3660 C   0  0  0  0  0  0  0  0  0  0  0  0
   51.1340   30.2110   48.2720 O   0  0  0  0  0  0  0  0  0  0  0  0
   50.7690   31.9630   49.6960 N   0  0  0  0  0  0  0  0  0  0  0  0
   51.2970   32.2210   50.9050 C   0  0  0  0  0  0  0  0  0  0  0  0
   51.0280   33.3740   51.6260 O   0  0  0  0  0  0  0  0  0  0  0  0
   55.4110   31.0230   52.1510 C   0  0  0  0  0  0  0  0  0  0  0  0
   56.3820   30.0980   52.4750 C   0  0  0  0  0  0  0  0  0  0  0  0
   57.8210   30.3140   52.1740 C   0  0  0  0  0  0  0  0  0  0  0  0
   58.6240   30.2490   53.1360 O   0  0  0  0  0  0  0  0  0  0  0  0
   58.3030   30.6040   50.8280 N   0  0  0  0  0  0  0  0  0  0  0  0
   57.9950   32.0140   50.4340 C   0  0  0  0  0  0  0  0  0  0  0  0
   59.2400   32.8650   50.1400 C   0  0  0  0  0  0  0  0  0  0  0  0
   60.1220   32.1740   49.1910 N   0  0  0  0  0  0  0  0  0  0  0  0
   60.8780   32.9390   48.2260 C   0  0  0  0  0  0  0  0  0  0  0  0
   60.8880   34.2000   48.2970 O   0  0  0  0  0  0  0  0  0  0  0  0
   61.6560   32.2970   47.1060 C   0  0  0  0  0  0  0  0  0  0  0  0
   63.0940   32.6150   47.2360 N   0  0  0  0  0  0  0  0  0  0  0  0
   63.3940   33.9390   46.6660 C   0  0  0  0  0  0  0  0  0  0  0  0
   63.5020   32.5770   48.6480 C   0  0  0  0  0  0  0  0  0  0  0  0
   60.2960   30.7230   49.3320 C   0  0  0  0  0  0  0  0  0  0  0  0
   59.7350   30.2370   50.6720 C   0  0  0  0  0  0  0  0  0  0  0  0
   55.8230   29.0180   53.0760 N   0  0  0  0  0  0  0  0  0  0  0  0
   56.5460   27.9040   53.6940 C   0  0  0  0  0  0  0  0  0  0  0  0
   53.9146   27.3200   53.8075 H   0  0  0  0  0  0  0  0  0  0  0  0
   52.5039   28.4849   53.2756 H   0  0  0  0  0  0  0  0  0  0  0  0
   52.7278   31.7807   53.3275 H   0  0  0  0  0  0  0  0  0  0  0  0
   55.5707   31.9925   51.6564 H   0  0  0  0  0  0  0  0  0  0  0  0
   57.7970   29.9700   50.1710 H   0  0  0  0  0  0  0  0  0  0  0  0
   57.3692   31.9920   49.5296 H   0  0  0  0  0  0  0  0  0  0  0  0
   57.4847   32.4802   51.2898 H   0  0  0  0  0  0  0  0  0  0  0  0
   58.9272   33.8274   49.7088 H   0  0  0  0  0  0  0  0  0  0  0  0
   59.7879   33.0309   51.0793 H   0  0  0  0  0  0  0  0  0  0  0  0
   61.5198   31.2063   47.1475 H   0  0  0  0  0  0  0  0  0  0  0  0
   61.2879   32.6849   46.1447 H   0  0  0  0  0  0  0  0  0  0  0  0
   63.5574   34.6603   47.4803 H   0  0  0  0  0  0  0  0  0  0  0  0
   64.3003   33.8745   46.0459 H   0  0  0  0  0  0  0  0  0  0  0  0
   62.5484   34.2714   46.0459 H   0  0  0  0  0  0  0  0  0  0  0  0
   62.6120   32.6599   49.2892 H   0  0  0  0  0  0  0  0  0  0  0  0
   64.0163   31.6271   48.8556 H   0  0  0  0  0  0  0  0  0  0  0  0
   64.1829   33.4156   48.8556 H   0  0  0  0  0  0  0  0  0  0  0  0
   59.7658   30.2147   48.5131 H   0  0  0  0  0  0  0  0  0  0  0  0
   61.3705   30.4908   49.2939 H   0  0  0  0  0  0  0  0  0  0  0  0
   59.8312   29.1425   50.7240 H   0  0  0  0  0  0  0  0  0  0  0  0
   60.3049   30.7189   51.4801 H   0  0  0  0  0  0  0  0  0  0  0  0
   56.4888   27.9922   54.7890 H   0  0  0  0  0  0  0  0  0  0  0  0
   56.0927   26.9527   53.3786 H   0  0  0  0  0  0  0  0  0  0  0  0
   57.5995   27.9306   53.3786 H   0  0  0  0  0  0  0  0  0  0  0  0
  1  2  2  0
  2  3  1  0
  3  4  2  3
  4  5  1  0
  5  6  1  0
  6  7  1  0
  7  8  2  0
  7  9  1  0
  9 10  1  0
 10 11  1  0
  3 12  1  0
 12 13  2  0
 13 14  1  0
 14 15  2  0
 14 16  1  0
 16 17  1  0
 17 18  1  0
 18 19  1  0
 19 20  1  0
 20 21  2  0
 20 22  1  0
 22 23  1  0
 23 24  1  0
 23 25  1  0
 19 26  1  0
 26 27  1  0
 13 28  1  0
 28 29  1  0
 28  2  1  0
 10  5  2  0
 27 16  1  0
  1 30  1  0
  1 31  1  0
  4 32  1  0
 12 33  1  0
 16 34  1  0
 17 35  1  0
 17 36  1  0
 18 37  1  0
 18 38  1  0
 22 39  1  0
 22 40  1  0
 24 41  1  0
 24 42  1  0
 24 43  1  0
 25 44  1  0
 25 45  1  0
 25 46  1  0
 26 47  1  0
 26 48  1  0
 27 49  1  0
 27 50  1  0
 29 51  1  0
 29 52  1  0
 29 53  1  0
M  CHG  4   6  -1   9  -1  11  -1  16   1
M  END
>  <UniqueID>  (81) 
77

>  <SMILES>  (81) 
C=c1c(=Cc2[n-]c(=O)[n-]c2[O-])cc(C(=O)[NH+]2CCN(C(=O)CN(C)C)CC2)n1C

>  <Energy>  (81) 
142.80927922616914

>  <Genealogy>  (81) 
C=c1c(=Cc2[n-]c(=O)[n-]c2[O-])cc(C(=O)[NH+]2CCN(C(=O)CN(C)C)CC2)n1C (protonated)
C=c1c(=Cc2[n-]c(=O)[n-]c2[O-])cc(C(=O)[NH+]2CCN(C(=O)CN(C)C)CC2)n1C (3D coordinates assigned)
C=c1c(=Cc2[n-]c(=O)[n-]c2[O-])cc(C(=O)[NH+]2CCN(C(=O)CN(C)C)CC2)n1C (nonaromatic ring conformer: 142.80927922616914 kcal/mol)

>  <smiles>  (81) 
C=c1c(=Cc2[nH]c(=O)[nH]c2O)cc(C(=O)N2CCN(C(=O)CN(C)C)CC2)n1C

>  <score_type>  (81) 
oracle

>  <origin>  (81) 
adg

>  <m_score__min__energy>  (81) 
-15.949999999999999

>  <m_primary>  (81) 
energy

$$$$
81:0
     RDKit          3D

 34 35  0  0  0  0  0  0  0  0999 V2000
   59.7220   29.9360   47.3550 C   0  0  0  0  0  0  0  0  0  0  0  0
   59.0250   30.1700   46.2210 C   0  0  0  0  0  0  0  0  0  0  0  0
   58.8580   31.5100   45.7600 C   0  0  0  0  0  0  0  0  0  0  0  0
   59.4230   32.9370   46.6340 S   0  0  0  0  0  0  0  0  0  0  0  0
   61.1310   32.9160   47.1340 C   0  0  0  0  0  0  0  0  0  0  0  0
   58.9100   34.3970   45.9720 O   0  0  0  0  0  0  0  0  0  0  0  0
   58.2390   31.7490   44.5790 N   0  0  0  0  0  0  0  0  0  0  0  0
   57.7570   30.7640   43.7870 C   0  0  0  0  0  0  0  0  0  0  0  0
   57.0500   31.1220   42.5130 C   0  0  0  0  0  0  0  0  0  0  0  0
   57.7380   32.2950   41.8250 C   0  0  0  0  0  0  0  0  0  0  0  0
   57.8520   29.4370   44.2020 C   0  0  0  0  0  0  0  0  0  0  0  0
   58.4780   29.1030   45.4240 C   0  0  0  0  0  0  0  0  0  0  0  0
   58.4810   27.8050   45.8350 C   0  0  0  0  0  0  0  0  0  0  0  0
   57.2790   26.9760   46.0610 C   0  0  0  0  0  0  0  0  0  0  0  0
   57.3290   25.7010   46.4840 N   0  0  0  0  0  0  0  0  0  0  0  0
   56.0370   25.3080   46.4490 C   0  0  0  0  0  0  0  0  0  0  0  0
   55.6700   24.1550   46.7950 O   0  0  0  0  0  0  0  0  0  0  0  0
   55.1710   26.2430   46.0050 N   0  0  0  0  0  0  0  0  0  0  0  0
   55.9740   27.2900   45.7490 C   0  0  0  0  0  0  0  0  0  0  0  0
   55.5300   28.4940   45.2110 O   0  0  0  0  0  0  0  0  0  0  0  0
   59.8547   28.9055   47.7163 H   0  0  0  0  0  0  0  0  0  0  0  0
   60.1566   30.7760   47.9167 H   0  0  0  0  0  0  0  0  0  0  0  0
   61.1915   32.9153   48.2323 H   0  0  0  0  0  0  0  0  0  0  0  0
   61.6175   32.0118   46.7393 H   0  0  0  0  0  0  0  0  0  0  0  0
   61.6396   33.8080   46.7393 H   0  0  0  0  0  0  0  0  0  0  0  0
   58.4420   34.1590   45.1360 H   0  0  0  0  0  0  0  0  0  0  0  0
   57.0586   30.2527   41.8390 H   0  0  0  0  0  0  0  0  0  0  0  0
   56.0157   31.4101   42.7521 H   0  0  0  0  0  0  0  0  0  0  0  0
   58.1404   32.9811   42.5849 H   0  0  0  0  0  0  0  0  0  0  0  0
   58.5598   31.9209   41.1968 H   0  0  0  0  0  0  0  0  0  0  0  0
   57.0104   32.8297   41.1968 H   0  0  0  0  0  0  0  0  0  0  0  0
   57.4343   28.6393   43.5702 H   0  0  0  0  0  0  0  0  0  0  0  0
   59.4592   27.3346   46.0136 H   0  0  0  0  0  0  0  0  0  0  0  0
   54.7370   28.9770   45.6130 H   0  0  0  0  0  0  0  0  0  0  0  0
  1  2  2  0
  2  3  1  0
  3  4  1  0
  4  5  1  0
  4  6  1  6
  3  7  2  0
  7  8  1  0
  8  9  1  0
  9 10  1  0
  8 11  2  0
 11 12  1  0
 12 13  2  3
 13 14  1  0
 14 15  1  0
 15 16  1  0
 16 17  2  0
 16 18  1  0
 18 19  1  0
 19 20  1  0
 12  2  1  0
 19 14  2  0
  1 21  1  0
  1 22  1  0
  5 23  1  0
  5 24  1  0
  5 25  1  0
  6 26  1  0
  9 27  1  0
  9 28  1  0
 10 29  1  0
 10 30  1  0
 10 31  1  0
 11 32  1  0
 13 33  1  0
 20 34  1  0
M  CHG  3   4   1  15  -1  18  -1
M  END
>  <UniqueID>  (82) 
78

>  <SMILES>  (82) 
C=c1c([S@@+](C)O)nc(CC)cc1=Cc1[n-]c(=O)[n-]c1O

>  <Energy>  (82) 
76.88925871129447

>  <Genealogy>  (82) 
C=c1c([S+](C)O)nc(CC)cc1=Cc1[n-]c(=O)[n-]c1O (protonated)
C=c1c([S@@+](C)O)nc(CC)cc1=Cc1[n-]c(=O)[n-]c1O (chirality)
C=c1c([S@@+](C)O)nc(CC)cc1=Cc1[n-]c(=O)[n-]c1O (3D coordinates assigned)
C=c1c([S@@+](C)O)nc(CC)cc1=Cc1[n-]c(=O)[n-]c1O (optimized conformer: 76.88925871129447 kcal/mol)

>  <smiles>  (82) 
C=c1c([S+](C)[O-])nc(CC)cc1=Cc1[nH]c(=O)[nH]c1O

>  <score_type>  (82) 
oracle

>  <origin>  (82) 
adg

>  <m_score__min__energy>  (82) 
-9.8599999999999994

>  <m_primary>  (82) 
energy

$$$$
82:0
     RDKit          3D

 48 51  0  0  0  0  0  0  0  0999 V2000
   54.6573   30.2833   55.6653 H   0  0  0  0  0  0  0  0  0  0  0  0
   53.9860   30.3270   54.7950 C   0  0  0  0  0  0  0  0  0  0  0  0
   52.8957   30.3124   54.9401 H   0  0  0  0  0  0  0  0  0  0  0  0
   54.4960   30.3980   53.5590 C   0  0  0  0  0  0  0  0  0  0  0  0
   53.7950   30.4600   52.3520 C   0  0  0  0  0  0  0  0  0  0  0  0
   52.4600   30.4510   52.1890 C   0  0  0  0  0  0  0  0  0  0  0  0
   51.8352   30.1235   53.0330 H   0  0  0  0  0  0  0  0  0  0  0  0
   51.7870   30.8570   50.9380 C   0  0  0  0  0  0  0  0  0  0  0  0
   51.6920   30.1090   49.8210 N   0  0  0  0  0  0  0  0  0  0  0  0
   50.9990   30.8990   48.9730 C   0  0  0  0  0  0  0  0  0  0  0  0
   50.7100   30.5470   47.7980 O   0  0  0  0  0  0  0  0  0  0  0  0
   50.6450   32.1000   49.4770 N   0  0  0  0  0  0  0  0  0  0  0  0
   51.1530   32.0570   50.7210 C   0  0  0  0  0  0  0  0  0  0  0  0
   51.0440   33.1000   51.6360 O   0  0  0  0  0  0  0  0  0  0  0  0
   54.6780   30.5180   51.3290 N   0  0  0  0  0  0  0  0  0  0  0  0
   55.8830   30.4870   51.9290 C   0  0  0  0  0  0  0  0  0  0  0  0
   56.9650   30.5070   51.2830 O   0  0  0  0  0  0  0  0  0  0  0  0
   55.8180   30.4180   53.2760 N   0  0  0  0  0  0  0  0  0  0  0  0
   56.9520   30.3110   54.2010 C   0  0  0  0  0  0  0  0  0  0  0  0
   57.2896   31.3205   54.4783 H   0  0  0  0  0  0  0  0  0  0  0  0
   56.6301   29.7598   55.0969 H   0  0  0  0  0  0  0  0  0  0  0  0
   58.0840   29.5720   53.5580 C   0  0  0  0  0  0  0  0  0  0  0  0
   57.9820   28.3310   53.3570 O   0  0  0  0  0  0  0  0  0  0  0  0
   59.3070   30.2630   53.2670 N   0  0  0  0  0  0  0  0  0  0  0  0
   59.5850   31.0600   52.1070 C   0  0  0  0  0  0  0  0  0  0  0  0
   59.3220   32.4410   52.0700 C   0  0  0  0  0  0  0  0  0  0  0  0
   58.8687   32.9365   52.9412 H   0  0  0  0  0  0  0  0  0  0  0  0
   59.6350   33.1860   50.9290 C   0  0  0  0  0  0  0  0  0  0  0  0
   59.4161   34.2637   50.9040 H   0  0  0  0  0  0  0  0  0  0  0  0
   60.2270   32.5690   49.8140 C   0  0  0  0  0  0  0  0  0  0  0  0
   60.5670   33.3370   48.6430 N   0  0  0  0  0  0  0  0  0  0  0  0
   59.7050   34.4480   48.2130 C   0  0  0  0  0  0  0  0  0  0  0  0
   58.6777   34.2567   48.5564 H   0  0  0  0  0  0  0  0  0  0  0  0
   60.0977   35.3780   48.6499 H   0  0  0  0  0  0  0  0  0  0  0  0
   59.7000   34.6000   46.6730 C   0  0  0  0  0  0  0  0  0  0  0  0
   58.6851   34.3872   46.3059 H   0  0  0  0  0  0  0  0  0  0  0  0
   60.0188   35.6288   46.4496 H   0  0  0  0  0  0  0  0  0  0  0  0
   60.6070   33.7310   46.0130 O   0  0  0  0  0  0  0  0  0  0  0  0
   61.8800   33.8170   46.6150 C   0  0  0  0  0  0  0  0  0  0  0  0
   62.6276   33.3409   45.9635 H   0  0  0  0  0  0  0  0  0  0  0  0
   62.1468   34.8737   46.7640 H   0  0  0  0  0  0  0  0  0  0  0  0
   61.8490   33.1010   47.9650 C   0  0  0  0  0  0  0  0  0  0  0  0
   61.9804   32.0207   47.8049 H   0  0  0  0  0  0  0  0  0  0  0  0
   62.6618   33.4926   48.5943 H   0  0  0  0  0  0  0  0  0  0  0  0
   60.5140   31.1950   49.8670 C   0  0  0  0  0  0  0  0  0  0  0  0
   60.9889   30.7023   49.0058 H   0  0  0  0  0  0  0  0  0  0  0  0
   60.2000   30.4500   51.0070 C   0  0  0  0  0  0  0  0  0  0  0  0
   60.4378   29.3765   51.0403 H   0  0  0  0  0  0  0  0  0  0  0  0
  1  2  1  0
  2  3  1  0
  2  4  2  0
  4  5  1  0
  5  6  2  0
  6  7  1  0
  6  8  1  0
  8  9  1  0
  9 10  1  0
 10 11  2  0
 10 12  1  0
 12 13  1  0
 13 14  1  0
  5 15  1  0
 15 16  1  0
 16 17  2  0
 16 18  1  0
 18 19  1  0
 19 20  1  0
 19 21  1  0
 19 22  1  0
 22 23  2  0
 22 24  1  0
 24 25  1  0
 25 26  2  0
 26 27  1  0
 26 28  1  0
 28 29  1  0
 28 30  2  0
 30 31  1  0
 31 32  1  0
 32 33  1  0
 32 34  1  0
 32 35  1  0
 35 36  1  0
 35 37  1  0
 35 38  1  0
 38 39  1  0
 39 40  1  0
 39 41  1  0
 39 42  1  0
 42 43  1  0
 42 44  1  0
 30 45  1  0
 45 46  1  0
 45 47  2  0
 47 48  1  0
 18  4  1  0
 47 25  1  0
 13  8  2  0
 42 31  1  0
M  CHG  5   9  -1  12  -1  14  -1  15  -1  24  -1
M  END
>  <UniqueID>  (83) 
79

>  <SMILES>  (83) 
C=c1/c(=C/c2[n-]c(=O)[n-]c2[O-])[n-]c(=O)n1CC(=O)[N-]c1ccc(N2CCOCC2)cc1

>  <Energy>  (83) 
128.26078475387973

>  <Genealogy>  (83) 
C=c1c(=Cc2[n-]c(=O)[n-]c2[O-])[n-]c(=O)n1CC(=O)[N-]c1ccc(N2CCOCC2)cc1 (protonated)
C=c1/c(=C/c2[n-]c(=O)[n-]c2[O-])[n-]c(=O)n1CC(=O)[N-]c1ccc(N2CCOCC2)cc1 (cis-trans isomerization)
C=c1/c(=C/c2[n-]c(=O)[n-]c2[O-])[n-]c(=O)n1CC(=O)[N-]c1ccc(N2CCOCC2)cc1 (3D coordinates assigned)
C=c1/c(=C/c2[n-]c(=O)[n-]c2[O-])[n-]c(=O)n1CC(=O)[N-]c1ccc(N2CCOCC2)cc1 (nonaromatic ring conformer: 128.26078475387973 kcal/mol)

>  <smiles>  (83) 
C=c1c(=Cc2[nH]c(=O)[nH]c2O)[nH]c(=O)n1CC(=O)Nc1ccc(N2CCOCC2)cc1

>  <score_type>  (83) 
oracle

>  <origin>  (83) 
adg

>  <m_score__min__energy>  (83) 
-18.989999999999998

>  <m_primary>  (83) 
energy

$$$$
83:0
     RDKit          3D

 74 77  0  0  0  0  0  0  0  0999 V2000
   59.9290   33.8640   51.4130 C   0  0  0  0  0  0  0  0  0  0  0  0
   60.4590   33.5190   50.1370 O   0  0  0  0  0  0  0  0  0  0  0  0
   59.7440   33.5970   48.9310 C   0  0  0  0  0  0  0  0  0  0  0  0
   60.0110   34.5900   47.9680 C   0  0  0  0  0  0  0  0  0  0  0  0
   59.2650   34.6500   46.7890 C   0  0  0  0  0  0  0  0  0  0  0  0
   58.2430   33.7210   46.5500 C   0  0  0  0  0  0  0  0  0  0  0  0
   57.4500   33.7830   45.2700 C   0  0  0  0  0  0  0  0  0  0  0  0
   58.1950   33.1190   44.1120 C   0  0  0  0  0  0  0  0  0  0  0  0
   57.3940   32.0380   43.5500 N   0  0  0  0  0  0  0  0  0  0  0  0
   56.8050   30.9760   44.3110 C   0  0  0  0  0  0  0  0  0  0  0  0
   55.5580   30.8070   44.2500 O   0  0  0  0  0  0  0  0  0  0  0  0
   57.6140   30.0500   45.1270 C   0  0  0  0  0  0  0  0  0  0  0  0
   58.9440   30.3550   45.4600 C   0  0  0  0  0  0  0  0  0  0  0  0
   59.7000   29.4700   46.2340 C   0  0  0  0  0  0  0  0  0  0  0  0
   59.1330   28.2730   46.6930 C   0  0  0  0  0  0  0  0  0  0  0  0
   60.0650   27.1460   47.6750 S   0  0  0  0  0  0  0  0  0  0  0  0
   59.1290   26.0870   48.1930 O   0  0  0  0  0  0  0  0  0  0  0  0
   61.1060   26.4750   46.8200 O   0  0  0  0  0  0  0  0  0  0  0  0
   60.8160   28.0300   48.9940 N   0  0  0  0  0  0  0  0  0  0  0  0
   59.9550   29.1500   49.4280 C   0  0  0  0  0  0  0  0  0  0  0  0
   60.5480   29.8940   50.6460 C   0  0  0  0  0  0  0  0  0  0  0  0
   61.8640   29.3400   51.0100 N   0  0  0  0  0  0  0  0  0  0  0  0
   62.5380   30.1020   52.0820 C   0  0  0  0  0  0  0  0  0  0  0  0
   63.1810   31.3800   51.5990 C   0  0  0  0  0  0  0  0  0  0  0  0
   63.9360   31.4080   50.4940 C   0  0  0  0  0  0  0  0  0  0  0  0
   63.4940   31.9860   49.2020 C   0  0  0  0  0  0  0  0  0  0  0  0
   62.5250   31.3700   48.3830 C   0  0  0  0  0  0  0  0  0  0  0  0
   62.1390   31.9630   47.1770 C   0  0  0  0  0  0  0  0  0  0  0  0
   62.7220   33.1650   46.7670 C   0  0  0  0  0  0  0  0  0  0  0  0
   63.6990   33.7720   47.5610 C   0  0  0  0  0  0  0  0  0  0  0  0
   64.0860   33.1850   48.7670 C   0  0  0  0  0  0  0  0  0  0  0  0
   61.7720   27.8960   51.3020 C   0  0  0  0  0  0  0  0  0  0  0  0
   61.1180   27.1340   50.1270 C   0  0  0  0  0  0  0  0  0  0  0  0
   57.7970   27.9810   46.3900 C   0  0  0  0  0  0  0  0  0  0  0  0
   57.0390   28.8690   45.6210 C   0  0  0  0  0  0  0  0  0  0  0  0
   57.9900   32.7160   47.4960 C   0  0  0  0  0  0  0  0  0  0  0  0
   58.7340   32.6530   48.6910 C   0  0  0  0  0  0  0  0  0  0  0  0
   58.4950   31.6710   49.6670 O   0  0  0  0  0  0  0  0  0  0  0  0
   57.6780   31.8590   50.8200 C   0  0  0  0  0  0  0  0  0  0  0  0
   60.5713   33.4459   52.2021 H   0  0  0  0  0  0  0  0  0  0  0  0
   59.8931   34.9590   51.5113 H   0  0  0  0  0  0  0  0  0  0  0  0
   58.9132   33.4536   51.5113 H   0  0  0  0  0  0  0  0  0  0  0  0
   60.8120   35.3226   48.1459 H   0  0  0  0  0  0  0  0  0  0  0  0
   59.4805   35.4302   46.0442 H   0  0  0  0  0  0  0  0  0  0  0  0
   56.4903   33.2666   45.4196 H   0  0  0  0  0  0  0  0  0  0  0  0
   57.2920   34.8413   45.0149 H   0  0  0  0  0  0  0  0  0  0  0  0
   58.3934   33.8678   43.3310 H   0  0  0  0  0  0  0  0  0  0  0  0
   59.1431   32.7053   44.4861 H   0  0  0  0  0  0  0  0  0  0  0  0
   59.3933   31.2959   45.1096 H   0  0  0  0  0  0  0  0  0  0  0  0
   60.7432   29.7136   46.4837 H   0  0  0  0  0  0  0  0  0  0  0  0
   61.7160   28.4210   48.6260 H   0  0  0  0  0  0  0  0  0  0  0  0
   59.8483   29.8602   48.5948 H   0  0  0  0  0  0  0  0  0  0  0  0
   58.9796   28.7358   49.7232 H   0  0  0  0  0  0  0  0  0  0  0  0
   60.6620   30.9593   50.3969 H   0  0  0  0  0  0  0  0  0  0  0  0
   59.8658   29.7703   51.5000 H   0  0  0  0  0  0  0  0  0  0  0  0
   61.7928   30.3558   52.8503 H   0  0  0  0  0  0  0  0  0  0  0  0
   63.3425   29.4637   52.4763 H   0  0  0  0  0  0  0  0  0  0  0  0
   63.0255   32.3086   52.1678 H   0  0  0  0  0  0  0  0  0  0  0  0
   64.9461   30.9758   50.5477 H   0  0  0  0  0  0  0  0  0  0  0  0
   62.0705   30.4180   48.6947 H   0  0  0  0  0  0  0  0  0  0  0  0
   61.3744   31.4821   46.5493 H   0  0  0  0  0  0  0  0  0  0  0  0
   62.4124   33.6327   45.8208 H   0  0  0  0  0  0  0  0  0  0  0  0
   64.1639   34.7141   47.2350 H   0  0  0  0  0  0  0  0  0  0  0  0
   64.8611   33.6648   49.3826 H   0  0  0  0  0  0  0  0  0  0  0  0
   62.7835   27.4979   51.4704 H   0  0  0  0  0  0  0  0  0  0  0  0
   61.1496   27.7586   52.1986 H   0  0  0  0  0  0  0  0  0  0  0  0
   61.8068   26.3474   49.7852 H   0  0  0  0  0  0  0  0  0  0  0  0
   60.1712   26.7024   50.4837 H   0  0  0  0  0  0  0  0  0  0  0  0
   57.3425   27.0495   46.7585 H   0  0  0  0  0  0  0  0  0  0  0  0
   55.9855   28.6406   45.4018 H   0  0  0  0  0  0  0  0  0  0  0  0
   57.2041   31.9709   47.3031 H   0  0  0  0  0  0  0  0  0  0  0  0
   58.2853   31.7193   51.7265 H   0  0  0  0  0  0  0  0  0  0  0  0
   57.2606   32.8767   50.8116 H   0  0  0  0  0  0  0  0  0  0  0  0
   56.8577   31.1261   50.8116 H   0  0  0  0  0  0  0  0  0  0  0  0
  1  2  1  0
  2  3  1  0
  3  4  2  0
  4  5  1  0
  5  6  2  0
  6  7  1  0
  7  8  1  0
  8  9  1  0
  9 10  1  0
 10 11  2  0
 10 12  1  0
 12 13  2  0
 13 14  1  0
 14 15  2  0
 15 16  1  0
 16 17  2  0
 16 18  2  0
 16 19  1  0
 19 20  1  0
 20 21  1  0
 21 22  1  0
 22 23  1  0
 23 24  1  0
 24 25  2  3
 25 26  1  0
 26 27  2  0
 27 28  1  0
 28 29  2  0
 29 30  1  0
 30 31  2  0
 22 32  1  0
 32 33  1  0
 15 34  1  0
 34 35  2  0
  6 36  1  0
 36 37  2  0
 37 38  1  0
 38 39  1  0
 37  3  1  0
 35 12  1  0
 33 19  1  0
 31 26  1  0
  1 40  1  0
  1 41  1  0
  1 42  1  0
  4 43  1  0
  5 44  1  0
  7 45  1  0
  7 46  1  0
  8 47  1  0
  8 48  1  0
 13 49  1  0
 14 50  1  0
 19 51  1  0
 20 52  1  0
 20 53  1  0
 21 54  1  0
 21 55  1  0
 23 56  1  0
 23 57  1  0
 24 58  1  0
 25 59  1  0
 27 60  1  0
 28 61  1  0
 29 62  1  0
 30 63  1  0
 31 64  1  0
 32 65  1  0
 32 66  1  0
 33 67  1  0
 33 68  1  0
 34 69  1  0
 35 70  1  0
 36 71  1  0
 39 72  1  0
 39 73  1  0
 39 74  1  0
M  CHG  2   9  -1  19   1
M  END
>  <UniqueID>  (84) 
80

>  <SMILES>  (84) 
COc1ccc(CC[N-]C(=O)c2ccc(S(=O)(=O)[NH+]3CCN(CC=Cc4ccccc4)CC3)cc2)cc1OC

>  <Energy>  (84) 
90.40599600932512

>  <Genealogy>  (84) 
COc1ccc(CC[N-]C(=O)c2ccc(S(=O)(=O)[NH+]3CCN(CC=Cc4ccccc4)CC3)cc2)cc1OC (protonated)
COc1ccc(CC[N-]C(=O)c2ccc(S(=O)(=O)[NH+]3CCN(CC=Cc4ccccc4)CC3)cc2)cc1OC (3D coordinates assigned)
COc1ccc(CC[N-]C(=O)c2ccc(S(=O)(=O)[NH+]3CCN(CC=Cc4ccccc4)CC3)cc2)cc1OC (nonaromatic ring conformer: 90.40599600932512 kcal/mol)

>  <smiles>  (84) 
COc1ccc(CCNC(=O)c2ccc(S(=O)(=O)N3CCN(CC=Cc4ccccc4)CC3)cc2)cc1OC

>  <score_type>  (84) 
oracle

>  <origin>  (84) 
adg

>  <m_score__min__energy>  (84) 
-9.5500000000000007

>  <m_primary>  (84) 
energy

$$$$
84:0
     RDKit          3D

 47 50  0  0  0  0  0  0  0  0999 V2000
   55.1420   27.5140   45.4880 H   0  0  0  0  0  0  0  0  0  0  0  0
   55.0030   26.5290   45.6750 O   0  0  0  0  0  0  0  0  0  0  0  0
   56.0290   25.7280   46.1720 C   0  0  0  0  0  0  0  0  0  0  0  0
   55.8460   24.8130   47.1380 N   0  0  0  0  0  0  0  0  0  0  0  0
   57.0630   24.2400   47.2440 C   0  0  0  0  0  0  0  0  0  0  0  0
   57.3050   23.3100   48.0560 O   0  0  0  0  0  0  0  0  0  0  0  0
   57.9980   24.7360   46.4060 N   0  0  0  0  0  0  0  0  0  0  0  0
   57.3400   25.7000   45.7390 C   0  0  0  0  0  0  0  0  0  0  0  0
   57.9570   26.5070   44.6710 C   0  0  0  0  0  0  0  0  0  0  0  0
   58.4446   25.9809   43.8371 H   0  0  0  0  0  0  0  0  0  0  0  0
   57.9560   27.8530   44.6610 C   0  0  0  0  0  0  0  0  0  0  0  0
   57.2970   28.6650   43.7480 C   0  0  0  0  0  0  0  0  0  0  0  0
   56.7030   28.3339   42.8834 H   0  0  0  0  0  0  0  0  0  0  0  0
   57.5320   29.9680   44.1360 C   0  0  0  0  0  0  0  0  0  0  0  0
   56.9840   31.1760   43.4370 C   0  0  0  0  0  0  0  0  0  0  0  0
   56.6503   31.9117   44.1836 H   0  0  0  0  0  0  0  0  0  0  0  0
   57.7678   31.6223   42.8073 H   0  0  0  0  0  0  0  0  0  0  0  0
   56.1319   30.8802   42.8073 H   0  0  0  0  0  0  0  0  0  0  0  0
   58.3000   30.0010   45.2480 N   0  0  0  0  0  0  0  0  0  0  0  0
   58.7340   31.1950   45.9230 C   0  0  0  0  0  0  0  0  0  0  0  0
   60.0100   31.2800   46.3900 N   0  0  0  0  0  0  0  0  0  0  0  0
   60.4700   32.3700   47.0680 C   0  0  0  0  0  0  0  0  0  0  0  0
   61.8390   32.4000   47.5160 N   0  0  0  0  0  0  0  0  0  0  0  0
   62.7040   33.5070   47.0920 C   0  0  0  0  0  0  0  0  0  0  0  0
   62.8693   33.4397   46.0066 H   0  0  0  0  0  0  0  0  0  0  0  0
   62.2107   34.4565   47.3470 H   0  0  0  0  0  0  0  0  0  0  0  0
   64.0580   33.4490   47.8110 C   0  0  0  0  0  0  0  0  0  0  0  0
   64.6969   32.6997   47.3207 H   0  0  0  0  0  0  0  0  0  0  0  0
   64.5314   34.4407   47.7607 H   0  0  0  0  0  0  0  0  0  0  0  0
   63.8740   33.0800   49.2210 N   0  0  0  0  0  0  0  0  0  0  0  0
   63.2170   33.7680   49.6600 H   0  0  0  0  0  0  0  0  0  0  0  0
   63.3200   31.7210   49.3830 C   0  0  0  0  0  0  0  0  0  0  0  0
   64.1579   31.0173   49.4958 H   0  0  0  0  0  0  0  0  0  0  0  0
   62.6664   31.7476   50.2674 H   0  0  0  0  0  0  0  0  0  0  0  0
   62.4490   31.2520   48.1990 C   0  0  0  0  0  0  0  0  0  0  0  0
   63.0775   30.6994   47.4851 H   0  0  0  0  0  0  0  0  0  0  0  0
   61.6483   30.6036   48.5843 H   0  0  0  0  0  0  0  0  0  0  0  0
   59.6090   33.4580   47.2780 C   0  0  0  0  0  0  0  0  0  0  0  0
   59.9700   34.3579   47.7974 H   0  0  0  0  0  0  0  0  0  0  0  0
   58.2910   33.3900   46.8230 C   0  0  0  0  0  0  0  0  0  0  0  0
   57.6056   34.2332   46.9939 H   0  0  0  0  0  0  0  0  0  0  0  0
   57.8440   32.2530   46.1520 C   0  0  0  0  0  0  0  0  0  0  0  0
   56.8021   32.1868   45.8054 H   0  0  0  0  0  0  0  0  0  0  0  0
   58.5570   28.7110   45.5890 C   0  0  0  0  0  0  0  0  0  0  0  0
   59.2440   28.3420   46.6820 C   0  0  0  0  0  0  0  0  0  0  0  0
   59.6754   29.1067   47.3446 H   0  0  0  0  0  0  0  0  0  0  0  0
   59.3754   27.2750   46.9148 H   0  0  0  0  0  0  0  0  0  0  0  0
  1  2  1  0
  2  3  1  0
  3  4  1  0
  4  5  1  0
  5  6  2  0
  5  7  1  0
  7  8  1  0
  8  9  1  0
  9 10  1  0
  9 11  2  0
 11 12  1  0
 12 13  1  0
 12 14  2  0
 14 15  1  0
 15 16  1  0
 15 17  1  0
 15 18  1  0
 14 19  1  0
 19 20  1  0
 20 21  2  0
 21 22  1  0
 22 23  1  0
 23 24  1  0
 24 25  1  0
 24 26  1  0
 24 27  1  0
 27 28  1  0
 27 29  1  0
 27 30  1  0
 30 31  1  0
 30 32  1  0
 32 33  1  0
 32 34  1  0
 32 35  1  0
 35 36  1  0
 35 37  1  0
 22 38  2  0
 38 39  1  0
 38 40  1  0
 40 41  1  0
 40 42  2  0
 42 43  1  0
 19 44  1  0
 44 45  2  0
 45 46  1  0
 45 47  1  0
  8  3  2  0
 44 11  1  0
 42 20  1  0
 35 23  1  0
M  CHG  2   4  -1   7  -1
M  END
>  <UniqueID>  (85) 
81

>  <SMILES>  (85) 
C=c1/c(=C/c2[n-]c(=O)[n-]c2O)cc(C)n1-c1cccc(N2CCNCC2)n1

>  <Energy>  (85) 
128.13555657933125

>  <Genealogy>  (85) 
C=c1c(=Cc2[n-]c(=O)[n-]c2O)cc(C)n1-c1cccc(N2CCNCC2)n1 (protonated)
C=c1/c(=C/c2[n-]c(=O)[n-]c2O)cc(C)n1-c1cccc(N2CCNCC2)n1 (cis-trans isomerization)
C=c1/c(=C/c2[n-]c(=O)[n-]c2O)cc(C)n1-c1cccc(N2CCNCC2)n1 (3D coordinates assigned)
C=c1/c(=C/c2[n-]c(=O)[n-]c2O)cc(C)n1-c1cccc(N2CCNCC2)n1 (nonaromatic ring conformer: 128.13555657933125 kcal/mol)

>  <smiles>  (85) 
C=c1c(=Cc2[nH]c(=O)[nH]c2O)cc(C)n1-c1cccc(N2CCNCC2)n1

>  <score_type>  (85) 
oracle

>  <origin>  (85) 
adg

>  <m_score__min__energy>  (85) 
-13.25

>  <m_primary>  (85) 
energy

$$$$
85:0
     RDKit          3D

 32 34  0  0  0  0  0  0  0  0999 V2000
   53.6550   25.1410   45.2510 O   0  0  0  0  0  0  0  0  0  0  0  0
   54.7690   25.3120   45.8140 C   0  0  0  0  0  0  0  0  0  0  0  0
   55.2520   26.6480   45.9970 N   0  0  0  0  0  0  0  0  0  0  0  0
   56.5740   27.1150   45.6010 C   0  0  0  0  0  0  0  0  0  0  0  0
   56.4970   28.5600   45.2360 C   0  0  0  0  0  0  0  0  0  0  0  0
   57.4470   29.4550   45.5760 N   0  0  0  0  0  0  0  0  0  0  0  0
   57.0250   30.6050   45.0170 C   0  0  0  0  0  0  0  0  0  0  0  0
   57.7590   31.8900   45.1260 C   0  0  0  0  0  0  0  0  0  0  0  0
   58.1240   32.3840   46.3930 C   0  0  0  0  0  0  0  0  0  0  0  0
   58.8140   33.5930   46.5120 C   0  0  0  0  0  0  0  0  0  0  0  0
   59.1490   34.3250   45.3700 C   0  0  0  0  0  0  0  0  0  0  0  0
   58.7930   33.8470   44.1080 C   0  0  0  0  0  0  0  0  0  0  0  0
   58.1020   32.6380   43.9820 C   0  0  0  0  0  0  0  0  0  0  0  0
   55.8410   30.3700   44.3440 C   0  0  0  0  0  0  0  0  0  0  0  0
   55.5090   29.0740   44.4760 N   0  0  0  0  0  0  0  0  0  0  0  0
   55.5230   24.1330   46.2900 C   0  0  0  0  0  0  0  0  0  0  0  0
   56.6700   24.2880   47.0800 C   0  0  0  0  0  0  0  0  0  0  0  0
   57.3680   23.1970   47.4910 N   0  0  0  0  0  0  0  0  0  0  0  0
   56.9770   21.9460   47.1420 C   0  0  0  0  0  0  0  0  0  0  0  0
   57.6340   20.9490   47.5360 O   0  0  0  0  0  0  0  0  0  0  0  0
   55.8790   21.7680   46.3630 N   0  0  0  0  0  0  0  0  0  0  0  0
   55.1490   22.8280   45.9260 C   0  0  0  0  0  0  0  0  0  0  0  0
   54.1360   22.6250   45.2050 O   0  0  0  0  0  0  0  0  0  0  0  0
   57.2760   26.9841   46.4377 H   0  0  0  0  0  0  0  0  0  0  0  0
   56.9264   26.5343   44.7357 H   0  0  0  0  0  0  0  0  0  0  0  0
   57.8637   31.8133   47.2966 H   0  0  0  0  0  0  0  0  0  0  0  0
   59.0941   33.9694   47.5069 H   0  0  0  0  0  0  0  0  0  0  0  0
   59.6925   35.2766   45.4654 H   0  0  0  0  0  0  0  0  0  0  0  0
   59.0570   34.4235   43.2092 H   0  0  0  0  0  0  0  0  0  0  0  0
   57.8244   32.2685   42.9838 H   0  0  0  0  0  0  0  0  0  0  0  0
   55.2626   31.1232   43.7889 H   0  0  0  0  0  0  0  0  0  0  0  0
   57.0060   25.2950   47.3680 H   0  0  0  0  0  0  0  0  0  0  0  0
  1  2  2  0
  2  3  1  0
  3  4  1  0
  4  5  1  0
  5  6  2  0
  6  7  1  0
  7  8  1  0
  8  9  2  0
  9 10  1  0
 10 11  2  0
 11 12  1  0
 12 13  2  0
  7 14  2  0
 14 15  1  0
  2 16  1  0
 16 17  2  0
 17 18  1  0
 18 19  1  0
 19 20  2  0
 19 21  1  0
 21 22  1  0
 22 23  2  0
 15  5  1  0
 22 16  1  0
 13  8  1  0
  4 24  1  0
  4 25  1  0
  9 26  1  0
 10 27  1  0
 11 28  1  0
 12 29  1  0
 13 30  1  0
 14 31  1  0
 17 32  1  0
M  CHG  4   3  -1  15  -1  18  -1  21  -1
M  END
>  <UniqueID>  (86) 
82

>  <SMILES>  (86) 
O=C([N-]Cc1nc(-c2ccccc2)c[n-]1)c1c[n-]c(=O)[n-]c1=O

>  <Energy>  (86) 
68.76650649260077

>  <Genealogy>  (86) 
O=C([N-]Cc1nc(-c2ccccc2)c[n-]1)c1c[n-]c(=O)[n-]c1=O (protonated)
O=C([N-]Cc1nc(-c2ccccc2)c[n-]1)c1c[n-]c(=O)[n-]c1=O (3D coordinates assigned)
O=C([N-]Cc1nc(-c2ccccc2)c[n-]1)c1c[n-]c(=O)[n-]c1=O (optimized conformer: 68.76650649260077 kcal/mol)

>  <smiles>  (86) 
O=C(NCc1nc(-c2ccccc2)c[nH]1)c1c[nH]c(=O)[nH]c1=O

>  <score_type>  (86) 
oracle

>  <origin>  (86) 
adg

>  <m_score__min__energy>  (86) 
-15.630000000000001

>  <m_primary>  (86) 
energy

$$$$
