0:0
     RDKit          3D

 32 33  0  0  0  0  0  0  0  0999 V2000
   56.9880   31.5560   42.8020 O   0  0  0  0  0  0  0  0  0  0  0  0
   57.1190   31.0460   43.9470 C   0  0  0  0  0  0  0  0  0  0  0  0
   57.3960   29.5800   44.0800 C   0  0  0  0  0  0  0  0  0  0  0  0
   56.4240   28.9070   45.0580 C   0  0  0  0  0  0  0  0  0  0  0  0
   56.9970   27.6320   45.6320 C   0  0  0  0  0  0  0  0  0  0  0  0
   58.3920   27.4640   45.6900 C   0  0  0  0  0  0  0  0  0  0  0  0
   58.9420   26.2710   46.1690 C   0  0  0  0  0  0  0  0  0  0  0  0
   58.1060   25.2340   46.5880 C   0  0  0  0  0  0  0  0  0  0  0  0
   56.7190   25.3860   46.5300 C   0  0  0  0  0  0  0  0  0  0  0  0
   56.1610   26.5780   46.0560 C   0  0  0  0  0  0  0  0  0  0  0  0
   54.7760   26.7030   46.0030 O   0  0  0  0  0  0  0  0  0  0  0  0
   57.0070   31.8500   45.1280 N   0  0  0  0  0  0  0  0  0  0  0  0
   57.8860   32.9100   45.5320 C   0  0  0  0  0  0  0  0  0  0  0  0
   58.4330   33.7390   44.5430 C   0  0  0  0  0  0  0  0  0  0  0  0
   59.2680   34.8030   44.8940 C   0  0  0  0  0  0  0  0  0  0  0  0
   59.5500   35.0580   46.2390 C   0  0  0  0  0  0  0  0  0  0  0  0
   58.9900   34.2540   47.2370 C   0  0  0  0  0  0  0  0  0  0  0  0
   59.2650   34.5310   48.5750 O   0  0  0  0  0  0  0  0  0  0  0  0
   58.1550   33.1840   46.8860 C   0  0  0  0  0  0  0  0  0  0  0  0
   57.2934   29.1065   43.0925 H   0  0  0  0  0  0  0  0  0  0  0  0
   58.4168   29.4572   44.4710 H   0  0  0  0  0  0  0  0  0  0  0  0
   56.2093   29.6033   45.8821 H   0  0  0  0  0  0  0  0  0  0  0  0
   55.5071   28.6514   44.5066 H   0  0  0  0  0  0  0  0  0  0  0  0
   59.0547   28.2762   45.3565 H   0  0  0  0  0  0  0  0  0  0  0  0
   60.0342   26.1493   46.2158 H   0  0  0  0  0  0  0  0  0  0  0  0
   58.5405   24.2961   46.9643 H   0  0  0  0  0  0  0  0  0  0  0  0
   56.0633   24.5660   46.8580 H   0  0  0  0  0  0  0  0  0  0  0  0
   58.2035   33.5508   43.4838 H   0  0  0  0  0  0  0  0  0  0  0  0
   59.7039   35.4407   44.1108 H   0  0  0  0  0  0  0  0  0  0  0  0
   60.2131   35.8919   46.5129 H   0  0  0  0  0  0  0  0  0  0  0  0
   59.1860   35.4690   48.9480 H   0  0  0  0  0  0  0  0  0  0  0  0
   57.7086   32.5565   47.6715 H   0  0  0  0  0  0  0  0  0  0  0  0
  1  2  2  0
  2  3  1  0
  3  4  1  0
  4  5  1  0
  5  6  2  0
  6  7  1  0
  7  8  2  0
  8  9  1  0
  9 10  2  0
 10 11  1  0
  2 12  1  0
 12 13  1  0
 13 14  2  0
 14 15  1  0
 15 16  2  0
 16 17  1  0
 17 18  1  0
 17 19  2  0
 10  5  1  0
 19 13  1  0
  3 20  1  0
  3 21  1  0
  4 22  1  0
  4 23  1  0
  6 24  1  0
  7 25  1  0
  8 26  1  0
  9 27  1  0
 14 28  1  0
 15 29  1  0
 16 30  1  0
 18 31  1  0
 19 32  1  0
M  CHG  2  11  -1  12  -1
M  END
>  <UniqueID>  (1) 
1

>  <SMILES>  (1) 
O=C(CCc1ccccc1[O-])[N-]c1cccc(O)c1

>  <Energy>  (1) 
31.48286937150448

>  <Genealogy>  (1) 
O=C(CCc1ccccc1[O-])[N-]c1cccc(O)c1 (protonated)
O=C(CCc1ccccc1[O-])[N-]c1cccc(O)c1 (3D coordinates assigned)
O=C(CCc1ccccc1[O-])[N-]c1cccc(O)c1 (optimized conformer: 31.48286937150448 kcal/mol)

>  <smiles>  (1) 
O=C(CCc1ccccc1O)Nc1cccc(O)c1

>  <score_type>  (1) 
oracle

>  <origin>  (1) 
adg

>  <m_score__min__energy>  (1) 
-12.51

>  <m_primary>  (1) 
energy

$$$$
1:0
     RDKit          3D

 48 51  0  0  1  0  0  0  0  0999 V2000
   56.2670   29.3390   42.3250 C   0  0  0  0  0  0  0  0  0  0  0  0
   56.6720   29.5920   44.0270 S   0  0  0  0  0  0  0  0  0  0  0  0
   55.9210   28.6110   44.9150 O   0  0  0  0  0  0  0  0  0  0  0  0
   56.2080   30.9700   44.4700 O   0  0  0  0  0  0  0  0  0  0  0  0
   58.3470   29.4120   44.3420 N   0  0  0  0  0  0  0  0  0  0  0  0
   58.8570   29.3030   45.6640 C   0  0  0  0  0  0  0  0  0  0  0  0
   59.6700   28.2180   45.9980 C   0  0  0  0  0  0  0  0  0  0  0  0
   60.1840   28.0800   47.2790 C   0  0  0  0  0  0  0  0  0  0  0  0
   59.9160   28.9980   48.2670 C   0  0  0  0  0  0  0  0  0  0  0  0
   60.5300   28.8850   49.8950 S   0  0  0  0  0  0  0  0  0  0  0  0
   60.7910   27.4050   50.1560 O   0  0  0  0  0  0  0  0  0  0  0  0
   59.4610   29.3480   50.8860 O   0  0  0  0  0  0  0  0  0  0  0  0
   61.9810   29.7560   50.1440 N   0  0  0  0  0  0  0  0  0  0  0  0
   62.3510   30.9600   49.5180 C   0  0  0  0  0  0  0  0  0  0  0  0
   62.7490   32.1110   50.1370 C   0  0  0  0  0  0  0  0  0  0  0  0
   63.0880   33.2730   49.4540 C   0  0  0  0  0  0  0  0  0  0  0  0
   63.0200   33.2690   48.0710 C   0  0  0  0  0  0  0  0  0  0  0  0
   63.3460   34.3880   47.4010 F   0  0  0  0  0  0  0  0  0  0  0  0
   62.6180   32.1200   47.4050 C   0  0  0  0  0  0  0  0  0  0  0  0
   62.2920   30.9890   48.1260 C   0  0  0  0  0  0  0  0  0  0  0  0
   59.1060   30.0830   47.9440 C   0  0  0  0  0  0  0  0  0  0  0  0
   58.5980   30.2060   46.6510 C   0  0  0  0  0  0  0  0  0  0  0  0
   57.7730   31.3370   46.3740 N   0  0  0  0  0  0  0  0  0  0  0  0
   58.2480   32.4930   46.0840 C   0  0  0  0  0  0  0  0  0  0  0  0
   58.1250   32.9320   44.8000 N   0  0  0  0  0  0  0  0  0  0  0  0
   58.6220   34.1480   44.4830 C   0  0  0  0  0  0  0  0  0  0  0  0
   59.2300   34.9320   45.4020 N   0  0  0  0  0  0  0  0  0  0  0  0
   59.3690   34.5290   46.6790 C   0  0  0  0  0  0  0  0  0  0  0  0
   59.9110   35.0640   47.8010 N   0  0  0  0  0  0  0  0  0  0  0  0
   59.7690   34.2060   48.8330 C   0  0  0  0  0  0  0  0  0  0  0  0
   59.1280   33.1170   48.3510 N   0  0  0  0  0  0  0  0  0  0  0  0
   58.8730   33.2920   47.0340 C   0  0  0  0  0  0  0  0  0  0  0  0
   55.3361   28.7575   42.2521 H   0  0  0  0  0  0  0  0  0  0  0  0
   56.1306   30.3128   41.8319 H   0  0  0  0  0  0  0  0  0  0  0  0
   57.0823   28.7893   41.8319 H   0  0  0  0  0  0  0  0  0  0  0  0
   59.0630   29.3760   43.5620 H   0  0  0  0  0  0  0  0  0  0  0  0
   59.9062   27.4621   45.2346 H   0  0  0  0  0  0  0  0  0  0  0  0
   60.8221   27.2143   47.5103 H   0  0  0  0  0  0  0  0  0  0  0  0
   62.6910   29.3670   50.8410 H   0  0  0  0  0  0  0  0  0  0  0  0
   62.8042   32.1185   51.2356 H   0  0  0  0  0  0  0  0  0  0  0  0
   63.4030   34.1748   49.9994 H   0  0  0  0  0  0  0  0  0  0  0  0
   62.5593   32.1105   46.3066 H   0  0  0  0  0  0  0  0  0  0  0  0
   61.9764   30.0841   47.5860 H   0  0  0  0  0  0  0  0  0  0  0  0
   58.8676   30.8402   48.7054 H   0  0  0  0  0  0  0  0  0  0  0  0
   57.6540   32.3170   44.1020 H   0  0  0  0  0  0  0  0  0  0  0  0
   58.5294   34.5103   43.4485 H   0  0  0  0  0  0  0  0  0  0  0  0
   60.3640   36.0050   47.8250 H   0  0  0  0  0  0  0  0  0  0  0  0
   60.1092   34.3623   49.8673 H   0  0  0  0  0  0  0  0  0  0  0  0
  1  2  1  0
  2  3  2  0
  2  4  2  0
  2  5  1  0
  5  6  1  0
  6  7  2  0
  7  8  1  0
  8  9  2  0
  9 10  1  0
 10 11  2  0
 10 12  2  0
 10 13  1  0
 13 14  1  0
 14 15  2  0
 15 16  1  0
 16 17  2  0
 17 18  1  0
 17 19  1  0
 19 20  2  0
  9 21  1  0
 21 22  2  0
 22 23  1  0
 23 24  2  0
 24 25  1  0
 25 26  1  0
 26 27  2  0
 27 28  1  0
 28 29  1  0
 29 30  1  0
 30 31  2  0
 31 32  1  0
 22  6  1  0
 32 24  1  0
 20 14  1  0
 32 28  2  0
  1 33  1  0
  1 34  1  0
  1 35  1  0
  5 36  1  0
  7 37  1  0
  8 38  1  0
 13 39  1  0
 15 40  1  0
 16 41  1  0
 19 42  1  0
 20 43  1  0
 21 44  1  0
 25 45  1  0
 26 46  1  0
 29 47  1  0
 30 48  1  0
M  END
>  <smiles>  (2) 
CS(=O)(=O)Nc1ccc(S(=O)(=O)Nc2ccc(F)cc2)cc1N=c1[nH]cnc2[nH]cnc12

>  <score_type>  (2) 
oracle

>  <origin>  (2) 
adg

>  <m_score__min__energy>  (2) 
-9.2699999999999996

>  <m_primary>  (2) 
energy

$$$$
2:0
     RDKit          3D

 61 64  0  0  0  0  0  0  0  0999 V2000
   57.2420   34.1460   45.2230 C   0  0  0  0  0  0  0  0  0  0  0  0
   58.5320   33.7370   45.8840 C   0  0  0  0  0  0  0  0  0  0  0  0
   59.2770   34.7040   46.5760 C   0  0  0  0  0  0  0  0  0  0  0  0
   60.4920   34.3710   47.1810 C   0  0  0  0  0  0  0  0  0  0  0  0
   60.9750   33.0610   47.1140 C   0  0  0  0  0  0  0  0  0  0  0  0
   62.5390   32.6340   47.8110 S   0  0  0  0  0  0  0  0  0  0  0  0
   63.5280   33.7410   47.5790 O   0  0  0  0  0  0  0  0  0  0  0  0
   63.0590   31.3820   47.1650 O   0  0  0  0  0  0  0  0  0  0  0  0
   62.3460   32.3290   49.5090 N   0  0  0  0  0  0  0  0  0  0  0  0
   61.1050   32.5360   50.1860 C   0  0  0  0  0  0  0  0  0  0  0  0
   60.6650   33.8280   50.5110 C   0  0  0  0  0  0  0  0  0  0  0  0
   59.4180   34.0100   51.1110 C   0  0  0  0  0  0  0  0  0  0  0  0
   58.5940   32.9120   51.3680 C   0  0  0  0  0  0  0  0  0  0  0  0
   59.0160   31.6130   51.0370 C   0  0  0  0  0  0  0  0  0  0  0  0
   58.1130   30.4600   51.2890 C   0  0  0  0  0  0  0  0  0  0  0  0
   58.1400   29.4850   50.4850 O   0  0  0  0  0  0  0  0  0  0  0  0
   57.1730   30.4600   52.3940 N   0  0  0  0  0  0  0  0  0  0  0  0
   56.8920   29.0770   52.8390 C   0  0  0  0  0  0  0  0  0  0  0  0
   55.6870   29.0510   53.8000 C   0  0  0  0  0  0  0  0  0  0  0  0
   54.5090   29.7100   53.3310 O   0  0  0  0  0  0  0  0  0  0  0  0
   54.6800   30.3360   52.0710 C   0  0  0  0  0  0  0  0  0  0  0  0
   55.9410   31.2180   52.0390 C   0  0  0  0  0  0  0  0  0  0  0  0
   60.2940   31.4320   50.4730 C   0  0  0  0  0  0  0  0  0  0  0  0
   60.2170   32.0830   46.4640 C   0  0  0  0  0  0  0  0  0  0  0  0
   58.9980   32.4010   45.8480 C   0  0  0  0  0  0  0  0  0  0  0  0
   58.1290   31.1190   44.9850 S   0  0  0  0  0  0  0  0  0  0  0  0
   58.4780   31.2120   43.5260 O   0  0  0  0  0  0  0  0  0  0  0  0
   56.6460   31.2920   45.1530 O   0  0  0  0  0  0  0  0  0  0  0  0
   58.6000   29.5490   45.5950 N   0  0  0  0  0  0  0  0  0  0  0  0
   59.9590   29.2160   45.1440 C   0  0  0  0  0  0  0  0  0  0  0  0
   60.3360   27.8030   45.6330 C   0  0  0  0  0  0  0  0  0  0  0  0
   59.4730   27.3280   46.6570 O   0  0  0  0  0  0  0  0  0  0  0  0
   59.2950   28.3240   47.6450 C   0  0  0  0  0  0  0  0  0  0  0  0
   58.5310   29.5320   47.0670 C   0  0  0  0  0  0  0  0  0  0  0  0
   56.4941   34.3831   45.9939 H   0  0  0  0  0  0  0  0  0  0  0  0
   57.4163   35.0329   44.5961 H   0  0  0  0  0  0  0  0  0  0  0  0
   56.8734   33.3206   44.5961 H   0  0  0  0  0  0  0  0  0  0  0  0
   58.9006   35.7354   46.6430 H   0  0  0  0  0  0  0  0  0  0  0  0
   61.0699   35.1421   47.7115 H   0  0  0  0  0  0  0  0  0  0  0  0
   61.3027   34.6974   50.2930 H   0  0  0  0  0  0  0  0  0  0  0  0
   59.0830   35.0220   51.3825 H   0  0  0  0  0  0  0  0  0  0  0  0
   57.6086   33.0649   51.8324 H   0  0  0  0  0  0  0  0  0  0  0  0
   57.6230   30.9320   53.2140 H   0  0  0  0  0  0  0  0  0  0  0  0
   56.6679   28.4532   51.9611 H   0  0  0  0  0  0  0  0  0  0  0  0
   57.7752   28.6877   53.3667 H   0  0  0  0  0  0  0  0  0  0  0  0
   55.4316   27.9988   53.9942 H   0  0  0  0  0  0  0  0  0  0  0  0
   56.0047   29.6042   54.6961 H   0  0  0  0  0  0  0  0  0  0  0  0
   54.7683   29.5598   51.2966 H   0  0  0  0  0  0  0  0  0  0  0  0
   53.8071   30.9796   51.8870 H   0  0  0  0  0  0  0  0  0  0  0  0
   56.0589   31.6292   51.0256 H   0  0  0  0  0  0  0  0  0  0  0  0
   55.8113   32.0159   52.7851 H   0  0  0  0  0  0  0  0  0  0  0  0
   60.6570   30.4164   50.2567 H   0  0  0  0  0  0  0  0  0  0  0  0
   60.5829   31.0460   46.4351 H   0  0  0  0  0  0  0  0  0  0  0  0
   59.9972   29.2451   44.0451 H   0  0  0  0  0  0  0  0  0  0  0  0
   60.6698   29.9467   45.5573 H   0  0  0  0  0  0  0  0  0  0  0  0
   60.2845   27.1102   44.7801 H   0  0  0  0  0  0  0  0  0  0  0  0
   61.3512   27.8570   46.0530 H   0  0  0  0  0  0  0  0  0  0  0  0
   58.7226   27.9023   48.4843 H   0  0  0  0  0  0  0  0  0  0  0  0
   60.2834   28.6618   47.9898 H   0  0  0  0  0  0  0  0  0  0  0  0
   57.4771   29.4720   47.3765 H   0  0  0  0  0  0  0  0  0  0  0  0
   58.9945   30.4536   47.4490 H   0  0  0  0  0  0  0  0  0  0  0  0
  1  2  1  0
  2  3  2  0
  3  4  1  0
  4  5  2  0
  5  6  1  0
  6  7  2  0
  6  8  2  0
  6  9  1  0
  9 10  1  0
 10 11  2  0
 11 12  1  0
 12 13  2  0
 13 14  1  0
 14 15  1  0
 15 16  2  0
 15 17  1  0
 17 18  1  0
 18 19  1  0
 19 20  1  0
 20 21  1  0
 21 22  1  0
 14 23  2  0
  5 24  1  0
 24 25  2  0
 25 26  1  0
 26 27  2  0
 26 28  2  0
 26 29  1  0
 29 30  1  0
 30 31  1  0
 31 32  1  0
 32 33  1  0
 33 34  1  0
 25  2  1  0
 34 29  1  0
 23 10  1  0
 22 17  1  0
  1 35  1  0
  1 36  1  0
  1 37  1  0
  3 38  1  0
  4 39  1  0
 11 40  1  0
 12 41  1  0
 13 42  1  0
 17 43  1  0
 18 44  1  0
 18 45  1  0
 19 46  1  0
 19 47  1  0
 21 48  1  0
 21 49  1  0
 22 50  1  0
 22 51  1  0
 23 52  1  0
 24 53  1  0
 30 54  1  0
 30 55  1  0
 31 56  1  0
 31 57  1  0
 33 58  1  0
 33 59  1  0
 34 60  1  0
 34 61  1  0
M  CHG  2   9  -1  17   1
M  END
>  <UniqueID>  (3) 
2

>  <SMILES>  (3) 
Cc1ccc(S(=O)(=O)[N-]c2cccc(C(=O)[NH+]3CCOCC3)c2)cc1S(=O)(=O)N1CCOCC1

>  <Energy>  (3) 
93.77600435816923

>  <Genealogy>  (3) 
Cc1ccc(S(=O)(=O)[N-]c2cccc(C(=O)[NH+]3CCOCC3)c2)cc1S(=O)(=O)N1CCOCC1 (protonated)
Cc1ccc(S(=O)(=O)[N-]c2cccc(C(=O)[NH+]3CCOCC3)c2)cc1S(=O)(=O)N1CCOCC1 (3D coordinates assigned)
Cc1ccc(S(=O)(=O)[N-]c2cccc(C(=O)[NH+]3CCOCC3)c2)cc1S(=O)(=O)N1CCOCC1 (nonaromatic ring conformer: 93.77600435816923 kcal/mol)

>  <smiles>  (3) 
Cc1ccc(S(=O)(=O)Nc2cccc(C(=O)N3CCOCC3)c2)cc1S(=O)(=O)N1CCOCC1

>  <score_type>  (3) 
oracle

>  <origin>  (3) 
adg

>  <m_score__min__energy>  (3) 
-10.66

>  <m_primary>  (3) 
energy

$$$$
3:0
     RDKit          3D

 38 39  0  0  0  0  0  0  0  0999 V2000
   56.3810   22.2030   42.2190 N   0  0  0  0  0  0  0  0  0  0  0  0
   55.9020   22.6240   43.8270 S   0  0  0  0  0  0  0  0  0  0  0  0
   55.8160   21.3810   44.6680 O   0  0  0  0  0  0  0  0  0  0  0  0
   54.5460   23.2730   43.7870 O   0  0  0  0  0  0  0  0  0  0  0  0
   57.0830   23.7270   44.5250 C   0  0  0  0  0  0  0  0  0  0  0  0
   58.2320   23.2180   45.1420 C   0  0  0  0  0  0  0  0  0  0  0  0
   59.1880   24.0870   45.6740 C   0  0  0  0  0  0  0  0  0  0  0  0
   58.9990   25.4690   45.5980 C   0  0  0  0  0  0  0  0  0  0  0  0
   57.8400   25.9920   45.0020 C   0  0  0  0  0  0  0  0  0  0  0  0
   57.6460   27.4100   44.8760 N   0  0  0  0  0  0  0  0  0  0  0  0
   58.2430   28.3970   45.7420 C   0  0  0  0  0  0  0  0  0  0  0  0
   58.9410   27.9680   47.1660 S   0  0  0  0  0  0  0  0  0  0  0  0
   58.2340   29.7860   45.3810 N   0  0  0  0  0  0  0  0  0  0  0  0
   57.1610   30.4200   44.6700 C   0  0  0  0  0  0  0  0  0  0  0  0
   56.0160   29.8930   44.6340 O   0  0  0  0  0  0  0  0  0  0  0  0
   57.3950   31.7230   43.9690 C   0  0  0  0  0  0  0  0  0  0  0  0
   57.9640   32.7250   44.9350 C   0  0  0  0  0  0  0  0  0  0  0  0
   57.7390   32.5890   46.3150 C   0  0  0  0  0  0  0  0  0  0  0  0
   58.3020   33.5000   47.2130 C   0  0  0  0  0  0  0  0  0  0  0  0
   59.0980   34.5480   46.7420 C   0  0  0  0  0  0  0  0  0  0  0  0
   59.3370   34.6830   45.3720 C   0  0  0  0  0  0  0  0  0  0  0  0
   58.7770   33.7720   44.4700 C   0  0  0  0  0  0  0  0  0  0  0  0
   56.8980   25.1150   44.4440 C   0  0  0  0  0  0  0  0  0  0  0  0
   57.0090   22.9670   41.8790 H   0  0  0  0  0  0  0  0  0  0  0  0
   55.5200   22.2350   41.6260 H   0  0  0  0  0  0  0  0  0  0  0  0
   58.3826   22.1304   45.2082 H   0  0  0  0  0  0  0  0  0  0  0  0
   60.0913   23.6821   46.1537 H   0  0  0  0  0  0  0  0  0  0  0  0
   59.7605   26.1498   46.0063 H   0  0  0  0  0  0  0  0  0  0  0  0
   57.0150   27.7270   44.1090 H   0  0  0  0  0  0  0  0  0  0  0  0
   59.0300   30.3830   45.7020 H   0  0  0  0  0  0  0  0  0  0  0  0
   58.1033   31.5705   43.1413 H   0  0  0  0  0  0  0  0  0  0  0  0
   56.4400   32.1002   43.5743 H   0  0  0  0  0  0  0  0  0  0  0  0
   57.1175   31.7626   46.6901 H   0  0  0  0  0  0  0  0  0  0  0  0
   58.1184   33.3921   48.2922 H   0  0  0  0  0  0  0  0  0  0  0  0
   59.5364   35.2666   47.4501 H   0  0  0  0  0  0  0  0  0  0  0  0
   59.9660   35.5063   45.0024 H   0  0  0  0  0  0  0  0  0  0  0  0
   58.9740   33.8759   43.3928 H   0  0  0  0  0  0  0  0  0  0  0  0
   56.0079   25.5187   43.9393 H   0  0  0  0  0  0  0  0  0  0  0  0
  1  2  1  0
  2  3  2  0
  2  4  2  0
  2  5  1  0
  5  6  2  0
  6  7  1  0
  7  8  2  0
  8  9  1  0
  9 10  1  0
 10 11  1  0
 11 12  2  0
 11 13  1  0
 13 14  1  0
 14 15  2  0
 14 16  1  0
 16 17  1  0
 17 18  2  0
 18 19  1  0
 19 20  2  0
 20 21  1  0
 21 22  2  0
  9 23  2  0
 23  5  1  0
 22 17  1  0
  1 24  1  0
  1 25  1  0
  6 26  1  0
  7 27  1  0
  8 28  1  0
 10 29  1  0
 13 30  1  0
 16 31  1  0
 16 32  1  0
 18 33  1  0
 19 34  1  0
 20 35  1  0
 21 36  1  0
 22 37  1  0
 23 38  1  0
M  END
>  <UniqueID>  (4) 
3

>  <SMILES>  (4) 
NS(=O)(=O)c1cccc(NC(=S)NC(=O)Cc2ccccc2)c1

>  <Energy>  (4) 
43.29171178065957

>  <Genealogy>  (4) 
NS(=O)(=O)c1cccc(NC(=S)NC(=O)Cc2ccccc2)c1 (3D coordinates assigned)
NS(=O)(=O)c1cccc(NC(=S)NC(=O)Cc2ccccc2)c1 (optimized conformer: 43.29171178065957 kcal/mol)

>  <smiles>  (4) 
NS(=O)(=O)c1cccc(NC(=S)NC(=O)Cc2ccccc2)c1

>  <score_type>  (4) 
oracle

>  <origin>  (4) 
adg

>  <m_score__min__energy>  (4) 
-9.2300000000000004

>  <m_primary>  (4) 
energy

$$$$
4:0
     RDKit          3D

 54 56  0  0  0  0  0  0  0  0999 V2000
   61.3860   30.4740   48.3700 C   0  0  0  0  0  0  0  0  0  0  0  0
   61.6100   31.4030   47.1870 C   0  0  0  0  0  0  0  0  0  0  0  0
   62.9080   31.9830   47.2760 O   0  0  0  0  0  0  0  0  0  0  0  0
   63.1360   33.3530   47.1160 C   0  0  0  0  0  0  0  0  0  0  0  0
   63.2140   33.8580   45.9610 O   0  0  0  0  0  0  0  0  0  0  0  0
   63.3340   34.2010   48.3380 C   0  0  0  0  0  0  0  0  0  0  0  0
   62.6090   33.6590   49.5350 C   0  0  0  0  0  0  0  0  0  0  0  0
   63.1630   32.7190   50.4020 C   0  0  0  0  0  0  0  0  0  0  0  0
   62.0210   32.3760   51.5910 S   0  0  0  0  0  0  0  0  0  0  0  0
   60.8860   33.4360   50.9520 C   0  0  0  0  0  0  0  0  0  0  0  0
   59.2760   33.7540   51.6670 S   0  0  0  0  0  0  0  0  0  0  0  0
   58.4810   32.2850   50.9180 C   0  0  0  0  0  0  0  0  0  0  0  0
   58.5970   32.2570   49.4210 C   0  0  0  0  0  0  0  0  0  0  0  0
   58.5180   31.1640   48.7940 O   0  0  0  0  0  0  0  0  0  0  0  0
   58.8800   33.4710   48.7130 N   0  0  0  0  0  0  0  0  0  0  0  0
   58.8290   33.5600   47.2830 C   0  0  0  0  0  0  0  0  0  0  0  0
   59.2880   34.7190   46.6440 C   0  0  0  0  0  0  0  0  0  0  0  0
   59.2570   34.8130   45.2510 C   0  0  0  0  0  0  0  0  0  0  0  0
   58.7510   33.7580   44.4880 C   0  0  0  0  0  0  0  0  0  0  0  0
   58.2610   32.6030   45.1160 C   0  0  0  0  0  0  0  0  0  0  0  0
   57.5530   31.3040   44.1500 S   0  0  0  0  0  0  0  0  0  0  0  0
   56.1790   31.0030   44.6810 O   0  0  0  0  0  0  0  0  0  0  0  0
   57.3960   31.7930   42.7370 O   0  0  0  0  0  0  0  0  0  0  0  0
   58.5230   29.8450   44.1250 N   0  0  0  0  0  0  0  0  0  0  0  0
   59.4450   29.7530   45.2760 C   0  0  0  0  0  0  0  0  0  0  0  0
   58.9120   28.8360   46.3920 C   0  0  0  0  0  0  0  0  0  0  0  0
   57.5040   28.8080   46.3820 O   0  0  0  0  0  0  0  0  0  0  0  0
   57.0440   28.1360   45.2250 C   0  0  0  0  0  0  0  0  0  0  0  0
   57.7240   28.6230   43.9260 C   0  0  0  0  0  0  0  0  0  0  0  0
   58.2970   32.5100   46.5160 C   0  0  0  0  0  0  0  0  0  0  0  0
   61.3460   34.0580   49.8470 N   0  0  0  0  0  0  0  0  0  0  0  0
   61.5211   31.0343   49.3069 H   0  0  0  0  0  0  0  0  0  0  0  0
   60.3643   30.0684   48.3294 H   0  0  0  0  0  0  0  0  0  0  0  0
   62.1106   29.6473   48.3294 H   0  0  0  0  0  0  0  0  0  0  0  0
   61.5277   30.8308   46.2511 H   0  0  0  0  0  0  0  0  0  0  0  0
   60.8516   32.1996   47.1985 H   0  0  0  0  0  0  0  0  0  0  0  0
   64.4091   34.2454   48.5666 H   0  0  0  0  0  0  0  0  0  0  0  0
   62.9257   35.1995   48.1227 H   0  0  0  0  0  0  0  0  0  0  0  0
   64.1681   32.2791   50.3235 H   0  0  0  0  0  0  0  0  0  0  0  0
   58.9596   31.3816   51.3240 H   0  0  0  0  0  0  0  0  0  0  0  0
   57.4100   32.3273   51.1653 H   0  0  0  0  0  0  0  0  0  0  0  0
   59.2670   34.2800   49.2500 H   0  0  0  0  0  0  0  0  0  0  0  0
   59.6742   35.5580   47.2415 H   0  0  0  0  0  0  0  0  0  0  0  0
   59.6318   35.7197   44.7536 H   0  0  0  0  0  0  0  0  0  0  0  0
   58.7366   33.8330   43.3907 H   0  0  0  0  0  0  0  0  0  0  0  0
   60.4086   29.3558   44.9242 H   0  0  0  0  0  0  0  0  0  0  0  0
   59.5514   30.7631   45.6983 H   0  0  0  0  0  0  0  0  0  0  0  0
   59.2947   27.8167   46.2356 H   0  0  0  0  0  0  0  0  0  0  0  0
   59.2515   29.2258   47.3630 H   0  0  0  0  0  0  0  0  0  0  0  0
   57.2446   27.0608   45.3425 H   0  0  0  0  0  0  0  0  0  0  0  0
   55.9689   28.3484   45.1300 H   0  0  0  0  0  0  0  0  0  0  0  0
   58.3859   27.8264   43.5555 H   0  0  0  0  0  0  0  0  0  0  0  0
   56.9288   28.8604   43.2040 H   0  0  0  0  0  0  0  0  0  0  0  0
   57.9068   31.6107   47.0151 H   0  0  0  0  0  0  0  0  0  0  0  0
  1  2  1  0
  2  3  1  0
  3  4  1  0
  4  5  2  0
  4  6  1  0
  6  7  1  0
  7  8  2  0
  8  9  1  0
  9 10  1  0
 10 11  1  0
 11 12  1  0
 12 13  1  0
 13 14  2  0
 13 15  1  0
 15 16  1  0
 16 17  2  0
 17 18  1  0
 18 19  2  0
 19 20  1  0
 20 21  1  0
 21 22  2  0
 21 23  2  0
 21 24  1  0
 24 25  1  0
 25 26  1  0
 26 27  1  0
 27 28  1  0
 28 29  1  0
 20 30  2  0
 10 31  2  0
 31  7  1  0
 30 16  1  0
 29 24  1  0
  1 32  1  0
  1 33  1  0
  1 34  1  0
  2 35  1  0
  2 36  1  0
  6 37  1  0
  6 38  1  0
  8 39  1  0
 12 40  1  0
 12 41  1  0
 15 42  1  0
 17 43  1  0
 18 44  1  0
 19 45  1  0
 25 46  1  0
 25 47  1  0
 26 48  1  0
 26 49  1  0
 28 50  1  0
 28 51  1  0
 29 52  1  0
 29 53  1  0
 30 54  1  0
M  END
>  <UniqueID>  (5) 
4

>  <SMILES>  (5) 
CCOC(=O)Cc1csc(SCC(=O)Nc2cccc(S(=O)(=O)N3CCOCC3)c2)n1

>  <Energy>  (5) 
85.74074271928338

>  <Genealogy>  (5) 
CCOC(=O)Cc1csc(SCC(=O)Nc2cccc(S(=O)(=O)N3CCOCC3)c2)n1 (3D coordinates assigned)
CCOC(=O)Cc1csc(SCC(=O)Nc2cccc(S(=O)(=O)N3CCOCC3)c2)n1 (nonaromatic ring conformer: 85.74074271928338 kcal/mol)

>  <smiles>  (5) 
CCOC(=O)Cc1csc(SCC(=O)Nc2cccc(S(=O)(=O)N3CCOCC3)c2)n1

>  <score_type>  (5) 
oracle

>  <origin>  (5) 
adg

>  <m_score__min__energy>  (5) 
-9.4600000000000009

>  <m_primary>  (5) 
energy

$$$$
5:0
     RDKit          3D

 40 42  0  0  0  0  0  0  0  0999 V2000
   56.1350   29.5370   44.8130 O   0  0  0  0  0  0  0  0  0  0  0  0
   57.3220   29.7050   44.4260 C   0  0  0  0  0  0  0  0  0  0  0  0
   57.8840   31.0880   44.3610 C   0  0  0  0  0  0  0  0  0  0  0  0
   57.4940   31.8080   45.5260 O   0  0  0  0  0  0  0  0  0  0  0  0
   58.3120   32.7210   46.2090 C   0  0  0  0  0  0  0  0  0  0  0  0
   58.4200   34.0710   45.8160 C   0  0  0  0  0  0  0  0  0  0  0  0
   59.2470   34.9470   46.5250 C   0  0  0  0  0  0  0  0  0  0  0  0
   59.9720   34.4890   47.6280 C   0  0  0  0  0  0  0  0  0  0  0  0
   59.8710   33.1550   48.0240 C   0  0  0  0  0  0  0  0  0  0  0  0
   59.0450   32.2710   47.3200 C   0  0  0  0  0  0  0  0  0  0  0  0
   58.9370   30.5960   47.8400 Cl  0  0  0  0  0  0  0  0  0  0  0  0
   58.1030   28.5960   43.9570 N   0  0  0  0  0  0  0  0  0  0  0  0
   57.7510   27.2160   44.1590 C   0  0  0  0  0  0  0  0  0  0  0  0
   57.7680   26.3340   43.0680 C   0  0  0  0  0  0  0  0  0  0  0  0
   57.4550   24.9830   43.2420 C   0  0  0  0  0  0  0  0  0  0  0  0
   57.1370   24.4920   44.5150 C   0  0  0  0  0  0  0  0  0  0  0  0
   56.7270   22.7940   44.7320 S   0  0  0  0  0  0  0  0  0  0  0  0
   56.3450   22.1960   43.4060 O   0  0  0  0  0  0  0  0  0  0  0  0
   57.9180   22.0590   45.2810 O   0  0  0  0  0  0  0  0  0  0  0  0
   55.3970   22.6760   45.8390 N   0  0  0  0  0  0  0  0  0  0  0  0
   54.2010   23.1170   45.5940 C   0  0  0  0  0  0  0  0  0  0  0  0
   53.1320   22.2970   45.5200 N   0  0  0  0  0  0  0  0  0  0  0  0
   51.9900   22.9860   45.2570 C   0  0  0  0  0  0  0  0  0  0  0  0
   52.1460   24.3610   45.1180 C   0  0  0  0  0  0  0  0  0  0  0  0
   53.7730   24.7280   45.3360 S   0  0  0  0  0  0  0  0  0  0  0  0
   57.1300   25.3640   45.6110 C   0  0  0  0  0  0  0  0  0  0  0  0
   57.4450   26.7150   45.4380 C   0  0  0  0  0  0  0  0  0  0  0  0
   58.9817   31.0369   44.3105 H   0  0  0  0  0  0  0  0  0  0  0  0
   57.5021   31.6000   43.4655 H   0  0  0  0  0  0  0  0  0  0  0  0
   57.8512   34.4361   44.9481 H   0  0  0  0  0  0  0  0  0  0  0  0
   59.3271   35.9990   46.2139 H   0  0  0  0  0  0  0  0  0  0  0  0
   60.6224   35.1801   48.1842 H   0  0  0  0  0  0  0  0  0  0  0  0
   60.4427   32.7966   48.8928 H   0  0  0  0  0  0  0  0  0  0  0  0
   58.9380   28.8070   43.3640 H   0  0  0  0  0  0  0  0  0  0  0  0
   58.0298   26.7088   42.0675 H   0  0  0  0  0  0  0  0  0  0  0  0
   57.4584   24.3034   42.3771 H   0  0  0  0  0  0  0  0  0  0  0  0
   51.0122   22.4913   45.1610 H   0  0  0  0  0  0  0  0  0  0  0  0
   51.3446   25.0831   44.9029 H   0  0  0  0  0  0  0  0  0  0  0  0
   56.8757   24.9844   46.6116 H   0  0  0  0  0  0  0  0  0  0  0  0
   57.4537   27.3902   46.3064 H   0  0  0  0  0  0  0  0  0  0  0  0
  1  2  2  0
  2  3  1  0
  3  4  1  0
  4  5  1  0
  5  6  2  0
  6  7  1  0
  7  8  2  0
  8  9  1  0
  9 10  2  0
 10 11  1  0
  2 12  1  0
 12 13  1  0
 13 14  2  0
 14 15  1  0
 15 16  2  0
 16 17  1  0
 17 18  2  0
 17 19  2  0
 17 20  1  0
 20 21  2  3
 21 22  1  0
 22 23  1  0
 23 24  2  0
 24 25  1  0
 16 26  1  0
 26 27  2  0
 10  5  1  0
 27 13  1  0
 25 21  1  0
  3 28  1  0
  3 29  1  0
  6 30  1  0
  7 31  1  0
  8 32  1  0
  9 33  1  0
 12 34  1  0
 14 35  1  0
 15 36  1  0
 23 37  1  0
 24 38  1  0
 26 39  1  0
 27 40  1  0
M  CHG  1  22  -1
M  END
>  <UniqueID>  (6) 
5

>  <SMILES>  (6) 
O=C(COc1ccccc1Cl)Nc1ccc(S(=O)(=O)N=c2[n-]ccs2)cc1

>  <Energy>  (6) 
78.81585860800733

>  <Genealogy>  (6) 
O=C(COc1ccccc1Cl)Nc1ccc(S(=O)(=O)N=c2[n-]ccs2)cc1 (protonated)
O=C(COc1ccccc1Cl)Nc1ccc(S(=O)(=O)N=c2[n-]ccs2)cc1 (3D coordinates assigned)
O=C(COc1ccccc1Cl)Nc1ccc(S(=O)(=O)N=c2[n-]ccs2)cc1 (optimized conformer: 78.81585860800733 kcal/mol)

>  <smiles>  (6) 
O=C(COc1ccccc1Cl)Nc1ccc(S(=O)(=O)N=c2[nH]ccs2)cc1

>  <score_type>  (6) 
oracle

>  <origin>  (6) 
adg

>  <m_score__min__energy>  (6) 
-9.7200000000000006

>  <m_primary>  (6) 
energy

$$$$
6:0
     RDKit          3D

 49 52  0  0  0  0  0  0  0  0999 V2000
   56.3720   27.3160   45.6810 N   0  0  0  0  0  0  0  0  0  0  0  0
   57.6810   28.4440   45.6600 S   0  0  0  0  0  0  0  0  0  0  0  0
   58.9560   27.6920   45.3960 O   0  0  0  0  0  0  0  0  0  0  0  0
   57.7660   29.1260   46.9980 O   0  0  0  0  0  0  0  0  0  0  0  0
   57.4330   29.6570   44.3970 C   0  0  0  0  0  0  0  0  0  0  0  0
   56.6300   29.3380   43.2890 C   0  0  0  0  0  0  0  0  0  0  0  0
   56.4340   30.2640   42.2640 C   0  0  0  0  0  0  0  0  0  0  0  0
   57.0310   31.5220   42.3340 C   0  0  0  0  0  0  0  0  0  0  0  0
   57.8240   31.8580   43.4320 C   0  0  0  0  0  0  0  0  0  0  0  0
   58.0410   30.9330   44.4700 C   0  0  0  0  0  0  0  0  0  0  0  0
   58.8210   31.3130   45.6190 N   0  0  0  0  0  0  0  0  0  0  0  0
   59.0420   32.6790   46.0160 C   0  0  0  0  0  0  0  0  0  0  0  0
   59.1400   33.6880   45.0400 C   0  0  0  0  0  0  0  0  0  0  0  0
   59.4180   35.0060   45.4080 C   0  0  0  0  0  0  0  0  0  0  0  0
   59.6080   35.3320   46.7500 C   0  0  0  0  0  0  0  0  0  0  0  0
   59.5230   34.3410   47.7310 C   0  0  0  0  0  0  0  0  0  0  0  0
   59.2460   33.0100   47.3760 C   0  0  0  0  0  0  0  0  0  0  0  0
   59.1040   31.9960   48.4390 C   0  0  0  0  0  0  0  0  0  0  0  0
   58.3270   32.2520   49.9110 S   0  0  0  0  0  0  0  0  0  0  0  0
   58.6550   30.7070   50.4800 C   0  0  0  0  0  0  0  0  0  0  0  0
   58.1810   30.1780   51.9560 S   0  0  0  0  0  0  0  0  0  0  0  0
   59.3600   29.9770   49.5730 N   0  0  0  0  0  0  0  0  0  0  0  0
   59.7540   28.5720   49.7490 C   0  0  0  0  0  0  0  0  0  0  0  0
   60.9760   28.4720   50.6250 C   0  0  0  0  0  0  0  0  0  0  0  0
   61.3080   27.2580   51.2520 C   0  0  0  0  0  0  0  0  0  0  0  0
   62.4580   27.1640   52.0430 C   0  0  0  0  0  0  0  0  0  0  0  0
   63.2820   28.2790   52.2150 C   0  0  0  0  0  0  0  0  0  0  0  0
   62.9600   29.4900   51.5950 C   0  0  0  0  0  0  0  0  0  0  0  0
   61.8130   29.5860   50.8010 C   0  0  0  0  0  0  0  0  0  0  0  0
   59.6090   30.6920   48.4340 C   0  0  0  0  0  0  0  0  0  0  0  0
   60.2920   30.1380   47.3510 O   0  0  0  0  0  0  0  0  0  0  0  0
   55.5330   27.8120   45.3050 H   0  0  0  0  0  0  0  0  0  0  0  0
   56.1516   28.3493   43.2292 H   0  0  0  0  0  0  0  0  0  0  0  0
   55.8073   30.0011   41.3991 H   0  0  0  0  0  0  0  0  0  0  0  0
   56.8769   32.2497   41.5236 H   0  0  0  0  0  0  0  0  0  0  0  0
   58.2840   32.8557   43.4866 H   0  0  0  0  0  0  0  0  0  0  0  0
   59.2230   30.5590   46.2180 H   0  0  0  0  0  0  0  0  0  0  0  0
   58.9965   33.4365   43.9788 H   0  0  0  0  0  0  0  0  0  0  0  0
   59.4872   35.7883   44.6377 H   0  0  0  0  0  0  0  0  0  0  0  0
   59.8253   36.3714   47.0370 H   0  0  0  0  0  0  0  0  0  0  0  0
   59.6739   34.6044   48.7883 H   0  0  0  0  0  0  0  0  0  0  0  0
   58.9262   28.0200   50.2181 H   0  0  0  0  0  0  0  0  0  0  0  0
   59.9866   28.1418   48.7637 H   0  0  0  0  0  0  0  0  0  0  0  0
   60.6607   26.3785   51.1200 H   0  0  0  0  0  0  0  0  0  0  0  0
   62.7137   26.2114   52.5300 H   0  0  0  0  0  0  0  0  0  0  0  0
   64.1849   28.2040   52.8388 H   0  0  0  0  0  0  0  0  0  0  0  0
   63.6091   30.3675   51.7318 H   0  0  0  0  0  0  0  0  0  0  0  0
   61.5649   30.5393   50.3115 H   0  0  0  0  0  0  0  0  0  0  0  0
   59.9100   29.3790   46.8030 H   0  0  0  0  0  0  0  0  0  0  0  0
  1  2  1  0
  2  3  2  0
  2  4  2  0
  2  5  1  0
  5  6  2  0
  6  7  1  0
  7  8  2  0
  8  9  1  0
  9 10  2  0
 10 11  1  0
 11 12  1  0
 12 13  2  0
 13 14  1  0
 14 15  2  0
 15 16  1  0
 16 17  2  0
 17 18  1  0
 18 19  1  0
 19 20  1  0
 20 21  2  0
 20 22  1  0
 22 23  1  0
 23 24  1  0
 24 25  2  0
 25 26  1  0
 26 27  2  0
 27 28  1  0
 28 29  2  0
 22 30  1  0
 30 31  1  0
 10  5  1  0
 17 12  1  0
 30 18  2  0
 29 24  1  0
  1 32  1  0
  6 33  1  0
  7 34  1  0
  8 35  1  0
  9 36  1  0
 11 37  1  0
 13 38  1  0
 14 39  1  0
 15 40  1  0
 16 41  1  0
 23 42  1  0
 23 43  1  0
 25 44  1  0
 26 45  1  0
 27 46  1  0
 28 47  1  0
 29 48  1  0
 31 49  1  0
M  CHG  1   1  -1
M  END
>  <UniqueID>  (7) 
6

>  <SMILES>  (7) 
[NH-]S(=O)(=O)c1ccccc1Nc1ccccc1-c1sc(=S)n(Cc2ccccc2)c1O

>  <Energy>  (7) 
97.11533032439456

>  <Genealogy>  (7) 
[NH-]S(=O)(=O)c1ccccc1Nc1ccccc1-c1sc(=S)n(Cc2ccccc2)c1O (protonated)
[NH-]S(=O)(=O)c1ccccc1Nc1ccccc1-c1sc(=S)n(Cc2ccccc2)c1O (3D coordinates assigned)
[NH-]S(=O)(=O)c1ccccc1Nc1ccccc1-c1sc(=S)n(Cc2ccccc2)c1O (optimized conformer: 97.11533032439456 kcal/mol)

>  <smiles>  (7) 
NS(=O)(=O)c1ccccc1Nc1ccccc1-c1sc(=S)n(Cc2ccccc2)c1O

>  <score_type>  (7) 
oracle

>  <origin>  (7) 
adg

>  <m_score__min__energy>  (7) 
-11.42

>  <m_primary>  (7) 
energy

$$$$
7:0
     RDKit          3D

 50 53  0  0  0  0  0  0  0  0999 V2000
   66.8558   33.6779   50.0111 H   0  0  0  0  0  0  0  0  0  0  0  0
   66.1430   32.8770   50.2570 C   0  0  0  0  0  0  0  0  0  0  0  0
   66.5900   31.7220   50.8970 C   0  0  0  0  0  0  0  0  0  0  0  0
   67.6535   31.6131   51.1562 H   0  0  0  0  0  0  0  0  0  0  0  0
   65.6870   30.7030   51.2090 C   0  0  0  0  0  0  0  0  0  0  0  0
   66.0461   29.7872   51.7012 H   0  0  0  0  0  0  0  0  0  0  0  0
   64.3240   30.8390   50.8990 C   0  0  0  0  0  0  0  0  0  0  0  0
   63.8650   32.0090   50.2490 C   0  0  0  0  0  0  0  0  0  0  0  0
   64.7940   33.0210   49.9270 C   0  0  0  0  0  0  0  0  0  0  0  0
   64.4526   33.9309   49.4117 H   0  0  0  0  0  0  0  0  0  0  0  0
   62.4580   32.1530   49.9450 N   0  0  0  0  0  0  0  0  0  0  0  0
   61.7200   33.7270   49.7780 S   0  0  0  0  0  0  0  0  0  0  0  0
   62.7640   34.7810   49.5360 O   0  0  0  0  0  0  0  0  0  0  0  0
   60.9820   34.0550   51.0450 O   0  0  0  0  0  0  0  0  0  0  0  0
   60.6220   33.7270   48.4020 C   0  0  0  0  0  0  0  0  0  0  0  0
   59.2520   33.4920   48.5850 C   0  0  0  0  0  0  0  0  0  0  0  0
   58.8561   33.3090   49.5948 H   0  0  0  0  0  0  0  0  0  0  0  0
   58.3880   33.4900   47.4850 C   0  0  0  0  0  0  0  0  0  0  0  0
   57.3150   33.2997   47.6348 H   0  0  0  0  0  0  0  0  0  0  0  0
   58.8790   33.7290   46.1900 C   0  0  0  0  0  0  0  0  0  0  0  0
   57.9580   33.7070   45.0270 C   0  0  0  0  0  0  0  0  0  0  0  0
   57.0970   34.6200   44.9020 O   0  0  0  0  0  0  0  0  0  0  0  0
   57.9830   32.6530   44.0540 N   0  0  0  0  0  0  0  0  0  0  0  0
   57.6650   31.4140   44.2860 C   0  0  0  0  0  0  0  0  0  0  0  0
   56.3950   30.9710   44.4320 N   0  0  0  0  0  0  0  0  0  0  0  0
   56.3660   29.6390   44.6940 C   0  0  0  0  0  0  0  0  0  0  0  0
   55.1710   28.9540   44.8750 O   0  0  0  0  0  0  0  0  0  0  0  0
   57.6130   29.0200   44.7630 C   0  0  0  0  0  0  0  0  0  0  0  0
   57.8730   27.5700   45.0260 C   0  0  0  0  0  0  0  0  0  0  0  0
   58.9386   27.4299   45.2600 H   0  0  0  0  0  0  0  0  0  0  0  0
   57.6024   26.9917   44.1303 H   0  0  0  0  0  0  0  0  0  0  0  0
   57.0470   27.0900   46.1810 C   0  0  0  0  0  0  0  0  0  0  0  0
   57.5530   27.0420   47.3340 O   0  0  0  0  0  0  0  0  0  0  0  0
   55.6850   26.7100   45.9900 N   0  0  0  0  0  0  0  0  0  0  0  0
   55.1200   26.3620   46.7940 H   0  0  0  0  0  0  0  0  0  0  0  0
   55.2510   26.7470   45.0400 H   0  0  0  0  0  0  0  0  0  0  0  0
   58.7980   30.1880   44.4860 S   0  0  0  0  0  0  0  0  0  0  0  0
   60.2570   33.9490   46.0150 C   0  0  0  0  0  0  0  0  0  0  0  0
   60.6598   34.1120   45.0045 H   0  0  0  0  0  0  0  0  0  0  0  0
   61.1180   33.9620   47.1150 C   0  0  0  0  0  0  0  0  0  0  0  0
   62.1905   34.1578   46.9687 H   0  0  0  0  0  0  0  0  0  0  0  0
   61.6160   30.9510   49.9390 C   0  0  0  0  0  0  0  0  0  0  0  0
   60.5562   31.2455   49.9415 H   0  0  0  0  0  0  0  0  0  0  0  0
   61.8292   30.3580   49.0374 H   0  0  0  0  0  0  0  0  0  0  0  0
   61.9150   30.1150   51.1810 C   0  0  0  0  0  0  0  0  0  0  0  0
   61.7019   30.7117   52.0802 H   0  0  0  0  0  0  0  0  0  0  0  0
   61.2825   29.2151   51.1679 H   0  0  0  0  0  0  0  0  0  0  0  0
   63.3880   29.6900   51.1930 C   0  0  0  0  0  0  0  0  0  0  0  0
   63.6297   29.2833   52.1860 H   0  0  0  0  0  0  0  0  0  0  0  0
   63.5250   28.9367   50.4032 H   0  0  0  0  0  0  0  0  0  0  0  0
  1  2  1  0
  2  3  2  0
  3  4  1  0
  3  5  1  0
  5  6  1  0
  5  7  2  0
  7  8  1  0
  8  9  2  0
  9 10  1  0
  8 11  1  0
 11 12  1  0
 12 13  2  0
 12 14  2  0
 12 15  1  0
 15 16  2  0
 16 17  1  0
 16 18  1  0
 18 19  1  0
 18 20  2  0
 20 21  1  0
 21 22  2  0
 21 23  1  0
 23 24  2  0
 24 25  1  0
 25 26  1  0
 26 27  1  0
 26 28  2  0
 28 29  1  0
 29 30  1  0
 29 31  1  0
 29 32  1  0
 32 33  2  0
 32 34  1  0
 34 35  1  0
 34 36  1  0
 28 37  1  0
 20 38  1  0
 38 39  1  0
 38 40  2  0
 40 41  1  0
 11 42  1  0
 42 43  1  0
 42 44  1  0
 42 45  1  0
 45 46  1  0
 45 47  1  0
 45 48  1  0
 48 49  1  0
 48 50  1  0
  9  2  1  0
 40 15  1  0
 48  7  1  0
 37 24  1  0
M  CHG  2  25  -1  27  -1
M  END
>  <UniqueID>  (8) 
7

>  <SMILES>  (8) 
NC(=O)Cc1s/c(=N/C(=O)c2ccc(S(=O)(=O)N3CCCc4ccccc43)cc2)[n-]c1[O-]

>  <Energy>  (8) 
90.60205501203048

>  <Genealogy>  (8) 
NC(=O)Cc1sc(=NC(=O)c2ccc(S(=O)(=O)N3CCCc4ccccc43)cc2)[n-]c1[O-] (protonated)
NC(=O)Cc1s/c(=N/C(=O)c2ccc(S(=O)(=O)N3CCCc4ccccc43)cc2)[n-]c1[O-] (cis-trans isomerization)
NC(=O)Cc1s/c(=N/C(=O)c2ccc(S(=O)(=O)N3CCCc4ccccc43)cc2)[n-]c1[O-] (3D coordinates assigned)
NC(=O)Cc1s/c(=N/C(=O)c2ccc(S(=O)(=O)N3CCCc4ccccc43)cc2)[n-]c1[O-] (nonaromatic ring conformer: 90.60205501203048 kcal/mol)

>  <smiles>  (8) 
NC(=O)Cc1sc(=NC(=O)c2ccc(S(=O)(=O)N3CCCc4ccccc43)cc2)[nH]c1O

>  <score_type>  (8) 
oracle

>  <origin>  (8) 
adg

>  <m_score__min__energy>  (8) 
-15.279999999999999

>  <m_primary>  (8) 
energy

$$$$
8:0
     RDKit          3D

 52 54  0  0  0  0  0  0  0  0999 V2000
   63.3650   32.2220   49.6910 C   0  0  0  0  0  0  0  0  0  0  0  0
   62.1800   31.6730   49.0050 N   0  0  0  0  0  0  0  0  0  0  0  0
   62.1360   31.8780   47.5070 C   0  0  0  0  0  0  0  0  0  0  0  0
   63.0900   32.4680   47.0500 O   0  0  0  0  0  0  0  0  0  0  0  0
   60.9690   31.2920   46.9460 C   0  0  0  0  0  0  0  0  0  0  0  0
   59.9320   30.7720   46.4470 O   0  0  0  0  0  0  0  0  0  0  0  0
   58.7930   30.8860   45.7580 C   0  0  0  0  0  0  0  0  0  0  0  0
   58.2940   29.8640   44.9580 C   0  0  0  0  0  0  0  0  0  0  0  0
   58.8360   28.4530   44.8420 C   0  0  0  0  0  0  0  0  0  0  0  0
   58.1820   27.6220   45.8490 N   0  0  0  0  0  0  0  0  0  0  0  0
   56.8490   27.2950   45.6740 C   0  0  0  0  0  0  0  0  0  0  0  0
   59.0830   26.8220   46.5680 C   0  0  0  0  0  0  0  0  0  0  0  0
   59.6750   27.4230   47.8050 C   0  0  0  0  0  0  0  0  0  0  0  0
   60.4110   26.7120   48.6780 N   0  0  0  0  0  0  0  0  0  0  0  0
   60.7840   27.2970   49.8580 C   0  0  0  0  0  0  0  0  0  0  0  0
   61.4720   26.6160   50.6450 O   0  0  0  0  0  0  0  0  0  0  0  0
   60.4280   28.5860   50.1850 C   0  0  0  0  0  0  0  0  0  0  0  0
   60.6180   29.4270   51.2820 C   0  0  0  0  0  0  0  0  0  0  0  0
   59.9740   30.5610   50.9680 N   0  0  0  0  0  0  0  0  0  0  0  0
   59.4080   30.4990   49.7830 N   0  0  0  0  0  0  0  0  0  0  0  0
   58.5920   31.5570   49.1600 C   0  0  0  0  0  0  0  0  0  0  0  0
   59.6720   29.2920   49.2680 C   0  0  0  0  0  0  0  0  0  0  0  0
   59.3350   28.7110   48.1420 N   0  0  0  0  0  0  0  0  0  0  0  0
   57.1600   30.3710   44.4080 C   0  0  0  0  0  0  0  0  0  0  0  0
   56.2490   29.7270   43.4450 C   0  0  0  0  0  0  0  0  0  0  0  0
   56.9840   31.6170   44.8600 N   0  0  0  0  0  0  0  0  0  0  0  0
   57.9670   31.9540   45.6810 N   0  0  0  0  0  0  0  0  0  0  0  0
   58.0330   33.2550   46.3030 C   0  0  0  0  0  0  0  0  0  0  0  0
   63.2219   32.1557   50.7796 H   0  0  0  0  0  0  0  0  0  0  0  0
   64.2559   31.6449   49.4024 H   0  0  0  0  0  0  0  0  0  0  0  0
   63.5008   33.2748   49.4024 H   0  0  0  0  0  0  0  0  0  0  0  0
   61.4380   31.1720   49.4730 H   0  0  0  0  0  0  0  0  0  0  0  0
    0.0000    0.0000    0.0000 H   0  0  0  0  0  0  0  0  0  0  0  0
   61.4477   30.3023   46.9840 H   0  0  0  0  0  0  0  0  0  0  0  0
   58.6245   28.0555   43.8384 H   0  0  0  0  0  0  0  0  0  0  0  0
   59.9244   28.4527   45.0016 H   0  0  0  0  0  0  0  0  0  0  0  0
   56.3684   27.1771   46.6564 H   0  0  0  0  0  0  0  0  0  0  0  0
   56.3455   28.0963   45.1132 H   0  0  0  0  0  0  0  0  0  0  0  0
   56.7734   26.3517   45.1132 H   0  0  0  0  0  0  0  0  0  0  0  0
   58.5522   25.9051   46.8638 H   0  0  0  0  0  0  0  0  0  0  0  0
   59.9332   26.6612   45.8888 H   0  0  0  0  0  0  0  0  0  0  0  0
   61.1753   29.2076   52.2047 H   0  0  0  0  0  0  0  0  0  0  0  0
   58.1214   32.1672   49.9450 H   0  0  0  0  0  0  0  0  0  0  0  0
   59.2341   32.1951   48.5351 H   0  0  0  0  0  0  0  0  0  0  0  0
   57.8117   31.0981   48.5351 H   0  0  0  0  0  0  0  0  0  0  0  0
   58.7620   29.2640   47.4570 H   0  0  0  0  0  0  0  0  0  0  0  0
   55.4690   29.1756   43.9905 H   0  0  0  0  0  0  0  0  0  0  0  0
   55.7806   30.4958   42.8129 H   0  0  0  0  0  0  0  0  0  0  0  0
   56.8175   29.0290   42.8129 H   0  0  0  0  0  0  0  0  0  0  0  0
   58.0271   33.1392   47.3969 H   0  0  0  0  0  0  0  0  0  0  0  0
   58.9581   33.7631   45.9931 H   0  0  0  0  0  0  0  0  0  0  0  0
   57.1641   33.8541   45.9931 H   0  0  0  0  0  0  0  0  0  0  0  0
  1  2  1  0
  2  3  1  0
  3  4  2  0
  3  5  1  0
  5  6  1  0
  6  7  1  0
  7  8  2  0
  8  9  1  0
  9 10  1  0
 10 11  1  0
 10 12  1  0
 12 13  1  0
 13 14  2  0
 14 15  1  0
 15 16  2  0
 15 17  1  0
 17 18  1  0
 18 19  2  0
 19 20  1  0
 20 21  1  0
 20 22  1  0
 22 23  1  0
  8 24  1  0
 24 25  1  0
 24 26  2  0
 26 27  1  0
 27 28  1  0
 27  7  1  0
 23 13  1  0
 22 17  2  0
  1 29  1  0
  1 30  1  0
  1 31  1  0
  2 32  1  0
  5 33  1  0
  5 34  1  0
  9 35  1  0
  9 36  1  0
 11 37  1  0
 11 38  1  0
 11 39  1  0
 12 40  1  0
 12 41  1  0
 18 42  1  0
 21 43  1  0
 21 44  1  0
 21 45  1  0
 23 46  1  0
 25 47  1  0
 25 48  1  0
 25 49  1  0
 28 50  1  0
 28 51  1  0
 28 52  1  0
M  END
>  <smiles>  (9) 
CNC(=O)COc1c(CN(C)Cc2nc(=O)c3cnn(C)c3[nH]2)c(C)nn1C

>  <score_type>  (9) 
oracle

>  <origin>  (9) 
adg

>  <m_score__min__energy>  (9) 
-6.79

>  <m_primary>  (9) 
energy

$$$$
9:0
     RDKit          3D

 16 16  0  0  0  0  0  0  0  0999 V2000
   53.4251   24.9023   45.3820 H   0  0  0  0  0  0  0  0  0  0  0  0
   54.4830   25.0110   45.6630 C   0  0  0  0  0  0  0  0  0  0  0  0
   55.0510   26.2220   45.9080 N   0  0  0  0  0  0  0  0  0  0  0  0
   56.3530   26.1050   46.2460 C   0  0  0  0  0  0  0  0  0  0  0  0
   57.1010   27.1430   46.4780 N   0  0  0  0  0  0  0  0  0  0  0  0
   57.1210   28.3620   45.7230 C   0  0  0  0  0  0  0  0  0  0  0  0
   58.2020   29.0020   45.6340 O   0  0  0  0  0  0  0  0  0  0  0  0
   55.9620   28.8110   45.0070 N   0  0  0  0  0  0  0  0  0  0  0  0
   55.1460   28.1710   44.8870 H   0  0  0  0  0  0  0  0  0  0  0  0
   55.9170   30.1220   44.3690 C   0  0  0  0  0  0  0  0  0  0  0  0
   55.8901   30.9049   45.1413 H   0  0  0  0  0  0  0  0  0  0  0  0
   56.8111   30.2557   43.7423 H   0  0  0  0  0  0  0  0  0  0  0  0
   55.0159   30.1941   43.7423 H   0  0  0  0  0  0  0  0  0  0  0  0
   56.8540   24.4930   46.2290 S   0  0  0  0  0  0  0  0  0  0  0  0
   55.3350   23.9200   45.7930 C   0  0  0  0  0  0  0  0  0  0  0  0
   55.0626   22.8657   45.6376 H   0  0  0  0  0  0  0  0  0  0  0  0
  1  2  1  0
  2  3  1  0
  3  4  1  0
  4  5  2  0
  5  6  1  0
  6  7  2  0
  6  8  1  0
  8  9  1  0
  8 10  1  0
 10 11  1  0
 10 12  1  0
 10 13  1  0
  4 14  1  0
 14 15  1  0
 15 16  1  0
 15  2  2  0
M  CHG  1   3  -1
M  END
>  <UniqueID>  (10) 
8

>  <SMILES>  (10) 
CNC(=O)/N=c1/[n-]ccs1

>  <Energy>  (10) 
46.90533309078319

>  <Genealogy>  (10) 
CNC(=O)N=c1[n-]ccs1 (protonated)
CNC(=O)/N=c1/[n-]ccs1 (cis-trans isomerization)
CNC(=O)/N=c1/[n-]ccs1 (3D coordinates assigned)
CNC(=O)/N=c1/[n-]ccs1 (optimized conformer: 46.90533309078319 kcal/mol)

>  <smiles>  (10) 
CNC(=O)N=c1[nH]ccs1

>  <score_type>  (10) 
oracle

>  <origin>  (10) 
adg

>  <m_score__min__energy>  (10) 
-6.4900000000000002

>  <m_primary>  (10) 
energy

$$$$
10:0
     RDKit          3D

 49 53  0  0  0  0  0  0  0  0999 V2000
   54.7500   26.3080   45.9960 N   0  0  0  0  0  0  0  0  0  0  0  0
   56.3490   25.6610   46.0960 S   0  0  0  0  0  0  0  0  0  0  0  0
   56.5330   24.6140   45.0330 O   0  0  0  0  0  0  0  0  0  0  0  0
   56.5410   25.0390   47.4510 O   0  0  0  0  0  0  0  0  0  0  0  0
   57.5230   26.9420   45.8660 C   0  0  0  0  0  0  0  0  0  0  0  0
   57.2380   28.2950   45.7890 C   0  0  0  0  0  0  0  0  0  0  0  0
   58.3810   29.0920   45.5910 C   0  0  0  0  0  0  0  0  0  0  0  0
   58.3420   30.5720   45.4700 C   0  0  0  0  0  0  0  0  0  0  0  0
   57.3260   31.2120   44.7100 C   0  0  0  0  0  0  0  0  0  0  0  0
   57.2880   32.5730   44.5980 N   0  0  0  0  0  0  0  0  0  0  0  0
   58.2320   33.3170   45.2210 C   0  0  0  0  0  0  0  0  0  0  0  0
   58.3180   34.6560   45.2000 N   0  0  0  0  0  0  0  0  0  0  0  0
   59.4020   34.9640   45.9470 C   0  0  0  0  0  0  0  0  0  0  0  0
   60.0030   33.8060   46.4440 C   0  0  0  0  0  0  0  0  0  0  0  0
   61.2100   33.7600   47.2910 C   0  0  0  0  0  0  0  0  0  0  0  0
   62.3450   33.7430   46.7440 O   0  0  0  0  0  0  0  0  0  0  0  0
   61.0930   33.7860   48.7170 N   0  0  0  0  0  0  0  0  0  0  0  0
   60.1290   33.0860   49.5180 C   0  0  0  0  0  0  0  0  0  0  0  0
   59.5330   33.6670   50.6490 C   0  0  0  0  0  0  0  0  0  0  0  0
   58.6180   32.9400   51.4170 C   0  0  0  0  0  0  0  0  0  0  0  0
   58.2950   31.6140   51.0790 C   0  0  0  0  0  0  0  0  0  0  0  0
   57.3240   30.8410   51.8950 C   0  0  0  0  0  0  0  0  0  0  0  0
   55.9780   31.2450   51.9820 C   0  0  0  0  0  0  0  0  0  0  0  0
   55.0680   30.5130   52.7500 C   0  0  0  0  0  0  0  0  0  0  0  0
   55.4880   29.3720   53.4380 C   0  0  0  0  0  0  0  0  0  0  0  0
   56.8200   28.9610   53.3590 C   0  0  0  0  0  0  0  0  0  0  0  0
   57.7350   29.6890   52.5920 C   0  0  0  0  0  0  0  0  0  0  0  0
   58.9150   31.0300   49.9600 C   0  0  0  0  0  0  0  0  0  0  0  0
   59.8290   31.7590   49.1940 C   0  0  0  0  0  0  0  0  0  0  0  0
   59.2330   32.7550   45.9640 C   0  0  0  0  0  0  0  0  0  0  0  0
   59.3180   31.3720   46.1110 C   0  0  0  0  0  0  0  0  0  0  0  0
   59.5580   28.3430   45.5120 C   0  0  0  0  0  0  0  0  0  0  0  0
   59.1740   26.7140   45.6840 S   0  0  0  0  0  0  0  0  0  0  0  0
   54.6880   27.0820   46.6950 H   0  0  0  0  0  0  0  0  0  0  0  0
   56.2210   28.7054   45.8740 H   0  0  0  0  0  0  0  0  0  0  0  0
   56.5606   30.6039   44.2056 H   0  0  0  0  0  0  0  0  0  0  0  0
   57.6820   35.3220   44.7080 H   0  0  0  0  0  0  0  0  0  0  0  0
   59.7610   35.9863   46.1370 H   0  0  0  0  0  0  0  0  0  0  0  0
   59.7871   34.6991   50.9322 H   0  0  0  0  0  0  0  0  0  0  0  0
   58.1469   33.4096   52.2931 H   0  0  0  0  0  0  0  0  0  0  0  0
   55.6405   32.1421   51.4423 H   0  0  0  0  0  0  0  0  0  0  0  0
   54.0184   30.8362   52.8128 H   0  0  0  0  0  0  0  0  0  0  0  0
   54.7697   28.7977   54.0416 H   0  0  0  0  0  0  0  0  0  0  0  0
   57.1503   28.0627   53.9012 H   0  0  0  0  0  0  0  0  0  0  0  0
   58.7828   29.3593   52.5329 H   0  0  0  0  0  0  0  0  0  0  0  0
   58.6788   29.9913   49.6854 H   0  0  0  0  0  0  0  0  0  0  0  0
   60.3164   31.2851   48.3292 H   0  0  0  0  0  0  0  0  0  0  0  0
   60.1208   30.9149   46.7082 H   0  0  0  0  0  0  0  0  0  0  0  0
   60.5685   28.7510   45.3621 H   0  0  0  0  0  0  0  0  0  0  0  0
  1  2  1  0
  2  3  2  0
  2  4  2  0
  2  5  1  0
  5  6  2  0
  6  7  1  0
  7  8  1  0
  8  9  2  0
  9 10  1  0
 10 11  2  0
 11 12  1  0
 12 13  1  0
 13 14  2  0
 14 15  1  0
 15 16  2  0
 15 17  1  0
 17 18  1  0
 18 19  2  0
 19 20  1  0
 20 21  2  0
 21 22  1  0
 22 23  2  0
 23 24  1  0
 24 25  2  0
 25 26  1  0
 26 27  2  0
 21 28  1  0
 28 29  2  0
 14 30  1  0
 30 31  2  0
  7 32  2  0
 32 33  1  0
 33  5  1  0
 31  8  1  0
 30 11  1  0
 29 18  1  0
 27 22  1  0
  1 34  1  0
  6 35  1  0
  9 36  1  0
 12 37  1  0
 13 38  1  0
 19 39  1  0
 20 40  1  0
 23 41  1  0
 24 42  1  0
 25 43  1  0
 26 44  1  0
 27 45  1  0
 28 46  1  0
 29 47  1  0
 31 48  1  0
 32 49  1  0
M  CHG  2   1  -1  17  -1
M  END
>  <UniqueID>  (11) 
9

>  <SMILES>  (11) 
[NH-]S(=O)(=O)c1cc(-c2cnc3[nH]cc(C(=O)[N-]c4ccc(-c5ccccc5)cc4)c3c2)cs1

>  <Energy>  (11) 
128.82159842344495

>  <Genealogy>  (11) 
[NH-]S(=O)(=O)c1cc(-c2cnc3[nH]cc(C(=O)[N-]c4ccc(-c5ccccc5)cc4)c3c2)cs1 (protonated)
[NH-]S(=O)(=O)c1cc(-c2cnc3[nH]cc(C(=O)[N-]c4ccc(-c5ccccc5)cc4)c3c2)cs1 (3D coordinates assigned)
[NH-]S(=O)(=O)c1cc(-c2cnc3[nH]cc(C(=O)[N-]c4ccc(-c5ccccc5)cc4)c3c2)cs1 (optimized conformer: 128.82159842344495 kcal/mol)

>  <smiles>  (11) 
NS(=O)(=O)c1cc(-c2cnc3[nH]cc(C(=O)Nc4ccc(-c5ccccc5)cc4)c3c2)cs1

>  <score_type>  (11) 
oracle

>  <origin>  (11) 
adg

>  <m_score__min__energy>  (11) 
-13.5

>  <m_primary>  (11) 
energy

$$$$
11:0
     RDKit          3D

 41 43  0  0  0  0  0  0  0  0999 V2000
   56.0530   27.3690   45.6190 O   0  0  0  0  0  0  0  0  0  0  0  0
   56.6160   28.4620   45.3520 C   0  0  0  0  0  0  0  0  0  0  0  0
   55.8560   29.5560   44.8240 N   0  0  0  0  0  0  0  0  0  0  0  0
   56.3000   30.3940   43.7100 C   0  0  0  0  0  0  0  0  0  0  0  0
   57.1970   31.4900   44.2270 C   0  0  0  0  0  0  0  0  0  0  0  0
   57.7680   32.4300   43.3510 C   0  0  0  0  0  0  0  0  0  0  0  0
   58.5400   33.4840   43.8490 C   0  0  0  0  0  0  0  0  0  0  0  0
   58.7710   33.6110   45.2320 C   0  0  0  0  0  0  0  0  0  0  0  0
   59.5480   34.7840   45.7770 C   0  0  0  0  0  0  0  0  0  0  0  0
   60.8620   34.4060   45.9750 F   0  0  0  0  0  0  0  0  0  0  0  0
   59.5110   35.8450   44.8870 F   0  0  0  0  0  0  0  0  0  0  0  0
   59.0170   35.2100   46.9810 F   0  0  0  0  0  0  0  0  0  0  0  0
   58.1730   32.6850   46.1080 C   0  0  0  0  0  0  0  0  0  0  0  0
   57.3980   31.6330   45.6090 C   0  0  0  0  0  0  0  0  0  0  0  0
   58.0630   28.6180   45.5650 C   0  0  0  0  0  0  0  0  0  0  0  0
   59.0180   28.2970   44.6030 C   0  0  0  0  0  0  0  0  0  0  0  0
   60.5430   28.5620   45.2800 S   0  0  0  0  0  0  0  0  0  0  0  0
   59.9340   29.0880   46.7530 C   0  0  0  0  0  0  0  0  0  0  0  0
   60.7690   29.3990   47.9580 C   0  0  0  0  0  0  0  0  0  0  0  0
   60.6590   30.8230   48.3170 N   0  0  0  0  0  0  0  0  0  0  0  0
   61.7190   31.6470   48.0540 C   0  0  0  0  0  0  0  0  0  0  0  0
   61.6590   33.0080   48.3640 C   0  0  0  0  0  0  0  0  0  0  0  0
   60.5030   33.5270   48.9450 C   0  0  0  0  0  0  0  0  0  0  0  0
   59.4210   32.6890   49.2010 C   0  0  0  0  0  0  0  0  0  0  0  0
   59.5090   31.3310   48.8790 C   0  0  0  0  0  0  0  0  0  0  0  0
   58.5180   30.5850   49.1090 O   0  0  0  0  0  0  0  0  0  0  0  0
   58.5810   29.0520   46.7530 N   0  0  0  0  0  0  0  0  0  0  0  0
   56.8545   29.7779   42.9869 H   0  0  0  0  0  0  0  0  0  0  0  0
   55.4238   30.8411   43.2177 H   0  0  0  0  0  0  0  0  0  0  0  0
   57.6063   32.3356   42.2671 H   0  0  0  0  0  0  0  0  0  0  0  0
   58.9705   34.2203   43.1543 H   0  0  0  0  0  0  0  0  0  0  0  0
   58.3165   32.7898   47.1936 H   0  0  0  0  0  0  0  0  0  0  0  0
   56.9427   30.9125   46.3044 H   0  0  0  0  0  0  0  0  0  0  0  0
   58.8153   27.9354   43.5841 H   0  0  0  0  0  0  0  0  0  0  0  0
   60.4240   28.7861   48.8038 H   0  0  0  0  0  0  0  0  0  0  0  0
   61.8205   29.1740   47.7260 H   0  0  0  0  0  0  0  0  0  0  0  0
   62.6284   31.2335   47.5935 H   0  0  0  0  0  0  0  0  0  0  0  0
   62.5161   33.6640   48.1516 H   0  0  0  0  0  0  0  0  0  0  0  0
   60.4458   34.5954   49.2004 H   0  0  0  0  0  0  0  0  0  0  0  0
   58.5031   33.0924   49.6535 H   0  0  0  0  0  0  0  0  0  0  0  0
   57.9980   29.2930   47.5830 H   0  0  0  0  0  0  0  0  0  0  0  0
  1  2  2  0
  2  3  1  0
  3  4  1  0
  4  5  1  0
  5  6  2  0
  6  7  1  0
  7  8  2  0
  8  9  1  0
  9 10  1  0
  9 11  1  0
  9 12  1  0
  8 13  1  0
 13 14  2  0
  2 15  1  0
 15 16  2  0
 16 17  1  0
 17 18  1  0
 18 19  1  0
 19 20  1  0
 20 21  1  0
 21 22  2  0
 22 23  1  0
 23 24  2  0
 24 25  1  0
 25 26  2  0
 18 27  2  0
 14  5  1  0
 27 15  1  0
 25 20  1  0
  4 28  1  0
  4 29  1  0
  6 30  1  0
  7 31  1  0
 13 32  1  0
 14 33  1  0
 16 34  1  0
 19 35  1  0
 19 36  1  0
 21 37  1  0
 22 38  1  0
 23 39  1  0
 24 40  1  0
 27 41  1  0
M  CHG  2   3  -1  27   1
M  END
>  <UniqueID>  (12) 
10

>  <SMILES>  (12) 
O=C([N-]Cc1ccc(C(F)(F)F)cc1)c1csc(Cn2ccccc2=O)[nH+]1

>  <Energy>  (12) 
72.0871738090794

>  <Genealogy>  (12) 
O=C([N-]Cc1ccc(C(F)(F)F)cc1)c1csc(Cn2ccccc2=O)[nH+]1 (protonated)
O=C([N-]Cc1ccc(C(F)(F)F)cc1)c1csc(Cn2ccccc2=O)[nH+]1 (3D coordinates assigned)
O=C([N-]Cc1ccc(C(F)(F)F)cc1)c1csc(Cn2ccccc2=O)[nH+]1 (optimized conformer: 72.0871738090794 kcal/mol)

>  <smiles>  (12) 
O=C(NCc1ccc(C(F)(F)F)cc1)c1csc(Cn2ccccc2=O)n1

>  <score_type>  (12) 
oracle

>  <origin>  (12) 
adg

>  <m_score__min__energy>  (12) 
-7.6500000000000004

>  <m_primary>  (12) 
energy

$$$$
12:0
     RDKit          3D

 38 39  0  0  0  0  0  0  0  0999 V2000
   55.1970   29.3160   44.8660 N   0  0  0  0  0  0  0  0  0  0  0  0
   56.5840   29.7200   43.9170 S   0  0  0  0  0  0  0  0  0  0  0  0
   56.2190   30.7840   42.9220 O   0  0  0  0  0  0  0  0  0  0  0  0
   57.0420   28.4920   43.1810 O   0  0  0  0  0  0  0  0  0  0  0  0
   57.8650   30.3170   44.9680 C   0  0  0  0  0  0  0  0  0  0  0  0
   58.0470   31.6930   45.1600 C   0  0  0  0  0  0  0  0  0  0  0  0
   59.0790   32.1550   45.9810 C   0  0  0  0  0  0  0  0  0  0  0  0
   59.9260   31.2470   46.6220 C   0  0  0  0  0  0  0  0  0  0  0  0
   59.7370   29.8680   46.4630 C   0  0  0  0  0  0  0  0  0  0  0  0
   60.6390   28.9700   47.1260 N   0  0  0  0  0  0  0  0  0  0  0  0
   60.3910   27.5950   47.4460 C   0  0  0  0  0  0  0  0  0  0  0  0
   61.1940   26.6930   47.0840 O   0  0  0  0  0  0  0  0  0  0  0  0
   59.1120   27.2180   48.1200 C   0  0  0  0  0  0  0  0  0  0  0  0
   58.2850   26.3740   47.2010 C   0  0  0  0  0  0  0  0  0  0  0  0
   57.0550   26.2230   47.4370 O   0  0  0  0  0  0  0  0  0  0  0  0
   58.8940   25.7440   46.0630 N   0  0  0  0  0  0  0  0  0  0  0  0
   58.2650   24.7180   45.2770 C   0  0  0  0  0  0  0  0  0  0  0  0
   57.3290   25.0320   44.2760 C   0  0  0  0  0  0  0  0  0  0  0  0
   56.7110   24.0150   43.5430 C   0  0  0  0  0  0  0  0  0  0  0  0
   57.0060   22.6660   43.8010 C   0  0  0  0  0  0  0  0  0  0  0  0
   56.3680   21.6220   43.0430 N   0  0  0  0  0  0  0  0  0  0  0  0
   55.8830   21.8580   41.9160 O   0  0  0  0  0  0  0  0  0  0  0  0
   56.2710   20.3480   43.5500 O   0  0  0  0  0  0  0  0  0  0  0  0
   57.9250   22.3550   44.8190 C   0  0  0  0  0  0  0  0  0  0  0  0
   58.5400   23.3730   45.5540 C   0  0  0  0  0  0  0  0  0  0  0  0
   58.7110   29.4070   45.6170 C   0  0  0  0  0  0  0  0  0  0  0  0
   54.4320   29.9670   44.5800 H   0  0  0  0  0  0  0  0  0  0  0  0
   57.3767   32.4103   44.6639 H   0  0  0  0  0  0  0  0  0  0  0  0
   59.2250   33.2360   46.1231 H   0  0  0  0  0  0  0  0  0  0  0  0
   60.7459   31.6172   47.2551 H   0  0  0  0  0  0  0  0  0  0  0  0
   59.3350   26.6505   49.0355 H   0  0  0  0  0  0  0  0  0  0  0  0
   58.5537   28.1304   48.3766 H   0  0  0  0  0  0  0  0  0  0  0  0
   59.8240   26.1020   45.7470 H   0  0  0  0  0  0  0  0  0  0  0  0
   57.0818   26.0836   44.0686 H   0  0  0  0  0  0  0  0  0  0  0  0
   55.9867   24.2734   42.7565 H   0  0  0  0  0  0  0  0  0  0  0  0
   58.1616   21.3034   45.0386 H   0  0  0  0  0  0  0  0  0  0  0  0
   59.2462   23.1152   46.3570 H   0  0  0  0  0  0  0  0  0  0  0  0
   58.5722   28.3265   45.4642 H   0  0  0  0  0  0  0  0  0  0  0  0
  1  2  1  0
  2  3  2  0
  2  4  2  0
  2  5  1  0
  5  6  2  0
  6  7  1  0
  7  8  2  0
  8  9  1  0
  9 10  1  0
 10 11  1  0
 11 12  2  0
 11 13  1  0
 13 14  1  0
 14 15  2  0
 14 16  1  0
 16 17  1  0
 17 18  2  0
 18 19  1  0
 19 20  2  0
 20 21  1  0
 21 22  2  0
 21 23  1  0
 20 24  1  0
 24 25  2  0
  9 26  2  0
 26  5  1  0
 25 17  1  0
  1 27  1  0
  6 28  1  0
  7 29  1  0
  8 30  1  0
 13 31  1  0
 13 32  1  0
 16 33  1  0
 18 34  1  0
 19 35  1  0
 24 36  1  0
 25 37  1  0
 26 38  1  0
M  CHG  4   1  -1  10  -1  21   1  23  -1
M  END
>  <UniqueID>  (13) 
11

>  <SMILES>  (13) 
[NH-]S(=O)(=O)c1cccc([N-]C(=O)CC(=O)Nc2ccc([N+](=O)[O-])cc2)c1

>  <Energy>  (13) 
43.30567406109858

>  <Genealogy>  (13) 
[NH-]S(=O)(=O)c1cccc([N-]C(=O)CC(=O)Nc2ccc([N+](=O)[O-])cc2)c1 (protonated)
[NH-]S(=O)(=O)c1cccc([N-]C(=O)CC(=O)Nc2ccc([N+](=O)[O-])cc2)c1 (3D coordinates assigned)
[NH-]S(=O)(=O)c1cccc([N-]C(=O)CC(=O)Nc2ccc([N+](=O)[O-])cc2)c1 (optimized conformer: 43.30567406109858 kcal/mol)

>  <smiles>  (13) 
NS(=O)(=O)c1cccc(NC(=O)CC(=O)Nc2ccc([N+](=O)[O-])cc2)c1

>  <score_type>  (13) 
oracle

>  <origin>  (13) 
adg

>  <m_score__min__energy>  (13) 
-12.26

>  <m_primary>  (13) 
energy

$$$$
13:0
     RDKit          3D

 58 62  0  0  0  0  0  0  0  0999 V2000
   57.7700   32.3660   42.2800 C   0  0  0  0  0  0  0  0  0  0  0  0
   57.8700   32.4080   43.7800 C   0  0  0  0  0  0  0  0  0  0  0  0
   57.7040   33.6370   44.4430 C   0  0  0  0  0  0  0  0  0  0  0  0
   57.7810   33.7050   45.8340 C   0  0  0  0  0  0  0  0  0  0  0  0
   58.0160   32.5500   46.5790 C   0  0  0  0  0  0  0  0  0  0  0  0
   58.1750   31.3200   45.9370 C   0  0  0  0  0  0  0  0  0  0  0  0
   58.1090   31.2340   44.5340 C   0  0  0  0  0  0  0  0  0  0  0  0
   58.2470   29.9580   43.8770 N   0  0  0  0  0  0  0  0  0  0  0  0
   57.6400   28.4790   44.5450 S   0  0  0  0  0  0  0  0  0  0  0  0
   57.7720   27.3820   43.5290 O   0  0  0  0  0  0  0  0  0  0  0  0
   56.1950   28.6330   44.9300 O   0  0  0  0  0  0  0  0  0  0  0  0
   58.5670   28.1060   45.9910 C   0  0  0  0  0  0  0  0  0  0  0  0
   59.7300   27.3260   45.9230 C   0  0  0  0  0  0  0  0  0  0  0  0
   60.4650   27.0570   47.0830 C   0  0  0  0  0  0  0  0  0  0  0  0
   60.0480   27.5800   48.3220 C   0  0  0  0  0  0  0  0  0  0  0  0
   60.7630   27.3210   49.5400 N   0  0  0  0  0  0  0  0  0  0  0  0
   61.0350   28.2560   50.5920 C   0  0  0  0  0  0  0  0  0  0  0  0
   61.7660   27.9270   51.5650 O   0  0  0  0  0  0  0  0  0  0  0  0
   60.5810   29.6540   50.4750 C   0  0  0  0  0  0  0  0  0  0  0  0
   61.2840   30.4720   49.6500 N   0  0  0  0  0  0  0  0  0  0  0  0
   60.9300   31.7330   49.3960 N   0  0  0  0  0  0  0  0  0  0  0  0
   61.7470   32.4900   48.4810 C   0  0  0  0  0  0  0  0  0  0  0  0
   63.1260   32.6280   48.7200 C   0  0  0  0  0  0  0  0  0  0  0  0
   63.9310   33.3400   47.8240 C   0  0  0  0  0  0  0  0  0  0  0  0
   63.3690   33.9090   46.6780 C   0  0  0  0  0  0  0  0  0  0  0  0
   62.0020   33.7620   46.4220 C   0  0  0  0  0  0  0  0  0  0  0  0
   61.1940   33.0500   47.3130 C   0  0  0  0  0  0  0  0  0  0  0  0
   59.8220   32.2770   49.9880 C   0  0  0  0  0  0  0  0  0  0  0  0
   59.5110   33.4840   49.7740 O   0  0  0  0  0  0  0  0  0  0  0  0
   59.0460   31.4960   50.8640 C   0  0  0  0  0  0  0  0  0  0  0  0
   57.8980   32.0240   51.4890 C   0  0  0  0  0  0  0  0  0  0  0  0
   57.1630   31.2480   52.3850 C   0  0  0  0  0  0  0  0  0  0  0  0
   57.5700   29.9500   52.6830 C   0  0  0  0  0  0  0  0  0  0  0  0
   58.7040   29.4090   52.0730 C   0  0  0  0  0  0  0  0  0  0  0  0
   59.4380   30.1620   51.1310 C   0  0  0  0  0  0  0  0  0  0  0  0
   58.8730   28.3380   48.3850 C   0  0  0  0  0  0  0  0  0  0  0  0
   58.1420   28.6080   47.2260 C   0  0  0  0  0  0  0  0  0  0  0  0
   56.7919   31.9552   41.9891 H   0  0  0  0  0  0  0  0  0  0  0  0
   57.8747   33.3841   41.8769 H   0  0  0  0  0  0  0  0  0  0  0  0
   58.5703   31.7280   41.8769 H   0  0  0  0  0  0  0  0  0  0  0  0
   57.5122   34.5505   43.8609 H   0  0  0  0  0  0  0  0  0  0  0  0
   57.6561   34.6715   46.3442 H   0  0  0  0  0  0  0  0  0  0  0  0
   58.0763   32.6078   47.6758 H   0  0  0  0  0  0  0  0  0  0  0  0
   58.3530   30.4122   46.5321 H   0  0  0  0  0  0  0  0  0  0  0  0
   58.7990   29.8830   42.9950 H   0  0  0  0  0  0  0  0  0  0  0  0
   60.0655   26.9245   44.9554 H   0  0  0  0  0  0  0  0  0  0  0  0
   61.3708   26.4354   47.0268 H   0  0  0  0  0  0  0  0  0  0  0  0
   63.5741   32.1738   49.6160 H   0  0  0  0  0  0  0  0  0  0  0  0
   65.0073   33.4520   48.0219 H   0  0  0  0  0  0  0  0  0  0  0  0
   64.0021   34.4727   45.9770 H   0  0  0  0  0  0  0  0  0  0  0  0
   61.5618   34.2076   45.5177 H   0  0  0  0  0  0  0  0  0  0  0  0
   60.1217   32.9265   47.1011 H   0  0  0  0  0  0  0  0  0  0  0  0
   57.5801   33.0538   51.2688 H   0  0  0  0  0  0  0  0  0  0  0  0
   56.2600   31.6621   52.8572 H   0  0  0  0  0  0  0  0  0  0  0  0
   56.9956   29.3478   53.4023 H   0  0  0  0  0  0  0  0  0  0  0  0
   59.0275   28.3891   52.3283 H   0  0  0  0  0  0  0  0  0  0  0  0
   58.5230   28.7236   49.3539 H   0  0  0  0  0  0  0  0  0  0  0  0
   57.2284   29.2178   47.2843 H   0  0  0  0  0  0  0  0  0  0  0  0
  1  2  1  0
  2  3  2  0
  3  4  1  0
  4  5  2  0
  5  6  1  0
  6  7  2  0
  7  8  1  0
  8  9  1  0
  9 10  2  0
  9 11  2  0
  9 12  1  0
 12 13  2  0
 13 14  1  0
 14 15  2  0
 15 16  1  0
 16 17  1  0
 17 18  2  0
 17 19  1  0
 19 20  2  0
 20 21  1  0
 21 22  1  0
 22 23  2  0
 23 24  1  0
 24 25  2  0
 25 26  1  0
 26 27  2  0
 21 28  1  0
 28 29  2  0
 28 30  1  0
 30 31  2  0
 31 32  1  0
 32 33  2  0
 33 34  1  0
 34 35  2  0
 15 36  1  0
 36 37  2  0
  7  2  1  0
 37 12  1  0
 35 19  1  0
 27 22  1  0
 35 30  1  0
  1 38  1  0
  1 39  1  0
  1 40  1  0
  3 41  1  0
  4 42  1  0
  5 43  1  0
  6 44  1  0
  8 45  1  0
 13 46  1  0
 14 47  1  0
 23 48  1  0
 24 49  1  0
 25 50  1  0
 26 51  1  0
 27 52  1  0
 31 53  1  0
 32 54  1  0
 33 55  1  0
 34 56  1  0
 36 57  1  0
 37 58  1  0
M  CHG  1  16  -1
M  END
>  <UniqueID>  (14) 
12

>  <SMILES>  (14) 
Cc1ccccc1NS(=O)(=O)c1ccc([N-]C(=O)c2nn(-c3ccccc3)c(=O)c3ccccc23)cc1

>  <Energy>  (14) 
92.4734510848955

>  <Genealogy>  (14) 
Cc1ccccc1NS(=O)(=O)c1ccc([N-]C(=O)c2nn(-c3ccccc3)c(=O)c3ccccc23)cc1 (protonated)
Cc1ccccc1NS(=O)(=O)c1ccc([N-]C(=O)c2nn(-c3ccccc3)c(=O)c3ccccc23)cc1 (3D coordinates assigned)
Cc1ccccc1NS(=O)(=O)c1ccc([N-]C(=O)c2nn(-c3ccccc3)c(=O)c3ccccc23)cc1 (optimized conformer: 92.4734510848955 kcal/mol)

>  <smiles>  (14) 
Cc1ccccc1NS(=O)(=O)c1ccc(NC(=O)c2nn(-c3ccccc3)c(=O)c3ccccc23)cc1

>  <score_type>  (14) 
oracle

>  <origin>  (14) 
adg

>  <m_score__min__energy>  (14) 
-11.84

>  <m_primary>  (14) 
energy

$$$$
14:0
     RDKit          3D

 52 54  0  0  0  0  0  0  0  0999 V2000
   55.1200   29.3390   44.8660 N   0  0  0  0  0  0  0  0  0  0  0  0
   56.2590   29.6230   44.0600 C   0  0  0  0  0  0  0  0  0  0  0  0
   56.1660   30.4430   43.1090 O   0  0  0  0  0  0  0  0  0  0  0  0
   57.5530   28.9060   44.3070 C   0  0  0  0  0  0  0  0  0  0  0  0
   57.6620   28.4300   45.7700 C   0  0  1  0  0  0  0  0  0  0  0  0
   57.7880   26.9690   45.8170 N   0  0  0  0  0  0  0  0  0  0  0  0
   56.6550   26.1050   46.0060 C   0  0  0  0  0  0  0  0  0  0  0  0
   55.4900   26.5870   46.0010 O   0  0  0  0  0  0  0  0  0  0  0  0
   56.8390   24.6480   46.1920 C   0  0  0  0  0  0  0  0  0  0  0  0
   57.5570   23.8850   45.2530 C   0  0  0  0  0  0  0  0  0  0  0  0
   57.7280   22.5110   45.4420 C   0  0  0  0  0  0  0  0  0  0  0  0
   57.1890   21.8860   46.5680 C   0  0  0  0  0  0  0  0  0  0  0  0
   56.4800   22.6350   47.5090 C   0  0  0  0  0  0  0  0  0  0  0  0
   56.3100   24.0100   47.3280 C   0  0  0  0  0  0  0  0  0  0  0  0
   58.8320   29.0800   46.4900 C   0  0  0  0  0  0  0  0  0  0  0  0
   59.8480   29.7140   45.7550 C   0  0  0  0  0  0  0  0  0  0  0  0
   60.9360   30.2970   46.4090 C   0  0  0  0  0  0  0  0  0  0  0  0
   61.0330   30.2630   47.8040 C   0  0  0  0  0  0  0  0  0  0  0  0
   62.1590   30.8530   48.4020 O   0  0  0  0  0  0  0  0  0  0  0  0
   63.0650   31.7570   47.7690 C   0  0  0  0  0  0  0  0  0  0  0  0
   62.3760   33.0460   47.4140 C   0  0  0  0  0  0  0  0  0  0  0  0
   62.9470   33.8560   46.6380 O   0  0  0  0  0  0  0  0  0  0  0  0
   61.0490   33.3470   47.8680 N   0  0  0  0  0  0  0  0  0  0  0  0
   59.8750   33.4760   47.0560 C   0  0  0  0  0  0  0  0  0  0  0  0
   59.9370   34.2550   45.8940 C   0  0  0  0  0  0  0  0  0  0  0  0
   58.7980   34.4360   45.1030 C   0  0  0  0  0  0  0  0  0  0  0  0
   57.5830   33.8570   45.4800 C   0  0  0  0  0  0  0  0  0  0  0  0
   57.5050   33.0970   46.6500 C   0  0  0  0  0  0  0  0  0  0  0  0
   58.6450   32.9140   47.4420 C   0  0  0  0  0  0  0  0  0  0  0  0
   60.0170   29.6310   48.5450 C   0  0  0  0  0  0  0  0  0  0  0  0
   58.9270   29.0490   47.8920 C   0  0  0  0  0  0  0  0  0  0  0  0
   55.1750   28.6450   45.6440 H   0  0  0  0  0  0  0  0  0  0  0  0
   57.6109   28.0324   43.6411 H   0  0  0  0  0  0  0  0  0  0  0  0
   58.3793   29.6042   44.1075 H   0  0  0  0  0  0  0  0  0  0  0  0
   56.7413   28.7343   46.2893 H   0  0  0  0  0  0  0  0  0  0  0  0
   58.7150   26.5320   45.6070 H   0  0  0  0  0  0  0  0  0  0  0  0
   57.9861   24.3726   44.3653 H   0  0  0  0  0  0  0  0  0  0  0  0
   58.2884   21.9207   44.7021 H   0  0  0  0  0  0  0  0  0  0  0  0
   57.3229   20.8039   46.7137 H   0  0  0  0  0  0  0  0  0  0  0  0
   56.0542   22.1414   48.3951 H   0  0  0  0  0  0  0  0  0  0  0  0
   55.7594   24.5966   48.0782 H   0  0  0  0  0  0  0  0  0  0  0  0
   59.7862   29.7515   44.6574 H   0  0  0  0  0  0  0  0  0  0  0  0
   61.7250   30.7881   45.8206 H   0  0  0  0  0  0  0  0  0  0  0  0
   63.8983   31.9709   48.4545 H   0  0  0  0  0  0  0  0  0  0  0  0
   63.4379   31.2915   46.8448 H   0  0  0  0  0  0  0  0  0  0  0  0
   60.8866   34.7271   45.6018 H   0  0  0  0  0  0  0  0  0  0  0  0
   58.8584   35.0351   44.1825 H   0  0  0  0  0  0  0  0  0  0  0  0
   56.6885   33.9996   44.8559 H   0  0  0  0  0  0  0  0  0  0  0  0
   56.5487   32.6428   46.9486 H   0  0  0  0  0  0  0  0  0  0  0  0
   58.5782   32.3279   48.3705 H   0  0  0  0  0  0  0  0  0  0  0  0
   60.0811   29.5950   49.6425 H   0  0  0  0  0  0  0  0  0  0  0  0
   58.1358   28.5620   48.4809 H   0  0  0  0  0  0  0  0  0  0  0  0
  1  2  1  0
  2  3  2  0
  2  4  1  0
  4  5  1  0
  5  6  1  0
  6  7  1  0
  7  8  2  0
  7  9  1  0
  9 10  2  0
 10 11  1  0
 11 12  2  0
 12 13  1  0
 13 14  2  0
  5 15  1  0
 15 16  2  0
 16 17  1  0
 17 18  2  0
 18 19  1  0
 19 20  1  0
 20 21  1  0
 21 22  2  0
 21 23  1  0
 23 24  1  0
 24 25  2  0
 25 26  1  0
 26 27  2  0
 27 28  1  0
 28 29  2  0
 18 30  1  0
 30 31  2  0
 14  9  1  0
 31 15  1  0
 29 24  1  0
  1 32  1  0
  4 33  1  0
  4 34  1  0
  5 35  1  1
  6 36  1  0
 10 37  1  0
 11 38  1  0
 12 39  1  0
 13 40  1  0
 14 41  1  0
 16 42  1  0
 17 43  1  0
 20 44  1  0
 20 45  1  0
 25 46  1  0
 26 47  1  0
 27 48  1  0
 28 49  1  0
 29 50  1  0
 30 51  1  0
 31 52  1  0
M  CHG  2   1  -1  23  -1
M  END
>  <UniqueID>  (15) 
13

>  <SMILES>  (15) 
[NH-]C(=O)C[C@@H](NC(=O)c1ccccc1)c1ccc(OCC(=O)[N-]c2ccccc2)cc1

>  <Energy>  (15) 
59.07465159910351

>  <Genealogy>  (15) 
[NH-]C(=O)CC(NC(=O)c1ccccc1)c1ccc(OCC(=O)[N-]c2ccccc2)cc1 (protonated)
[NH-]C(=O)C[C@@H](NC(=O)c1ccccc1)c1ccc(OCC(=O)[N-]c2ccccc2)cc1 (chirality)
[NH-]C(=O)C[C@@H](NC(=O)c1ccccc1)c1ccc(OCC(=O)[N-]c2ccccc2)cc1 (3D coordinates assigned)
[NH-]C(=O)C[C@@H](NC(=O)c1ccccc1)c1ccc(OCC(=O)[N-]c2ccccc2)cc1 (optimized conformer: 59.07465159910351 kcal/mol)

>  <smiles>  (15) 
NC(=O)CC(NC(=O)c1ccccc1)c1ccc(OCC(=O)Nc2ccccc2)cc1

>  <score_type>  (15) 
oracle

>  <origin>  (15) 
adg

>  <m_score__min__energy>  (15) 
-12.460000000000001

>  <m_primary>  (15) 
energy

$$$$
15:0
     RDKit          3D

 41 43  0  0  0  0  0  0  0  0999 V2000
   57.6250   28.0130   46.4110 C   0  0  0  0  0  0  0  0  0  0  0  0
   57.4260   29.3360   45.7380 C   0  0  0  0  0  0  0  0  0  0  0  0
   56.3030   29.7390   45.0500 C   0  0  0  0  0  0  0  0  0  0  0  0
   55.1580   28.9720   44.8710 O   0  0  0  0  0  0  0  0  0  0  0  0
   56.4370   30.9840   44.5580 N   0  0  0  0  0  0  0  0  0  0  0  0
   57.6660   31.3920   44.9400 C   0  0  0  0  0  0  0  0  0  0  0  0
   58.1530   32.7470   44.6340 C   0  0  0  0  0  0  0  0  0  0  0  0
   58.5480   33.5270   45.5400 O   0  0  0  0  0  0  0  0  0  0  0  0
   58.3110   30.4000   45.6800 C   0  0  0  0  0  0  0  0  0  0  0  0
   59.6770   30.4240   46.2390 C   0  0  0  0  0  0  0  0  0  0  0  0
   60.3330   29.3530   46.3310 O   0  0  0  0  0  0  0  0  0  0  0  0
   60.2590   31.6670   46.6630 N   0  0  0  0  0  0  0  0  0  0  0  0
   61.3970   31.7650   47.5360 C   0  0  0  0  0  0  0  0  0  0  0  0
   62.4660   32.6000   47.1810 C   0  0  0  0  0  0  0  0  0  0  0  0
   63.5740   32.7300   48.0220 C   0  0  0  0  0  0  0  0  0  0  0  0
   63.6280   32.0350   49.2410 C   0  0  0  0  0  0  0  0  0  0  0  0
   64.7670   32.1820   50.1100 N   0  0  0  0  0  0  0  0  0  0  0  0
   65.5560   33.4220   50.0990 C   0  0  0  0  0  0  0  0  0  0  0  0
   66.0710   33.7710   51.5160 C   0  0  0  0  0  0  0  0  0  0  0  0
   65.8430   32.7530   52.4760 O   0  0  0  0  0  0  0  0  0  0  0  0
   66.2420   31.5010   51.9600 C   0  0  0  0  0  0  0  0  0  0  0  0
   65.2300   31.0400   50.9090 C   0  0  0  0  0  0  0  0  0  0  0  0
   62.5440   31.2220   49.6120 C   0  0  0  0  0  0  0  0  0  0  0  0
   61.4370   31.0900   48.7690 C   0  0  0  0  0  0  0  0  0  0  0  0
   57.6044   28.1500   47.5022 H   0  0  0  0  0  0  0  0  0  0  0  0
   56.8202   27.3251   46.1125 H   0  0  0  0  0  0  0  0  0  0  0  0
   58.5965   27.5922   46.1125 H   0  0  0  0  0  0  0  0  0  0  0  0
   58.1723   33.0865   43.5879 H   0  0  0  0  0  0  0  0  0  0  0  0
   59.8850   32.5470   46.2410 H   0  0  0  0  0  0  0  0  0  0  0  0
   62.4320   33.1570   46.2331 H   0  0  0  0  0  0  0  0  0  0  0  0
   64.4100   33.3814   47.7272 H   0  0  0  0  0  0  0  0  0  0  0  0
   66.4166   33.2936   49.4261 H   0  0  0  0  0  0  0  0  0  0  0  0
   64.9106   34.2421   49.7515 H   0  0  0  0  0  0  0  0  0  0  0  0
   67.1540   33.9542   51.4557 H   0  0  0  0  0  0  0  0  0  0  0  0
   65.5113   34.6569   51.8504 H   0  0  0  0  0  0  0  0  0  0  0  0
   67.2355   31.5943   51.4971 H   0  0  0  0  0  0  0  0  0  0  0  0
   66.2869   30.7643   52.7756 H   0  0  0  0  0  0  0  0  0  0  0  0
   65.7062   30.3028   50.2459 H   0  0  0  0  0  0  0  0  0  0  0  0
   64.3668   30.5872   51.4187 H   0  0  0  0  0  0  0  0  0  0  0  0
   62.5666   30.6858   50.5722 H   0  0  0  0  0  0  0  0  0  0  0  0
   60.5919   30.4543   49.0719 H   0  0  0  0  0  0  0  0  0  0  0  0
  1  2  1  0
  2  3  2  0
  3  4  1  0
  3  5  1  0
  5  6  1  0
  6  7  1  0
  7  8  2  0
  6  9  2  0
  9 10  1  0
 10 11  2  0
 10 12  1  0
 12 13  1  0
 13 14  2  0
 14 15  1  0
 15 16  2  0
 16 17  1  0
 17 18  1  0
 18 19  1  0
 19 20  1  0
 20 21  1  0
 21 22  1  0
 16 23  1  0
 23 24  2  0
  9  2  1  0
 24 13  1  0
 22 17  1  0
  1 25  1  0
  1 26  1  0
  1 27  1  0
  7 28  1  0
 12 29  1  0
 14 30  1  0
 15 31  1  0
 18 32  1  0
 18 33  1  0
 19 34  1  0
 19 35  1  0
 21 36  1  0
 21 37  1  0
 22 38  1  0
 22 39  1  0
 23 40  1  0
 24 41  1  0
M  CHG  2   4  -1   5  -1
M  END
>  <UniqueID>  (16) 
14

>  <SMILES>  (16) 
Cc1c([O-])[n-]c(C=O)c1C(=O)Nc1ccc(N2CCOCC2)cc1

>  <Energy>  (16) 
85.93750880266772

>  <Genealogy>  (16) 
Cc1c([O-])[n-]c(C=O)c1C(=O)Nc1ccc(N2CCOCC2)cc1 (protonated)
Cc1c([O-])[n-]c(C=O)c1C(=O)Nc1ccc(N2CCOCC2)cc1 (3D coordinates assigned)
Cc1c([O-])[n-]c(C=O)c1C(=O)Nc1ccc(N2CCOCC2)cc1 (nonaromatic ring conformer: 85.93750880266772 kcal/mol)

>  <smiles>  (16) 
Cc1c(O)[nH]c(C=O)c1C(=O)Nc1ccc(N2CCOCC2)cc1

>  <score_type>  (16) 
oracle

>  <origin>  (16) 
adg

>  <m_score__min__energy>  (16) 
-11.720000000000001

>  <m_primary>  (16) 
energy

$$$$
16:0
     RDKit          3D

 82 86  0  0  1  0  0  0  0  0999 V2000
   57.6180   25.5010   47.0590 C   0  0  0  0  0  0  0  0  0  0  0  0
   58.7540   26.3120   47.2120 O   0  0  0  0  0  0  0  0  0  0  0  0
   58.7330   27.6100   46.7260 C   0  0  0  0  0  0  0  0  0  0  0  0
   57.7390   28.0090   45.8270 C   0  0  0  0  0  0  0  0  0  0  0  0
   57.7270   29.3030   45.3480 C   0  0  0  0  0  0  0  0  0  0  0  0
   56.4600   29.7770   44.2120 S   0  0  0  0  0  0  0  0  0  0  0  0
   56.6570   29.0560   42.6750 N   0  0  0  0  0  0  0  0  0  0  0  0
   55.1470   29.3800   44.8480 O   0  0  0  0  0  0  0  0  0  0  0  0
   56.5370   31.2730   44.0440 O   0  0  0  0  0  0  0  0  0  0  0  0
   58.6990   30.2170   45.7520 C   0  0  0  0  0  0  0  0  0  0  0  0
   59.6930   29.8300   46.6460 C   0  0  0  0  0  0  0  0  0  0  0  0
   59.7010   28.5370   47.1220 C   0  0  0  0  0  0  0  0  0  0  0  0
   61.5620   26.4650   52.2830 N   0  0  0  0  0  0  0  0  0  0  0  0
   60.9290   27.3040   51.5160 C   0  0  0  0  0  0  0  0  0  0  0  0
   59.6510   29.0130   49.8500 C   0  0  0  0  0  0  0  0  0  0  0  0
   59.4580   29.0640   51.2340 C   0  0  0  0  0  0  0  0  0  0  0  0
   58.5240   30.1240   51.7110 C   0  0  0  0  0  0  0  0  0  0  0  0
   59.0680   31.0440   52.6330 N   0  0  0  0  0  0  0  0  0  0  0  0
   58.2470   32.0390   53.1900 C   0  0  0  0  0  0  0  0  0  0  0  0
   58.6390   33.4590   52.8410 C   0  0  0  0  0  0  0  0  0  0  0  0
   58.9490   33.6240   51.3730 C   0  0  0  0  0  0  0  0  0  0  0  0
   60.2850   33.2910   51.0360 N   0  0  0  0  0  0  0  0  0  0  0  0
   60.8510   34.2000   50.1160 C   0  0  0  0  0  0  0  0  0  0  0  0
   61.7590   33.6530   49.0900 C   0  0  0  0  0  0  0  0  0  0  0  0
   63.0760   33.2940   49.4040 C   0  0  0  0  0  0  0  0  0  0  0  0
   63.9470   32.8080   48.4510 C   0  0  0  0  0  0  0  0  0  0  0  0
   63.5710   32.6480   47.1370 C   0  0  0  0  0  0  0  0  0  0  0  0
   62.2800   32.9950   46.8080 C   0  0  0  0  0  0  0  0  0  0  0  0
   61.4060   33.4820   47.7630 C   0  0  0  0  0  0  0  0  0  0  0  0
   59.7710   33.8340   47.1950 Cl  0  0  0  0  0  0  0  0  0  0  0  0
   60.6350   31.9300   50.9720 C   0  0  0  0  0  0  0  0  0  0  0  0
   60.4280   31.3510   52.3750 C   0  0  0  0  0  0  0  0  0  0  0  0
   60.0900   28.2150   52.0670 N   0  0  0  0  0  0  0  0  0  0  0  0
   60.5160   28.0710   49.3110 C   0  0  0  0  0  0  0  0  0  0  0  0
   60.6710   28.0410   48.0370 N   0  0  0  0  0  0  0  0  0  0  0  0
   62.6270   26.9000   53.1600 C   0  0  0  0  0  0  0  0  0  0  0  0
   63.8960   26.9780   52.3540 C   0  0  0  0  0  0  0  0  0  0  0  0
   64.2930   28.3620   52.0000 C   0  0  0  0  0  0  0  0  0  0  0  0
   63.3340   29.3030   51.7110 C   0  0  0  0  0  0  0  0  0  0  0  0
   63.7040   30.5900   51.3800 C   0  0  0  0  0  0  0  0  0  0  0  0
   65.0520   30.9400   51.3400 C   0  0  0  0  0  0  0  0  0  0  0  0
   66.0240   30.0080   51.6260 C   0  0  0  0  0  0  0  0  0  0  0  0
   65.6460   28.7230   51.9560 C   0  0  0  0  0  0  0  0  0  0  0  0
   61.1290   27.2420   50.1710 N   0  0  0  0  0  0  0  0  0  0  0  0
   57.2294   25.2236   48.0500 H   0  0  0  0  0  0  0  0  0  0  0  0
   56.8455   26.0530   46.5036 H   0  0  0  0  0  0  0  0  0  0  0  0
   57.8892   24.5911   46.5036 H   0  0  0  0  0  0  0  0  0  0  0  0
   56.9690   27.2935   45.5027 H   0  0  0  0  0  0  0  0  0  0  0  0
   57.5710   29.3810   42.2430 H   0  0  0  0  0  0  0  0  0  0  0  0
   56.6480   28.0140   42.6940 H   0  0  0  0  0  0  0  0  0  0  0  0
   58.6803   31.2459   45.3635 H   0  0  0  0  0  0  0  0  0  0  0  0
   60.4623   30.5471   46.9684 H   0  0  0  0  0  0  0  0  0  0  0  0
   59.1198   29.7161   49.1916 H   0  0  0  0  0  0  0  0  0  0  0  0
   58.1764   30.6891   50.8336 H   0  0  0  0  0  0  0  0  0  0  0  0
   57.7201   29.5987   52.2475 H   0  0  0  0  0  0  0  0  0  0  0  0
   57.2192   31.8715   52.8357 H   0  0  0  0  0  0  0  0  0  0  0  0
   58.3518   31.9497   54.2813 H   0  0  0  0  0  0  0  0  0  0  0  0
   57.8083   34.1301   53.1046 H   0  0  0  0  0  0  0  0  0  0  0  0
   59.5497   33.7051   53.4067 H   0  0  0  0  0  0  0  0  0  0  0  0
   58.2727   32.9734   50.7991 H   0  0  0  0  0  0  0  0  0  0  0  0
   58.8099   34.6879   51.1307 H   0  0  0  0  0  0  0  0  0  0  0  0
   60.0218   34.6970   49.5912 H   0  0  0  0  0  0  0  0  0  0  0  0
   61.4837   34.8604   50.7272 H   0  0  0  0  0  0  0  0  0  0  0  0
   63.4261   33.4028   50.4411 H   0  0  0  0  0  0  0  0  0  0  0  0
   64.9713   32.5407   48.7500 H   0  0  0  0  0  0  0  0  0  0  0  0
   64.2712   32.2599   46.3826 H   0  0  0  0  0  0  0  0  0  0  0  0
   61.9379   32.8831   45.7685 H   0  0  0  0  0  0  0  0  0  0  0  0
   59.9918   31.4076   50.2485 H   0  0  0  0  0  0  0  0  0  0  0  0
   61.6780   31.8066   50.6450 H   0  0  0  0  0  0  0  0  0  0  0  0
   61.0229   30.4306   52.4696 H   0  0  0  0  0  0  0  0  0  0  0  0
   60.7466   32.1107   53.1040 H   0  0  0  0  0  0  0  0  0  0  0  0
   59.9240   28.2810   53.0980 H   0  0  0  0  0  0  0  0  0  0  0  0
   62.3873   27.8904   53.5744 H   0  0  0  0  0  0  0  0  0  0  0  0
   62.7479   26.1911   53.9924 H   0  0  0  0  0  0  0  0  0  0  0  0
   64.7081   26.5229   52.9399 H   0  0  0  0  0  0  0  0  0  0  0  0
   63.7104   26.4453   51.4097 H   0  0  0  0  0  0  0  0  0  0  0  0
   62.2691   29.0293   51.7437 H   0  0  0  0  0  0  0  0  0  0  0  0
   62.9342   31.3405   51.1475 H   0  0  0  0  0  0  0  0  0  0  0  0
   65.3417   31.9683   51.0780 H   0  0  0  0  0  0  0  0  0  0  0  0
   67.0882   30.2843   51.5918 H   0  0  0  0  0  0  0  0  0  0  0  0
   66.4163   27.9726   52.1874 H   0  0  0  0  0  0  0  0  0  0  0  0
   61.7880   26.5220   49.7590 H   0  0  0  0  0  0  0  0  0  0  0  0
  1  2  1  0
  2  3  1  0
  3  4  2  0
  4  5  1  0
  5  6  1  0
  6  7  1  0
  6  8  2  0
  6  9  2  0
  5 10  2  0
 10 11  1  0
 11 12  2  0
 12 13  1  0
 13 14  2  0
 14 15  1  0
 15 16  2  0
 16 17  1  0
 17 18  1  0
 18 19  1  0
 19 20  1  0
 20 21  1  0
 21 22  1  0
 22 23  1  0
 23 24  1  0
 24 25  2  0
 25 26  1  0
 26 27  2  0
 27 28  1  0
 28 29  2  0
 29 30  1  0
 22 31  1  0
 31 32  1  0
 16 33  1  0
 33 34  1  0
 34 35  2  0
 35 36  1  0
 36 37  1  0
 37 38  1  0
 38 39  2  0
 39 40  1  0
 40 41  2  0
 41 42  1  0
 42 43  2  0
 34 44  1  0
 12  3  1  0
 44 14  1  0
 32 18  1  0
 43 38  1  0
 29 24  1  0
  1 45  1  0
  1 46  1  0
  1 47  1  0
  4 48  1  0
  7 49  1  0
  7 50  1  0
 10 51  1  0
 11 52  1  0
 15 53  1  0
 17 54  1  0
 17 55  1  0
 19 56  1  0
 19 57  1  0
 20 58  1  0
 20 59  1  0
 21 60  1  0
 21 61  1  0
 23 62  1  0
 23 63  1  0
 25 64  1  0
 26 65  1  0
 27 66  1  0
 28 67  1  0
 31 68  1  0
 31 69  1  0
 32 70  1  0
 32 71  1  0
 33 72  1  0
 36 73  1  0
 36 74  1  0
 37 75  1  0
 37 76  1  0
 39 77  1  0
 40 78  1  0
 41 79  1  0
 42 80  1  0
 43 81  1  0
 44 82  1  0
M  END
>  <smiles>  (17) 
COc1cc(S(N)(=O)=O)ccc1N=c1cc(CN2CCCN(Cc3ccccc3Cl)CC2)[nH]c(=NCCc2ccccc2)[nH]1

>  <score_type>  (17) 
oracle

>  <origin>  (17) 
adg

>  <m_score__min__energy>  (17) 
-10.369999999999999

>  <m_primary>  (17) 
energy

$$$$
17:0
     RDKit          3D

 53 55  0  0  0  0  0  0  0  0999 V2000
   61.5640   33.8540   50.1510 C   0  0  0  0  0  0  0  0  0  0  0  0
   60.1570   33.2790   50.2040 C   0  0  0  0  0  0  0  0  0  0  0  0
   59.3060   34.1650   50.9250 O   0  0  0  0  0  0  0  0  0  0  0  0
   58.7730   33.8440   52.1780 C   0  0  0  0  0  0  0  0  0  0  0  0
   57.5380   33.9620   52.4000 O   0  0  0  0  0  0  0  0  0  0  0  0
   59.6590   33.3690   53.2420 C   0  0  0  0  0  0  0  0  0  0  0  0
   59.6610   33.9530   54.3600 O   0  0  0  0  0  0  0  0  0  0  0  0
   60.4920   32.2690   53.0100 O   0  0  0  0  0  0  0  0  0  0  0  0
   60.4040   31.0640   53.7630 C   0  0  0  0  0  0  0  0  0  0  0  0
   59.6490   30.1010   53.0390 O   0  0  0  0  0  0  0  0  0  0  0  0
   59.7050   30.0360   51.6480 C   0  0  0  0  0  0  0  0  0  0  0  0
   60.9450   30.0610   51.0050 C   0  0  0  0  0  0  0  0  0  0  0  0
   61.0200   29.9910   49.6140 C   0  0  0  0  0  0  0  0  0  0  0  0
   59.8500   29.8850   48.8410 C   0  0  0  0  0  0  0  0  0  0  0  0
   59.9160   29.8060   47.3570 C   0  0  0  0  0  0  0  0  0  0  0  0
   60.6930   28.9790   46.8090 O   0  0  0  0  0  0  0  0  0  0  0  0
   59.0600   30.6460   46.4880 C   0  0  0  0  0  0  0  0  0  0  0  0
   58.0420   30.0110   45.7600 C   0  0  0  0  0  0  0  0  0  0  0  0
   57.1710   30.7440   44.9400 C   0  0  0  0  0  0  0  0  0  0  0  0
   56.0950   30.0540   44.1930 C   0  0  0  0  0  0  0  0  0  0  0  0
   56.0260   30.1430   42.9380 O   0  0  0  0  0  0  0  0  0  0  0  0
   55.1420   29.2980   44.8670 O   0  0  0  0  0  0  0  0  0  0  0  0
   57.3280   32.1350   44.8450 C   0  0  0  0  0  0  0  0  0  0  0  0
   58.3520   32.7900   45.5440 C   0  0  0  0  0  0  0  0  0  0  0  0
   58.5080   34.1790   45.4180 C   0  0  0  0  0  0  0  0  0  0  0  0
   59.5420   34.8380   46.0860 C   0  0  0  0  0  0  0  0  0  0  0  0
   59.6830   36.2180   45.9460 O   0  0  0  0  0  0  0  0  0  0  0  0
   60.4310   34.1110   46.8840 C   0  0  0  0  0  0  0  0  0  0  0  0
   60.2850   32.7280   47.0220 C   0  0  0  0  0  0  0  0  0  0  0  0
   59.2380   32.0480   46.3670 C   0  0  0  0  0  0  0  0  0  0  0  0
   58.6030   29.8650   49.4940 C   0  0  0  0  0  0  0  0  0  0  0  0
   58.5240   29.9400   50.9000 C   0  0  0  0  0  0  0  0  0  0  0  0
   57.2990   29.9210   51.5840 O   0  0  0  0  0  0  0  0  0  0  0  0
   56.6830   31.0640   52.1690 C   0  0  0  0  0  0  0  0  0  0  0  0
   61.9367   34.0063   51.1747 H   0  0  0  0  0  0  0  0  0  0  0  0
   62.2263   33.1544   49.6200 H   0  0  0  0  0  0  0  0  0  0  0  0
   61.5467   34.8172   49.6200 H   0  0  0  0  0  0  0  0  0  0  0  0
   59.7734   33.1547   49.1806 H   0  0  0  0  0  0  0  0  0  0  0  0
   60.1801   32.3023   50.7095 H   0  0  0  0  0  0  0  0  0  0  0  0
   61.4156   30.6728   53.9467 H   0  0  0  0  0  0  0  0  0  0  0  0
   59.9077   31.2695   54.7229 H   0  0  0  0  0  0  0  0  0  0  0  0
   61.8676   30.1363   51.5992 H   0  0  0  0  0  0  0  0  0  0  0  0
   62.0014   30.0189   49.1180 H   0  0  0  0  0  0  0  0  0  0  0  0
   57.9250   28.9197   45.8336 H   0  0  0  0  0  0  0  0  0  0  0  0
   56.6401   32.7182   44.2152 H   0  0  0  0  0  0  0  0  0  0  0  0
   57.8112   34.7523   44.7889 H   0  0  0  0  0  0  0  0  0  0  0  0
   59.5490   36.8450   46.7320 H   0  0  0  0  0  0  0  0  0  0  0  0
   61.2488   34.6300   47.4054 H   0  0  0  0  0  0  0  0  0  0  0  0
   60.9934   32.1649   47.6473 H   0  0  0  0  0  0  0  0  0  0  0  0
   57.6797   29.7900   48.9008 H   0  0  0  0  0  0  0  0  0  0  0  0
   56.7265   30.9833   53.2652 H   0  0  0  0  0  0  0  0  0  0  0  0
   57.2140   31.9719   51.8468 H   0  0  0  0  0  0  0  0  0  0  0  0
   55.6327   31.1197   51.8468 H   0  0  0  0  0  0  0  0  0  0  0  0
  1  2  1  0
  2  3  1  0
  3  4  1  0
  4  5  2  0
  4  6  1  0
  6  7  2  0
  6  8  1  0
  8  9  1  0
  9 10  1  0
 10 11  1  0
 11 12  2  0
 12 13  1  0
 13 14  2  0
 14 15  1  0
 15 16  2  0
 15 17  1  0
 17 18  2  0
 18 19  1  0
 19 20  1  0
 20 21  2  0
 20 22  1  0
 19 23  2  0
 23 24  1  0
 24 25  2  0
 25 26  1  0
 26 27  1  0
 26 28  2  0
 28 29  1  0
 29 30  2  0
 14 31  1  0
 31 32  2  0
 32 33  1  0
 33 34  1  0
 32 11  1  0
 30 17  1  0
 30 24  1  0
  1 35  1  0
  1 36  1  0
  1 37  1  0
  2 38  1  0
  2 39  1  0
  9 40  1  0
  9 41  1  0
 12 42  1  0
 13 43  1  0
 18 44  1  0
 23 45  1  0
 25 46  1  0
 27 47  1  0
 28 48  1  0
 29 49  1  0
 31 50  1  0
 34 51  1  0
 34 52  1  0
 34 53  1  0
M  CHG  1  22  -1
M  END
>  <UniqueID>  (18) 
15

>  <SMILES>  (18) 
CCOC(=O)C(=O)OCOc1ccc(C(=O)c2cc(C(=O)[O-])cc3cc(O)ccc23)cc1OC

>  <Energy>  (18) 
66.17074319946082

>  <Genealogy>  (18) 
CCOC(=O)C(=O)OCOc1ccc(C(=O)c2cc(C(=O)[O-])cc3cc(O)ccc23)cc1OC (protonated)
CCOC(=O)C(=O)OCOc1ccc(C(=O)c2cc(C(=O)[O-])cc3cc(O)ccc23)cc1OC (3D coordinates assigned)
CCOC(=O)C(=O)OCOc1ccc(C(=O)c2cc(C(=O)[O-])cc3cc(O)ccc23)cc1OC (optimized conformer: 66.17074319946082 kcal/mol)

>  <smiles>  (18) 
CCOC(=O)C(=O)OCOc1ccc(C(=O)c2cc(C(=O)O)cc3cc(O)ccc23)cc1OC

>  <score_type>  (18) 
oracle

>  <origin>  (18) 
adg

>  <m_score__min__energy>  (18) 
-9.5700000000000003

>  <m_primary>  (18) 
energy

$$$$
18:0
     RDKit          3D

 42 44  0  0  0  0  0  0  0  0999 V2000
   57.4130   26.1830   46.0040 O   0  0  0  0  0  0  0  0  0  0  0  0
   56.5320   27.0620   45.8070 C   0  0  0  0  0  0  0  0  0  0  0  0
   55.1980   26.7130   45.9790 O   0  0  0  0  0  0  0  0  0  0  0  0
   56.9260   28.4230   45.3530 C   0  0  0  0  0  0  0  0  0  0  0  0
   56.0230   29.1400   44.5440 C   0  0  0  0  0  0  0  0  0  0  0  0
   56.3250   30.4260   44.0970 C   0  0  0  0  0  0  0  0  0  0  0  0
   57.5330   31.0210   44.4500 C   0  0  0  0  0  0  0  0  0  0  0  0
   58.4490   30.3290   45.2410 C   0  0  0  0  0  0  0  0  0  0  0  0
   58.1710   29.0270   45.6950 C   0  0  0  0  0  0  0  0  0  0  0  0
   59.2500   28.2930   46.4600 C   0  0  0  0  0  0  0  0  0  0  0  0
   59.3410   28.7970   47.7920 O   0  0  0  0  0  0  0  0  0  0  0  0
   60.3560   29.6530   48.2480 C   0  0  0  0  0  0  0  0  0  0  0  0
   60.8200   29.6420   49.5740 C   0  0  0  0  0  0  0  0  0  0  0  0
   61.7970   30.5030   49.9650 N   0  0  0  0  0  0  0  0  0  0  0  0
   62.3340   31.4150   49.1080 C   0  0  0  0  0  0  0  0  0  0  0  0
   63.6270   32.4630   49.6750 Cl  0  0  0  0  0  0  0  0  0  0  0  0
   61.8770   31.4790   47.7820 C   0  0  0  0  0  0  0  0  0  0  0  0
   62.3340   32.4520   46.8870 O   0  0  0  0  0  0  0  0  0  0  0  0
   61.8330   33.7890   46.8940 C   0  0  0  0  0  0  0  0  0  0  0  0
   60.3680   33.8080   46.5440 C   0  0  0  0  0  0  0  0  0  0  0  0
   59.9610   34.1780   45.2490 C   0  0  0  0  0  0  0  0  0  0  0  0
   58.6030   34.2510   44.9300 C   0  0  0  0  0  0  0  0  0  0  0  0
   57.6390   33.9620   45.9000 C   0  0  0  0  0  0  0  0  0  0  0  0
   56.3220   34.0270   45.5870 F   0  0  0  0  0  0  0  0  0  0  0  0
   58.0340   33.6160   47.1950 C   0  0  0  0  0  0  0  0  0  0  0  0
   59.3920   33.5460   47.5220 C   0  0  0  0  0  0  0  0  0  0  0  0
   59.7550   33.2280   48.7900 F   0  0  0  0  0  0  0  0  0  0  0  0
   60.9150   30.5630   47.3510 C   0  0  0  0  0  0  0  0  0  0  0  0
   55.0654   28.6788   44.2606 H   0  0  0  0  0  0  0  0  0  0  0  0
   55.6081   30.9706   43.4650 H   0  0  0  0  0  0  0  0  0  0  0  0
   57.7652   32.0391   44.1042 H   0  0  0  0  0  0  0  0  0  0  0  0
   59.4013   30.8073   45.5136 H   0  0  0  0  0  0  0  0  0  0  0  0
   59.0062   27.2209   46.4933 H   0  0  0  0  0  0  0  0  0  0  0  0
   60.2145   28.4438   45.9530 H   0  0  0  0  0  0  0  0  0  0  0  0
   60.3913   28.9341   50.2987 H   0  0  0  0  0  0  0  0  0  0  0  0
   62.1410   30.4600   50.9510 H   0  0  0  0  0  0  0  0  0  0  0  0
   61.9710   34.2215   47.8959 H   0  0  0  0  0  0  0  0  0  0  0  0
   62.3840   34.3781   46.1461 H   0  0  0  0  0  0  0  0  0  0  0  0
   60.7161   34.4110   44.4838 H   0  0  0  0  0  0  0  0  0  0  0  0
   58.2919   34.5363   43.9142 H   0  0  0  0  0  0  0  0  0  0  0  0
   57.2742   33.3979   47.9599 H   0  0  0  0  0  0  0  0  0  0  0  0
   60.5964   30.5592   46.2982 H   0  0  0  0  0  0  0  0  0  0  0  0
  1  2  2  0
  2  3  1  0
  2  4  1  0
  4  5  2  0
  5  6  1  0
  6  7  2  0
  7  8  1  0
  8  9  2  0
  9 10  1  0
 10 11  1  0
 11 12  1  0
 12 13  2  0
 13 14  1  0
 14 15  2  0
 15 16  1  0
 15 17  1  0
 17 18  1  0
 18 19  1  0
 19 20  1  0
 20 21  2  0
 21 22  1  0
 22 23  2  0
 23 24  1  0
 23 25  1  0
 25 26  2  0
 26 27  1  0
 17 28  2  0
  9  4  1  0
 28 12  1  0
 26 20  1  0
  5 29  1  0
  6 30  1  0
  7 31  1  0
  8 32  1  0
 10 33  1  0
 10 34  1  0
 13 35  1  0
 14 36  1  0
 19 37  1  0
 19 38  1  0
 21 39  1  0
 22 40  1  0
 25 41  1  0
 28 42  1  0
M  CHG  2   3  -1  14   1
M  END
>  <UniqueID>  (19) 
16

>  <SMILES>  (19) 
O=C([O-])c1ccccc1COc1c[nH+]c(Cl)c(OCc2ccc(F)cc2F)c1

>  <Energy>  (19) 
54.36918603168424

>  <Genealogy>  (19) 
O=C([O-])c1ccccc1COc1c[nH+]c(Cl)c(OCc2ccc(F)cc2F)c1 (protonated)
O=C([O-])c1ccccc1COc1c[nH+]c(Cl)c(OCc2ccc(F)cc2F)c1 (3D coordinates assigned)
O=C([O-])c1ccccc1COc1c[nH+]c(Cl)c(OCc2ccc(F)cc2F)c1 (optimized conformer: 54.36918603168424 kcal/mol)

>  <smiles>  (19) 
O=C(O)c1ccccc1COc1cnc(Cl)c(OCc2ccc(F)cc2F)c1

>  <score_type>  (19) 
oracle

>  <origin>  (19) 
adg

>  <m_score__min__energy>  (19) 
-9.7599999999999998

>  <m_primary>  (19) 
energy

$$$$
19:0
     RDKit          3D

 61 63  0  0  0  0  0  0  0  0999 V2000
   62.8190   34.0980   49.1460 C   0  0  0  0  0  0  0  0  0  0  0  0
   63.3340   32.9180   48.4280 N   0  0  0  0  0  0  0  0  0  0  0  0
   62.2570   32.2090   47.6870 C   0  0  0  0  0  0  0  0  0  0  0  0
   61.8290   30.8720   48.3260 C   0  0  0  0  0  0  0  0  0  0  0  0
   61.9450   30.9450   49.7860 N   0  0  0  0  0  0  0  0  0  0  0  0
   60.9030   30.4630   50.6560 C   0  0  0  0  0  0  0  0  0  0  0  0
   61.1680   29.5210   51.6610 C   0  0  0  0  0  0  0  0  0  0  0  0
   60.1250   29.0590   52.4620 C   0  0  0  0  0  0  0  0  0  0  0  0
   58.8150   29.5130   52.2520 C   0  0  0  0  0  0  0  0  0  0  0  0
   57.7220   28.9950   53.1030 C   0  0  0  0  0  0  0  0  0  0  0  0
   57.9990   28.5400   54.2470 O   0  0  0  0  0  0  0  0  0  0  0  0
   56.3690   28.9500   52.6200 N   0  0  0  0  0  0  0  0  0  0  0  0
   55.2850   28.3050   53.3670 C   0  0  0  0  0  0  0  0  0  0  0  0
   54.5270   29.3090   54.2670 C   0  0  1  0  0  0  0  0  0  0  0  0
   55.3970   30.0950   55.0450 O   0  0  0  0  0  0  0  0  0  0  0  0
   53.5550   30.1670   53.4780 C   0  0  0  0  0  0  0  0  0  0  0  0
   53.8350   30.4720   52.1330 C   0  0  0  0  0  0  0  0  0  0  0  0
   52.9880   31.3120   51.4040 C   0  0  0  0  0  0  0  0  0  0  0  0
   51.8590   31.8700   52.0140 C   0  0  0  0  0  0  0  0  0  0  0  0
   51.0200   32.7080   51.2880 O   0  0  0  0  0  0  0  0  0  0  0  0
   51.5770   31.5860   53.3520 C   0  0  0  0  0  0  0  0  0  0  0  0
   52.4190   30.7420   54.0840 C   0  0  0  0  0  0  0  0  0  0  0  0
   58.5840   30.4560   51.2330 C   0  0  0  0  0  0  0  0  0  0  0  0
   57.2970   30.9640   51.0180 O   0  0  0  0  0  0  0  0  0  0  0  0
   56.6620   31.9120   51.8750 C   0  0  0  0  0  0  0  0  0  0  0  0
   57.6780   32.8610   52.5310 C   0  0  0  0  0  0  0  0  0  0  0  0
   58.3520   32.2730   53.7770 C   0  0  0  0  0  0  0  0  0  0  0  0
   57.3700   31.6670   54.6700 N   0  0  0  0  0  0  0  0  0  0  0  0
   59.6260   30.8910   50.4700 N   0  0  0  0  0  0  0  0  0  0  0  0
   63.2300   31.3480   50.3670 C   0  0  0  0  0  0  0  0  0  0  0  0
   64.1180   32.0350   49.3160 C   0  0  0  0  0  0  0  0  0  0  0  0
   62.8930   33.9285   50.2304 H   0  0  0  0  0  0  0  0  0  0  0  0
   63.4130   34.9822   48.8717 H   0  0  0  0  0  0  0  0  0  0  0  0
   61.7667   34.2637   48.8717 H   0  0  0  0  0  0  0  0  0  0  0  0
   61.3772   32.8677   47.6418 H   0  0  0  0  0  0  0  0  0  0  0  0
   62.6603   31.9706   46.6917 H   0  0  0  0  0  0  0  0  0  0  0  0
   60.7844   30.6585   48.0553 H   0  0  0  0  0  0  0  0  0  0  0  0
   62.4859   30.0717   47.9546 H   0  0  0  0  0  0  0  0  0  0  0  0
   62.1917   29.1495   51.8159 H   0  0  0  0  0  0  0  0  0  0  0  0
   60.3307   28.3341   53.2634 H   0  0  0  0  0  0  0  0  0  0  0  0
   56.1750   29.2240   51.6340 H   0  0  0  0  0  0  0  0  0  0  0  0
   54.5755   27.8620   52.6526 H   0  0  0  0  0  0  0  0  0  0  0  0
   55.7290   27.5347   54.0147 H   0  0  0  0  0  0  0  0  0  0  0  0
   53.9309   28.7041   54.9661 H   0  0  0  0  0  0  0  0  0  0  0  0
   56.3270   29.7860   54.8950 H   0  0  0  0  0  0  0  0  0  0  0  0
   54.7275   30.0460   51.6514 H   0  0  0  0  0  0  0  0  0  0  0  0
   53.2093   31.5345   50.3497 H   0  0  0  0  0  0  0  0  0  0  0  0
   50.6907   32.0270   53.8315 H   0  0  0  0  0  0  0  0  0  0  0  0
   52.1935   30.5256   55.1387 H   0  0  0  0  0  0  0  0  0  0  0  0
   55.9507   32.5065   51.2828 H   0  0  0  0  0  0  0  0  0  0  0  0
   56.1468   31.3585   52.6739 H   0  0  0  0  0  0  0  0  0  0  0  0
   58.4583   33.0989   51.7931 H   0  0  0  0  0  0  0  0  0  0  0  0
   57.1229   33.7535   52.8555 H   0  0  0  0  0  0  0  0  0  0  0  0
   59.0757   31.5055   53.4653 H   0  0  0  0  0  0  0  0  0  0  0  0
   58.8588   33.0867   54.3164 H   0  0  0  0  0  0  0  0  0  0  0  0
   57.5050   30.6300   54.6530 H   0  0  0  0  0  0  0  0  0  0  0  0
   56.4210   31.8370   54.2650 H   0  0  0  0  0  0  0  0  0  0  0  0
   63.0466   32.0475   51.1958 H   0  0  0  0  0  0  0  0  0  0  0  0
   63.7483   30.4483   50.7301 H   0  0  0  0  0  0  0  0  0  0  0  0
   64.8809   32.6360   49.8325 H   0  0  0  0  0  0  0  0  0  0  0  0
   64.5827   31.2532   48.6973 H   0  0  0  0  0  0  0  0  0  0  0  0
  1  2  1  0
  2  3  1  0
  3  4  1  0
  4  5  1  0
  5  6  1  0
  6  7  2  0
  7  8  1  0
  8  9  2  0
  9 10  1  0
 10 11  2  0
 10 12  1  0
 12 13  1  0
 13 14  1  0
 14 15  1  0
 14 16  1  0
 16 17  2  0
 17 18  1  0
 18 19  2  0
 19 20  1  0
 19 21  1  0
 21 22  2  0
  9 23  1  0
 23 24  1  0
 24 25  1  0
 25 26  1  0
 26 27  1  0
 27 28  1  0
 23 29  2  0
  5 30  1  0
 30 31  1  0
 31  2  1  0
 29  6  1  0
 22 16  1  0
  1 32  1  0
  1 33  1  0
  1 34  1  0
  3 35  1  0
  3 36  1  0
  4 37  1  0
  4 38  1  0
  7 39  1  0
  8 40  1  0
 12 41  1  0
 13 42  1  0
 13 43  1  0
 14 44  1  1
 15 45  1  0
 17 46  1  0
 18 47  1  0
 21 48  1  0
 22 49  1  0
 25 50  1  0
 25 51  1  0
 26 52  1  0
 26 53  1  0
 27 54  1  0
 27 55  1  0
 28 56  1  0
 28 57  1  0
 30 58  1  0
 30 59  1  0
 31 60  1  0
 31 61  1  0
M  CHG  1  20  -1
M  END
>  <UniqueID>  (20) 
17

>  <SMILES>  (20) 
CN1CCN(c2ccc(C(=O)NC[C@@H](O)c3ccc([O-])cc3)c(OCCCN)n2)CC1

>  <Energy>  (20) 
68.20743684896267

>  <Genealogy>  (20) 
CN1CCN(c2ccc(C(=O)NCC(O)c3ccc([O-])cc3)c(OCCCN)n2)CC1 (protonated)
CN1CCN(c2ccc(C(=O)NC[C@@H](O)c3ccc([O-])cc3)c(OCCCN)n2)CC1 (chirality)
CN1CCN(c2ccc(C(=O)NC[C@@H](O)c3ccc([O-])cc3)c(OCCCN)n2)CC1 (3D coordinates assigned)
CN1CCN(c2ccc(C(=O)NC[C@@H](O)c3ccc([O-])cc3)c(OCCCN)n2)CC1 (nonaromatic ring conformer: 68.20743684896267 kcal/mol)

>  <smiles>  (20) 
CN1CCN(c2ccc(C(=O)NCC(O)c3ccc(O)cc3)c(OCCCN)n2)CC1

>  <score_type>  (20) 
oracle

>  <origin>  (20) 
adg

>  <m_score__min__energy>  (20) 
-11.18

>  <m_primary>  (20) 
energy

$$$$
20:0
     RDKit          3D

 56 59  0  0  0  0  0  0  0  0999 V2000
   60.8940   30.1990   47.8710 C   0  0  0  0  0  0  0  0  0  0  0  0
   59.9310   29.1720   47.6530 O   0  0  0  0  0  0  0  0  0  0  0  0
   59.2900   28.9300   46.4250 C   0  0  0  0  0  0  0  0  0  0  0  0
   58.4470   29.8870   45.8260 C   0  0  0  0  0  0  0  0  0  0  0  0
   57.8280   29.6200   44.5960 C   0  0  0  0  0  0  0  0  0  0  0  0
   56.7550   30.8220   43.8840 S   0  0  0  0  0  0  0  0  0  0  0  0
   55.3840   30.7530   44.4970 O   0  0  0  0  0  0  0  0  0  0  0  0
   56.6430   30.5560   42.4090 O   0  0  0  0  0  0  0  0  0  0  0  0
   57.4120   32.4060   44.1380 N   0  0  0  0  0  0  0  0  0  0  0  0
   58.1060   32.7990   45.3350 C   0  0  0  0  0  0  0  0  0  0  0  0
   57.3910   32.8690   46.5500 C   0  0  0  0  0  0  0  0  0  0  0  0
   58.0280   33.2440   47.7450 C   0  0  0  0  0  0  0  0  0  0  0  0
   59.3940   33.5580   47.7210 C   0  0  0  0  0  0  0  0  0  0  0  0
   60.0910   33.4760   46.5210 C   0  0  0  0  0  0  0  0  0  0  0  0
   59.4850   33.0990   45.3280 C   0  0  0  0  0  0  0  0  0  0  0  0
   61.7020   33.8830   46.7680 S   0  0  0  0  0  0  0  0  0  0  0  0
   61.4460   34.1550   48.4150 C   0  0  0  0  0  0  0  0  0  0  0  0
   62.3530   34.5250   49.2080 O   0  0  0  0  0  0  0  0  0  0  0  0
   60.1580   33.9400   48.7930 N   0  0  0  0  0  0  0  0  0  0  0  0
   59.6700   34.1880   50.1590 C   0  0  0  0  0  0  0  0  0  0  0  0
   59.6120   32.8810   50.9610 C   0  0  0  0  0  0  0  0  0  0  0  0
   58.3550   32.1460   50.6990 N   0  0  0  0  0  0  0  0  0  0  0  0
   58.5990   30.7430   50.2790 C   0  0  0  0  0  0  0  0  0  0  0  0
   58.3240   29.7410   51.4150 C   0  0  0  0  0  0  0  0  0  0  0  0
   56.9950   29.7990   51.9150 O   0  0  0  0  0  0  0  0  0  0  0  0
   56.4130   31.0950   51.8430 C   0  0  0  0  0  0  0  0  0  0  0  0
   57.4400   32.2380   51.8600 C   0  0  0  0  0  0  0  0  0  0  0  0
   58.0500   28.3960   43.9560 C   0  0  0  0  0  0  0  0  0  0  0  0
   58.8820   27.4410   44.5420 C   0  0  0  0  0  0  0  0  0  0  0  0
   59.5010   27.6950   45.7790 C   0  0  0  0  0  0  0  0  0  0  0  0
   60.4120   26.6670   46.3920 C   0  0  0  0  0  0  0  0  0  0  0  0
   61.0333   30.3476   48.9520 H   0  0  0  0  0  0  0  0  0  0  0  0
   61.8513   29.9069   47.4147 H   0  0  0  0  0  0  0  0  0  0  0  0
   60.5410   31.1355   47.4147 H   0  0  0  0  0  0  0  0  0  0  0  0
   58.2730   30.8508   46.3268 H   0  0  0  0  0  0  0  0  0  0  0  0
   57.3720   33.0710   43.3330 H   0  0  0  0  0  0  0  0  0  0  0  0
   56.3182   32.6262   46.5615 H   0  0  0  0  0  0  0  0  0  0  0  0
   57.4621   33.2906   48.6871 H   0  0  0  0  0  0  0  0  0  0  0  0
   60.0684   33.0358   44.3976 H   0  0  0  0  0  0  0  0  0  0  0  0
   60.3497   34.8908   50.6630 H   0  0  0  0  0  0  0  0  0  0  0  0
   58.6566   34.6118   50.1005 H   0  0  0  0  0  0  0  0  0  0  0  0
   60.4643   32.2469   50.6753 H   0  0  0  0  0  0  0  0  0  0  0  0
   59.6533   33.1282   52.0321 H   0  0  0  0  0  0  0  0  0  0  0  0
   57.9395   30.5071   49.4309 H   0  0  0  0  0  0  0  0  0  0  0  0
   59.6588   30.6535   49.9982 H   0  0  0  0  0  0  0  0  0  0  0  0
   58.5087   28.7253   51.0352 H   0  0  0  0  0  0  0  0  0  0  0  0
   58.9936   30.0046   52.2470 H   0  0  0  0  0  0  0  0  0  0  0  0
   55.8333   31.1635   50.9107 H   0  0  0  0  0  0  0  0  0  0  0  0
   55.7857   31.2147   52.7386 H   0  0  0  0  0  0  0  0  0  0  0  0
   56.9081   33.2002   51.8236 H   0  0  0  0  0  0  0  0  0  0  0  0
   58.0347   32.1614   52.7822 H   0  0  0  0  0  0  0  0  0  0  0  0
   57.5682   28.1860   42.9897 H   0  0  0  0  0  0  0  0  0  0  0  0
   59.0550   26.4818   44.0322 H   0  0  0  0  0  0  0  0  0  0  0  0
   60.3538   26.7327   47.4885 H   0  0  0  0  0  0  0  0  0  0  0  0
   60.1020   25.6626   46.0679 H   0  0  0  0  0  0  0  0  0  0  0  0
   61.4464   26.8539   46.0679 H   0  0  0  0  0  0  0  0  0  0  0  0
  1  2  1  0
  2  3  1  0
  3  4  2  0
  4  5  1  0
  5  6  1  0
  6  7  2  0
  6  8  2  0
  6  9  1  0
  9 10  1  0
 10 11  2  0
 11 12  1  0
 12 13  2  0
 13 14  1  0
 14 15  2  0
 14 16  1  0
 16 17  1  0
 17 18  2  0
 17 19  1  0
 19 20  1  0
 20 21  1  0
 21 22  1  0
 22 23  1  0
 23 24  1  0
 24 25  1  0
 25 26  1  0
 26 27  1  0
  5 28  2  0
 28 29  1  0
 29 30  2  0
 30 31  1  0
 30  3  1  0
 15 10  1  0
 27 22  1  0
 19 13  1  0
  1 32  1  0
  1 33  1  0
  1 34  1  0
  4 35  1  0
  9 36  1  0
 11 37  1  0
 12 38  1  0
 15 39  1  0
 20 40  1  0
 20 41  1  0
 21 42  1  0
 21 43  1  0
 23 44  1  0
 23 45  1  0
 24 46  1  0
 24 47  1  0
 26 48  1  0
 26 49  1  0
 27 50  1  0
 27 51  1  0
 28 52  1  0
 29 53  1  0
 31 54  1  0
 31 55  1  0
 31 56  1  0
M  END
>  <UniqueID>  (21) 
18

>  <SMILES>  (21) 
COc1cc(S(=O)(=O)Nc2ccc3c(c2)sc(=O)n3CCN2CCOCC2)ccc1C

>  <Energy>  (21) 
108.53936089469835

>  <Genealogy>  (21) 
COc1cc(S(=O)(=O)Nc2ccc3c(c2)sc(=O)n3CCN2CCOCC2)ccc1C (3D coordinates assigned)
COc1cc(S(=O)(=O)Nc2ccc3c(c2)sc(=O)n3CCN2CCOCC2)ccc1C (nonaromatic ring conformer: 108.53936089469835 kcal/mol)

>  <smiles>  (21) 
COc1cc(S(=O)(=O)Nc2ccc3c(c2)sc(=O)n3CCN2CCOCC2)ccc1C

>  <score_type>  (21) 
oracle

>  <origin>  (21) 
adg

>  <m_score__min__energy>  (21) 
-9.2799999999999994

>  <m_primary>  (21) 
energy

$$$$
21:0
     RDKit          3D

 43 44  0  0  0  0  0  0  0  0999 V2000
   60.0560   34.9340   47.3980 C   0  0  0  0  0  0  0  0  0  0  0  0
   59.4810   34.9260   46.0960 O   0  0  0  0  0  0  0  0  0  0  0  0
   58.7700   33.8660   45.5030 C   0  0  0  0  0  0  0  0  0  0  0  0
   58.7880   33.8020   44.1050 C   0  0  0  0  0  0  0  0  0  0  0  0
   58.1260   32.7840   43.4220 C   0  0  0  0  0  0  0  0  0  0  0  0
   57.4180   31.8060   44.1300 C   0  0  0  0  0  0  0  0  0  0  0  0
   56.7580   30.6660   43.4010 C   0  0  0  0  0  0  0  0  0  0  0  0
   55.4940   30.1880   44.1240 C   0  0  0  0  0  0  0  0  0  0  0  0
   55.7500   28.9540   44.8660 N   0  0  0  0  0  0  0  0  0  0  0  0
   57.0020   28.5380   45.4290 C   0  0  0  0  0  0  0  0  0  0  0  0
   57.4470   29.1560   46.4330 O   0  0  0  0  0  0  0  0  0  0  0  0
   57.8210   27.4130   44.8470 C   0  0  0  0  0  0  0  0  0  0  0  0
   57.5030   26.0520   45.4400 C   0  0  0  0  0  0  0  0  0  0  0  0
   58.5150   25.0770   45.5720 C   0  0  0  0  0  0  0  0  0  0  0  0
   58.2270   23.8150   46.0950 C   0  0  0  0  0  0  0  0  0  0  0  0
   56.9350   23.5110   46.5160 C   0  0  0  0  0  0  0  0  0  0  0  0
   55.9310   24.4760   46.4400 C   0  0  0  0  0  0  0  0  0  0  0  0
   56.2050   25.7510   45.9320 C   0  0  0  0  0  0  0  0  0  0  0  0
   55.1700   26.6910   45.9500 O   0  0  0  0  0  0  0  0  0  0  0  0
   57.3850   31.8590   45.5310 C   0  0  0  0  0  0  0  0  0  0  0  0
   58.0570   32.8800   46.2340 C   0  0  0  0  0  0  0  0  0  0  0  0
   58.0330   32.9240   47.6370 O   0  0  0  0  0  0  0  0  0  0  0  0
   58.7490   32.0400   48.4940 C   0  0  0  0  0  0  0  0  0  0  0  0
   59.2555   34.9229   48.1524 H   0  0  0  0  0  0  0  0  0  0  0  0
   60.6909   34.0446   47.5239 H   0  0  0  0  0  0  0  0  0  0  0  0
   60.6659   35.8407   47.5239 H   0  0  0  0  0  0  0  0  0  0  0  0
   59.3342   34.5686   43.5357 H   0  0  0  0  0  0  0  0  0  0  0  0
   58.1599   32.7488   42.3231 H   0  0  0  0  0  0  0  0  0  0  0  0
   56.4853   31.0000   42.3890 H   0  0  0  0  0  0  0  0  0  0  0  0
   57.4684   29.8271   43.3607 H   0  0  0  0  0  0  0  0  0  0  0  0
   55.1643   30.9681   44.8260 H   0  0  0  0  0  0  0  0  0  0  0  0
   54.7143   29.9905   43.3736 H   0  0  0  0  0  0  0  0  0  0  0  0
   57.6331   27.3717   43.7640 H   0  0  0  0  0  0  0  0  0  0  0  0
   58.8735   27.6274   45.0843 H   0  0  0  0  0  0  0  0  0  0  0  0
   59.5425   25.3142   45.2592 H   0  0  0  0  0  0  0  0  0  0  0  0
   59.0223   23.0593   46.1747 H   0  0  0  0  0  0  0  0  0  0  0  0
   56.7061   22.5093   46.9087 H   0  0  0  0  0  0  0  0  0  0  0  0
   54.9144   24.2328   46.7825 H   0  0  0  0  0  0  0  0  0  0  0  0
   55.1470   27.5170   45.3680 H   0  0  0  0  0  0  0  0  0  0  0  0
   56.8269   31.0931   46.0895 H   0  0  0  0  0  0  0  0  0  0  0  0
   58.5406   32.2973   49.5430 H   0  0  0  0  0  0  0  0  0  0  0  0
   58.4318   31.0047   48.3005 H   0  0  0  0  0  0  0  0  0  0  0  0
   59.8276   32.1353   48.3005 H   0  0  0  0  0  0  0  0  0  0  0  0
  1  2  1  0
  2  3  1  0
  3  4  2  0
  4  5  1  0
  5  6  2  0
  6  7  1  0
  7  8  1  0
  8  9  1  0
  9 10  1  0
 10 11  2  0
 10 12  1  0
 12 13  1  0
 13 14  2  0
 14 15  1  0
 15 16  2  0
 16 17  1  0
 17 18  2  0
 18 19  1  0
  6 20  1  0
 20 21  2  0
 21 22  1  0
 22 23  1  0
 21  3  1  0
 18 13  1  0
  1 24  1  0
  1 25  1  0
  1 26  1  0
  4 27  1  0
  5 28  1  0
  7 29  1  0
  7 30  1  0
  8 31  1  0
  8 32  1  0
 12 33  1  0
 12 34  1  0
 14 35  1  0
 15 36  1  0
 16 37  1  0
 17 38  1  0
 19 39  1  0
 20 40  1  0
 23 41  1  0
 23 42  1  0
 23 43  1  0
M  CHG  1   9  -1
M  END
>  <UniqueID>  (22) 
19

>  <SMILES>  (22) 
COc1ccc(CC[N-]C(=O)Cc2ccccc2O)cc1OC

>  <Energy>  (22) 
42.69587602165188

>  <Genealogy>  (22) 
COc1ccc(CC[N-]C(=O)Cc2ccccc2O)cc1OC (protonated)
COc1ccc(CC[N-]C(=O)Cc2ccccc2O)cc1OC (3D coordinates assigned)
COc1ccc(CC[N-]C(=O)Cc2ccccc2O)cc1OC (optimized conformer: 42.69587602165188 kcal/mol)

>  <smiles>  (22) 
COc1ccc(CCNC(=O)Cc2ccccc2O)cc1OC

>  <score_type>  (22) 
oracle

>  <origin>  (22) 
adg

>  <m_score__min__energy>  (22) 
-9.8300000000000001

>  <m_primary>  (22) 
energy

$$$$
22:0
     RDKit          3D

 50 52  0  0  0  0  0  0  0  0999 V2000
   66.6010   33.9670   51.9540 C   0  0  0  0  0  0  0  0  0  0  0  0
   65.4530   33.7320   51.0620 N   0  0  0  0  0  0  0  0  0  0  0  0
   65.5780   32.9010   49.9780 C   0  0  0  0  0  0  0  0  0  0  0  0
   66.6680   32.3100   49.7420 O   0  0  0  0  0  0  0  0  0  0  0  0
   64.5010   32.6990   49.1140 C   0  0  0  0  0  0  0  0  0  0  0  0
   63.2940   33.3690   49.3570 C   0  0  0  0  0  0  0  0  0  0  0  0
   62.1470   33.2040   48.4920 N   0  0  0  0  0  0  0  0  0  0  0  0
   62.1140   33.8280   47.1570 C   0  0  0  0  0  0  0  0  0  0  0  0
   60.7000   33.8220   46.5560 C   0  0  0  0  0  0  0  0  0  0  0  0
   59.6690   34.1910   47.6370 C   0  0  0  0  0  0  0  0  0  0  0  0
   58.2650   34.3390   47.0210 C   0  0  0  0  0  0  0  0  0  0  0  0
   57.8330   33.0800   46.4140 N   0  0  0  0  0  0  0  0  0  0  0  0
   58.1100   32.7340   45.0460 C   0  0  0  0  0  0  0  0  0  0  0  0
   58.8170   33.5020   44.3370 O   0  0  0  0  0  0  0  0  0  0  0  0
   57.5980   31.4740   44.4560 C   0  0  0  0  0  0  0  0  0  0  0  0
   57.1280   31.4300   43.1300 C   0  0  0  0  0  0  0  0  0  0  0  0
   56.6570   30.2320   42.5870 C   0  0  0  0  0  0  0  0  0  0  0  0
   56.6510   29.0660   43.3550 C   0  0  0  0  0  0  0  0  0  0  0  0
   57.1170   29.0910   44.6740 C   0  0  0  0  0  0  0  0  0  0  0  0
   57.1270   27.6180   45.6380 S   0  0  0  0  0  0  0  0  0  0  0  0
   55.5180   26.9970   45.7510 N   0  0  0  0  0  0  0  0  0  0  0  0
   57.6500   27.9120   47.0160 O   0  0  0  0  0  0  0  0  0  0  0  0
   58.0180   26.5930   44.9930 O   0  0  0  0  0  0  0  0  0  0  0  0
   57.5990   30.2900   45.2170 C   0  0  0  0  0  0  0  0  0  0  0  0
   59.6820   33.1620   48.7990 C   0  0  0  0  0  0  0  0  0  0  0  0
   61.0020   32.3800   48.9150 C   0  0  0  0  0  0  0  0  0  0  0  0
   63.2230   34.2060   50.4260 N   0  0  0  0  0  0  0  0  0  0  0  0
   64.2720   34.4000   51.2650 C   0  0  0  0  0  0  0  0  0  0  0  0
   64.1410   35.2030   52.2280 O   0  0  0  0  0  0  0  0  0  0  0  0
   66.2714   33.8995   53.0013 H   0  0  0  0  0  0  0  0  0  0  0  0
   67.3746   33.2086   51.7635 H   0  0  0  0  0  0  0  0  0  0  0  0
   67.0144   34.9684   51.7635 H   0  0  0  0  0  0  0  0  0  0  0  0
   64.5981   32.0220   48.2524 H   0  0  0  0  0  0  0  0  0  0  0  0
   62.4596   34.8688   47.2424 H   0  0  0  0  0  0  0  0  0  0  0  0
   62.7691   33.2456   46.4924 H   0  0  0  0  0  0  0  0  0  0  0  0
   60.6486   34.5553   45.7377 H   0  0  0  0  0  0  0  0  0  0  0  0
   60.4753   32.8168   46.1698 H   0  0  0  0  0  0  0  0  0  0  0  0
   59.9504   35.1648   48.0641 H   0  0  0  0  0  0  0  0  0  0  0  0
   57.5526   34.6232   47.8094 H   0  0  0  0  0  0  0  0  0  0  0  0
   58.2999   35.1145   46.2416 H   0  0  0  0  0  0  0  0  0  0  0  0
   57.3960   32.3720   47.0440 H   0  0  0  0  0  0  0  0  0  0  0  0
   57.1315   32.3439   42.5178 H   0  0  0  0  0  0  0  0  0  0  0  0
   56.2895   30.2073   41.5505 H   0  0  0  0  0  0  0  0  0  0  0  0
   56.2791   28.1256   42.9221 H   0  0  0  0  0  0  0  0  0  0  0  0
   55.2220   27.0950   46.7480 H   0  0  0  0  0  0  0  0  0  0  0  0
   57.9818   30.3057   46.2481 H   0  0  0  0  0  0  0  0  0  0  0  0
   59.5132   33.7012   49.7428 H   0  0  0  0  0  0  0  0  0  0  0  0
   58.8899   32.4282   48.5887 H   0  0  0  0  0  0  0  0  0  0  0  0
   61.1472   32.0739   49.9615 H   0  0  0  0  0  0  0  0  0  0  0  0
   60.9445   31.4994   48.2583 H   0  0  0  0  0  0  0  0  0  0  0  0
  1  2  1  0
  2  3  1  0
  3  4  2  0
  3  5  1  0
  5  6  2  0
  6  7  1  0
  7  8  1  0
  8  9  1  0
  9 10  1  0
 10 11  1  0
 11 12  1  0
 12 13  1  0
 13 14  2  0
 13 15  1  0
 15 16  2  0
 16 17  1  0
 17 18  2  0
 18 19  1  0
 19 20  1  0
 20 21  1  0
 20 22  2  0
 20 23  2  0
 19 24  2  0
 10 25  1  0
 25 26  1  0
  6 27  1  0
 27 28  1  0
 28 29  2  0
 28  2  1  0
 26  7  1  0
 24 15  1  0
  1 30  1  0
  1 31  1  0
  1 32  1  0
  5 33  1  0
  8 34  1  0
  8 35  1  0
  9 36  1  0
  9 37  1  0
 10 38  1  0
 11 39  1  0
 11 40  1  0
 12 41  1  0
 16 42  1  0
 17 43  1  0
 18 44  1  0
 21 45  1  0
 24 46  1  0
 25 47  1  0
 25 48  1  0
 26 49  1  0
 26 50  1  0
M  CHG  2  21  -1  27  -1
M  END
>  <UniqueID>  (23) 
20

>  <SMILES>  (23) 
Cn1c(=O)cc(N2CCC(CNC(=O)c3cccc(S([NH-])(=O)=O)c3)CC2)[n-]c1=O

>  <Energy>  (23) 
59.71340132394557

>  <Genealogy>  (23) 
Cn1c(=O)cc(N2CCC(CNC(=O)c3cccc(S([NH-])(=O)=O)c3)CC2)[n-]c1=O (protonated)
Cn1c(=O)cc(N2CCC(CNC(=O)c3cccc(S([NH-])(=O)=O)c3)CC2)[n-]c1=O (3D coordinates assigned)
Cn1c(=O)cc(N2CCC(CNC(=O)c3cccc(S([NH-])(=O)=O)c3)CC2)[n-]c1=O (nonaromatic ring conformer: 59.71340132394557 kcal/mol)

>  <smiles>  (23) 
Cn1c(=O)cc(N2CCC(CNC(=O)c3cccc(S(N)(=O)=O)c3)CC2)[nH]c1=O

>  <score_type>  (23) 
oracle

>  <origin>  (23) 
adg

>  <m_score__min__energy>  (23) 
-12.220000000000001

>  <m_primary>  (23) 
energy

$$$$
23:0
     RDKit          3D

 43 46  0  0  0  0  0  0  0  0999 V2000
   58.9827   26.0156   44.7580 H   0  0  0  0  0  0  0  0  0  0  0  0
   58.7820   27.0040   45.1970 C   0  0  0  0  0  0  0  0  0  0  0  0
   57.7310   27.7820   44.7080 C   0  0  0  0  0  0  0  0  0  0  0  0
   57.1075   27.4025   43.8851 H   0  0  0  0  0  0  0  0  0  0  0  0
   57.4640   29.0470   45.2600 C   0  0  0  0  0  0  0  0  0  0  0  0
   56.3520   29.8770   44.7360 C   0  0  0  0  0  0  0  0  0  0  0  0
   55.1950   29.3840   44.6390 O   0  0  0  0  0  0  0  0  0  0  0  0
   56.6180   31.2040   44.2530 N   0  0  0  0  0  0  0  0  0  0  0  0
   57.3460   32.1410   44.7980 C   0  0  0  0  0  0  0  0  0  0  0  0
   58.0530   33.0070   43.9550 C   0  0  0  0  0  0  0  0  0  0  0  0
   57.9864   32.8895   42.8633 H   0  0  0  0  0  0  0  0  0  0  0  0
   58.8420   34.0190   44.5020 C   0  0  0  0  0  0  0  0  0  0  0  0
   59.3917   34.7076   43.8435 H   0  0  0  0  0  0  0  0  0  0  0  0
   58.9310   34.1540   45.8860 C   0  0  0  0  0  0  0  0  0  0  0  0
   59.5428   34.9539   46.3284 H   0  0  0  0  0  0  0  0  0  0  0  0
   58.2360   33.2640   46.7040 C   0  0  0  0  0  0  0  0  0  0  0  0
   58.3068   33.3580   47.7977 H   0  0  0  0  0  0  0  0  0  0  0  0
   57.4700   32.2790   46.1580 N   0  0  0  0  0  0  0  0  0  0  0  0
   57.0200   31.6140   46.8210 H   0  0  0  0  0  0  0  0  0  0  0  0
   58.2740   29.5170   46.3120 C   0  0  0  0  0  0  0  0  0  0  0  0
   58.0747   30.5061   46.7502 H   0  0  0  0  0  0  0  0  0  0  0  0
   59.3350   28.7380   46.8100 C   0  0  0  0  0  0  0  0  0  0  0  0
   60.1840   29.2400   47.9210 C   0  0  0  0  0  0  0  0  0  0  0  0
   60.1340   28.6330   49.1870 C   0  0  0  0  0  0  0  0  0  0  0  0
   59.4631   27.7781   49.3574 H   0  0  0  0  0  0  0  0  0  0  0  0
   60.9300   29.1080   50.2290 C   0  0  0  0  0  0  0  0  0  0  0  0
   60.8842   28.6259   51.2167 H   0  0  0  0  0  0  0  0  0  0  0  0
   61.7850   30.1930   50.0240 C   0  0  0  0  0  0  0  0  0  0  0  0
   62.4087   30.5610   50.8520 H   0  0  0  0  0  0  0  0  0  0  0  0
   61.8540   30.8180   48.7670 C   0  0  0  0  0  0  0  0  0  0  0  0
   62.7360   31.9390   48.5540 N   0  0  0  0  0  0  0  0  0  0  0  0
   62.7090   32.7990   47.5130 C   0  0  0  0  0  0  0  0  0  0  0  0
   61.9965   32.7541   46.6762 H   0  0  0  0  0  0  0  0  0  0  0  0
   63.7060   33.7420   47.6530 C   0  0  0  0  0  0  0  0  0  0  0  0
   63.9307   34.5688   46.9631 H   0  0  0  0  0  0  0  0  0  0  0  0
   64.3670   33.4450   48.8290 C   0  0  0  0  0  0  0  0  0  0  0  0
   65.2205   33.9897   49.2590 H   0  0  0  0  0  0  0  0  0  0  0  0
   63.7480   32.3320   49.3590 C   0  0  0  0  0  0  0  0  0  0  0  0
   64.0357   31.8372   50.2984 H   0  0  0  0  0  0  0  0  0  0  0  0
   61.0480   30.3330   47.7200 C   0  0  0  0  0  0  0  0  0  0  0  0
   61.0938   30.8143   46.7319 H   0  0  0  0  0  0  0  0  0  0  0  0
   59.5790   27.4760   46.2410 C   0  0  0  0  0  0  0  0  0  0  0  0
   60.4041   26.8559   46.6213 H   0  0  0  0  0  0  0  0  0  0  0  0
  1  2  1  0
  2  3  2  0
  3  4  1  0
  3  5  1  0
  5  6  1  0
  6  7  2  0
  6  8  1  0
  8  9  2  0
  9 10  1  0
 10 11  1  0
 10 12  2  0
 12 13  1  0
 12 14  1  0
 14 15  1  0
 14 16  2  0
 16 17  1  0
 16 18  1  0
 18 19  1  0
  5 20  2  0
 20 21  1  0
 20 22  1  0
 22 23  1  0
 23 24  2  0
 24 25  1  0
 24 26  1  0
 26 27  1  0
 26 28  2  0
 28 29  1  0
 28 30  1  0
 30 31  1  0
 31 32  1  0
 32 33  1  0
 32 34  2  0
 34 35  1  0
 34 36  1  0
 36 37  1  0
 36 38  2  0
 38 39  1  0
 30 40  2  0
 40 41  1  0
 22 42  2  0
 42 43  1  0
 42  2  1  0
 18  9  1  0
 40 23  1  0
 38 31  1  0
M  END
>  <UniqueID>  (24) 
21

>  <SMILES>  (24) 
O=C(/N=c1/cccc[nH]1)c1cccc(-c2cccc(-n3cccc3)c2)c1

>  <Energy>  (24) 
90.61301898346261

>  <Genealogy>  (24) 
O=C(/N=c1/cccc[nH]1)c1cccc(-c2cccc(-n3cccc3)c2)c1 (cis-trans isomerization)
O=C(/N=c1/cccc[nH]1)c1cccc(-c2cccc(-n3cccc3)c2)c1 (3D coordinates assigned)
O=C(/N=c1/cccc[nH]1)c1cccc(-c2cccc(-n3cccc3)c2)c1 (optimized conformer: 90.61301898346261 kcal/mol)

>  <smiles>  (24) 
O=C(N=c1cccc[nH]1)c1cccc(-c2cccc(-n3cccc3)c2)c1

>  <score_type>  (24) 
oracle

>  <origin>  (24) 
adg

>  <m_score__min__energy>  (24) 
-8.9700000000000006

>  <m_primary>  (24) 
energy

$$$$
24:0
     RDKit          3D

 38 40  0  0  0  0  0  0  0  0999 V2000
   54.7740   26.7160   45.1070 H   0  0  0  0  0  0  0  0  0  0  0  0
   55.2250   26.7100   46.0490 N   0  0  0  0  0  0  0  0  0  0  0  0
   56.8990   27.0640   45.8090 S   0  0  0  0  0  0  0  0  0  0  0  0
   57.6400   26.8700   47.1030 O   0  0  0  0  0  0  0  0  0  0  0  0
   57.4690   26.1250   44.7830 O   0  0  0  0  0  0  0  0  0  0  0  0
   57.0760   28.7260   45.2610 C   0  0  0  0  0  0  0  0  0  0  0  0
   56.0450   29.3490   44.5440 C   0  0  0  0  0  0  0  0  0  0  0  0
   55.1141   28.8012   44.3356 H   0  0  0  0  0  0  0  0  0  0  0  0
   56.1950   30.6630   44.0930 C   0  0  0  0  0  0  0  0  0  0  0  0
   55.3819   31.1446   43.5300 H   0  0  0  0  0  0  0  0  0  0  0  0
   57.3790   31.3720   44.3550 C   0  0  0  0  0  0  0  0  0  0  0  0
   57.5620   32.7690   43.8240 C   0  0  0  0  0  0  0  0  0  0  0  0
   57.5732   32.7357   42.7246 H   0  0  0  0  0  0  0  0  0  0  0  0
   56.7293   33.3897   44.1865 H   0  0  0  0  0  0  0  0  0  0  0  0
   58.8780   33.3870   44.3190 C   0  0  0  0  0  0  0  0  0  0  0  0
   59.6409   32.5977   44.3899 H   0  0  0  0  0  0  0  0  0  0  0  0
   59.1889   34.1634   43.6045 H   0  0  0  0  0  0  0  0  0  0  0  0
   58.7090   34.0080   45.6350 N   0  0  0  0  0  0  0  0  0  0  0  0
   58.9290   33.4770   46.8080 C   0  0  0  0  0  0  0  0  0  0  0  0
   57.8810   32.9730   47.6080 C   0  0  0  0  0  0  0  0  0  0  0  0
   56.8422   33.0245   47.2498 H   0  0  0  0  0  0  0  0  0  0  0  0
   58.1620   32.4100   48.8520 C   0  0  0  0  0  0  0  0  0  0  0  0
   57.3429   32.0181   49.4728 H   0  0  0  0  0  0  0  0  0  0  0  0
   59.4410   32.3430   49.3010 N   0  0  0  0  0  0  0  0  0  0  0  0
   60.4830   32.8130   48.5680 C   0  0  0  0  0  0  0  0  0  0  0  0
   61.7850   32.7170   49.0740 C   0  0  0  0  0  0  0  0  0  0  0  0
   61.9573   32.2663   50.0625 H   0  0  0  0  0  0  0  0  0  0  0  0
   62.8660   33.1920   48.3270 C   0  0  0  0  0  0  0  0  0  0  0  0
   64.4950   33.0650   48.9660 Cl  0  0  0  0  0  0  0  0  0  0  0  0
   62.6510   33.7650   47.0720 C   0  0  0  0  0  0  0  0  0  0  0  0
   63.5047   34.1362   46.4860 H   0  0  0  0  0  0  0  0  0  0  0  0
   61.3560   33.8690   46.5570 C   0  0  0  0  0  0  0  0  0  0  0  0
   61.1959   34.3225   45.5677 H   0  0  0  0  0  0  0  0  0  0  0  0
   60.2530   33.3960   47.2980 C   0  0  0  0  0  0  0  0  0  0  0  0
   58.4160   30.7400   45.0600 C   0  0  0  0  0  0  0  0  0  0  0  0
   59.3520   31.2824   45.2592 H   0  0  0  0  0  0  0  0  0  0  0  0
   58.2650   29.4250   45.5100 C   0  0  0  0  0  0  0  0  0  0  0  0
   59.0823   28.9372   46.0615 H   0  0  0  0  0  0  0  0  0  0  0  0
  1  2  1  0
  2  3  1  0
  3  4  2  0
  3  5  2  0
  3  6  1  0
  6  7  2  0
  7  8  1  0
  7  9  1  0
  9 10  1  0
  9 11  2  0
 11 12  1  0
 12 13  1  0
 12 14  1  0
 12 15  1  0
 15 16  1  0
 15 17  1  0
 15 18  1  0
 18 19  2  0
 19 20  1  0
 20 21  1  0
 20 22  2  0
 22 23  1  0
 22 24  1  0
 24 25  1  0
 25 26  2  0
 26 27  1  0
 26 28  1  0
 28 29  1  0
 28 30  2  0
 30 31  1  0
 30 32  1  0
 32 33  1  0
 32 34  2  0
 11 35  1  0
 35 36  1  0
 35 37  2  0
 37 38  1  0
 37  6  1  0
 34 19  1  0
 34 25  1  0
M  CHG  2   2  -1  24  -1
M  END
>  <UniqueID>  (25) 
22

>  <SMILES>  (25) 
[NH-]S(=O)(=O)c1ccc(CC/N=c2\cc[n-]c3cc(Cl)ccc23)cc1

>  <Energy>  (25) 
44.25906701861171

>  <Genealogy>  (25) 
[NH-]S(=O)(=O)c1ccc(CCN=c2cc[n-]c3cc(Cl)ccc23)cc1 (protonated)
[NH-]S(=O)(=O)c1ccc(CC/N=c2\cc[n-]c3cc(Cl)ccc23)cc1 (cis-trans isomerization)
[NH-]S(=O)(=O)c1ccc(CC/N=c2\cc[n-]c3cc(Cl)ccc23)cc1 (3D coordinates assigned)
[NH-]S(=O)(=O)c1ccc(CC/N=c2\cc[n-]c3cc(Cl)ccc23)cc1 (optimized conformer: 44.25906701861171 kcal/mol)

>  <smiles>  (25) 
NS(=O)(=O)c1ccc(CCN=c2cc[nH]c3cc(Cl)ccc23)cc1

>  <score_type>  (25) 
oracle

>  <origin>  (25) 
adg

>  <m_score__min__energy>  (25) 
-11.98

>  <m_primary>  (25) 
energy

$$$$
25:0
     RDKit          3D

 56 58  0  0  0  0  0  0  0  0999 V2000
   55.2930   29.0890   44.7990 N   0  0  0  0  0  0  0  0  0  0  0  0
   56.8670   29.7960   44.6990 S   0  0  0  0  0  0  0  0  0  0  0  0
   57.5910   29.2410   43.5030 O   0  0  0  0  0  0  0  0  0  0  0  0
   56.7420   31.2850   44.5400 O   0  0  0  0  0  0  0  0  0  0  0  0
   57.7670   29.4260   46.1660 C   0  0  0  0  0  0  0  0  0  0  0  0
   58.4450   30.4430   46.8510 C   0  0  0  0  0  0  0  0  0  0  0  0
   59.1510   30.1550   48.0230 C   0  0  0  0  0  0  0  0  0  0  0  0
   59.1720   28.8450   48.5350 C   0  0  0  0  0  0  0  0  0  0  0  0
   59.9090   28.5170   49.7240 N   0  0  0  0  0  0  0  0  0  0  0  0
   61.2300   29.0020   50.0120 C   0  0  0  0  0  0  0  0  0  0  0  0
   61.7410   29.9280   49.3250 O   0  0  0  0  0  0  0  0  0  0  0  0
   62.0170   28.4030   51.1400 C   0  0  0  0  0  0  0  0  0  0  0  0
   61.2170   28.3690   52.3660 N   0  0  0  0  0  0  0  0  0  0  0  0
   60.3360   29.4350   52.7620 C   0  0  0  0  0  0  0  0  0  0  0  0
   59.4260   29.2200   53.8100 C   0  0  0  0  0  0  0  0  0  0  0  0
   58.5700   30.2400   54.2280 C   0  0  0  0  0  0  0  0  0  0  0  0
   58.6110   31.4880   53.6050 C   0  0  0  0  0  0  0  0  0  0  0  0
   59.5050   31.7210   52.5530 C   0  0  0  0  0  0  0  0  0  0  0  0
   59.5810   33.3190   51.8160 S   0  0  0  0  0  0  0  0  0  0  0  0
   59.3360   34.3530   52.8790 O   0  0  0  0  0  0  0  0  0  0  0  0
   58.5370   33.4750   50.7450 O   0  0  0  0  0  0  0  0  0  0  0  0
   61.1570   33.5670   51.1330 N   0  0  0  0  0  0  0  0  0  0  0  0
   61.3870   34.0900   49.9640 C   0  0  0  0  0  0  0  0  0  0  0  0
   62.8130   34.2040   49.4960 C   0  0  0  0  0  0  0  0  0  0  0  0
   62.9860   33.6400   48.0800 C   0  0  0  0  0  0  0  0  0  0  0  0
   62.0010   32.5050   47.7410 C   0  0  0  0  0  0  0  0  0  0  0  0
   60.5920   32.9540   47.3110 C   0  0  0  0  0  0  0  0  0  0  0  0
   60.2530   34.3960   47.7010 C   0  0  0  0  0  0  0  0  0  0  0  0
   60.3100   34.5860   49.1490 N   0  0  0  0  0  0  0  0  0  0  0  0
   60.3640   30.6950   52.1320 C   0  0  0  0  0  0  0  0  0  0  0  0
   58.5040   27.8280   47.8360 C   0  0  0  0  0  0  0  0  0  0  0  0
   57.7980   28.1180   46.6650 C   0  0  0  0  0  0  0  0  0  0  0  0
   54.8330   29.4890   45.6480 H   0  0  0  0  0  0  0  0  0  0  0  0
   58.4217   31.4728   46.4649 H   0  0  0  0  0  0  0  0  0  0  0  0
   59.6924   30.9564   48.5470 H   0  0  0  0  0  0  0  0  0  0  0  0
   59.4270   27.9540   50.4610 H   0  0  0  0  0  0  0  0  0  0  0  0
   62.3105   27.3775   50.8714 H   0  0  0  0  0  0  0  0  0  0  0  0
   62.9099   29.0207   51.3164 H   0  0  0  0  0  0  0  0  0  0  0  0
   61.3070   27.5420   53.0020 H   0  0  0  0  0  0  0  0  0  0  0  0
   59.3876   28.2388   54.3058 H   0  0  0  0  0  0  0  0  0  0  0  0
   57.8617   30.0598   55.0501 H   0  0  0  0  0  0  0  0  0  0  0  0
   57.9389   32.2912   53.9415 H   0  0  0  0  0  0  0  0  0  0  0  0
   63.1059   35.2643   49.4968 H   0  0  0  0  0  0  0  0  0  0  0  0
   63.4485   33.6220   50.1797 H   0  0  0  0  0  0  0  0  0  0  0  0
   62.8351   34.4575   47.3597 H   0  0  0  0  0  0  0  0  0  0  0  0
   63.9987   33.2140   48.0251 H   0  0  0  0  0  0  0  0  0  0  0  0
   62.4338   31.9152   46.9195 H   0  0  0  0  0  0  0  0  0  0  0  0
   61.8647   31.9362   48.6726 H   0  0  0  0  0  0  0  0  0  0  0  0
   60.5192   32.8650   46.2170 H   0  0  0  0  0  0  0  0  0  0  0  0
   59.8762   32.3049   47.8366 H   0  0  0  0  0  0  0  0  0  0  0  0
   60.9744   35.0748   47.2226 H   0  0  0  0  0  0  0  0  0  0  0  0
   59.2286   34.6132   47.3641 H   0  0  0  0  0  0  0  0  0  0  0  0
   59.4920   35.0450   49.6080 H   0  0  0  0  0  0  0  0  0  0  0  0
   61.0649   30.8755   51.3036 H   0  0  0  0  0  0  0  0  0  0  0  0
   58.5362   26.7949   48.2124 H   0  0  0  0  0  0  0  0  0  0  0  0
   57.2649   27.3159   46.1336 H   0  0  0  0  0  0  0  0  0  0  0  0
  1  2  1  0
  2  3  2  0
  2  4  2  0
  2  5  1  0
  5  6  2  0
  6  7  1  0
  7  8  2  0
  8  9  1  0
  9 10  1  0
 10 11  2  0
 10 12  1  0
 12 13  1  0
 13 14  1  0
 14 15  2  0
 15 16  1  0
 16 17  2  0
 17 18  1  0
 18 19  1  0
 19 20  2  0
 19 21  2  0
 19 22  1  0
 22 23  2  3
 23 24  1  0
 24 25  1  0
 25 26  1  0
 26 27  1  0
 27 28  1  0
 28 29  1  0
 18 30  2  0
  8 31  1  0
 31 32  2  0
 32  5  1  0
 30 14  1  0
 29 23  1  0
  1 33  1  0
  6 34  1  0
  7 35  1  0
  9 36  1  0
 12 37  1  0
 12 38  1  0
 13 39  1  0
 15 40  1  0
 16 41  1  0
 17 42  1  0
 24 43  1  0
 24 44  1  0
 25 45  1  0
 25 46  1  0
 26 47  1  0
 26 48  1  0
 27 49  1  0
 27 50  1  0
 28 51  1  0
 28 52  1  0
 29 53  1  0
 30 54  1  0
 31 55  1  0
 32 56  1  0
M  CHG  1   1  -1
M  END
>  <UniqueID>  (26) 
23

>  <SMILES>  (26) 
[NH-]S(=O)(=O)c1ccc(NC(=O)CNc2cccc(S(=O)(=O)N=C3CCCCCN3)c2)cc1

>  <Energy>  (26) 
63.026684664735136

>  <Genealogy>  (26) 
[NH-]S(=O)(=O)c1ccc(NC(=O)CNc2cccc(S(=O)(=O)N=C3CCCCCN3)c2)cc1 (protonated)
[NH-]S(=O)(=O)c1ccc(NC(=O)CNc2cccc(S(=O)(=O)N=C3CCCCCN3)c2)cc1 (3D coordinates assigned)
[NH-]S(=O)(=O)c1ccc(NC(=O)CNc2cccc(S(=O)(=O)N=C3CCCCCN3)c2)cc1 (nonaromatic ring conformer: 63.026684664735136 kcal/mol)

>  <smiles>  (26) 
NS(=O)(=O)c1ccc(NC(=O)CNc2cccc(S(=O)(=O)N=C3CCCCCN3)c2)cc1

>  <score_type>  (26) 
oracle

>  <origin>  (26) 
adg

>  <m_score__min__energy>  (26) 
-7.8399999999999999

>  <m_primary>  (26) 
energy

$$$$
26:0
     RDKit          3D

 71 75  0  0  0  0  0  0  0  0999 V2000
   56.8120   21.9940   49.8950 H   0  0  0  0  0  0  0  0  0  0  0  0
   57.3420   21.8570   49.0060 N   0  0  0  0  0  0  0  0  0  0  0  0
   56.6800   21.8890   47.7420 C   0  0  0  0  0  0  0  0  0  0  0  0
   57.3710   21.9090   46.6880 O   0  0  0  0  0  0  0  0  0  0  0  0
   55.2030   21.9370   47.6920 C   0  0  0  0  0  0  0  0  0  0  0  0
   54.5790   22.2950   48.7260 O   0  0  0  0  0  0  0  0  0  0  0  0
   54.4390   21.6060   46.5200 N   0  0  0  0  0  0  0  0  0  0  0  0
   52.9830   21.5440   46.3970 C   0  0  0  0  0  0  0  0  0  0  0  0
   52.5505   21.2401   47.3617 H   0  0  0  0  0  0  0  0  0  0  0  0
   52.7219   20.8125   45.6180 H   0  0  0  0  0  0  0  0  0  0  0  0
   52.4210   22.9130   46.0010 C   0  0  0  0  0  0  0  0  0  0  0  0
   52.3417   23.5445   46.8982 H   0  0  0  0  0  0  0  0  0  0  0  0
   51.4293   22.7714   45.5466 H   0  0  0  0  0  0  0  0  0  0  0  0
   53.2950   23.5660   45.0300 N   0  0  0  0  0  0  0  0  0  0  0  0
   54.3210   24.4970   45.3860 C   0  0  0  0  0  0  0  0  0  0  0  0
   54.0290   25.7030   45.6270 O   0  0  0  0  0  0  0  0  0  0  0  0
   55.6710   24.0340   45.5290 N   0  0  0  0  0  0  0  0  0  0  0  0
   55.8290   23.0030   45.6090 H   0  0  0  0  0  0  0  0  0  0  0  0
   56.7780   24.9140   45.7700 C   0  0  0  0  0  0  0  0  0  0  0  0
   57.4260   25.5720   44.7080 C   0  0  0  0  0  0  0  0  0  0  0  0
   57.0732   25.4274   43.6762 H   0  0  0  0  0  0  0  0  0  0  0  0
   58.5170   26.4090   44.9610 C   0  0  0  0  0  0  0  0  0  0  0  0
   59.0323   26.9067   44.1262 H   0  0  0  0  0  0  0  0  0  0  0  0
   58.9550   26.6150   46.2750 C   0  0  0  0  0  0  0  0  0  0  0  0
   60.0660   27.4850   46.5240 N   0  0  0  0  0  0  0  0  0  0  0  0
   59.9620   28.6350   47.1200 C   0  0  0  0  0  0  0  0  0  0  0  0
   59.4190   29.7060   46.4810 N   0  0  0  0  0  0  0  0  0  0  0  0
   59.3570   30.9180   47.0920 C   0  0  0  0  0  0  0  0  0  0  0  0
   58.8320   32.0680   46.3970 N   0  0  0  0  0  0  0  0  0  0  0  0
   59.1810   33.4100   46.8830 C   0  0  0  0  0  0  0  0  0  0  0  0
   58.7997   33.5314   47.9076 H   0  0  0  0  0  0  0  0  0  0  0  0
   60.2758   33.5150   46.8629 H   0  0  0  0  0  0  0  0  0  0  0  0
   58.5720   34.4950   45.9910 C   0  0  0  0  0  0  0  0  0  0  0  0
   58.6222   35.4636   46.5100 H   0  0  0  0  0  0  0  0  0  0  0  0
   59.1372   34.5463   45.0487 H   0  0  0  0  0  0  0  0  0  0  0  0
   57.1720   34.1750   45.6950 N   0  0  0  0  0  0  0  0  0  0  0  0
   56.6600   34.0590   46.6010 H   0  0  0  0  0  0  0  0  0  0  0  0
   57.0290   32.9370   44.9030 C   0  0  0  0  0  0  0  0  0  0  0  0
   56.0864   32.4505   45.1940 H   0  0  0  0  0  0  0  0  0  0  0  0
   57.0500   33.2392   43.8455 H   0  0  0  0  0  0  0  0  0  0  0  0
   58.1750   31.9180   45.0900 C   0  0  0  0  0  0  0  0  0  0  0  0
   57.7630   30.9009   45.0133 H   0  0  0  0  0  0  0  0  0  0  0  0
   58.9258   32.1008   44.3072 H   0  0  0  0  0  0  0  0  0  0  0  0
   59.8400   31.0470   48.3550 N   0  0  0  0  0  0  0  0  0  0  0  0
   60.3860   29.9830   49.0010 C   0  0  0  0  0  0  0  0  0  0  0  0
   60.8950   30.1200   50.2970 O   0  0  0  0  0  0  0  0  0  0  0  0
   62.2570   30.3190   50.5640 C   0  0  0  0  0  0  0  0  0  0  0  0
   62.8890   29.4550   51.4500 C   0  0  0  0  0  0  0  0  0  0  0  0
   62.3293   28.6140   51.8853 H   0  0  0  0  0  0  0  0  0  0  0  0
   64.2260   29.6460   51.7910 C   0  0  0  0  0  0  0  0  0  0  0  0
   64.7520   28.8460   52.6140 O   0  0  0  0  0  0  0  0  0  0  0  0
   64.9510   30.6830   51.2490 N   0  0  0  0  0  0  0  0  0  0  0  0
   66.3660   30.8600   51.6330 C   0  0  0  0  0  0  0  0  0  0  0  0
   66.4497   30.8705   52.7298 H   0  0  0  0  0  0  0  0  0  0  0  0
   66.9626   30.0295   51.2276 H   0  0  0  0  0  0  0  0  0  0  0  0
   66.7396   31.8119   51.2276 H   0  0  0  0  0  0  0  0  0  0  0  0
   64.3570   31.5470   50.3450 C   0  0  0  0  0  0  0  0  0  0  0  0
   65.0710   32.6250   49.7640 C   0  0  0  0  0  0  0  0  0  0  0  0
   66.1162   32.8034   50.0568 H   0  0  0  0  0  0  0  0  0  0  0  0
   64.4670   33.4630   48.8260 C   0  0  0  0  0  0  0  0  0  0  0  0
   65.0354   34.2986   48.3916 H   0  0  0  0  0  0  0  0  0  0  0  0
   63.1490   33.2460   48.4380 C   0  0  0  0  0  0  0  0  0  0  0  0
   62.6826   33.9016   47.6878 H   0  0  0  0  0  0  0  0  0  0  0  0
   62.4190   32.2010   48.9970 C   0  0  0  0  0  0  0  0  0  0  0  0
   61.3810   32.0292   48.6759 H   0  0  0  0  0  0  0  0  0  0  0  0
   62.9960   31.3610   49.9700 C   0  0  0  0  0  0  0  0  0  0  0  0
   60.4460   28.7790   48.3800 N   0  0  0  0  0  0  0  0  0  0  0  0
   58.3180   25.9530   47.3350 C   0  0  0  0  0  0  0  0  0  0  0  0
   58.6630   26.1118   48.3674 H   0  0  0  0  0  0  0  0  0  0  0  0
   57.2460   25.0920   47.0830 C   0  0  0  0  0  0  0  0  0  0  0  0
   56.7679   24.5528   47.9141 H   0  0  0  0  0  0  0  0  0  0  0  0
  1  2  1  0
  2  3  1  0
  3  4  2  0
  3  5  1  0
  5  6  2  0
  5  7  1  0
  7  8  1  0
  8  9  1  0
  8 10  1  0
  8 11  1  0
 11 12  1  0
 11 13  1  0
 11 14  1  0
 14 15  1  0
 15 16  2  0
 15 17  1  0
 17 18  1  0
 17 19  1  0
 19 20  2  0
 20 21  1  0
 20 22  1  0
 22 23  1  0
 22 24  2  0
 24 25  1  0
 25 26  2  0
 26 27  1  0
 27 28  2  0
 28 29  1  0
 29 30  1  0
 30 31  1  0
 30 32  1  0
 30 33  1  0
 33 34  1  0
 33 35  1  0
 33 36  1  0
 36 37  1  0
 36 38  1  0
 38 39  1  0
 38 40  1  0
 38 41  1  0
 41 42  1  0
 41 43  1  0
 28 44  1  0
 44 45  2  0
 45 46  1  0
 46 47  1  0
 47 48  2  0
 48 49  1  0
 48 50  1  0
 50 51  2  0
 50 52  1  0
 52 53  1  0
 53 54  1  0
 53 55  1  0
 53 56  1  0
 52 57  1  0
 57 58  2  0
 58 59  1  0
 58 60  1  0
 60 61  1  0
 60 62  2  0
 62 63  1  0
 62 64  1  0
 64 65  1  0
 64 66  2  0
 45 67  1  0
 24 68  1  0
 68 69  1  0
 68 70  2  0
 70 71  1  0
 70 19  1  0
 67 26  1  0
 41 29  1  0
 66 47  1  0
 66 57  1  0
M  CHG  4   2  -1   7  -1  14  -1  67  -1
M  END
>  <UniqueID>  (27) 
24

>  <SMILES>  (27) 
Cn1c(=O)cc(Oc2nc(N3CCNCC3)n/c(=N\c3ccc(NC(=O)[N-]CC[N-]C(=O)C([NH-])=O)cc3)[n-]2)c2ccccc21

>  <Energy>  (27) 
105.31503300892602

>  <Genealogy>  (27) 
Cn1c(=O)cc(Oc2nc(N3CCNCC3)nc(=Nc3ccc(NC(=O)[N-]CC[N-]C(=O)C([NH-])=O)cc3)[n-]2)c2ccccc21 (protonated)
Cn1c(=O)cc(Oc2nc(N3CCNCC3)n/c(=N\c3ccc(NC(=O)[N-]CC[N-]C(=O)C([NH-])=O)cc3)[n-]2)c2ccccc21 (cis-trans isomerization)
Cn1c(=O)cc(Oc2nc(N3CCNCC3)n/c(=N\c3ccc(NC(=O)[N-]CC[N-]C(=O)C([NH-])=O)cc3)[n-]2)c2ccccc21 (3D coordinates assigned)
Cn1c(=O)cc(Oc2nc(N3CCNCC3)n/c(=N\c3ccc(NC(=O)[N-]CC[N-]C(=O)C([NH-])=O)cc3)[n-]2)c2ccccc21 (nonaromatic ring conformer: 105.31503300892602 kcal/mol)

>  <smiles>  (27) 
Cn1c(=O)cc(Oc2nc(N3CCNCC3)nc(=Nc3ccc(NC(=O)NCCNC(=O)C(N)=O)cc3)[nH]2)c2ccccc21

>  <score_type>  (27) 
oracle

>  <origin>  (27) 
adg

>  <m_score__min__energy>  (27) 
-16.5

>  <m_primary>  (27) 
energy

$$$$
27:0
     RDKit          3D

 54 57  0  0  0  0  0  0  0  0999 V2000
   55.2240   29.3900   44.7170 O   0  0  0  0  0  0  0  0  0  0  0  0
   56.4680   29.3590   44.9170 C   0  0  0  0  0  0  0  0  0  0  0  0
   57.3850   30.0640   43.9660 C   0  0  0  0  0  0  0  0  0  0  0  0
   57.7860   31.4090   44.5100 C   0  0  0  0  0  0  0  0  0  0  0  0
   58.1430   32.4470   43.6340 C   0  0  0  0  0  0  0  0  0  0  0  0
   58.4900   33.7040   44.1370 C   0  0  0  0  0  0  0  0  0  0  0  0
   58.4760   33.9360   45.5150 C   0  0  0  0  0  0  0  0  0  0  0  0
   58.0990   32.9150   46.3960 C   0  0  0  0  0  0  0  0  0  0  0  0
   58.0590   33.1400   47.7700 O   0  0  0  0  0  0  0  0  0  0  0  0
   57.7500   31.6560   45.8930 C   0  0  0  0  0  0  0  0  0  0  0  0
   57.0210   28.5740   45.9800 N   0  0  0  0  0  0  0  0  0  0  0  0
   57.0910   27.1420   46.0620 C   0  0  0  0  0  0  0  0  0  0  0  0
   55.9400   26.3350   45.9940 C   0  0  0  0  0  0  0  0  0  0  0  0
   56.0480   24.9440   46.0890 C   0  0  0  0  0  0  0  0  0  0  0  0
   57.2980   24.3480   46.2630 C   0  0  0  0  0  0  0  0  0  0  0  0
   58.4420   25.1410   46.3650 C   0  0  0  0  0  0  0  0  0  0  0  0
   58.3420   26.5370   46.2860 C   0  0  0  0  0  0  0  0  0  0  0  0
   59.5240   27.3350   46.4340 N   0  0  0  0  0  0  0  0  0  0  0  0
   59.8910   27.9460   47.6870 C   0  0  0  0  0  0  0  0  0  0  0  0
   60.5500   27.1820   48.6590 C   0  0  0  0  0  0  0  0  0  0  0  0
   60.8470   27.7330   49.9080 C   0  0  0  0  0  0  0  0  0  0  0  0
   60.4750   29.0460   50.2040 C   0  0  0  0  0  0  0  0  0  0  0  0
   59.8160   29.8340   49.2440 C   0  0  0  0  0  0  0  0  0  0  0  0
   59.4250   31.2320   49.5700 C   0  0  0  0  0  0  0  0  0  0  0  0
   58.2220   31.4850   49.8490 O   0  0  0  0  0  0  0  0  0  0  0  0
   60.3780   32.3020   49.6430 N   0  0  0  0  0  0  0  0  0  0  0  0
   61.4100   32.5910   48.6890 C   0  0  0  0  0  0  0  0  0  0  0  0
   62.6780   31.9880   48.7710 C   0  0  0  0  0  0  0  0  0  0  0  0
   63.6720   32.3140   47.8420 C   0  0  0  0  0  0  0  0  0  0  0  0
   63.4010   33.2260   46.8190 C   0  0  0  0  0  0  0  0  0  0  0  0
   62.1360   33.8120   46.7210 C   0  0  0  0  0  0  0  0  0  0  0  0
   61.1410   33.4900   47.6490 C   0  0  0  0  0  0  0  0  0  0  0  0
   59.5670   29.2860   47.9730 C   0  0  0  0  0  0  0  0  0  0  0  0
   58.2868   29.4527   43.8142 H   0  0  0  0  0  0  0  0  0  0  0  0
   56.8583   30.2118   43.0117 H   0  0  0  0  0  0  0  0  0  0  0  0
   58.1496   32.2701   42.5483 H   0  0  0  0  0  0  0  0  0  0  0  0
   58.7746   34.5120   43.4470 H   0  0  0  0  0  0  0  0  0  0  0  0
   58.7617   34.9227   45.9084 H   0  0  0  0  0  0  0  0  0  0  0  0
   58.8590   32.9440   48.3610 H   0  0  0  0  0  0  0  0  0  0  0  0
   57.4460   30.8559   46.5839 H   0  0  0  0  0  0  0  0  0  0  0  0
   54.9515   26.8002   45.8656 H   0  0  0  0  0  0  0  0  0  0  0  0
   55.1456   24.3181   46.0264 H   0  0  0  0  0  0  0  0  0  0  0  0
   57.3816   23.2527   46.3198 H   0  0  0  0  0  0  0  0  0  0  0  0
   59.4253   24.6690   46.5078 H   0  0  0  0  0  0  0  0  0  0  0  0
   60.2640   27.2180   45.7050 H   0  0  0  0  0  0  0  0  0  0  0  0
   60.8351   26.1429   48.4376 H   0  0  0  0  0  0  0  0  0  0  0  0
   61.3758   27.1303   50.6610 H   0  0  0  0  0  0  0  0  0  0  0  0
   60.6991   29.4668   51.1953 H   0  0  0  0  0  0  0  0  0  0  0  0
   62.8886   31.2587   49.5671 H   0  0  0  0  0  0  0  0  0  0  0  0
   64.6674   31.8520   47.9171 H   0  0  0  0  0  0  0  0  0  0  0  0
   64.1838   33.4830   46.0902 H   0  0  0  0  0  0  0  0  0  0  0  0
   61.9229   34.5273   45.9129 H   0  0  0  0  0  0  0  0  0  0  0  0
   60.1430   33.9444   47.5621 H   0  0  0  0  0  0  0  0  0  0  0  0
   59.1128   29.9129   47.1915 H   0  0  0  0  0  0  0  0  0  0  0  0
  1  2  2  0
  2  3  1  0
  3  4  1  0
  4  5  2  0
  5  6  1  0
  6  7  2  0
  7  8  1  0
  8  9  1  0
  8 10  2  0
  2 11  1  0
 11 12  1  0
 12 13  2  0
 13 14  1  0
 14 15  2  0
 15 16  1  0
 16 17  2  0
 17 18  1  0
 18 19  1  0
 19 20  2  0
 20 21  1  0
 21 22  2  0
 22 23  1  0
 23 24  1  0
 24 25  2  0
 24 26  1  0
 26 27  1  0
 27 28  2  0
 28 29  1  0
 29 30  2  0
 30 31  1  0
 31 32  2  0
 23 33  2  0
 10  4  1  0
 17 12  1  0
 33 19  1  0
 32 27  1  0
  3 34  1  0
  3 35  1  0
  5 36  1  0
  6 37  1  0
  7 38  1  0
  9 39  1  0
 10 40  1  0
 13 41  1  0
 14 42  1  0
 15 43  1  0
 16 44  1  0
 18 45  1  0
 20 46  1  0
 21 47  1  0
 22 48  1  0
 28 49  1  0
 29 50  1  0
 30 51  1  0
 31 52  1  0
 32 53  1  0
 33 54  1  0
M  CHG  2  11  -1  26  -1
M  END
>  <UniqueID>  (28) 
25

>  <SMILES>  (28) 
O=C(Cc1cccc(O)c1)[N-]c1ccccc1Nc1cccc(C(=O)[N-]c2ccccc2)c1

>  <Energy>  (28) 
67.35735812755564

>  <Genealogy>  (28) 
O=C(Cc1cccc(O)c1)[N-]c1ccccc1Nc1cccc(C(=O)[N-]c2ccccc2)c1 (protonated)
O=C(Cc1cccc(O)c1)[N-]c1ccccc1Nc1cccc(C(=O)[N-]c2ccccc2)c1 (3D coordinates assigned)
O=C(Cc1cccc(O)c1)[N-]c1ccccc1Nc1cccc(C(=O)[N-]c2ccccc2)c1 (optimized conformer: 67.35735812755564 kcal/mol)

>  <smiles>  (28) 
O=C(Cc1cccc(O)c1)Nc1ccccc1Nc1cccc(C(=O)Nc2ccccc2)c1

>  <score_type>  (28) 
oracle

>  <origin>  (28) 
adg

>  <m_score__min__energy>  (28) 
-14.039999999999999

>  <m_primary>  (28) 
energy

$$$$
28:0
     RDKit          3D

 33 34  0  0  0  0  0  0  0  0999 V2000
   63.7550   31.9590   48.3600 N   0  0  0  0  0  0  0  0  0  0  0  0
   62.9070   33.3840   47.8720 S   0  0  0  0  0  0  0  0  0  0  0  0
   62.7910   34.3050   49.0560 O   0  0  0  0  0  0  0  0  0  0  0  0
   63.6730   34.0720   46.7780 O   0  0  0  0  0  0  0  0  0  0  0  0
   61.3040   32.9560   47.2840 C   0  0  0  0  0  0  0  0  0  0  0  0
   60.7110   31.7460   47.6610 C   0  0  0  0  0  0  0  0  0  0  0  0
   59.4350   31.4110   47.1980 C   0  0  0  0  0  0  0  0  0  0  0  0
   58.7250   32.2950   46.3650 C   0  0  0  0  0  0  0  0  0  0  0  0
   57.4180   31.9730   45.8570 N   0  0  0  0  0  0  0  0  0  0  0  0
   57.1050   31.0920   44.7680 C   0  0  0  0  0  0  0  0  0  0  0  0
   55.9110   30.7730   44.5230 O   0  0  0  0  0  0  0  0  0  0  0  0
   58.1760   30.5200   43.9330 C   0  0  0  0  0  0  0  0  0  0  0  0
   58.7530   29.3260   44.1280 C   0  0  0  0  0  0  0  0  0  0  0  0
   58.2330   28.2600   45.0100 C   0  0  0  0  0  0  0  0  0  0  0  0
   59.1100   27.6100   45.8920 C   0  0  0  0  0  0  0  0  0  0  0  0
   58.6270   26.6450   46.7820 C   0  0  0  0  0  0  0  0  0  0  0  0
   57.2640   26.3400   46.8150 C   0  0  0  0  0  0  0  0  0  0  0  0
   56.3780   27.0040   45.9600 C   0  0  0  0  0  0  0  0  0  0  0  0
   55.0210   26.7100   46.0010 O   0  0  0  0  0  0  0  0  0  0  0  0
   56.8590   27.9650   45.0620 C   0  0  0  0  0  0  0  0  0  0  0  0
   59.3350   33.4980   45.9680 C   0  0  0  0  0  0  0  0  0  0  0  0
   58.5170   34.6090   44.8810 Cl  0  0  0  0  0  0  0  0  0  0  0  0
   60.6120   33.8280   46.4360 C   0  0  0  0  0  0  0  0  0  0  0  0
   64.4980   31.7870   47.6470 H   0  0  0  0  0  0  0  0  0  0  0  0
   61.2513   31.0550   48.3248 H   0  0  0  0  0  0  0  0  0  0  0  0
   58.9834   30.4504   47.4868 H   0  0  0  0  0  0  0  0  0  0  0  0
   58.5300   31.1206   43.0821 H   0  0  0  0  0  0  0  0  0  0  0  0
   59.6895   29.1230   43.5878 H   0  0  0  0  0  0  0  0  0  0  0  0
   60.1811   27.8603   45.8834 H   0  0  0  0  0  0  0  0  0  0  0  0
   59.3221   26.1250   47.4576 H   0  0  0  0  0  0  0  0  0  0  0  0
   56.8876   25.5779   47.5132 H   0  0  0  0  0  0  0  0  0  0  0  0
   56.1598   28.4908   44.3952 H   0  0  0  0  0  0  0  0  0  0  0  0
   61.0750   34.7794   46.1352 H   0  0  0  0  0  0  0  0  0  0  0  0
  1  2  1  0
  2  3  2  0
  2  4  2  0
  2  5  1  0
  5  6  2  0
  6  7  1  0
  7  8  2  0
  8  9  1  0
  9 10  1  0
 10 11  2  0
 10 12  1  0
 12 13  2  3
 13 14  1  0
 14 15  2  0
 15 16  1  0
 16 17  2  0
 17 18  1  0
 18 19  1  0
 18 20  2  0
  8 21  1  0
 21 22  1  0
 21 23  2  0
 23  5  1  0
 20 14  1  0
  1 24  1  0
  6 25  1  0
  7 26  1  0
 12 27  1  0
 13 28  1  0
 15 29  1  0
 16 30  1  0
 17 31  1  0
 20 32  1  0
 23 33  1  0
M  CHG  3   1  -1   9  -1  19  -1
M  END
>  <UniqueID>  (29) 
26

>  <SMILES>  (29) 
[NH-]S(=O)(=O)c1ccc([N-]C(=O)C=Cc2cccc([O-])c2)c(Cl)c1

>  <Energy>  (29) 
44.11574582373333

>  <Genealogy>  (29) 
[NH-]S(=O)(=O)c1ccc([N-]C(=O)C=Cc2cccc([O-])c2)c(Cl)c1 (protonated)
[NH-]S(=O)(=O)c1ccc([N-]C(=O)C=Cc2cccc([O-])c2)c(Cl)c1 (3D coordinates assigned)
[NH-]S(=O)(=O)c1ccc([N-]C(=O)C=Cc2cccc([O-])c2)c(Cl)c1 (optimized conformer: 44.11574582373333 kcal/mol)

>  <smiles>  (29) 
NS(=O)(=O)c1ccc(NC(=O)C=Cc2cccc(O)c2)c(Cl)c1

>  <score_type>  (29) 
oracle

>  <origin>  (29) 
adg

>  <m_score__min__energy>  (29) 
-14.380000000000001

>  <m_primary>  (29) 
energy

$$$$
29:0
     RDKit          3D

 35 37  0  0  0  0  0  0  0  0999 V2000
   59.9218   33.3086   48.5299 H   0  0  0  0  0  0  0  0  0  0  0  0
   59.5990   33.7100   47.5580 C   0  0  0  0  0  0  0  0  0  0  0  0
   58.7490   32.9940   46.7750 N   0  0  0  0  0  0  0  0  0  0  0  0
   58.3130   33.4570   45.5690 C   0  0  0  0  0  0  0  0  0  0  0  0
   57.5160   32.7500   44.8220 N   0  0  0  0  0  0  0  0  0  0  0  0
   57.2790   31.3390   44.9330 C   0  0  0  0  0  0  0  0  0  0  0  0
   56.1950   30.8760   44.4920 O   0  0  0  0  0  0  0  0  0  0  0  0
   58.2350   30.4750   45.5750 N   0  0  0  0  0  0  0  0  0  0  0  0
   59.0710   30.9090   46.0260 H   0  0  0  0  0  0  0  0  0  0  0  0
   58.1560   29.0400   45.5780 C   0  0  0  0  0  0  0  0  0  0  0  0
   59.2890   28.2280   45.6090 C   0  0  0  0  0  0  0  0  0  0  0  0
   60.7100   28.6890   45.6240 C   0  0  0  0  0  0  0  0  0  0  0  0
   61.0488   28.7989   46.6647 H   0  0  0  0  0  0  0  0  0  0  0  0
   61.3409   27.9494   45.1092 H   0  0  0  0  0  0  0  0  0  0  0  0
   60.7866   29.6581   45.1092 H   0  0  0  0  0  0  0  0  0  0  0  0
   58.8000   26.6210   45.6840 S   0  0  0  0  0  0  0  0  0  0  0  0
   57.1470   26.9380   45.6750 C   0  0  0  0  0  0  0  0  0  0  0  0
   56.0830   25.9260   45.7430 C   0  0  0  0  0  0  0  0  0  0  0  0
   54.7880   26.2090   45.9820 N   0  0  0  0  0  0  0  0  0  0  0  0
   54.1070   25.0730   45.9830 N   0  0  0  0  0  0  0  0  0  0  0  0
   54.9670   24.0670   45.7330 C   0  0  0  0  0  0  0  0  0  0  0  0
   54.5840   22.6250   45.7200 C   0  0  0  0  0  0  0  0  0  0  0  0
   54.4876   22.2619   46.7539 H   0  0  0  0  0  0  0  0  0  0  0  0
   53.6230   22.5056   45.1983 H   0  0  0  0  0  0  0  0  0  0  0  0
   55.3591   22.0444   45.1983 H   0  0  0  0  0  0  0  0  0  0  0  0
   56.2440   24.5640   45.5850 C   0  0  0  0  0  0  0  0  0  0  0  0
   57.1719   24.0072   45.3877 H   0  0  0  0  0  0  0  0  0  0  0  0
   56.9530   28.3150   45.6230 C   0  0  0  0  0  0  0  0  0  0  0  0
   55.9597   28.7876   45.6177 H   0  0  0  0  0  0  0  0  0  0  0  0
   58.7680   34.6980   45.1040 C   0  0  0  0  0  0  0  0  0  0  0  0
   58.4384   35.0783   44.1259 H   0  0  0  0  0  0  0  0  0  0  0  0
   59.6430   35.4480   45.8920 C   0  0  0  0  0  0  0  0  0  0  0  0
   60.0015   36.4261   45.5389 H   0  0  0  0  0  0  0  0  0  0  0  0
   60.0620   34.9550   47.1280 C   0  0  0  0  0  0  0  0  0  0  0  0
   60.7492   35.5404   47.7565 H   0  0  0  0  0  0  0  0  0  0  0  0
  1  2  1  0
  2  3  1  0
  3  4  1  0
  4  5  2  0
  5  6  1  0
  6  7  2  0
  6  8  1  0
  8  9  1  0
  8 10  1  0
 10 11  2  0
 11 12  1  0
 12 13  1  0
 12 14  1  0
 12 15  1  0
 11 16  1  0
 16 17  1  0
 17 18  1  0
 18 19  1  0
 19 20  1  0
 20 21  2  0
 21 22  1  0
 22 23  1  0
 22 24  1  0
 22 25  1  0
 21 26  1  0
 26 27  1  0
 17 28  2  0
 28 29  1  0
  4 30  1  0
 30 31  1  0
 30 32  2  0
 32 33  1  0
 32 34  1  0
 34 35  1  0
 34  2  2  0
 28 10  1  0
 26 18  2  0
M  CHG  2   3  -1  19  -1
M  END
>  <UniqueID>  (30) 
27

>  <SMILES>  (30) 
Cc1cc(-c2cc(NC(=O)/N=c3/cccc[n-]3)c(C)s2)[n-]n1

>  <Energy>  (30) 
98.53759890511007

>  <Genealogy>  (30) 
Cc1cc(-c2cc(NC(=O)N=c3cccc[n-]3)c(C)s2)[n-]n1 (protonated)
Cc1cc(-c2cc(NC(=O)/N=c3/cccc[n-]3)c(C)s2)[n-]n1 (cis-trans isomerization)
Cc1cc(-c2cc(NC(=O)/N=c3/cccc[n-]3)c(C)s2)[n-]n1 (3D coordinates assigned)
Cc1cc(-c2cc(NC(=O)/N=c3/cccc[n-]3)c(C)s2)[n-]n1 (optimized conformer: 98.53759890511007 kcal/mol)

>  <smiles>  (30) 
Cc1cc(-c2cc(NC(=O)N=c3cccc[nH]3)c(C)s2)[nH]n1

>  <score_type>  (30) 
oracle

>  <origin>  (30) 
adg

>  <m_score__min__energy>  (30) 
-11.390000000000001

>  <m_primary>  (30) 
energy

$$$$
30:0
     RDKit          3D

 45 48  0  0  0  0  0  0  0  0999 V2000
   55.5410   22.4720   43.1770 O   0  0  0  0  0  0  0  0  0  0  0  0
   55.4120   23.2560   44.1530 C   0  0  0  0  0  0  0  0  0  0  0  0
   56.6410   23.8440   44.7930 C   0  0  0  0  0  0  0  0  0  0  0  0
   56.3490   24.3630   46.2050 C   0  0  0  0  0  0  0  0  0  0  0  0
   56.1850   25.8530   46.2150 C   0  0  0  0  0  0  0  0  0  0  0  0
   55.0490   26.3530   45.9940 O   0  0  0  0  0  0  0  0  0  0  0  0
   57.3370   26.6890   46.3800 N   0  0  0  0  0  0  0  0  0  0  0  0
   57.5150   28.0150   45.8610 C   0  0  0  0  0  0  0  0  0  0  0  0
   57.0220   28.3960   44.6040 C   0  0  0  0  0  0  0  0  0  0  0  0
   57.2140   29.6980   44.1360 C   0  0  0  0  0  0  0  0  0  0  0  0
   57.8830   30.6490   44.9260 C   0  0  0  0  0  0  0  0  0  0  0  0
   58.3550   30.2820   46.2020 C   0  0  0  0  0  0  0  0  0  0  0  0
   58.1590   28.9660   46.6610 C   0  0  0  0  0  0  0  0  0  0  0  0
   59.0450   31.2820   47.0500 C   0  0  0  0  0  0  0  0  0  0  0  0
   59.5040   30.9420   48.1750 O   0  0  0  0  0  0  0  0  0  0  0  0
   59.1980   32.6810   46.5800 C   0  0  0  0  0  0  0  0  0  0  0  0
   59.8080   33.6510   47.3970 C   0  0  0  0  0  0  0  0  0  0  0  0
   59.9330   34.9680   46.9540 C   0  0  0  0  0  0  0  0  0  0  0  0
   59.4590   35.3330   45.6950 C   0  0  0  0  0  0  0  0  0  0  0  0
   58.8550   34.3810   44.8730 C   0  0  0  0  0  0  0  0  0  0  0  0
   58.7190   33.0480   45.3050 C   0  0  0  0  0  0  0  0  0  0  0  0
   58.0760   32.0360   44.4360 C   0  0  0  0  0  0  0  0  0  0  0  0
   57.6890   32.3560   43.2790 O   0  0  0  0  0  0  0  0  0  0  0  0
   54.0960   23.6750   44.5450 N   0  0  0  0  0  0  0  0  0  0  0  0
   53.3000   23.0710   45.3830 C   0  0  0  0  0  0  0  0  0  0  0  0
   53.6520   22.8320   46.7290 C   0  0  0  0  0  0  0  0  0  0  0  0
   52.7450   22.1870   47.5700 C   0  0  0  0  0  0  0  0  0  0  0  0
   51.5120   21.7660   47.0750 C   0  0  0  0  0  0  0  0  0  0  0  0
   51.2060   21.9880   45.7330 C   0  0  0  0  0  0  0  0  0  0  0  0
   52.0960   22.6260   44.9280 N   0  0  0  0  0  0  0  0  0  0  0  0
   57.4187   23.0683   44.8516 H   0  0  0  0  0  0  0  0  0  0  0  0
   56.9769   24.6917   44.1777 H   0  0  0  0  0  0  0  0  0  0  0  0
   55.4225   23.8981   46.5731 H   0  0  0  0  0  0  0  0  0  0  0  0
   57.1991   24.1031   46.8529 H   0  0  0  0  0  0  0  0  0  0  0  0
   56.4815   27.6657   43.9839 H   0  0  0  0  0  0  0  0  0  0  0  0
   56.8388   29.9814   43.1416 H   0  0  0  0  0  0  0  0  0  0  0  0
   58.5166   28.6811   47.6615 H   0  0  0  0  0  0  0  0  0  0  0  0
   60.1882   33.3693   48.3900 H   0  0  0  0  0  0  0  0  0  0  0  0
   60.4073   35.7210   47.6005 H   0  0  0  0  0  0  0  0  0  0  0  0
   59.5612   36.3722   45.3493 H   0  0  0  0  0  0  0  0  0  0  0  0
   58.4824   34.6741   43.8804 H   0  0  0  0  0  0  0  0  0  0  0  0
   54.6327   23.1515   47.1113 H   0  0  0  0  0  0  0  0  0  0  0  0
   53.0031   22.0105   48.6246 H   0  0  0  0  0  0  0  0  0  0  0  0
   50.7890   21.2646   47.7352 H   0  0  0  0  0  0  0  0  0  0  0  0
   50.2432   21.6464   45.3253 H   0  0  0  0  0  0  0  0  0  0  0  0
  1  2  2  0
  2  3  1  0
  3  4  1  0
  4  5  1  0
  5  6  2  0
  5  7  1  0
  7  8  1  0
  8  9  2  0
  9 10  1  0
 10 11  2  0
 11 12  1  0
 12 13  2  0
 12 14  1  0
 14 15  2  0
 14 16  1  0
 16 17  2  0
 17 18  1  0
 18 19  2  0
 19 20  1  0
 20 21  2  0
 21 22  1  0
 22 23  2  0
  2 24  1  0
 24 25  2  3
 25 26  1  0
 26 27  2  0
 27 28  1  0
 28 29  2  0
 29 30  1  0
 13  8  1  0
 21 16  1  0
 30 25  1  0
 22 11  1  0
  3 31  1  0
  3 32  1  0
  4 33  1  0
  4 34  1  0
  9 35  1  0
 10 36  1  0
 13 37  1  0
 17 38  1  0
 18 39  1  0
 19 40  1  0
 20 41  1  0
 26 42  1  0
 27 43  1  0
 28 44  1  0
 29 45  1  0
M  CHG  2   7  -1  30  -1
M  END
>  <UniqueID>  (31) 
28

>  <SMILES>  (31) 
O=C(CCC(=O)[N-]c1ccc2c(c1)C(=O)c1ccccc1C2=O)N=c1cccc[n-]1

>  <Energy>  (31) 
64.01262384609493

>  <Genealogy>  (31) 
O=C(CCC(=O)[N-]c1ccc2c(c1)C(=O)c1ccccc1C2=O)N=c1cccc[n-]1 (protonated)
O=C(CCC(=O)[N-]c1ccc2c(c1)C(=O)c1ccccc1C2=O)N=c1cccc[n-]1 (3D coordinates assigned)
O=C(CCC(=O)[N-]c1ccc2c(c1)C(=O)c1ccccc1C2=O)N=c1cccc[n-]1 (nonaromatic ring conformer: 64.01262384609493 kcal/mol)

>  <smiles>  (31) 
O=C(CCC(=O)Nc1ccc2c(c1)C(=O)c1ccccc1C2=O)N=c1cccc[nH]1

>  <score_type>  (31) 
oracle

>  <origin>  (31) 
adg

>  <m_score__min__energy>  (31) 
-13.49

>  <m_primary>  (31) 
energy

$$$$
31:0
     RDKit          3D

 54 57  0  0  0  0  0  0  0  0999 V2000
   56.1080   26.6970   46.1900 O   0  0  0  0  0  0  0  0  0  0  0  0
   57.0060   27.4880   45.7940 C   0  0  0  0  0  0  0  0  0  0  0  0
   58.3730   27.2970   46.1780 N   0  0  0  0  0  0  0  0  0  0  0  0
   59.1660   28.1870   46.9760 C   0  0  0  0  0  0  0  0  0  0  0  0
   59.9770   29.2050   46.4690 C   0  0  0  0  0  0  0  0  0  0  0  0
   60.7700   29.9280   47.7620 S   0  0  0  0  0  0  0  0  0  0  0  0
   60.1120   28.9530   48.9660 C   0  0  0  0  0  0  0  0  0  0  0  0
   60.4430   29.0350   50.4350 C   0  0  0  0  0  0  0  0  0  0  0  0
   60.3600   30.4080   50.9840 N   0  0  0  0  0  0  0  0  0  0  0  0
   59.2770   31.2160   50.3730 C   0  0  0  0  0  0  0  0  0  0  0  0
   59.4340   32.7090   50.6770 C   0  0  0  0  0  0  0  0  0  0  0  0
   60.7860   33.2660   50.1670 C   0  0  0  0  0  0  0  0  0  0  0  0
   60.6190   34.0050   48.8580 C   0  0  0  0  0  0  0  0  0  0  0  0
   59.7580   34.9230   48.7840 O   0  0  0  0  0  0  0  0  0  0  0  0
   61.3860   33.6490   47.6960 N   0  0  0  0  0  0  0  0  0  0  0  0
   61.0530   34.1270   46.3600 C   0  0  0  0  0  0  0  0  0  0  0  0
   59.6470   33.7250   46.0210 C   0  0  0  0  0  0  0  0  0  0  0  0
   59.1490   32.4790   46.4220 C   0  0  0  0  0  0  0  0  0  0  0  0
   57.8560   32.0930   46.0600 C   0  0  0  0  0  0  0  0  0  0  0  0
   57.0590   32.9420   45.2910 C   0  0  0  0  0  0  0  0  0  0  0  0
   57.5520   34.1860   44.8810 C   0  0  0  0  0  0  0  0  0  0  0  0
   58.8450   34.5730   45.2370 C   0  0  0  0  0  0  0  0  0  0  0  0
   61.8870   32.1840   50.0790 C   0  0  0  0  0  0  0  0  0  0  0  0
   61.6710   31.0890   51.1310 C   0  0  0  0  0  0  0  0  0  0  0  0
   59.2400   28.0470   48.3680 C   0  0  0  0  0  0  0  0  0  0  0  0
   56.6610   28.5850   44.8820 C   0  0  0  0  0  0  0  0  0  0  0  0
   57.4910   29.1400   43.9290 C   0  0  0  0  0  0  0  0  0  0  0  0
   56.7470   30.1230   43.3180 C   0  0  0  0  0  0  0  0  0  0  0  0
   55.5120   30.1090   43.9330 C   0  0  0  0  0  0  0  0  0  0  0  0
   55.4900   29.1810   44.8620 O   0  0  0  0  0  0  0  0  0  0  0  0
   60.0786   29.4842   45.4099 H   0  0  0  0  0  0  0  0  0  0  0  0
   59.7378   28.3962   50.9869 H   0  0  0  0  0  0  0  0  0  0  0  0
   61.4853   28.7030   50.5506 H   0  0  0  0  0  0  0  0  0  0  0  0
   59.2979   31.0714   49.2827 H   0  0  0  0  0  0  0  0  0  0  0  0
   58.3205   30.8809   50.8005 H   0  0  0  0  0  0  0  0  0  0  0  0
   58.6163   33.2588   50.1881 H   0  0  0  0  0  0  0  0  0  0  0  0
   59.4035   32.8384   51.7689 H   0  0  0  0  0  0  0  0  0  0  0  0
   61.1304   33.9905   50.9197 H   0  0  0  0  0  0  0  0  0  0  0  0
   62.1120   32.9050   47.7600 H   0  0  0  0  0  0  0  0  0  0  0  0
   61.1381   35.2233   46.3310 H   0  0  0  0  0  0  0  0  0  0  0  0
   61.7469   33.6860   45.6292 H   0  0  0  0  0  0  0  0  0  0  0  0
   59.7763   31.8038   47.0224 H   0  0  0  0  0  0  0  0  0  0  0  0
   57.4649   31.1167   46.3822 H   0  0  0  0  0  0  0  0  0  0  0  0
   56.0422   32.6332   45.0068 H   0  0  0  0  0  0  0  0  0  0  0  0
   56.9218   34.8575   44.2794 H   0  0  0  0  0  0  0  0  0  0  0  0
   59.2379   35.5447   44.9031 H   0  0  0  0  0  0  0  0  0  0  0  0
   61.8646   31.7294   49.0776 H   0  0  0  0  0  0  0  0  0  0  0  0
   62.8607   32.6605   50.2658 H   0  0  0  0  0  0  0  0  0  0  0  0
   62.4705   30.3403   51.0297 H   0  0  0  0  0  0  0  0  0  0  0  0
   61.6884   31.5690   52.1206 H   0  0  0  0  0  0  0  0  0  0  0  0
   58.6667   27.2965   48.9320 H   0  0  0  0  0  0  0  0  0  0  0  0
   58.5298   28.8559   43.7049 H   0  0  0  0  0  0  0  0  0  0  0  0
   57.0716   30.7867   42.5030 H   0  0  0  0  0  0  0  0  0  0  0  0
   54.6726   30.7746   43.6830 H   0  0  0  0  0  0  0  0  0  0  0  0
  1  2  2  0
  2  3  1  0
  3  4  1  0
  4  5  2  0
  5  6  1  0
  6  7  1  0
  7  8  1  0
  8  9  1  0
  9 10  1  0
 10 11  1  0
 11 12  1  0
 12 13  1  0
 13 14  2  0
 13 15  1  0
 15 16  1  0
 16 17  1  0
 17 18  2  0
 18 19  1  0
 19 20  2  0
 20 21  1  0
 21 22  2  0
 12 23  1  0
 23 24  1  0
  7 25  2  0
  2 26  1  0
 26 27  2  0
 27 28  1  0
 28 29  2  0
 29 30  1  0
 25  4  1  0
 30 26  1  0
 24  9  1  0
 22 17  1  0
  5 31  1  0
  8 32  1  0
  8 33  1  0
 10 34  1  0
 10 35  1  0
 11 36  1  0
 11 37  1  0
 12 38  1  0
 15 39  1  0
 16 40  1  0
 16 41  1  0
 18 42  1  0
 19 43  1  0
 20 44  1  0
 21 45  1  0
 22 46  1  0
 23 47  1  0
 23 48  1  0
 24 49  1  0
 24 50  1  0
 25 51  1  0
 27 52  1  0
 28 53  1  0
 29 54  1  0
M  CHG  1   3  -1
M  END
>  <UniqueID>  (32) 
29

>  <SMILES>  (32) 
O=C([N-]c1csc(CN2CCC(C(=O)NCc3ccccc3)CC2)c1)c1ccco1

>  <Energy>  (32) 
116.03037804405163

>  <Genealogy>  (32) 
O=C([N-]c1csc(CN2CCC(C(=O)NCc3ccccc3)CC2)c1)c1ccco1 (protonated)
O=C([N-]c1csc(CN2CCC(C(=O)NCc3ccccc3)CC2)c1)c1ccco1 (3D coordinates assigned)
O=C([N-]c1csc(CN2CCC(C(=O)NCc3ccccc3)CC2)c1)c1ccco1 (nonaromatic ring conformer: 116.03037804405163 kcal/mol)

>  <smiles>  (32) 
O=C(Nc1csc(CN2CCC(C(=O)NCc3ccccc3)CC2)c1)c1ccco1

>  <score_type>  (32) 
oracle

>  <origin>  (32) 
adg

>  <m_score__min__energy>  (32) 
-11.59

>  <m_primary>  (32) 
energy

$$$$
32:0
     RDKit          3D

 49 51  0  0  0  0  0  0  0  0999 V2000
   58.1060   25.0480   46.6530 C   0  0  0  0  0  0  0  0  0  0  0  0
   58.8670   26.2770   47.1370 C   0  0  0  0  0  0  0  0  0  0  0  0
   58.5320   27.4650   46.2970 C   0  0  0  0  0  0  0  0  0  0  0  0
   59.4440   28.2350   45.6740 N   0  0  0  0  0  0  0  0  0  0  0  0
   58.7650   29.1920   45.0630 N   0  0  0  0  0  0  0  0  0  0  0  0
   57.4650   28.9690   45.3350 C   0  0  0  0  0  0  0  0  0  0  0  0
   56.3540   29.8120   44.8660 C   0  0  0  0  0  0  0  0  0  0  0  0
   55.1880   29.3360   44.8590 O   0  0  0  0  0  0  0  0  0  0  0  0
   56.5480   31.1790   44.4840 N   0  0  0  0  0  0  0  0  0  0  0  0
   57.4600   32.1050   45.0900 C   0  0  0  0  0  0  0  0  0  0  0  0
   57.3670   33.4830   44.8550 C   0  0  0  0  0  0  0  0  0  0  0  0
   58.2380   34.3600   45.4950 C   0  0  0  0  0  0  0  0  0  0  0  0
   59.2060   33.8820   46.3820 C   0  0  0  0  0  0  0  0  0  0  0  0
   59.9930   34.8000   46.9930 F   0  0  0  0  0  0  0  0  0  0  0  0
   59.3270   32.4900   46.6420 C   0  0  0  0  0  0  0  0  0  0  0  0
   60.3590   31.9030   47.6430 C   0  0  2  0  0  0  0  0  0  0  0  0
   61.8040   32.3150   47.2420 C   0  0  0  0  0  0  0  0  0  0  0  0
   60.3490   30.4320   47.5280 N   0  0  0  0  0  0  0  0  0  0  0  0
   60.6710   29.5820   48.6380 C   0  0  0  0  0  0  0  0  0  0  0  0
   60.7680   28.2990   48.4770 N   0  0  0  0  0  0  0  0  0  0  0  0
   60.8490   30.1330   49.9080 O   0  0  0  0  0  0  0  0  0  0  0  0
   60.9280   31.5410   50.1160 C   0  0  0  0  0  0  0  0  0  0  0  0
   59.9980   32.3110   49.1420 C   0  0  0  0  0  0  0  0  0  0  0  0
   58.5300   31.9380   49.4880 C   0  0  0  0  0  0  0  0  0  0  0  0
   60.1560   33.8260   49.4220 C   0  0  0  0  0  0  0  0  0  0  0  0
   58.4100   31.6240   45.9960 C   0  0  0  0  0  0  0  0  0  0  0  0
   57.3150   27.9140   46.0990 O   0  0  0  0  0  0  0  0  0  0  0  0
   57.7496   24.4724   47.5200 H   0  0  0  0  0  0  0  0  0  0  0  0
   57.2460   25.3652   46.0449 H   0  0  0  0  0  0  0  0  0  0  0  0
   58.7732   24.4195   46.0449 H   0  0  0  0  0  0  0  0  0  0  0  0
   58.5930   26.4839   48.1820 H   0  0  0  0  0  0  0  0  0  0  0  0
   59.9464   26.0799   47.0594 H   0  0  0  0  0  0  0  0  0  0  0  0
   56.6048   33.8723   44.1640 H   0  0  0  0  0  0  0  0  0  0  0  0
   58.1635   35.4401   45.3006 H   0  0  0  0  0  0  0  0  0  0  0  0
   62.4019   32.4855   48.1495 H   0  0  0  0  0  0  0  0  0  0  0  0
   62.2624   31.5118   46.6464 H   0  0  0  0  0  0  0  0  0  0  0  0
   61.7698   33.2392   46.6464 H   0  0  0  0  0  0  0  0  0  0  0  0
   60.3280   30.0060   46.5720 H   0  0  0  0  0  0  0  0  0  0  0  0
   60.5540   27.8670   47.5510 H   0  0  0  0  0  0  0  0  0  0  0  0
   61.0590   27.6770   49.2630 H   0  0  0  0  0  0  0  0  0  0  0  0
   60.6289   31.7672   51.1501 H   0  0  0  0  0  0  0  0  0  0  0  0
   61.9640   31.8604   49.9301 H   0  0  0  0  0  0  0  0  0  0  0  0
   58.4074   31.9068   50.5807 H   0  0  0  0  0  0  0  0  0  0  0  0
   57.8504   32.6920   49.0641 H   0  0  0  0  0  0  0  0  0  0  0  0
   58.2928   30.9510   49.0641 H   0  0  0  0  0  0  0  0  0  0  0  0
   60.1740   33.9982   50.5083 H   0  0  0  0  0  0  0  0  0  0  0  0
   61.0964   34.1848   48.9783 H   0  0  0  0  0  0  0  0  0  0  0  0
   59.3098   34.3711   48.9783 H   0  0  0  0  0  0  0  0  0  0  0  0
   58.4466   30.5462   46.2128 H   0  0  0  0  0  0  0  0  0  0  0  0
  1  2  1  0
  2  3  1  0
  3  4  2  0
  4  5  1  0
  5  6  2  0
  6  7  1  0
  7  8  2  0
  7  9  1  0
  9 10  1  0
 10 11  2  0
 11 12  1  0
 12 13  2  0
 13 14  1  0
 13 15  1  0
 15 16  1  0
 16 17  1  6
 16 18  1  0
 18 19  1  0
 19 20  2  0
 19 21  1  0
 21 22  1  0
 22 23  1  0
 23 24  1  0
 23 25  1  0
 15 26  2  0
  6 27  1  0
 27  3  1  0
 26 10  1  0
 23 16  1  0
  1 28  1  0
  1 29  1  0
  1 30  1  0
  2 31  1  0
  2 32  1  0
 11 33  1  0
 12 34  1  0
 17 35  1  0
 17 36  1  0
 17 37  1  0
 18 38  1  0
 20 39  1  0
 20 40  1  0
 22 41  1  0
 22 42  1  0
 24 43  1  0
 24 44  1  0
 24 45  1  0
 25 46  1  0
 25 47  1  0
 25 48  1  0
 26 49  1  0
M  CHG  2   9  -1  20   1
M  END
>  <UniqueID>  (33) 
30

>  <SMILES>  (33) 
CCc1nnc(C(=O)[N-]c2ccc(F)c([C@]3(C)NC(=[NH2+])OCC3(C)C)c2)o1

>  <Energy>  (33) 
94.12146911732081

>  <Genealogy>  (33) 
CCc1nnc(C(=O)[N-]c2ccc(F)c(C3(C)NC(=[NH2+])OCC3(C)C)c2)o1 (protonated)
CCc1nnc(C(=O)[N-]c2ccc(F)c([C@]3(C)NC(=[NH2+])OCC3(C)C)c2)o1 (chirality)
CCc1nnc(C(=O)[N-]c2ccc(F)c([C@]3(C)NC(=[NH2+])OCC3(C)C)c2)o1 (3D coordinates assigned)
CCc1nnc(C(=O)[N-]c2ccc(F)c([C@]3(C)NC(=[NH2+])OCC3(C)C)c2)o1 (nonaromatic ring conformer: 94.12146911732081 kcal/mol)

>  <smiles>  (33) 
CCc1nnc(C(=O)Nc2ccc(F)c(C3(C)NC(=N)OCC3(C)C)c2)o1

>  <score_type>  (33) 
oracle

>  <origin>  (33) 
adg

>  <m_score__min__energy>  (33) 
-9.2400000000000002

>  <m_primary>  (33) 
energy

$$$$
33:0
     RDKit          3D

 53 55  0  0  0  0  0  0  0  0999 V2000
   53.6620   22.6010   47.6110 C   0  0  0  0  0  0  0  0  0  0  0  0
   53.3940   22.0840   46.1850 C   0  0  0  0  0  0  0  0  0  0  0  0
   53.9120   20.6340   46.1020 C   0  0  0  0  0  0  0  0  0  0  0  0
   51.8710   22.1460   45.9150 C   0  0  0  0  0  0  0  0  0  0  0  0
   51.6020   22.9670   44.8110 O   0  0  0  0  0  0  0  0  0  0  0  0
   54.1290   22.9690   45.2680 N   0  0  0  0  0  0  0  0  0  0  0  0
   54.4870   24.3610   45.3340 C   0  0  0  0  0  0  0  0  0  0  0  0
   53.5900   25.1790   45.6730 O   0  0  0  0  0  0  0  0  0  0  0  0
   55.8830   24.8850   45.0980 C   0  0  2  0  0  0  0  0  0  0  0  0
   56.9210   23.7460   45.2050 C   0  0  0  0  0  0  0  0  0  0  0  0
   56.9370   23.0920   46.5570 C   0  0  0  0  0  0  0  0  0  0  0  0
   57.0770   21.7480   46.8050 C   0  0  0  0  0  0  0  0  0  0  0  0
   57.0050   21.5420   48.1310 N   0  0  0  0  0  0  0  0  0  0  0  0
   56.8180   22.7760   48.6470 C   0  0  0  0  0  0  0  0  0  0  0  0
   56.7660   23.7500   47.7150 N   0  0  0  0  0  0  0  0  0  0  0  0
   56.1680   25.9540   46.0610 N   0  0  0  0  0  0  0  0  0  0  0  0
   57.4500   26.5280   46.3560 C   0  0  0  0  0  0  0  0  0  0  0  0
   58.3630   25.7690   46.7760 O   0  0  0  0  0  0  0  0  0  0  0  0
   57.7310   27.9720   46.1890 C   0  0  0  0  0  0  0  0  0  0  0  0
   58.9190   28.4770   46.6150 N   0  0  0  0  0  0  0  0  0  0  0  0
   59.2430   29.7900   46.4850 C   0  0  0  0  0  0  0  0  0  0  0  0
   58.3470   30.6840   45.8800 C   0  0  0  0  0  0  0  0  0  0  0  0
   58.6890   32.1220   45.7330 C   0  0  0  0  0  0  0  0  0  0  0  0
   57.8880   32.9710   44.9450 C   0  0  0  0  0  0  0  0  0  0  0  0
   58.2130   34.3250   44.8070 C   0  0  0  0  0  0  0  0  0  0  0  0
   59.3370   34.8450   45.4540 C   0  0  0  0  0  0  0  0  0  0  0  0
   59.6490   36.1580   45.3200 F   0  0  0  0  0  0  0  0  0  0  0  0
   60.1390   34.0120   46.2390 C   0  0  0  0  0  0  0  0  0  0  0  0
   59.8190   32.6590   46.3790 C   0  0  0  0  0  0  0  0  0  0  0  0
   57.1180   30.1840   45.4200 C   0  0  0  0  0  0  0  0  0  0  0  0
   56.8020   28.8280   45.5720 C   0  0  0  0  0  0  0  0  0  0  0  0
   55.5710   28.3440   45.1300 O   0  0  0  0  0  0  0  0  0  0  0  0
   53.2839   21.8717   48.3425 H   0  0  0  0  0  0  0  0  0  0  0  0
   54.7441   22.7369   47.7544 H   0  0  0  0  0  0  0  0  0  0  0  0
   53.1493   23.5636   47.7544 H   0  0  0  0  0  0  0  0  0  0  0  0
   54.0540   20.2366   47.1179 H   0  0  0  0  0  0  0  0  0  0  0  0
   53.1800   20.0133   45.5645 H   0  0  0  0  0  0  0  0  0  0  0  0
   54.8716   20.6176   45.5645 H   0  0  0  0  0  0  0  0  0  0  0  0
   51.4977   21.1315   45.7114 H   0  0  0  0  0  0  0  0  0  0  0  0
   51.3691   22.5637   46.8002 H   0  0  0  0  0  0  0  0  0  0  0  0
   52.2860   23.6860   44.8280 H   0  0  0  0  0  0  0  0  0  0  0  0
   55.9505   25.2955   44.0797 H   0  0  0  0  0  0  0  0  0  0  0  0
   56.6833   22.9829   44.4492 H   0  0  0  0  0  0  0  0  0  0  0  0
   57.9143   24.1896   45.0422 H   0  0  0  0  0  0  0  0  0  0  0  0
   57.2239   20.9683   46.0431 H   0  0  0  0  0  0  0  0  0  0  0  0
   56.7176   22.9687   49.7253 H   0  0  0  0  0  0  0  0  0  0  0  0
   60.2126   30.1538   46.8559 H   0  0  0  0  0  0  0  0  0  0  0  0
   57.0012   32.5671   44.4347 H   0  0  0  0  0  0  0  0  0  0  0  0
   57.5828   34.9809   44.1884 H   0  0  0  0  0  0  0  0  0  0  0  0
   61.0239   34.4223   46.7476 H   0  0  0  0  0  0  0  0  0  0  0  0
   60.4544   32.0088   46.9983 H   0  0  0  0  0  0  0  0  0  0  0  0
   56.3987   30.8618   44.9371 H   0  0  0  0  0  0  0  0  0  0  0  0
   55.1420   27.5240   45.5430 H   0  0  0  0  0  0  0  0  0  0  0  0
  1  2  1  0
  2  3  1  0
  2  4  1  0
  4  5  1  0
  2  6  1  0
  6  7  1  0
  7  8  2  0
  7  9  1  0
  9 10  1  0
 10 11  1  0
 11 12  2  0
 12 13  1  0
 13 14  1  0
 14 15  2  0
  9 16  1  0
 16 17  1  0
 17 18  2  0
 17 19  1  0
 19 20  2  0
 20 21  1  0
 21 22  2  0
 22 23  1  0
 23 24  2  0
 24 25  1  0
 25 26  2  0
 26 27  1  0
 26 28  1  0
 28 29  2  0
 22 30  1  0
 30 31  2  0
 31 32  1  0
 15 11  1  0
 31 19  1  0
 29 23  1  0
  1 33  1  0
  1 34  1  0
  1 35  1  0
  3 36  1  0
  3 37  1  0
  3 38  1  0
  4 39  1  0
  4 40  1  0
  5 41  1  0
  9 42  1  6
 10 43  1  0
 10 44  1  0
 12 45  1  0
 14 46  1  0
 21 47  1  0
 24 48  1  0
 25 49  1  0
 28 50  1  0
 29 51  1  0
 30 52  1  0
 32 53  1  0
M  CHG  3   6  -1  13  -1  16  -1
M  END
>  <UniqueID>  (34) 
31

>  <SMILES>  (34) 
CC(C)(CO)[N-]C(=O)[C@H](Cc1c[n-]cn1)[N-]C(=O)c1ncc(-c2ccc(F)cc2)cc1O

>  <Energy>  (34) 
88.54594240825247

>  <Genealogy>  (34) 
CC(C)(CO)[N-]C(=O)C(Cc1c[n-]cn1)[N-]C(=O)c1ncc(-c2ccc(F)cc2)cc1O (protonated)
CC(C)(CO)[N-]C(=O)[C@H](Cc1c[n-]cn1)[N-]C(=O)c1ncc(-c2ccc(F)cc2)cc1O (chirality)
CC(C)(CO)[N-]C(=O)[C@H](Cc1c[n-]cn1)[N-]C(=O)c1ncc(-c2ccc(F)cc2)cc1O (3D coordinates assigned)
CC(C)(CO)[N-]C(=O)[C@H](Cc1c[n-]cn1)[N-]C(=O)c1ncc(-c2ccc(F)cc2)cc1O (optimized conformer: 88.54594240825247 kcal/mol)

>  <smiles>  (34) 
CC(C)(CO)NC(=O)C(Cc1c[nH]cn1)NC(=O)c1ncc(-c2ccc(F)cc2)cc1O

>  <score_type>  (34) 
oracle

>  <origin>  (34) 
adg

>  <m_score__min__energy>  (34) 
-12.390000000000001

>  <m_primary>  (34) 
energy

$$$$
34:0
     RDKit          3D

 61 64  0  0  0  0  0  0  0  0999 V2000
   60.5570   26.1740   50.2880 O   0  0  0  0  0  0  0  0  0  0  0  0
   60.7400   27.0430   49.3930 C   0  0  0  0  0  0  0  0  0  0  0  0
   60.7950   26.6600   48.0170 N   0  0  0  0  0  0  0  0  0  0  0  0
   59.9980   27.2250   46.9650 C   0  0  0  0  0  0  0  0  0  0  0  0
   58.6620   26.8250   46.8370 C   0  0  0  0  0  0  0  0  0  0  0  0
   57.8690   27.3270   45.8000 C   0  0  0  0  0  0  0  0  0  0  0  0
   58.4100   28.2260   44.8730 C   0  0  0  0  0  0  0  0  0  0  0  0
   57.3960   28.8650   43.5400 S   0  0  0  0  0  0  0  0  0  0  0  0
   56.4120   29.9480   44.6240 C   0  0  0  0  0  0  0  0  0  0  0  0
   55.1890   29.3530   44.8650 F   0  0  0  0  0  0  0  0  0  0  0  0
   56.2080   31.1700   44.0100 F   0  0  0  0  0  0  0  0  0  0  0  0
   59.7520   28.6100   44.9800 C   0  0  0  0  0  0  0  0  0  0  0  0
   60.5430   28.1140   46.0190 C   0  0  0  0  0  0  0  0  0  0  0  0
   60.9530   28.4140   49.7450 N   0  0  0  0  0  0  0  0  0  0  0  0
   59.9370   29.3650   50.0990 C   0  0  0  0  0  0  0  0  0  0  0  0
   59.2460   29.1980   51.3040 C   0  0  0  0  0  0  0  0  0  0  0  0
   58.3140   30.1490   51.7230 C   0  0  0  0  0  0  0  0  0  0  0  0
   58.0630   31.2910   50.9530 C   0  0  0  0  0  0  0  0  0  0  0  0
   57.1430   32.2260   51.4340 O   0  0  0  0  0  0  0  0  0  0  0  0
   58.7450   31.4700   49.7280 C   0  0  0  0  0  0  0  0  0  0  0  0
   58.5100   32.6780   48.8480 C   0  0  0  0  0  0  0  0  0  0  0  0
   57.8100   32.3240   47.5920 N   0  0  0  0  0  0  0  0  0  0  0  0
   58.6370   31.4340   46.7510 C   0  0  0  0  0  0  0  0  0  0  0  0
   59.7720   32.2010   46.0350 C   0  0  0  0  0  0  0  0  0  0  0  0
   59.3460   33.4910   45.4320 N   0  0  0  0  0  0  0  0  0  0  0  0
   60.0670   34.6470   46.0170 C   0  0  0  0  0  0  0  0  0  0  0  0
   61.2110   34.2030   46.8940 C   0  0  0  0  0  0  0  0  0  0  0  0
   62.4310   33.8020   46.3230 C   0  0  0  0  0  0  0  0  0  0  0  0
   63.4980   33.4190   47.1410 C   0  0  0  0  0  0  0  0  0  0  0  0
   63.3530   33.4260   48.5310 C   0  0  0  0  0  0  0  0  0  0  0  0
   64.3910   33.0620   49.3220 F   0  0  0  0  0  0  0  0  0  0  0  0
   62.1380   33.8110   49.1050 C   0  0  0  0  0  0  0  0  0  0  0  0
   61.0680   34.1950   48.2900 C   0  0  0  0  0  0  0  0  0  0  0  0
   57.8780   33.6630   45.4350 C   0  0  0  0  0  0  0  0  0  0  0  0
   57.2820   33.4990   46.8460 C   0  0  0  0  0  0  0  0  0  0  0  0
   59.6820   30.5060   49.3190 C   0  0  0  0  0  0  0  0  0  0  0  0
   58.2337   26.1116   47.5565 H   0  0  0  0  0  0  0  0  0  0  0  0
   56.8179   27.0148   45.7125 H   0  0  0  0  0  0  0  0  0  0  0  0
   56.9510   30.1031   45.5703 H   0  0  0  0  0  0  0  0  0  0  0  0
   60.1846   29.3039   44.2442 H   0  0  0  0  0  0  0  0  0  0  0  0
   61.5967   28.4194   46.0985 H   0  0  0  0  0  0  0  0  0  0  0  0
   59.4385   28.3111   51.9256 H   0  0  0  0  0  0  0  0  0  0  0  0
   57.7711   29.9996   52.6680 H   0  0  0  0  0  0  0  0  0  0  0  0
   56.2130   32.3320   51.0560 H   0  0  0  0  0  0  0  0  0  0  0  0
   57.8992   33.4066   49.4013 H   0  0  0  0  0  0  0  0  0  0  0  0
   59.4906   33.0996   48.5822 H   0  0  0  0  0  0  0  0  0  0  0  0
   59.0819   30.6558   47.3886 H   0  0  0  0  0  0  0  0  0  0  0  0
   57.9863   30.9945   45.9806 H   0  0  0  0  0  0  0  0  0  0  0  0
   60.5654   32.4077   46.7683 H   0  0  0  0  0  0  0  0  0  0  0  0
   60.1142   31.5618   45.2078 H   0  0  0  0  0  0  0  0  0  0  0  0
   60.4634   35.2700   45.2017 H   0  0  0  0  0  0  0  0  0  0  0  0
   59.3587   35.2154   46.6377 H   0  0  0  0  0  0  0  0  0  0  0  0
   62.5466   33.7895   45.2292 H   0  0  0  0  0  0  0  0  0  0  0  0
   64.4531   33.1117   46.6900 H   0  0  0  0  0  0  0  0  0  0  0  0
   62.0232   33.8120   50.1990 H   0  0  0  0  0  0  0  0  0  0  0  0
   60.1114   34.4917   48.7448 H   0  0  0  0  0  0  0  0  0  0  0  0
   57.6374   34.6696   45.0624 H   0  0  0  0  0  0  0  0  0  0  0  0
   57.4430   32.8859   44.7894 H   0  0  0  0  0  0  0  0  0  0  0  0
   57.5080   34.4066   47.4249 H   0  0  0  0  0  0  0  0  0  0  0  0
   56.2015   33.3367   46.7189 H   0  0  0  0  0  0  0  0  0  0  0  0
   60.2249   30.6467   48.3727 H   0  0  0  0  0  0  0  0  0  0  0  0
  1  2  2  0
  2  3  1  0
  3  4  1  0
  4  5  2  0
  5  6  1  0
  6  7  2  0
  7  8  1  0
  8  9  1  0
  9 10  1  0
  9 11  1  0
  7 12  1  0
 12 13  2  0
  2 14  1  0
 14 15  1  0
 15 16  2  0
 16 17  1  0
 17 18  2  0
 18 19  1  0
 18 20  1  0
 20 21  1  0
 21 22  1  0
 22 23  1  0
 23 24  1  0
 24 25  1  0
 25 26  1  0
 26 27  1  0
 27 28  2  0
 28 29  1  0
 29 30  2  0
 30 31  1  0
 30 32  1  0
 32 33  2  0
 25 34  1  0
 34 35  1  0
 20 36  2  0
 13  4  1  0
 36 15  1  0
 35 22  1  0
 33 27  1  0
  5 37  1  0
  6 38  1  0
  9 39  1  0
 12 40  1  0
 13 41  1  0
 16 42  1  0
 17 43  1  0
 19 44  1  0
 21 45  1  0
 21 46  1  0
 23 47  1  0
 23 48  1  0
 24 49  1  0
 24 50  1  0
 26 51  1  0
 26 52  1  0
 28 53  1  0
 29 54  1  0
 32 55  1  0
 33 56  1  0
 34 57  1  0
 34 58  1  0
 35 59  1  0
 35 60  1  0
 36 61  1  0
M  CHG  2   3  -1  14  -1
M  END
>  <UniqueID>  (35) 
32

>  <SMILES>  (35) 
O=C([N-]c1ccc(SC(F)F)cc1)[N-]c1ccc(O)c(CN2CCN(Cc3ccc(F)cc3)CC2)c1

>  <Energy>  (35) 
82.4517210872274

>  <Genealogy>  (35) 
O=C([N-]c1ccc(SC(F)F)cc1)[N-]c1ccc(O)c(CN2CCN(Cc3ccc(F)cc3)CC2)c1 (protonated)
O=C([N-]c1ccc(SC(F)F)cc1)[N-]c1ccc(O)c(CN2CCN(Cc3ccc(F)cc3)CC2)c1 (3D coordinates assigned)
O=C([N-]c1ccc(SC(F)F)cc1)[N-]c1ccc(O)c(CN2CCN(Cc3ccc(F)cc3)CC2)c1 (nonaromatic ring conformer: 82.4517210872274 kcal/mol)

>  <smiles>  (35) 
O=C(Nc1ccc(SC(F)F)cc1)Nc1ccc(O)c(CN2CCN(Cc3ccc(F)cc3)CC2)c1

>  <score_type>  (35) 
oracle

>  <origin>  (35) 
adg

>  <m_score__min__energy>  (35) 
-12.24

>  <m_primary>  (35) 
energy

$$$$
35:0
     RDKit          3D

 59 61  0  0  0  0  0  0  0  0999 V2000
   57.2760   25.6080   44.7040 C   0  0  0  0  0  0  0  0  0  0  0  0
   56.7830   26.7920   45.3250 O   0  0  0  0  0  0  0  0  0  0  0  0
   57.5710   27.6880   46.0660 C   0  0  0  0  0  0  0  0  0  0  0  0
   58.5640   27.2450   46.9570 C   0  0  0  0  0  0  0  0  0  0  0  0
   59.3300   28.1680   47.6740 C   0  0  0  0  0  0  0  0  0  0  0  0
   59.1590   29.5430   47.4740 C   0  0  0  0  0  0  0  0  0  0  0  0
   60.1580   30.6970   48.3720 S   0  0  0  0  0  0  0  0  0  0  0  0
   61.0580   31.3940   47.3910 O   0  0  0  0  0  0  0  0  0  0  0  0
   61.0330   29.9510   49.3400 O   0  0  0  0  0  0  0  0  0  0  0  0
   59.2270   31.9050   49.2450 N   0  0  0  0  0  0  0  0  0  0  0  0
   59.2330   31.7090   50.7070 C   0  0  0  0  0  0  0  0  0  0  0  0
   58.0450   30.9080   51.1470 C   0  0  0  0  0  0  0  0  0  0  0  0
   58.1390   29.6550   51.2380 O   0  0  0  0  0  0  0  0  0  0  0  0
   56.7810   31.5580   51.3540 N   0  0  0  0  0  0  0  0  0  0  0  0
   55.6730   30.9440   52.0320 C   0  0  0  0  0  0  0  0  0  0  0  0
   55.8550   30.2370   53.2340 C   0  0  0  0  0  0  0  0  0  0  0  0
   54.7610   29.6730   53.8920 C   0  0  0  0  0  0  0  0  0  0  0  0
   53.4770   29.8100   53.3600 C   0  0  0  0  0  0  0  0  0  0  0  0
   53.2800   30.5150   52.1640 C   0  0  0  0  0  0  0  0  0  0  0  0
   51.6720   30.6480   51.4560 S   0  0  0  0  0  0  0  0  0  0  0  0
   51.2590   32.3140   51.2510 N   0  0  0  0  0  0  0  0  0  0  0  0
   50.6590   29.9880   52.3520 O   0  0  0  0  0  0  0  0  0  0  0  0
   51.6560   29.9560   50.1210 O   0  0  0  0  0  0  0  0  0  0  0  0
   54.3770   31.0980   51.5160 C   0  0  0  0  0  0  0  0  0  0  0  0
   59.5150   33.2940   48.8270 C   0  0  0  0  0  0  0  0  0  0  0  0
   58.9630   33.6700   47.4660 C   0  0  0  0  0  0  0  0  0  0  0  0
   59.7510   34.4230   46.5730 C   0  0  0  0  0  0  0  0  0  0  0  0
   59.2710   34.7360   45.2990 C   0  0  0  0  0  0  0  0  0  0  0  0
   57.9980   34.3150   44.9060 C   0  0  0  0  0  0  0  0  0  0  0  0
   57.2180   33.5450   45.7750 C   0  0  0  0  0  0  0  0  0  0  0  0
   57.7060   33.2030   47.0390 C   0  0  0  0  0  0  0  0  0  0  0  0
   58.1420   29.9890   46.6160 C   0  0  0  0  0  0  0  0  0  0  0  0
   57.3390   29.0660   45.9140 C   0  0  0  0  0  0  0  0  0  0  0  0
   56.3000   29.4760   45.0620 O   0  0  0  0  0  0  0  0  0  0  0  0
   56.4740   29.8730   43.7060 C   0  0  0  0  0  0  0  0  0  0  0  0
   57.5766   24.8861   45.4776 H   0  0  0  0  0  0  0  0  0  0  0  0
   56.4869   25.1667   44.0775 H   0  0  0  0  0  0  0  0  0  0  0  0
   58.1451   25.8572   44.0775 H   0  0  0  0  0  0  0  0  0  0  0  0
   58.7388   26.1672   47.0904 H   0  0  0  0  0  0  0  0  0  0  0  0
   60.0737   27.8111   48.4017 H   0  0  0  0  0  0  0  0  0  0  0  0
   60.1519   31.1772   50.9948 H   0  0  0  0  0  0  0  0  0  0  0  0
   59.1899   32.6950   51.1927 H   0  0  0  0  0  0  0  0  0  0  0  0
   56.6410   32.5090   50.9380 H   0  0  0  0  0  0  0  0  0  0  0  0
   56.8643   30.1280   53.6576 H   0  0  0  0  0  0  0  0  0  0  0  0
   54.9103   29.1198   54.8310 H   0  0  0  0  0  0  0  0  0  0  0  0
   52.6173   29.3633   53.8810 H   0  0  0  0  0  0  0  0  0  0  0  0
   50.2710   32.3400   50.9080 H   0  0  0  0  0  0  0  0  0  0  0  0
   54.2213   31.6807   50.5961 H   0  0  0  0  0  0  0  0  0  0  0  0
   59.0799   33.9744   49.5738 H   0  0  0  0  0  0  0  0  0  0  0  0
   60.6094   33.3773   48.7538 H   0  0  0  0  0  0  0  0  0  0  0  0
   60.7497   34.7663   46.8808 H   0  0  0  0  0  0  0  0  0  0  0  0
   59.8965   35.3151   44.6038 H   0  0  0  0  0  0  0  0  0  0  0  0
   57.6095   34.5889   43.9140 H   0  0  0  0  0  0  0  0  0  0  0  0
   56.2185   33.2080   45.4628 H   0  0  0  0  0  0  0  0  0  0  0  0
   57.1045   32.5655   47.7036 H   0  0  0  0  0  0  0  0  0  0  0  0
   57.9695   31.0680   46.4898 H   0  0  0  0  0  0  0  0  0  0  0  0
   56.9154   30.8800   43.6725 H   0  0  0  0  0  0  0  0  0  0  0  0
   57.1431   29.1623   43.1989 H   0  0  0  0  0  0  0  0  0  0  0  0
   55.4979   29.8834   43.1989 H   0  0  0  0  0  0  0  0  0  0  0  0
  1  2  1  0
  2  3  1  0
  3  4  2  0
  4  5  1  0
  5  6  2  0
  6  7  1  0
  7  8  2  0
  7  9  2  0
  7 10  1  0
 10 11  1  0
 11 12  1  0
 12 13  2  0
 12 14  1  0
 14 15  1  0
 15 16  2  0
 16 17  1  0
 17 18  2  0
 18 19  1  0
 19 20  1  0
 20 21  1  0
 20 22  2  0
 20 23  2  0
 19 24  2  0
 10 25  1  0
 25 26  1  0
 26 27  2  0
 27 28  1  0
 28 29  2  0
 29 30  1  0
 30 31  2  0
  6 32  1  0
 32 33  2  0
 33 34  1  0
 34 35  1  0
 33  3  1  0
 24 15  1  0
 31 26  1  0
  1 36  1  0
  1 37  1  0
  1 38  1  0
  4 39  1  0
  5 40  1  0
 11 41  1  0
 11 42  1  0
 14 43  1  0
 16 44  1  0
 17 45  1  0
 18 46  1  0
 21 47  1  0
 24 48  1  0
 25 49  1  0
 25 50  1  0
 27 51  1  0
 28 52  1  0
 29 53  1  0
 30 54  1  0
 31 55  1  0
 32 56  1  0
 35 57  1  0
 35 58  1  0
 35 59  1  0
M  CHG  1  21  -1
M  END
>  <UniqueID>  (36) 
33

>  <SMILES>  (36) 
COc1ccc(S(=O)(=O)N(CC(=O)Nc2cccc(S([NH-])(=O)=O)c2)Cc2ccccc2)cc1OC

>  <Energy>  (36) 
64.8459073647182

>  <Genealogy>  (36) 
COc1ccc(S(=O)(=O)N(CC(=O)Nc2cccc(S([NH-])(=O)=O)c2)Cc2ccccc2)cc1OC (protonated)
COc1ccc(S(=O)(=O)N(CC(=O)Nc2cccc(S([NH-])(=O)=O)c2)Cc2ccccc2)cc1OC (3D coordinates assigned)
COc1ccc(S(=O)(=O)N(CC(=O)Nc2cccc(S([NH-])(=O)=O)c2)Cc2ccccc2)cc1OC (optimized conformer: 64.8459073647182 kcal/mol)

>  <smiles>  (36) 
COc1ccc(S(=O)(=O)N(CC(=O)Nc2cccc(S(N)(=O)=O)c2)Cc2ccccc2)cc1OC

>  <score_type>  (36) 
oracle

>  <origin>  (36) 
adg

>  <m_score__min__energy>  (36) 
-13.720000000000001

>  <m_primary>  (36) 
energy

$$$$
36:0
     RDKit          3D

 32 33  0  0  0  0  0  0  0  0999 V2000
   59.6973   29.0672   44.2449 H   0  0  0  0  0  0  0  0  0  0  0  0
   58.8070   28.8280   44.8450 C   0  0  0  0  0  0  0  0  0  0  0  0
   58.0320   29.8540   45.2430 C   0  0  0  0  0  0  0  0  0  0  0  0
   58.4220   30.7960   46.3170 C   0  0  0  0  0  0  0  0  0  0  0  0
   58.5390   30.3520   47.4900 O   0  0  0  0  0  0  0  0  0  0  0  0
   58.7050   32.2300   46.0480 C   0  0  0  0  0  0  0  0  0  0  0  0
   58.4920   32.7860   44.7720 C   0  0  0  0  0  0  0  0  0  0  0  0
   58.1212   32.1511   43.9538 H   0  0  0  0  0  0  0  0  0  0  0  0
   58.7490   34.1400   44.5390 C   0  0  0  0  0  0  0  0  0  0  0  0
   58.5732   34.5680   43.5411 H   0  0  0  0  0  0  0  0  0  0  0  0
   59.2280   34.9500   45.5690 C   0  0  0  0  0  0  0  0  0  0  0  0
   59.4260   36.0161   45.3838 H   0  0  0  0  0  0  0  0  0  0  0  0
   59.4560   34.4070   46.8350 C   0  0  0  0  0  0  0  0  0  0  0  0
   59.8372   35.0457   47.6454 H   0  0  0  0  0  0  0  0  0  0  0  0
   59.2010   33.0540   47.0750 C   0  0  0  0  0  0  0  0  0  0  0  0
   59.3892   32.6308   48.0727 H   0  0  0  0  0  0  0  0  0  0  0  0
   56.4710   30.0880   44.4590 S   0  0  0  0  0  0  0  0  0  0  0  0
   55.9040   31.4280   44.8370 O   0  0  0  0  0  0  0  0  0  0  0  0
   55.5130   29.0170   44.9030 O   0  0  0  0  0  0  0  0  0  0  0  0
   56.6770   30.0160   42.6950 C   0  0  0  0  0  0  0  0  0  0  0  0
   57.6911   29.6616   42.4584 H   0  0  0  0  0  0  0  0  0  0  0  0
   55.9374   29.3231   42.2674 H   0  0  0  0  0  0  0  0  0  0  0  0
   56.5300   31.0188   42.2674 H   0  0  0  0  0  0  0  0  0  0  0  0
   58.5540   27.4060   45.1520 C   0  0  0  0  0  0  0  0  0  0  0  0
   59.4540   26.5740   45.7870 C   0  0  0  0  0  0  0  0  0  0  0  0
   60.4719   26.8312   46.1152 H   0  0  0  0  0  0  0  0  0  0  0  0
   58.8220   25.3550   45.9280 C   0  0  0  0  0  0  0  0  0  0  0  0
   59.2426   24.4446   46.3799 H   0  0  0  0  0  0  0  0  0  0  0  0
   57.5590   25.5020   45.3910 C   0  0  0  0  0  0  0  0  0  0  0  0
   56.7966   24.7102   45.3480 H   0  0  0  0  0  0  0  0  0  0  0  0
   57.3960   26.7540   44.9280 N   0  0  0  0  0  0  0  0  0  0  0  0
   56.5180   27.1410   44.5160 H   0  0  0  0  0  0  0  0  0  0  0  0
  1  2  1  0
  2  3  2  0
  3  4  1  0
  4  5  2  0
  4  6  1  0
  6  7  2  0
  7  8  1  0
  7  9  1  0
  9 10  1  0
  9 11  2  0
 11 12  1  0
 11 13  1  0
 13 14  1  0
 13 15  2  0
 15 16  1  0
  3 17  1  0
 17 18  2  0
 17 19  2  0
 17 20  1  0
 20 21  1  0
 20 22  1  0
 20 23  1  0
  2 24  1  0
 24 25  2  0
 25 26  1  0
 25 27  1  0
 27 28  1  0
 27 29  2  0
 29 30  1  0
 29 31  1  0
 31 32  1  0
 15  6  1  0
 31 24  1  0
M  END
>  <UniqueID>  (37) 
34

>  <SMILES>  (37) 
CS(=O)(=O)/C(=C/c1ccc[nH]1)C(=O)c1ccccc1

>  <Energy>  (37) 
63.6248883531456

>  <Genealogy>  (37) 
CS(=O)(=O)/C(=C/c1ccc[nH]1)C(=O)c1ccccc1 (cis-trans isomerization)
CS(=O)(=O)/C(=C/c1ccc[nH]1)C(=O)c1ccccc1 (3D coordinates assigned)
CS(=O)(=O)/C(=C/c1ccc[nH]1)C(=O)c1ccccc1 (optimized conformer: 63.6248883531456 kcal/mol)

>  <smiles>  (37) 
CS(=O)(=O)C(=Cc1ccc[nH]1)C(=O)c1ccccc1

>  <score_type>  (37) 
oracle

>  <origin>  (37) 
adg

>  <m_score__min__energy>  (37) 
-7.6100000000000003

>  <m_primary>  (37) 
energy

$$$$
37:0
     RDKit          3D

 51 53  0  0  0  0  0  0  0  0999 V2000
   59.9780   24.8670   46.0080 C   0  0  0  0  0  0  0  0  0  0  0  0
   60.0610   26.2630   46.2740 O   0  0  0  0  0  0  0  0  0  0  0  0
   59.2090   27.2270   45.7150 C   0  0  0  0  0  0  0  0  0  0  0  0
   57.8530   27.1980   46.0620 C   0  0  0  0  0  0  0  0  0  0  0  0
   56.9580   28.1180   45.5060 C   0  0  0  0  0  0  0  0  0  0  0  0
   57.4160   29.0900   44.6070 C   0  0  0  0  0  0  0  0  0  0  0  0
   56.2850   30.2000   43.8350 S   0  0  0  0  0  0  0  0  0  0  0  0
   56.7760   30.5550   42.4590 O   0  0  0  0  0  0  0  0  0  0  0  0
   54.9310   29.5630   43.7120 O   0  0  0  0  0  0  0  0  0  0  0  0
   56.1900   31.6400   44.7900 N   0  0  0  0  0  0  0  0  0  0  0  0
   57.3670   32.2470   45.3230 C   0  0  0  0  0  0  0  0  0  0  0  0
   57.7040   33.5640   44.9960 C   0  0  0  0  0  0  0  0  0  0  0  0
   58.8380   34.1540   45.5540 C   0  0  0  0  0  0  0  0  0  0  0  0
   59.6340   33.4510   46.4660 C   0  0  0  0  0  0  0  0  0  0  0  0
   60.7850   34.0810   46.9430 O   0  0  0  0  0  0  0  0  0  0  0  0
   59.2600   32.1410   46.8600 C   0  0  0  0  0  0  0  0  0  0  0  0
   60.0160   31.3740   47.9290 C   0  0  0  0  0  0  0  0  0  0  0  0
   61.3470   31.9660   48.1730 N   0  0  0  0  0  0  0  0  0  0  0  0
   62.3300   31.5290   47.1650 C   0  0  0  0  0  0  0  0  0  0  0  0
   63.6140   32.3660   47.2970 C   0  0  0  0  0  0  0  0  0  0  0  0
   63.8790   32.8210   48.6840 N   0  0  0  0  0  0  0  0  0  0  0  0
   63.4230   34.2040   48.9130 C   0  0  0  0  0  0  0  0  0  0  0  0
   63.3430   31.8890   49.6960 C   0  0  0  0  0  0  0  0  0  0  0  0
   61.8250   31.6430   49.5340 C   0  0  0  0  0  0  0  0  0  0  0  0
   58.1590   31.5320   46.2240 C   0  0  0  0  0  0  0  0  0  0  0  0
   58.7730   29.1310   44.2660 C   0  0  0  0  0  0  0  0  0  0  0  0
   59.6670   28.2060   44.8130 C   0  0  0  0  0  0  0  0  0  0  0  0
   59.9451   24.3140   46.9583 H   0  0  0  0  0  0  0  0  0  0  0  0
   59.0658   24.6575   45.4301 H   0  0  0  0  0  0  0  0  0  0  0  0
   60.8589   24.5508   45.4301 H   0  0  0  0  0  0  0  0  0  0  0  0
   57.4886   26.4460   46.7773 H   0  0  0  0  0  0  0  0  0  0  0  0
   55.8922   28.0782   45.7752 H   0  0  0  0  0  0  0  0  0  0  0  0
   57.0743   34.1353   44.2981 H   0  0  0  0  0  0  0  0  0  0  0  0
   59.1097   35.1826   45.2745 H   0  0  0  0  0  0  0  0  0  0  0  0
   61.4340   33.6520   47.5890 H   0  0  0  0  0  0  0  0  0  0  0  0
   59.4367   31.3967   48.8638 H   0  0  0  0  0  0  0  0  0  0  0  0
   60.1541   30.3392   47.5823 H   0  0  0  0  0  0  0  0  0  0  0  0
   62.5680   30.4667   47.3227 H   0  0  0  0  0  0  0  0  0  0  0  0
   61.9067   31.6670   46.1591 H   0  0  0  0  0  0  0  0  0  0  0  0
   64.4649   31.7549   46.9616 H   0  0  0  0  0  0  0  0  0  0  0  0
   63.4805   33.2662   46.6791 H   0  0  0  0  0  0  0  0  0  0  0  0
   63.3600   34.3950   49.9945 H   0  0  0  0  0  0  0  0  0  0  0  0
   64.1373   34.9057   48.4577 H   0  0  0  0  0  0  0  0  0  0  0  0
   62.4314   34.3433   48.4577 H   0  0  0  0  0  0  0  0  0  0  0  0
   63.8677   30.9268   49.6017 H   0  0  0  0  0  0  0  0  0  0  0  0
   63.5029   32.3435   50.6849 H   0  0  0  0  0  0  0  0  0  0  0  0
   61.6142   30.5834   49.7409 H   0  0  0  0  0  0  0  0  0  0  0  0
   61.2997   32.3022   50.2407 H   0  0  0  0  0  0  0  0  0  0  0  0
   57.9207   30.4801   46.4402 H   0  0  0  0  0  0  0  0  0  0  0  0
   59.1378   29.8952   43.5639 H   0  0  0  0  0  0  0  0  0  0  0  0
   60.7314   28.2432   44.5379 H   0  0  0  0  0  0  0  0  0  0  0  0
  1  2  1  0
  2  3  1  0
  3  4  2  0
  4  5  1  0
  5  6  2  0
  6  7  1  0
  7  8  2  0
  7  9  2  0
  7 10  1  0
 10 11  1  0
 11 12  2  0
 12 13  1  0
 13 14  2  0
 14 15  1  0
 14 16  1  0
 16 17  1  0
 17 18  1  0
 18 19  1  0
 19 20  1  0
 20 21  1  0
 21 22  1  0
 21 23  1  0
 23 24  1  0
 16 25  2  0
  6 26  1  0
 26 27  2  0
 27  3  1  0
 25 11  1  0
 24 18  1  0
  1 28  1  0
  1 29  1  0
  1 30  1  0
  4 31  1  0
  5 32  1  0
 12 33  1  0
 13 34  1  0
 15 35  1  0
 17 36  1  0
 17 37  1  0
 19 38  1  0
 19 39  1  0
 20 40  1  0
 20 41  1  0
 22 42  1  0
 22 43  1  0
 22 44  1  0
 23 45  1  0
 23 46  1  0
 24 47  1  0
 24 48  1  0
 25 49  1  0
 26 50  1  0
 27 51  1  0
M  CHG  1  10  -1
M  END
>  <UniqueID>  (38) 
35

>  <SMILES>  (38) 
COc1ccc(S(=O)(=O)[N-]c2ccc(O)c(CN3CCN(C)CC3)c2)cc1

>  <Energy>  (38) 
69.83877563580948

>  <Genealogy>  (38) 
COc1ccc(S(=O)(=O)[N-]c2ccc(O)c(CN3CCN(C)CC3)c2)cc1 (protonated)
COc1ccc(S(=O)(=O)[N-]c2ccc(O)c(CN3CCN(C)CC3)c2)cc1 (3D coordinates assigned)
COc1ccc(S(=O)(=O)[N-]c2ccc(O)c(CN3CCN(C)CC3)c2)cc1 (nonaromatic ring conformer: 69.83877563580948 kcal/mol)

>  <smiles>  (38) 
COc1ccc(S(=O)(=O)Nc2ccc(O)c(CN3CCN(C)CC3)c2)cc1

>  <score_type>  (38) 
oracle

>  <origin>  (38) 
adg

>  <m_score__min__energy>  (38) 
-9.0500000000000007

>  <m_primary>  (38) 
energy

$$$$
38:0
     RDKit          3D

 63 65  0  0  0  0  0  0  0  0999 V2000
   50.2670   32.2360   51.1390 H   0  0  0  0  0  0  0  0  0  0  0  0
   50.7850   32.6880   51.9250 N   0  0  0  0  0  0  0  0  0  0  0  0
   51.1730   31.4450   53.0630 S   0  0  0  0  0  0  0  0  0  0  0  0
   50.9740   31.9580   54.4600 O   0  0  0  0  0  0  0  0  0  0  0  0
   50.2560   30.2780   52.8320 O   0  0  0  0  0  0  0  0  0  0  0  0
   52.8490   30.9540   52.8460 C   0  0  0  0  0  0  0  0  0  0  0  0
   53.6100   31.5180   51.8140 C   0  0  0  0  0  0  0  0  0  0  0  0
   53.1662   32.2818   51.1585 H   0  0  0  0  0  0  0  0  0  0  0  0
   54.9340   31.1110   51.6160 C   0  0  0  0  0  0  0  0  0  0  0  0
   55.5293   31.5631   50.8090 H   0  0  0  0  0  0  0  0  0  0  0  0
   55.5070   30.1320   52.4380 C   0  0  0  0  0  0  0  0  0  0  0  0
   56.8610   29.7230   52.1830 N   0  0  0  0  0  0  0  0  0  0  0  0
   57.6550   30.1860   51.2600 C   0  0  0  0  0  0  0  0  0  0  0  0
   58.0520   31.4860   51.2570 N   0  0  0  0  0  0  0  0  0  0  0  0
   58.9200   31.9440   50.3170 C   0  0  0  0  0  0  0  0  0  0  0  0
   59.3270   33.3280   50.3150 N   0  0  0  0  0  0  0  0  0  0  0  0
   60.2120   33.8260   49.2500 C   0  0  0  0  0  0  0  0  0  0  0  0
   60.5742   34.8281   49.5232 H   0  0  0  0  0  0  0  0  0  0  0  0
   61.0542   33.1270   49.1403 H   0  0  0  0  0  0  0  0  0  0  0  0
   59.4840   33.9080   47.9340 C   0  0  0  0  0  0  0  0  0  0  0  0
   60.0730   34.5480   46.8300 C   0  0  0  0  0  0  0  0  0  0  0  0
   61.0659   35.0106   46.9305 H   0  0  0  0  0  0  0  0  0  0  0  0
   59.4010   34.5990   45.6030 C   0  0  0  0  0  0  0  0  0  0  0  0
   59.8709   35.0942   44.7405 H   0  0  0  0  0  0  0  0  0  0  0  0
   58.1360   34.0230   45.4710 C   0  0  0  0  0  0  0  0  0  0  0  0
   57.6085   34.0687   44.5068 H   0  0  0  0  0  0  0  0  0  0  0  0
   57.5400   33.3880   46.5650 C   0  0  0  0  0  0  0  0  0  0  0  0
   56.5441   32.9327   46.4603 H   0  0  0  0  0  0  0  0  0  0  0  0
   58.2090   33.3310   47.7930 C   0  0  0  0  0  0  0  0  0  0  0  0
   57.7355   32.8327   48.6518 H   0  0  0  0  0  0  0  0  0  0  0  0
   59.0190   34.1870   51.4710 C   0  0  0  0  0  0  0  0  0  0  0  0
   57.9345   34.1613   51.6534 H   0  0  0  0  0  0  0  0  0  0  0  0
   59.3595   35.2064   51.2366 H   0  0  0  0  0  0  0  0  0  0  0  0
   59.7480   33.7240   52.7450 C   0  0  0  0  0  0  0  0  0  0  0  0
   60.3467   34.5617   53.1321 H   0  0  0  0  0  0  0  0  0  0  0  0
   60.3788   32.8647   52.4734 H   0  0  0  0  0  0  0  0  0  0  0  0
   58.7880   33.2640   53.8380 C   0  0  0  0  0  0  0  0  0  0  0  0
   59.2273   33.4745   54.8243 H   0  0  0  0  0  0  0  0  0  0  0  0
   57.8342   33.8029   53.7389 H   0  0  0  0  0  0  0  0  0  0  0  0
   58.6104   32.1830   53.7389 H   0  0  0  0  0  0  0  0  0  0  0  0
   59.4130   31.0810   49.3920 N   0  0  0  0  0  0  0  0  0  0  0  0
   59.0330   29.7790   49.3900 C   0  0  0  0  0  0  0  0  0  0  0  0
   59.5250   28.9710   48.4990 N   0  0  0  0  0  0  0  0  0  0  0  0
   59.0110   28.7970   47.1400 C   0  0  0  0  0  0  0  0  0  0  0  0
   59.7449   28.2298   46.5487 H   0  0  0  0  0  0  0  0  0  0  0  0
   58.0555   28.2548   47.1957 H   0  0  0  0  0  0  0  0  0  0  0  0
   58.7630   30.1480   46.4650 C   0  0  0  0  0  0  0  0  0  0  0  0
   59.0267   30.9578   47.1612 H   0  0  0  0  0  0  0  0  0  0  0  0
   59.3833   30.2205   45.5595 H   0  0  0  0  0  0  0  0  0  0  0  0
   57.4040   30.2620   46.1080 O   0  0  0  0  0  0  0  0  0  0  0  0
   57.2960   30.5580   44.7340 C   0  0  0  0  0  0  0  0  0  0  0  0
   57.1241   31.6366   44.6029 H   0  0  0  0  0  0  0  0  0  0  0  0
   58.2262   30.2720   44.2213 H   0  0  0  0  0  0  0  0  0  0  0  0
   56.1260   29.7800   44.1410 C   0  0  0  0  0  0  0  0  0  0  0  0
   55.5746   30.4306   43.4463 H   0  0  0  0  0  0  0  0  0  0  0  0
   56.5187   28.9007   43.6094 H   0  0  0  0  0  0  0  0  0  0  0  0
   55.2570   29.3450   45.1530 O   0  0  0  0  0  0  0  0  0  0  0  0
   55.6070   29.7090   46.0090 H   0  0  0  0  0  0  0  0  0  0  0  0
   58.1470   29.3380   50.3240 N   0  0  0  0  0  0  0  0  0  0  0  0
   54.7620   29.6180   53.5120 C   0  0  0  0  0  0  0  0  0  0  0  0
   55.2230   28.8966   54.2026 H   0  0  0  0  0  0  0  0  0  0  0  0
   53.4380   30.0190   53.7070 C   0  0  0  0  0  0  0  0  0  0  0  0
   52.8555   29.5988   54.5402 H   0  0  0  0  0  0  0  0  0  0  0  0
  1  2  1  0
  2  3  1  0
  3  4  2  0
  3  5  2  0
  3  6  1  0
  6  7  2  0
  7  8  1  0
  7  9  1  0
  9 10  1  0
  9 11  2  0
 11 12  1  0
 12 13  2  3
 13 14  1  0
 14 15  2  0
 15 16  1  0
 16 17  1  0
 17 18  1  0
 17 19  1  0
 17 20  1  0
 20 21  2  0
 21 22  1  0
 21 23  1  0
 23 24  1  0
 23 25  2  0
 25 26  1  0
 25 27  1  0
 27 28  1  0
 27 29  2  0
 29 30  1  0
 16 31  1  0
 31 32  1  0
 31 33  1  0
 31 34  1  0
 34 35  1  0
 34 36  1  0
 34 37  1  0
 37 38  1  0
 37 39  1  0
 37 40  1  0
 15 41  1  0
 41 42  1  0
 42 43  2  0
 43 44  1  0
 44 45  1  0
 44 46  1  0
 44 47  1  0
 47 48  1  0
 47 49  1  0
 47 50  1  0
 50 51  1  0
 51 52  1  0
 51 53  1  0
 51 54  1  0
 54 55  1  0
 54 56  1  0
 54 57  1  0
 57 58  1  0
 42 59  1  0
 11 60  1  0
 60 61  1  0
 60 62  2  0
 62 63  1  0
 62  6  1  0
 59 13  1  0
 29 20  1  0
M  CHG  3   2  -1  41  -1  59  -1
M  END
>  <UniqueID>  (39) 
36

>  <SMILES>  (39) 
CCCN(Cc1ccccc1)c1nc(=Nc2ccc(S([NH-])(=O)=O)cc2)[n-]/c(=N\CCOCCO)[n-]1

>  <Energy>  (39) 
59.961480925815806

>  <Genealogy>  (39) 
CCCN(Cc1ccccc1)c1nc(=Nc2ccc(S([NH-])(=O)=O)cc2)[n-]c(=NCCOCCO)[n-]1 (protonated)
CCCN(Cc1ccccc1)c1nc(=Nc2ccc(S([NH-])(=O)=O)cc2)[n-]/c(=N\CCOCCO)[n-]1 (cis-trans isomerization)
CCCN(Cc1ccccc1)c1nc(=Nc2ccc(S([NH-])(=O)=O)cc2)[n-]/c(=N\CCOCCO)[n-]1 (3D coordinates assigned)
CCCN(Cc1ccccc1)c1nc(=Nc2ccc(S([NH-])(=O)=O)cc2)[n-]/c(=N\CCOCCO)[n-]1 (optimized conformer: 59.961480925815806 kcal/mol)

>  <smiles>  (39) 
CCCN(Cc1ccccc1)c1nc(=Nc2ccc(S(N)(=O)=O)cc2)[nH]c(=NCCOCCO)[nH]1

>  <score_type>  (39) 
oracle

>  <origin>  (39) 
adg

>  <m_score__min__energy>  (39) 
-13.98

>  <m_primary>  (39) 
energy

$$$$
39:0
     RDKit          3D

 63 66  0  0  0  0  0  0  0  0999 V2000
   58.5240   31.8070   49.3450 C   0  0  0  0  0  0  0  0  0  0  0  0
   58.8000   32.8730   48.3180 C   0  0  0  0  0  0  0  0  0  0  0  0
   58.0750   32.8560   47.1110 C   0  0  0  0  0  0  0  0  0  0  0  0
   58.3090   33.8170   46.1260 C   0  0  0  0  0  0  0  0  0  0  0  0
   59.2690   34.8050   46.3280 C   0  0  0  0  0  0  0  0  0  0  0  0
   59.9990   34.8380   47.5180 C   0  0  0  0  0  0  0  0  0  0  0  0
   59.7700   33.8870   48.5300 C   0  0  0  0  0  0  0  0  0  0  0  0
   60.5920   33.9830   49.7970 C   0  0  0  0  0  0  0  0  0  0  0  0
   61.8440   34.6890   49.5360 N   0  0  0  0  0  0  0  0  0  0  0  0
   63.0090   34.0570   49.0000 C   0  0  0  0  0  0  0  0  0  0  0  0
   64.0390   33.9030   49.7110 O   0  0  0  0  0  0  0  0  0  0  0  0
   63.0010   33.5830   47.5850 C   0  0  0  0  0  0  0  0  0  0  0  0
   63.2280   32.1770   47.5520 O   0  0  0  0  0  0  0  0  0  0  0  0
   62.3890   31.2290   48.1600 C   0  0  0  0  0  0  0  0  0  0  0  0
   62.3980   31.1280   49.5570 C   0  0  0  0  0  0  0  0  0  0  0  0
   61.5570   30.2210   50.2060 C   0  0  0  0  0  0  0  0  0  0  0  0
   60.7080   29.3970   49.4650 C   0  0  0  0  0  0  0  0  0  0  0  0
   60.7020   29.4700   48.0660 C   0  0  0  0  0  0  0  0  0  0  0  0
   59.5850   28.4810   47.1310 S   0  0  0  0  0  0  0  0  0  0  0  0
   58.1930   28.5920   47.6900 O   0  0  0  0  0  0  0  0  0  0  0  0
   60.0120   27.0420   47.1950 O   0  0  0  0  0  0  0  0  0  0  0  0
   59.5990   29.0090   45.4850 N   0  0  0  0  0  0  0  0  0  0  0  0
   58.4390   29.6140   44.9130 C   0  0  0  0  0  0  0  0  0  0  0  0
   58.5140   30.9450   44.4790 C   0  0  0  0  0  0  0  0  0  0  0  0
   57.4190   31.5510   43.8630 C   0  0  0  0  0  0  0  0  0  0  0  0
   56.2420   30.8300   43.6720 C   0  0  0  0  0  0  0  0  0  0  0  0
   56.1540   29.5030   44.0990 C   0  0  0  0  0  0  0  0  0  0  0  0
   57.2450   28.8780   44.7310 C   0  0  0  0  0  0  0  0  0  0  0  0
   57.1170   27.4640   45.1640 C   0  0  0  0  0  0  0  0  0  0  0  0
   58.1050   26.6840   45.1020 O   0  0  0  0  0  0  0  0  0  0  0  0
   55.8520   26.9750   45.6260 N   0  0  0  0  0  0  0  0  0  0  0  0
   55.6030   25.6380   46.0770 C   0  0  0  0  0  0  0  0  0  0  0  0
   54.4520   24.9870   45.6140 C   0  0  0  0  0  0  0  0  0  0  0  0
   54.1820   23.6710   45.9950 C   0  0  0  0  0  0  0  0  0  0  0  0
   55.0510   23.0000   46.8580 C   0  0  0  0  0  0  0  0  0  0  0  0
   56.1860   23.6470   47.3480 C   0  0  0  0  0  0  0  0  0  0  0  0
   56.4580   24.9730   46.9880 C   0  0  0  0  0  0  0  0  0  0  0  0
   57.5480   25.6070   47.5850 O   0  0  0  0  0  0  0  0  0  0  0  0
   61.5370   30.3880   47.4160 C   0  0  0  0  0  0  0  0  0  0  0  0
   58.6341   32.2322   50.3535 H   0  0  0  0  0  0  0  0  0  0  0  0
   57.4987   31.4301   49.2159 H   0  0  0  0  0  0  0  0  0  0  0  0
   59.2376   30.9799   49.2159 H   0  0  0  0  0  0  0  0  0  0  0  0
   57.3164   32.0774   46.9426 H   0  0  0  0  0  0  0  0  0  0  0  0
   57.7339   33.7937   45.1886 H   0  0  0  0  0  0  0  0  0  0  0  0
   59.4526   35.5602   45.5496 H   0  0  0  0  0  0  0  0  0  0  0  0
   60.7620   35.6164   47.6662 H   0  0  0  0  0  0  0  0  0  0  0  0
   60.0194   34.5297   50.5607 H   0  0  0  0  0  0  0  0  0  0  0  0
   60.8209   32.9677   50.1532 H   0  0  0  0  0  0  0  0  0  0  0  0
   62.0254   33.8074   47.1290 H   0  0  0  0  0  0  0  0  0  0  0  0
   63.7959   34.0952   47.0231 H   0  0  0  0  0  0  0  0  0  0  0  0
   63.0716   31.7670   50.1468 H   0  0  0  0  0  0  0  0  0  0  0  0
   61.5637   30.1558   51.3040 H   0  0  0  0  0  0  0  0  0  0  0  0
   60.0425   28.6890   49.9806 H   0  0  0  0  0  0  0  0  0  0  0  0
   59.4430   31.5155   44.6253 H   0  0  0  0  0  0  0  0  0  0  0  0
   57.4846   32.5968   43.5284 H   0  0  0  0  0  0  0  0  0  0  0  0
   55.3797   31.3073   43.1835 H   0  0  0  0  0  0  0  0  0  0  0  0
   55.2222   28.9406   43.9396 H   0  0  0  0  0  0  0  0  0  0  0  0
   53.7564   25.5160   44.9459 H   0  0  0  0  0  0  0  0  0  0  0  0
   53.2838   23.1623   45.6149 H   0  0  0  0  0  0  0  0  0  0  0  0
   54.8406   21.9610   47.1516 H   0  0  0  0  0  0  0  0  0  0  0  0
   56.8718   23.1121   48.0215 H   0  0  0  0  0  0  0  0  0  0  0  0
   57.9320   26.4820   47.2450 H   0  0  0  0  0  0  0  0  0  0  0  0
   61.5277   30.4529   46.3180 H   0  0  0  0  0  0  0  0  0  0  0  0
  1  2  1  0
  2  3  2  0
  3  4  1  0
  4  5  2  0
  5  6  1  0
  6  7  2  0
  7  8  1  0
  8  9  1  0
  9 10  1  0
 10 11  2  0
 10 12  1  0
 12 13  1  0
 13 14  1  0
 14 15  2  0
 15 16  1  0
 16 17  2  0
 17 18  1  0
 18 19  1  0
 19 20  2  0
 19 21  2  0
 19 22  1  0
 22 23  1  0
 23 24  2  0
 24 25  1  0
 25 26  2  0
 26 27  1  0
 27 28  2  0
 28 29  1  0
 29 30  2  0
 29 31  1  0
 31 32  1  0
 32 33  2  0
 33 34  1  0
 34 35  2  0
 35 36  1  0
 36 37  2  0
 37 38  1  0
 18 39  2  0
  7  2  1  0
 39 14  1  0
 28 23  1  0
 37 32  1  0
  1 40  1  0
  1 41  1  0
  1 42  1  0
  3 43  1  0
  4 44  1  0
  5 45  1  0
  6 46  1  0
  8 47  1  0
  8 48  1  0
 12 49  1  0
 12 50  1  0
 15 51  1  0
 16 52  1  0
 17 53  1  0
 24 54  1  0
 25 55  1  0
 26 56  1  0
 27 57  1  0
 33 58  1  0
 34 59  1  0
 35 60  1  0
 36 61  1  0
 38 62  1  0
 39 63  1  0
M  CHG  3   9  -1  22  -1  31  -1
M  END
>  <UniqueID>  (40) 
37

>  <SMILES>  (40) 
Cc1ccccc1C[N-]C(=O)COc1cccc(S(=O)(=O)[N-]c2ccccc2C(=O)[N-]c2ccccc2O)c1

>  <Energy>  (40) 
78.27557776164666

>  <Genealogy>  (40) 
Cc1ccccc1C[N-]C(=O)COc1cccc(S(=O)(=O)[N-]c2ccccc2C(=O)[N-]c2ccccc2O)c1 (protonated)
Cc1ccccc1C[N-]C(=O)COc1cccc(S(=O)(=O)[N-]c2ccccc2C(=O)[N-]c2ccccc2O)c1 (3D coordinates assigned)
Cc1ccccc1C[N-]C(=O)COc1cccc(S(=O)(=O)[N-]c2ccccc2C(=O)[N-]c2ccccc2O)c1 (optimized conformer: 78.27557776164666 kcal/mol)

>  <smiles>  (40) 
Cc1ccccc1CNC(=O)COc1cccc(S(=O)(=O)Nc2ccccc2C(=O)Nc2ccccc2O)c1

>  <score_type>  (40) 
oracle

>  <origin>  (40) 
adg

>  <m_score__min__energy>  (40) 
-15.1

>  <m_primary>  (40) 
energy

$$$$
40:0
     RDKit          3D

 39 40  0  0  0  0  0  0  0  0999 V2000
   60.1290   34.4660   46.7350 C   0  0  0  0  0  0  0  0  0  0  0  0
   60.5480   33.5940   47.9480 C   0  0  0  0  0  0  0  0  0  0  0  0
   59.7060   34.0720   49.1540 C   0  0  0  0  0  0  0  0  0  0  0  0
   62.0450   33.8780   48.2080 C   0  0  0  0  0  0  0  0  0  0  0  0
   60.3270   32.0740   47.7110 C   0  0  0  0  0  0  0  0  0  0  0  0
   59.8900   31.5820   46.4570 C   0  0  0  0  0  0  0  0  0  0  0  0
   59.6860   30.2150   46.2350 C   0  0  0  0  0  0  0  0  0  0  0  0
   59.1860   29.7340   44.8960 C   0  0  0  0  0  0  0  0  0  0  0  0
   57.7340   29.3500   44.9800 C   0  0  0  0  0  0  0  0  0  0  0  0
   57.1770   28.1110   45.2620 C   0  0  0  0  0  0  0  0  0  0  0  0
   57.9140   26.8400   45.5760 C   0  0  0  0  0  0  0  0  0  0  0  0
   58.2230   26.7790   46.9230 F   0  0  0  0  0  0  0  0  0  0  0  0
   59.0870   26.7910   44.8460 F   0  0  0  0  0  0  0  0  0  0  0  0
   57.1270   25.7510   45.2510 F   0  0  0  0  0  0  0  0  0  0  0  0
   55.8320   28.2270   45.2410 N   0  0  0  0  0  0  0  0  0  0  0  0
   55.4940   29.4770   44.9640 N   0  0  0  0  0  0  0  0  0  0  0  0
   56.6360   30.1690   44.8050 C   0  0  0  0  0  0  0  0  0  0  0  0
   56.6730   31.3980   44.5390 O   0  0  0  0  0  0  0  0  0  0  0  0
   59.9040   29.3070   47.2710 C   0  0  0  0  0  0  0  0  0  0  0  0
   60.3380   29.7440   48.5270 C   0  0  0  0  0  0  0  0  0  0  0  0
   60.5530   28.7250   49.5800 C   0  0  0  0  0  0  0  0  0  0  0  0
   60.4120   27.4940   49.3560 O   0  0  0  0  0  0  0  0  0  0  0  0
   60.5510   31.1230   48.7490 C   0  0  0  0  0  0  0  0  0  0  0  0
   60.9840   31.5410   50.0030 O   0  0  0  0  0  0  0  0  0  0  0  0
   59.6788   35.4029   47.0950 H   0  0  0  0  0  0  0  0  0  0  0  0
   61.0151   34.6957   46.1250 H   0  0  0  0  0  0  0  0  0  0  0  0
   59.3960   33.9177   46.1250 H   0  0  0  0  0  0  0  0  0  0  0  0
   60.2097   33.7861   50.0892 H   0  0  0  0  0  0  0  0  0  0  0  0
   59.5981   35.1660   49.1153 H   0  0  0  0  0  0  0  0  0  0  0  0
   58.7113   33.6039   49.1153 H   0  0  0  0  0  0  0  0  0  0  0  0
   62.2287   33.9129   49.2920 H   0  0  0  0  0  0  0  0  0  0  0  0
   62.6532   33.0792   47.7585 H   0  0  0  0  0  0  0  0  0  0  0  0
   62.3184   34.8440   47.7585 H   0  0  0  0  0  0  0  0  0  0  0  0
   59.7063   32.2918   45.6369 H   0  0  0  0  0  0  0  0  0  0  0  0
   59.3049   30.5386   44.1554 H   0  0  0  0  0  0  0  0  0  0  0  0
   59.7696   28.8512   44.5957 H   0  0  0  0  0  0  0  0  0  0  0  0
   55.1410   27.4660   45.4200 H   0  0  0  0  0  0  0  0  0  0  0  0
   59.7326   28.2342   47.0983 H   0  0  0  0  0  0  0  0  0  0  0  0
   60.8447   29.0536   50.5884 H   0  0  0  0  0  0  0  0  0  0  0  0
  1  2  1  0
  2  3  1  0
  2  4  1  0
  2  5  1  0
  5  6  2  0
  6  7  1  0
  7  8  1  0
  8  9  1  0
  9 10  2  0
 10 11  1  0
 11 12  1  0
 11 13  1  0
 11 14  1  0
 10 15  1  0
 15 16  1  0
 16 17  1  0
 17 18  2  0
  7 19  2  0
 19 20  1  0
 20 21  1  0
 21 22  2  0
 20 23  2  0
 23 24  1  0
 23  5  1  0
 17  9  1  0
  1 25  1  0
  1 26  1  0
  1 27  1  0
  3 28  1  0
  3 29  1  0
  3 30  1  0
  4 31  1  0
  4 32  1  0
  4 33  1  0
  6 34  1  0
  8 35  1  0
  8 36  1  0
 15 37  1  0
 19 38  1  0
 21 39  1  0
M  CHG  2  16  -1  24  -1
M  END
>  <UniqueID>  (41) 
38

>  <SMILES>  (41) 
CC(C)(C)c1cc(Cc2c(C(F)(F)F)[nH][n-]c2=O)cc(C=O)c1[O-]

>  <Energy>  (41) 
75.3584377938572

>  <Genealogy>  (41) 
CC(C)(C)c1cc(Cc2c(C(F)(F)F)[nH][n-]c2=O)cc(C=O)c1[O-] (protonated)
CC(C)(C)c1cc(Cc2c(C(F)(F)F)[nH][n-]c2=O)cc(C=O)c1[O-] (3D coordinates assigned)
CC(C)(C)c1cc(Cc2c(C(F)(F)F)[nH][n-]c2=O)cc(C=O)c1[O-] (optimized conformer: 75.3584377938572 kcal/mol)

>  <smiles>  (41) 
CC(C)(C)c1cc(Cc2c(C(F)(F)F)[nH][nH]c2=O)cc(C=O)c1O

>  <score_type>  (41) 
oracle

>  <origin>  (41) 
adg

>  <m_score__min__energy>  (41) 
-10

>  <m_primary>  (41) 
energy

$$$$
41:0
     RDKit          3D

 41 43  0  0  0  0  0  0  0  0999 V2000
   54.9890   26.3530   45.9980 N   0  0  0  0  0  0  0  0  0  0  0  0
   56.5380   25.6010   46.1400 S   0  0  0  0  0  0  0  0  0  0  0  0
   56.9400   25.0330   44.8080 O   0  0  0  0  0  0  0  0  0  0  0  0
   56.4650   24.4810   47.1390 O   0  0  0  0  0  0  0  0  0  0  0  0
   57.7240   26.7920   46.6660 C   0  0  0  0  0  0  0  0  0  0  0  0
   57.7240   28.0780   46.1110 C   0  0  0  0  0  0  0  0  0  0  0  0
   58.6710   29.0220   46.5190 C   0  0  0  0  0  0  0  0  0  0  0  0
   59.6440   28.6830   47.4770 C   0  0  0  0  0  0  0  0  0  0  0  0
   60.6150   29.6410   47.9310 N   0  0  0  0  0  0  0  0  0  0  0  0
   60.8290   30.9210   47.3140 C   0  0  0  0  0  0  0  0  0  0  0  0
   60.3920   31.1510   46.1530 O   0  0  0  0  0  0  0  0  0  0  0  0
   61.6510   31.9660   48.0200 C   0  0  1  0  0  0  0  0  0  0  0  0
   63.1470   31.6580   47.9340 C   0  0  0  0  0  0  0  0  0  0  0  0
   63.7050   32.6000   46.8710 C   0  0  0  0  0  0  0  0  0  0  0  0
   62.7100   33.7480   46.7670 C   0  0  0  0  0  0  0  0  0  0  0  0
   61.4800   33.2570   47.3690 N   0  0  0  0  0  0  0  0  0  0  0  0
   60.3180   34.0780   47.5640 C   0  0  0  0  0  0  0  0  0  0  0  0
   60.2890   34.8990   48.5180 O   0  0  0  0  0  0  0  0  0  0  0  0
   59.1480   33.9750   46.6770 C   0  0  0  0  0  0  0  0  0  0  0  0
   57.9390   33.3530   46.9720 C   0  0  0  0  0  0  0  0  0  0  0  0
   56.9900   33.4770   45.9500 C   0  0  0  0  0  0  0  0  0  0  0  0
   57.4380   34.2060   44.8570 C   0  0  0  0  0  0  0  0  0  0  0  0
   59.0150   34.7020   45.1660 S   0  0  0  0  0  0  0  0  0  0  0  0
   59.6300   27.3990   48.0400 C   0  0  0  0  0  0  0  0  0  0  0  0
   58.6830   26.4550   47.6310 C   0  0  0  0  0  0  0  0  0  0  0  0
   55.1490   27.3860   46.0240 H   0  0  0  0  0  0  0  0  0  0  0  0
   56.9756   28.3464   45.3508 H   0  0  0  0  0  0  0  0  0  0  0  0
   58.6553   30.0344   46.0891 H   0  0  0  0  0  0  0  0  0  0  0  0
   61.2510   29.3650   48.7130 H   0  0  0  0  0  0  0  0  0  0  0  0
   61.3126   31.9755   49.0666 H   0  0  0  0  0  0  0  0  0  0  0  0
   63.6327   31.8437   48.9034 H   0  0  0  0  0  0  0  0  0  0  0  0
   63.3292   30.6041   47.6769 H   0  0  0  0  0  0  0  0  0  0  0  0
   64.6932   32.9764   47.1740 H   0  0  0  0  0  0  0  0  0  0  0  0
   63.8340   32.0886   45.9057 H   0  0  0  0  0  0  0  0  0  0  0  0
   63.0804   34.6276   47.3139 H   0  0  0  0  0  0  0  0  0  0  0  0
   62.5558   34.0590   45.7232 H   0  0  0  0  0  0  0  0  0  0  0  0
   57.7478   32.8175   47.9137 H   0  0  0  0  0  0  0  0  0  0  0  0
   55.9832   33.0376   46.0079 H   0  0  0  0  0  0  0  0  0  0  0  0
   56.8610   34.4221   43.9458 H   0  0  0  0  0  0  0  0  0  0  0  0
   60.3696   27.1322   48.8093 H   0  0  0  0  0  0  0  0  0  0  0  0
   58.6907   25.4454   48.0677 H   0  0  0  0  0  0  0  0  0  0  0  0
  1  2  1  0
  2  3  2  0
  2  4  2  0
  2  5  1  0
  5  6  2  0
  6  7  1  0
  7  8  2  0
  8  9  1  0
  9 10  1  0
 10 11  2  0
 10 12  1  0
 12 13  1  0
 13 14  1  0
 14 15  1  0
 15 16  1  0
 16 17  1  0
 17 18  2  0
 17 19  1  0
 19 20  2  0
 20 21  1  0
 21 22  2  0
 22 23  1  0
  8 24  1  0
 24 25  2  0
 25  5  1  0
 16 12  1  0
 23 19  1  0
  1 26  1  0
  6 27  1  0
  7 28  1  0
  9 29  1  0
 12 30  1  1
 13 31  1  0
 13 32  1  0
 14 33  1  0
 14 34  1  0
 15 35  1  0
 15 36  1  0
 20 37  1  0
 21 38  1  0
 22 39  1  0
 24 40  1  0
 25 41  1  0
M  CHG  1   1  -1
M  END
>  <UniqueID>  (42) 
39

>  <SMILES>  (42) 
[NH-]S(=O)(=O)c1ccc(NC(=O)[C@H]2CCCN2C(=O)c2cccs2)cc1

>  <Energy>  (42) 
74.20008649347602

>  <Genealogy>  (42) 
[NH-]S(=O)(=O)c1ccc(NC(=O)C2CCCN2C(=O)c2cccs2)cc1 (protonated)
[NH-]S(=O)(=O)c1ccc(NC(=O)[C@H]2CCCN2C(=O)c2cccs2)cc1 (chirality)
[NH-]S(=O)(=O)c1ccc(NC(=O)[C@H]2CCCN2C(=O)c2cccs2)cc1 (3D coordinates assigned)
[NH-]S(=O)(=O)c1ccc(NC(=O)[C@H]2CCCN2C(=O)c2cccs2)cc1 (nonaromatic ring conformer: 74.20008649347602 kcal/mol)

>  <smiles>  (42) 
NS(=O)(=O)c1ccc(NC(=O)C2CCCN2C(=O)c2cccs2)cc1

>  <score_type>  (42) 
oracle

>  <origin>  (42) 
adg

>  <m_score__min__energy>  (42) 
-11.44

>  <m_primary>  (42) 
energy

$$$$
42:0
     RDKit          3D

 38 40  0  0  0  0  0  0  0  0999 V2000
   55.6650   28.9650   44.8640 O   0  0  0  0  0  0  0  0  0  0  0  0
   56.5730   29.8380   44.9230 C   0  0  0  0  0  0  0  0  0  0  0  0
   56.2980   31.2020   44.5760 N   0  0  0  0  0  0  0  0  0  0  0  0
   57.1630   32.3270   44.7900 C   0  0  0  0  0  0  0  0  0  0  0  0
   56.9940   33.0920   45.9520 C   0  0  0  0  0  0  0  0  0  0  0  0
   57.8020   34.2080   46.1890 C   0  0  0  0  0  0  0  0  0  0  0  0
   58.7750   34.5780   45.2570 C   0  0  0  0  0  0  0  0  0  0  0  0
   58.9350   33.8360   44.0830 C   0  0  0  0  0  0  0  0  0  0  0  0
   58.1290   32.7180   43.8440 C   0  0  0  0  0  0  0  0  0  0  0  0
   57.9810   29.4350   45.2680 C   0  0  2  0  0  0  0  0  0  0  0  0
   58.0650   27.9200   45.5760 C   0  0  0  0  0  0  0  0  0  0  0  0
   59.1640   27.5590   46.5930 C   0  0  0  0  0  0  0  0  0  0  0  0
   60.3590   28.5150   46.5290 C   0  0  0  0  0  0  0  0  0  0  0  0
   59.9320   29.9160   46.6980 N   0  0  0  0  0  0  0  0  0  0  0  0
   60.8500   30.9110   47.2010 C   0  0  0  0  0  0  0  0  0  0  0  0
   60.7560   32.2610   46.8170 C   0  0  0  0  0  0  0  0  0  0  0  0
   61.6390   33.1650   47.3190 N   0  0  0  0  0  0  0  0  0  0  0  0
   62.6150   32.7920   48.1870 C   0  0  0  0  0  0  0  0  0  0  0  0
   62.7100   31.4570   48.5780 C   0  0  0  0  0  0  0  0  0  0  0  0
   61.8280   30.5510   48.0790 N   0  0  0  0  0  0  0  0  0  0  0  0
   58.5370   30.2900   46.4190 C   0  0  0  0  0  0  0  0  0  0  0  0
   56.2205   32.8125   46.6824 H   0  0  0  0  0  0  0  0  0  0  0  0
   57.6716   34.7953   47.1099 H   0  0  0  0  0  0  0  0  0  0  0  0
   59.4147   35.4525   45.4469 H   0  0  0  0  0  0  0  0  0  0  0  0
   59.6960   34.1319   43.3459 H   0  0  0  0  0  0  0  0  0  0  0  0
   58.2505   32.1429   42.9142 H   0  0  0  0  0  0  0  0  0  0  0  0
   58.6165   29.6241   44.3903 H   0  0  0  0  0  0  0  0  0  0  0  0
   57.0957   27.5928   45.9802 H   0  0  0  0  0  0  0  0  0  0  0  0
   58.3174   27.4121   44.6335 H   0  0  0  0  0  0  0  0  0  0  0  0
   58.7348   27.5981   47.6050 H   0  0  0  0  0  0  0  0  0  0  0  0
   59.5289   26.5508   46.3472 H   0  0  0  0  0  0  0  0  0  0  0  0
   61.0678   28.2571   47.3296 H   0  0  0  0  0  0  0  0  0  0  0  0
   60.8338   28.4127   45.5420 H   0  0  0  0  0  0  0  0  0  0  0  0
   59.9730   32.5834   46.1149 H   0  0  0  0  0  0  0  0  0  0  0  0
   63.3241   33.5365   48.5780 H   0  0  0  0  0  0  0  0  0  0  0  0
   63.4917   31.1398   49.2839 H   0  0  0  0  0  0  0  0  0  0  0  0
   57.9289   30.1258   47.3208 H   0  0  0  0  0  0  0  0  0  0  0  0
   58.4994   31.3508   46.1304 H   0  0  0  0  0  0  0  0  0  0  0  0
  1  2  2  0
  2  3  1  0
  3  4  1  0
  4  5  2  0
  5  6  1  0
  6  7  2  0
  7  8  1  0
  8  9  2  0
  2 10  1  0
 10 11  1  0
 11 12  1  0
 12 13  1  0
 13 14  1  0
 14 15  1  0
 15 16  2  0
 16 17  1  0
 17 18  2  0
 18 19  1  0
 19 20  2  0
 14 21  1  0
  9  4  1  0
 21 10  1  0
 20 15  1  0
  5 22  1  0
  6 23  1  0
  7 24  1  0
  8 25  1  0
  9 26  1  0
 10 27  1  6
 11 28  1  0
 11 29  1  0
 12 30  1  0
 12 31  1  0
 13 32  1  0
 13 33  1  0
 16 34  1  0
 18 35  1  0
 19 36  1  0
 21 37  1  0
 21 38  1  0
M  CHG  1   3  -1
M  END
>  <UniqueID>  (43) 
40

>  <SMILES>  (43) 
O=C([N-]c1ccccc1)[C@@H]1CCCN(c2cnccn2)C1

>  <Energy>  (43) 
48.291148965309624

>  <Genealogy>  (43) 
O=C([N-]c1ccccc1)C1CCCN(c2cnccn2)C1 (protonated)
O=C([N-]c1ccccc1)[C@@H]1CCCN(c2cnccn2)C1 (chirality)
O=C([N-]c1ccccc1)[C@@H]1CCCN(c2cnccn2)C1 (3D coordinates assigned)
O=C([N-]c1ccccc1)[C@@H]1CCCN(c2cnccn2)C1 (nonaromatic ring conformer: 48.291148965309624 kcal/mol)

>  <smiles>  (43) 
O=C(Nc1ccccc1)C1CCCN(c2cnccn2)C1

>  <score_type>  (43) 
oracle

>  <origin>  (43) 
adg

>  <m_score__min__energy>  (43) 
-8.8699999999999992

>  <m_primary>  (43) 
energy

$$$$
43:0
     RDKit          3D

 58 60  0  0  0  0  0  0  0  0999 V2000
   56.6000   23.7700   43.4040 C   0  0  0  0  0  0  0  0  0  0  0  0
   57.7160   24.3770   44.2440 C   0  0  0  0  0  0  0  0  0  0  0  0
   57.4470   25.7920   44.5000 N   0  0  0  0  0  0  0  0  0  0  0  0
   57.8910   26.4990   45.6750 C   0  0  0  0  0  0  0  0  0  0  0  0
   58.9140   25.9700   46.4870 C   0  0  0  0  0  0  0  0  0  0  0  0
   59.4260   26.7060   47.5590 C   0  0  0  0  0  0  0  0  0  0  0  0
   58.9400   27.9890   47.8300 C   0  0  0  0  0  0  0  0  0  0  0  0
   59.6040   28.9260   49.1710 S   0  0  0  0  0  0  0  0  0  0  0  0
   58.4870   29.3310   50.0920 O   0  0  0  0  0  0  0  0  0  0  0  0
   60.5570   28.0620   49.9500 O   0  0  0  0  0  0  0  0  0  0  0  0
   60.4370   30.3550   48.6140 N   0  0  0  0  0  0  0  0  0  0  0  0
   61.6080   30.6280   49.4610 C   0  0  0  0  0  0  0  0  0  0  0  0
   62.3490   31.8580   48.9240 C   0  0  0  0  0  0  0  0  0  0  0  0
   62.7600   31.6490   47.5850 O   0  0  0  0  0  0  0  0  0  0  0  0
   61.6280   31.4340   46.7620 C   0  0  0  0  0  0  0  0  0  0  0  0
   60.8560   30.1880   47.2150 C   0  0  0  0  0  0  0  0  0  0  0  0
   57.9210   28.5230   47.0350 C   0  0  0  0  0  0  0  0  0  0  0  0
   57.3700   27.7800   45.9830 C   0  0  0  0  0  0  0  0  0  0  0  0
   56.2910   28.3680   45.2420 N   0  0  0  0  0  0  0  0  0  0  0  0
   56.2700   29.7090   44.7380 C   0  0  0  0  0  0  0  0  0  0  0  0
   55.1770   30.3160   44.5730 O   0  0  0  0  0  0  0  0  0  0  0  0
   57.5600   30.4230   44.4860 C   0  0  0  0  0  0  0  0  0  0  0  0
   57.3570   31.8740   44.4900 N   0  0  0  0  0  0  0  0  0  0  0  0
   58.0950   32.7730   45.3390 C   0  0  0  0  0  0  0  0  0  0  0  0
   58.7400   33.9130   44.8230 C   0  0  0  0  0  0  0  0  0  0  0  0
   59.4530   34.7620   45.6720 C   0  0  0  0  0  0  0  0  0  0  0  0
   59.5250   34.4930   47.0410 C   0  0  0  0  0  0  0  0  0  0  0  0
   58.8790   33.3670   47.5810 C   0  0  0  0  0  0  0  0  0  0  0  0
   58.9410   33.0680   49.0320 C   0  0  0  0  0  0  0  0  0  0  0  0
   58.5590   31.7900   49.5490 N   0  0  0  0  0  0  0  0  0  0  0  0
   59.3570   33.9480   49.8330 O   0  0  0  0  0  0  0  0  0  0  0  0
   58.1770   32.5060   46.7170 C   0  0  0  0  0  0  0  0  0  0  0  0
   55.8288   23.3506   44.0669 H   0  0  0  0  0  0  0  0  0  0  0  0
   56.1534   24.5495   42.7692 H   0  0  0  0  0  0  0  0  0  0  0  0
   57.0117   22.9715   42.7692 H   0  0  0  0  0  0  0  0  0  0  0  0
   57.7814   23.8410   45.2023 H   0  0  0  0  0  0  0  0  0  0  0  0
   58.6656   24.2869   43.6961 H   0  0  0  0  0  0  0  0  0  0  0  0
   56.9600   26.3240   43.7450 H   0  0  0  0  0  0  0  0  0  0  0  0
   59.3137   24.9674   46.2749 H   0  0  0  0  0  0  0  0  0  0  0  0
   60.2148   26.2742   48.1925 H   0  0  0  0  0  0  0  0  0  0  0  0
   61.2781   30.8197   50.4927 H   0  0  0  0  0  0  0  0  0  0  0  0
   62.2816   29.7585   49.4481 H   0  0  0  0  0  0  0  0  0  0  0  0
   61.6790   32.7295   48.9643 H   0  0  0  0  0  0  0  0  0  0  0  0
   63.2402   32.0331   49.5445 H   0  0  0  0  0  0  0  0  0  0  0  0
   60.9661   32.3105   46.8224 H   0  0  0  0  0  0  0  0  0  0  0  0
   61.9675   31.2823   45.7268 H   0  0  0  0  0  0  0  0  0  0  0  0
   59.9681   30.0552   46.5794 H   0  0  0  0  0  0  0  0  0  0  0  0
   61.5035   29.3030   47.1286 H   0  0  0  0  0  0  0  0  0  0  0  0
   57.5480   29.5377   47.2380 H   0  0  0  0  0  0  0  0  0  0  0  0
   58.2801   30.1568   45.2737 H   0  0  0  0  0  0  0  0  0  0  0  0
   57.9447   30.1220   43.5004 H   0  0  0  0  0  0  0  0  0  0  0  0
   56.6560   32.2850   43.8290 H   0  0  0  0  0  0  0  0  0  0  0  0
   58.6821   34.1357   43.7473 H   0  0  0  0  0  0  0  0  0  0  0  0
   59.9605   35.6471   45.2608 H   0  0  0  0  0  0  0  0  0  0  0  0
   60.0910   35.1668   47.7010 H   0  0  0  0  0  0  0  0  0  0  0  0
   58.3530   30.9830   48.9210 H   0  0  0  0  0  0  0  0  0  0  0  0
   58.5760   31.6170   50.5800 H   0  0  0  0  0  0  0  0  0  0  0  0
   57.6852   31.6110   47.1258 H   0  0  0  0  0  0  0  0  0  0  0  0
  1  2  1  0
  2  3  1  0
  3  4  1  0
  4  5  2  0
  5  6  1  0
  6  7  2  0
  7  8  1  0
  8  9  2  0
  8 10  2  0
  8 11  1  0
 11 12  1  0
 12 13  1  0
 13 14  1  0
 14 15  1  0
 15 16  1  0
  7 17  1  0
 17 18  2  0
 18 19  1  0
 19 20  1  0
 20 21  2  0
 20 22  1  0
 22 23  1  0
 23 24  1  0
 24 25  2  0
 25 26  1  0
 26 27  2  0
 27 28  1  0
 28 29  1  0
 29 30  1  0
 29 31  2  0
 28 32  2  0
 18  4  1  0
 32 24  1  0
 16 11  1  0
  1 33  1  0
  1 34  1  0
  1 35  1  0
  2 36  1  0
  2 37  1  0
  3 38  1  0
  5 39  1  0
  6 40  1  0
 12 41  1  0
 12 42  1  0
 13 43  1  0
 13 44  1  0
 15 45  1  0
 15 46  1  0
 16 47  1  0
 16 48  1  0
 17 49  1  0
 22 50  1  0
 22 51  1  0
 23 52  1  0
 25 53  1  0
 26 54  1  0
 27 55  1  0
 30 56  1  0
 30 57  1  0
 32 58  1  0
M  CHG  1  19  -1
M  END
>  <UniqueID>  (44) 
41

>  <SMILES>  (44) 
CCNc1ccc(S(=O)(=O)N2CCOCC2)cc1[N-]C(=O)CNc1cccc(C(N)=O)c1

>  <Energy>  (44) 
63.73042176496245

>  <Genealogy>  (44) 
CCNc1ccc(S(=O)(=O)N2CCOCC2)cc1[N-]C(=O)CNc1cccc(C(N)=O)c1 (protonated)
CCNc1ccc(S(=O)(=O)N2CCOCC2)cc1[N-]C(=O)CNc1cccc(C(N)=O)c1 (3D coordinates assigned)
CCNc1ccc(S(=O)(=O)N2CCOCC2)cc1[N-]C(=O)CNc1cccc(C(N)=O)c1 (nonaromatic ring conformer: 63.73042176496245 kcal/mol)

>  <smiles>  (44) 
CCNc1ccc(S(=O)(=O)N2CCOCC2)cc1NC(=O)CNc1cccc(C(N)=O)c1

>  <score_type>  (44) 
oracle

>  <origin>  (44) 
adg

>  <m_score__min__energy>  (44) 
-10.92

>  <m_primary>  (44) 
energy

$$$$
44:0
     RDKit          3D

 53 56  0  0  0  0  0  0  0  0999 V2000
   57.9190   27.0600   46.1880 O   0  0  0  0  0  0  0  0  0  0  0  0
   56.6740   27.1120   45.9980 C   0  0  0  0  0  0  0  0  0  0  0  0
   55.8270   26.0470   46.4460 N   0  0  0  0  0  0  0  0  0  0  0  0
   55.7940   24.7060   45.9350 C   0  0  0  0  0  0  0  0  0  0  0  0
   56.4620   24.4290   44.7350 C   0  0  0  0  0  0  0  0  0  0  0  0
   56.4340   23.1410   44.1910 C   0  0  0  0  0  0  0  0  0  0  0  0
   55.7240   22.1240   44.8340 C   0  0  0  0  0  0  0  0  0  0  0  0
   55.0340   22.3960   46.0170 C   0  0  0  0  0  0  0  0  0  0  0  0
   55.0600   23.6840   46.5650 C   0  0  0  0  0  0  0  0  0  0  0  0
   56.0990   28.1910   45.2490 N   0  0  0  0  0  0  0  0  0  0  0  0
   56.7760   29.4260   44.9540 C   0  0  0  0  0  0  0  0  0  0  0  0
   57.7440   29.9590   45.8230 C   0  0  0  0  0  0  0  0  0  0  0  0
   58.3620   31.1800   45.5320 C   0  0  0  0  0  0  0  0  0  0  0  0
   58.0170   31.8900   44.3680 C   0  0  0  0  0  0  0  0  0  0  0  0
   58.5940   33.1280   44.0510 O   0  0  0  0  0  0  0  0  0  0  0  0
   58.7680   34.1880   44.9490 C   0  0  0  0  0  0  0  0  0  0  0  0
   59.2580   35.2830   44.5610 O   0  0  0  0  0  0  0  0  0  0  0  0
   58.2830   34.0440   46.2880 N   0  0  0  0  0  0  0  0  0  0  0  0
   59.0630   33.7300   47.4510 C   0  0  0  0  0  0  0  0  0  0  0  0
   60.4060   34.1250   47.4830 C   0  0  0  0  0  0  0  0  0  0  0  0
   61.1930   33.8590   48.6060 C   0  0  0  0  0  0  0  0  0  0  0  0
   60.6430   33.2050   49.7110 C   0  0  0  0  0  0  0  0  0  0  0  0
   59.2930   32.8180   49.7080 C   0  0  0  0  0  0  0  0  0  0  0  0
   58.7200   32.1540   50.8510 N   0  0  0  0  0  0  0  0  0  0  0  0
   58.1850   30.7950   50.8340 C   0  0  0  0  0  0  0  0  0  0  0  0
   57.3290   30.5870   52.1030 C   0  0  0  0  0  0  0  0  0  0  0  0
   57.8040   31.5200   53.2260 C   0  0  0  0  0  0  0  0  0  0  0  0
   58.5850   32.8680   52.4040 S   0  0  0  0  0  0  0  0  0  0  0  0
   57.7050   34.0870   52.3700 O   0  0  0  0  0  0  0  0  0  0  0  0
   59.9240   33.1700   53.0130 O   0  0  0  0  0  0  0  0  0  0  0  0
   58.5050   33.0960   48.5760 C   0  0  0  0  0  0  0  0  0  0  0  0
   57.0310   31.3730   43.5210 C   0  0  0  0  0  0  0  0  0  0  0  0
   56.4130   30.1530   43.8110 C   0  0  0  0  0  0  0  0  0  0  0  0
   57.0116   25.2292   44.2178 H   0  0  0  0  0  0  0  0  0  0  0  0
   56.9719   22.9283   43.2553 H   0  0  0  0  0  0  0  0  0  0  0  0
   55.7086   21.1097   44.4086 H   0  0  0  0  0  0  0  0  0  0  0  0
   54.4690   21.5969   46.5193 H   0  0  0  0  0  0  0  0  0  0  0  0
   54.5052   23.8977   47.4905 H   0  0  0  0  0  0  0  0  0  0  0  0
   55.1450   28.0420   44.8460 H   0  0  0  0  0  0  0  0  0  0  0  0
   58.0173   29.4125   46.7377 H   0  0  0  0  0  0  0  0  0  0  0  0
   59.1210   31.5864   46.2166 H   0  0  0  0  0  0  0  0  0  0  0  0
   60.8435   34.6474   46.6195 H   0  0  0  0  0  0  0  0  0  0  0  0
   62.2493   34.1656   48.6202 H   0  0  0  0  0  0  0  0  0  0  0  0
   61.2710   32.9919   50.5886 H   0  0  0  0  0  0  0  0  0  0  0  0
   57.5615   30.6533   49.9389 H   0  0  0  0  0  0  0  0  0  0  0  0
   59.0091   30.0667   50.8128 H   0  0  0  0  0  0  0  0  0  0  0  0
   56.2764   30.8060   51.8704 H   0  0  0  0  0  0  0  0  0  0  0  0
   57.4325   29.5441   52.4370 H   0  0  0  0  0  0  0  0  0  0  0  0
   56.9494   31.8737   53.8214 H   0  0  0  0  0  0  0  0  0  0  0  0
   58.4863   31.0115   53.9230 H   0  0  0  0  0  0  0  0  0  0  0  0
   57.4416   32.8147   48.5706 H   0  0  0  0  0  0  0  0  0  0  0  0
   56.7394   31.9312   42.6191 H   0  0  0  0  0  0  0  0  0  0  0  0
   55.6365   29.7605   43.1379 H   0  0  0  0  0  0  0  0  0  0  0  0
  1  2  2  0
  2  3  1  0
  3  4  1  0
  4  5  2  0
  5  6  1  0
  6  7  2  0
  7  8  1  0
  8  9  2  0
  2 10  1  0
 10 11  1  0
 11 12  2  0
 12 13  1  0
 13 14  2  0
 14 15  1  0
 15 16  1  0
 16 17  2  0
 16 18  1  0
 18 19  1  0
 19 20  2  0
 20 21  1  0
 21 22  2  0
 22 23  1  0
 23 24  1  0
 24 25  1  0
 25 26  1  0
 26 27  1  0
 27 28  1  0
 28 29  2  0
 28 30  2  0
 23 31  2  0
 14 32  1  0
 32 33  2  0
  9  4  1  0
 33 11  1  0
 31 19  1  0
 28 24  1  0
  5 34  1  0
  6 35  1  0
  7 36  1  0
  8 37  1  0
  9 38  1  0
 10 39  1  0
 12 40  1  0
 13 41  1  0
 20 42  1  0
 21 43  1  0
 22 44  1  0
 25 45  1  0
 25 46  1  0
 26 47  1  0
 26 48  1  0
 27 49  1  0
 27 50  1  0
 31 51  1  0
 32 52  1  0
 33 53  1  0
M  CHG  2   3  -1  18  -1
M  END
>  <UniqueID>  (45) 
42

>  <SMILES>  (45) 
O=C([N-]c1ccccc1)Nc1ccc(OC(=O)[N-]c2cccc(N3CCCS3(=O)=O)c2)cc1

>  <Energy>  (45) 
80.36055661054058

>  <Genealogy>  (45) 
O=C([N-]c1ccccc1)Nc1ccc(OC(=O)[N-]c2cccc(N3CCCS3(=O)=O)c2)cc1 (protonated)
O=C([N-]c1ccccc1)Nc1ccc(OC(=O)[N-]c2cccc(N3CCCS3(=O)=O)c2)cc1 (3D coordinates assigned)
O=C([N-]c1ccccc1)Nc1ccc(OC(=O)[N-]c2cccc(N3CCCS3(=O)=O)c2)cc1 (nonaromatic ring conformer: 80.36055661054058 kcal/mol)

>  <smiles>  (45) 
O=C(Nc1ccccc1)Nc1ccc(OC(=O)Nc2cccc(N3CCCS3(=O)=O)c2)cc1

>  <score_type>  (45) 
oracle

>  <origin>  (45) 
adg

>  <m_score__min__energy>  (45) 
-12.02

>  <m_primary>  (45) 
energy

$$$$
45:0
     RDKit          3D

 72 76  0  0  0  0  0  0  0  0999 V2000
   58.8270   33.1460   51.8610 C   0  0  0  0  0  0  0  0  0  0  0  0
   60.1800   33.1740   52.3070 O   0  0  0  0  0  0  0  0  0  0  0  0
   60.6080   33.6830   53.5450 C   0  0  0  0  0  0  0  0  0  0  0  0
   59.6930   33.9410   54.5870 C   0  0  0  0  0  0  0  0  0  0  0  0
   60.1370   34.4330   55.8150 C   0  0  0  0  0  0  0  0  0  0  0  0
   61.4930   34.6800   56.0190 C   0  0  0  0  0  0  0  0  0  0  0  0
   62.4120   34.4340   54.9980 C   0  0  0  0  0  0  0  0  0  0  0  0
   61.9850   33.9310   53.7530 C   0  0  0  0  0  0  0  0  0  0  0  0
   62.9730   33.6760   52.6740 C   0  0  0  0  0  0  0  0  0  0  0  0
   62.6910   33.0740   51.4980 N   0  0  0  0  0  0  0  0  0  0  0  0
   63.8540   33.0660   50.8210 C   0  0  0  0  0  0  0  0  0  0  0  0
   64.0230   32.5060   49.4260 C   0  0  0  0  0  0  0  0  0  0  0  0
   62.9520   31.5670   49.0280 N   0  0  0  0  0  0  0  0  0  0  0  0
   62.6710   30.5200   50.0430 C   0  0  0  0  0  0  0  0  0  0  0  0
   61.1970   30.0750   50.0870 C   0  0  0  0  0  0  0  0  0  0  0  0
   60.6160   30.0580   48.7420 N   0  0  0  0  0  0  0  0  0  0  0  0
   59.5350   29.1540   48.4740 C   0  0  0  0  0  0  0  0  0  0  0  0
   58.5250   29.1540   49.2290 O   0  0  0  0  0  0  0  0  0  0  0  0
   59.6190   28.1450   47.3620 C   0  0  0  0  0  0  0  0  0  0  0  0
   58.3440   28.0450   46.6180 N   0  0  0  0  0  0  0  0  0  0  0  0
   57.9890   28.9800   45.6640 C   0  0  0  0  0  0  0  0  0  0  0  0
   58.8560   30.1410   45.3590 C   0  0  0  0  0  0  0  0  0  0  0  0
   60.0370   29.9250   44.9730 O   0  0  0  0  0  0  0  0  0  0  0  0
   58.3650   31.5360   45.5060 C   0  0  0  0  0  0  0  0  0  0  0  0
   58.1450   32.3330   44.3650 C   0  0  0  0  0  0  0  0  0  0  0  0
   57.6910   33.6480   44.4960 C   0  0  0  0  0  0  0  0  0  0  0  0
   57.4490   34.1840   45.7620 C   0  0  0  0  0  0  0  0  0  0  0  0
   57.6580   33.4030   46.9010 C   0  0  0  0  0  0  0  0  0  0  0  0
   58.1110   32.0870   46.7780 C   0  0  0  0  0  0  0  0  0  0  0  0
   56.7670   28.8360   44.9720 C   0  0  0  0  0  0  0  0  0  0  0  0
   56.3260   29.8170   43.9240 C   0  0  0  0  0  0  0  0  0  0  0  0
   55.9650   27.7800   45.2510 N   0  0  0  0  0  0  0  0  0  0  0  0
   56.3040   26.8550   46.1800 C   0  0  0  0  0  0  0  0  0  0  0  0
   55.5280   25.8890   46.4090 O   0  0  0  0  0  0  0  0  0  0  0  0
   57.5120   26.9810   46.8720 C   0  0  0  0  0  0  0  0  0  0  0  0
   57.8260   26.1080   47.7280 O   0  0  0  0  0  0  0  0  0  0  0  0
   60.8400   31.1950   47.8400 C   0  0  0  0  0  0  0  0  0  0  0  0
   61.7550   32.2350   48.4860 C   0  0  0  0  0  0  0  0  0  0  0  0
   64.8190   33.6460   51.6300 C   0  0  0  0  0  0  0  0  0  0  0  0
   66.2670   33.8650   51.3350 C   0  0  0  0  0  0  0  0  0  0  0  0
   64.2410   34.0170   52.7480 O   0  0  0  0  0  0  0  0  0  0  0  0
   58.1543   33.1321   52.7312 H   0  0  0  0  0  0  0  0  0  0  0  0
   58.6225   34.0401   51.2537 H   0  0  0  0  0  0  0  0  0  0  0  0
   58.6597   32.2442   51.2537 H   0  0  0  0  0  0  0  0  0  0  0  0
   58.6206   33.7528   54.4303 H   0  0  0  0  0  0  0  0  0  0  0  0
   59.4157   34.6260   56.6228 H   0  0  0  0  0  0  0  0  0  0  0  0
   61.8400   35.0699   56.9873 H   0  0  0  0  0  0  0  0  0  0  0  0
   63.4803   34.6348   55.1668 H   0  0  0  0  0  0  0  0  0  0  0  0
   61.7740   32.6980   51.1720 H   0  0  0  0  0  0  0  0  0  0  0  0
   64.0319   33.3445   48.7140 H   0  0  0  0  0  0  0  0  0  0  0  0
   64.9658   31.9394   49.4193 H   0  0  0  0  0  0  0  0  0  0  0  0
   63.2918   29.6409   49.8152 H   0  0  0  0  0  0  0  0  0  0  0  0
   62.9028   30.9566   51.0257 H   0  0  0  0  0  0  0  0  0  0  0  0
   61.1385   29.0644   50.5175 H   0  0  0  0  0  0  0  0  0  0  0  0
   60.6325   30.7888   50.7049 H   0  0  0  0  0  0  0  0  0  0  0  0
   60.4155   28.4468   46.6659 H   0  0  0  0  0  0  0  0  0  0  0  0
   59.8357   27.1621   47.8057 H   0  0  0  0  0  0  0  0  0  0  0  0
   58.3320   31.9170   43.3640 H   0  0  0  0  0  0  0  0  0  0  0  0
   57.5238   34.2625   43.5991 H   0  0  0  0  0  0  0  0  0  0  0  0
   57.0941   35.2203   45.8625 H   0  0  0  0  0  0  0  0  0  0  0  0
   57.4653   33.8254   47.8982 H   0  0  0  0  0  0  0  0  0  0  0  0
   58.2704   31.4773   47.6796 H   0  0  0  0  0  0  0  0  0  0  0  0
   55.9216   30.7166   44.4109 H   0  0  0  0  0  0  0  0  0  0  0  0
   57.1859   30.0947   43.2967 H   0  0  0  0  0  0  0  0  0  0  0  0
   55.5475   29.3582   43.2967 H   0  0  0  0  0  0  0  0  0  0  0  0
   61.3068   30.8318   46.9125 H   0  0  0  0  0  0  0  0  0  0  0  0
   59.8703   31.6673   47.6242 H   0  0  0  0  0  0  0  0  0  0  0  0
   62.0584   32.9757   47.7315 H   0  0  0  0  0  0  0  0  0  0  0  0
   61.2169   32.7413   49.3009 H   0  0  0  0  0  0  0  0  0  0  0  0
   66.8249   33.9494   52.2793 H   0  0  0  0  0  0  0  0  0  0  0  0
   66.6555   33.0154   50.7543 H   0  0  0  0  0  0  0  0  0  0  0  0
   66.3868   34.7915   50.7543 H   0  0  0  0  0  0  0  0  0  0  0  0
  1  2  1  0
  2  3  1  0
  3  4  2  0
  4  5  1  0
  5  6  2  0
  6  7  1  0
  7  8  2  0
  8  9  1  0
  9 10  2  0
 10 11  1  0
 11 12  1  0
 12 13  1  0
 13 14  1  0
 14 15  1  0
 15 16  1  0
 16 17  1  0
 17 18  2  0
 17 19  1  0
 19 20  1  0
 20 21  1  0
 21 22  1  0
 22 23  2  0
 22 24  1  0
 24 25  2  0
 25 26  1  0
 26 27  2  0
 27 28  1  0
 28 29  2  0
 21 30  2  0
 30 31  1  0
 30 32  1  0
 32 33  1  0
 33 34  2  0
 33 35  1  0
 35 36  2  0
 16 37  1  0
 37 38  1  0
 11 39  2  0
 39 40  1  0
 39 41  1  0
  8  3  1  0
 41  9  1  0
 38 13  1  0
 35 20  1  0
 29 24  1  0
  1 42  1  0
  1 43  1  0
  1 44  1  0
  4 45  1  0
  5 46  1  0
  6 47  1  0
  7 48  1  0
 10 49  1  0
 12 50  1  0
 12 51  1  0
 14 52  1  0
 14 53  1  0
 15 54  1  0
 15 55  1  0
 19 56  1  0
 19 57  1  0
 25 58  1  0
 26 59  1  0
 27 60  1  0
 28 61  1  0
 29 62  1  0
 31 63  1  0
 31 64  1  0
 31 65  1  0
 37 66  1  0
 37 67  1  0
 38 68  1  0
 38 69  1  0
 40 70  1  0
 40 71  1  0
 40 72  1  0
M  CHG  2  10   1  32  -1
M  END
>  <UniqueID>  (46) 
43

>  <SMILES>  (46) 
COc1ccccc1-c1[nH+]c(CN2CCN(C(=O)Cn3c(C(=O)c4ccccc4)c(C)[n-]c(=O)c3=O)CC2)c(C)o1

>  <Energy>  (46) 
134.80319725443294

>  <Genealogy>  (46) 
COc1ccccc1-c1[nH+]c(CN2CCN(C(=O)Cn3c(C(=O)c4ccccc4)c(C)[n-]c(=O)c3=O)CC2)c(C)o1 (protonated)
COc1ccccc1-c1[nH+]c(CN2CCN(C(=O)Cn3c(C(=O)c4ccccc4)c(C)[n-]c(=O)c3=O)CC2)c(C)o1 (3D coordinates assigned)
COc1ccccc1-c1[nH+]c(CN2CCN(C(=O)Cn3c(C(=O)c4ccccc4)c(C)[n-]c(=O)c3=O)CC2)c(C)o1 (nonaromatic ring conformer: 134.80319725443294 kcal/mol)

>  <smiles>  (46) 
COc1ccccc1-c1nc(CN2CCN(C(=O)Cn3c(C(=O)c4ccccc4)c(C)[nH]c(=O)c3=O)CC2)c(C)o1

>  <score_type>  (46) 
oracle

>  <origin>  (46) 
adg

>  <m_score__min__energy>  (46) 
-10.119999999999999

>  <m_primary>  (46) 
energy

$$$$
46:0
     RDKit          3D

 63 66  0  0  0  0  0  0  0  0999 V2000
   56.8310   25.2930   46.2020 C   0  0  0  0  0  0  0  0  0  0  0  0
   57.9550   25.1300   47.0590 O   0  0  0  0  0  0  0  0  0  0  0  0
   59.2190   25.6380   46.7510 C   0  0  0  0  0  0  0  0  0  0  0  0
   59.9800   25.0000   45.9680 O   0  0  0  0  0  0  0  0  0  0  0  0
   59.7140   26.8760   47.3950 C   0  0  0  0  0  0  0  0  0  0  0  0
   60.0890   26.7820   48.7500 C   0  0  0  0  0  0  0  0  0  0  0  0
   60.5290   27.9010   49.4510 C   0  0  0  0  0  0  0  0  0  0  0  0
   60.6150   29.1340   48.8110 C   0  0  0  0  0  0  0  0  0  0  0  0
   60.2680   29.2510   47.4670 C   0  0  0  0  0  0  0  0  0  0  0  0
   59.8320   28.1340   46.7240 C   0  0  0  0  0  0  0  0  0  0  0  0
   59.5030   28.3810   45.2510 C   0  0  2  0  0  0  0  0  0  0  0  0
   60.7350   28.9290   44.5150 C   0  0  0  0  0  0  0  0  0  0  0  0
   58.2460   29.1950   45.0180 C   0  0  0  0  0  0  0  0  0  0  0  0
   57.0170   28.5570   44.8080 C   0  0  0  0  0  0  0  0  0  0  0  0
   55.8910   29.3400   44.5550 C   0  0  0  0  0  0  0  0  0  0  0  0
   56.0010   30.6920   44.5020 N   0  0  0  0  0  0  0  0  0  0  0  0
   57.2020   31.3060   44.6970 C   0  0  0  0  0  0  0  0  0  0  0  0
   57.3220   32.5990   44.6250 N   0  0  0  0  0  0  0  0  0  0  0  0
   58.2000   33.4200   45.4120 C   0  0  0  0  0  0  0  0  0  0  0  0
   58.6960   34.6010   44.8520 C   0  0  0  0  0  0  0  0  0  0  0  0
   59.5820   35.4060   45.5720 C   0  0  0  0  0  0  0  0  0  0  0  0
   60.0120   35.0160   46.8420 C   0  0  0  0  0  0  0  0  0  0  0  0
   59.5850   33.7950   47.3880 C   0  0  0  0  0  0  0  0  0  0  0  0
   60.1120   33.3080   48.6870 C   0  0  0  0  0  0  0  0  0  0  0  0
   59.2870   32.9940   49.5890 O   0  0  0  0  0  0  0  0  0  0  0  0
   61.5250   33.0350   48.8630 N   0  0  0  0  0  0  0  0  0  0  0  0
   62.0670   32.4580   47.6230 C   0  0  0  0  0  0  0  0  0  0  0  0
   63.6030   32.3540   47.7120 C   0  0  0  0  0  0  0  0  0  0  0  0
   64.0890   31.9350   49.0530 N   0  0  0  0  0  0  0  0  0  0  0  0
   64.7750   33.0200   49.7730 C   0  0  0  0  0  0  0  0  0  0  0  0
   63.0500   31.2880   49.8810 C   0  0  0  0  0  0  0  0  0  0  0  0
   61.7760   32.1540   50.0360 C   0  0  0  0  0  0  0  0  0  0  0  0
   58.6690   33.0040   46.6720 C   0  0  0  0  0  0  0  0  0  0  0  0
   58.3090   30.5550   44.9340 N   0  0  0  0  0  0  0  0  0  0  0  0
   55.9231   25.4247   46.8090 H   0  0  0  0  0  0  0  0  0  0  0  0
   56.9793   26.1790   45.5672 H   0  0  0  0  0  0  0  0  0  0  0  0
   56.7215   24.4013   45.5672 H   0  0  0  0  0  0  0  0  0  0  0  0
   60.0332   25.8097   49.2614 H   0  0  0  0  0  0  0  0  0  0  0  0
   60.8088   27.8109   50.5110 H   0  0  0  0  0  0  0  0  0  0  0  0
   60.9579   30.0184   49.3680 H   0  0  0  0  0  0  0  0  0  0  0  0
   60.3353   30.2329   46.9758 H   0  0  0  0  0  0  0  0  0  0  0  0
   59.2527   27.4046   44.8106 H   0  0  0  0  0  0  0  0  0  0  0  0
   61.4831   29.2617   45.2496 H   0  0  0  0  0  0  0  0  0  0  0  0
   61.1671   28.1382   43.8842 H   0  0  0  0  0  0  0  0  0  0  0  0
   60.4371   29.7795   43.8842 H   0  0  0  0  0  0  0  0  0  0  0  0
   56.9414   27.4601   44.8419 H   0  0  0  0  0  0  0  0  0  0  0  0
   54.9129   28.8617   44.3983 H   0  0  0  0  0  0  0  0  0  0  0  0
   58.3869   34.8980   43.8389 H   0  0  0  0  0  0  0  0  0  0  0  0
   59.9421   36.3501   45.1372 H   0  0  0  0  0  0  0  0  0  0  0  0
   60.6872   35.6673   47.4163 H   0  0  0  0  0  0  0  0  0  0  0  0
   62.0240   33.9400   49.0310 H   0  0  0  0  0  0  0  0  0  0  0  0
   61.6428   31.4542   47.4734 H   0  0  0  0  0  0  0  0  0  0  0  0
   61.7993   33.1083   46.7771 H   0  0  0  0  0  0  0  0  0  0  0  0
   63.9463   31.6173   46.9707 H   0  0  0  0  0  0  0  0  0  0  0  0
   64.0085   33.3580   47.5184 H   0  0  0  0  0  0  0  0  0  0  0  0
   64.6748   32.8615   50.8569 H   0  0  0  0  0  0  0  0  0  0  0  0
   65.8406   33.0247   49.5001 H   0  0  0  0  0  0  0  0  0  0  0  0
   64.3223   33.9847   49.5001 H   0  0  0  0  0  0  0  0  0  0  0  0
   62.7704   30.3337   49.4106 H   0  0  0  0  0  0  0  0  0  0  0  0
   63.4731   31.1413   50.8857 H   0  0  0  0  0  0  0  0  0  0  0  0
   60.9115   31.4859   50.1639 H   0  0  0  0  0  0  0  0  0  0  0  0
   61.9251   32.8048   50.9102 H   0  0  0  0  0  0  0  0  0  0  0  0
   58.3167   32.0537   47.0996 H   0  0  0  0  0  0  0  0  0  0  0  0
  1  2  1  0
  2  3  1  0
  3  4  2  0
  3  5  1  0
  5  6  2  0
  6  7  1  0
  7  8  2  0
  8  9  1  0
  9 10  2  0
 10 11  1  0
 11 12  1  0
 11 13  1  0
 13 14  1  0
 14 15  2  0
 15 16  1  0
 16 17  1  0
 17 18  2  3
 18 19  1  0
 19 20  2  0
 20 21  1  0
 21 22  2  0
 22 23  1  0
 23 24  1  0
 24 25  2  0
 24 26  1  0
 26 27  1  0
 27 28  1  0
 28 29  1  0
 29 30  1  0
 29 31  1  0
 31 32  1  0
 23 33  2  0
 17 34  1  0
 10  5  1  0
 34 13  2  0
 33 19  1  0
 32 26  1  0
  1 35  1  0
  1 36  1  0
  1 37  1  0
  6 38  1  0
  7 39  1  0
  8 40  1  0
  9 41  1  0
 11 42  1  6
 12 43  1  0
 12 44  1  0
 12 45  1  0
 14 46  1  0
 15 47  1  0
 20 48  1  0
 21 49  1  0
 22 50  1  0
 26 51  1  0
 27 52  1  0
 27 53  1  0
 28 54  1  0
 28 55  1  0
 30 56  1  0
 30 57  1  0
 30 58  1  0
 31 59  1  0
 31 60  1  0
 32 61  1  0
 32 62  1  0
 33 63  1  0
M  CHG  2  16  -1  26   1
M  END
>  <UniqueID>  (47) 
44

>  <SMILES>  (47) 
COC(=O)c1ccccc1[C@H](C)c1cc[n-]c(=Nc2cccc(C(=O)[NH+]3CCN(C)CC3)c2)n1

>  <Energy>  (47) 
97.9325499286984

>  <Genealogy>  (47) 
COC(=O)c1ccccc1C(C)c1cc[n-]c(=Nc2cccc(C(=O)[NH+]3CCN(C)CC3)c2)n1 (protonated)
COC(=O)c1ccccc1[C@H](C)c1cc[n-]c(=Nc2cccc(C(=O)[NH+]3CCN(C)CC3)c2)n1 (chirality)
COC(=O)c1ccccc1[C@H](C)c1cc[n-]c(=Nc2cccc(C(=O)[NH+]3CCN(C)CC3)c2)n1 (3D coordinates assigned)
COC(=O)c1ccccc1[C@H](C)c1cc[n-]c(=Nc2cccc(C(=O)[NH+]3CCN(C)CC3)c2)n1 (nonaromatic ring conformer: 97.9325499286984 kcal/mol)

>  <smiles>  (47) 
COC(=O)c1ccccc1C(C)c1cc[nH]c(=Nc2cccc(C(=O)N3CCN(C)CC3)c2)n1

>  <score_type>  (47) 
oracle

>  <origin>  (47) 
adg

>  <m_score__min__energy>  (47) 
-10

>  <m_primary>  (47) 
energy

$$$$
47:0
     RDKit          3D

 48 51  0  0  1  0  0  0  0  0999 V2000
   62.9380   34.4210   49.0290 C   0  0  0  0  0  0  0  0  0  0  0  0
   62.6190   33.4470   47.9120 C   0  0  0  0  0  0  0  0  0  0  0  0
   63.4680   33.8300   46.7260 C   0  0  0  0  0  0  0  0  0  0  0  0
   62.9000   32.0520   48.4350 C   0  0  0  0  0  0  0  0  0  0  0  0
   62.2650   31.0160   47.6810 N   0  0  0  0  0  0  0  0  0  0  0  0
   61.1820   30.4190   48.0290 C   0  0  0  0  0  0  0  0  0  0  0  0
   60.2900   30.1480   47.0560 N   0  0  0  0  0  0  0  0  0  0  0  0
   59.0990   29.5130   47.3100 C   0  0  0  0  0  0  0  0  0  0  0  0
   58.2530   29.2590   46.1820 C   0  0  0  0  0  0  0  0  0  0  0  0
   57.5670   28.0450   46.0190 C   0  0  0  0  0  0  0  0  0  0  0  0
   56.8700   28.0720   44.8690 N   0  0  0  0  0  0  0  0  0  0  0  0
   57.0550   29.2440   44.2500 C   0  0  0  0  0  0  0  0  0  0  0  0
   56.5640   29.7170   43.0650 C   0  0  0  0  0  0  0  0  0  0  0  0
   56.9170   30.9790   42.6250 C   0  0  0  0  0  0  0  0  0  0  0  0
   57.7690   31.6980   43.4380 C   0  0  0  0  0  0  0  0  0  0  0  0
   58.2600   31.2170   44.6320 C   0  0  0  0  0  0  0  0  0  0  0  0
   57.9140   29.9780   45.0680 C   0  0  0  0  0  0  0  0  0  0  0  0
   58.8970   29.1830   48.6160 C   0  0  0  0  0  0  0  0  0  0  0  0
   59.8360   29.4720   49.6190 C   0  0  0  0  0  0  0  0  0  0  0  0
   60.9900   30.0970   49.3200 N   0  0  0  0  0  0  0  0  0  0  0  0
   61.2080   33.5790   47.5580 C   0  0  0  0  0  0  0  0  0  0  0  0
   60.7430   33.8730   46.2940 C   0  0  0  0  0  0  0  0  0  0  0  0
   59.4060   33.9930   45.9820 C   0  0  0  0  0  0  0  0  0  0  0  0
   58.4490   33.8170   46.9580 C   0  0  0  0  0  0  0  0  0  0  0  0
   58.8750   33.5220   48.2350 C   0  0  0  0  0  0  0  0  0  0  0  0
   60.2200   33.4040   48.5350 C   0  0  0  0  0  0  0  0  0  0  0  0
   62.7773   33.9304   50.0003 H   0  0  0  0  0  0  0  0  0  0  0  0
   63.9876   34.7401   48.9486 H   0  0  0  0  0  0  0  0  0  0  0  0
   62.2805   35.2992   48.9486 H   0  0  0  0  0  0  0  0  0  0  0  0
   64.4179   34.2585   47.0782 H   0  0  0  0  0  0  0  0  0  0  0  0
   63.6720   32.9367   46.1174 H   0  0  0  0  0  0  0  0  0  0  0  0
   62.9334   34.5741   46.1174 H   0  0  0  0  0  0  0  0  0  0  0  0
   63.9868   31.8839   48.4091 H   0  0  0  0  0  0  0  0  0  0  0  0
   62.4916   32.0032   49.4552 H   0  0  0  0  0  0  0  0  0  0  0  0
   57.5952   27.2010   46.7239 H   0  0  0  0  0  0  0  0  0  0  0  0
   56.2670   27.2990   44.4940 H   0  0  0  0  0  0  0  0  0  0  0  0
   55.8880   29.0933   42.4616 H   0  0  0  0  0  0  0  0  0  0  0  0
   56.5386   31.3884   41.6767 H   0  0  0  0  0  0  0  0  0  0  0  0
   58.0713   32.7057   43.1167 H   0  0  0  0  0  0  0  0  0  0  0  0
   58.9362   31.8400   45.2358 H   0  0  0  0  0  0  0  0  0  0  0  0
   57.9641   28.6714   48.8951 H   0  0  0  0  0  0  0  0  0  0  0  0
   59.6264   29.1847   50.6599 H   0  0  0  0  0  0  0  0  0  0  0  0
   61.6970   30.3250   50.0210 H   0  0  0  0  0  0  0  0  0  0  0  0
   61.4795   34.0199   45.4903 H   0  0  0  0  0  0  0  0  0  0  0  0
   59.1020   34.2298   44.9517 H   0  0  0  0  0  0  0  0  0  0  0  0
   57.3780   33.9092   46.7249 H   0  0  0  0  0  0  0  0  0  0  0  0
   58.1304   33.3775   49.0317 H   0  0  0  0  0  0  0  0  0  0  0  0
   60.5210   33.1669   49.5661 H   0  0  0  0  0  0  0  0  0  0  0  0
  1  2  1  0
  2  3  1  0
  2  4  1  0
  4  5  1  0
  5  6  2  0
  6  7  1  0
  7  8  2  0
  8  9  1  0
  9 10  2  0
 10 11  1  0
 11 12  1  0
 12 13  2  0
 13 14  1  0
 14 15  2  0
 15 16  1  0
 16 17  2  0
  8 18  1  0
 18 19  2  0
 19 20  1  0
  2 21  1  0
 21 22  2  0
 22 23  1  0
 23 24  2  0
 24 25  1  0
 25 26  2  0
 20  6  1  0
 26 21  1  0
 17  9  1  0
 17 12  1  0
  1 27  1  0
  1 28  1  0
  1 29  1  0
  3 30  1  0
  3 31  1  0
  3 32  1  0
  4 33  1  0
  4 34  1  0
 10 35  1  0
 11 36  1  0
 13 37  1  0
 14 38  1  0
 15 39  1  0
 16 40  1  0
 18 41  1  0
 19 42  1  0
 20 43  1  0
 22 44  1  0
 23 45  1  0
 24 46  1  0
 25 47  1  0
 26 48  1  0
M  END
>  <smiles>  (48) 
CC(C)(CN=c1nc(-c2c[nH]c3ccccc23)cc[nH]1)c1ccccc1

>  <score_type>  (48) 
oracle

>  <origin>  (48) 
adg

>  <m_score__min__energy>  (48) 
-8.9399999999999995

>  <m_primary>  (48) 
energy

$$$$
48:0
     RDKit          3D

 74 77  0  0  0  0  0  0  0  0999 V2000
   63.4050   32.7040   47.2430 C   0  0  0  0  0  0  0  0  0  0  0  0
   63.8470   32.1090   48.5760 C   0  0  0  0  0  0  0  0  0  0  0  0
   64.7940   33.0610   49.3250 C   0  0  0  0  0  0  0  0  0  0  0  0
   64.6200   32.9690   50.8560 C   0  0  0  0  0  0  0  0  0  0  0  0
   63.6680   34.0330   51.4240 C   0  0  0  0  0  0  0  0  0  0  0  0
   62.2950   33.8130   50.9790 N   0  0  0  0  0  0  0  0  0  0  0  0
   61.2450   33.5230   51.7670 C   0  0  0  0  0  0  0  0  0  0  0  0
   60.1110   33.4880   50.9800 C   0  0  0  0  0  0  0  0  0  0  0  0
   58.7430   33.0660   51.4270 C   0  0  0  0  0  0  0  0  0  0  0  0
   58.6520   31.5750   51.4880 C   0  0  0  0  0  0  0  0  0  0  0  0
   57.9740   31.0230   52.3980 O   0  0  0  0  0  0  0  0  0  0  0  0
   59.3050   30.7850   50.4950 N   0  0  0  0  0  0  0  0  0  0  0  0
   60.6590   30.2740   50.6630 C   0  0  0  0  0  0  0  0  0  0  0  0
   61.2620   29.9530   49.2950 C   0  0  0  0  0  0  0  0  0  0  0  0
   60.1730   29.6560   48.2990 C   0  0  0  0  0  0  0  0  0  0  0  0
   59.9680   30.5080   47.2020 C   0  0  0  0  0  0  0  0  0  0  0  0
   58.9980   30.2010   46.2420 C   0  0  0  0  0  0  0  0  0  0  0  0
   58.2370   29.0300   46.3600 C   0  0  0  0  0  0  0  0  0  0  0  0
   57.0290   28.6350   45.1360 S   0  0  0  0  0  0  0  0  0  0  0  0
   56.2510   29.8820   44.8190 O   0  0  0  0  0  0  0  0  0  0  0  0
   57.7130   28.1640   43.8810 O   0  0  0  0  0  0  0  0  0  0  0  0
   55.9270   27.4060   45.6850 N   0  0  0  0  0  0  0  0  0  0  0  0
   56.1710   26.0000   45.6130 C   0  0  0  0  0  0  0  0  0  0  0  0
   55.7510   25.2340   46.5210 O   0  0  0  0  0  0  0  0  0  0  0  0
   56.8670   25.4690   44.4740 N   0  0  0  0  0  0  0  0  0  0  0  0
   57.1890   24.0790   44.2950 C   0  0  0  0  0  0  0  0  0  0  0  0
   56.4760   23.3260   43.3500 C   0  0  0  0  0  0  0  0  0  0  0  0
   56.7710   21.9730   43.1590 C   0  0  0  0  0  0  0  0  0  0  0  0
   57.7850   21.3640   43.9030 C   0  0  0  0  0  0  0  0  0  0  0  0
   58.5190   22.1110   44.8270 C   0  0  0  0  0  0  0  0  0  0  0  0
   58.2320   23.4650   45.0160 C   0  0  0  0  0  0  0  0  0  0  0  0
   58.4410   28.1780   47.4530 C   0  0  0  0  0  0  0  0  0  0  0  0
   59.4050   28.4870   48.4160 C   0  0  0  0  0  0  0  0  0  0  0  0
   60.5680   33.7510   49.6920 C   0  0  0  0  0  0  0  0  0  0  0  0
   59.7790   33.7850   48.4490 C   0  0  0  0  0  0  0  0  0  0  0  0
   58.5630   33.0870   48.3440 C   0  0  0  0  0  0  0  0  0  0  0  0
   57.8320   33.1240   47.1530 C   0  0  0  0  0  0  0  0  0  0  0  0
   58.2980   33.8700   46.0650 C   0  0  0  0  0  0  0  0  0  0  0  0
   57.3810   33.9050   44.5670 Cl  0  0  0  0  0  0  0  0  0  0  0  0
   59.4910   34.5930   46.1760 C   0  0  0  0  0  0  0  0  0  0  0  0
   60.2250   34.5570   47.3660 C   0  0  0  0  0  0  0  0  0  0  0  0
   61.9010   33.9470   49.7230 N   0  0  0  0  0  0  0  0  0  0  0  0
   62.7582   33.5746   47.4265 H   0  0  0  0  0  0  0  0  0  0  0  0
   64.2900   33.0188   46.6705 H   0  0  0  0  0  0  0  0  0  0  0  0
   62.8480   31.9477   46.6705 H   0  0  0  0  0  0  0  0  0  0  0  0
   62.9589   31.9240   49.1981 H   0  0  0  0  0  0  0  0  0  0  0  0
   64.3843   31.1701   48.3765 H   0  0  0  0  0  0  0  0  0  0  0  0
   65.8321   32.8016   49.0700 H   0  0  0  0  0  0  0  0  0  0  0  0
   64.5522   34.0893   49.0182 H   0  0  0  0  0  0  0  0  0  0  0  0
   64.2196   31.9746   51.1029 H   0  0  0  0  0  0  0  0  0  0  0  0
   65.6082   33.1414   51.3074 H   0  0  0  0  0  0  0  0  0  0  0  0
   63.6990   33.9907   52.5227 H   0  0  0  0  0  0  0  0  0  0  0  0
   63.9952   35.0186   51.0613 H   0  0  0  0  0  0  0  0  0  0  0  0
   61.2828   33.3444   52.8517 H   0  0  0  0  0  0  0  0  0  0  0  0
   58.5433   33.4825   52.4253 H   0  0  0  0  0  0  0  0  0  0  0  0
   58.0008   33.4398   50.7063 H   0  0  0  0  0  0  0  0  0  0  0  0
   61.2765   31.0329   51.1658 H   0  0  0  0  0  0  0  0  0  0  0  0
   60.6300   29.3586   51.2722 H   0  0  0  0  0  0  0  0  0  0  0  0
   61.8476   30.8160   48.9454 H   0  0  0  0  0  0  0  0  0  0  0  0
   61.9107   29.0696   49.3890 H   0  0  0  0  0  0  0  0  0  0  0  0
   60.5728   31.4208   47.0970 H   0  0  0  0  0  0  0  0  0  0  0  0
   58.8322   30.8801   45.3927 H   0  0  0  0  0  0  0  0  0  0  0  0
   57.0410   26.1210   43.6740 H   0  0  0  0  0  0  0  0  0  0  0  0
   55.6815   23.8023   42.7569 H   0  0  0  0  0  0  0  0  0  0  0  0
   56.2037   21.3864   42.4214 H   0  0  0  0  0  0  0  0  0  0  0  0
   58.0052   20.2957   43.7608 H   0  0  0  0  0  0  0  0  0  0  0  0
   59.3231   21.6332   45.4059 H   0  0  0  0  0  0  0  0  0  0  0  0
   58.8235   24.0549   45.7316 H   0  0  0  0  0  0  0  0  0  0  0  0
   57.8400   27.2622   47.5535 H   0  0  0  0  0  0  0  0  0  0  0  0
   59.5627   27.8112   49.2695 H   0  0  0  0  0  0  0  0  0  0  0  0
   58.1858   32.5102   49.2014 H   0  0  0  0  0  0  0  0  0  0  0  0
   56.8881   32.5652   47.0710 H   0  0  0  0  0  0  0  0  0  0  0  0
   59.8521   35.1906   45.3260 H   0  0  0  0  0  0  0  0  0  0  0  0
   61.1559   35.1365   47.4530 H   0  0  0  0  0  0  0  0  0  0  0  0
  1  2  1  0
  2  3  1  0
  3  4  1  0
  4  5  1  0
  5  6  1  0
  6  7  1  0
  7  8  2  0
  8  9  1  0
  9 10  1  0
 10 11  2  0
 10 12  1  0
 12 13  1  0
 13 14  1  0
 14 15  1  0
 15 16  2  0
 16 17  1  0
 17 18  2  0
 18 19  1  0
 19 20  2  0
 19 21  2  0
 19 22  1  0
 22 23  1  0
 23 24  2  0
 23 25  1  0
 25 26  1  0
 26 27  2  0
 27 28  1  0
 28 29  2  0
 29 30  1  0
 30 31  2  0
 18 32  1  0
 32 33  2  0
  8 34  1  0
 34 35  1  0
 35 36  2  0
 36 37  1  0
 37 38  2  0
 38 39  1  0
 38 40  1  0
 40 41  2  0
 34 42  2  0
 42  6  1  0
 33 15  1  0
 41 35  1  0
 31 26  1  0
  1 43  1  0
  1 44  1  0
  1 45  1  0
  2 46  1  0
  2 47  1  0
  3 48  1  0
  3 49  1  0
  4 50  1  0
  4 51  1  0
  5 52  1  0
  5 53  1  0
  7 54  1  0
  9 55  1  0
  9 56  1  0
 13 57  1  0
 13 58  1  0
 14 59  1  0
 14 60  1  0
 16 61  1  0
 17 62  1  0
 25 63  1  0
 27 64  1  0
 28 65  1  0
 29 66  1  0
 30 67  1  0
 31 68  1  0
 32 69  1  0
 33 70  1  0
 36 71  1  0
 37 72  1  0
 40 73  1  0
 41 74  1  0
M  CHG  2  12  -1  22  -1
M  END
>  <UniqueID>  (49) 
45

>  <SMILES>  (49) 
CCCCCn1cc(CC(=O)[N-]CCc2ccc(S(=O)(=O)[N-]C(=O)Nc3ccccc3)cc2)c(-c2ccc(Cl)cc2)n1

>  <Energy>  (49) 
103.91293012724373

>  <Genealogy>  (49) 
CCCCCn1cc(CC(=O)[N-]CCc2ccc(S(=O)(=O)[N-]C(=O)Nc3ccccc3)cc2)c(-c2ccc(Cl)cc2)n1 (protonated)
CCCCCn1cc(CC(=O)[N-]CCc2ccc(S(=O)(=O)[N-]C(=O)Nc3ccccc3)cc2)c(-c2ccc(Cl)cc2)n1 (3D coordinates assigned)
CCCCCn1cc(CC(=O)[N-]CCc2ccc(S(=O)(=O)[N-]C(=O)Nc3ccccc3)cc2)c(-c2ccc(Cl)cc2)n1 (optimized conformer: 103.91293012724373 kcal/mol)

>  <smiles>  (49) 
CCCCCn1cc(CC(=O)NCCc2ccc(S(=O)(=O)NC(=O)Nc3ccccc3)cc2)c(-c2ccc(Cl)cc2)n1

>  <score_type>  (49) 
oracle

>  <origin>  (49) 
adg

>  <m_score__min__energy>  (49) 
-14.08

>  <m_primary>  (49) 
energy

$$$$
49:0
     RDKit          3D

 32 34  0  0  1  0  0  0  0  0999 V2000
   55.3920   29.3400   45.1630 O   0  0  0  0  0  0  0  0  0  0  0  0
   56.6650   29.3670   44.8650 C   0  0  0  0  0  0  0  0  0  0  0  0
   57.4490   28.3430   45.4750 C   0  0  0  0  0  0  0  0  0  0  0  0
   57.0220   27.1370   45.9650 C   0  0  0  0  0  0  0  0  0  0  0  0
   57.8900   26.2270   46.5600 C   0  0  0  0  0  0  0  0  0  0  0  0
   59.2520   26.5020   46.6880 C   0  0  0  0  0  0  0  0  0  0  0  0
   59.6910   27.7050   46.2000 C   0  0  0  0  0  0  0  0  0  0  0  0
   58.8260   28.5930   45.6150 C   0  0  0  0  0  0  0  0  0  0  0  0
   57.0290   30.4240   43.9730 C   0  0  0  0  0  0  0  0  0  0  0  0
   56.9150   30.4780   42.6180 C   0  0  0  0  0  0  0  0  0  0  0  0
   57.3150   31.5890   41.8680 C   0  0  0  0  0  0  0  0  0  0  0  0
   57.8530   32.6990   42.4790 C   0  0  0  0  0  0  0  0  0  0  0  0
   57.9770   32.6640   43.8480 C   0  0  0  0  0  0  0  0  0  0  0  0
   57.5820   31.5730   44.5830 C   0  0  0  0  0  0  0  0  0  0  0  0
   57.7610   31.6120   46.0050 N   0  0  0  0  0  0  0  0  0  0  0  0
   58.3120   32.6770   46.5150 C   0  0  0  0  0  0  0  0  0  0  0  0
   59.6660   32.8040   46.5280 N   0  0  0  0  0  0  0  0  0  0  0  0
   59.8810   34.0030   47.1140 C   0  0  0  0  0  0  0  0  0  0  0  0
   58.7020   34.5840   47.4450 N   0  0  0  0  0  0  0  0  0  0  0  0
   57.7500   33.7610   47.0720 N   0  0  0  0  0  0  0  0  0  0  0  0
   55.9556   26.8792   45.8852 H   0  0  0  0  0  0  0  0  0  0  0  0
   57.4949   25.2721   46.9369 H   0  0  0  0  0  0  0  0  0  0  0  0
   59.9416   25.7861   47.1590 H   0  0  0  0  0  0  0  0  0  0  0  0
   60.7574   27.9628   46.2792 H   0  0  0  0  0  0  0  0  0  0  0  0
   59.2273   29.5451   45.2376 H   0  0  0  0  0  0  0  0  0  0  0  0
   56.4904   29.6114   42.0902 H   0  0  0  0  0  0  0  0  0  0  0  0
   57.1979   31.5754   40.7743 H   0  0  0  0  0  0  0  0  0  0  0  0
   58.1703   33.5767   41.8968 H   0  0  0  0  0  0  0  0  0  0  0  0
   58.4043   33.5336   44.3688 H   0  0  0  0  0  0  0  0  0  0  0  0
   60.8719   34.4444   47.2963 H   0  0  0  0  0  0  0  0  0  0  0  0
   58.5810   35.5220   47.9160 H   0  0  0  0  0  0  0  0  0  0  0  0
   56.7110   33.9090   47.1800 H   0  0  0  0  0  0  0  0  0  0  0  0
  1  2  2  0
  2  3  1  0
  3  4  2  0
  4  5  1  0
  5  6  2  0
  6  7  1  0
  7  8  2  0
  2  9  1  0
  9 10  2  0
 10 11  1  0
 11 12  2  0
 12 13  1  0
 13 14  2  0
 14 15  1  0
 15 16  2  0
 16 17  1  0
 17 18  2  0
 18 19  1  0
 19 20  1  0
  8  3  1  0
 14  9  1  0
 20 16  1  0
  4 21  1  0
  5 22  1  0
  6 23  1  0
  7 24  1  0
  8 25  1  0
 10 26  1  0
 11 27  1  0
 12 28  1  0
 13 29  1  0
 18 30  1  0
 19 31  1  0
 20 32  1  0
M  END
>  <smiles>  (50) 
O=C(c1ccccc1)c1ccccc1N=c1nc[nH][nH]1

>  <score_type>  (50) 
oracle

>  <origin>  (50) 
adg

>  <m_score__min__energy>  (50) 
-7.4400000000000004

>  <m_primary>  (50) 
energy

$$$$
50:0
     RDKit          3D

 36 37  0  0  0  0  0  0  0  0999 V2000
   61.3550   29.5910   50.1230 C   0  0  0  0  0  0  0  0  0  0  0  0
   60.5350   29.7000   48.5460 S   0  0  0  0  0  0  0  0  0  0  0  0
   61.2690   30.6450   47.6350 O   0  0  0  0  0  0  0  0  0  0  0  0
   59.1440   30.2230   48.7630 O   0  0  0  0  0  0  0  0  0  0  0  0
   60.4310   28.1300   47.8170 N   0  0  0  0  0  0  0  0  0  0  0  0
   59.2320   27.4870   47.3540 C   0  0  0  0  0  0  0  0  0  0  0  0
   58.9300   26.1600   47.7040 C   0  0  0  0  0  0  0  0  0  0  0  0
   57.7510   25.5590   47.2620 C   0  0  0  0  0  0  0  0  0  0  0  0
   56.8500   26.2660   46.4560 C   0  0  0  0  0  0  0  0  0  0  0  0
   55.6010   25.6220   45.9900 C   0  0  0  0  0  0  0  0  0  0  0  0
   55.6050   24.4270   45.5930 O   0  0  0  0  0  0  0  0  0  0  0  0
   54.4040   26.3300   45.9840 O   0  0  0  0  0  0  0  0  0  0  0  0
   57.1500   27.5910   46.0970 C   0  0  0  0  0  0  0  0  0  0  0  0
   58.3320   28.2140   46.5440 C   0  0  0  0  0  0  0  0  0  0  0  0
   58.6320   29.5790   46.1820 N   0  0  0  0  0  0  0  0  0  0  0  0
   57.7920   30.4010   45.3080 C   0  0  0  0  0  0  0  0  0  0  0  0
   58.0460   31.8650   45.5520 C   0  0  0  0  0  0  0  0  0  0  0  0
   57.8060   32.8130   44.5420 C   0  0  0  0  0  0  0  0  0  0  0  0
   58.0340   34.1720   44.7830 C   0  0  0  0  0  0  0  0  0  0  0  0
   58.5070   34.5930   46.0290 C   0  0  0  0  0  0  0  0  0  0  0  0
   58.7550   33.6560   47.0350 C   0  0  0  0  0  0  0  0  0  0  0  0
   58.5290   32.2970   46.8000 C   0  0  0  0  0  0  0  0  0  0  0  0
   60.6134   29.6896   50.9295 H   0  0  0  0  0  0  0  0  0  0  0  0
   61.8607   28.6177   50.2068 H   0  0  0  0  0  0  0  0  0  0  0  0
   62.0974   30.3984   50.2068 H   0  0  0  0  0  0  0  0  0  0  0  0
   59.6298   25.5896   48.3324 H   0  0  0  0  0  0  0  0  0  0  0  0
   57.5272   24.5210   47.5491 H   0  0  0  0  0  0  0  0  0  0  0  0
   56.4515   28.1503   45.4573 H   0  0  0  0  0  0  0  0  0  0  0  0
   59.4530   30.0540   46.6200 H   0  0  0  0  0  0  0  0  0  0  0  0
   58.0219   30.1642   44.2587 H   0  0  0  0  0  0  0  0  0  0  0  0
   56.7357   30.1836   45.5247 H   0  0  0  0  0  0  0  0  0  0  0  0
   57.4376   32.4850   43.5588 H   0  0  0  0  0  0  0  0  0  0  0  0
   57.8408   34.9103   43.9908 H   0  0  0  0  0  0  0  0  0  0  0  0
   58.6840   35.6622   46.2175 H   0  0  0  0  0  0  0  0  0  0  0  0
   59.1291   33.9886   48.0145 H   0  0  0  0  0  0  0  0  0  0  0  0
   58.7296   31.5627   47.5941 H   0  0  0  0  0  0  0  0  0  0  0  0
  1  2  1  0
  2  3  2  0
  2  4  2  0
  2  5  1  0
  5  6  1  0
  6  7  2  0
  7  8  1  0
  8  9  2  0
  9 10  1  0
 10 11  2  0
 10 12  1  0
  9 13  1  0
 13 14  2  0
 14 15  1  0
 15 16  1  0
 16 17  1  0
 17 18  2  0
 18 19  1  0
 19 20  2  0
 20 21  1  0
 21 22  2  0
 14  6  1  0
 22 17  1  0
  1 23  1  0
  1 24  1  0
  1 25  1  0
  7 26  1  0
  8 27  1  0
 13 28  1  0
 15 29  1  0
 16 30  1  0
 16 31  1  0
 18 32  1  0
 19 33  1  0
 20 34  1  0
 21 35  1  0
 22 36  1  0
M  CHG  2   5  -1  12  -1
M  END
>  <UniqueID>  (51) 
46

>  <SMILES>  (51) 
CS(=O)(=O)[N-]c1ccc(C(=O)[O-])cc1NCc1ccccc1

>  <Energy>  (51) 
36.3528636424178

>  <Genealogy>  (51) 
CS(=O)(=O)[N-]c1ccc(C(=O)[O-])cc1NCc1ccccc1 (protonated)
CS(=O)(=O)[N-]c1ccc(C(=O)[O-])cc1NCc1ccccc1 (3D coordinates assigned)
CS(=O)(=O)[N-]c1ccc(C(=O)[O-])cc1NCc1ccccc1 (optimized conformer: 36.3528636424178 kcal/mol)

>  <smiles>  (51) 
CS(=O)(=O)Nc1ccc(C(=O)O)cc1NCc1ccccc1

>  <score_type>  (51) 
oracle

>  <origin>  (51) 
adg

>  <m_score__min__energy>  (51) 
-10.550000000000001

>  <m_primary>  (51) 
energy

$$$$
51:0
     RDKit          3D

 38 39  0  0  1  0  0  0  0  0999 V2000
   58.7260   34.5620   46.0730 C   0  0  0  0  0  0  0  0  0  0  0  0
   57.8300   33.3500   46.1100 C   0  0  0  0  0  0  0  0  0  0  0  0
   57.4300   33.1090   47.4290 F   0  0  0  0  0  0  0  0  0  0  0  0
   56.6610   33.7200   45.4480 F   0  0  0  0  0  0  0  0  0  0  0  0
   58.3730   32.2130   45.5050 O   0  0  0  0  0  0  0  0  0  0  0  0
   57.7810   31.6510   44.3850 C   0  0  0  0  0  0  0  0  0  0  0  0
   57.9160   32.3570   43.1990 C   0  0  0  0  0  0  0  0  0  0  0  0
   57.3740   31.9100   42.0320 C   0  0  0  0  0  0  0  0  0  0  0  0
   56.6790   30.7230   42.0540 C   0  0  0  0  0  0  0  0  0  0  0  0
   56.5320   30.0070   43.2120 C   0  0  0  0  0  0  0  0  0  0  0  0
   57.0800   30.4380   44.4360 C   0  0  0  0  0  0  0  0  0  0  0  0
   56.8910   29.7570   45.6250 N   0  0  0  0  0  0  0  0  0  0  0  0
   57.0170   28.5590   45.9480 C   0  0  0  0  0  0  0  0  0  0  0  0
   56.0110   27.7060   45.6150 N   0  0  0  0  0  0  0  0  0  0  0  0
   56.0590   26.4280   45.9930 C   0  0  0  0  0  0  0  0  0  0  0  0
   55.1740   25.5740   45.7300 O   0  0  0  0  0  0  0  0  0  0  0  0
   57.1230   26.0280   46.7030 N   0  0  0  0  0  0  0  0  0  0  0  0
   58.1030   26.8290   47.0320 N   0  0  0  0  0  0  0  0  0  0  0  0
   58.0910   28.1380   46.6630 C   0  0  0  0  0  0  0  0  0  0  0  0
   59.2910   28.8690   46.9790 C   0  0  0  0  0  0  0  0  0  0  0  0
   60.2240   28.1980   47.5400 O   0  0  0  0  0  0  0  0  0  0  0  0
   59.5490   30.2260   46.7260 N   0  0  0  0  0  0  0  0  0  0  0  0
   60.7430   30.8690   47.0650 C   0  0  0  0  0  0  0  0  0  0  0  0
   61.7470   30.3730   47.6280 N   0  0  0  0  0  0  0  0  0  0  0  0
   60.8270   32.2780   46.7230 N   0  0  0  0  0  0  0  0  0  0  0  0
   58.9590   34.8772   47.1008 H   0  0  0  0  0  0  0  0  0  0  0  0
   59.6586   34.3126   45.5456 H   0  0  0  0  0  0  0  0  0  0  0  0
   58.2141   35.3804   45.5456 H   0  0  0  0  0  0  0  0  0  0  0  0
   58.4760   33.3038   43.2007 H   0  0  0  0  0  0  0  0  0  0  0  0
   57.4887   32.4815   41.0992 H   0  0  0  0  0  0  0  0  0  0  0  0
   56.2328   30.3417   41.1236 H   0  0  0  0  0  0  0  0  0  0  0  0
   55.9670   29.0636   43.1855 H   0  0  0  0  0  0  0  0  0  0  0  0
   55.1910   28.0200   45.0660 H   0  0  0  0  0  0  0  0  0  0  0  0
   57.1740   25.0130   47.0130 H   0  0  0  0  0  0  0  0  0  0  0  0
   58.7810   30.7630   46.2240 H   0  0  0  0  0  0  0  0  0  0  0  0
   61.8880   29.4800   48.0240 H   0  0  0  0  0  0  0  0  0  0  0  0
   60.2670   32.6810   45.9470 H   0  0  0  0  0  0  0  0  0  0  0  0
   61.4520   32.9260   47.2440 H   0  0  0  0  0  0  0  0  0  0  0  0
  1  2  1  0
  2  3  1  0
  2  4  1  0
  2  5  1  0
  5  6  1  0
  6  7  2  0
  7  8  1  0
  8  9  2  0
  9 10  1  0
 10 11  2  0
 11 12  1  0
 12 13  2  0
 13 14  1  0
 14 15  1  0
 15 16  2  0
 15 17  1  0
 17 18  1  0
 18 19  2  0
 19 20  1  0
 20 21  2  0
 20 22  1  0
 22 23  1  0
 23 24  2  3
 23 25  1  0
 11  6  1  0
 19 13  1  0
  1 26  1  0
  1 27  1  0
  1 28  1  0
  7 29  1  0
  8 30  1  0
  9 31  1  0
 10 32  1  0
 14 33  1  0
 17 34  1  0
 22 35  1  0
 24 36  1  0
 25 37  1  0
 25 38  1  0
M  END
>  <smiles>  (52) 
CC(F)(F)Oc1ccccc1N=c1[nH]c(=O)[nH]nc1C(=O)NC(=N)N

>  <score_type>  (52) 
oracle

>  <origin>  (52) 
adg

>  <m_score__min__energy>  (52) 
-5.9100000000000001

>  <m_primary>  (52) 
energy

$$$$
52:0
     RDKit          3D

 40 42  0  0  0  0  0  0  0  0999 V2000
   54.8500   26.3360   46.7650 H   0  0  0  0  0  0  0  0  0  0  0  0
   55.3880   26.5310   45.9300 O   0  0  0  0  0  0  0  0  0  0  0  0
   56.6300   27.1590   45.9940 C   0  0  0  0  0  0  0  0  0  0  0  0
   56.9720   28.1580   45.0710 C   0  0  0  0  0  0  0  0  0  0  0  0
   56.2562   28.4511   44.2889 H   0  0  0  0  0  0  0  0  0  0  0  0
   58.2210   28.7820   45.1430 C   0  0  0  0  0  0  0  0  0  0  0  0
   58.4817   29.5711   44.4224 H   0  0  0  0  0  0  0  0  0  0  0  0
   59.1440   28.4050   46.1320 C   0  0  0  0  0  0  0  0  0  0  0  0
   60.4700   29.1030   46.2430 C   0  0  0  0  0  0  0  0  0  0  0  0
   60.8642   28.9769   47.2622 H   0  0  0  0  0  0  0  0  0  0  0  0
   61.1707   28.6663   45.5162 H   0  0  0  0  0  0  0  0  0  0  0  0
   60.3130   30.4870   45.9670 O   0  0  0  0  0  0  0  0  0  0  0  0
   59.7990   31.3400   46.9200 N   0  0  0  0  0  0  0  0  0  0  0  0
   59.5720   32.5990   46.6870 C   0  0  0  0  0  0  0  0  0  0  0  0
   59.8530   33.5580   47.8210 C   0  0  0  0  0  0  0  0  0  0  0  0
   59.3628   33.1727   48.7272 H   0  0  0  0  0  0  0  0  0  0  0  0
   60.9470   33.6178   47.9186 H   0  0  0  0  0  0  0  0  0  0  0  0
   59.3570   34.9840   47.5780 C   0  0  0  0  0  0  0  0  0  0  0  0
   58.2702   35.0185   47.7445 H   0  0  0  0  0  0  0  0  0  0  0  0
   59.8792   35.6564   48.2745 H   0  0  0  0  0  0  0  0  0  0  0  0
   59.6560   35.4400   46.1540 C   0  0  0  0  0  0  0  0  0  0  0  0
   59.3563   36.4915   46.0336 H   0  0  0  0  0  0  0  0  0  0  0  0
   60.7333   35.3446   45.9533 H   0  0  0  0  0  0  0  0  0  0  0  0
   58.8730   34.5710   45.1760 C   0  0  0  0  0  0  0  0  0  0  0  0
   57.8001   34.6659   45.3992 H   0  0  0  0  0  0  0  0  0  0  0  0
   59.1040   34.9182   44.1581 H   0  0  0  0  0  0  0  0  0  0  0  0
   59.2690   33.0830   45.2680 C   0  0  2  0  0  0  0  0  0  0  0  0
   60.2171   32.9663   44.7226 H   0  0  0  0  0  0  0  0  0  0  0  0
   58.2120   32.2720   44.6510 N   0  0  0  0  0  0  0  0  0  0  0  0
   57.0680   31.8390   45.2210 C   0  0  0  0  0  0  0  0  0  0  0  0
   56.8026   32.0194   46.2732 H   0  0  0  0  0  0  0  0  0  0  0  0
   56.2860   31.1600   44.3560 N   0  0  0  0  0  0  0  0  0  0  0  0
   56.9740   31.1820   43.1970 C   0  0  0  0  0  0  0  0  0  0  0  0
   56.6430   30.7203   42.2550 H   0  0  0  0  0  0  0  0  0  0  0  0
   58.1540   31.8700   43.3710 C   0  0  0  0  0  0  0  0  0  0  0  0
   58.9144   32.0572   42.5985 H   0  0  0  0  0  0  0  0  0  0  0  0
   58.7900   27.4150   47.0630 C   0  0  0  0  0  0  0  0  0  0  0  0
   59.4983   27.1293   47.8546 H   0  0  0  0  0  0  0  0  0  0  0  0
   57.5410   26.7910   46.9880 C   0  0  0  0  0  0  0  0  0  0  0  0
   57.2746   26.0082   47.7134 H   0  0  0  0  0  0  0  0  0  0  0  0
  1  2  1  0
  2  3  1  0
  3  4  2  0
  4  5  1  0
  4  6  1  0
  6  7  1  0
  6  8  2  0
  8  9  1  0
  9 10  1  0
  9 11  1  0
  9 12  1  0
 12 13  1  0
 13 14  2  0
 14 15  1  0
 15 16  1  0
 15 17  1  0
 15 18  1  0
 18 19  1  0
 18 20  1  0
 18 21  1  0
 21 22  1  0
 21 23  1  0
 21 24  1  0
 24 25  1  0
 24 26  1  0
 24 27  1  0
 27 28  1  6
 27 29  1  0
 29 30  1  0
 30 31  1  0
 30 32  2  0
 32 33  1  0
 33 34  1  0
 33 35  2  0
 35 36  1  0
  8 37  1  0
 37 38  1  0
 37 39  2  0
 39 40  1  0
 39  3  1  0
 27 14  1  0
 35 29  1  0
M  END
>  <UniqueID>  (53) 
47

>  <SMILES>  (53) 
Oc1ccc(CO/N=C2/CCCC[C@@H]2n2ccnc2)cc1

>  <Energy>  (53) 
64.28774417119223

>  <Genealogy>  (53) 
Oc1ccc(CON=C2CCCC[C@@H]2n2ccnc2)cc1 (chirality)
Oc1ccc(CO/N=C2/CCCC[C@@H]2n2ccnc2)cc1 (cis-trans isomerization)
Oc1ccc(CO/N=C2/CCCC[C@@H]2n2ccnc2)cc1 (3D coordinates assigned)
Oc1ccc(CO/N=C2/CCCC[C@@H]2n2ccnc2)cc1 (nonaromatic ring conformer: 64.28774417119223 kcal/mol)

>  <smiles>  (53) 
Oc1ccc(CON=C2CCCCC2n2ccnc2)cc1

>  <score_type>  (53) 
oracle

>  <origin>  (53) 
adg

>  <m_score__min__energy>  (53) 
-7.9400000000000004

>  <m_primary>  (53) 
energy

$$$$
53:0
     RDKit          3D

 90 94  0  0  1  0  0  0  0  0999 V2000
   59.4190   24.2680   52.8910 C   0  0  0  0  0  0  0  0  0  0  0  0
   60.7290   24.0730   52.2020 C   0  0  0  0  0  0  0  0  0  0  0  0
   61.7020   23.6230   53.2090 N   0  0  0  0  0  0  0  0  0  0  0  0
   62.8770   24.4470   53.1860 C   0  0  0  0  0  0  0  0  0  0  0  0
   63.1220   25.0450   51.8110 C   0  0  0  0  0  0  0  0  0  0  0  0
   62.0280   22.2700   52.8520 C   0  0  0  0  0  0  0  0  0  0  0  0
   62.2810   21.3430   53.9850 C   0  0  0  0  0  0  0  0  0  0  0  0
   61.0760   20.3720   54.0590 C   0  0  0  0  0  0  0  0  0  0  0  0
   60.0540   20.6210   53.3060 O   0  0  0  0  0  0  0  0  0  0  0  0
   59.0380   20.8720   52.5540 C   0  0  0  0  0  0  0  0  0  0  0  0
   57.7660   21.0880   53.1010 C   0  0  0  0  0  0  0  0  0  0  0  0
   56.7050   21.3530   52.2790 C   0  0  0  0  0  0  0  0  0  0  0  0
   55.5090   21.5560   52.8580 N   0  0  0  0  0  0  0  0  0  0  0  0
   54.4320   21.8220   52.1030 C   0  0  0  0  0  0  0  0  0  0  0  0
   54.6110   21.8750   50.7770 N   0  0  0  0  0  0  0  0  0  0  0  0
   55.7950   21.6770   50.1590 C   0  0  0  0  0  0  0  0  0  0  0  0
   55.8480   21.7420   48.9300 N   0  0  0  0  0  0  0  0  0  0  0  0
   55.9020   22.7670   48.0340 C   0  0  0  0  0  0  0  0  0  0  0  0
   57.0610   23.5890   48.0370 C   0  0  0  0  0  0  0  0  0  0  0  0
   57.2380   24.5630   47.1050 C   0  0  0  0  0  0  0  0  0  0  0  0
   56.2760   24.7740   46.1160 C   0  0  0  0  0  0  0  0  0  0  0  0
   56.5620   25.8190   45.1930 N   0  0  0  0  0  0  0  0  0  0  0  0
   56.9250   27.1410   45.6130 C   0  0  0  0  0  0  0  0  0  0  0  0
   57.0190   27.4790   46.8110 O   0  0  0  0  0  0  0  0  0  0  0  0
   57.1800   28.0790   44.5840 N   0  0  0  0  0  0  0  0  0  0  0  0
   57.5480   29.4320   44.8140 C   0  0  0  0  0  0  0  0  0  0  0  0
   56.7990   30.3940   44.1440 C   0  0  0  0  0  0  0  0  0  0  0  0
   57.1120   31.7230   44.3230 C   0  0  0  0  0  0  0  0  0  0  0  0
   58.1580   32.1110   45.1610 C   0  0  0  0  0  0  0  0  0  0  0  0
   58.4640   33.8230   45.3120 S   0  0  0  0  0  0  0  0  0  0  0  0
   59.6320   34.2110   44.4470 O   0  0  0  0  0  0  0  0  0  0  0  0
   57.2410   34.5750   44.8480 O   0  0  0  0  0  0  0  0  0  0  0  0
   58.7590   34.1920   46.9620 N   0  0  0  0  0  0  0  0  0  0  0  0
   60.0670   34.8470   47.0430 C   0  0  0  0  0  0  0  0  0  0  0  0
   61.1210   33.8110   47.2380 C   0  0  0  0  0  0  0  0  0  0  0  0
   60.9270   32.7000   48.0320 C   0  0  0  0  0  0  0  0  0  0  0  0
   61.9170   31.7490   48.2020 C   0  0  0  0  0  0  0  0  0  0  0  0
   63.1550   31.8890   47.5650 C   0  0  0  0  0  0  0  0  0  0  0  0
   63.3570   32.9970   46.7680 C   0  0  0  0  0  0  0  0  0  0  0  0
   62.3550   33.9380   46.6110 C   0  0  0  0  0  0  0  0  0  0  0  0
   58.8800   31.1450   45.8100 C   0  0  0  0  0  0  0  0  0  0  0  0
   58.5840   29.8070   45.6450 C   0  0  0  0  0  0  0  0  0  0  0  0
   55.1510   24.0020   46.0830 C   0  0  0  0  0  0  0  0  0  0  0  0
   54.2380   24.2280   45.1180 F   0  0  0  0  0  0  0  0  0  0  0  0
   54.9300   22.9900   47.0250 C   0  0  0  0  0  0  0  0  0  0  0  0
   56.9030   21.4060   50.9080 C   0  0  0  0  0  0  0  0  0  0  0  0
   58.1140   21.2030   50.3320 C   0  0  0  0  0  0  0  0  0  0  0  0
   59.1850   20.9350   51.1830 C   0  0  0  0  0  0  0  0  0  0  0  0
   60.4790   20.7130   50.6660 O   0  0  0  0  0  0  0  0  0  0  0  0
   61.0300   19.4030   50.6600 C   0  0  0  0  0  0  0  0  0  0  0  0
   59.5707   24.2454   53.9803 H   0  0  0  0  0  0  0  0  0  0  0  0
   58.9928   25.2395   52.6002 H   0  0  0  0  0  0  0  0  0  0  0  0
   58.7283   23.4628   52.6002 H   0  0  0  0  0  0  0  0  0  0  0  0
   60.6278   23.3131   51.4132 H   0  0  0  0  0  0  0  0  0  0  0  0
   61.0629   25.0122   51.7368 H   0  0  0  0  0  0  0  0  0  0  0  0
   62.7529   25.2638   53.9122 H   0  0  0  0  0  0  0  0  0  0  0  0
   63.7410   23.8164   53.4427 H   0  0  0  0  0  0  0  0  0  0  0  0
   63.5370   26.0578   51.9203 H   0  0  0  0  0  0  0  0  0  0  0  0
   63.8343   24.4146   51.2586 H   0  0  0  0  0  0  0  0  0  0  0  0
   62.1721   25.0956   51.2586 H   0  0  0  0  0  0  0  0  0  0  0  0
   61.1900   21.8649   52.2657 H   0  0  0  0  0  0  0  0  0  0  0  0
   62.9764   22.3286   52.2979 H   0  0  0  0  0  0  0  0  0  0  0  0
   63.2094   20.7793   53.8108 H   0  0  0  0  0  0  0  0  0  0  0  0
   62.3933   21.8991   54.9274 H   0  0  0  0  0  0  0  0  0  0  0  0
   61.4445   19.3707   53.7915 H   0  0  0  0  0  0  0  0  0  0  0  0
   60.6964   20.4791   55.0858 H   0  0  0  0  0  0  0  0  0  0  0  0
   57.6208   21.0445   54.1905 H   0  0  0  0  0  0  0  0  0  0  0  0
   53.4431   21.9896   52.5546 H   0  0  0  0  0  0  0  0  0  0  0  0
   53.7430   22.0860   50.2090 H   0  0  0  0  0  0  0  0  0  0  0  0
   57.8299   23.4344   48.8083 H   0  0  0  0  0  0  0  0  0  0  0  0
   58.1433   25.1874   47.1305 H   0  0  0  0  0  0  0  0  0  0  0  0
   56.4930   25.5720   44.1800 H   0  0  0  0  0  0  0  0  0  0  0  0
   57.1030   27.8010   43.5620 H   0  0  0  0  0  0  0  0  0  0  0  0
   55.9712   30.0982   43.4828 H   0  0  0  0  0  0  0  0  0  0  0  0
   56.5275   32.4918   43.7964 H   0  0  0  0  0  0  0  0  0  0  0  0
   58.8650   33.2830   47.4830 H   0  0  0  0  0  0  0  0  0  0  0  0
   60.2609   35.3987   46.1113 H   0  0  0  0  0  0  0  0  0  0  0  0
   60.0774   35.5496   47.8893 H   0  0  0  0  0  0  0  0  0  0  0  0
   59.9617   32.5670   48.5424 H   0  0  0  0  0  0  0  0  0  0  0  0
   61.7295   30.8753   48.8434 H   0  0  0  0  0  0  0  0  0  0  0  0
   63.9460   31.1359   47.6961 H   0  0  0  0  0  0  0  0  0  0  0  0
   64.3202   33.1330   46.2545 H   0  0  0  0  0  0  0  0  0  0  0  0
   62.5405   34.8130   45.9707 H   0  0  0  0  0  0  0  0  0  0  0  0
   59.7075   31.4396   46.4721 H   0  0  0  0  0  0  0  0  0  0  0  0
   59.1718   29.0423   46.1740 H   0  0  0  0  0  0  0  0  0  0  0  0
   54.0172   22.3776   46.9834 H   0  0  0  0  0  0  0  0  0  0  0  0
   58.2453   21.2479   49.2408 H   0  0  0  0  0  0  0  0  0  0  0  0
   61.1739   19.0610   51.6955 H   0  0  0  0  0  0  0  0  0  0  0  0
   60.3434   18.7188   50.1399 H   0  0  0  0  0  0  0  0  0  0  0  0
   61.9992   19.4153   50.1399 H   0  0  0  0  0  0  0  0  0  0  0  0
  1  2  1  0
  2  3  1  0
  3  4  1  0
  4  5  1  0
  3  6  1  0
  6  7  1  0
  7  8  1  0
  8  9  1  0
  9 10  1  0
 10 11  2  0
 11 12  1  0
 12 13  1  0
 13 14  2  0
 14 15  1  0
 15 16  1  0
 16 17  2  0
 17 18  1  0
 18 19  2  0
 19 20  1  0
 20 21  2  0
 21 22  1  0
 22 23  1  0
 23 24  2  0
 23 25  1  0
 25 26  1  0
 26 27  2  0
 27 28  1  0
 28 29  2  0
 29 30  1  0
 30 31  2  0
 30 32  2  0
 30 33  1  0
 33 34  1  0
 34 35  1  0
 35 36  2  0
 36 37  1  0
 37 38  2  0
 38 39  1  0
 39 40  2  0
 29 41  1  0
 41 42  2  0
 21 43  1  0
 43 44  1  0
 43 45  2  0
 16 46  1  0
 46 47  1  0
 47 48  2  0
 48 49  1  0
 49 50  1  0
 48 10  1  0
 46 12  2  0
 45 18  1  0
 42 26  1  0
 40 35  1  0
  1 51  1  0
  1 52  1  0
  1 53  1  0
  2 54  1  0
  2 55  1  0
  4 56  1  0
  4 57  1  0
  5 58  1  0
  5 59  1  0
  5 60  1  0
  6 61  1  0
  6 62  1  0
  7 63  1  0
  7 64  1  0
  8 65  1  0
  8 66  1  0
 11 67  1  0
 14 68  1  0
 15 69  1  0
 19 70  1  0
 20 71  1  0
 22 72  1  0
 25 73  1  0
 27 74  1  0
 28 75  1  0
 33 76  1  0
 34 77  1  0
 34 78  1  0
 36 79  1  0
 37 80  1  0
 38 81  1  0
 39 82  1  0
 40 83  1  0
 41 84  1  0
 42 85  1  0
 45 86  1  0
 47 87  1  0
 50 88  1  0
 50 89  1  0
 50 90  1  0
M  END
>  <smiles>  (54) 
CCN(CC)CCCOc1cc2nc[nH]c(=Nc3ccc(NC(=O)Nc4ccc(S(=O)(=O)NCc5ccccc5)cc4)c(F)c3)c2cc1OC

>  <score_type>  (54) 
oracle

>  <origin>  (54) 
adg

>  <m_score__min__energy>  (54) 
-8.4600000000000009

>  <m_primary>  (54) 
energy

$$$$
54:0
     RDKit          3D

 28 29  0  0  0  0  0  0  0  0999 V2000
   59.8740   28.4200   44.9220 C   0  0  0  0  0  0  0  0  0  0  0  0
   58.7040   29.3210   44.6950 C   0  0  0  0  0  0  0  0  0  0  0  0
   57.4000   28.8580   44.9090 C   0  0  0  0  0  0  0  0  0  0  0  0
   56.3320   29.7250   44.6750 C   0  0  0  0  0  0  0  0  0  0  0  0
   55.1480   29.3390   44.8600 O   0  0  0  0  0  0  0  0  0  0  0  0
   56.5860   31.0230   44.2330 C   0  0  0  0  0  0  0  0  0  0  0  0
   57.9130   31.4170   44.0350 C   0  0  0  0  0  0  0  0  0  0  0  0
   58.2880   33.0640   43.4360 S   0  0  0  0  0  0  0  0  0  0  0  0
   57.3930   33.9210   44.7800 C   0  0  0  0  0  0  0  0  0  0  0  0
   58.1640   33.8500   46.0710 C   0  0  0  0  0  0  0  0  0  0  0  0
   59.2860   34.6710   46.2780 C   0  0  0  0  0  0  0  0  0  0  0  0
   60.0270   34.5660   47.4580 C   0  0  0  0  0  0  0  0  0  0  0  0
   59.6540   33.6450   48.4400 C   0  0  0  0  0  0  0  0  0  0  0  0
   58.5400   32.8250   48.2430 C   0  0  0  0  0  0  0  0  0  0  0  0
   57.7980   32.9240   47.0620 C   0  0  0  0  0  0  0  0  0  0  0  0
   58.9090   30.5680   44.2760 O   0  0  0  0  0  0  0  0  0  0  0  0
   60.0363   28.2950   46.0028 H   0  0  0  0  0  0  0  0  0  0  0  0
   59.6756   27.4392   44.4652 H   0  0  0  0  0  0  0  0  0  0  0  0
   60.7715   28.8624   44.4652 H   0  0  0  0  0  0  0  0  0  0  0  0
   57.2208   27.8294   45.2553 H   0  0  0  0  0  0  0  0  0  0  0  0
   55.7589   31.7231   44.0439 H   0  0  0  0  0  0  0  0  0  0  0  0
   57.2517   34.9761   44.5027 H   0  0  0  0  0  0  0  0  0  0  0  0
   56.4206   33.4275   44.9244 H   0  0  0  0  0  0  0  0  0  0  0  0
   59.5818   35.3989   45.5082 H   0  0  0  0  0  0  0  0  0  0  0  0
   60.9054   35.2095   47.6140 H   0  0  0  0  0  0  0  0  0  0  0  0
   60.2377   33.5653   49.3689 H   0  0  0  0  0  0  0  0  0  0  0  0
   58.2465   32.1011   49.0175 H   0  0  0  0  0  0  0  0  0  0  0  0
   56.9240   32.2740   46.9082 H   0  0  0  0  0  0  0  0  0  0  0  0
  1  2  1  0
  2  3  2  0
  3  4  1  0
  4  5  2  0
  4  6  1  0
  6  7  2  0
  7  8  1  0
  8  9  1  0
  9 10  1  0
 10 11  2  0
 11 12  1  0
 12 13  2  0
 13 14  1  0
 14 15  2  0
  7 16  1  0
 16  2  1  0
 15 10  1  0
  1 17  1  0
  1 18  1  0
  1 19  1  0
  3 20  1  0
  6 21  1  0
  9 22  1  0
  9 23  1  0
 11 24  1  0
 12 25  1  0
 13 26  1  0
 14 27  1  0
 15 28  1  0
M  END
>  <UniqueID>  (55) 
48

>  <SMILES>  (55) 
Cc1cc(=O)cc(SCc2ccccc2)o1

>  <Energy>  (55) 
23.09064973632288

>  <Genealogy>  (55) 
Cc1cc(=O)cc(SCc2ccccc2)o1 (3D coordinates assigned)
Cc1cc(=O)cc(SCc2ccccc2)o1 (optimized conformer: 23.09064973632288 kcal/mol)

>  <smiles>  (55) 
Cc1cc(=O)cc(SCc2ccccc2)o1

>  <score_type>  (55) 
oracle

>  <origin>  (55) 
adg

>  <m_score__min__energy>  (55) 
-6.7400000000000002

>  <m_primary>  (55) 
energy

$$$$
55:0
     RDKit          3D

 51 54  0  0  0  0  0  0  0  0999 V2000
   61.1240   27.3430   48.7260 O   0  0  0  0  0  0  0  0  0  0  0  0
   60.5220   28.4470   48.6350 C   0  0  0  0  0  0  0  0  0  0  0  0
   60.5670   29.3830   49.7230 N   0  0  0  0  0  0  0  0  0  0  0  0
   59.4500   30.0560   50.3220 C   0  0  0  0  0  0  0  0  0  0  0  0
   59.3890   31.4520   50.2580 C   0  0  0  0  0  0  0  0  0  0  0  0
   58.3240   32.1360   50.8500 C   0  0  0  0  0  0  0  0  0  0  0  0
   57.3360   31.4130   51.5190 C   0  0  0  0  0  0  0  0  0  0  0  0
   57.4220   30.0590   51.6000 N   0  0  0  0  0  0  0  0  0  0  0  0
   58.4460   29.3700   51.0280 C   0  0  0  0  0  0  0  0  0  0  0  0
   59.7240   28.7560   47.4270 C   0  0  0  0  0  0  0  0  0  0  0  0
   60.1960   28.4260   46.1460 C   0  0  0  0  0  0  0  0  0  0  0  0
   59.4330   28.7270   45.0170 C   0  0  0  0  0  0  0  0  0  0  0  0
   58.2000   29.3630   45.1730 C   0  0  0  0  0  0  0  0  0  0  0  0
   57.2080   29.7840   43.7400 S   0  0  0  0  0  0  0  0  0  0  0  0
   58.1450   31.3020   43.3420 C   0  0  0  0  0  0  0  0  0  0  0  0
   58.0760   32.2910   44.4740 C   0  0  0  0  0  0  0  0  0  0  0  0
   57.0650   33.2610   44.5100 C   0  0  0  0  0  0  0  0  0  0  0  0
   57.0230   34.1960   45.5440 C   0  0  0  0  0  0  0  0  0  0  0  0
   57.9920   34.1750   46.5510 C   0  0  0  0  0  0  0  0  0  0  0  0
   59.0220   33.2160   46.5280 C   0  0  0  0  0  0  0  0  0  0  0  0
   60.0520   33.1810   47.5940 C   0  0  0  0  0  0  0  0  0  0  0  0
   59.9690   33.9850   48.5640 O   0  0  0  0  0  0  0  0  0  0  0  0
   61.1160   32.2150   47.5600 N   0  0  0  0  0  0  0  0  0  0  0  0
   62.3480   32.3560   48.2870 C   0  0  0  0  0  0  0  0  0  0  0  0
   62.6230   31.4880   49.3560 C   0  0  0  0  0  0  0  0  0  0  0  0
   63.8240   31.5940   50.0640 C   0  0  0  0  0  0  0  0  0  0  0  0
   64.7690   32.5600   49.7040 C   0  0  0  0  0  0  0  0  0  0  0  0
   66.2760   32.6890   50.5910 Cl  0  0  0  0  0  0  0  0  0  0  0  0
   64.5130   33.4150   48.6270 C   0  0  0  0  0  0  0  0  0  0  0  0
   63.3130   33.3120   47.9160 C   0  0  0  0  0  0  0  0  0  0  0  0
   59.0520   32.2720   45.4850 C   0  0  0  0  0  0  0  0  0  0  0  0
   57.7470   29.6680   46.4170 N   0  0  0  0  0  0  0  0  0  0  0  0
   58.4710   29.3850   47.5330 C   0  0  0  0  0  0  0  0  0  0  0  0
   60.1813   32.0127   49.7404 H   0  0  0  0  0  0  0  0  0  0  0  0
   58.2652   33.2327   50.7892 H   0  0  0  0  0  0  0  0  0  0  0  0
   56.4874   31.9388   51.9809 H   0  0  0  0  0  0  0  0  0  0  0  0
   58.4887   28.2745   51.1179 H   0  0  0  0  0  0  0  0  0  0  0  0
   61.1705   27.9286   46.0323 H   0  0  0  0  0  0  0  0  0  0  0  0
   59.7997   28.4656   44.0134 H   0  0  0  0  0  0  0  0  0  0  0  0
   59.1970   31.0377   43.1589 H   0  0  0  0  0  0  0  0  0  0  0  0
   57.7018   31.7627   42.4468 H   0  0  0  0  0  0  0  0  0  0  0  0
   56.3010   33.2850   43.7190 H   0  0  0  0  0  0  0  0  0  0  0  0
   56.2247   34.9524   45.5671 H   0  0  0  0  0  0  0  0  0  0  0  0
   57.9494   34.9122   47.3663 H   0  0  0  0  0  0  0  0  0  0  0  0
   60.9360   31.3060   47.0760 H   0  0  0  0  0  0  0  0  0  0  0  0
   61.8885   30.7194   49.6383 H   0  0  0  0  0  0  0  0  0  0  0  0
   64.0261   30.9159   50.9062 H   0  0  0  0  0  0  0  0  0  0  0  0
   65.2580   34.1710   48.3382 H   0  0  0  0  0  0  0  0  0  0  0  0
   63.1223   33.9805   47.0635 H   0  0  0  0  0  0  0  0  0  0  0  0
   59.8469   31.5120   45.4607 H   0  0  0  0  0  0  0  0  0  0  0  0
   58.0740   29.6497   48.5241 H   0  0  0  0  0  0  0  0  0  0  0  0
  1  2  2  0
  2  3  1  0
  3  4  1  0
  4  5  2  0
  5  6  1  0
  6  7  2  0
  7  8  1  0
  8  9  2  0
  2 10  1  0
 10 11  2  0
 11 12  1  0
 12 13  2  0
 13 14  1  0
 14 15  1  0
 15 16  1  0
 16 17  2  0
 17 18  1  0
 18 19  2  0
 19 20  1  0
 20 21  1  0
 21 22  2  0
 21 23  1  0
 23 24  1  0
 24 25  2  0
 25 26  1  0
 26 27  2  0
 27 28  1  0
 27 29  1  0
 29 30  2  0
 20 31  2  0
 13 32  1  0
 32 33  2  0
  9  4  1  0
 33 10  1  0
 31 16  1  0
 30 24  1  0
  5 34  1  0
  6 35  1  0
  7 36  1  0
  9 37  1  0
 11 38  1  0
 12 39  1  0
 15 40  1  0
 15 41  1  0
 17 42  1  0
 18 43  1  0
 19 44  1  0
 23 45  1  0
 25 46  1  0
 26 47  1  0
 29 48  1  0
 30 49  1  0
 31 50  1  0
 33 51  1  0
M  CHG  1   3  -1
M  END
>  <UniqueID>  (56) 
49

>  <SMILES>  (56) 
O=C([N-]c1cccnc1)c1ccc(SCc2cccc(C(=O)Nc3ccc(Cl)cc3)c2)nc1

>  <Energy>  (56) 
62.22894160186506

>  <Genealogy>  (56) 
O=C([N-]c1cccnc1)c1ccc(SCc2cccc(C(=O)Nc3ccc(Cl)cc3)c2)nc1 (protonated)
O=C([N-]c1cccnc1)c1ccc(SCc2cccc(C(=O)Nc3ccc(Cl)cc3)c2)nc1 (3D coordinates assigned)
O=C([N-]c1cccnc1)c1ccc(SCc2cccc(C(=O)Nc3ccc(Cl)cc3)c2)nc1 (optimized conformer: 62.22894160186506 kcal/mol)

>  <smiles>  (56) 
O=C(Nc1cccnc1)c1ccc(SCc2cccc(C(=O)Nc3ccc(Cl)cc3)c2)nc1

>  <score_type>  (56) 
oracle

>  <origin>  (56) 
adg

>  <m_score__min__energy>  (56) 
-11.24

>  <m_primary>  (56) 
energy

$$$$
56:0
     RDKit          3D

 59 63  0  0  0  0  0  0  0  0999 V2000
   57.0680   34.1570   45.2100 C   0  0  0  0  0  0  0  0  0  0  0  0
   58.1230   34.9620   45.7320 O   0  0  0  0  0  0  0  0  0  0  0  0
   59.2200   34.4580   46.4440 C   0  0  0  0  0  0  0  0  0  0  0  0
   60.3510   34.0400   45.7260 C   0  0  0  0  0  0  0  0  0  0  0  0
   61.4830   33.5620   46.3970 C   0  0  0  0  0  0  0  0  0  0  0  0
   61.4930   33.4870   47.7980 C   0  0  0  0  0  0  0  0  0  0  0  0
   62.9500   33.0020   48.6580 S   0  0  0  0  0  0  0  0  0  0  0  0
   64.1190   32.9940   47.7120 O   0  0  0  0  0  0  0  0  0  0  0  0
   63.2490   33.9540   49.7840 O   0  0  0  0  0  0  0  0  0  0  0  0
   62.7040   31.4050   49.2770 N   0  0  0  0  0  0  0  0  0  0  0  0
   61.4650   30.9870   49.8550 C   0  0  0  0  0  0  0  0  0  0  0  0
   61.1010   31.4600   51.0810 N   0  0  0  0  0  0  0  0  0  0  0  0
   59.9040   31.1630   51.6480 C   0  0  0  0  0  0  0  0  0  0  0  0
   59.5840   31.6590   52.9140 C   0  0  0  0  0  0  0  0  0  0  0  0
   58.3440   31.3680   53.4870 C   0  0  0  0  0  0  0  0  0  0  0  0
   57.3990   30.5950   52.7890 C   0  0  0  0  0  0  0  0  0  0  0  0
   56.0760   30.3200   53.3960 C   0  0  0  0  0  0  0  0  0  0  0  0
   55.9430   30.3850   54.6460 O   0  0  0  0  0  0  0  0  0  0  0  0
   54.9430   29.9360   52.6050 N   0  0  0  0  0  0  0  0  0  0  0  0
   53.7120   30.6650   52.4820 C   0  0  0  0  0  0  0  0  0  0  0  0
   53.3790   31.2240   51.2420 C   0  0  0  0  0  0  0  0  0  0  0  0
   52.1790   31.9230   51.0830 C   0  0  0  0  0  0  0  0  0  0  0  0
   51.2970   32.0580   52.1590 C   0  0  0  0  0  0  0  0  0  0  0  0
   50.1070   32.7550   51.9950 O   0  0  0  0  0  0  0  0  0  0  0  0
   51.6100   31.4830   53.3940 C   0  0  0  0  0  0  0  0  0  0  0  0
   50.7530   31.5990   54.4380 F   0  0  0  0  0  0  0  0  0  0  0  0
   52.8080   30.7810   53.5550 C   0  0  0  0  0  0  0  0  0  0  0  0
   57.7290   30.0800   51.5210 C   0  0  0  0  0  0  0  0  0  0  0  0
   58.9790   30.3580   50.9510 C   0  0  0  0  0  0  0  0  0  0  0  0
   59.3330   29.8530   49.6920 C   0  0  0  0  0  0  0  0  0  0  0  0
   60.5850   30.1450   49.1410 C   0  0  0  0  0  0  0  0  0  0  0  0
   60.8850   29.6320   47.8680 O   0  0  0  0  0  0  0  0  0  0  0  0
   60.0430   29.6940   46.7510 C   0  0  0  0  0  0  0  0  0  0  0  0
   59.2560   30.8390   46.5650 C   0  0  0  0  0  0  0  0  0  0  0  0
   58.4230   30.9460   45.4460 C   0  0  0  0  0  0  0  0  0  0  0  0
   58.3470   29.8980   44.5240 C   0  0  0  0  0  0  0  0  0  0  0  0
   57.5340   30.0030   43.4450 F   0  0  0  0  0  0  0  0  0  0  0  0
   59.1070   28.7420   44.7180 C   0  0  0  0  0  0  0  0  0  0  0  0
   59.9500   28.6320   45.8300 C   0  0  0  0  0  0  0  0  0  0  0  0
   60.6560   27.4920   46.0180 F   0  0  0  0  0  0  0  0  0  0  0  0
   60.3620   33.8930   48.5200 C   0  0  0  0  0  0  0  0  0  0  0  0
   59.2300   34.3710   47.8500 C   0  0  0  0  0  0  0  0  0  0  0  0
   56.4949   33.7197   46.0409 H   0  0  0  0  0  0  0  0  0  0  0  0
   56.4028   34.7792   44.5932 H   0  0  0  0  0  0  0  0  0  0  0  0
   57.4925   33.3511   44.5932 H   0  0  0  0  0  0  0  0  0  0  0  0
   60.3481   34.0883   44.6271 H   0  0  0  0  0  0  0  0  0  0  0  0
   62.3668   33.2444   45.8243 H   0  0  0  0  0  0  0  0  0  0  0  0
   60.3095   32.2796   53.4604 H   0  0  0  0  0  0  0  0  0  0  0  0
   58.1047   31.7463   54.4918 H   0  0  0  0  0  0  0  0  0  0  0  0
   54.0648   31.1125   50.3892 H   0  0  0  0  0  0  0  0  0  0  0  0
   51.9281   32.3679   50.1088 H   0  0  0  0  0  0  0  0  0  0  0  0
   53.0453   30.3174   54.5239 H   0  0  0  0  0  0  0  0  0  0  0  0
   57.0039   29.4577   50.9761 H   0  0  0  0  0  0  0  0  0  0  0  0
   58.6229   29.2242   49.1349 H   0  0  0  0  0  0  0  0  0  0  0  0
   59.2935   31.6557   47.3009 H   0  0  0  0  0  0  0  0  0  0  0  0
   57.8264   31.8571   45.2913 H   0  0  0  0  0  0  0  0  0  0  0  0
   59.0428   27.9157   43.9947 H   0  0  0  0  0  0  0  0  0  0  0  0
   60.3643   33.8356   49.6185 H   0  0  0  0  0  0  0  0  0  0  0  0
   58.3440   34.6802   48.4239 H   0  0  0  0  0  0  0  0  0  0  0  0
  1  2  1  0
  2  3  1  0
  3  4  2  0
  4  5  1  0
  5  6  2  0
  6  7  1  0
  7  8  2  0
  7  9  2  0
  7 10  1  0
 10 11  1  0
 11 12  2  0
 12 13  1  0
 13 14  2  0
 14 15  1  0
 15 16  2  0
 16 17  1  0
 17 18  2  0
 17 19  1  0
 19 20  1  0
 20 21  2  0
 21 22  1  0
 22 23  2  0
 23 24  1  0
 23 25  1  0
 25 26  1  0
 25 27  2  0
 16 28  1  0
 28 29  2  0
 29 30  1  0
 30 31  2  0
 31 32  1  0
 32 33  1  0
 33 34  2  0
 34 35  1  0
 35 36  2  0
 36 37  1  0
 36 38  1  0
 38 39  2  0
 39 40  1  0
  6 41  1  0
 41 42  2  0
 42  3  1  0
 31 11  1  0
 39 33  1  0
 29 13  1  0
 27 20  1  0
  1 43  1  0
  1 44  1  0
  1 45  1  0
  4 46  1  0
  5 47  1  0
 14 48  1  0
 15 49  1  0
 21 50  1  0
 22 51  1  0
 27 52  1  0
 28 53  1  0
 30 54  1  0
 34 55  1  0
 35 56  1  0
 38 57  1  0
 41 58  1  0
 42 59  1  0
M  CHG  3  10  -1  19  -1  24  -1
M  END
>  <UniqueID>  (57) 
50

>  <SMILES>  (57) 
COc1ccc(S(=O)(=O)[N-]c2nc3ccc(C(=O)[N-]c4ccc([O-])c(F)c4)cc3cc2Oc2ccc(F)cc2F)cc1

>  <Energy>  (57) 
86.3290457144027

>  <Genealogy>  (57) 
COc1ccc(S(=O)(=O)[N-]c2nc3ccc(C(=O)[N-]c4ccc([O-])c(F)c4)cc3cc2Oc2ccc(F)cc2F)cc1 (protonated)
COc1ccc(S(=O)(=O)[N-]c2nc3ccc(C(=O)[N-]c4ccc([O-])c(F)c4)cc3cc2Oc2ccc(F)cc2F)cc1 (3D coordinates assigned)
COc1ccc(S(=O)(=O)[N-]c2nc3ccc(C(=O)[N-]c4ccc([O-])c(F)c4)cc3cc2Oc2ccc(F)cc2F)cc1 (optimized conformer: 86.3290457144027 kcal/mol)

>  <smiles>  (57) 
COc1ccc(S(=O)(=O)Nc2nc3ccc(C(=O)Nc4ccc(O)c(F)c4)cc3cc2Oc2ccc(F)cc2F)cc1

>  <score_type>  (57) 
oracle

>  <origin>  (57) 
adg

>  <m_score__min__energy>  (57) 
-15.69

>  <m_primary>  (57) 
energy

$$$$
57:0
     RDKit          3D

 41 42  0  0  0  0  0  0  0  0999 V2000
   57.6820   34.8249   47.0456 H   0  0  0  0  0  0  0  0  0  0  0  0
   58.1670   33.8390   46.9940 C   0  0  0  0  0  0  0  0  0  0  0  0
   59.2710   33.5510   47.8040 C   0  0  0  0  0  0  0  0  0  0  0  0
   59.7330   34.5870   48.6880 N   0  0  0  0  0  0  0  0  0  0  0  0
   60.5950   34.4420   49.2610 H   0  0  0  0  0  0  0  0  0  0  0  0
   59.2050   35.4610   48.8840 H   0  0  0  0  0  0  0  0  0  0  0  0
   59.8710   32.3050   47.7380 N   0  0  0  0  0  0  0  0  0  0  0  0
   60.9800   31.9290   48.6480 C   0  0  0  0  0  0  0  0  0  0  0  0
   61.2529   30.8808   48.4561 H   0  0  0  0  0  0  0  0  0  0  0  0
   60.6277   32.0747   49.6798 H   0  0  0  0  0  0  0  0  0  0  0  0
   62.2310   32.8080   48.4540 C   0  0  0  0  0  0  0  0  0  0  0  0
   62.9137   32.6333   49.2987 H   0  0  0  0  0  0  0  0  0  0  0  0
   61.8883   33.8520   48.4036 H   0  0  0  0  0  0  0  0  0  0  0  0
   62.9860   32.5180   47.1520 C   0  0  0  0  0  0  0  0  0  0  0  0
   62.3573   31.8896   46.5040 H   0  0  0  0  0  0  0  0  0  0  0  0
   63.9241   31.9996   47.3993 H   0  0  0  0  0  0  0  0  0  0  0  0
   63.3250   33.8110   46.4160 C   0  0  0  0  0  0  0  0  0  0  0  0
   63.5333   34.6056   47.1476 H   0  0  0  0  0  0  0  0  0  0  0  0
   64.2118   33.6520   45.7849 H   0  0  0  0  0  0  0  0  0  0  0  0
   62.4742   34.1075   45.7849 H   0  0  0  0  0  0  0  0  0  0  0  0
   59.3840   31.3770   46.8360 C   0  0  0  0  0  0  0  0  0  0  0  0
   60.1140   29.7380   46.6340 S   0  0  0  0  0  0  0  0  0  0  0  0
   58.7670   28.8540   47.4950 C   0  0  0  0  0  0  0  0  0  0  0  0
   59.1268   28.5031   48.4735 H   0  0  0  0  0  0  0  0  0  0  0  0
   57.9161   29.5363   47.6375 H   0  0  0  0  0  0  0  0  0  0  0  0
   58.3310   27.6840   46.6780 C   0  0  0  0  0  0  0  0  0  0  0  0
   59.0660   26.6610   46.6130 O   0  0  0  0  0  0  0  0  0  0  0  0
   57.0940   27.7580   45.9510 N   0  0  0  0  0  0  0  0  0  0  0  0
   56.7170   28.7380   45.1830 C   0  0  0  0  0  0  0  0  0  0  0  0
   55.5150   29.3450   45.2390 N   0  0  0  0  0  0  0  0  0  0  0  0
   55.5290   30.2630   44.3150 O   0  0  0  0  0  0  0  0  0  0  0  0
   56.6730   30.2670   43.6680 C   0  0  0  0  0  0  0  0  0  0  0  0
   57.0230   31.2200   42.5760 C   0  0  0  0  0  0  0  0  0  0  0  0
   57.3709   32.1673   43.0136 H   0  0  0  0  0  0  0  0  0  0  0  0
   57.8212   30.7882   41.9544 H   0  0  0  0  0  0  0  0  0  0  0  0
   56.1351   31.4075   41.9544 H   0  0  0  0  0  0  0  0  0  0  0  0
   57.4970   29.2950   44.1960 C   0  0  0  0  0  0  0  0  0  0  0  0
   58.5232   29.0307   43.9011 H   0  0  0  0  0  0  0  0  0  0  0  0
   58.3060   31.6690   46.0630 N   0  0  0  0  0  0  0  0  0  0  0  0
   57.6910   32.8690   46.1260 C   0  0  0  0  0  0  0  0  0  0  0  0
   56.6920   33.1010   45.3980 O   0  0  0  0  0  0  0  0  0  0  0  0
  1  2  1  0
  2  3  2  0
  3  4  1  0
  4  5  1  0
  4  6  1  0
  3  7  1  0
  7  8  1  0
  8  9  1  0
  8 10  1  0
  8 11  1  0
 11 12  1  0
 11 13  1  0
 11 14  1  0
 14 15  1  0
 14 16  1  0
 14 17  1  0
 17 18  1  0
 17 19  1  0
 17 20  1  0
  7 21  1  0
 21 22  1  0
 22 23  1  0
 23 24  1  0
 23 25  1  0
 23 26  1  0
 26 27  2  0
 26 28  1  0
 28 29  2  0
 29 30  1  0
 30 31  1  0
 31 32  1  0
 32 33  1  0
 33 34  1  0
 33 35  1  0
 33 36  1  0
 32 37  2  0
 37 38  1  0
 21 39  2  0
 39 40  1  0
 40 41  2  0
 40  2  1  0
 37 29  1  0
M  CHG  1  30  -1
M  END
>  <UniqueID>  (58) 
51

>  <SMILES>  (58) 
CCCCn1c(N)cc(=O)nc1SCC(=O)/N=c1/cc(C)o[n-]1

>  <Energy>  (58) 
69.4281436758574

>  <Genealogy>  (58) 
CCCCn1c(N)cc(=O)nc1SCC(=O)N=c1cc(C)o[n-]1 (protonated)
CCCCn1c(N)cc(=O)nc1SCC(=O)/N=c1/cc(C)o[n-]1 (cis-trans isomerization)
CCCCn1c(N)cc(=O)nc1SCC(=O)/N=c1/cc(C)o[n-]1 (3D coordinates assigned)
CCCCn1c(N)cc(=O)nc1SCC(=O)/N=c1/cc(C)o[n-]1 (optimized conformer: 69.4281436758574 kcal/mol)

>  <smiles>  (58) 
CCCCn1c(N)cc(=O)nc1SCC(=O)N=c1cc(C)o[nH]1

>  <score_type>  (58) 
oracle

>  <origin>  (58) 
adg

>  <m_score__min__energy>  (58) 
-9.4800000000000004

>  <m_primary>  (58) 
energy

$$$$
58:0
     RDKit          3D

 58 60  0  0  0  0  0  0  0  0999 V2000
   60.3990   27.9390   45.6550 C   0  0  0  0  0  0  0  0  0  0  0  0
   60.3590   28.4650   47.0870 C   0  0  0  0  0  0  0  0  0  0  0  0
   59.4940   27.5640   47.9770 C   0  0  0  0  0  0  0  0  0  0  0  0
   58.8150   26.4420   47.1880 C   0  0  0  0  0  0  0  0  0  0  0  0
   57.4020   26.6390   47.1400 O   0  0  0  0  0  0  0  0  0  0  0  0
   56.7150   27.1020   46.0130 C   0  0  0  0  0  0  0  0  0  0  0  0
   55.5150   26.7750   45.8070 O   0  0  0  0  0  0  0  0  0  0  0  0
   57.3760   27.9560   45.0810 N   0  0  0  0  0  0  0  0  0  0  0  0
   56.5630   29.2980   44.3520 S   0  0  0  0  0  0  0  0  0  0  0  0
   56.5130   29.1030   42.8630 O   0  0  0  0  0  0  0  0  0  0  0  0
   55.1560   29.3780   44.8760 O   0  0  0  0  0  0  0  0  0  0  0  0
   57.4530   30.7730   44.7160 C   0  0  0  0  0  0  0  0  0  0  0  0
   57.0820   31.9920   44.1490 C   0  0  0  0  0  0  0  0  0  0  0  0
   57.7500   33.1570   44.5180 C   0  0  0  0  0  0  0  0  0  0  0  0
   58.7780   33.0970   45.4610 C   0  0  0  0  0  0  0  0  0  0  0  0
   59.3660   34.1630   45.7870 O   0  0  0  0  0  0  0  0  0  0  0  0
   59.1390   31.8930   46.0180 N   0  0  0  0  0  0  0  0  0  0  0  0
   60.1820   31.8100   47.0560 C   0  0  0  0  0  0  0  0  0  0  0  0
   59.5690   31.9230   48.4250 C   0  0  0  0  0  0  0  0  0  0  0  0
   58.9530   30.9020   49.1190 C   0  0  0  0  0  0  0  0  0  0  0  0
   58.4760   31.4750   50.2890 C   0  0  0  0  0  0  0  0  0  0  0  0
   57.7290   30.8050   51.3820 C   0  0  0  0  0  0  0  0  0  0  0  0
   56.5320   31.3950   51.8260 C   0  0  0  0  0  0  0  0  0  0  0  0
   55.7860   30.8100   52.8510 C   0  0  0  0  0  0  0  0  0  0  0  0
   56.2160   29.6240   53.4400 C   0  0  0  0  0  0  0  0  0  0  0  0
   57.3920   29.0120   53.0030 C   0  0  0  0  0  0  0  0  0  0  0  0
   58.1580   29.5880   51.9690 C   0  0  0  0  0  0  0  0  0  0  0  0
   59.3260   28.9650   51.4990 O   0  0  0  0  0  0  0  0  0  0  0  0
   60.6480   29.3070   51.9010 C   0  0  0  0  0  0  0  0  0  0  0  0
   58.7990   32.7510   50.3170 O   0  0  0  0  0  0  0  0  0  0  0  0
   59.4430   33.0530   49.2130 C   0  0  0  0  0  0  0  0  0  0  0  0
   59.9590   34.4210   48.9100 C   0  0  0  0  0  0  0  0  0  0  0  0
   58.4960   30.7440   45.6450 C   0  0  0  0  0  0  0  0  0  0  0  0
   60.4824   26.8423   45.6694 H   0  0  0  0  0  0  0  0  0  0  0  0
   59.4762   28.2297   45.1317 H   0  0  0  0  0  0  0  0  0  0  0  0
   61.2673   28.3659   45.1317 H   0  0  0  0  0  0  0  0  0  0  0  0
   61.3825   28.4928   47.4892 H   0  0  0  0  0  0  0  0  0  0  0  0
   59.9220   29.4744   47.0786 H   0  0  0  0  0  0  0  0  0  0  0  0
   60.1329   27.1144   48.7514 H   0  0  0  0  0  0  0  0  0  0  0  0
   58.7037   28.1887   48.4187 H   0  0  0  0  0  0  0  0  0  0  0  0
   59.2125   26.4308   46.1624 H   0  0  0  0  0  0  0  0  0  0  0  0
   59.0205   25.4845   47.6890 H   0  0  0  0  0  0  0  0  0  0  0  0
   56.2652   32.0331   43.4134 H   0  0  0  0  0  0  0  0  0  0  0  0
   57.4688   34.1207   44.0683 H   0  0  0  0  0  0  0  0  0  0  0  0
   60.7026   30.8448   46.9705 H   0  0  0  0  0  0  0  0  0  0  0  0
   60.8935   32.6368   46.9141 H   0  0  0  0  0  0  0  0  0  0  0  0
   58.8594   29.8508   48.8087 H   0  0  0  0  0  0  0  0  0  0  0  0
   56.1797   32.3274   51.3607 H   0  0  0  0  0  0  0  0  0  0  0  0
   54.8562   31.2873   53.1940 H   0  0  0  0  0  0  0  0  0  0  0  0
   55.6283   29.1687   54.2507 H   0  0  0  0  0  0  0  0  0  0  0  0
   57.7238   28.0726   53.4692 H   0  0  0  0  0  0  0  0  0  0  0  0
   60.7050   29.3217   52.9994 H   0  0  0  0  0  0  0  0  0  0  0  0
   61.3552   28.5623   51.5071 H   0  0  0  0  0  0  0  0  0  0  0  0
   60.9054   30.3013   51.5071 H   0  0  0  0  0  0  0  0  0  0  0  0
   60.1600   34.9538   49.8511 H   0  0  0  0  0  0  0  0  0  0  0  0
   60.8889   34.3415   48.3278 H   0  0  0  0  0  0  0  0  0  0  0  0
   59.2082   34.9755   48.3278 H   0  0  0  0  0  0  0  0  0  0  0  0
   58.8049   29.7835   46.0831 H   0  0  0  0  0  0  0  0  0  0  0  0
  1  2  1  0
  2  3  1  0
  3  4  1  0
  4  5  1  0
  5  6  1  0
  6  7  2  0
  6  8  1  0
  8  9  1  0
  9 10  2  0
  9 11  2  0
  9 12  1  0
 12 13  1  0
 13 14  2  0
 14 15  1  0
 15 16  2  0
 15 17  1  0
 17 18  1  0
 18 19  1  0
 19 20  1  0
 20 21  2  0
 21 22  1  0
 22 23  2  0
 23 24  1  0
 24 25  2  0
 25 26  1  0
 26 27  2  0
 27 28  1  0
 28 29  1  0
 21 30  1  0
 30 31  1  0
 31 32  1  0
 17 33  1  0
 33 12  2  0
 31 19  2  0
 27 22  1  0
  1 34  1  0
  1 35  1  0
  1 36  1  0
  2 37  1  0
  2 38  1  0
  3 39  1  0
  3 40  1  0
  4 41  1  0
  4 42  1  0
 13 43  1  0
 14 44  1  0
 18 45  1  0
 18 46  1  0
 20 47  1  0
 23 48  1  0
 24 49  1  0
 25 50  1  0
 26 51  1  0
 29 52  1  0
 29 53  1  0
 29 54  1  0
 32 55  1  0
 32 56  1  0
 32 57  1  0
 33 58  1  0
M  CHG  1   8  -1
M  END
>  <UniqueID>  (59) 
52

>  <SMILES>  (59) 
CCCCOC(=O)[N-]S(=O)(=O)c1ccc(=O)n(Cc2cc(-c3ccccc3OC)oc2C)c1

>  <Energy>  (59) 
76.82479734711491

>  <Genealogy>  (59) 
CCCCOC(=O)[N-]S(=O)(=O)c1ccc(=O)n(Cc2cc(-c3ccccc3OC)oc2C)c1 (protonated)
CCCCOC(=O)[N-]S(=O)(=O)c1ccc(=O)n(Cc2cc(-c3ccccc3OC)oc2C)c1 (3D coordinates assigned)
CCCCOC(=O)[N-]S(=O)(=O)c1ccc(=O)n(Cc2cc(-c3ccccc3OC)oc2C)c1 (optimized conformer: 76.82479734711491 kcal/mol)

>  <smiles>  (59) 
CCCCOC(=O)NS(=O)(=O)c1ccc(=O)n(Cc2cc(-c3ccccc3OC)oc2C)c1

>  <score_type>  (59) 
oracle

>  <origin>  (59) 
adg

>  <m_score__min__energy>  (59) 
-9.8599999999999994

>  <m_primary>  (59) 
energy

$$$$
59:0
     RDKit          3D

 43 45  0  0  0  0  0  0  0  0999 V2000
   62.5260   30.6420   47.1130 O   0  0  0  0  0  0  0  0  0  0  0  0
   61.3180   30.7200   46.7590 C   0  0  0  0  0  0  0  0  0  0  0  0
   60.7620   29.7090   45.8310 C   0  0  0  0  0  0  0  0  0  0  0  0
   60.3520   28.5030   46.2530 C   0  0  0  0  0  0  0  0  0  0  0  0
   58.9490   28.0310   46.1580 C   0  0  0  0  0  0  0  0  0  0  0  0
   58.6080   26.8090   46.7620 C   0  0  0  0  0  0  0  0  0  0  0  0
   57.2980   26.3290   46.7020 C   0  0  0  0  0  0  0  0  0  0  0  0
   56.3080   27.0660   46.0480 C   0  0  0  0  0  0  0  0  0  0  0  0
   55.0080   26.5770   45.9900 O   0  0  0  0  0  0  0  0  0  0  0  0
   56.6250   28.2940   45.4560 C   0  0  0  0  0  0  0  0  0  0  0  0
   55.6300   29.0290   44.8160 O   0  0  0  0  0  0  0  0  0  0  0  0
   57.9400   28.7780   45.5140 C   0  0  0  0  0  0  0  0  0  0  0  0
   60.4910   31.8470   47.2610 C   0  0  0  0  0  0  0  0  0  0  0  0
   60.6130   33.1400   46.7210 C   0  0  0  0  0  0  0  0  0  0  0  0
   59.8190   34.1840   47.2030 C   0  0  0  0  0  0  0  0  0  0  0  0
   58.8950   33.9540   48.2230 C   0  0  0  0  0  0  0  0  0  0  0  0
   58.7530   32.6660   48.7690 C   0  0  0  0  0  0  0  0  0  0  0  0
   57.8080   32.3800   49.8100 N   0  0  0  0  0  0  0  0  0  0  0  0
   58.1190   31.4010   51.2070 S   0  0  0  0  0  0  0  0  0  0  0  0
   58.0350   32.2710   52.4290 O   0  0  0  0  0  0  0  0  0  0  0  0
   57.0650   30.3320   51.2910 O   0  0  0  0  0  0  0  0  0  0  0  0
   59.7320   30.6780   51.1310 C   0  0  0  0  0  0  0  0  0  0  0  0
   59.8610   29.2950   50.9190 C   0  0  0  0  0  0  0  0  0  0  0  0
   61.1260   28.7020   50.8580 C   0  0  0  0  0  0  0  0  0  0  0  0
   62.2730   29.4850   51.0000 C   0  0  0  0  0  0  0  0  0  0  0  0
   62.1580   30.8630   51.1950 C   0  0  0  0  0  0  0  0  0  0  0  0
   60.8970   31.4670   51.2570 C   0  0  0  0  0  0  0  0  0  0  0  0
   60.8230   33.2120   51.4740 Cl  0  0  0  0  0  0  0  0  0  0  0  0
   59.5470   31.6220   48.2790 C   0  0  0  0  0  0  0  0  0  0  0  0
   60.6825   29.9544   44.7617 H   0  0  0  0  0  0  0  0  0  0  0  0
   61.0985   27.8262   46.6943 H   0  0  0  0  0  0  0  0  0  0  0  0
   59.3792   26.2257   47.2864 H   0  0  0  0  0  0  0  0  0  0  0  0
   57.0448   25.3670   47.1715 H   0  0  0  0  0  0  0  0  0  0  0  0
   54.7680   28.5960   44.5020 H   0  0  0  0  0  0  0  0  0  0  0  0
   58.1864   29.7465   45.0543 H   0  0  0  0  0  0  0  0  0  0  0  0
   61.3371   33.3304   45.9151 H   0  0  0  0  0  0  0  0  0  0  0  0
   59.9229   35.1924   46.7761 H   0  0  0  0  0  0  0  0  0  0  0  0
   58.2766   34.7817   48.6006 H   0  0  0  0  0  0  0  0  0  0  0  0
   58.9606   28.6744   50.8002 H   0  0  0  0  0  0  0  0  0  0  0  0
   61.2173   27.6175   50.6980 H   0  0  0  0  0  0  0  0  0  0  0  0
   63.2674   29.0165   50.9583 H   0  0  0  0  0  0  0  0  0  0  0  0
   63.0642   31.4776   51.3005 H   0  0  0  0  0  0  0  0  0  0  0  0
   59.4308   30.6109   48.6964 H   0  0  0  0  0  0  0  0  0  0  0  0
  1  2  2  0
  2  3  1  0
  3  4  2  3
  4  5  1  0
  5  6  2  0
  6  7  1  0
  7  8  2  0
  8  9  1  0
  8 10  1  0
 10 11  1  0
 10 12  2  0
  2 13  1  0
 13 14  2  0
 14 15  1  0
 15 16  2  0
 16 17  1  0
 17 18  1  0
 18 19  1  0
 19 20  2  0
 19 21  2  0
 19 22  1  0
 22 23  2  0
 23 24  1  0
 24 25  2  0
 25 26  1  0
 26 27  2  0
 27 28  1  0
 17 29  2  0
 12  5  1  0
 29 13  1  0
 27 22  1  0
  3 30  1  0
  4 31  1  0
  6 32  1  0
  7 33  1  0
 11 34  1  0
 12 35  1  0
 14 36  1  0
 15 37  1  0
 16 38  1  0
 23 39  1  0
 24 40  1  0
 25 41  1  0
 26 42  1  0
 29 43  1  0
M  CHG  2   9  -1  18  -1
M  END
>  <UniqueID>  (60) 
53

>  <SMILES>  (60) 
O=C(C=Cc1ccc([O-])c(O)c1)c1cccc([N-]S(=O)(=O)c2ccccc2Cl)c1

>  <Energy>  (60) 
55.87733469327466

>  <Genealogy>  (60) 
O=C(C=Cc1ccc([O-])c(O)c1)c1cccc([N-]S(=O)(=O)c2ccccc2Cl)c1 (protonated)
O=C(C=Cc1ccc([O-])c(O)c1)c1cccc([N-]S(=O)(=O)c2ccccc2Cl)c1 (3D coordinates assigned)
O=C(C=Cc1ccc([O-])c(O)c1)c1cccc([N-]S(=O)(=O)c2ccccc2Cl)c1 (optimized conformer: 55.87733469327466 kcal/mol)

>  <smiles>  (60) 
O=C(C=Cc1ccc(O)c(O)c1)c1cccc(NS(=O)(=O)c2ccccc2Cl)c1

>  <score_type>  (60) 
oracle

>  <origin>  (60) 
adg

>  <m_score__min__energy>  (60) 
-14.85

>  <m_primary>  (60) 
energy

$$$$
60:0
     RDKit          3D

 60 63  0  0  0  0  0  0  0  0999 V2000
   54.0210   24.8440   45.6180 C   0  0  0  0  0  0  0  0  0  0  0  0
   54.6280   26.0770   45.9890 O   0  0  0  0  0  0  0  0  0  0  0  0
   56.0140   26.3070   46.0040 C   0  0  0  0  0  0  0  0  0  0  0  0
   56.9370   25.3180   46.3990 C   0  0  0  0  0  0  0  0  0  0  0  0
   58.3070   25.5930   46.4010 C   0  0  0  0  0  0  0  0  0  0  0  0
   58.7740   26.8450   45.9960 C   0  0  0  0  0  0  0  0  0  0  0  0
   57.8690   27.8370   45.5810 C   0  0  0  0  0  0  0  0  0  0  0  0
   58.3920   29.1880   45.1590 C   0  0  0  0  0  0  0  0  0  0  0  0
   59.6500   29.4930   45.8440 N   0  0  0  0  0  0  0  0  0  0  0  0
   59.7240   30.2810   47.0470 C   0  0  0  0  0  0  0  0  0  0  0  0
   59.4790   29.6670   48.2860 C   0  0  0  0  0  0  0  0  0  0  0  0
   59.4990   30.4120   49.4650 C   0  0  0  0  0  0  0  0  0  0  0  0
   59.7440   31.7930   49.4360 C   0  0  0  0  0  0  0  0  0  0  0  0
   59.7870   32.5270   50.6750 N   0  0  0  0  0  0  0  0  0  0  0  0
   58.5440   33.0760   51.2230 C   0  0  0  0  0  0  0  0  0  0  0  0
   58.7980   33.6930   52.5930 C   0  0  0  0  0  0  0  0  0  0  0  0
   59.6080   32.8170   53.3460 O   0  0  0  0  0  0  0  0  0  0  0  0
   60.9450   32.8430   52.8710 C   0  0  0  0  0  0  0  0  0  0  0  0
   61.0760   32.8030   51.3280 C   0  0  0  0  0  0  0  0  0  0  0  0
   59.9800   32.4250   48.1930 C   0  0  0  0  0  0  0  0  0  0  0  0
   60.1530   33.8830   48.0940 C   0  0  0  0  0  0  0  0  0  0  0  0
   60.7960   34.5000   48.9860 O   0  0  0  0  0  0  0  0  0  0  0  0
   59.5990   34.5900   46.9790 N   0  0  0  0  0  0  0  0  0  0  0  0
   58.1820   34.5580   46.6280 C   0  0  0  0  0  0  0  0  0  0  0  0
   57.9520   33.6320   45.4630 C   0  0  0  0  0  0  0  0  0  0  0  0
   58.6820   33.7920   44.2730 C   0  0  0  0  0  0  0  0  0  0  0  0
   58.5040   32.8970   43.2120 C   0  0  0  0  0  0  0  0  0  0  0  0
   57.5960   31.8410   43.3280 C   0  0  0  0  0  0  0  0  0  0  0  0
   56.8650   31.6730   44.5070 C   0  0  0  0  0  0  0  0  0  0  0  0
   57.0430   32.5650   45.5750 C   0  0  0  0  0  0  0  0  0  0  0  0
   59.9990   31.6610   47.0120 C   0  0  0  0  0  0  0  0  0  0  0  0
   56.4870   27.5690   45.6080 C   0  0  0  0  0  0  0  0  0  0  0  0
   55.5690   28.5560   45.2450 O   0  0  0  0  0  0  0  0  0  0  0  0
   53.7453   24.2839   46.5237 H   0  0  0  0  0  0  0  0  0  0  0  0
   53.1185   25.0443   45.0218 H   0  0  0  0  0  0  0  0  0  0  0  0
   54.7301   24.2510   45.0218 H   0  0  0  0  0  0  0  0  0  0  0  0
   56.5774   24.3252   46.7071 H   0  0  0  0  0  0  0  0  0  0  0  0
   59.0204   24.8201   46.7229 H   0  0  0  0  0  0  0  0  0  0  0  0
   59.8536   27.0556   46.0018 H   0  0  0  0  0  0  0  0  0  0  0  0
   58.5638   29.1854   44.0725 H   0  0  0  0  0  0  0  0  0  0  0  0
   57.6491   29.9540   45.4260 H   0  0  0  0  0  0  0  0  0  0  0  0
   60.5430   29.1210   45.4420 H   0  0  0  0  0  0  0  0  0  0  0  0
   59.2693   28.5880   48.3271 H   0  0  0  0  0  0  0  0  0  0  0  0
   59.3207   29.9112   50.4280 H   0  0  0  0  0  0  0  0  0  0  0  0
   58.1576   33.8492   50.5426 H   0  0  0  0  0  0  0  0  0  0  0  0
   57.8089   32.2642   51.3265 H   0  0  0  0  0  0  0  0  0  0  0  0
   59.3106   34.6589   52.4736 H   0  0  0  0  0  0  0  0  0  0  0  0
   57.8416   33.8547   53.1119 H   0  0  0  0  0  0  0  0  0  0  0  0
   61.4210   33.7663   53.2330 H   0  0  0  0  0  0  0  0  0  0  0  0
   61.4314   31.9327   53.2514 H   0  0  0  0  0  0  0  0  0  0  0  0
   61.4510   33.7759   50.9776 H   0  0  0  0  0  0  0  0  0  0  0  0
   61.7715   31.9921   51.0658 H   0  0  0  0  0  0  0  0  0  0  0  0
   57.6020   34.2037   47.4929 H   0  0  0  0  0  0  0  0  0  0  0  0
   57.8602   35.5718   46.3477 H   0  0  0  0  0  0  0  0  0  0  0  0
   59.3956   34.6234   44.1751 H   0  0  0  0  0  0  0  0  0  0  0  0
   59.0805   33.0251   42.2840 H   0  0  0  0  0  0  0  0  0  0  0  0
   57.4566   31.1415   42.4906 H   0  0  0  0  0  0  0  0  0  0  0  0
   56.1503   30.8417   44.5976 H   0  0  0  0  0  0  0  0  0  0  0  0
   56.4693   32.4292   46.5037 H   0  0  0  0  0  0  0  0  0  0  0  0
   60.2309   32.1464   46.0525 H   0  0  0  0  0  0  0  0  0  0  0  0
  1  2  1  0
  2  3  1  0
  3  4  2  0
  4  5  1  0
  5  6  2  0
  6  7  1  0
  7  8  1  0
  8  9  1  0
  9 10  1  0
 10 11  2  0
 11 12  1  0
 12 13  2  0
 13 14  1  0
 14 15  1  0
 15 16  1  0
 16 17  1  0
 17 18  1  0
 18 19  1  0
 13 20  1  0
 20 21  1  0
 21 22  2  0
 21 23  1  0
 23 24  1  0
 24 25  1  0
 25 26  2  0
 26 27  1  0
 27 28  2  0
 28 29  1  0
 29 30  2  0
 20 31  2  0
  7 32  2  0
 32 33  1  0
 32  3  1  0
 31 10  1  0
 19 14  1  0
 30 25  1  0
  1 34  1  0
  1 35  1  0
  1 36  1  0
  4 37  1  0
  5 38  1  0
  6 39  1  0
  8 40  1  0
  8 41  1  0
  9 42  1  0
 11 43  1  0
 12 44  1  0
 15 45  1  0
 15 46  1  0
 16 47  1  0
 16 48  1  0
 18 49  1  0
 18 50  1  0
 19 51  1  0
 19 52  1  0
 24 53  1  0
 24 54  1  0
 26 55  1  0
 27 56  1  0
 28 57  1  0
 29 58  1  0
 30 59  1  0
 31 60  1  0
M  CHG  2  23  -1  33  -1
M  END
>  <UniqueID>  (61) 
54

>  <SMILES>  (61) 
COc1cccc(CNc2ccc(N3CCOCC3)c(C(=O)[N-]Cc3ccccc3)c2)c1[O-]

>  <Energy>  (61) 
75.04977127470231

>  <Genealogy>  (61) 
COc1cccc(CNc2ccc(N3CCOCC3)c(C(=O)[N-]Cc3ccccc3)c2)c1[O-] (protonated)
COc1cccc(CNc2ccc(N3CCOCC3)c(C(=O)[N-]Cc3ccccc3)c2)c1[O-] (3D coordinates assigned)
COc1cccc(CNc2ccc(N3CCOCC3)c(C(=O)[N-]Cc3ccccc3)c2)c1[O-] (nonaromatic ring conformer: 75.04977127470231 kcal/mol)

>  <smiles>  (61) 
COc1cccc(CNc2ccc(N3CCOCC3)c(C(=O)NCc3ccccc3)c2)c1O

>  <score_type>  (61) 
oracle

>  <origin>  (61) 
adg

>  <m_score__min__energy>  (61) 
-13.44

>  <m_primary>  (61) 
energy

$$$$
61:0
     RDKit          3D

 37 39  0  0  0  0  0  0  0  0999 V2000
   57.6890   28.1870   43.4510 N   0  0  0  0  0  0  0  0  0  0  0  0
   57.0410   28.6820   44.9750 S   0  0  0  0  0  0  0  0  0  0  0  0
   55.9190   29.6570   44.7500 O   0  0  0  0  0  0  0  0  0  0  0  0
   56.4970   27.4840   45.7010 O   0  0  0  0  0  0  0  0  0  0  0  0
   58.3050   29.4400   45.9380 C   0  0  0  0  0  0  0  0  0  0  0  0
   58.1850   29.5070   47.3320 C   0  0  0  0  0  0  0  0  0  0  0  0
   59.1960   30.0960   48.0980 C   0  0  0  0  0  0  0  0  0  0  0  0
   60.3470   30.6060   47.4780 C   0  0  0  0  0  0  0  0  0  0  0  0
   61.3930   31.2570   48.2910 C   0  0  0  0  0  0  0  0  0  0  0  0
   61.9290   32.4750   48.1330 C   0  0  0  0  0  0  0  0  0  0  0  0
   61.6470   33.4200   47.0210 C   0  0  0  0  0  0  0  0  0  0  0  0
   62.5930   33.9850   46.4090 O   0  0  0  0  0  0  0  0  0  0  0  0
   60.2680   33.7090   46.5900 C   0  0  0  0  0  0  0  0  0  0  0  0
   59.2130   33.5750   47.5060 C   0  0  0  0  0  0  0  0  0  0  0  0
   57.8980   33.8330   47.1070 C   0  0  0  0  0  0  0  0  0  0  0  0
   57.6280   34.2120   45.7880 C   0  0  0  0  0  0  0  0  0  0  0  0
   58.6720   34.3260   44.8660 C   0  0  0  0  0  0  0  0  0  0  0  0
   59.9890   34.0700   45.2630 C   0  0  0  0  0  0  0  0  0  0  0  0
   62.8880   32.7680   49.2660 C   0  0  0  0  0  0  0  0  0  0  0  0
   62.8410   31.5950   50.0680 O   0  0  0  0  0  0  0  0  0  0  0  0
   61.9700   30.6960   49.4930 C   0  0  0  0  0  0  0  0  0  0  0  0
   61.7080   29.5630   49.9760 O   0  0  0  0  0  0  0  0  0  0  0  0
   60.4580   30.5490   46.0800 C   0  0  0  0  0  0  0  0  0  0  0  0
   59.4480   29.9600   45.3150 C   0  0  0  0  0  0  0  0  0  0  0  0
   56.9020   27.7700   42.9060 H   0  0  0  0  0  0  0  0  0  0  0  0
   57.9770   29.0550   42.9460 H   0  0  0  0  0  0  0  0  0  0  0  0
   57.2926   29.0950   47.8258 H   0  0  0  0  0  0  0  0  0  0  0  0
   59.0886   30.1598   49.1909 H   0  0  0  0  0  0  0  0  0  0  0  0
   59.4214   33.2661   48.5410 H   0  0  0  0  0  0  0  0  0  0  0  0
   57.0753   33.7378   47.8309 H   0  0  0  0  0  0  0  0  0  0  0  0
   56.5938   34.4204   45.4764 H   0  0  0  0  0  0  0  0  0  0  0  0
   58.4581   34.6173   43.8271 H   0  0  0  0  0  0  0  0  0  0  0  0
   60.8078   34.1519   44.5330 H   0  0  0  0  0  0  0  0  0  0  0  0
   63.9049   32.9395   48.8832 H   0  0  0  0  0  0  0  0  0  0  0  0
   62.6172   33.6751   49.8261 H   0  0  0  0  0  0  0  0  0  0  0  0
   61.3448   30.9703   45.5840 H   0  0  0  0  0  0  0  0  0  0  0  0
   59.5500   29.9042   44.2212 H   0  0  0  0  0  0  0  0  0  0  0  0
  1  2  1  0
  2  3  2  0
  2  4  2  0
  2  5  1  0
  5  6  2  0
  6  7  1  0
  7  8  2  0
  8  9  1  0
  9 10  2  0
 10 11  1  0
 11 12  2  0
 11 13  1  0
 13 14  2  0
 14 15  1  0
 15 16  2  0
 16 17  1  0
 17 18  2  0
 10 19  1  0
 19 20  1  0
 20 21  1  0
 21 22  2  0
  8 23  1  0
 23 24  2  0
 24  5  1  0
 21  9  1  0
 18 13  1  0
  1 25  1  0
  1 26  1  0
  6 27  1  0
  7 28  1  0
 14 29  1  0
 15 30  1  0
 16 31  1  0
 17 32  1  0
 18 33  1  0
 19 34  1  0
 19 35  1  0
 23 36  1  0
 24 37  1  0
M  END
>  <UniqueID>  (62) 
55

>  <SMILES>  (62) 
NS(=O)(=O)c1ccc(C2=C(C(=O)c3ccccc3)COC2=O)cc1

>  <Energy>  (62) 
70.32621827058357

>  <Genealogy>  (62) 
NS(=O)(=O)c1ccc(C2=C(C(=O)c3ccccc3)COC2=O)cc1 (3D coordinates assigned)
NS(=O)(=O)c1ccc(C2=C(C(=O)c3ccccc3)COC2=O)cc1 (nonaromatic ring conformer: 70.32621827058357 kcal/mol)

>  <smiles>  (62) 
NS(=O)(=O)c1ccc(C2=C(C(=O)c3ccccc3)COC2=O)cc1

>  <score_type>  (62) 
oracle

>  <origin>  (62) 
adg

>  <m_score__min__energy>  (62) 
-8.6300000000000008

>  <m_primary>  (62) 
energy

$$$$
62:0
     RDKit          3D

 66 70  0  0  0  0  0  0  0  0999 V2000
   51.3930   33.0950   51.6110 N   0  0  0  0  0  0  0  0  0  0  0  0
   51.4320   31.3610   51.6190 S   0  0  0  0  0  0  0  0  0  0  0  0
   50.3070   30.8510   52.4760 O   0  0  0  0  0  0  0  0  0  0  0  0
   51.2470   30.8480   50.2130 O   0  0  0  0  0  0  0  0  0  0  0  0
   52.9890   30.8050   52.2500 C   0  0  0  0  0  0  0  0  0  0  0  0
   54.1520   30.8810   51.4710 C   0  0  0  0  0  0  0  0  0  0  0  0
   55.3810   30.4500   51.9930 C   0  0  0  0  0  0  0  0  0  0  0  0
   55.4640   29.9430   53.2980 C   0  0  0  0  0  0  0  0  0  0  0  0
   56.7400   29.4990   53.7850 N   0  0  0  0  0  0  0  0  0  0  0  0
   57.7720   30.2730   53.9540 C   0  0  0  0  0  0  0  0  0  0  0  0
   58.2120   31.2010   52.8960 C   0  0  0  0  0  0  0  0  0  0  0  0
   57.9620   32.5620   53.1130 C   0  0  0  0  0  0  0  0  0  0  0  0
   58.3330   33.5220   52.1740 C   0  0  0  0  0  0  0  0  0  0  0  0
   58.9530   33.1350   50.9900 C   0  0  0  0  0  0  0  0  0  0  0  0
   59.2220   31.7800   50.7460 C   0  0  0  0  0  0  0  0  0  0  0  0
   59.8630   31.4050   49.5600 C   0  0  0  0  0  0  0  0  0  0  0  0
   60.1600   30.0640   49.2850 C   0  0  0  0  0  0  0  0  0  0  0  0
   60.7910   29.7770   48.0180 N   0  0  0  0  0  0  0  0  0  0  0  0
   60.2260   29.3460   46.7620 C   0  0  0  0  0  0  0  0  0  0  0  0
   60.7140   29.8000   45.6950 O   0  0  0  0  0  0  0  0  0  0  0  0
   59.1580   28.3390   46.6600 C   0  0  0  0  0  0  0  0  0  0  0  0
   59.3820   27.0700   47.2210 C   0  0  0  0  0  0  0  0  0  0  0  0
   58.4230   26.0600   47.0940 C   0  0  0  0  0  0  0  0  0  0  0  0
   57.2420   26.3070   46.3960 C   0  0  0  0  0  0  0  0  0  0  0  0
   57.0090   27.5640   45.8240 C   0  0  0  0  0  0  0  0  0  0  0  0
   57.9640   28.5870   45.9380 C   0  0  0  0  0  0  0  0  0  0  0  0
   57.6420   30.1620   45.1860 S   0  0  0  0  0  0  0  0  0  0  0  0
   58.6660   30.4190   44.1200 O   0  0  0  0  0  0  0  0  0  0  0  0
   56.2830   30.1760   44.5460 O   0  0  0  0  0  0  0  0  0  0  0  0
   57.7160   31.4280   46.3720 N   0  0  0  0  0  0  0  0  0  0  0  0
   58.5640   32.5840   46.2810 C   0  0  0  0  0  0  0  0  0  0  0  0
   58.1240   33.7900   45.7110 C   0  0  0  0  0  0  0  0  0  0  0  0
   58.9850   34.8830   45.6240 C   0  0  0  0  0  0  0  0  0  0  0  0
   60.3100   34.7710   46.0630 C   0  0  0  0  0  0  0  0  0  0  0  0
   60.7760   33.5660   46.6040 C   0  0  0  0  0  0  0  0  0  0  0  0
   62.4780   33.3930   47.0350 S   0  0  0  0  0  0  0  0  0  0  0  0
   62.8750   31.7120   47.1260 N   0  0  0  0  0  0  0  0  0  0  0  0
   63.3450   34.0370   45.9940 O   0  0  0  0  0  0  0  0  0  0  0  0
   62.7470   34.0360   48.3640 O   0  0  0  0  0  0  0  0  0  0  0  0
   59.8890   32.4880   46.7460 C   0  0  0  0  0  0  0  0  0  0  0  0
   59.8360   29.0880   50.2420 C   0  0  0  0  0  0  0  0  0  0  0  0
   59.2080   29.4500   51.4410 C   0  0  0  0  0  0  0  0  0  0  0  0
   58.8640   30.7950   51.7020 C   0  0  0  0  0  0  0  0  0  0  0  0
   54.2880   29.8440   54.0690 C   0  0  0  0  0  0  0  0  0  0  0  0
   53.0630   30.2820   53.5500 C   0  0  0  0  0  0  0  0  0  0  0  0
   51.4160   33.3980   50.6160 H   0  0  0  0  0  0  0  0  0  0  0  0
   54.1009   31.2798   50.4471 H   0  0  0  0  0  0  0  0  0  0  0  0
   56.2877   30.5103   51.3731 H   0  0  0  0  0  0  0  0  0  0  0  0
   58.3263   30.2344   54.9033 H   0  0  0  0  0  0  0  0  0  0  0  0
   57.4639   32.8785   54.0413 H   0  0  0  0  0  0  0  0  0  0  0  0
   58.1357   34.5865   52.3687 H   0  0  0  0  0  0  0  0  0  0  0  0
   59.2328   33.8931   50.2437 H   0  0  0  0  0  0  0  0  0  0  0  0
   60.1393   32.1790   48.8288 H   0  0  0  0  0  0  0  0  0  0  0  0
   60.3177   26.8699   47.7635 H   0  0  0  0  0  0  0  0  0  0  0  0
   58.6004   25.0722   47.5443 H   0  0  0  0  0  0  0  0  0  0  0  0
   56.4896   25.5111   46.2940 H   0  0  0  0  0  0  0  0  0  0  0  0
   56.0707   27.7513   45.2813 H   0  0  0  0  0  0  0  0  0  0  0  0
   57.0949   33.8725   45.3313 H   0  0  0  0  0  0  0  0  0  0  0  0
   58.6228   35.8354   45.2096 H   0  0  0  0  0  0  0  0  0  0  0  0
   60.9881   35.6334   45.9826 H   0  0  0  0  0  0  0  0  0  0  0  0
   62.0280   31.1710   46.8380 H   0  0  0  0  0  0  0  0  0  0  0  0
   60.2324   31.5593   47.2252 H   0  0  0  0  0  0  0  0  0  0  0  0
   60.0770   28.0323   50.0487 H   0  0  0  0  0  0  0  0  0  0  0  0
   58.9798   28.6765   52.1891 H   0  0  0  0  0  0  0  0  0  0  0  0
   54.3326   29.4206   55.0833 H   0  0  0  0  0  0  0  0  0  0  0  0
   52.1535   30.2156   54.1652 H   0  0  0  0  0  0  0  0  0  0  0  0
  1  2  1  0
  2  3  2  0
  2  4  2  0
  2  5  1  0
  5  6  2  0
  6  7  1  0
  7  8  2  0
  8  9  1  0
  9 10  2  3
 10 11  1  0
 11 12  2  0
 12 13  1  0
 13 14  2  0
 14 15  1  0
 15 16  2  0
 16 17  1  0
 17 18  1  0
 18 19  1  0
 19 20  2  0
 19 21  1  0
 21 22  2  0
 22 23  1  0
 23 24  2  0
 24 25  1  0
 25 26  2  0
 26 27  1  0
 27 28  2  0
 27 29  2  0
 27 30  1  0
 30 31  1  0
 31 32  2  0
 32 33  1  0
 33 34  2  0
 34 35  1  0
 35 36  1  0
 36 37  1  0
 36 38  2  0
 36 39  2  0
 35 40  2  0
 17 41  2  0
 41 42  1  0
 42 43  2  0
  8 44  1  0
 44 45  2  0
 45  5  1  0
 43 11  1  0
 43 15  1  0
 26 21  1  0
 40 31  1  0
  1 46  1  0
  6 47  1  0
  7 48  1  0
 10 49  1  0
 12 50  1  0
 13 51  1  0
 14 52  1  0
 16 53  1  0
 22 54  1  0
 23 55  1  0
 24 56  1  0
 25 57  1  0
 32 58  1  0
 33 59  1  0
 34 60  1  0
 37 61  1  0
 40 62  1  0
 41 63  1  0
 42 64  1  0
 44 65  1  0
 45 66  1  0
M  CHG  4   1  -1  18  -1  30  -1  37  -1
M  END
>  <UniqueID>  (63) 
56

>  <SMILES>  (63) 
[NH-]S(=O)(=O)c1ccc(N=Cc2cccc3cc([N-]C(=O)c4ccccc4S(=O)(=O)[N-]c4cccc(S([NH-])(=O)=O)c4)ccc23)cc1

>  <Energy>  (63) 
97.00736858931067

>  <Genealogy>  (63) 
[NH-]S(=O)(=O)c1ccc(N=Cc2cccc3cc([N-]C(=O)c4ccccc4S(=O)(=O)[N-]c4cccc(S([NH-])(=O)=O)c4)ccc23)cc1 (protonated)
[NH-]S(=O)(=O)c1ccc(N=Cc2cccc3cc([N-]C(=O)c4ccccc4S(=O)(=O)[N-]c4cccc(S([NH-])(=O)=O)c4)ccc23)cc1 (3D coordinates assigned)
[NH-]S(=O)(=O)c1ccc(N=Cc2cccc3cc([N-]C(=O)c4ccccc4S(=O)(=O)[N-]c4cccc(S([NH-])(=O)=O)c4)ccc23)cc1 (optimized conformer: 97.00736858931067 kcal/mol)

>  <smiles>  (63) 
NS(=O)(=O)c1ccc(N=Cc2cccc3cc(NC(=O)c4ccccc4S(=O)(=O)Nc4cccc(S(N)(=O)=O)c4)ccc23)cc1

>  <score_type>  (63) 
oracle

>  <origin>  (63) 
adg

>  <m_score__min__energy>  (63) 
-19.760000000000002

>  <m_primary>  (63) 
energy

$$$$
63:0
     RDKit          3D

 33 35  0  0  0  0  0  0  0  0999 V2000
   55.1610   28.2260   44.4940 H   0  0  0  0  0  0  0  0  0  0  0  0
   55.2750   29.2220   44.7890 N   0  0  0  0  0  0  0  0  0  0  0  0
   56.5450   29.7280   45.1930 C   0  0  0  0  0  0  0  0  0  0  0  0
   56.8720   30.8920   44.8360 O   0  0  0  0  0  0  0  0  0  0  0  0
   57.4680   28.8960   46.0160 C   0  0  0  0  0  0  0  0  0  0  0  0
   58.6730   29.4110   46.5880 C   0  0  0  0  0  0  0  0  0  0  0  0
   58.9850   30.6660   46.4310 N   0  0  0  0  0  0  0  0  0  0  0  0
   60.2320   31.2970   46.7670 C   0  0  0  0  0  0  0  0  0  0  0  0
   61.4290   30.5640   46.8810 C   0  0  0  0  0  0  0  0  0  0  0  0
   61.4178   29.4728   46.7427 H   0  0  0  0  0  0  0  0  0  0  0  0
   62.6310   31.2160   47.1690 C   0  0  0  0  0  0  0  0  0  0  0  0
   63.5594   30.6335   47.2632 H   0  0  0  0  0  0  0  0  0  0  0  0
   62.6620   32.6100   47.3390 C   0  0  0  0  0  0  0  0  0  0  0  0
   63.9070   33.2850   47.6090 N   0  0  0  0  0  0  0  0  0  0  0  0
   64.6990   32.7750   47.1520 H   0  0  0  0  0  0  0  0  0  0  0  0
   63.8820   34.2570   47.2200 H   0  0  0  0  0  0  0  0  0  0  0  0
   64.1450   33.3500   49.0530 C   0  0  0  0  0  0  0  0  0  0  0  0
   63.2184   33.0969   49.5891 H   0  0  0  0  0  0  0  0  0  0  0  0
   64.9343   32.6345   49.3271 H   0  0  0  0  0  0  0  0  0  0  0  0
   64.4610   34.3673   49.3271 H   0  0  0  0  0  0  0  0  0  0  0  0
   61.4740   33.3450   47.1810 C   0  0  0  0  0  0  0  0  0  0  0  0
   61.4903   34.4398   47.2870 H   0  0  0  0  0  0  0  0  0  0  0  0
   60.2720   32.6930   46.8900 C   0  0  0  0  0  0  0  0  0  0  0  0
   59.1370   33.4210   46.7400 F   0  0  0  0  0  0  0  0  0  0  0  0
   59.4730   28.5890   47.3460 N   0  0  0  0  0  0  0  0  0  0  0  0
   59.1820   27.2780   47.5730 C   0  0  0  0  0  0  0  0  0  0  0  0
   59.8479   26.6460   48.1789 H   0  0  0  0  0  0  0  0  0  0  0  0
   58.0230   26.7660   47.0180 C   0  0  0  0  0  0  0  0  0  0  0  0
   57.5500   25.5140   47.1100 N   0  0  0  0  0  0  0  0  0  0  0  0
   56.4060   25.5820   46.3810 C   0  0  0  0  0  0  0  0  0  0  0  0
   55.7399   24.7191   46.2337 H   0  0  0  0  0  0  0  0  0  0  0  0
   56.1550   26.8050   45.8500 N   0  0  0  0  0  0  0  0  0  0  0  0
   57.1960   27.5410   46.2700 C   0  0  0  0  0  0  0  0  0  0  0  0
  1  2  1  0
  2  3  1  0
  3  4  2  0
  3  5  1  0
  5  6  1  0
  6  7  2  0
  7  8  1  0
  8  9  2  0
  9 10  1  0
  9 11  1  0
 11 12  1  0
 11 13  2  0
 13 14  1  0
 14 15  1  0
 14 16  1  0
 14 17  1  0
 17 18  1  0
 17 19  1  0
 17 20  1  0
 13 21  1  0
 21 22  1  0
 21 23  2  0
 23 24  1  0
  6 25  1  0
 25 26  1  0
 26 27  1  0
 26 28  2  0
 28 29  1  0
 29 30  1  0
 30 31  1  0
 30 32  2  0
 32 33  1  0
 33  5  2  0
 23  8  1  0
 33 28  1  0
M  CHG  4   2  -1  14   1  25  -1  29  -1
M  END
>  <UniqueID>  (64) 
57

>  <SMILES>  (64) 
C[NH2+]c1ccc(/N=c2\[n-]cc3[n-]cnc3c2C([NH-])=O)c(F)c1

>  <Energy>  (64) 
81.29442513170513

>  <Genealogy>  (64) 
C[NH2+]c1ccc(N=c2[n-]cc3[n-]cnc3c2C([NH-])=O)c(F)c1 (protonated)
C[NH2+]c1ccc(/N=c2\[n-]cc3[n-]cnc3c2C([NH-])=O)c(F)c1 (cis-trans isomerization)
C[NH2+]c1ccc(/N=c2\[n-]cc3[n-]cnc3c2C([NH-])=O)c(F)c1 (3D coordinates assigned)
C[NH2+]c1ccc(/N=c2\[n-]cc3[n-]cnc3c2C([NH-])=O)c(F)c1 (optimized conformer: 81.29442513170513 kcal/mol)

>  <smiles>  (64) 
CNc1ccc(N=c2[nH]cc3[nH]cnc3c2C(N)=O)c(F)c1

>  <score_type>  (64) 
oracle

>  <origin>  (64) 
adg

>  <m_score__min__energy>  (64) 
-12.07

>  <m_primary>  (64) 
energy

$$$$
64:0
     RDKit          3D

 45 47  0  0  0  0  0  0  0  0999 V2000
   57.8610   34.2670   46.3400 C   0  0  0  0  0  0  0  0  0  0  0  0
   58.8680   33.2910   46.8840 C   0  0  0  0  0  0  0  0  0  0  0  0
   59.9780   33.7560   47.5970 C   0  0  0  0  0  0  0  0  0  0  0  0
   60.8870   32.8640   48.1660 C   0  0  0  0  0  0  0  0  0  0  0  0
   61.9640   33.3890   48.8920 O   0  0  0  0  0  0  0  0  0  0  0  0
   63.2980   33.0010   48.7180 C   0  0  0  0  0  0  0  0  0  0  0  0
   63.6520   32.4010   47.6640 O   0  0  0  0  0  0  0  0  0  0  0  0
   64.2840   33.2550   49.7920 C   0  0  0  0  0  0  0  0  0  0  0  0
   63.9450   34.0690   50.8880 C   0  0  0  0  0  0  0  0  0  0  0  0
   64.8750   34.3120   51.9030 C   0  0  0  0  0  0  0  0  0  0  0  0
   66.1520   33.7490   51.8340 C   0  0  0  0  0  0  0  0  0  0  0  0
   66.5000   32.9400   50.7500 C   0  0  0  0  0  0  0  0  0  0  0  0
   65.5730   32.6940   49.7320 C   0  0  0  0  0  0  0  0  0  0  0  0
   60.7290   31.4780   47.9700 C   0  0  0  0  0  0  0  0  0  0  0  0
   61.6960   30.6120   48.4900 O   0  0  0  0  0  0  0  0  0  0  0  0
   59.6180   30.9910   47.2380 C   0  0  0  0  0  0  0  0  0  0  0  0
   59.4660   29.5110   46.9830 C   0  0  0  0  0  0  0  0  0  0  0  0
   58.6620   31.9080   46.7390 C   0  0  0  0  0  0  0  0  0  0  0  0
   57.5060   31.4630   46.0830 O   0  0  0  0  0  0  0  0  0  0  0  0
   57.3540   31.4240   44.6880 C   0  0  0  0  0  0  0  0  0  0  0  0
   58.0030   32.3500   43.8460 C   0  0  0  0  0  0  0  0  0  0  0  0
   57.8330   32.2860   42.4610 C   0  0  0  0  0  0  0  0  0  0  0  0
   57.0220   31.3000   41.9000 C   0  0  0  0  0  0  0  0  0  0  0  0
   56.3790   30.3720   42.7220 C   0  0  0  0  0  0  0  0  0  0  0  0
   56.5410   30.4250   44.1150 C   0  0  0  0  0  0  0  0  0  0  0  0
   55.8730   29.4650   44.9420 N   0  0  0  0  0  0  0  0  0  0  0  0
   57.3462   34.7659   47.1743 H   0  0  0  0  0  0  0  0  0  0  0  0
   58.3753   35.0193   45.7239 H   0  0  0  0  0  0  0  0  0  0  0  0
   57.1251   33.7295   45.7239 H   0  0  0  0  0  0  0  0  0  0  0  0
   60.1360   34.8387   47.7104 H   0  0  0  0  0  0  0  0  0  0  0  0
   62.9421   34.5170   50.9467 H   0  0  0  0  0  0  0  0  0  0  0  0
   64.6009   34.9478   52.7578 H   0  0  0  0  0  0  0  0  0  0  0  0
   66.8828   33.9428   52.6330 H   0  0  0  0  0  0  0  0  0  0  0  0
   67.5048   32.4956   50.6968 H   0  0  0  0  0  0  0  0  0  0  0  0
   65.8533   32.0581   48.8793 H   0  0  0  0  0  0  0  0  0  0  0  0
   62.5980   30.9190   48.8280 H   0  0  0  0  0  0  0  0  0  0  0  0
   59.4112   28.9772   47.9432 H   0  0  0  0  0  0  0  0  0  0  0  0
   58.5446   29.3304   46.4100 H   0  0  0  0  0  0  0  0  0  0  0  0
   60.3315   29.1469   46.4100 H   0  0  0  0  0  0  0  0  0  0  0  0
   58.6471   33.1276   44.2824 H   0  0  0  0  0  0  0  0  0  0  0  0
   58.3399   33.0149   41.8115 H   0  0  0  0  0  0  0  0  0  0  0  0
   56.8886   31.2531   40.8091 H   0  0  0  0  0  0  0  0  0  0  0  0
   55.7417   29.5948   42.2749 H   0  0  0  0  0  0  0  0  0  0  0  0
   55.6470   29.6860   45.9370 H   0  0  0  0  0  0  0  0  0  0  0  0
   55.5960   28.5280   44.5740 H   0  0  0  0  0  0  0  0  0  0  0  0
  1  2  1  0
  2  3  2  0
  3  4  1  0
  4  5  1  0
  5  6  1  0
  6  7  2  0
  6  8  1  0
  8  9  2  0
  9 10  1  0
 10 11  2  0
 11 12  1  0
 12 13  2  0
  4 14  2  0
 14 15  1  0
 14 16  1  0
 16 17  1  0
 16 18  2  0
 18 19  1  0
 19 20  1  0
 20 21  2  0
 21 22  1  0
 22 23  2  0
 23 24  1  0
 24 25  2  0
 25 26  1  0
 18  2  1  0
 25 20  1  0
 13  8  1  0
  1 27  1  0
  1 28  1  0
  1 29  1  0
  3 30  1  0
  9 31  1  0
 10 32  1  0
 11 33  1  0
 12 34  1  0
 13 35  1  0
 15 36  1  0
 17 37  1  0
 17 38  1  0
 17 39  1  0
 21 40  1  0
 22 41  1  0
 23 42  1  0
 24 43  1  0
 26 44  1  0
 26 45  1  0
M  END
>  <UniqueID>  (65) 
58

>  <SMILES>  (65) 
Cc1cc(OC(=O)c2ccccc2)c(O)c(C)c1Oc1ccccc1N

>  <Energy>  (65) 
63.65617705771406

>  <Genealogy>  (65) 
Cc1cc(OC(=O)c2ccccc2)c(O)c(C)c1Oc1ccccc1N (3D coordinates assigned)
Cc1cc(OC(=O)c2ccccc2)c(O)c(C)c1Oc1ccccc1N (optimized conformer: 63.65617705771406 kcal/mol)

>  <smiles>  (65) 
Cc1cc(OC(=O)c2ccccc2)c(O)c(C)c1Oc1ccccc1N

>  <score_type>  (65) 
oracle

>  <origin>  (65) 
adg

>  <m_score__min__energy>  (65) 
-8.9700000000000006

>  <m_primary>  (65) 
energy

$$$$
65:0
     RDKit          3D

 54 56  0  0  0  0  0  0  0  0999 V2000
   60.5130   28.3740   52.9250 C   0  0  0  0  0  0  0  0  0  0  0  0
   59.6140   28.3850   51.8200 O   0  0  0  0  0  0  0  0  0  0  0  0
   59.3990   29.4870   50.9780 C   0  0  0  0  0  0  0  0  0  0  0  0
   58.8790   30.7050   51.4510 C   0  0  0  0  0  0  0  0  0  0  0  0
   58.6800   31.7870   50.5750 C   0  0  0  0  0  0  0  0  0  0  0  0
   58.1750   33.0190   51.0290 O   0  0  0  0  0  0  0  0  0  0  0  0
   58.2000   33.4580   52.3840 C   0  0  0  0  0  0  0  0  0  0  0  0
   59.0080   31.6460   49.2090 C   0  0  0  0  0  0  0  0  0  0  0  0
   58.8040   32.7810   48.2780 C   0  0  0  0  0  0  0  0  0  0  0  0
   59.1340   33.9430   48.6370 O   0  0  0  0  0  0  0  0  0  0  0  0
   58.2530   32.5560   46.9690 N   0  0  0  0  0  0  0  0  0  0  0  0
   57.7590   33.6370   46.1170 C   0  0  0  0  0  0  0  0  0  0  0  0
   57.3700   33.0890   44.7430 C   0  0  0  0  0  0  0  0  0  0  0  0
   56.6930   31.7910   44.8860 N   0  0  0  0  0  0  0  0  0  0  0  0
   57.2260   30.7880   43.9490 C   0  0  0  0  0  0  0  0  0  0  0  0
   57.5150   29.4690   44.6320 C   0  0  0  0  0  0  0  0  0  0  0  0
   58.8470   29.0870   44.8550 C   0  0  0  0  0  0  0  0  0  0  0  0
   59.1430   27.8840   45.5130 C   0  0  0  0  0  0  0  0  0  0  0  0
   60.4730   27.5020   45.7330 C   0  0  0  0  0  0  0  0  0  0  0  0
   60.7410   26.3030   46.3930 C   0  0  0  0  0  0  0  0  0  0  0  0
   59.7210   25.5120   46.8180 N   0  0  0  0  0  0  0  0  0  0  0  0
   58.4180   25.8460   46.6230 C   0  0  0  0  0  0  0  0  0  0  0  0
   57.5140   25.0700   47.0390 O   0  0  0  0  0  0  0  0  0  0  0  0
   58.0940   27.0480   45.9610 C   0  0  0  0  0  0  0  0  0  0  0  0
   56.7620   27.4340   45.7380 C   0  0  0  0  0  0  0  0  0  0  0  0
   56.4720   28.6340   45.0810 C   0  0  0  0  0  0  0  0  0  0  0  0
   55.1430   28.9910   44.8820 O   0  0  0  0  0  0  0  0  0  0  0  0
   59.5190   30.4220   48.7270 C   0  0  0  0  0  0  0  0  0  0  0  0
   59.7970   30.2880   47.3550 O   0  0  0  0  0  0  0  0  0  0  0  0
   61.0240   30.6560   46.7370 C   0  0  0  0  0  0  0  0  0  0  0  0
   59.7150   29.3560   49.6240 C   0  0  0  0  0  0  0  0  0  0  0  0
   59.9400   28.3810   53.8639 H   0  0  0  0  0  0  0  0  0  0  0  0
   61.1356   27.4682   52.8822 H   0  0  0  0  0  0  0  0  0  0  0  0
   61.1576   29.2643   52.8822 H   0  0  0  0  0  0  0  0  0  0  0  0
   58.6256   30.8124   52.5160 H   0  0  0  0  0  0  0  0  0  0  0  0
   58.1503   32.5861   53.0529 H   0  0  0  0  0  0  0  0  0  0  0  0
   59.1312   34.0124   52.5727 H   0  0  0  0  0  0  0  0  0  0  0  0
   57.3378   34.1145   52.5727 H   0  0  0  0  0  0  0  0  0  0  0  0
   58.1540   31.5740   46.6240 H   0  0  0  0  0  0  0  0  0  0  0  0
   56.8777   34.0972   46.5877 H   0  0  0  0  0  0  0  0  0  0  0  0
   58.5529   34.3883   45.9928 H   0  0  0  0  0  0  0  0  0  0  0  0
   56.6922   33.7995   44.2472 H   0  0  0  0  0  0  0  0  0  0  0  0
   58.2800   32.9543   44.1399 H   0  0  0  0  0  0  0  0  0  0  0  0
   55.6670   31.9190   44.7120 H   0  0  0  0  0  0  0  0  0  0  0  0
   56.4877   30.6201   43.1511 H   0  0  0  0  0  0  0  0  0  0  0  0
   58.1724   31.1735   43.5418 H   0  0  0  0  0  0  0  0  0  0  0  0
   59.6656   29.7363   44.5110 H   0  0  0  0  0  0  0  0  0  0  0  0
   61.2984   28.1421   45.3882 H   0  0  0  0  0  0  0  0  0  0  0  0
   61.7824   25.9963   46.5703 H   0  0  0  0  0  0  0  0  0  0  0  0
   55.9412   26.7878   46.0826 H   0  0  0  0  0  0  0  0  0  0  0  0
   61.7720   30.8803   47.5118 H   0  0  0  0  0  0  0  0  0  0  0  0
   61.3825   29.8259   46.1106 H   0  0  0  0  0  0  0  0  0  0  0  0
   60.8665   31.5464   46.1106 H   0  0  0  0  0  0  0  0  0  0  0  0
   60.1235   28.4044   49.2530 H   0  0  0  0  0  0  0  0  0  0  0  0
  1  2  1  0
  2  3  1  0
  3  4  2  0
  4  5  1  0
  5  6  1  0
  6  7  1  0
  5  8  2  0
  8  9  1  0
  9 10  2  0
  9 11  1  0
 11 12  1  0
 12 13  1  0
 13 14  1  0
 14 15  1  0
 15 16  1  0
 16 17  2  0
 17 18  1  0
 18 19  1  0
 19 20  2  0
 20 21  1  0
 21 22  1  0
 22 23  2  0
 22 24  1  0
 24 25  1  0
 25 26  2  0
 26 27  1  0
  8 28  1  0
 28 29  1  0
 29 30  1  0
 28 31  2  0
 31  3  1  0
 26 16  1  0
 24 18  2  0
  1 32  1  0
  1 33  1  0
  1 34  1  0
  4 35  1  0
  7 36  1  0
  7 37  1  0
  7 38  1  0
 11 39  1  0
 12 40  1  0
 12 41  1  0
 13 42  1  0
 13 43  1  0
 14 44  1  0
 15 45  1  0
 15 46  1  0
 17 47  1  0
 19 48  1  0
 20 49  1  0
 25 50  1  0
 30 51  1  0
 30 52  1  0
 30 53  1  0
 31 54  1  0
M  CHG  2  21  -1  27  -1
M  END
>  <UniqueID>  (66) 
59

>  <SMILES>  (66) 
COc1cc(OC)c(C(=O)NCCNCc2cc3cc[n-]c(=O)c3cc2[O-])c(OC)c1

>  <Energy>  (66) 
61.168794601476606

>  <Genealogy>  (66) 
COc1cc(OC)c(C(=O)NCCNCc2cc3cc[n-]c(=O)c3cc2[O-])c(OC)c1 (protonated)
COc1cc(OC)c(C(=O)NCCNCc2cc3cc[n-]c(=O)c3cc2[O-])c(OC)c1 (3D coordinates assigned)
COc1cc(OC)c(C(=O)NCCNCc2cc3cc[n-]c(=O)c3cc2[O-])c(OC)c1 (optimized conformer: 61.168794601476606 kcal/mol)

>  <smiles>  (66) 
COc1cc(OC)c(C(=O)NCCNCc2cc3cc[nH]c(=O)c3cc2O)c(OC)c1

>  <score_type>  (66) 
oracle

>  <origin>  (66) 
adg

>  <m_score__min__energy>  (66) 
-12.27

>  <m_primary>  (66) 
energy

$$$$
66:0
     RDKit          3D

 47 50  0  0  0  0  0  0  0  0999 V2000
   55.4188   28.8042   43.7640 H   0  0  0  0  0  0  0  0  0  0  0  0
   56.0250   29.7220   43.7500 C   0  0  0  0  0  0  0  0  0  0  0  0
   56.2220   30.4830   44.8610 N   0  0  0  0  0  0  0  0  0  0  0  0
   56.9940   31.5610   44.6030 C   0  0  0  0  0  0  0  0  0  0  0  0
   57.2790   32.4360   45.5250 N   0  0  0  0  0  0  0  0  0  0  0  0
   57.5530   33.8340   45.3540 C   0  0  0  0  0  0  0  0  0  0  0  0
   56.6580   34.6390   44.9790 O   0  0  0  0  0  0  0  0  0  0  0  0
   58.9160   34.3500   45.6670 C   0  0  0  0  0  0  0  0  0  0  0  0
   58.9865   35.4066   45.3694 H   0  0  0  0  0  0  0  0  0  0  0  0
   59.6675   33.7658   45.1157 H   0  0  0  0  0  0  0  0  0  0  0  0
   59.2180   34.2000   47.4580 S   0  0  0  0  0  0  0  0  0  0  0  0
   60.0020   32.5950   47.3140 C   0  0  0  0  0  0  0  0  0  0  0  0
   59.3870   31.4990   46.9550 O   0  0  0  0  0  0  0  0  0  0  0  0
   60.2830   30.5340   46.9680 C   0  0  0  0  0  0  0  0  0  0  0  0
   59.9770   29.1280   46.6350 C   0  0  0  0  0  0  0  0  0  0  0  0
   59.3900   28.7940   45.4000 C   0  0  0  0  0  0  0  0  0  0  0  0
   59.1379   29.5872   44.6807 H   0  0  0  0  0  0  0  0  0  0  0  0
   59.1260   27.4570   45.0840 C   0  0  0  0  0  0  0  0  0  0  0  0
   58.6692   27.2011   44.1166 H   0  0  0  0  0  0  0  0  0  0  0  0
   59.4420   26.4460   45.9960 C   0  0  0  0  0  0  0  0  0  0  0  0
   59.1890   25.1500   45.6850 F   0  0  0  0  0  0  0  0  0  0  0  0
   60.0200   26.7700   47.2270 C   0  0  0  0  0  0  0  0  0  0  0  0
   60.2679   25.9730   47.9435 H   0  0  0  0  0  0  0  0  0  0  0  0
   60.2840   28.1060   47.5500 C   0  0  0  0  0  0  0  0  0  0  0  0
   60.7329   28.3569   48.5224 H   0  0  0  0  0  0  0  0  0  0  0  0
   61.5110   30.9690   47.3300 N   0  0  0  0  0  0  0  0  0  0  0  0
   61.3190   32.2830   47.5480 C   0  0  0  0  0  0  0  0  0  0  0  0
   62.5940   33.3890   48.0330 S   0  0  0  0  0  0  0  0  0  0  0  0
   61.9710   34.6150   48.6460 O   0  0  0  0  0  0  0  0  0  0  0  0
   63.3870   33.8020   46.8260 O   0  0  0  0  0  0  0  0  0  0  0  0
   63.6670   32.5910   49.1850 C   0  0  0  0  0  0  0  0  0  0  0  0
   64.9830   33.0450   49.3740 C   0  0  0  0  0  0  0  0  0  0  0  0
   65.3600   33.8934   48.7840 H   0  0  0  0  0  0  0  0  0  0  0  0
   65.8160   32.4220   50.3100 C   0  0  0  0  0  0  0  0  0  0  0  0
   66.8449   32.7832   50.4544 H   0  0  0  0  0  0  0  0  0  0  0  0
   65.3430   31.3380   51.0650 C   0  0  0  0  0  0  0  0  0  0  0  0
   66.2130   30.6830   52.0970 C   0  0  0  0  0  0  0  0  0  0  0  0
   65.8557   30.9520   53.1020 H   0  0  0  0  0  0  0  0  0  0  0  0
   66.1704   29.5909   51.9728 H   0  0  0  0  0  0  0  0  0  0  0  0
   67.2508   31.0259   51.9728 H   0  0  0  0  0  0  0  0  0  0  0  0
   64.0240   30.8910   50.8800 C   0  0  0  0  0  0  0  0  0  0  0  0
   63.6408   30.0514   51.4786 H   0  0  0  0  0  0  0  0  0  0  0  0
   63.1960   31.5100   49.9370 C   0  0  0  0  0  0  0  0  0  0  0  0
   62.1695   31.1445   49.7864 H   0  0  0  0  0  0  0  0  0  0  0  0
   57.4610   31.6090   42.9830 S   0  0  0  0  0  0  0  0  0  0  0  0
   56.6450   30.1880   42.5960 C   0  0  0  0  0  0  0  0  0  0  0  0
   56.6088   29.7122   41.6049 H   0  0  0  0  0  0  0  0  0  0  0  0
  1  2  1  0
  2  3  1  0
  3  4  1  0
  4  5  2  0
  5  6  1  0
  6  7  2  0
  6  8  1  0
  8  9  1  0
  8 10  1  0
  8 11  1  0
 11 12  1  0
 12 13  1  0
 13 14  1  0
 14 15  1  0
 15 16  2  0
 16 17  1  0
 16 18  1  0
 18 19  1  0
 18 20  2  0
 20 21  1  0
 20 22  1  0
 22 23  1  0
 22 24  2  0
 24 25  1  0
 14 26  2  0
 26 27  1  0
 27 28  1  0
 28 29  2  0
 28 30  2  0
 28 31  1  0
 31 32  2  0
 32 33  1  0
 32 34  1  0
 34 35  1  0
 34 36  2  0
 36 37  1  0
 37 38  1  0
 37 39  1  0
 37 40  1  0
 36 41  1  0
 41 42  1  0
 41 43  2  0
 43 44  1  0
  4 45  1  0
 45 46  1  0
 46 47  1  0
 46  2  2  0
 27 12  2  0
 43 31  1  0
 24 15  1  0
M  CHG  1   3  -1
M  END
>  <UniqueID>  (67) 
60

>  <SMILES>  (67) 
Cc1ccc(S(=O)(=O)c2nc(-c3ccc(F)cc3)oc2SCC(=O)/N=c2/[n-]ccs2)cc1

>  <Energy>  (67) 
107.31808036737338

>  <Genealogy>  (67) 
Cc1ccc(S(=O)(=O)c2nc(-c3ccc(F)cc3)oc2SCC(=O)N=c2[n-]ccs2)cc1 (protonated)
Cc1ccc(S(=O)(=O)c2nc(-c3ccc(F)cc3)oc2SCC(=O)/N=c2/[n-]ccs2)cc1 (cis-trans isomerization)
Cc1ccc(S(=O)(=O)c2nc(-c3ccc(F)cc3)oc2SCC(=O)/N=c2/[n-]ccs2)cc1 (3D coordinates assigned)
Cc1ccc(S(=O)(=O)c2nc(-c3ccc(F)cc3)oc2SCC(=O)/N=c2/[n-]ccs2)cc1 (optimized conformer: 107.31808036737338 kcal/mol)

>  <smiles>  (67) 
Cc1ccc(S(=O)(=O)c2nc(-c3ccc(F)cc3)oc2SCC(=O)N=c2[nH]ccs2)cc1

>  <score_type>  (67) 
oracle

>  <origin>  (67) 
adg

>  <m_score__min__energy>  (67) 
-10.77

>  <m_primary>  (67) 
energy

$$$$
67:0
     RDKit          3D

 40 42  0  0  0  0  0  0  0  0999 V2000
   65.9520   32.4000   50.5470 C   0  0  0  0  0  0  0  0  0  0  0  0
   64.6120   33.3980   49.9380 S   0  0  0  0  0  0  0  0  0  0  0  0
   63.9120   34.3050   51.1650 O   0  0  0  0  0  0  0  0  0  0  0  0
   63.4040   32.4370   49.1030 C   0  0  0  0  0  0  0  0  0  0  0  0
   63.1020   32.7190   47.7670 C   0  0  0  0  0  0  0  0  0  0  0  0
   62.1430   31.9620   47.0880 C   0  0  0  0  0  0  0  0  0  0  0  0
   61.4730   30.9090   47.7380 C   0  0  0  0  0  0  0  0  0  0  0  0
   60.4540   30.1030   47.0170 C   0  0  0  0  0  0  0  0  0  0  0  0
   59.1700   29.9240   47.5610 C   0  0  0  0  0  0  0  0  0  0  0  0
   58.2120   29.1640   46.8840 C   0  0  0  0  0  0  0  0  0  0  0  0
   58.5180   28.5750   45.6470 C   0  0  0  0  0  0  0  0  0  0  0  0
   57.5000   27.7260   44.9330 C   0  0  0  0  0  0  0  0  0  0  0  0
   57.3800   26.4140   45.5900 N   0  0  0  0  0  0  0  0  0  0  0  0
   58.4930   25.6300   45.7230 C   0  0  0  0  0  0  0  0  0  0  0  0
   58.4170   24.3960   46.3670 C   0  0  0  0  0  0  0  0  0  0  0  0
   57.1890   23.9850   46.8740 C   0  0  0  0  0  0  0  0  0  0  0  0
   57.0840   22.8770   47.4620 O   0  0  0  0  0  0  0  0  0  0  0  0
   56.1020   24.7850   46.7380 N   0  0  0  0  0  0  0  0  0  0  0  0
   56.1830   25.9860   46.1090 C   0  0  0  0  0  0  0  0  0  0  0  0
   55.1460   26.6960   46.0100 O   0  0  0  0  0  0  0  0  0  0  0  0
   59.8000   28.7460   45.1040 C   0  0  0  0  0  0  0  0  0  0  0  0
   60.7590   29.5050   45.7810 C   0  0  0  0  0  0  0  0  0  0  0  0
   61.7830   30.6330   49.0820 C   0  0  0  0  0  0  0  0  0  0  0  0
   62.7420   31.3920   49.7610 C   0  0  0  0  0  0  0  0  0  0  0  0
   63.0170   31.1120   51.0590 F   0  0  0  0  0  0  0  0  0  0  0  0
   65.9435   32.4064   51.6469 H   0  0  0  0  0  0  0  0  0  0  0  0
   65.8342   31.3678   50.1854 H   0  0  0  0  0  0  0  0  0  0  0  0
   66.9072   32.8085   50.1854 H   0  0  0  0  0  0  0  0  0  0  0  0
   63.5250   33.6330   51.7800 H   0  0  0  0  0  0  0  0  0  0  0  0
   63.6207   33.5390   47.2489 H   0  0  0  0  0  0  0  0  0  0  0  0
   61.9103   32.1911   46.0376 H   0  0  0  0  0  0  0  0  0  0  0  0
   58.9174   30.3857   48.5269 H   0  0  0  0  0  0  0  0  0  0  0  0
   57.2128   29.0267   47.3229 H   0  0  0  0  0  0  0  0  0  0  0  0
   56.5244   28.2336   44.9547 H   0  0  0  0  0  0  0  0  0  0  0  0
   57.8236   27.5775   43.8922 H   0  0  0  0  0  0  0  0  0  0  0  0
   59.4557   25.9760   45.3186 H   0  0  0  0  0  0  0  0  0  0  0  0
   59.3091   23.7611   46.4719 H   0  0  0  0  0  0  0  0  0  0  0  0
   60.0521   28.2802   44.1399 H   0  0  0  0  0  0  0  0  0  0  0  0
   61.7599   29.6356   45.3437 H   0  0  0  0  0  0  0  0  0  0  0  0
   61.2670   29.8134   49.6035 H   0  0  0  0  0  0  0  0  0  0  0  0
  1  2  1  0
  2  3  1  1
  2  4  1  0
  4  5  2  0
  5  6  1  0
  6  7  2  0
  7  8  1  0
  8  9  2  0
  9 10  1  0
 10 11  2  0
 11 12  1  0
 12 13  1  0
 13 14  1  0
 14 15  2  0
 15 16  1  0
 16 17  2  0
 16 18  1  0
 18 19  1  0
 19 20  2  0
 11 21  1  0
 21 22  2  0
  7 23  1  0
 23 24  2  0
 24 25  1  0
 24  4  1  0
 22  8  1  0
 19 13  1  0
  1 26  1  0
  1 27  1  0
  1 28  1  0
  3 29  1  0
  5 30  1  0
  6 31  1  0
  9 32  1  0
 10 33  1  0
 12 34  1  0
 12 35  1  0
 14 36  1  0
 15 37  1  0
 21 38  1  0
 22 39  1  0
 23 40  1  0
M  CHG  2   2   1  18  -1
M  END
>  <UniqueID>  (68) 
61

>  <SMILES>  (68) 
C[S@+](O)c1ccc(-c2ccc(Cn3ccc(=O)[n-]c3=O)cc2)cc1F

>  <Energy>  (68) 
45.62627704192885

>  <Genealogy>  (68) 
C[S+](O)c1ccc(-c2ccc(Cn3ccc(=O)[n-]c3=O)cc2)cc1F (protonated)
C[S@+](O)c1ccc(-c2ccc(Cn3ccc(=O)[n-]c3=O)cc2)cc1F (chirality)
C[S@+](O)c1ccc(-c2ccc(Cn3ccc(=O)[n-]c3=O)cc2)cc1F (3D coordinates assigned)
C[S@+](O)c1ccc(-c2ccc(Cn3ccc(=O)[n-]c3=O)cc2)cc1F (optimized conformer: 45.62627704192885 kcal/mol)

>  <smiles>  (68) 
C[S+]([O-])c1ccc(-c2ccc(Cn3ccc(=O)[nH]c3=O)cc2)cc1F

>  <score_type>  (68) 
oracle

>  <origin>  (68) 
adg

>  <m_score__min__energy>  (68) 
-7.7400000000000002

>  <m_primary>  (68) 
energy

$$$$
68:0
     RDKit          3D

 55 57  0  0  0  0  0  0  0  0999 V2000
   66.8500   32.2810   50.5310 C   0  0  0  0  0  0  0  0  0  0  0  0
   66.1790   32.9160   49.4470 O   0  0  0  0  0  0  0  0  0  0  0  0
   64.7890   33.0890   49.3680 C   0  0  0  0  0  0  0  0  0  0  0  0
   64.1440   32.7520   48.1740 C   0  0  0  0  0  0  0  0  0  0  0  0
   62.7620   32.9080   48.0440 C   0  0  0  0  0  0  0  0  0  0  0  0
   61.9990   33.3960   49.1190 C   0  0  0  0  0  0  0  0  0  0  0  0
   60.5310   33.5930   48.9820 C   0  0  0  0  0  0  0  0  0  0  0  0
   59.9680   33.9910   47.8210 C   0  0  0  0  0  0  0  0  0  0  0  0
   59.2340   33.1090   46.8870 C   0  0  0  0  0  0  0  0  0  0  0  0
   59.5960   31.7620   46.7100 C   0  0  0  0  0  0  0  0  0  0  0  0
   58.8750   30.9470   45.8330 C   0  0  0  0  0  0  0  0  0  0  0  0
   57.7690   31.4580   45.1420 C   0  0  0  0  0  0  0  0  0  0  0  0
   56.8720   30.4380   44.0230 S   0  0  0  0  0  0  0  0  0  0  0  0
   57.6840   28.9210   43.8540 N   0  0  0  0  0  0  0  0  0  0  0  0
   56.7790   31.1130   42.6830 O   0  0  0  0  0  0  0  0  0  0  0  0
   55.4820   30.2070   44.5450 O   0  0  0  0  0  0  0  0  0  0  0  0
   57.3900   32.7940   45.3340 C   0  0  0  0  0  0  0  0  0  0  0  0
   58.1110   33.6100   46.2100 C   0  0  0  0  0  0  0  0  0  0  0  0
   59.6570   33.3390   50.1600 C   0  0  0  0  0  0  0  0  0  0  0  0
   59.1320   34.3170   50.7610 O   0  0  0  0  0  0  0  0  0  0  0  0
   59.3580   31.9660   50.6360 C   0  0  0  0  0  0  0  0  0  0  0  0
   58.0640   31.6430   51.0720 C   0  0  0  0  0  0  0  0  0  0  0  0
   57.7580   30.3520   51.5140 C   0  0  0  0  0  0  0  0  0  0  0  0
   56.4430   30.0860   51.9260 O   0  0  0  0  0  0  0  0  0  0  0  0
   55.5090   31.0790   52.3360 C   0  0  0  0  0  0  0  0  0  0  0  0
   58.7670   29.3700   51.5310 C   0  0  0  0  0  0  0  0  0  0  0  0
   60.0730   29.6860   51.1140 C   0  0  0  0  0  0  0  0  0  0  0  0
   61.1140   28.7440   51.1200 O   0  0  0  0  0  0  0  0  0  0  0  0
   62.4480   29.0190   51.5340 C   0  0  0  0  0  0  0  0  0  0  0  0
   60.3600   30.9830   50.6780 C   0  0  0  0  0  0  0  0  0  0  0  0
   62.6460   33.7440   50.3150 C   0  0  0  0  0  0  0  0  0  0  0  0
   64.0290   33.5890   50.4430 C   0  0  0  0  0  0  0  0  0  0  0  0
   66.4494   32.6601   51.4828 H   0  0  0  0  0  0  0  0  0  0  0  0
   66.6920   31.1939   50.4737 H   0  0  0  0  0  0  0  0  0  0  0  0
   67.9267   32.4986   50.4737 H   0  0  0  0  0  0  0  0  0  0  0  0
   64.7302   32.3605   47.3295 H   0  0  0  0  0  0  0  0  0  0  0  0
   62.2685   32.6478   47.0960 H   0  0  0  0  0  0  0  0  0  0  0  0
   60.0623   35.0526   47.5487 H   0  0  0  0  0  0  0  0  0  0  0  0
   60.4509   31.3476   47.2645 H   0  0  0  0  0  0  0  0  0  0  0  0
   59.1774   29.8998   45.6848 H   0  0  0  0  0  0  0  0  0  0  0  0
   56.9540   28.2060   43.6360 H   0  0  0  0  0  0  0  0  0  0  0  0
   58.2960   28.9940   43.0120 H   0  0  0  0  0  0  0  0  0  0  0  0
   56.5227   33.2011   44.7936 H   0  0  0  0  0  0  0  0  0  0  0  0
   57.7964   34.6518   46.3701 H   0  0  0  0  0  0  0  0  0  0  0  0
   57.2804   32.4150   51.0661 H   0  0  0  0  0  0  0  0  0  0  0  0
   55.4731   31.1172   53.4347 H   0  0  0  0  0  0  0  0  0  0  0  0
   55.8203   32.0589   51.9450 H   0  0  0  0  0  0  0  0  0  0  0  0
   54.5119   30.8282   51.9450 H   0  0  0  0  0  0  0  0  0  0  0  0
   58.5330   28.3507   51.8720 H   0  0  0  0  0  0  0  0  0  0  0  0
   62.4962   29.0289   52.6329 H   0  0  0  0  0  0  0  0  0  0  0  0
   63.1206   28.2406   51.1445 H   0  0  0  0  0  0  0  0  0  0  0  0
   62.7580   29.9999   51.1445 H   0  0  0  0  0  0  0  0  0  0  0  0
   61.3833   31.2366   50.3640 H   0  0  0  0  0  0  0  0  0  0  0  0
   62.0605   34.1414   51.1572 H   0  0  0  0  0  0  0  0  0  0  0  0
   64.5257   33.8585   51.3868 H   0  0  0  0  0  0  0  0  0  0  0  0
  1  2  1  0
  2  3  1  0
  3  4  2  0
  4  5  1  0
  5  6  2  0
  6  7  1  0
  7  8  2  3
  8  9  1  0
  9 10  2  0
 10 11  1  0
 11 12  2  0
 12 13  1  0
 13 14  1  0
 13 15  2  0
 13 16  2  0
 12 17  1  0
 17 18  2  0
  7 19  1  0
 19 20  2  0
 19 21  1  0
 21 22  2  0
 22 23  1  0
 23 24  1  0
 24 25  1  0
 23 26  2  0
 26 27  1  0
 27 28  1  0
 28 29  1  0
 27 30  2  0
  6 31  1  0
 31 32  2  0
 32  3  1  0
 18  9  1  0
 30 21  1  0
  1 33  1  0
  1 34  1  0
  1 35  1  0
  4 36  1  0
  5 37  1  0
  8 38  1  0
 10 39  1  0
 11 40  1  0
 14 41  1  0
 14 42  1  0
 17 43  1  0
 18 44  1  0
 22 45  1  0
 25 46  1  0
 25 47  1  0
 25 48  1  0
 26 49  1  0
 29 50  1  0
 29 51  1  0
 29 52  1  0
 30 53  1  0
 31 54  1  0
 32 55  1  0
M  END
>  <UniqueID>  (69) 
62

>  <SMILES>  (69) 
COc1ccc(C(=Cc2ccc(S(N)(=O)=O)cc2)C(=O)c2cc(OC)cc(OC)c2)cc1

>  <Energy>  (69) 
69.24244748592754

>  <Genealogy>  (69) 
COc1ccc(C(=Cc2ccc(S(N)(=O)=O)cc2)C(=O)c2cc(OC)cc(OC)c2)cc1 (3D coordinates assigned)
COc1ccc(C(=Cc2ccc(S(N)(=O)=O)cc2)C(=O)c2cc(OC)cc(OC)c2)cc1 (optimized conformer: 69.24244748592754 kcal/mol)

>  <smiles>  (69) 
COc1ccc(C(=Cc2ccc(S(N)(=O)=O)cc2)C(=O)c2cc(OC)cc(OC)c2)cc1

>  <score_type>  (69) 
oracle

>  <origin>  (69) 
adg

>  <m_score__min__energy>  (69) 
-9.1500000000000004

>  <m_primary>  (69) 
energy

$$$$
69:0
     RDKit          3D

 49 52  0  0  0  0  0  0  0  0999 V2000
   63.2901   35.3141   51.5131 H   0  0  0  0  0  0  0  0  0  0  0  0
   63.3100   34.5470   50.7250 C   0  0  0  0  0  0  0  0  0  0  0  0
   62.3510   34.5370   49.7650 N   0  0  0  0  0  0  0  0  0  0  0  0
   62.3310   33.6120   48.7640 C   0  0  0  0  0  0  0  0  0  0  0  0
   61.2270   33.6770   47.7830 C   0  0  0  0  0  0  0  0  0  0  0  0
   59.9080   33.4530   48.1930 C   0  0  0  0  0  0  0  0  0  0  0  0
   59.6893   33.2512   49.2520 H   0  0  0  0  0  0  0  0  0  0  0  0
   58.8700   33.4850   47.2620 C   0  0  0  0  0  0  0  0  0  0  0  0
   57.8305   33.3347   47.5887 H   0  0  0  0  0  0  0  0  0  0  0  0
   59.1560   33.7090   45.9110 C   0  0  0  0  0  0  0  0  0  0  0  0
   58.1660   33.7280   45.0590 N   0  0  0  0  0  0  0  0  0  0  0  0
   57.6900   32.6280   44.2710 C   0  0  0  0  0  0  0  0  0  0  0  0
   57.7990   32.6830   42.8780 C   0  0  0  0  0  0  0  0  0  0  0  0
   58.2614   33.5581   42.3980 H   0  0  0  0  0  0  0  0  0  0  0  0
   57.3220   31.6290   42.0940 C   0  0  0  0  0  0  0  0  0  0  0  0
   57.4175   31.6726   40.9990 H   0  0  0  0  0  0  0  0  0  0  0  0
   56.7240   30.5200   42.6980 C   0  0  0  0  0  0  0  0  0  0  0  0
   56.3655   29.6863   42.0764 H   0  0  0  0  0  0  0  0  0  0  0  0
   56.5780   30.4630   44.0900 C   0  0  0  0  0  0  0  0  0  0  0  0
   55.9820   29.3210   44.6520 O   0  0  0  0  0  0  0  0  0  0  0  0
   56.6890   28.2350   45.2560 C   0  0  0  0  0  0  0  0  0  0  0  0
   56.1807   27.9509   46.1892 H   0  0  0  0  0  0  0  0  0  0  0  0
   56.7023   27.3923   44.5492 H   0  0  0  0  0  0  0  0  0  0  0  0
   58.1140   28.6180   45.5690 C   0  0  0  0  0  0  0  0  0  0  0  0
   58.4330   29.2240   46.7950 C   0  0  0  0  0  0  0  0  0  0  0  0
   57.6401   29.4232   47.5310 H   0  0  0  0  0  0  0  0  0  0  0  0
   59.7560   29.5750   47.0830 C   0  0  0  0  0  0  0  0  0  0  0  0
   60.0029   30.0386   48.0495 H   0  0  0  0  0  0  0  0  0  0  0  0
   60.7640   29.3380   46.1460 C   0  0  0  0  0  0  0  0  0  0  0  0
   61.8045   29.6105   46.3766 H   0  0  0  0  0  0  0  0  0  0  0  0
   60.4510   28.7550   44.9160 C   0  0  0  0  0  0  0  0  0  0  0  0
   61.2445   28.5763   44.1755 H   0  0  0  0  0  0  0  0  0  0  0  0
   59.1310   28.3980   44.6240 C   0  0  0  0  0  0  0  0  0  0  0  0
   58.8878   27.9438   43.6521 H   0  0  0  0  0  0  0  0  0  0  0  0
   57.0370   31.5390   44.8710 C   0  0  0  0  0  0  0  0  0  0  0  0
   56.8833   31.5274   45.9601 H   0  0  0  0  0  0  0  0  0  0  0  0
   60.4530   33.9290   45.5260 N   0  0  0  0  0  0  0  0  0  0  0  0
   60.6980   34.1520   44.5370 H   0  0  0  0  0  0  0  0  0  0  0  0
   61.4760   33.9050   46.4230 C   0  0  0  0  0  0  0  0  0  0  0  0
   62.5078   34.0660   46.0774 H   0  0  0  0  0  0  0  0  0  0  0  0
   63.3630   32.6440   48.6920 C   0  0  0  0  0  0  0  0  0  0  0  0
   63.4450   31.6260   47.5850 C   0  0  0  0  0  0  0  0  0  0  0  0
   63.5262   30.6184   48.0187 H   0  0  0  0  0  0  0  0  0  0  0  0
   62.5391   31.6860   46.9639 H   0  0  0  0  0  0  0  0  0  0  0  0
   64.3296   31.8302   46.9639 H   0  0  0  0  0  0  0  0  0  0  0  0
   64.3430   32.6340   49.6970 C   0  0  0  0  0  0  0  0  0  0  0  0
   65.1338   31.8695   49.6819 H   0  0  0  0  0  0  0  0  0  0  0  0
   64.3200   33.5870   50.7140 C   0  0  0  0  0  0  0  0  0  0  0  0
   65.0905   33.5813   51.4991 H   0  0  0  0  0  0  0  0  0  0  0  0
  1  2  1  0
  2  3  2  0
  3  4  1  0
  4  5  1  0
  5  6  1  0
  6  7  1  0
  6  8  2  0
  8  9  1  0
  8 10  1  0
 10 11  2  0
 11 12  1  0
 12 13  2  0
 13 14  1  0
 13 15  1  0
 15 16  1  0
 15 17  2  0
 17 18  1  0
 17 19  1  0
 19 20  1  0
 20 21  1  0
 21 22  1  0
 21 23  1  0
 21 24  1  0
 24 25  2  0
 25 26  1  0
 25 27  1  0
 27 28  1  0
 27 29  2  0
 29 30  1  0
 29 31  1  0
 31 32  1  0
 31 33  2  0
 33 34  1  0
 19 35  2  0
 35 36  1  0
 10 37  1  0
 37 38  1  0
 37 39  1  0
 39 40  1  0
  4 41  2  0
 41 42  1  0
 42 43  1  0
 42 44  1  0
 42 45  1  0
 41 46  1  0
 46 47  1  0
 46 48  2  0
 48 49  1  0
 48  2  1  0
 39  5  2  0
 35 12  1  0
 33 24  1  0
M  END
>  <UniqueID>  (70) 
63

>  <SMILES>  (70) 
Cc1cccnc1-c1cc/c(=N/c2cccc(OCc3ccccc3)c2)[nH]c1

>  <Energy>  (70) 
67.47307282213664

>  <Genealogy>  (70) 
Cc1cccnc1-c1cc/c(=N/c2cccc(OCc3ccccc3)c2)[nH]c1 (cis-trans isomerization)
Cc1cccnc1-c1cc/c(=N/c2cccc(OCc3ccccc3)c2)[nH]c1 (3D coordinates assigned)
Cc1cccnc1-c1cc/c(=N/c2cccc(OCc3ccccc3)c2)[nH]c1 (optimized conformer: 67.47307282213664 kcal/mol)

>  <smiles>  (70) 
Cc1cccnc1-c1ccc(=Nc2cccc(OCc3ccccc3)c2)[nH]c1

>  <score_type>  (70) 
oracle

>  <origin>  (70) 
adg

>  <m_score__min__energy>  (70) 
-8.6799999999999997

>  <m_primary>  (70) 
energy

$$$$
70:0
     RDKit          3D

 38 41  0  0  0  0  0  0  0  0999 V2000
   59.9074   33.0564   50.6304 H   0  0  0  0  0  0  0  0  0  0  0  0
   59.6090   33.2630   49.5920 C   0  0  0  0  0  0  0  0  0  0  0  0
   60.2750   34.2470   48.8560 C   0  0  0  0  0  0  0  0  0  0  0  0
   61.0991   34.8128   49.3150 H   0  0  0  0  0  0  0  0  0  0  0  0
   59.8950   34.5130   47.5370 C   0  0  0  0  0  0  0  0  0  0  0  0
   60.4198   35.2890   46.9605 H   0  0  0  0  0  0  0  0  0  0  0  0
   58.8470   33.7930   46.9480 C   0  0  0  0  0  0  0  0  0  0  0  0
   58.3770   34.1360   45.2860 S   0  0  0  0  0  0  0  0  0  0  0  0
   59.2340   35.2250   44.7010 O   0  0  0  0  0  0  0  0  0  0  0  0
   56.9440   34.5860   45.2690 O   0  0  0  0  0  0  0  0  0  0  0  0
   58.5370   32.7060   44.3190 N   0  0  0  0  0  0  0  0  0  0  0  0
   57.8670   31.4640   44.5670 C   0  0  0  0  0  0  0  0  0  0  0  0
   56.6320   31.2270   43.9260 C   0  0  0  0  0  0  0  0  0  0  0  0
   56.2103   31.9939   43.2596 H   0  0  0  0  0  0  0  0  0  0  0  0
   55.9340   30.0240   44.1280 C   0  0  0  0  0  0  0  0  0  0  0  0
   54.9720   29.8435   43.6260 H   0  0  0  0  0  0  0  0  0  0  0  0
   56.4830   29.0640   44.9760 C   0  0  0  0  0  0  0  0  0  0  0  0
   55.9110   27.8620   45.2450 N   0  0  0  0  0  0  0  0  0  0  0  0
   56.6780   27.1390   46.0970 C   0  0  0  0  0  0  0  0  0  0  0  0
   56.3260   25.9480   46.4850 N   0  0  0  0  0  0  0  0  0  0  0  0
   55.5880   24.9590   45.7430 C   0  0  0  0  0  0  0  0  0  0  0  0
   54.3610   24.7680   45.9580 O   0  0  0  0  0  0  0  0  0  0  0  0
   56.2640   24.1250   44.6880 C   0  0  0  0  0  0  0  0  0  0  0  0
   55.3940   23.4758   44.5098 H   0  0  0  0  0  0  0  0  0  0  0  0
   57.7570   23.9140   44.8900 C   0  0  0  0  0  0  0  0  0  0  0  0
   58.2562   24.3306   45.7773 H   0  0  0  0  0  0  0  0  0  0  0  0
   58.4203   23.0373   44.9283 H   0  0  0  0  0  0  0  0  0  0  0  0
   57.2620   24.8420   43.7890 C   0  0  0  0  0  0  0  0  0  0  0  0
   57.4032   25.9290   43.8809 H   0  0  0  0  0  0  0  0  0  0  0  0
   57.4191   24.9137   42.7026 H   0  0  0  0  0  0  0  0  0  0  0  0
   58.0930   27.9680   46.5470 S   0  0  0  0  0  0  0  0  0  0  0  0
   57.6930   29.2990   45.6070 C   0  0  0  0  0  0  0  0  0  0  0  0
   58.4070   30.4800   45.4250 C   0  0  0  0  0  0  0  0  0  0  0  0
   59.3673   30.6430   45.9362 H   0  0  0  0  0  0  0  0  0  0  0  0
   58.1820   32.8030   47.6880 C   0  0  0  0  0  0  0  0  0  0  0  0
   57.3606   32.2328   47.2295 H   0  0  0  0  0  0  0  0  0  0  0  0
   58.5630   32.5410   49.0080 C   0  0  0  0  0  0  0  0  0  0  0  0
   58.0395   31.7663   49.5875 H   0  0  0  0  0  0  0  0  0  0  0  0
  1  2  1  0
  2  3  2  0
  3  4  1  0
  3  5  1  0
  5  6  1  0
  5  7  2  0
  7  8  1  0
  8  9  2  0
  8 10  2  0
  8 11  1  0
 11 12  1  0
 12 13  2  0
 13 14  1  0
 13 15  1  0
 15 16  1  0
 15 17  2  0
 17 18  1  0
 18 19  1  0
 19 20  2  0
 20 21  1  0
 21 22  2  0
 21 23  1  0
 23 24  1  0
 23 25  1  0
 25 26  1  0
 25 27  1  0
 25 28  1  0
 28 29  1  0
 28 30  1  0
 19 31  1  0
 31 32  1  0
 32 33  2  0
 33 34  1  0
  7 35  1  0
 35 36  1  0
 35 37  2  0
 37 38  1  0
 37  2  1  0
 33 12  1  0
 32 17  1  0
 28 23  1  0
M  CHG  2  11  -1  18  -1
M  END
>  <UniqueID>  (71) 
64

>  <SMILES>  (71) 
O=C(/N=c1/[n-]c2ccc([N-]S(=O)(=O)c3ccccc3)cc2s1)C1CC1

>  <Energy>  (71) 
347.00224006557136

>  <Genealogy>  (71) 
O=C(N=c1[n-]c2ccc([N-]S(=O)(=O)c3ccccc3)cc2s1)C1CC1 (protonated)
O=C(/N=c1/[n-]c2ccc([N-]S(=O)(=O)c3ccccc3)cc2s1)C1CC1 (cis-trans isomerization)
O=C(/N=c1/[n-]c2ccc([N-]S(=O)(=O)c3ccccc3)cc2s1)C1CC1 (3D coordinates assigned)
O=C(/N=c1/[n-]c2ccc([N-]S(=O)(=O)c3ccccc3)cc2s1)C1CC1 (nonaromatic ring conformer: 347.00224006557136 kcal/mol)

>  <smiles>  (71) 
O=C(N=c1[nH]c2ccc(NS(=O)(=O)c3ccccc3)cc2s1)C1CC1

>  <score_type>  (71) 
oracle

>  <origin>  (71) 
adg

>  <m_score__min__energy>  (71) 
-11.44

>  <m_primary>  (71) 
energy

$$$$
71:0
     RDKit          3D

 31 32  0  0  0  0  0  0  0  0999 V2000
   59.4304   34.5507   46.2921 H   0  0  0  0  0  0  0  0  0  0  0  0
   58.7930   33.6850   46.0590 C   0  0  0  0  0  0  0  0  0  0  0  0
   57.7280   33.5620   44.7620 S   0  0  0  0  0  0  0  0  0  0  0  0
   57.2450   32.0100   45.1770 C   0  0  0  0  0  0  0  0  0  0  0  0
   56.3750   31.3230   44.4980 N   0  0  0  0  0  0  0  0  0  0  0  0
   56.2400   29.8940   44.4980 C   0  0  0  0  0  0  0  0  0  0  0  0
   55.1520   29.3400   44.8180 O   0  0  0  0  0  0  0  0  0  0  0  0
   57.4260   29.0470   44.1620 C   0  0  0  0  0  0  0  0  0  0  0  0
   58.3018   29.6933   44.0031 H   0  0  0  0  0  0  0  0  0  0  0  0
   57.2131   28.4749   43.2469 H   0  0  0  0  0  0  0  0  0  0  0  0
   57.7110   28.0900   45.2870 C   0  0  0  0  0  0  0  0  0  0  0  0
   58.8790   28.2240   46.0520 C   0  0  0  0  0  0  0  0  0  0  0  0
   59.6041   29.0156   45.8119 H   0  0  0  0  0  0  0  0  0  0  0  0
   59.1240   27.3550   47.1180 C   0  0  0  0  0  0  0  0  0  0  0  0
   60.0447   27.4608   47.7106 H   0  0  0  0  0  0  0  0  0  0  0  0
   58.2050   26.3530   47.4340 C   0  0  0  0  0  0  0  0  0  0  0  0
   58.4062   25.6689   48.2716 H   0  0  0  0  0  0  0  0  0  0  0  0
   57.0210   26.2150   46.6840 C   0  0  0  0  0  0  0  0  0  0  0  0
   56.0630   25.2300   46.9660 O   0  0  0  0  0  0  0  0  0  0  0  0
   55.4450   24.4050   45.9840 C   0  0  0  0  0  0  0  0  0  0  0  0
   54.8570   23.6200   46.4820 H   0  0  0  0  0  0  0  0  0  0  0  0
   54.7814   25.0173   45.3556 H   0  0  0  0  0  0  0  0  0  0  0  0
   56.2191   23.9403   45.3556 H   0  0  0  0  0  0  0  0  0  0  0  0
   56.7820   27.0900   45.6170 C   0  0  0  0  0  0  0  0  0  0  0  0
   55.8562   26.9929   45.0309 H   0  0  0  0  0  0  0  0  0  0  0  0
   57.8720   31.5630   46.2880 N   0  0  0  0  0  0  0  0  0  0  0  0
   58.7260   32.4980   46.7860 C   0  0  0  0  0  0  0  0  0  0  0  0
   59.5710   32.2340   47.9870 C   0  0  0  0  0  0  0  0  0  0  0  0
   58.9818   32.4181   48.8975 H   0  0  0  0  0  0  0  0  0  0  0  0
   59.9092   31.1874   47.9745 H   0  0  0  0  0  0  0  0  0  0  0  0
   60.4449   32.9019   47.9745 H   0  0  0  0  0  0  0  0  0  0  0  0
  1  2  1  0
  2  3  1  0
  3  4  1  0
  4  5  2  0
  5  6  1  0
  6  7  2  0
  6  8  1  0
  8  9  1  0
  8 10  1  0
  8 11  1  0
 11 12  2  0
 12 13  1  0
 12 14  1  0
 14 15  1  0
 14 16  2  0
 16 17  1  0
 16 18  1  0
 18 19  1  0
 19 20  1  0
 20 21  1  0
 20 22  1  0
 20 23  1  0
 18 24  2  0
 24 25  1  0
  4 26  1  0
 26 27  1  0
 27 28  1  0
 28 29  1  0
 28 30  1  0
 28 31  1  0
 27  2  2  0
 24 11  1  0
M  CHG  1  26  -1
M  END
>  <UniqueID>  (72) 
65

>  <SMILES>  (72) 
COc1cccc(CC(=O)/N=c2\[n-]c(C)cs2)c1

>  <Energy>  (72) 
58.65728315461132

>  <Genealogy>  (72) 
COc1cccc(CC(=O)N=c2[n-]c(C)cs2)c1 (protonated)
COc1cccc(CC(=O)/N=c2\[n-]c(C)cs2)c1 (cis-trans isomerization)
COc1cccc(CC(=O)/N=c2\[n-]c(C)cs2)c1 (3D coordinates assigned)
COc1cccc(CC(=O)/N=c2\[n-]c(C)cs2)c1 (optimized conformer: 58.65728315461132 kcal/mol)

>  <smiles>  (72) 
COc1cccc(CC(=O)N=c2[nH]c(C)cs2)c1

>  <score_type>  (72) 
oracle

>  <origin>  (72) 
adg

>  <m_score__min__energy>  (72) 
-8.5099999999999998

>  <m_primary>  (72) 
energy

$$$$
72:0
     RDKit          3D

 61 64  0  0  0  0  0  0  0  0999 V2000
   64.1920   32.6740   53.0590 C   0  0  0  0  0  0  0  0  0  0  0  0
   63.9690   32.6420   51.5700 C   0  0  0  0  0  0  0  0  0  0  0  0
   65.0190   32.2690   50.7290 C   0  0  0  0  0  0  0  0  0  0  0  0
   64.8760   32.3520   49.3390 C   0  0  0  0  0  0  0  0  0  0  0  0
   63.6720   32.8000   48.7760 C   0  0  0  0  0  0  0  0  0  0  0  0
   63.5920   32.9870   47.4320 N   0  0  0  0  0  0  0  0  0  0  0  0
   62.4720   33.4600   46.8550 C   0  0  0  0  0  0  0  0  0  0  0  0
   61.3220   33.7110   47.6120 C   0  0  0  0  0  0  0  0  0  0  0  0
   59.8870   34.2840   46.7390 S   0  0  0  0  0  0  0  0  0  0  0  0
   58.7790   34.5520   47.7110 O   0  0  0  0  0  0  0  0  0  0  0  0
   60.1520   35.5410   45.9830 O   0  0  0  0  0  0  0  0  0  0  0  0
   59.3600   33.0390   45.5440 C   0  0  0  0  0  0  0  0  0  0  0  0
   57.9230   33.2690   45.0860 C   0  0  0  0  0  0  0  0  0  0  0  0
   57.3750   32.0300   44.4120 C   0  0  0  0  0  0  0  0  0  0  0  0
   57.4720   31.9390   43.1480 O   0  0  0  0  0  0  0  0  0  0  0  0
   57.0170   30.8700   45.1660 N   0  0  0  0  0  0  0  0  0  0  0  0
   57.8900   29.8340   45.6290 C   0  0  0  0  0  0  0  0  0  0  0  0
   57.9830   28.5950   44.9690 C   0  0  0  0  0  0  0  0  0  0  0  0
   58.9010   27.6310   45.4040 C   0  0  0  0  0  0  0  0  0  0  0  0
   59.7260   27.9090   46.4810 C   0  0  0  0  0  0  0  0  0  0  0  0
   60.6250   26.9930   46.8930 F   0  0  0  0  0  0  0  0  0  0  0  0
   59.6440   29.1520   47.1220 C   0  0  0  0  0  0  0  0  0  0  0  0
   60.4560   29.4640   48.1010 F   0  0  0  0  0  0  0  0  0  0  0  0
   58.7340   30.1000   46.7000 C   0  0  0  0  0  0  0  0  0  0  0  0
   61.3550   33.4780   49.0170 C   0  0  0  0  0  0  0  0  0  0  0  0
   60.1360   33.1830   49.7230 N   0  0  0  0  0  0  0  0  0  0  0  0
   59.4270   31.9040   49.5510 C   0  0  0  0  0  0  0  0  0  0  0  0
   58.1130   31.8830   50.3640 C   0  0  0  0  0  0  0  0  0  0  0  0
   58.3160   32.3020   51.8470 C   0  0  0  0  0  0  0  0  0  0  0  0
   58.7260   31.1140   52.7310 C   0  0  0  0  0  0  0  0  0  0  0  0
   59.2810   33.5020   51.9930 C   0  0  0  0  0  0  0  0  0  0  0  0
   59.6230   34.1730   50.6720 C   0  0  0  0  0  0  0  0  0  0  0  0
   62.5740   33.1110   49.6090 C   0  0  0  0  0  0  0  0  0  0  0  0
   62.7490   33.0590   51.0130 C   0  0  0  0  0  0  0  0  0  0  0  0
   63.2313   32.5361   53.5767 H   0  0  0  0  0  0  0  0  0  0  0  0
   64.8814   31.8656   53.3440 H   0  0  0  0  0  0  0  0  0  0  0  0
   64.6262   33.6437   53.3440 H   0  0  0  0  0  0  0  0  0  0  0  0
   65.9640   31.9079   51.1610 H   0  0  0  0  0  0  0  0  0  0  0  0
   65.7122   32.0644   48.6848 H   0  0  0  0  0  0  0  0  0  0  0  0
   64.4170   32.7890   46.8180 H   0  0  0  0  0  0  0  0  0  0  0  0
   62.4603   33.6522   45.7720 H   0  0  0  0  0  0  0  0  0  0  0  0
   60.0244   33.0816   44.6683 H   0  0  0  0  0  0  0  0  0  0  0  0
   59.4114   32.0536   46.0302 H   0  0  0  0  0  0  0  0  0  0  0  0
   57.2995   33.5115   45.9592 H   0  0  0  0  0  0  0  0  0  0  0  0
   57.9086   34.1006   44.3661 H   0  0  0  0  0  0  0  0  0  0  0  0
   57.3322   28.3826   44.1080 H   0  0  0  0  0  0  0  0  0  0  0  0
   58.9664   26.6589   44.8933 H   0  0  0  0  0  0  0  0  0  0  0  0
   58.6767   31.0708   47.2141 H   0  0  0  0  0  0  0  0  0  0  0  0
   59.1926   31.7636   48.4855 H   0  0  0  0  0  0  0  0  0  0  0  0
   60.0757   31.0932   49.9141 H   0  0  0  0  0  0  0  0  0  0  0  0
   57.3995   32.5778   49.8969 H   0  0  0  0  0  0  0  0  0  0  0  0
   57.7375   30.8491   50.3602 H   0  0  0  0  0  0  0  0  0  0  0  0
   57.3373   32.6457   52.2131 H   0  0  0  0  0  0  0  0  0  0  0  0
   58.6292   31.3945   53.7902 H   0  0  0  0  0  0  0  0  0  0  0  0
   58.0722   30.2555   52.5178 H   0  0  0  0  0  0  0  0  0  0  0  0
   59.7702   30.8415   52.5178 H   0  0  0  0  0  0  0  0  0  0  0  0
   58.8109   34.2481   52.6505 H   0  0  0  0  0  0  0  0  0  0  0  0
   60.2213   33.1108   52.4088 H   0  0  0  0  0  0  0  0  0  0  0  0
   58.7182   34.6406   50.2565 H   0  0  0  0  0  0  0  0  0  0  0  0
   60.3937   34.9384   50.8458 H   0  0  0  0  0  0  0  0  0  0  0  0
   61.9198   33.3486   51.6753 H   0  0  0  0  0  0  0  0  0  0  0  0
  1  2  1  0
  2  3  2  0
  3  4  1  0
  4  5  2  0
  5  6  1  0
  6  7  2  0
  7  8  1  0
  8  9  1  0
  9 10  2  0
  9 11  2  0
  9 12  1  0
 12 13  1  0
 13 14  1  0
 14 15  2  0
 14 16  1  0
 16 17  1  0
 17 18  2  0
 18 19  1  0
 19 20  2  0
 20 21  1  0
 20 22  1  0
 22 23  1  0
 22 24  2  0
  8 25  2  0
 25 26  1  0
 26 27  1  0
 27 28  1  0
 28 29  1  0
 29 30  1  0
 29 31  1  0
 31 32  1  0
 25 33  1  0
 33 34  2  0
 34  2  1  0
 33  5  1  0
 24 17  1  0
 32 26  1  0
  1 35  1  0
  1 36  1  0
  1 37  1  0
  3 38  1  0
  4 39  1  0
  6 40  1  0
  7 41  1  0
 12 42  1  0
 12 43  1  0
 13 44  1  0
 13 45  1  0
 18 46  1  0
 19 47  1  0
 24 48  1  0
 27 49  1  0
 27 50  1  0
 28 51  1  0
 28 52  1  0
 29 53  1  0
 30 54  1  0
 30 55  1  0
 30 56  1  0
 31 57  1  0
 31 58  1  0
 32 59  1  0
 32 60  1  0
 34 61  1  0
M  CHG  2   6   1  16  -1
M  END
>  <UniqueID>  (73) 
66

>  <SMILES>  (73) 
Cc1ccc2[nH+]cc(S(=O)(=O)CCC(=O)[N-]c3ccc(F)c(F)c3)c(N3CCC(C)CC3)c2c1

>  <Energy>  (73) 
88.83755279250074

>  <Genealogy>  (73) 
Cc1ccc2[nH+]cc(S(=O)(=O)CCC(=O)[N-]c3ccc(F)c(F)c3)c(N3CCC(C)CC3)c2c1 (protonated)
Cc1ccc2[nH+]cc(S(=O)(=O)CCC(=O)[N-]c3ccc(F)c(F)c3)c(N3CCC(C)CC3)c2c1 (3D coordinates assigned)
Cc1ccc2[nH+]cc(S(=O)(=O)CCC(=O)[N-]c3ccc(F)c(F)c3)c(N3CCC(C)CC3)c2c1 (nonaromatic ring conformer: 88.83755279250074 kcal/mol)

>  <smiles>  (73) 
Cc1ccc2ncc(S(=O)(=O)CCC(=O)Nc3ccc(F)c(F)c3)c(N3CCC(C)CC3)c2c1

>  <score_type>  (73) 
oracle

>  <origin>  (73) 
adg

>  <m_score__min__energy>  (73) 
-9.6500000000000004

>  <m_primary>  (73) 
energy

$$$$
73:0
     RDKit          3D

 58 61  0  0  1  0  0  0  0  0999 V2000
   59.8400   25.0390   45.9940 C   0  0  0  0  0  0  0  0  0  0  0  0
   58.6750   25.9430   45.8340 N   0  0  0  0  0  0  0  0  0  0  0  0
   57.4780   25.3770   45.3720 C   0  0  0  0  0  0  0  0  0  0  0  0
   56.2600   25.4600   46.0570 C   0  0  0  0  0  0  0  0  0  0  0  0
   55.1250   24.8090   45.6330 C   0  0  0  0  0  0  0  0  0  0  0  0
   55.0950   24.0320   44.5070 C   0  0  0  0  0  0  0  0  0  0  0  0
   56.2900   23.9310   43.8040 C   0  0  0  0  0  0  0  0  0  0  0  0
   57.4460   24.5880   44.2310 C   0  0  0  0  0  0  0  0  0  0  0  0
   58.9220   27.2830   46.1980 C   0  0  0  0  0  0  0  0  0  0  0  0
   59.6830   27.7020   47.2570 C   0  0  0  0  0  0  0  0  0  0  0  0
   59.8160   29.0490   47.6210 C   0  0  0  0  0  0  0  0  0  0  0  0
   60.6800   29.3550   48.7480 C   0  0  0  0  0  0  0  0  0  0  0  0
   61.0110   28.3480   49.4730 O   0  0  0  0  0  0  0  0  0  0  0  0
   61.1840   30.5990   49.1280 N   0  0  0  0  0  0  0  0  0  0  0  0
   62.0580   31.3070   48.5440 C   0  0  0  0  0  0  0  0  0  0  0  0
   61.8810   31.9270   47.3200 C   0  0  0  0  0  0  0  0  0  0  0  0
   63.0690   32.5750   47.0770 C   0  0  0  0  0  0  0  0  0  0  0  0
   63.8960   32.3310   48.1300 N   0  0  0  0  0  0  0  0  0  0  0  0
   63.2900   31.5650   49.0200 N   0  0  0  0  0  0  0  0  0  0  0  0
   59.1680   30.0450   46.9060 C   0  0  0  0  0  0  0  0  0  0  0  0
   58.3990   29.6380   45.8300 C   0  0  0  0  0  0  0  0  0  0  0  0
   57.7130   30.6840   45.0670 C   0  0  0  0  0  0  0  0  0  0  0  0
   56.4900   30.5070   44.8440 O   0  0  0  0  0  0  0  0  0  0  0  0
   58.3540   31.8480   44.5910 N   0  0  0  0  0  0  0  0  0  0  0  0
   57.7600   32.9040   43.8380 C   0  0  0  0  0  0  0  0  0  0  0  0
   57.3020   33.9980   44.7660 C   0  0  0  0  0  0  0  0  0  0  0  0
   58.1850   34.0790   45.9690 C   0  0  0  0  0  0  0  0  0  0  0  0
   57.9170   33.3370   47.1260 C   0  0  0  0  0  0  0  0  0  0  0  0
   58.7480   33.4110   48.2370 C   0  0  0  0  0  0  0  0  0  0  0  0
   59.8710   34.2240   48.2330 C   0  0  0  0  0  0  0  0  0  0  0  0
   60.6880   34.3070   49.3190 F   0  0  0  0  0  0  0  0  0  0  0  0
   60.0940   34.9360   47.0700 C   0  0  0  0  0  0  0  0  0  0  0  0
   59.3020   34.8850   45.9700 C   0  0  0  0  0  0  0  0  0  0  0  0
   58.2780   28.3140   45.4890 C   0  0  0  0  0  0  0  0  0  0  0  0
   60.0396   24.8841   47.0646 H   0  0  0  0  0  0  0  0  0  0  0  0
   59.6216   24.0717   45.5180 H   0  0  0  0  0  0  0  0  0  0  0  0
   60.7228   25.4908   45.5180 H   0  0  0  0  0  0  0  0  0  0  0  0
   56.2086   26.0702   46.9708 H   0  0  0  0  0  0  0  0  0  0  0  0
   54.2033   24.9174   46.2235 H   0  0  0  0  0  0  0  0  0  0  0  0
   54.1799   23.5180   44.1778 H   0  0  0  0  0  0  0  0  0  0  0  0
   56.3259   23.3195   42.8903 H   0  0  0  0  0  0  0  0  0  0  0  0
   58.3669   24.4757   43.6399 H   0  0  0  0  0  0  0  0  0  0  0  0
   60.2157   26.9445   47.8507 H   0  0  0  0  0  0  0  0  0  0  0  0
   60.9858   31.9061   46.6811 H   0  0  0  0  0  0  0  0  0  0  0  0
   63.3080   33.1815   46.1910 H   0  0  0  0  0  0  0  0  0  0  0  0
   64.8790   32.6940   48.2350 H   0  0  0  0  0  0  0  0  0  0  0  0
   63.6430   31.2080   49.9180 H   0  0  0  0  0  0  0  0  0  0  0  0
   59.2607   31.1061   47.1806 H   0  0  0  0  0  0  0  0  0  0  0  0
   59.3890   31.9560   44.8200 H   0  0  0  0  0  0  0  0  0  0  0  0
   58.4996   33.3099   43.1321 H   0  0  0  0  0  0  0  0  0  0  0  0
   56.8944   32.5122   43.2838 H   0  0  0  0  0  0  0  0  0  0  0  0
   57.3312   34.9593   44.2321 H   0  0  0  0  0  0  0  0  0  0  0  0
   56.2769   33.7737   45.0960 H   0  0  0  0  0  0  0  0  0  0  0  0
   57.0325   32.6837   47.1558 H   0  0  0  0  0  0  0  0  0  0  0  0
   58.5117   32.8165   49.1319 H   0  0  0  0  0  0  0  0  0  0  0  0
   60.9770   35.5910   47.0336 H   0  0  0  0  0  0  0  0  0  0  0  0
   59.5508   35.4850   45.0822 H   0  0  0  0  0  0  0  0  0  0  0  0
   57.6513   28.0476   44.6252 H   0  0  0  0  0  0  0  0  0  0  0  0
  1  2  1  0
  2  3  1  0
  3  4  2  0
  4  5  1  0
  5  6  2  0
  6  7  1  0
  7  8  2  0
  2  9  1  0
  9 10  2  0
 10 11  1  0
 11 12  1  0
 12 13  2  0
 12 14  1  0
 14 15  2  0
 15 16  1  0
 16 17  2  0
 17 18  1  0
 18 19  1  0
 11 20  2  0
 20 21  1  0
 21 22  1  0
 22 23  2  0
 22 24  1  0
 24 25  1  0
 25 26  1  0
 26 27  1  0
 27 28  2  0
 28 29  1  0
 29 30  2  0
 30 31  1  0
 30 32  1  0
 32 33  2  0
 21 34  2  0
  8  3  1  0
 34  9  1  0
 19 15  1  0
 33 27  1  0
  1 35  1  0
  1 36  1  0
  1 37  1  0
  4 38  1  0
  5 39  1  0
  6 40  1  0
  7 41  1  0
  8 42  1  0
 10 43  1  0
 16 44  1  0
 17 45  1  0
 18 46  1  0
 19 47  1  0
 20 48  1  0
 24 49  1  0
 25 50  1  0
 25 51  1  0
 26 52  1  0
 26 53  1  0
 28 54  1  0
 29 55  1  0
 32 56  1  0
 33 57  1  0
 34 58  1  0
M  END
>  <smiles>  (74) 
CN(c1ccccc1)c1cc(C(=O)N=c2cc[nH][nH]2)cc(C(=O)NCCc2ccc(F)cc2)c1

>  <score_type>  (74) 
oracle

>  <origin>  (74) 
adg

>  <m_score__min__energy>  (74) 
-10.25

>  <m_primary>  (74) 
energy

$$$$
74:0
     RDKit          3D

 54 57  0  0  0  0  0  0  0  0999 V2000
   57.9580   30.1930   46.3260 H   0  0  0  0  0  0  0  0  0  0  0  0
   57.2970   29.5550   45.8300 N   0  0  0  0  0  0  0  0  0  0  0  0
   56.5260   29.9760   44.8760 C   0  0  0  0  0  0  0  0  0  0  0  0
   57.0590   30.9090   43.8500 C   0  0  0  0  0  0  0  0  0  0  0  0
   56.6550   30.7650   42.5110 C   0  0  0  0  0  0  0  0  0  0  0  0
   55.9624   29.9562   42.2350 H   0  0  0  0  0  0  0  0  0  0  0  0
   57.1240   31.6380   41.5290 C   0  0  0  0  0  0  0  0  0  0  0  0
   56.8051   31.5103   40.4840 H   0  0  0  0  0  0  0  0  0  0  0  0
   57.9950   32.6710   41.8680 C   0  0  0  0  0  0  0  0  0  0  0  0
   58.3627   33.3568   41.0906 H   0  0  0  0  0  0  0  0  0  0  0  0
   58.4020   32.8370   43.1940 C   0  0  0  0  0  0  0  0  0  0  0  0
   59.0838   33.6592   43.4570 H   0  0  0  0  0  0  0  0  0  0  0  0
   57.9450   31.9580   44.1980 C   0  0  0  0  0  0  0  0  0  0  0  0
   58.3680   32.0800   45.5360 O   0  0  0  0  0  0  0  0  0  0  0  0
   58.2970   33.2650   46.3270 C   0  0  0  0  0  0  0  0  0  0  0  0
   58.0702   34.1220   45.6757 H   0  0  0  0  0  0  0  0  0  0  0  0
   57.5059   33.1424   47.0814 H   0  0  0  0  0  0  0  0  0  0  0  0
   59.6000   33.5080   47.0260 C   0  0  0  0  0  0  0  0  0  0  0  0
   59.8760   34.6720   47.4240 O   0  0  0  0  0  0  0  0  0  0  0  0
   60.5290   32.4300   47.2250 N   0  0  0  0  0  0  0  0  0  0  0  0
   60.3410   31.5220   46.7400 H   0  0  0  0  0  0  0  0  0  0  0  0
   61.7630   32.5730   47.9480 C   0  0  0  0  0  0  0  0  0  0  0  0
   62.6180   33.6530   47.6850 C   0  0  0  0  0  0  0  0  0  0  0  0
   62.3559   34.3753   46.8979 H   0  0  0  0  0  0  0  0  0  0  0  0
   63.7960   33.8210   48.4100 C   0  0  0  0  0  0  0  0  0  0  0  0
   64.4514   34.6788   48.1987 H   0  0  0  0  0  0  0  0  0  0  0  0
   64.1490   32.9030   49.4060 C   0  0  0  0  0  0  0  0  0  0  0  0
   65.3520   33.0610   50.1150 C   0  0  0  0  0  0  0  0  0  0  0  0
   66.0049   33.9204   49.9024 H   0  0  0  0  0  0  0  0  0  0  0  0
   65.7210   32.1310   51.0880 C   0  0  0  0  0  0  0  0  0  0  0  0
   66.6610   32.2629   51.6438 H   0  0  0  0  0  0  0  0  0  0  0  0
   64.9020   31.0350   51.3580 C   0  0  0  0  0  0  0  0  0  0  0  0
   65.2025   30.3009   52.1201 H   0  0  0  0  0  0  0  0  0  0  0  0
   63.7010   30.8660   50.6640 C   0  0  0  0  0  0  0  0  0  0  0  0
   63.0662   29.9932   50.8769 H   0  0  0  0  0  0  0  0  0  0  0  0
   63.2960   31.8050   49.6930 C   0  0  0  0  0  0  0  0  0  0  0  0
   62.0790   31.6670   48.9790 C   0  0  0  0  0  0  0  0  0  0  0  0
   61.1760   30.5850   49.2440 N   0  0  0  0  0  0  0  0  0  0  0  0
   59.7500   30.6970   49.1590 C   0  0  0  0  0  0  0  0  0  0  0  0
   59.1460   30.2560   48.1420 O   0  0  0  0  0  0  0  0  0  0  0  0
   58.9870   31.3090   50.2720 C   0  0  0  0  0  0  0  0  0  0  0  0
   57.9960   30.5730   50.9470 C   0  0  0  0  0  0  0  0  0  0  0  0
   57.7883   29.5351   50.6478 H   0  0  0  0  0  0  0  0  0  0  0  0
   57.2740   31.1500   51.9940 C   0  0  0  0  0  0  0  0  0  0  0  0
   56.4996   30.5669   52.5139 H   0  0  0  0  0  0  0  0  0  0  0  0
   57.5340   32.4670   52.3820 C   0  0  0  0  0  0  0  0  0  0  0  0
   56.9655   32.9198   53.2077 H   0  0  0  0  0  0  0  0  0  0  0  0
   58.5160   33.2080   51.7210 C   0  0  0  0  0  0  0  0  0  0  0  0
   58.7203   34.2446   52.0271 H   0  0  0  0  0  0  0  0  0  0  0  0
   59.2400   32.6350   50.6710 C   0  0  0  0  0  0  0  0  0  0  0  0
   60.0118   33.2238   50.1537 H   0  0  0  0  0  0  0  0  0  0  0  0
   55.1600   29.5490   44.8320 N   0  0  0  0  0  0  0  0  0  0  0  0
   54.7680   28.9380   45.5830 H   0  0  0  0  0  0  0  0  0  0  0  0
   54.5460   29.7840   44.0210 H   0  0  0  0  0  0  0  0  0  0  0  0
  1  2  1  0
  2  3  2  0
  3  4  1  0
  4  5  2  0
  5  6  1  0
  5  7  1  0
  7  8  1  0
  7  9  2  0
  9 10  1  0
  9 11  1  0
 11 12  1  0
 11 13  2  0
 13 14  1  0
 14 15  1  0
 15 16  1  0
 15 17  1  0
 15 18  1  0
 18 19  2  0
 18 20  1  0
 20 21  1  0
 20 22  1  0
 22 23  2  0
 23 24  1  0
 23 25  1  0
 25 26  1  0
 25 27  2  0
 27 28  1  0
 28 29  1  0
 28 30  2  0
 30 31  1  0
 30 32  1  0
 32 33  1  0
 32 34  2  0
 34 35  1  0
 34 36  1  0
 36 37  2  0
 37 38  1  0
 38 39  1  0
 39 40  2  0
 39 41  1  0
 41 42  2  0
 42 43  1  0
 42 44  1  0
 44 45  1  0
 44 46  2  0
 46 47  1  0
 46 48  1  0
 48 49  1  0
 48 50  2  0
 50 51  1  0
  3 52  1  0
 52 53  1  0
 52 54  1  0
 13  4  1  0
 37 22  1  0
 50 41  1  0
 36 27  1  0
M  CHG  1  38  -1
M  END
>  <UniqueID>  (75) 
67

>  <SMILES>  (75) 
[H]/N=C(\N)c1ccccc1OCC(=O)Nc1ccc2ccccc2c1[N-]C(=O)c1ccccc1

>  <Energy>  (75) 
75.50690709143348

>  <Genealogy>  (75) 
N=C(N)c1ccccc1OCC(=O)Nc1ccc2ccccc2c1[N-]C(=O)c1ccccc1 (protonated)
[H]/N=C(\N)c1ccccc1OCC(=O)Nc1ccc2ccccc2c1[N-]C(=O)c1ccccc1 (cis-trans isomerization)
[H]/N=C(\N)c1ccccc1OCC(=O)Nc1ccc2ccccc2c1[N-]C(=O)c1ccccc1 (3D coordinates assigned)
[H]/N=C(\N)c1ccccc1OCC(=O)Nc1ccc2ccccc2c1[N-]C(=O)c1ccccc1 (optimized conformer: 75.50690709143348 kcal/mol)

>  <smiles>  (75) 
N=C(N)c1ccccc1OCC(=O)Nc1ccc2ccccc2c1NC(=O)c1ccccc1

>  <score_type>  (75) 
oracle

>  <origin>  (75) 
adg

>  <m_score__min__energy>  (75) 
-9.8399999999999999

>  <m_primary>  (75) 
energy

$$$$
75:0
     RDKit          3D

 44 45  0  0  0  0  0  0  0  0999 V2000
   57.6690   24.4610   44.4280 C   0  0  0  0  0  0  0  0  0  0  0  0
   58.0320   25.8210   44.9470 C   0  0  0  0  0  0  0  0  0  0  0  0
   59.0510   25.9570   45.8940 C   0  0  0  0  0  0  0  0  0  0  0  0
   59.4100   27.2250   46.3400 C   0  0  0  0  0  0  0  0  0  0  0  0
   58.7660   28.3650   45.8310 C   0  0  0  0  0  0  0  0  0  0  0  0
   59.1390   29.6590   46.2300 O   0  0  0  0  0  0  0  0  0  0  0  0
   60.4810   30.1210   46.3520 C   0  0  0  0  0  0  0  0  0  0  0  0
   60.8050   30.2940   47.8080 C   0  0  0  0  0  0  0  0  0  0  0  0
   61.7340   31.0880   48.1210 O   0  0  0  0  0  0  0  0  0  0  0  0
   60.1410   29.5280   48.8410 N   0  0  0  0  0  0  0  0  0  0  0  0
   60.7660   28.2830   49.3040 C   0  0  0  0  0  0  0  0  0  0  0  0
   58.8800   29.9750   49.4530 C   0  0  0  0  0  0  0  0  0  0  0  0
   58.9370   31.4340   49.7820 C   0  0  0  0  0  0  0  0  0  0  0  0
   59.7140   31.8350   50.6890 O   0  0  0  0  0  0  0  0  0  0  0  0
   58.1400   32.3560   49.0270 N   0  0  0  0  0  0  0  0  0  0  0  0
   58.5360   33.1140   47.8740 C   0  0  0  0  0  0  0  0  0  0  0  0
   59.3040   34.2900   47.9680 C   0  0  0  0  0  0  0  0  0  0  0  0
   59.6660   34.9880   46.8120 C   0  0  0  0  0  0  0  0  0  0  0  0
   59.2560   34.5310   45.5580 C   0  0  0  0  0  0  0  0  0  0  0  0
   59.6160   35.2160   44.4430 F   0  0  0  0  0  0  0  0  0  0  0  0
   58.4700   33.3780   45.4570 C   0  0  0  0  0  0  0  0  0  0  0  0
   57.9440   32.7950   43.8870 Cl  0  0  0  0  0  0  0  0  0  0  0  0
   58.1050   32.6790   46.6140 C   0  0  0  0  0  0  0  0  0  0  0  0
   57.7360   28.1950   44.8790 C   0  0  0  0  0  0  0  0  0  0  0  0
   57.0220   29.3280   44.3420 N   0  0  0  0  0  0  0  0  0  0  0  0
   56.6690   29.3380   43.1450 O   0  0  0  0  0  0  0  0  0  0  0  0
   56.6430   30.3780   45.1460 O   0  0  0  0  0  0  0  0  0  0  0  0
   57.4140   26.9330   44.4550 N   0  0  0  0  0  0  0  0  0  0  0  0
   57.4878   23.7820   45.2742 H   0  0  0  0  0  0  0  0  0  0  0  0
   56.7588   24.5335   43.8146 H   0  0  0  0  0  0  0  0  0  0  0  0
   58.4943   24.0703   43.8146 H   0  0  0  0  0  0  0  0  0  0  0  0
   59.5660   25.0668   46.2843 H   0  0  0  0  0  0  0  0  0  0  0  0
   60.2022   27.3354   47.0951 H   0  0  0  0  0  0  0  0  0  0  0  0
   61.1667   29.3856   45.9059 H   0  0  0  0  0  0  0  0  0  0  0  0
   60.5936   31.0817   45.8283 H   0  0  0  0  0  0  0  0  0  0  0  0
   60.7754   28.2644   50.4038 H   0  0  0  0  0  0  0  0  0  0  0  0
   60.1928   27.4229   48.9276 H   0  0  0  0  0  0  0  0  0  0  0  0
   61.7982   28.2288   48.9276 H   0  0  0  0  0  0  0  0  0  0  0  0
   58.0540   29.7961   48.7489 H   0  0  0  0  0  0  0  0  0  0  0  0
   58.7195   29.4098   50.3829 H   0  0  0  0  0  0  0  0  0  0  0  0
   59.6203   34.6609   48.9541 H   0  0  0  0  0  0  0  0  0  0  0  0
   60.2758   35.9001   46.8907 H   0  0  0  0  0  0  0  0  0  0  0  0
   57.4748   31.7811   46.5330 H   0  0  0  0  0  0  0  0  0  0  0  0
   56.6630   26.8090   43.7400 H   0  0  0  0  0  0  0  0  0  0  0  0
  1  2  1  0
  2  3  2  0
  3  4  1  0
  4  5  2  0
  5  6  1  0
  6  7  1  0
  7  8  1  0
  8  9  2  0
  8 10  1  0
 10 11  1  0
 10 12  1  0
 12 13  1  0
 13 14  2  0
 13 15  1  0
 15 16  1  0
 16 17  2  0
 17 18  1  0
 18 19  2  0
 19 20  1  0
 19 21  1  0
 21 22  1  0
 21 23  2  0
  5 24  1  0
 24 25  1  0
 25 26  2  0
 25 27  1  0
 24 28  2  0
 28  2  1  0
 23 16  1  0
  1 29  1  0
  1 30  1  0
  1 31  1  0
  3 32  1  0
  4 33  1  0
  7 34  1  0
  7 35  1  0
 11 36  1  0
 11 37  1  0
 11 38  1  0
 12 39  1  0
 12 40  1  0
 17 41  1  0
 18 42  1  0
 23 43  1  0
 28 44  1  0
M  CHG  4  15  -1  25   1  27  -1  28   1
M  END
>  <UniqueID>  (76) 
68

>  <SMILES>  (76) 
Cc1ccc(OCC(=O)N(C)CC(=O)[N-]c2ccc(F)c(Cl)c2)c([N+](=O)[O-])[nH+]1

>  <Energy>  (76) 
42.905342902242936

>  <Genealogy>  (76) 
Cc1ccc(OCC(=O)N(C)CC(=O)[N-]c2ccc(F)c(Cl)c2)c([N+](=O)[O-])[nH+]1 (protonated)
Cc1ccc(OCC(=O)N(C)CC(=O)[N-]c2ccc(F)c(Cl)c2)c([N+](=O)[O-])[nH+]1 (3D coordinates assigned)
Cc1ccc(OCC(=O)N(C)CC(=O)[N-]c2ccc(F)c(Cl)c2)c([N+](=O)[O-])[nH+]1 (optimized conformer: 42.905342902242936 kcal/mol)

>  <smiles>  (76) 
Cc1ccc(OCC(=O)N(C)CC(=O)Nc2ccc(F)c(Cl)c2)c([N+](=O)[O-])n1

>  <score_type>  (76) 
oracle

>  <origin>  (76) 
adg

>  <m_score__min__energy>  (76) 
-8.6899999999999995

>  <m_primary>  (76) 
energy

$$$$
76:0
     RDKit          3D

 38 40  0  0  0  0  0  0  0  0999 V2000
   58.0936   21.1300   43.0612 H   0  0  0  0  0  0  0  0  0  0  0  0
   57.5460   21.9040   43.6190 C   0  0  0  0  0  0  0  0  0  0  0  0
   57.8190   22.1140   44.9710 C   0  0  0  0  0  0  0  0  0  0  0  0
   58.5817   21.5045   45.4778 H   0  0  0  0  0  0  0  0  0  0  0  0
   57.1250   23.0980   45.6840 C   0  0  0  0  0  0  0  0  0  0  0  0
   57.3452   23.2587   46.7497 H   0  0  0  0  0  0  0  0  0  0  0  0
   56.1460   23.8840   45.0450 C   0  0  0  0  0  0  0  0  0  0  0  0
   55.4100   24.9270   45.7980 C   0  0  0  0  0  0  0  0  0  0  0  0
   54.1570   24.8370   45.9280 O   0  0  0  0  0  0  0  0  0  0  0  0
   56.1270   26.0340   46.3750 N   0  0  0  0  0  0  0  0  0  0  0  0
   56.6570   27.0410   45.7450 C   0  0  0  0  0  0  0  0  0  0  0  0
   55.8930   28.0530   45.2570 N   0  0  0  0  0  0  0  0  0  0  0  0
   56.4350   29.1110   44.5970 C   0  0  0  0  0  0  0  0  0  0  0  0
   55.5550   30.1280   44.1080 N   0  0  0  0  0  0  0  0  0  0  0  0
   55.6240   30.5260   43.1490 H   0  0  0  0  0  0  0  0  0  0  0  0
   54.7800   30.4750   44.7170 H   0  0  0  0  0  0  0  0  0  0  0  0
   57.8380   29.1720   44.4100 C   0  0  0  0  0  0  0  0  0  0  0  0
   58.4760   30.2920   43.7460 N   0  0  0  0  0  0  0  0  0  0  0  0
   59.5060   30.1410   43.6550 H   0  0  0  0  0  0  0  0  0  0  0  0
   58.1160   30.3640   42.7670 H   0  0  0  0  0  0  0  0  0  0  0  0
   58.2660   31.5200   44.4800 C   0  0  0  0  0  0  0  0  0  0  0  0
   58.4130   31.5520   45.8820 C   0  0  0  0  0  0  0  0  0  0  0  0
   58.6702   30.6309   46.4256 H   0  0  0  0  0  0  0  0  0  0  0  0
   58.2340   32.7470   46.5860 C   0  0  0  0  0  0  0  0  0  0  0  0
   58.3353   32.7595   47.6813 H   0  0  0  0  0  0  0  0  0  0  0  0
   57.9270   33.9240   45.9010 C   0  0  0  0  0  0  0  0  0  0  0  0
   57.7818   34.8617   46.4574 H   0  0  0  0  0  0  0  0  0  0  0  0
   57.8040   33.9120   44.5100 C   0  0  0  0  0  0  0  0  0  0  0  0
   57.5676   34.8415   43.9714 H   0  0  0  0  0  0  0  0  0  0  0  0
   57.9810   32.7200   43.8010 C   0  0  0  0  0  0  0  0  0  0  0  0
   57.8969   32.7197   42.7042 H   0  0  0  0  0  0  0  0  0  0  0  0
   58.6060   28.1050   44.9260 C   0  0  0  0  0  0  0  0  0  0  0  0
   59.8590   28.0920   44.7960 O   0  0  0  0  0  0  0  0  0  0  0  0
   58.0010   27.0780   45.5730 N   0  0  0  0  0  0  0  0  0  0  0  0
   55.8810   23.6610   43.6800 C   0  0  0  0  0  0  0  0  0  0  0  0
   55.1201   24.2662   43.1655 H   0  0  0  0  0  0  0  0  0  0  0  0
   56.5780   22.6760   42.9740 C   0  0  0  0  0  0  0  0  0  0  0  0
   56.3633   22.5089   41.9082 H   0  0  0  0  0  0  0  0  0  0  0  0
  1  2  1  0
  2  3  2  0
  3  4  1  0
  3  5  1  0
  5  6  1  0
  5  7  2  0
  7  8  1  0
  8  9  2  0
  8 10  1  0
 10 11  2  0
 11 12  1  0
 12 13  1  0
 13 14  1  0
 14 15  1  0
 14 16  1  0
 13 17  2  0
 17 18  1  0
 18 19  1  0
 18 20  1  0
 18 21  1  0
 21 22  2  0
 22 23  1  0
 22 24  1  0
 24 25  1  0
 24 26  2  0
 26 27  1  0
 26 28  1  0
 28 29  1  0
 28 30  2  0
 30 31  1  0
 17 32  1  0
 32 33  2  0
 32 34  1  0
  7 35  1  0
 35 36  1  0
 35 37  2  0
 37 38  1  0
 37  2  1  0
 34 11  1  0
 30 21  1  0
M  CHG  3  12  -1  18   1  34  -1
M  END
>  <UniqueID>  (77) 
69

>  <SMILES>  (77) 
Nc1[n-]/c(=N\C(=O)c2ccccc2)[n-]c(=O)c1[NH2+]c1ccccc1

>  <Energy>  (77) 
50.52810744963026

>  <Genealogy>  (77) 
Nc1[n-]c(=NC(=O)c2ccccc2)[n-]c(=O)c1[NH2+]c1ccccc1 (protonated)
Nc1[n-]/c(=N\C(=O)c2ccccc2)[n-]c(=O)c1[NH2+]c1ccccc1 (cis-trans isomerization)
Nc1[n-]/c(=N\C(=O)c2ccccc2)[n-]c(=O)c1[NH2+]c1ccccc1 (3D coordinates assigned)
Nc1[n-]/c(=N\C(=O)c2ccccc2)[n-]c(=O)c1[NH2+]c1ccccc1 (optimized conformer: 50.52810744963026 kcal/mol)

>  <smiles>  (77) 
Nc1[nH]c(=NC(=O)c2ccccc2)[nH]c(=O)c1Nc1ccccc1

>  <score_type>  (77) 
oracle

>  <origin>  (77) 
adg

>  <m_score__min__energy>  (77) 
-10.6

>  <m_primary>  (77) 
energy

$$$$
77:0
     RDKit          3D

 38 39  0  0  0  0  0  0  0  0999 V2000
   56.5250   24.5860   44.6150 C   0  0  0  0  0  0  0  0  0  0  0  0
   55.5910   25.3710   45.9110 S   0  0  0  0  0  0  0  0  0  0  0  0
   56.2660   25.0960   47.2250 O   0  0  0  0  0  0  0  0  0  0  0  0
   54.1950   24.8160   45.9600 O   0  0  0  0  0  0  0  0  0  0  0  0
   55.5420   27.0870   45.6600 N   0  0  0  0  0  0  0  0  0  0  0  0
   56.6520   27.9130   45.2830 C   0  0  0  0  0  0  0  0  0  0  0  0
   57.9150   27.3200   45.1760 C   0  0  0  0  0  0  0  0  0  0  0  0
   59.0250   28.0810   44.8070 C   0  0  0  0  0  0  0  0  0  0  0  0
   58.8860   29.4440   44.5440 C   0  0  0  0  0  0  0  0  0  0  0  0
   57.6280   30.0640   44.6480 C   0  0  0  0  0  0  0  0  0  0  0  0
   57.4800   31.5120   44.3660 C   0  0  0  0  0  0  0  0  0  0  0  0
   57.6760   31.9520   43.2000 O   0  0  0  0  0  0  0  0  0  0  0  0
   57.1180   32.4180   45.4160 N   0  0  0  0  0  0  0  0  0  0  0  0
   57.0470   33.8650   45.2490 C   0  0  0  0  0  0  0  0  0  0  0  0
   58.4380   34.4390   44.9690 C   0  0  0  0  0  0  0  0  0  0  0  0
   59.3370   34.2580   46.1620 C   0  0  0  0  0  0  0  0  0  0  0  0
   60.6680   33.8400   45.9880 C   0  0  0  0  0  0  0  0  0  0  0  0
   61.4940   33.6410   47.0980 C   0  0  0  0  0  0  0  0  0  0  0  0
   60.9960   33.8470   48.3880 C   0  0  0  0  0  0  0  0  0  0  0  0
   59.6690   34.2480   48.5690 C   0  0  0  0  0  0  0  0  0  0  0  0
   58.8400   34.4480   47.4610 C   0  0  0  0  0  0  0  0  0  0  0  0
   56.5130   29.2880   45.0200 C   0  0  0  0  0  0  0  0  0  0  0  0
   57.2955   23.9384   45.0589 H   0  0  0  0  0  0  0  0  0  0  0  0
   55.8505   23.9797   43.9926 H   0  0  0  0  0  0  0  0  0  0  0  0
   57.0062   25.3548   43.9926 H   0  0  0  0  0  0  0  0  0  0  0  0
   58.0337   26.2464   45.3842 H   0  0  0  0  0  0  0  0  0  0  0  0
   60.0129   27.6045   44.7232 H   0  0  0  0  0  0  0  0  0  0  0  0
   59.7656   30.0373   44.2536 H   0  0  0  0  0  0  0  0  0  0  0  0
   56.3814   34.1002   44.4054 H   0  0  0  0  0  0  0  0  0  0  0  0
   56.6564   34.3122   46.1750 H   0  0  0  0  0  0  0  0  0  0  0  0
   58.8761   33.9190   44.1043 H   0  0  0  0  0  0  0  0  0  0  0  0
   58.3415   35.5143   44.7583 H   0  0  0  0  0  0  0  0  0  0  0  0
   61.0608   33.6690   44.9748 H   0  0  0  0  0  0  0  0  0  0  0  0
   62.5371   33.3219   46.9563 H   0  0  0  0  0  0  0  0  0  0  0  0
   61.6482   33.6936   49.2604 H   0  0  0  0  0  0  0  0  0  0  0  0
   59.2766   34.4064   49.5844 H   0  0  0  0  0  0  0  0  0  0  0  0
   57.7941   34.7555   47.6078 H   0  0  0  0  0  0  0  0  0  0  0  0
   55.5239   29.7617   45.1057 H   0  0  0  0  0  0  0  0  0  0  0  0
  1  2  1  0
  2  3  2  0
  2  4  2  0
  2  5  1  0
  5  6  1  0
  6  7  2  0
  7  8  1  0
  8  9  2  0
  9 10  1  0
 10 11  1  0
 11 12  2  0
 11 13  1  0
 13 14  1  0
 14 15  1  0
 15 16  1  0
 16 17  2  0
 17 18  1  0
 18 19  2  0
 19 20  1  0
 20 21  2  0
 10 22  2  0
 22  6  1  0
 21 16  1  0
  1 23  1  0
  1 24  1  0
  1 25  1  0
  7 26  1  0
  8 27  1  0
  9 28  1  0
 14 29  1  0
 14 30  1  0
 15 31  1  0
 15 32  1  0
 17 33  1  0
 18 34  1  0
 19 35  1  0
 20 36  1  0
 21 37  1  0
 22 38  1  0
M  CHG  2   5  -1  13  -1
M  END
>  <UniqueID>  (78) 
70

>  <SMILES>  (78) 
CS(=O)(=O)[N-]c1cccc(C(=O)[N-]CCc2ccccc2)c1

>  <Energy>  (78) 
33.5213196376866

>  <Genealogy>  (78) 
CS(=O)(=O)[N-]c1cccc(C(=O)[N-]CCc2ccccc2)c1 (protonated)
CS(=O)(=O)[N-]c1cccc(C(=O)[N-]CCc2ccccc2)c1 (3D coordinates assigned)
CS(=O)(=O)[N-]c1cccc(C(=O)[N-]CCc2ccccc2)c1 (optimized conformer: 33.5213196376866 kcal/mol)

>  <smiles>  (78) 
CS(=O)(=O)Nc1cccc(C(=O)NCCc2ccccc2)c1

>  <score_type>  (78) 
oracle

>  <origin>  (78) 
adg

>  <m_score__min__energy>  (78) 
-11.4

>  <m_primary>  (78) 
energy

$$$$
78:0
     RDKit          3D

 42 44  0  0  0  0  0  0  0  0999 V2000
   53.5540   24.0920   44.8900 C   0  0  0  0  0  0  0  0  0  0  0  0
   54.3610   22.9210   44.8290 O   0  0  0  0  0  0  0  0  0  0  0  0
   55.7650   22.8690   44.7630 C   0  0  0  0  0  0  0  0  0  0  0  0
   56.3150   21.9440   43.8630 C   0  0  0  0  0  0  0  0  0  0  0  0
   57.6960   21.8080   43.7260 C   0  0  0  0  0  0  0  0  0  0  0  0
   58.5540   22.5860   44.4990 C   0  0  0  0  0  0  0  0  0  0  0  0
   58.0320   23.5120   45.4020 C   0  0  0  0  0  0  0  0  0  0  0  0
   56.6410   23.6860   45.5310 C   0  0  0  0  0  0  0  0  0  0  0  0
   56.1250   24.6570   46.4540 N   0  0  0  0  0  0  0  0  0  0  0  0
   56.0970   26.0780   46.2600 C   0  0  0  0  0  0  0  0  0  0  0  0
   55.0010   26.6350   45.9950 O   0  0  0  0  0  0  0  0  0  0  0  0
   57.2800   26.8830   46.3590 N   0  0  0  0  0  0  0  0  0  0  0  0
   57.4410   28.2080   45.8350 C   0  0  0  0  0  0  0  0  0  0  0  0
   58.5400   29.0110   46.1880 C   0  0  0  0  0  0  0  0  0  0  0  0
   58.6600   30.3050   45.6740 C   0  0  0  0  0  0  0  0  0  0  0  0
   57.7030   30.8000   44.7710 C   0  0  0  0  0  0  0  0  0  0  0  0
   57.7870   32.1300   44.2380 N   0  0  0  0  0  0  0  0  0  0  0  0
   57.7470   33.3490   44.9930 C   0  0  0  0  0  0  0  0  0  0  0  0
   57.0300   34.2950   44.5730 O   0  0  0  0  0  0  0  0  0  0  0  0
   58.5500   33.5460   46.2170 C   0  0  0  0  0  0  0  0  0  0  0  0
   59.6410   34.4320   46.2470 C   0  0  0  0  0  0  0  0  0  0  0  0
   60.3640   34.5910   47.4300 C   0  0  0  0  0  0  0  0  0  0  0  0
   59.9910   33.8830   48.5740 C   0  0  0  0  0  0  0  0  0  0  0  0
   58.8900   33.0270   48.5170 C   0  0  0  0  0  0  0  0  0  0  0  0
   58.1990   32.8820   47.3550 N   0  0  0  0  0  0  0  0  0  0  0  0
   56.6160   29.9950   44.4150 C   0  0  0  0  0  0  0  0  0  0  0  0
   56.4940   28.7010   44.9330 C   0  0  0  0  0  0  0  0  0  0  0  0
   53.3713   24.3570   45.9419 H   0  0  0  0  0  0  0  0  0  0  0  0
   54.0731   24.9216   44.3876 H   0  0  0  0  0  0  0  0  0  0  0  0
   52.5940   23.9023   44.3876 H   0  0  0  0  0  0  0  0  0  0  0  0
   55.6463   21.3161   43.2558 H   0  0  0  0  0  0  0  0  0  0  0  0
   58.1081   21.0853   43.0064 H   0  0  0  0  0  0  0  0  0  0  0  0
   59.6432   22.4703   44.3975 H   0  0  0  0  0  0  0  0  0  0  0  0
   58.7149   24.1131   46.0203 H   0  0  0  0  0  0  0  0  0  0  0  0
   59.3080   28.6193   46.8712 H   0  0  0  0  0  0  0  0  0  0  0  0
   59.5065   30.9386   45.9772 H   0  0  0  0  0  0  0  0  0  0  0  0
   59.9226   34.9955   45.3452 H   0  0  0  0  0  0  0  0  0  0  0  0
   61.2264   35.2731   47.4611 H   0  0  0  0  0  0  0  0  0  0  0  0
   60.5582   33.9984   49.5094 H   0  0  0  0  0  0  0  0  0  0  0  0
   58.5810   32.4690   49.4132 H   0  0  0  0  0  0  0  0  0  0  0  0
   55.8526   30.3815   43.7237 H   0  0  0  0  0  0  0  0  0  0  0  0
   55.6476   28.0678   44.6285 H   0  0  0  0  0  0  0  0  0  0  0  0
  1  2  1  0
  2  3  1  0
  3  4  2  0
  4  5  1  0
  5  6  2  0
  6  7  1  0
  7  8  2  0
  8  9  1  0
  9 10  1  0
 10 11  2  0
 10 12  1  0
 12 13  1  0
 13 14  2  0
 14 15  1  0
 15 16  2  0
 16 17  1  0
 17 18  1  0
 18 19  2  0
 18 20  1  0
 20 21  2  0
 21 22  1  0
 22 23  2  0
 23 24  1  0
 24 25  2  0
 16 26  1  0
 26 27  2  0
  8  3  1  0
 27 13  1  0
 25 20  1  0
  1 28  1  0
  1 29  1  0
  1 30  1  0
  4 31  1  0
  5 32  1  0
  6 33  1  0
  7 34  1  0
 14 35  1  0
 15 36  1  0
 21 37  1  0
 22 38  1  0
 23 39  1  0
 24 40  1  0
 26 41  1  0
 27 42  1  0
M  CHG  3   9  -1  12  -1  17  -1
M  END
>  <UniqueID>  (79) 
71

>  <SMILES>  (79) 
COc1ccccc1[N-]C(=O)[N-]c1ccc([N-]C(=O)c2ccccn2)cc1

>  <Energy>  (79) 
61.46843306538329

>  <Genealogy>  (79) 
COc1ccccc1[N-]C(=O)[N-]c1ccc([N-]C(=O)c2ccccn2)cc1 (protonated)
COc1ccccc1[N-]C(=O)[N-]c1ccc([N-]C(=O)c2ccccn2)cc1 (3D coordinates assigned)
COc1ccccc1[N-]C(=O)[N-]c1ccc([N-]C(=O)c2ccccn2)cc1 (optimized conformer: 61.46843306538329 kcal/mol)

>  <smiles>  (79) 
COc1ccccc1NC(=O)Nc1ccc(NC(=O)c2ccccn2)cc1

>  <score_type>  (79) 
oracle

>  <origin>  (79) 
adg

>  <m_score__min__energy>  (79) 
-12.84

>  <m_primary>  (79) 
energy

$$$$
79:0
     RDKit          3D

 44 46  0  0  0  0  0  0  0  0999 V2000
   58.9450   33.7750   52.1570 C   0  0  0  0  0  0  0  0  0  0  0  0
   59.8260   33.6920   50.9860 N   0  0  0  0  0  0  0  0  0  0  0  0
   60.7480   32.5460   51.0640 C   0  0  0  0  0  0  0  0  0  0  0  0
   61.9800   32.7510   50.2110 C   0  0  0  0  0  0  0  0  0  0  0  0
   63.1760   32.0900   50.5310 C   0  0  0  0  0  0  0  0  0  0  0  0
   64.2930   32.2890   49.7830 N   0  0  0  0  0  0  0  0  0  0  0  0
   64.2940   33.1230   48.7110 C   0  0  0  0  0  0  0  0  0  0  0  0
   63.1320   33.8080   48.3550 C   0  0  0  0  0  0  0  0  0  0  0  0
   61.9640   33.6370   49.1170 C   0  0  0  0  0  0  0  0  0  0  0  0
   60.7720   34.2980   48.7790 O   0  0  0  0  0  0  0  0  0  0  0  0
   59.9470   33.9750   47.6930 C   0  0  0  0  0  0  0  0  0  0  0  0
   60.4020   34.2500   46.3990 C   0  0  0  0  0  0  0  0  0  0  0  0
   59.6160   33.9270   45.2880 C   0  0  0  0  0  0  0  0  0  0  0  0
   58.3610   33.3220   45.4600 C   0  0  0  0  0  0  0  0  0  0  0  0
   57.5330   32.9380   44.2640 C   0  0  0  0  0  0  0  0  0  0  0  0
   57.5650   31.4470   44.0660 C   0  0  0  0  0  0  0  0  0  0  0  0
   56.6420   30.8260   43.2090 C   0  0  0  0  0  0  0  0  0  0  0  0
   56.6480   29.4360   43.0540 C   0  0  0  0  0  0  0  0  0  0  0  0
   57.5690   28.6570   43.7600 C   0  0  0  0  0  0  0  0  0  0  0  0
   58.4840   29.2670   44.6250 C   0  0  0  0  0  0  0  0  0  0  0  0
   58.4790   30.6560   44.7810 C   0  0  0  0  0  0  0  0  0  0  0  0
   57.9170   33.0190   46.7560 C   0  0  0  0  0  0  0  0  0  0  0  0
   58.7030   33.3420   47.8650 C   0  0  0  0  0  0  0  0  0  0  0  0
   59.5487   33.7181   53.0748 H   0  0  0  0  0  0  0  0  0  0  0  0
   58.3973   34.7287   52.1369 H   0  0  0  0  0  0  0  0  0  0  0  0
   58.2288   32.9404   52.1369 H   0  0  0  0  0  0  0  0  0  0  0  0
   60.3610   34.5860   50.8910 H   0  0  0  0  0  0  0  0  0  0  0  0
   59.2280   33.5780   50.1340 H   0  0  0  0  0  0  0  0  0  0  0  0
   61.0590   32.4110   52.1104 H   0  0  0  0  0  0  0  0  0  0  0  0
   60.2187   31.6579   50.6885 H   0  0  0  0  0  0  0  0  0  0  0  0
   63.2094   31.4068   51.3924 H   0  0  0  0  0  0  0  0  0  0  0  0
   65.2132   33.2586   48.1221 H   0  0  0  0  0  0  0  0  0  0  0  0
   63.1302   34.4782   47.4827 H   0  0  0  0  0  0  0  0  0  0  0  0
   61.3843   34.7234   46.2543 H   0  0  0  0  0  0  0  0  0  0  0  0
   59.9830   34.1481   44.2749 H   0  0  0  0  0  0  0  0  0  0  0  0
   56.4936   33.2611   44.4230 H   0  0  0  0  0  0  0  0  0  0  0  0
   57.9462   33.4274   43.3697 H   0  0  0  0  0  0  0  0  0  0  0  0
   55.9111   31.4354   42.6572 H   0  0  0  0  0  0  0  0  0  0  0  0
   55.9273   28.9555   42.3759 H   0  0  0  0  0  0  0  0  0  0  0  0
   57.5745   27.5641   43.6355 H   0  0  0  0  0  0  0  0  0  0  0  0
   59.2073   28.6535   45.1823 H   0  0  0  0  0  0  0  0  0  0  0  0
   59.1947   31.1321   45.4674 H   0  0  0  0  0  0  0  0  0  0  0  0
   56.9450   32.5245   46.8997 H   0  0  0  0  0  0  0  0  0  0  0  0
   58.3472   33.1001   48.8774 H   0  0  0  0  0  0  0  0  0  0  0  0
  1  2  1  0
  2  3  1  0
  3  4  1  0
  4  5  2  0
  5  6  1  0
  6  7  2  0
  7  8  1  0
  8  9  2  0
  9 10  1  0
 10 11  1  0
 11 12  2  0
 12 13  1  0
 13 14  2  0
 14 15  1  0
 15 16  1  0
 16 17  2  0
 17 18  1  0
 18 19  2  0
 19 20  1  0
 20 21  2  0
 14 22  1  0
 22 23  2  0
  9  4  1  0
 23 11  1  0
 21 16  1  0
  1 24  1  0
  1 25  1  0
  1 26  1  0
  2 27  1  0
  2 28  1  0
  3 29  1  0
  3 30  1  0
  5 31  1  0
  7 32  1  0
  8 33  1  0
 12 34  1  0
 13 35  1  0
 15 36  1  0
 15 37  1  0
 17 38  1  0
 18 39  1  0
 19 40  1  0
 20 41  1  0
 21 42  1  0
 22 43  1  0
 23 44  1  0
M  CHG  1   2   1
M  END
>  <UniqueID>  (80) 
72

>  <SMILES>  (80) 
C[NH2+]Cc1cnccc1Oc1ccc(Cc2ccccc2)cc1

>  <Energy>  (80) 
50.94159450950195

>  <Genealogy>  (80) 
C[NH2+]Cc1cnccc1Oc1ccc(Cc2ccccc2)cc1 (protonated)
C[NH2+]Cc1cnccc1Oc1ccc(Cc2ccccc2)cc1 (3D coordinates assigned)
C[NH2+]Cc1cnccc1Oc1ccc(Cc2ccccc2)cc1 (optimized conformer: 50.94159450950195 kcal/mol)

>  <smiles>  (80) 
CNCc1cnccc1Oc1ccc(Cc2ccccc2)cc1

>  <score_type>  (80) 
oracle

>  <origin>  (80) 
adg

>  <m_score__min__energy>  (80) 
-6.0499999999999998

>  <m_primary>  (80) 
energy

$$$$
80:0
     RDKit          3D

 33 35  0  0  0  0  0  0  0  0999 V2000
   55.5460   29.1070   44.8790 O   0  0  0  0  0  0  0  0  0  0  0  0
   56.5960   29.7450   45.1470 C   0  0  0  0  0  0  0  0  0  0  0  0
   56.9170   30.9140   44.3810 N   0  0  0  0  0  0  0  0  0  0  0  0
   57.5990   32.0760   44.8730 C   0  0  0  0  0  0  0  0  0  0  0  0
   57.7640   32.2330   46.2550 C   0  0  0  0  0  0  0  0  0  0  0  0
   58.4160   33.3600   46.7650 C   0  0  0  0  0  0  0  0  0  0  0  0
   58.9200   34.3310   45.8950 C   0  0  0  0  0  0  0  0  0  0  0  0
   59.5500   35.4240   46.3910 F   0  0  0  0  0  0  0  0  0  0  0  0
   58.7850   34.1690   44.5140 C   0  0  0  0  0  0  0  0  0  0  0  0
   58.1360   33.0410   44.0010 C   0  0  0  0  0  0  0  0  0  0  0  0
   57.4390   29.2810   46.2110 N   0  0  0  0  0  0  0  0  0  0  0  0
   58.2620   28.1020   46.1700 C   0  0  0  0  0  0  0  0  0  0  0  0
   59.6620   28.2090   46.2250 C   0  0  0  0  0  0  0  0  0  0  0  0
   60.4630   27.0680   46.1950 C   0  0  0  0  0  0  0  0  0  0  0  0
   59.8840   25.8030   46.0960 C   0  0  0  0  0  0  0  0  0  0  0  0
   58.4900   25.6710   46.0190 C   0  0  0  0  0  0  0  0  0  0  0  0
   57.9060   24.3990   45.9180 C   0  0  0  0  0  0  0  0  0  0  0  0
   56.5190   24.2660   45.8480 C   0  0  0  0  0  0  0  0  0  0  0  0
   55.6980   25.3960   45.8810 C   0  0  0  0  0  0  0  0  0  0  0  0
   54.3150   25.2410   45.8130 O   0  0  0  0  0  0  0  0  0  0  0  0
   56.2680   26.6720   45.9810 C   0  0  0  0  0  0  0  0  0  0  0  0
   57.6670   26.8270   46.0490 C   0  0  0  0  0  0  0  0  0  0  0  0
   57.3787   31.4658   46.9427 H   0  0  0  0  0  0  0  0  0  0  0  0
   58.5324   33.4825   47.8519 H   0  0  0  0  0  0  0  0  0  0  0  0
   59.1894   34.9291   43.8294 H   0  0  0  0  0  0  0  0  0  0  0  0
   58.0452   32.9080   42.9129 H   0  0  0  0  0  0  0  0  0  0  0  0
   60.1304   29.2020   46.2923 H   0  0  0  0  0  0  0  0  0  0  0  0
   61.5573   27.1661   46.2497 H   0  0  0  0  0  0  0  0  0  0  0  0
   60.5220   24.9071   46.0783 H   0  0  0  0  0  0  0  0  0  0  0  0
   58.5442   23.5034   45.8939 H   0  0  0  0  0  0  0  0  0  0  0  0
   56.0691   23.2655   45.7663 H   0  0  0  0  0  0  0  0  0  0  0  0
   53.6900   25.8020   46.3800 H   0  0  0  0  0  0  0  0  0  0  0  0
   55.6186   27.5595   46.0066 H   0  0  0  0  0  0  0  0  0  0  0  0
  1  2  2  0
  2  3  1  0
  3  4  1  0
  4  5  2  0
  5  6  1  0
  6  7  2  0
  7  8  1  0
  7  9  1  0
  9 10  2  0
  2 11  1  0
 11 12  1  0
 12 13  2  0
 13 14  1  0
 14 15  2  0
 15 16  1  0
 16 17  2  0
 17 18  1  0
 18 19  2  0
 19 20  1  0
 19 21  1  0
 21 22  2  0
 10  4  1  0
 22 12  1  0
 22 16  1  0
  5 23  1  0
  6 24  1  0
  9 25  1  0
 10 26  1  0
 13 27  1  0
 14 28  1  0
 15 29  1  0
 17 30  1  0
 18 31  1  0
 20 32  1  0
 21 33  1  0
M  CHG  2   3  -1  11  -1
M  END
>  <UniqueID>  (81) 
73

>  <SMILES>  (81) 
O=C([N-]c1ccc(F)cc1)[N-]c1cccc2ccc(O)cc12

>  <Energy>  (81) 
46.526038660645064

>  <Genealogy>  (81) 
O=C([N-]c1ccc(F)cc1)[N-]c1cccc2ccc(O)cc12 (protonated)
O=C([N-]c1ccc(F)cc1)[N-]c1cccc2ccc(O)cc12 (3D coordinates assigned)
O=C([N-]c1ccc(F)cc1)[N-]c1cccc2ccc(O)cc12 (optimized conformer: 46.526038660645064 kcal/mol)

>  <smiles>  (81) 
O=C(Nc1ccc(F)cc1)Nc1cccc2ccc(O)cc12

>  <score_type>  (81) 
oracle

>  <origin>  (81) 
adg

>  <m_score__min__energy>  (81) 
-10.73

>  <m_primary>  (81) 
energy

$$$$
81:0
     RDKit          3D

 40 43  0  0  1  0  0  0  0  0999 V2000
   57.2210   31.6240   41.1590 F   0  0  0  0  0  0  0  0  0  0  0  0
   57.3970   31.5830   42.4940 C   0  0  0  0  0  0  0  0  0  0  0  0
   57.9470   32.7150   43.0850 C   0  0  0  0  0  0  0  0  0  0  0  0
   58.1680   32.7760   44.4450 C   0  0  0  0  0  0  0  0  0  0  0  0
   58.8600   34.1890   45.2170 Cl  0  0  0  0  0  0  0  0  0  0  0  0
   57.8370   31.7000   45.2150 C   0  0  0  0  0  0  0  0  0  0  0  0
   57.2740   30.5270   44.6540 C   0  0  0  0  0  0  0  0  0  0  0  0
   56.8540   29.5230   45.4510 N   0  0  0  0  0  0  0  0  0  0  0  0
   57.4270   28.5160   45.8620 C   0  0  0  0  0  0  0  0  0  0  0  0
   57.0230   27.3110   45.3410 N   0  0  0  0  0  0  0  0  0  0  0  0
   57.5580   26.1430   45.7000 C   0  0  0  0  0  0  0  0  0  0  0  0
   57.0920   24.9290   45.1200 N   0  0  0  0  0  0  0  0  0  0  0  0
   57.7490   24.0650   44.1510 C   0  0  0  0  0  0  0  0  0  0  0  0
   56.6390   23.6480   43.2040 C   0  0  0  0  0  0  0  0  0  0  0  0
   55.3920   23.6910   44.0380 C   0  0  0  0  0  0  0  0  0  0  0  0
   55.8060   24.2580   45.3790 C   0  0  0  0  0  0  0  0  0  0  0  0
   58.5380   26.1300   46.6110 N   0  0  0  0  0  0  0  0  0  0  0  0
   58.9530   27.2970   47.1370 C   0  0  0  0  0  0  0  0  0  0  0  0
   59.9630   27.2240   48.0690 C   0  0  0  0  0  0  0  0  0  0  0  0
   60.3930   28.4080   48.6120 C   0  0  0  0  0  0  0  0  0  0  0  0
   59.9050   29.6400   48.3040 C   0  0  0  0  0  0  0  0  0  0  0  0
   58.8720   29.6790   47.3470 C   0  0  0  0  0  0  0  0  0  0  0  0
   58.4090   28.5270   46.7780 C   0  0  0  0  0  0  0  0  0  0  0  0
   57.0530   30.4810   43.2560 C   0  0  0  0  0  0  0  0  0  0  0  0
   58.2108   33.5781   42.4561 H   0  0  0  0  0  0  0  0  0  0  0  0
   58.0117   31.7440   46.3001 H   0  0  0  0  0  0  0  0  0  0  0  0
   56.2570   27.2720   44.6250 H   0  0  0  0  0  0  0  0  0  0  0  0
   58.5357   24.6127   43.6115 H   0  0  0  0  0  0  0  0  0  0  0  0
   58.2425   23.2032   44.6242 H   0  0  0  0  0  0  0  0  0  0  0  0
   56.5655   24.3491   42.3595 H   0  0  0  0  0  0  0  0  0  0  0  0
   56.8148   22.6534   42.7683 H   0  0  0  0  0  0  0  0  0  0  0  0
   54.6384   24.3383   43.5656 H   0  0  0  0  0  0  0  0  0  0  0  0
   54.9437   22.6921   44.1441 H   0  0  0  0  0  0  0  0  0  0  0  0
   55.0588   24.9786   45.7430 H   0  0  0  0  0  0  0  0  0  0  0  0
   55.8906   23.4798   46.1519 H   0  0  0  0  0  0  0  0  0  0  0  0
   60.4049   26.2610   48.3647 H   0  0  0  0  0  0  0  0  0  0  0  0
   61.1994   28.3571   49.3585 H   0  0  0  0  0  0  0  0  0  0  0  0
   60.2950   30.5540   48.7756 H   0  0  0  0  0  0  0  0  0  0  0  0
   58.4347   30.6453   47.0556 H   0  0  0  0  0  0  0  0  0  0  0  0
   56.6168   29.5874   42.7857 H   0  0  0  0  0  0  0  0  0  0  0  0
  1  2  1  0
  2  3  2  0
  3  4  1  0
  4  5  1  0
  4  6  2  0
  6  7  1  0
  7  8  1  0
  8  9  2  0
  9 10  1  0
 10 11  1  0
 11 12  1  0
 12 13  1  0
 13 14  1  0
 14 15  1  0
 15 16  1  0
 11 17  2  0
 17 18  1  0
 18 19  2  0
 19 20  1  0
 20 21  2  0
 21 22  1  0
 22 23  2  0
  7 24  2  0
 24  2  1  0
 23  9  1  0
 16 12  1  0
 23 18  1  0
  3 25  1  0
  6 26  1  0
 10 27  1  0
 13 28  1  0
 13 29  1  0
 14 30  1  0
 14 31  1  0
 15 32  1  0
 15 33  1  0
 16 34  1  0
 16 35  1  0
 19 36  1  0
 20 37  1  0
 21 38  1  0
 22 39  1  0
 24 40  1  0
M  END
>  <smiles>  (82) 
Fc1cc(Cl)cc(N=c2[nH]c(N3CCCC3)nc3ccccc23)c1

>  <score_type>  (82) 
oracle

>  <origin>  (82) 
adg

>  <m_score__min__energy>  (82) 
-7.8799999999999999

>  <m_primary>  (82) 
energy

$$$$
82:0
     RDKit          3D

 54 56  0  0  0  0  0  0  0  0999 V2000
   57.5380   23.6980   47.3810 O   0  0  0  0  0  0  0  0  0  0  0  0
   56.8710   24.5580   46.7440 C   0  0  0  0  0  0  0  0  0  0  0  0
   57.5790   25.6440   45.9960 C   0  0  0  0  0  0  0  0  0  0  0  0
   56.6550   26.8540   45.7820 C   0  0  0  0  0  0  0  0  0  0  0  0
   57.4110   28.1950   45.6380 C   0  0  1  0  0  0  0  0  0  0  0  0
   58.5810   28.0560   44.7510 N   0  0  0  0  0  0  0  0  0  0  0  0
   60.0620   28.3130   45.6300 S   0  0  0  0  0  0  0  0  0  0  0  0
   61.0980   28.9210   44.7260 O   0  0  0  0  0  0  0  0  0  0  0  0
   60.5800   26.9900   46.1230 O   0  0  0  0  0  0  0  0  0  0  0  0
   59.7650   29.3630   47.0140 C   0  0  0  0  0  0  0  0  0  0  0  0
   59.5950   30.7420   46.8400 C   0  0  0  0  0  0  0  0  0  0  0  0
   59.2980   31.5580   47.9370 C   0  0  0  0  0  0  0  0  0  0  0  0
   59.1620   31.0040   49.2230 C   0  0  0  0  0  0  0  0  0  0  0  0
   58.8110   31.8650   50.3800 C   0  0  0  0  0  0  0  0  0  0  0  0
   59.5510   33.0330   50.6520 C   0  0  0  0  0  0  0  0  0  0  0  0
   59.2320   33.8330   51.7540 C   0  0  0  0  0  0  0  0  0  0  0  0
   58.1750   33.4790   52.5950 C   0  0  0  0  0  0  0  0  0  0  0  0
   57.4320   32.3250   52.3350 C   0  0  0  0  0  0  0  0  0  0  0  0
   57.7460   31.5210   51.2350 C   0  0  0  0  0  0  0  0  0  0  0  0
   59.3440   29.6200   49.3890 C   0  0  0  0  0  0  0  0  0  0  0  0
   59.6420   28.8070   48.2920 C   0  0  0  0  0  0  0  0  0  0  0  0
   56.4890   29.2690   45.1240 C   0  0  0  0  0  0  0  0  0  0  0  0
   56.9150   30.4430   44.9600 O   0  0  0  0  0  0  0  0  0  0  0  0
   55.1500   28.9870   44.8820 O   0  0  0  0  0  0  0  0  0  0  0  0
   55.4400   24.5120   46.7430 N   0  0  0  0  0  0  0  0  0  0  0  0
   54.6490   24.0110   45.6230 C   0  0  0  0  0  0  0  0  0  0  0  0
   55.4720   23.0870   44.7670 C   0  0  0  0  0  0  0  0  0  0  0  0
   55.8460   23.4760   43.4700 C   0  0  0  0  0  0  0  0  0  0  0  0
   56.5990   22.6150   42.6650 C   0  0  0  0  0  0  0  0  0  0  0  0
   56.9880   21.3640   43.1510 C   0  0  0  0  0  0  0  0  0  0  0  0
   56.6230   20.9690   44.4410 C   0  0  0  0  0  0  0  0  0  0  0  0
   55.8690   21.8270   45.2490 C   0  0  0  0  0  0  0  0  0  0  0  0
   58.4612   25.9616   46.5712 H   0  0  0  0  0  0  0  0  0  0  0  0
   57.8817   25.2543   45.0129 H   0  0  0  0  0  0  0  0  0  0  0  0
   56.0687   26.6857   44.8666 H   0  0  0  0  0  0  0  0  0  0  0  0
   56.0209   26.9367   46.6770 H   0  0  0  0  0  0  0  0  0  0  0  0
   57.7724   28.4865   46.6352 H   0  0  0  0  0  0  0  0  0  0  0  0
   58.6300   27.0710   44.3990 H   0  0  0  0  0  0  0  0  0  0  0  0
   59.6952   31.1849   45.8381 H   0  0  0  0  0  0  0  0  0  0  0  0
   59.1699   32.6410   47.7929 H   0  0  0  0  0  0  0  0  0  0  0  0
   60.3849   33.3174   49.9934 H   0  0  0  0  0  0  0  0  0  0  0  0
   59.8150   34.7430   51.9587 H   0  0  0  0  0  0  0  0  0  0  0  0
   57.9274   34.1088   53.4622 H   0  0  0  0  0  0  0  0  0  0  0  0
   56.5982   32.0482   52.9970 H   0  0  0  0  0  0  0  0  0  0  0  0
   57.1571   30.6135   51.0360 H   0  0  0  0  0  0  0  0  0  0  0  0
   59.2512   29.1735   50.3900 H   0  0  0  0  0  0  0  0  0  0  0  0
   59.7805   27.7250   48.4340 H   0  0  0  0  0  0  0  0  0  0  0  0
   53.7775   23.4638   46.0117 H   0  0  0  0  0  0  0  0  0  0  0  0
   54.3199   24.8636   45.0108 H   0  0  0  0  0  0  0  0  0  0  0  0
   55.5454   24.4619   43.0859 H   0  0  0  0  0  0  0  0  0  0  0  0
   56.8852   22.9229   41.6485 H   0  0  0  0  0  0  0  0  0  0  0  0
   57.5823   20.6892   42.5174 H   0  0  0  0  0  0  0  0  0  0  0  0
   56.9287   19.9831   44.8212 H   0  0  0  0  0  0  0  0  0  0  0  0
   55.5857   21.5148   46.2650 H   0  0  0  0  0  0  0  0  0  0  0  0
  1  2  2  0
  2  3  1  0
  3  4  1  0
  4  5  1  0
  5  6  1  0
  6  7  1  0
  7  8  2  0
  7  9  2  0
  7 10  1  0
 10 11  2  0
 11 12  1  0
 12 13  2  0
 13 14  1  0
 14 15  2  0
 15 16  1  0
 16 17  2  0
 17 18  1  0
 18 19  2  0
 13 20  1  0
 20 21  2  0
  5 22  1  0
 22 23  2  0
 22 24  1  0
  2 25  1  0
 25 26  1  0
 26 27  1  0
 27 28  2  0
 28 29  1  0
 29 30  2  0
 30 31  1  0
 31 32  2  0
 21 10  1  0
 32 27  1  0
 19 14  1  0
  3 33  1  0
  3 34  1  0
  4 35  1  0
  4 36  1  0
  5 37  1  1
  6 38  1  0
 11 39  1  0
 12 40  1  0
 15 41  1  0
 16 42  1  0
 17 43  1  0
 18 44  1  0
 19 45  1  0
 20 46  1  0
 21 47  1  0
 26 48  1  0
 26 49  1  0
 28 50  1  0
 29 51  1  0
 30 52  1  0
 31 53  1  0
 32 54  1  0
M  CHG  2  24  -1  25  -1
M  END
>  <UniqueID>  (83) 
74

>  <SMILES>  (83) 
O=C(CC[C@@H](NS(=O)(=O)c1ccc(-c2ccccc2)cc1)C(=O)[O-])[N-]Cc1ccccc1

>  <Energy>  (83) 
55.11541080587984

>  <Genealogy>  (83) 
O=C(CCC(NS(=O)(=O)c1ccc(-c2ccccc2)cc1)C(=O)[O-])[N-]Cc1ccccc1 (protonated)
O=C(CC[C@@H](NS(=O)(=O)c1ccc(-c2ccccc2)cc1)C(=O)[O-])[N-]Cc1ccccc1 (chirality)
O=C(CC[C@@H](NS(=O)(=O)c1ccc(-c2ccccc2)cc1)C(=O)[O-])[N-]Cc1ccccc1 (3D coordinates assigned)
O=C(CC[C@@H](NS(=O)(=O)c1ccc(-c2ccccc2)cc1)C(=O)[O-])[N-]Cc1ccccc1 (optimized conformer: 55.11541080587984 kcal/mol)

>  <smiles>  (83) 
O=C(CCC(NS(=O)(=O)c1ccc(-c2ccccc2)cc1)C(=O)O)NCc1ccccc1

>  <score_type>  (83) 
oracle

>  <origin>  (83) 
adg

>  <m_score__min__energy>  (83) 
-14.199999999999999

>  <m_primary>  (83) 
energy

$$$$
83:0
     RDKit          3D

 35 37  0  0  0  0  0  0  0  0999 V2000
   57.3860   33.5880   47.3540 O   0  0  0  0  0  0  0  0  0  0  0  0
   58.0430   32.7240   46.7120 C   0  0  0  0  0  0  0  0  0  0  0  0
   57.3680   31.8130   45.8340 N   0  0  0  0  0  0  0  0  0  0  0  0
   57.4590   31.7770   44.4030 C   0  0  0  0  0  0  0  0  0  0  0  0
   58.3680   32.8130   43.4360 S   0  0  0  0  0  0  0  0  0  0  0  0
   57.9000   32.1450   41.9670 C   0  0  0  0  0  0  0  0  0  0  0  0
   57.0200   31.1010   42.2180 C   0  0  0  0  0  0  0  0  0  0  0  0
   56.7640   30.8860   43.5840 C   0  0  0  0  0  0  0  0  0  0  0  0
   55.8530   29.8310   44.0750 C   0  0  0  0  0  0  0  0  0  0  0  0
   54.8240   29.5240   43.4130 O   0  0  0  0  0  0  0  0  0  0  0  0
   56.1150   29.1930   45.3300 N   0  0  0  0  0  0  0  0  0  0  0  0
   56.8260   27.9600   45.5040 C   0  0  0  0  0  0  0  0  0  0  0  0
   58.2070   27.9430   45.2630 C   0  0  0  0  0  0  0  0  0  0  0  0
   58.9370   26.7610   45.4140 C   0  0  0  0  0  0  0  0  0  0  0  0
   58.2900   25.5810   45.7890 C   0  0  0  0  0  0  0  0  0  0  0  0
   56.9090   25.5780   45.9980 C   0  0  0  0  0  0  0  0  0  0  0  0
   56.1700   26.7580   45.8430 C   0  0  0  0  0  0  0  0  0  0  0  0
   54.7880   26.7130   45.9920 O   0  0  0  0  0  0  0  0  0  0  0  0
   59.5210   32.6970   46.8280 C   0  0  0  0  0  0  0  0  0  0  0  0
   60.1480   31.4930   47.2040 C   0  0  0  0  0  0  0  0  0  0  0  0
   61.5350   31.4260   47.3490 C   0  0  0  0  0  0  0  0  0  0  0  0
   62.3180   32.5550   47.1150 C   0  0  0  0  0  0  0  0  0  0  0  0
   61.7170   33.7520   46.7260 C   0  0  0  0  0  0  0  0  0  0  0  0
   60.3260   33.8360   46.5760 C   0  0  0  0  0  0  0  0  0  0  0  0
   59.6670   35.3630   45.9970 Cl  0  0  0  0  0  0  0  0  0  0  0  0
   58.2346   32.4787   40.9737 H   0  0  0  0  0  0  0  0  0  0  0  0
   56.5640   30.4964   41.4202 H   0  0  0  0  0  0  0  0  0  0  0  0
   58.7191   28.8659   44.9531 H   0  0  0  0  0  0  0  0  0  0  0  0
   60.0227   26.7597   45.2373 H   0  0  0  0  0  0  0  0  0  0  0  0
   58.8681   24.6543   45.9197 H   0  0  0  0  0  0  0  0  0  0  0  0
   56.4000   24.6461   46.2852 H   0  0  0  0  0  0  0  0  0  0  0  0
   59.5381   30.5957   47.3854 H   0  0  0  0  0  0  0  0  0  0  0  0
   62.0107   30.4804   47.6485 H   0  0  0  0  0  0  0  0  0  0  0  0
   63.4099   32.5020   47.2371 H   0  0  0  0  0  0  0  0  0  0  0  0
   62.3403   34.6381   46.5352 H   0  0  0  0  0  0  0  0  0  0  0  0
  1  2  2  0
  2  3  1  0
  3  4  1  0
  4  5  1  0
  5  6  1  0
  6  7  2  0
  7  8  1  0
  8  9  1  0
  9 10  2  0
  9 11  1  0
 11 12  1  0
 12 13  2  0
 13 14  1  0
 14 15  2  0
 15 16  1  0
 16 17  2  0
 17 18  1  0
  2 19  1  0
 19 20  2  0
 20 21  1  0
 21 22  2  0
 22 23  1  0
 23 24  2  0
 24 25  1  0
  8  4  2  0
 17 12  1  0
 24 19  1  0
  6 26  1  0
  7 27  1  0
 13 28  1  0
 14 29  1  0
 15 30  1  0
 16 31  1  0
 20 32  1  0
 21 33  1  0
 22 34  1  0
 23 35  1  0
M  CHG  3   3  -1  11  -1  18  -1
M  END
>  <UniqueID>  (84) 
75

>  <SMILES>  (84) 
O=C([N-]c1sccc1C(=O)[N-]c1ccccc1[O-])c1ccccc1Cl

>  <Energy>  (84) 
76.28468556423077

>  <Genealogy>  (84) 
O=C([N-]c1sccc1C(=O)[N-]c1ccccc1[O-])c1ccccc1Cl (protonated)
O=C([N-]c1sccc1C(=O)[N-]c1ccccc1[O-])c1ccccc1Cl (3D coordinates assigned)
O=C([N-]c1sccc1C(=O)[N-]c1ccccc1[O-])c1ccccc1Cl (optimized conformer: 76.28468556423077 kcal/mol)

>  <smiles>  (84) 
O=C(Nc1sccc1C(=O)Nc1ccccc1O)c1ccccc1Cl

>  <score_type>  (84) 
oracle

>  <origin>  (84) 
adg

>  <m_score__min__energy>  (84) 
-16.149999999999999

>  <m_primary>  (84) 
energy

$$$$
84:0
     RDKit          3D

 83 87  0  0  0  0  0  0  0  0999 V2000
   63.3520   31.0136   52.1401 H   0  0  0  0  0  0  0  0  0  0  0  0
   63.7940   31.5210   51.2700 C   0  0  0  0  0  0  0  0  0  0  0  0
   62.9640   32.0280   50.2730 C   0  0  0  0  0  0  0  0  0  0  0  0
   61.8769   31.8750   50.3421 H   0  0  0  0  0  0  0  0  0  0  0  0
   63.4920   32.7260   49.1900 C   0  0  0  0  0  0  0  0  0  0  0  0
   62.6460   33.1160   48.1020 N   0  0  0  0  0  0  0  0  0  0  0  0
   62.7620   34.0610   47.6710 H   0  0  0  0  0  0  0  0  0  0  0  0
   61.6470   32.2120   47.5900 C   0  0  0  0  0  0  0  0  0  0  0  0
   61.7280   30.9720   47.8170 O   0  0  0  0  0  0  0  0  0  0  0  0
   60.4810   32.7110   46.8480 C   0  0  0  0  0  0  0  0  0  0  0  0
   60.3170   34.0980   46.6820 C   0  0  0  0  0  0  0  0  0  0  0  0
   61.0801   34.7892   47.0692 H   0  0  0  0  0  0  0  0  0  0  0  0
   59.1920   34.6020   46.0290 C   0  0  0  0  0  0  0  0  0  0  0  0
   59.0748   35.6878   45.8976 H   0  0  0  0  0  0  0  0  0  0  0  0
   58.2070   33.7260   45.5380 C   0  0  0  0  0  0  0  0  0  0  0  0
   56.9630   34.2920   44.8900 C   0  0  0  0  0  0  0  0  0  0  0  0
   56.2570   34.6132   45.6700 H   0  0  0  0  0  0  0  0  0  0  0  0
   57.2356   35.1547   44.2644 H   0  0  0  0  0  0  0  0  0  0  0  0
   56.4917   33.5197   44.2644 H   0  0  0  0  0  0  0  0  0  0  0  0
   58.3490   32.3430   45.7420 C   0  0  0  0  0  0  0  0  0  0  0  0
   57.2700   31.4620   45.4030 N   0  0  0  0  0  0  0  0  0  0  0  0
   57.5260   30.1670   44.8510 C   0  0  0  0  0  0  0  0  0  0  0  0
   57.8070   30.0590   43.6210 O   0  0  0  0  0  0  0  0  0  0  0  0
   57.5920   28.9750   45.7350 C   0  0  0  0  0  0  0  0  0  0  0  0
   58.6770   28.7960   46.6060 C   0  0  0  0  0  0  0  0  0  0  0  0
   59.4249   29.5931   46.7294 H   0  0  0  0  0  0  0  0  0  0  0  0
   58.8020   27.5970   47.3170 C   0  0  0  0  0  0  0  0  0  0  0  0
   59.9710   27.3740   48.2240 C   0  0  0  0  0  0  0  0  0  0  0  0
   59.6400   27.4372   49.2711 H   0  0  0  0  0  0  0  0  0  0  0  0
   60.3979   26.3782   48.0338 H   0  0  0  0  0  0  0  0  0  0  0  0
   60.7345   28.1427   48.0338 H   0  0  0  0  0  0  0  0  0  0  0  0
   57.8810   26.6070   47.1430 N   0  0  0  0  0  0  0  0  0  0  0  0
   56.8060   26.7520   46.3240 C   0  0  0  0  0  0  0  0  0  0  0  0
   55.9580   25.7790   46.1570 N   0  0  0  0  0  0  0  0  0  0  0  0
   56.3090   24.3730   45.9410 C   0  0  0  0  0  0  0  0  0  0  0  0
   56.8342   23.9894   46.8281 H   0  0  0  0  0  0  0  0  0  0  0  0
   55.0370   23.4940   45.7680 C   0  0  0  0  0  0  0  0  0  0  0  0
   54.6780   23.1779   46.7585 H   0  0  0  0  0  0  0  0  0  0  0  0
   54.2636   24.0845   45.2550 H   0  0  0  0  0  0  0  0  0  0  0  0
   55.3530   22.2510   44.9250 C   0  0  0  0  0  0  0  0  0  0  0  0
   56.1581   21.6847   45.4161 H   0  0  0  0  0  0  0  0  0  0  0  0
   54.4337   21.6520   44.8471 H   0  0  0  0  0  0  0  0  0  0  0  0
   55.7850   22.6030   43.5540 N   0  0  0  0  0  0  0  0  0  0  0  0
   56.4300   21.8520   43.2130 H   0  0  0  0  0  0  0  0  0  0  0  0
   56.4850   23.8950   43.4440 C   0  0  0  0  0  0  0  0  0  0  0  0
   57.1967   23.8390   42.6072 H   0  0  0  0  0  0  0  0  0  0  0  0
   55.7234   24.6716   43.2804 H   0  0  0  0  0  0  0  0  0  0  0  0
   57.2570   24.2650   44.7220 C   0  0  0  0  0  0  0  0  0  0  0  0
   58.0110   23.4895   44.9222 H   0  0  0  0  0  0  0  0  0  0  0  0
   57.7359   25.2431   44.5672 H   0  0  0  0  0  0  0  0  0  0  0  0
   56.6350   27.9460   45.6160 C   0  0  0  0  0  0  0  0  0  0  0  0
   55.7565   28.0821   44.9681 H   0  0  0  0  0  0  0  0  0  0  0  0
   59.5010   31.8360   46.3710 C   0  0  0  0  0  0  0  0  0  0  0  0
   59.6305   30.7499   46.4875 H   0  0  0  0  0  0  0  0  0  0  0  0
   64.8710   32.9700   49.1460 C   0  0  0  0  0  0  0  0  0  0  0  0
   65.2854   33.5998   48.3450 H   0  0  0  0  0  0  0  0  0  0  0  0
   65.7330   32.4200   50.1130 C   0  0  0  0  0  0  0  0  0  0  0  0
   67.1080   32.6730   49.9840 O   0  0  0  0  0  0  0  0  0  0  0  0
   67.8460   33.4860   50.8970 C   0  0  0  0  0  0  0  0  0  0  0  0
   67.5898   33.2038   51.9289 H   0  0  0  0  0  0  0  0  0  0  0  0
   68.9233   33.3366   50.7327 H   0  0  0  0  0  0  0  0  0  0  0  0
   67.5933   34.5439   50.7327 H   0  0  0  0  0  0  0  0  0  0  0  0
   65.1920   31.6510   51.1760 C   0  0  0  0  0  0  0  0  0  0  0  0
   66.0500   31.0090   52.0920 O   0  0  0  0  0  0  0  0  0  0  0  0
   66.3940   29.6210   52.0880 C   0  0  0  0  0  0  0  0  0  0  0  0
   66.4295   29.2577   53.1257 H   0  0  0  0  0  0  0  0  0  0  0  0
   65.6324   29.0764   51.5106 H   0  0  0  0  0  0  0  0  0  0  0  0
   67.7630   29.3860   51.4280 C   0  0  0  0  0  0  0  0  0  0  0  0
   68.0746   30.3047   50.9094 H   0  0  0  0  0  0  0  0  0  0  0  0
   68.4883   29.1202   52.2112 H   0  0  0  0  0  0  0  0  0  0  0  0
   67.6980   28.2800   50.4530 N   0  0  0  0  0  0  0  0  0  0  0  0
   68.9700   27.5600   50.3030 C   0  0  0  0  0  0  0  0  0  0  0  0
   69.6124   28.0726   49.5719 H   0  0  0  0  0  0  0  0  0  0  0  0
   69.5176   27.5190   51.2561 H   0  0  0  0  0  0  0  0  0  0  0  0
   68.6230   26.1640   49.8090 C   0  0  0  0  0  0  0  0  0  0  0  0
   68.7574   26.0952   48.7194 H   0  0  0  0  0  0  0  0  0  0  0  0
   69.2706   25.3954   50.2560 H   0  0  0  0  0  0  0  0  0  0  0  0
   67.1600   25.9650   50.1810 C   0  0  0  0  0  0  0  0  0  0  0  0
   66.5563   25.7826   49.2798 H   0  0  0  0  0  0  0  0  0  0  0  0
   67.0231   25.0963   50.8417 H   0  0  0  0  0  0  0  0  0  0  0  0
   66.7280   27.2600   50.8570 C   0  0  0  0  0  0  0  0  0  0  0  0
   65.7178   27.5433   50.5263 H   0  0  0  0  0  0  0  0  0  0  0  0
   66.6984   27.1485   51.9509 H   0  0  0  0  0  0  0  0  0  0  0  0
  1  2  1  0
  2  3  2  0
  3  4  1  0
  3  5  1  0
  5  6  1  0
  6  7  1  0
  6  8  1  0
  8  9  2  0
  8 10  1  0
 10 11  2  0
 11 12  1  0
 11 13  1  0
 13 14  1  0
 13 15  2  0
 15 16  1  0
 16 17  1  0
 16 18  1  0
 16 19  1  0
 15 20  1  0
 20 21  1  0
 21 22  1  0
 22 23  2  0
 22 24  1  0
 24 25  1  0
 25 26  1  0
 25 27  2  0
 27 28  1  0
 28 29  1  0
 28 30  1  0
 28 31  1  0
 27 32  1  0
 32 33  1  0
 33 34  2  0
 34 35  1  0
 35 36  1  0
 35 37  1  0
 37 38  1  0
 37 39  1  0
 37 40  1  0
 40 41  1  0
 40 42  1  0
 40 43  1  0
 43 44  1  0
 43 45  1  0
 45 46  1  0
 45 47  1  0
 45 48  1  0
 48 49  1  0
 48 50  1  0
 33 51  1  0
 51 52  1  0
 20 53  2  0
 53 54  1  0
  5 55  2  0
 55 56  1  0
 55 57  1  0
 57 58  1  0
 58 59  1  0
 59 60  1  0
 59 61  1  0
 59 62  1  0
 57 63  2  0
 63 64  1  0
 64 65  1  0
 65 66  1  0
 65 67  1  0
 65 68  1  0
 68 69  1  0
 68 70  1  0
 68 71  1  0
 71 72  1  0
 72 73  1  0
 72 74  1  0
 72 75  1  0
 75 76  1  0
 75 77  1  0
 75 78  1  0
 78 79  1  0
 78 80  1  0
 78 81  1  0
 81 82  1  0
 81 83  1  0
 63  2  1  0
 81 71  1  0
 53 10  1  0
 51 24  2  0
 48 35  1  0
M  CHG  2  21  -1  32  -1
M  END
>  <UniqueID>  (85) 
76

>  <SMILES>  (85) 
COc1cc(NC(=O)c2ccc(C)c([N-]C(=O)c3cc(C)[n-]/c(=N\C4CCNCC4)c3)c2)ccc1OCCN1CCCC1

>  <Energy>  (85) 
126.62311464211106

>  <Genealogy>  (85) 
COc1cc(NC(=O)c2ccc(C)c([N-]C(=O)c3cc(C)[n-]c(=NC4CCNCC4)c3)c2)ccc1OCCN1CCCC1 (protonated)
COc1cc(NC(=O)c2ccc(C)c([N-]C(=O)c3cc(C)[n-]/c(=N\C4CCNCC4)c3)c2)ccc1OCCN1CCCC1 (cis-trans isomerization)
COc1cc(NC(=O)c2ccc(C)c([N-]C(=O)c3cc(C)[n-]/c(=N\C4CCNCC4)c3)c2)ccc1OCCN1CCCC1 (3D coordinates assigned)
COc1cc(NC(=O)c2ccc(C)c([N-]C(=O)c3cc(C)[n-]/c(=N\C4CCNCC4)c3)c2)ccc1OCCN1CCCC1 (nonaromatic ring conformer: 126.62311464211106 kcal/mol)

>  <smiles>  (85) 
COc1cc(NC(=O)c2ccc(C)c(NC(=O)c3cc(C)[nH]c(=NC4CCNCC4)c3)c2)ccc1OCCN1CCCC1

>  <score_type>  (85) 
oracle

>  <origin>  (85) 
adg

>  <m_score__min__energy>  (85) 
-13.25

>  <m_primary>  (85) 
energy

$$$$
85:0
     RDKit          3D

 22 23  0  0  0  0  0  0  0  0999 V2000
   55.4723   28.9490   42.2241 H   0  0  0  0  0  0  0  0  0  0  0  0
   55.9850   29.7130   42.8270 C   0  0  0  0  0  0  0  0  0  0  0  0
   56.9910   30.9330   42.2430 S   0  0  0  0  0  0  0  0  0  0  0  0
   57.3310   31.5400   43.7730 C   0  0  0  0  0  0  0  0  0  0  0  0
   58.0760   32.7440   44.0030 N   0  0  0  0  0  0  0  0  0  0  0  0
   58.4680   33.2240   45.1490 C   0  0  0  0  0  0  0  0  0  0  0  0
   58.3270   32.4460   46.2570 N   0  0  0  0  0  0  0  0  0  0  0  0
   58.6970   32.8650   47.4990 C   0  0  0  0  0  0  0  0  0  0  0  0
   58.5150   31.9610   48.6760 C   0  0  0  0  0  0  0  0  0  0  0  0
   58.6315   32.5396   49.6042 H   0  0  0  0  0  0  0  0  0  0  0  0
   57.5093   31.5164   48.6448 H   0  0  0  0  0  0  0  0  0  0  0  0
   59.2703   31.1619   48.6448 H   0  0  0  0  0  0  0  0  0  0  0  0
   59.2330   34.1460   47.6670 C   0  0  0  0  0  0  0  0  0  0  0  0
   59.5408   34.4933   48.6643 H   0  0  0  0  0  0  0  0  0  0  0  0
   59.3730   34.9780   46.5570 C   0  0  0  0  0  0  0  0  0  0  0  0
   59.7872   35.9899   46.6774 H   0  0  0  0  0  0  0  0  0  0  0  0
   58.9880   34.5280   45.2930 C   0  0  0  0  0  0  0  0  0  0  0  0
   59.0891   35.1845   44.4162 H   0  0  0  0  0  0  0  0  0  0  0  0
   56.6540   30.8660   44.7300 N   0  0  0  0  0  0  0  0  0  0  0  0
   56.6480   31.1200   45.7420 H   0  0  0  0  0  0  0  0  0  0  0  0
   55.9210   29.8480   44.2100 C   0  0  0  0  0  0  0  0  0  0  0  0
   55.1480   29.0150   45.0080 O   0  0  0  0  0  0  0  0  0  0  0  0
  1  2  1  0
  2  3  1  0
  3  4  1  0
  4  5  1  0
  5  6  2  0
  6  7  1  0
  7  8  1  0
  8  9  1  0
  9 10  1  0
  9 11  1  0
  9 12  1  0
  8 13  2  0
 13 14  1  0
 13 15  1  0
 15 16  1  0
 15 17  2  0
 17 18  1  0
  4 19  2  0
 19 20  1  0
 19 21  1  0
 21 22  1  0
 21  2  2  0
 17  6  1  0
M  CHG  3   7  -1  19   1  22  -1
M  END
>  <UniqueID>  (86) 
77

>  <SMILES>  (86) 
Cc1ccc/c(=N\c2[nH+]c([O-])cs2)[n-]1

>  <Energy>  (86) 
59.91373627698973

>  <Genealogy>  (86) 
Cc1cccc(=Nc2[nH+]c([O-])cs2)[n-]1 (protonated)
Cc1ccc/c(=N\c2[nH+]c([O-])cs2)[n-]1 (cis-trans isomerization)
Cc1ccc/c(=N\c2[nH+]c([O-])cs2)[n-]1 (3D coordinates assigned)
Cc1ccc/c(=N\c2[nH+]c([O-])cs2)[n-]1 (optimized conformer: 59.91373627698973 kcal/mol)

>  <smiles>  (86) 
Cc1cccc(=Nc2nc(O)cs2)[nH]1

>  <score_type>  (86) 
oracle

>  <origin>  (86) 
adg

>  <m_score__min__energy>  (86) 
-8.5800000000000001

>  <m_primary>  (86) 
energy

$$$$
86:0
     RDKit          3D

 58 61  0  0  0  0  0  0  0  0999 V2000
   62.7060   33.6670   51.3930 O   0  0  0  0  0  0  0  0  0  0  0  0
   61.6510   33.7220   50.7110 C   0  0  0  0  0  0  0  0  0  0  0  0
   60.3800   33.8540   51.3620 N   0  0  0  0  0  0  0  0  0  0  0  0
   59.3970   32.8260   51.5450 C   0  0  0  0  0  0  0  0  0  0  0  0
   59.6190   31.4960   51.1410 C   0  0  0  0  0  0  0  0  0  0  0  0
   58.6210   30.5320   51.3170 C   0  0  0  0  0  0  0  0  0  0  0  0
   57.3940   30.8860   51.8830 C   0  0  0  0  0  0  0  0  0  0  0  0
   56.4260   29.9510   52.0490 F   0  0  0  0  0  0  0  0  0  0  0  0
   57.1580   32.2100   52.2650 C   0  0  0  0  0  0  0  0  0  0  0  0
   58.1530   33.1760   52.0890 C   0  0  0  0  0  0  0  0  0  0  0  0
   61.7100   33.7200   49.2750 N   0  0  0  0  0  0  0  0  0  0  0  0
   62.9640   33.8340   48.5230 C   0  0  0  0  0  0  0  0  0  0  0  0
   62.5840   33.7230   47.0290 C   0  0  0  0  0  0  0  0  0  0  0  0
   61.1040   33.5820   47.0600 C   0  0  0  0  0  0  0  0  0  0  0  0
   60.2390   33.4700   45.9700 C   0  0  0  0  0  0  0  0  0  0  0  0
   58.8580   33.3680   46.2110 C   0  0  0  0  0  0  0  0  0  0  0  0
   57.7540   33.2020   44.8490 S   0  0  0  0  0  0  0  0  0  0  0  0
   58.5250   33.3820   43.5720 O   0  0  0  0  0  0  0  0  0  0  0  0
   56.6760   34.2490   44.9140 O   0  0  0  0  0  0  0  0  0  0  0  0
   57.0370   31.6210   44.8710 N   0  0  0  0  0  0  0  0  0  0  0  0
   56.9440   31.1000   43.5040 C   0  0  0  0  0  0  0  0  0  0  0  0
   56.7580   29.5800   43.5210 C   0  0  0  0  0  0  0  0  0  0  0  0
   56.7700   29.0220   44.9570 C   0  0  0  0  0  0  0  0  0  0  0  0
   58.0950   28.5330   45.3970 N   0  0  0  0  0  0  0  0  0  0  0  0
   59.2520   29.2580   44.8230 C   0  0  0  0  0  0  0  0  0  0  0  0
   60.0430   30.0360   45.8820 C   0  0  0  0  0  0  0  0  0  0  0  0
   59.1730   30.5060   46.8860 O   0  0  0  0  0  0  0  0  0  0  0  0
   58.7260   29.4210   47.6750 C   0  0  0  0  0  0  0  0  0  0  0  0
   58.2010   28.2280   46.8380 C   0  0  0  0  0  0  0  0  0  0  0  0
   58.3740   33.3810   47.5370 C   0  0  0  0  0  0  0  0  0  0  0  0
   59.2650   33.4940   48.6170 C   0  0  0  0  0  0  0  0  0  0  0  0
   60.6380   33.5860   48.3470 C   0  0  0  0  0  0  0  0  0  0  0  0
   60.5798   31.2141   50.6857 H   0  0  0  0  0  0  0  0  0  0  0  0
   58.8029   29.4919   51.0088 H   0  0  0  0  0  0  0  0  0  0  0  0
   56.1895   32.4916   52.7040 H   0  0  0  0  0  0  0  0  0  0  0  0
   57.9585   34.2189   52.3796 H   0  0  0  0  0  0  0  0  0  0  0  0
   63.4418   34.8043   48.7236 H   0  0  0  0  0  0  0  0  0  0  0  0
   63.6779   33.0493   48.8138 H   0  0  0  0  0  0  0  0  0  0  0  0
   62.8819   34.6277   46.4787 H   0  0  0  0  0  0  0  0  0  0  0  0
   63.0847   32.8867   46.5193 H   0  0  0  0  0  0  0  0  0  0  0  0
   60.6307   33.4617   44.9421 H   0  0  0  0  0  0  0  0  0  0  0  0
   57.6830   31.0000   45.4130 H   0  0  0  0  0  0  0  0  0  0  0  0
   56.0850   31.5642   42.9973 H   0  0  0  0  0  0  0  0  0  0  0  0
   57.8746   31.3386   42.9682 H   0  0  0  0  0  0  0  0  0  0  0  0
   55.7949   29.3331   43.0504 H   0  0  0  0  0  0  0  0  0  0  0  0
   57.5937   29.1254   42.9688 H   0  0  0  0  0  0  0  0  0  0  0  0
   56.4503   29.8210   45.6421 H   0  0  0  0  0  0  0  0  0  0  0  0
   56.0893   28.1580   44.9705 H   0  0  0  0  0  0  0  0  0  0  0  0
   59.9237   28.5289   44.3463 H   0  0  0  0  0  0  0  0  0  0  0  0
   58.8626   29.9857   44.0958 H   0  0  0  0  0  0  0  0  0  0  0  0
   60.7960   29.3734   46.3336 H   0  0  0  0  0  0  0  0  0  0  0  0
   60.5387   30.8937   45.4039 H   0  0  0  0  0  0  0  0  0  0  0  0
   59.5653   29.0705   48.2937 H   0  0  0  0  0  0  0  0  0  0  0  0
   57.8855   29.7861   48.2835 H   0  0  0  0  0  0  0  0  0  0  0  0
   58.8899   27.3802   46.9666 H   0  0  0  0  0  0  0  0  0  0  0  0
   57.1885   27.9946   47.1990 H   0  0  0  0  0  0  0  0  0  0  0  0
   57.2931   33.3022   47.7255 H   0  0  0  0  0  0  0  0  0  0  0  0
   58.8937   33.5100   49.6523 H   0  0  0  0  0  0  0  0  0  0  0  0
  1  2  2  0
  2  3  1  0
  3  4  1  0
  4  5  2  0
  5  6  1  0
  6  7  2  0
  7  8  1  0
  7  9  1  0
  9 10  2  0
  2 11  1  0
 11 12  1  0
 12 13  1  0
 13 14  1  0
 14 15  2  0
 15 16  1  0
 16 17  1  0
 17 18  2  0
 17 19  2  0
 17 20  1  0
 20 21  1  0
 21 22  1  0
 22 23  1  0
 23 24  1  0
 24 25  1  0
 25 26  1  0
 26 27  1  0
 27 28  1  0
 28 29  1  0
 16 30  2  0
 30 31  1  0
 31 32  2  0
 10  4  1  0
 32 11  1  0
 32 14  1  0
 29 24  1  0
  5 33  1  0
  6 34  1  0
  9 35  1  0
 10 36  1  0
 12 37  1  0
 12 38  1  0
 13 39  1  0
 13 40  1  0
 15 41  1  0
 20 42  1  0
 21 43  1  0
 21 44  1  0
 22 45  1  0
 22 46  1  0
 23 47  1  0
 23 48  1  0
 25 49  1  0
 25 50  1  0
 26 51  1  0
 26 52  1  0
 28 53  1  0
 28 54  1  0
 29 55  1  0
 29 56  1  0
 30 57  1  0
 31 58  1  0
M  CHG  1   3  -1
M  END
>  <UniqueID>  (87) 
78

>  <SMILES>  (87) 
O=C([N-]c1ccc(F)cc1)N1CCc2cc(S(=O)(=O)NCCCN3CCOCC3)ccc21

>  <Energy>  (87) 
89.37104064299349

>  <Genealogy>  (87) 
O=C([N-]c1ccc(F)cc1)N1CCc2cc(S(=O)(=O)NCCCN3CCOCC3)ccc21 (protonated)
O=C([N-]c1ccc(F)cc1)N1CCc2cc(S(=O)(=O)NCCCN3CCOCC3)ccc21 (3D coordinates assigned)
O=C([N-]c1ccc(F)cc1)N1CCc2cc(S(=O)(=O)NCCCN3CCOCC3)ccc21 (nonaromatic ring conformer: 89.37104064299349 kcal/mol)

>  <smiles>  (87) 
O=C(Nc1ccc(F)cc1)N1CCc2cc(S(=O)(=O)NCCCN3CCOCC3)ccc21

>  <score_type>  (87) 
oracle

>  <origin>  (87) 
adg

>  <m_score__min__energy>  (87) 
-11.06

>  <m_primary>  (87) 
energy

$$$$
87:0
     RDKit          3D

 44 46  0  0  0  0  0  0  0  0999 V2000
   56.9840   26.9850   46.1040 C   0  0  0  0  0  0  0  0  0  0  0  0
   58.0250   28.0300   46.4080 C   0  0  0  0  0  0  0  0  0  0  0  0
   59.0350   27.7300   47.3370 C   0  0  0  0  0  0  0  0  0  0  0  0
   60.0080   28.6750   47.6630 C   0  0  0  0  0  0  0  0  0  0  0  0
   59.9830   29.9460   47.0790 C   0  0  0  0  0  0  0  0  0  0  0  0
   61.0200   30.9470   47.4070 C   0  0  0  0  0  0  0  0  0  0  0  0
   62.1010   30.9370   46.7570 O   0  0  0  0  0  0  0  0  0  0  0  0
   60.8170   31.9370   48.4310 N   0  0  0  0  0  0  0  0  0  0  0  0
   59.5090   32.4040   48.8610 C   0  0  0  0  0  0  0  0  0  0  0  0
   59.7600   33.7200   49.5830 C   0  0  0  0  0  0  0  0  0  0  0  0
   61.2470   33.7250   49.9270 C   0  0  0  0  0  0  0  0  0  0  0  0
   61.8980   32.7620   48.9420 C   0  0  0  0  0  0  0  0  0  0  0  0
   58.9860   30.2530   46.1420 C   0  0  0  0  0  0  0  0  0  0  0  0
   57.9950   29.3130   45.8090 C   0  0  0  0  0  0  0  0  0  0  0  0
   56.7440   29.7700   44.6400 S   0  0  0  0  0  0  0  0  0  0  0  0
   55.5240   28.9230   44.8700 O   0  0  0  0  0  0  0  0  0  0  0  0
   57.2430   29.5530   43.2390 O   0  0  0  0  0  0  0  0  0  0  0  0
   56.3540   31.4460   44.8440 N   0  0  0  0  0  0  0  0  0  0  0  0
   57.2990   32.4900   45.1170 C   0  0  0  0  0  0  0  0  0  0  0  0
   58.2910   32.8610   44.1900 C   0  0  0  0  0  0  0  0  0  0  0  0
   59.1920   33.8860   44.4990 C   0  0  0  0  0  0  0  0  0  0  0  0
   59.1120   34.5480   45.7310 C   0  0  0  0  0  0  0  0  0  0  0  0
   60.0040   35.5700   46.0490 O   0  0  0  0  0  0  0  0  0  0  0  0
   58.1280   34.1790   46.6540 C   0  0  0  0  0  0  0  0  0  0  0  0
   57.2270   33.1550   46.3480 C   0  0  0  0  0  0  0  0  0  0  0  0
   56.5828   26.5823   47.0457 H   0  0  0  0  0  0  0  0  0  0  0  0
   56.1681   27.4386   45.5221 H   0  0  0  0  0  0  0  0  0  0  0  0
   57.4407   26.1709   45.5221 H   0  0  0  0  0  0  0  0  0  0  0  0
   59.0590   26.7386   47.8129 H   0  0  0  0  0  0  0  0  0  0  0  0
   60.7992   28.4194   48.3832 H   0  0  0  0  0  0  0  0  0  0  0  0
   58.8532   32.5620   47.9921 H   0  0  0  0  0  0  0  0  0  0  0  0
   59.0098   31.6716   49.5125 H   0  0  0  0  0  0  0  0  0  0  0  0
   59.5148   34.5694   48.9285 H   0  0  0  0  0  0  0  0  0  0  0  0
   59.1347   33.8152   50.4830 H   0  0  0  0  0  0  0  0  0  0  0  0
   61.6651   34.7356   49.8093 H   0  0  0  0  0  0  0  0  0  0  0  0
   61.4248   33.4231   50.9697 H   0  0  0  0  0  0  0  0  0  0  0  0
   62.3780   33.3170   48.1225 H   0  0  0  0  0  0  0  0  0  0  0  0
   62.6810   32.1563   49.4216 H   0  0  0  0  0  0  0  0  0  0  0  0
   58.9792   31.2423   45.6612 H   0  0  0  0  0  0  0  0  0  0  0  0
   58.3581   32.3444   43.2212 H   0  0  0  0  0  0  0  0  0  0  0  0
   59.9659   34.1730   43.7719 H   0  0  0  0  0  0  0  0  0  0  0  0
   61.0060   35.4470   45.9550 H   0  0  0  0  0  0  0  0  0  0  0  0
   58.0630   34.6958   47.6229 H   0  0  0  0  0  0  0  0  0  0  0  0
   56.4561   32.8693   47.0788 H   0  0  0  0  0  0  0  0  0  0  0  0
  1  2  1  0
  2  3  2  0
  3  4  1  0
  4  5  2  0
  5  6  1  0
  6  7  2  0
  6  8  1  0
  8  9  1  0
  9 10  1  0
 10 11  1  0
 11 12  1  0
  5 13  1  0
 13 14  2  0
 14 15  1  0
 15 16  2  0
 15 17  2  0
 15 18  1  0
 18 19  1  0
 19 20  2  0
 20 21  1  0
 21 22  2  0
 22 23  1  0
 22 24  1  0
 24 25  2  0
 14  2  1  0
 25 19  1  0
 12  8  1  0
  1 26  1  0
  1 27  1  0
  1 28  1  0
  3 29  1  0
  4 30  1  0
  9 31  1  0
  9 32  1  0
 10 33  1  0
 10 34  1  0
 11 35  1  0
 11 36  1  0
 12 37  1  0
 12 38  1  0
 13 39  1  0
 20 40  1  0
 21 41  1  0
 23 42  1  0
 24 43  1  0
 25 44  1  0
M  CHG  1  18  -1
M  END
>  <UniqueID>  (88) 
79

>  <SMILES>  (88) 
Cc1ccc(C(=O)N2CCCC2)cc1S(=O)(=O)[N-]c1ccc(O)cc1

>  <Energy>  (88) 
54.22506494798587

>  <Genealogy>  (88) 
Cc1ccc(C(=O)N2CCCC2)cc1S(=O)(=O)[N-]c1ccc(O)cc1 (protonated)
Cc1ccc(C(=O)N2CCCC2)cc1S(=O)(=O)[N-]c1ccc(O)cc1 (3D coordinates assigned)
Cc1ccc(C(=O)N2CCCC2)cc1S(=O)(=O)[N-]c1ccc(O)cc1 (nonaromatic ring conformer: 54.22506494798587 kcal/mol)

>  <smiles>  (88) 
Cc1ccc(C(=O)N2CCCC2)cc1S(=O)(=O)Nc1ccc(O)cc1

>  <score_type>  (88) 
oracle

>  <origin>  (88) 
adg

>  <m_score__min__energy>  (88) 
-10.65

>  <m_primary>  (88) 
energy

$$$$
88:0
     RDKit          3D

 59 62  0  0  0  0  0  0  0  0999 V2000
   60.4250   36.2947   47.1213 H   0  0  0  0  0  0  0  0  0  0  0  0
   59.8110   35.4610   46.7500 C   0  0  0  0  0  0  0  0  0  0  0  0
   59.5280   35.3550   45.3860 C   0  0  0  0  0  0  0  0  0  0  0  0
   59.9135   36.1100   44.6850 H   0  0  0  0  0  0  0  0  0  0  0  0
   58.7550   34.2900   44.9100 C   0  0  0  0  0  0  0  0  0  0  0  0
   58.5254   34.2184   43.8366 H   0  0  0  0  0  0  0  0  0  0  0  0
   58.2710   33.3130   45.7930 C   0  0  0  0  0  0  0  0  0  0  0  0
   57.4520   32.2440   45.2870 N   0  0  0  0  0  0  0  0  0  0  0  0
   56.6900   31.8720   45.8970 H   0  0  0  0  0  0  0  0  0  0  0  0
   57.6150   31.6610   43.9850 C   0  0  0  0  0  0  0  0  0  0  0  0
   58.1520   32.3210   43.0520 O   0  0  0  0  0  0  0  0  0  0  0  0
   57.1210   30.2710   43.7150 C   0  0  0  0  0  0  0  0  0  0  0  0
   57.4629   29.9522   42.7193 H   0  0  0  0  0  0  0  0  0  0  0  0
   56.0218   30.2694   43.7566 H   0  0  0  0  0  0  0  0  0  0  0  0
   57.6470   29.3180   44.7460 C   0  0  0  0  0  0  0  0  0  0  0  0
   59.2590   29.1540   45.1740 S   0  0  0  0  0  0  0  0  0  0  0  0
   58.9670   27.8960   46.2510 C   0  0  0  0  0  0  0  0  0  0  0  0
   59.9400   27.3650   46.9390 N   0  0  0  0  0  0  0  0  0  0  0  0
   60.1950   27.4190   48.3440 C   0  0  0  0  0  0  0  0  0  0  0  0
   60.7480   26.4430   48.9210 O   0  0  0  0  0  0  0  0  0  0  0  0
   59.6710   28.5770   49.1390 C   0  0  0  0  0  0  0  0  0  0  0  0
   59.0374   29.1975   48.4882 H   0  0  0  0  0  0  0  0  0  0  0  0
   59.0960   28.1762   49.9868 H   0  0  0  0  0  0  0  0  0  0  0  0
   60.7280   29.3860   49.6630 O   0  0  0  0  0  0  0  0  0  0  0  0
   61.3350   30.4640   48.9990 C   0  0  0  0  0  0  0  0  0  0  0  0
   60.8580   30.8170   47.7290 C   0  0  0  0  0  0  0  0  0  0  0  0
   60.0161   30.2628   47.2884 H   0  0  0  0  0  0  0  0  0  0  0  0
   61.4450   31.8690   47.0180 C   0  0  0  0  0  0  0  0  0  0  0  0
   61.0644   32.1382   46.0217 H   0  0  0  0  0  0  0  0  0  0  0  0
   62.5150   32.5790   47.5720 C   0  0  0  0  0  0  0  0  0  0  0  0
   63.2630   33.8850   46.6730 Cl  0  0  0  0  0  0  0  0  0  0  0  0
   62.9910   32.2410   48.8440 C   0  0  0  0  0  0  0  0  0  0  0  0
   63.8310   32.7998   49.2823 H   0  0  0  0  0  0  0  0  0  0  0  0
   62.4010   31.1950   49.5580 C   0  0  0  0  0  0  0  0  0  0  0  0
   62.7712   30.9411   50.5622 H   0  0  0  0  0  0  0  0  0  0  0  0
   57.6400   27.5450   46.2700 N   0  0  0  0  0  0  0  0  0  0  0  0
   57.0600   26.2740   46.7420 C   0  0  0  0  0  0  0  0  0  0  0  0
   56.8345   26.3533   47.8157 H   0  0  0  0  0  0  0  0  0  0  0  0
   56.1368   26.0685   46.1804 H   0  0  0  0  0  0  0  0  0  0  0  0
   58.0530   25.1260   46.5150 C   0  0  0  0  0  0  0  0  0  0  0  0
   59.0331   25.5478   46.2475 H   0  0  0  0  0  0  0  0  0  0  0  0
   58.1216   24.5384   47.4424 H   0  0  0  0  0  0  0  0  0  0  0  0
   57.5930   24.2140   45.4080 C   0  0  0  0  0  0  0  0  0  0  0  0
   58.2310   22.9810   45.1860 C   0  0  0  0  0  0  0  0  0  0  0  0
   59.0919   22.6904   45.8059 H   0  0  0  0  0  0  0  0  0  0  0  0
   57.7760   22.1230   44.1810 C   0  0  0  0  0  0  0  0  0  0  0  0
   58.2735   21.1556   44.0176 H   0  0  0  0  0  0  0  0  0  0  0  0
   56.6890   22.4930   43.3830 C   0  0  0  0  0  0  0  0  0  0  0  0
   56.3305   21.8158   42.5938 H   0  0  0  0  0  0  0  0  0  0  0  0
   56.0580   23.7230   43.5880 C   0  0  0  0  0  0  0  0  0  0  0  0
   55.2052   24.0146   42.9574 H   0  0  0  0  0  0  0  0  0  0  0  0
   56.5090   24.5830   44.5930 C   0  0  0  0  0  0  0  0  0  0  0  0
   56.0135   25.5529   44.7469 H   0  0  0  0  0  0  0  0  0  0  0  0
   56.9150   28.3560   45.4360 C   0  0  0  0  0  0  0  0  0  0  0  0
   55.5450   28.1950   45.2450 O   0  0  0  0  0  0  0  0  0  0  0  0
   58.5440   33.4380   47.1700 C   0  0  0  0  0  0  0  0  0  0  0  0
   58.1507   32.6922   47.8765 H   0  0  0  0  0  0  0  0  0  0  0  0
   59.3140   34.5080   47.6420 C   0  0  0  0  0  0  0  0  0  0  0  0
   59.5279   34.5982   48.7172 H   0  0  0  0  0  0  0  0  0  0  0  0
  1  2  1  0
  2  3  2  0
  3  4  1  0
  3  5  1  0
  5  6  1  0
  5  7  2  0
  7  8  1  0
  8  9  1  0
  8 10  1  0
 10 11  2  0
 10 12  1  0
 12 13  1  0
 12 14  1  0
 12 15  1  0
 15 16  1  0
 16 17  1  0
 17 18  2  0
 18 19  1  0
 19 20  2  0
 19 21  1  0
 21 22  1  0
 21 23  1  0
 21 24  1  0
 24 25  1  0
 25 26  2  0
 26 27  1  0
 26 28  1  0
 28 29  1  0
 28 30  2  0
 30 31  1  0
 30 32  1  0
 32 33  1  0
 32 34  2  0
 34 35  1  0
 17 36  1  0
 36 37  1  0
 37 38  1  0
 37 39  1  0
 37 40  1  0
 40 41  1  0
 40 42  1  0
 40 43  1  0
 43 44  2  0
 44 45  1  0
 44 46  1  0
 46 47  1  0
 46 48  2  0
 48 49  1  0
 48 50  1  0
 50 51  1  0
 50 52  2  0
 52 53  1  0
 36 54  1  0
 54 55  1  0
  7 56  1  0
 56 57  1  0
 56 58  2  0
 58 59  1  0
 58  2  1  0
 54 15  2  0
 34 25  1  0
 52 43  1  0
M  CHG  1  55  -1
M  END
>  <UniqueID>  (89) 
80

>  <SMILES>  (89) 
O=C(COc1ccc(Cl)cc1)/N=c1/sc(CC(=O)Nc2ccccc2)c([O-])n1CCc1ccccc1

>  <Energy>  (89) 
107.02085597969197

>  <Genealogy>  (89) 
O=C(COc1ccc(Cl)cc1)N=c1sc(CC(=O)Nc2ccccc2)c([O-])n1CCc1ccccc1 (protonated)
O=C(COc1ccc(Cl)cc1)/N=c1/sc(CC(=O)Nc2ccccc2)c([O-])n1CCc1ccccc1 (cis-trans isomerization)
O=C(COc1ccc(Cl)cc1)/N=c1/sc(CC(=O)Nc2ccccc2)c([O-])n1CCc1ccccc1 (3D coordinates assigned)
O=C(COc1ccc(Cl)cc1)/N=c1/sc(CC(=O)Nc2ccccc2)c([O-])n1CCc1ccccc1 (optimized conformer: 107.02085597969197 kcal/mol)

>  <smiles>  (89) 
O=C(COc1ccc(Cl)cc1)N=c1sc(CC(=O)Nc2ccccc2)c(O)n1CCc1ccccc1

>  <score_type>  (89) 
oracle

>  <origin>  (89) 
adg

>  <m_score__min__energy>  (89) 
-13.23

>  <m_primary>  (89) 
energy

$$$$
89:0
     RDKit          3D

 37 38  0  0  0  0  0  0  0  0999 V2000
   59.6510   35.7330   45.9470 C   0  0  0  0  0  0  0  0  0  0  0  0
   59.3150   34.5980   46.8780 C   0  0  0  0  0  0  0  0  0  0  0  0
   59.9740   34.5150   48.1190 C   0  0  0  0  0  0  0  0  0  0  0  0
   59.6880   33.4790   49.0090 C   0  0  0  0  0  0  0  0  0  0  0  0
   58.7420   32.5120   48.6750 C   0  0  0  0  0  0  0  0  0  0  0  0
   58.0710   32.5820   47.4540 C   0  0  0  0  0  0  0  0  0  0  0  0
   58.3320   33.6270   46.5510 C   0  0  0  0  0  0  0  0  0  0  0  0
   57.5960   33.6320   45.2320 C   0  0  0  0  0  0  0  0  0  0  0  0
   58.4670   33.0960   44.1780 N   0  0  0  0  0  0  0  0  0  0  0  0
   57.7370   32.1750   43.2980 C   0  0  0  0  0  0  0  0  0  0  0  0
   57.5200   30.8530   43.9850 C   0  0  0  0  0  0  0  0  0  0  0  0
   58.6020   30.1450   44.5340 C   0  0  0  0  0  0  0  0  0  0  0  0
   58.3960   28.9070   45.1460 C   0  0  0  0  0  0  0  0  0  0  0  0
   57.1070   28.3600   45.2200 C   0  0  0  0  0  0  0  0  0  0  0  0
   56.8530   26.7900   45.9750 S   0  0  0  0  0  0  0  0  0  0  0  0
   55.1650   26.4280   45.9970 N   0  0  0  0  0  0  0  0  0  0  0  0
   57.3780   26.8100   47.3820 O   0  0  0  0  0  0  0  0  0  0  0  0
   57.5860   25.7290   45.2010 O   0  0  0  0  0  0  0  0  0  0  0  0
   56.0270   29.0590   44.6640 C   0  0  0  0  0  0  0  0  0  0  0  0
   56.2320   30.2990   44.0500 C   0  0  0  0  0  0  0  0  0  0  0  0
   59.9148   36.6241   46.5355 H   0  0  0  0  0  0  0  0  0  0  0  0
   60.5030   35.4470   45.3127 H   0  0  0  0  0  0  0  0  0  0  0  0
   58.7806   35.9569   45.3127 H   0  0  0  0  0  0  0  0  0  0  0  0
   60.7221   35.2746   48.3900 H   0  0  0  0  0  0  0  0  0  0  0  0
   60.2101   33.4256   49.9757 H   0  0  0  0  0  0  0  0  0  0  0  0
   58.5240   31.6921   49.3752 H   0  0  0  0  0  0  0  0  0  0  0  0
   57.3299   31.8114   47.1952 H   0  0  0  0  0  0  0  0  0  0  0  0
   56.6941   33.0075   45.3140 H   0  0  0  0  0  0  0  0  0  0  0  0
   57.3090   34.6632   44.9785 H   0  0  0  0  0  0  0  0  0  0  0  0
   58.7920   33.9010   43.5920 H   0  0  0  0  0  0  0  0  0  0  0  0
   56.7617   32.6148   43.0422 H   0  0  0  0  0  0  0  0  0  0  0  0
   58.3285   32.0097   42.3854 H   0  0  0  0  0  0  0  0  0  0  0  0
   59.6161   30.5678   44.4815 H   0  0  0  0  0  0  0  0  0  0  0  0
   59.2489   28.3583   45.5721 H   0  0  0  0  0  0  0  0  0  0  0  0
   54.7210   27.0800   46.6820 H   0  0  0  0  0  0  0  0  0  0  0  0
   55.0147   28.6311   44.7106 H   0  0  0  0  0  0  0  0  0  0  0  0
   55.3798   30.8425   43.6160 H   0  0  0  0  0  0  0  0  0  0  0  0
  1  2  1  0
  2  3  2  0
  3  4  1  0
  4  5  2  0
  5  6  1  0
  6  7  2  0
  7  8  1  0
  8  9  1  0
  9 10  1  0
 10 11  1  0
 11 12  2  0
 12 13  1  0
 13 14  2  0
 14 15  1  0
 15 16  1  0
 15 17  2  0
 15 18  2  0
 14 19  1  0
 19 20  2  0
  7  2  1  0
 20 11  1  0
  1 21  1  0
  1 22  1  0
  1 23  1  0
  3 24  1  0
  4 25  1  0
  5 26  1  0
  6 27  1  0
  8 28  1  0
  8 29  1  0
  9 30  1  0
 10 31  1  0
 10 32  1  0
 12 33  1  0
 13 34  1  0
 16 35  1  0
 19 36  1  0
 20 37  1  0
M  CHG  1  16  -1
M  END
>  <UniqueID>  (90) 
81

>  <SMILES>  (90) 
Cc1ccccc1CNCc1ccc(S([NH-])(=O)=O)cc1

>  <Energy>  (90) 
36.165513399540984

>  <Genealogy>  (90) 
Cc1ccccc1CNCc1ccc(S([NH-])(=O)=O)cc1 (protonated)
Cc1ccccc1CNCc1ccc(S([NH-])(=O)=O)cc1 (3D coordinates assigned)
Cc1ccccc1CNCc1ccc(S([NH-])(=O)=O)cc1 (optimized conformer: 36.165513399540984 kcal/mol)

>  <smiles>  (90) 
Cc1ccccc1CNCc1ccc(S(N)(=O)=O)cc1

>  <score_type>  (90) 
oracle

>  <origin>  (90) 
adg

>  <m_score__min__energy>  (90) 
-10.49

>  <m_primary>  (90) 
energy

$$$$
90:0
     RDKit          3D

 42 44  0  0  0  0  0  0  0  0999 V2000
   59.5600   34.5230   45.2800 C   0  0  0  0  0  0  0  0  0  0  0  0
   60.2800   34.5020   46.5080 O   0  0  0  0  0  0  0  0  0  0  0  0
   61.2960   33.5850   46.8210 C   0  0  0  0  0  0  0  0  0  0  0  0
   62.6410   33.9850   46.9610 C   0  0  0  0  0  0  0  0  0  0  0  0
   63.6270   33.0470   47.2730 C   0  0  0  0  0  0  0  0  0  0  0  0
   63.2890   31.7050   47.4390 C   0  0  0  0  0  0  0  0  0  0  0  0
   61.9620   31.2950   47.3020 C   0  0  0  0  0  0  0  0  0  0  0  0
   60.9540   32.2310   47.0060 C   0  0  0  0  0  0  0  0  0  0  0  0
   59.5900   31.8080   46.8330 N   0  0  0  0  0  0  0  0  0  0  0  0
   59.0890   30.5210   47.2320 C   0  0  0  0  0  0  0  0  0  0  0  0
   59.6130   29.8320   48.6270 S   0  0  0  0  0  0  0  0  0  0  0  0
   57.9400   29.9630   46.5780 N   0  0  0  0  0  0  0  0  0  0  0  0
   57.5400   30.3260   45.2450 C   0  0  0  0  0  0  0  0  0  0  0  0
   58.2470   31.3200   44.5440 C   0  0  0  0  0  0  0  0  0  0  0  0
   57.9400   31.6010   43.2100 C   0  0  0  0  0  0  0  0  0  0  0  0
   56.9410   30.8800   42.5560 C   0  0  0  0  0  0  0  0  0  0  0  0
   56.2350   29.8870   43.2380 C   0  0  0  0  0  0  0  0  0  0  0  0
   56.5080   29.6170   44.5850 C   0  0  0  0  0  0  0  0  0  0  0  0
   55.7350   28.6070   45.2470 N   0  0  0  0  0  0  0  0  0  0  0  0
   56.2560   27.3600   45.7230 C   0  0  0  0  0  0  0  0  0  0  0  0
   55.4870   26.3800   45.9160 O   0  0  0  0  0  0  0  0  0  0  0  0
   57.6960   27.2050   45.9540 C   0  0  0  0  0  0  0  0  0  0  0  0
   58.6580   27.0070   44.9820 C   0  0  0  0  0  0  0  0  0  0  0  0
   59.8550   26.9220   45.6600 C   0  0  0  0  0  0  0  0  0  0  0  0
   59.5500   27.0720   46.9980 C   0  0  0  0  0  0  0  0  0  0  0  0
   58.2550   27.2390   47.1410 O   0  0  0  0  0  0  0  0  0  0  0  0
   58.4804   34.5545   45.4884 H   0  0  0  0  0  0  0  0  0  0  0  0
   59.8478   35.4131   44.7014 H   0  0  0  0  0  0  0  0  0  0  0  0
   59.7955   33.6176   44.7014 H   0  0  0  0  0  0  0  0  0  0  0  0
   62.9148   35.0415   46.8237 H   0  0  0  0  0  0  0  0  0  0  0  0
   64.6729   33.3678   47.3881 H   0  0  0  0  0  0  0  0  0  0  0  0
   64.0695   30.9678   47.6784 H   0  0  0  0  0  0  0  0  0  0  0  0
   61.7025   30.2333   47.4262 H   0  0  0  0  0  0  0  0  0  0  0  0
   58.9150   32.4750   46.3940 H   0  0  0  0  0  0  0  0  0  0  0  0
   57.3690   29.2550   47.0910 H   0  0  0  0  0  0  0  0  0  0  0  0
   59.0473   31.8801   45.0497 H   0  0  0  0  0  0  0  0  0  0  0  0
   58.4867   32.3916   42.6751 H   0  0  0  0  0  0  0  0  0  0  0  0
   56.7092   31.0938   41.5022 H   0  0  0  0  0  0  0  0  0  0  0  0
   55.4580   29.3120   42.7131 H   0  0  0  0  0  0  0  0  0  0  0  0
   58.5014   26.9328   43.8957 H   0  0  0  0  0  0  0  0  0  0  0  0
   60.8524   26.7661   45.2230 H   0  0  0  0  0  0  0  0  0  0  0  0
   60.2808   27.0543   47.8200 H   0  0  0  0  0  0  0  0  0  0  0  0
  1  2  1  0
  2  3  1  0
  3  4  2  0
  4  5  1  0
  5  6  2  0
  6  7  1  0
  7  8  2  0
  8  9  1  0
  9 10  1  0
 10 11  2  0
 10 12  1  0
 12 13  1  0
 13 14  2  0
 14 15  1  0
 15 16  2  0
 16 17  1  0
 17 18  2  0
 18 19  1  0
 19 20  1  0
 20 21  2  0
 20 22  1  0
 22 23  2  0
 23 24  1  0
 24 25  2  0
 25 26  1  0
  8  3  1  0
 18 13  1  0
 26 22  1  0
  1 27  1  0
  1 28  1  0
  1 29  1  0
  4 30  1  0
  5 31  1  0
  6 32  1  0
  7 33  1  0
  9 34  1  0
 12 35  1  0
 14 36  1  0
 15 37  1  0
 16 38  1  0
 17 39  1  0
 23 40  1  0
 24 41  1  0
 25 42  1  0
M  CHG  1  19  -1
M  END
>  <UniqueID>  (91) 
82

>  <SMILES>  (91) 
COc1ccccc1NC(=S)Nc1ccccc1[N-]C(=O)c1ccco1

>  <Energy>  (91) 
82.61165132257851

>  <Genealogy>  (91) 
COc1ccccc1NC(=S)Nc1ccccc1[N-]C(=O)c1ccco1 (protonated)
COc1ccccc1NC(=S)Nc1ccccc1[N-]C(=O)c1ccco1 (3D coordinates assigned)
COc1ccccc1NC(=S)Nc1ccccc1[N-]C(=O)c1ccco1 (optimized conformer: 82.61165132257851 kcal/mol)

>  <smiles>  (91) 
COc1ccccc1NC(=S)Nc1ccccc1NC(=O)c1ccco1

>  <score_type>  (91) 
oracle

>  <origin>  (91) 
adg

>  <m_score__min__energy>  (91) 
-10.16

>  <m_primary>  (91) 
energy

$$$$
91:0
     RDKit          3D

 41 44  0  0  0  0  0  0  0  0999 V2000
   56.2574   23.0886   42.3380 H   0  0  0  0  0  0  0  0  0  0  0  0
   56.2930   22.9700   43.4310 C   0  0  0  0  0  0  0  0  0  0  0  0
   56.5910   21.7250   43.9880 C   0  0  0  0  0  0  0  0  0  0  0  0
   56.7757   20.8606   43.3332 H   0  0  0  0  0  0  0  0  0  0  0  0
   56.6550   21.5750   45.3750 C   0  0  0  0  0  0  0  0  0  0  0  0
   56.8893   20.5912   45.8078 H   0  0  0  0  0  0  0  0  0  0  0  0
   56.4220   22.6730   46.2220 C   0  0  0  0  0  0  0  0  0  0  0  0
   56.5300   22.4830   47.7110 C   0  0  0  0  0  0  0  0  0  0  0  0
   56.0493   23.3288   48.2244 H   0  0  0  0  0  0  0  0  0  0  0  0
   56.0290   21.5469   47.9985 H   0  0  0  0  0  0  0  0  0  0  0  0
   57.5907   22.4345   47.9985 H   0  0  0  0  0  0  0  0  0  0  0  0
   56.0730   23.9220   45.6540 C   0  0  0  0  0  0  0  0  0  0  0  0
   55.7990   25.0720   46.4680 N   0  0  0  0  0  0  0  0  0  0  0  0
   56.4410   26.1990   46.3890 C   0  0  0  0  0  0  0  0  0  0  0  0
   55.9260   27.2080   45.6230 N   0  0  0  0  0  0  0  0  0  0  0  0
   56.6070   28.3780   45.5640 C   0  0  0  0  0  0  0  0  0  0  0  0
   57.7680   28.5800   46.2290 C   0  0  0  0  0  0  0  0  0  0  0  0
   58.2510   29.8120   45.9840 N   0  0  0  0  0  0  0  0  0  0  0  0
   57.3160   30.3260   45.1340 C   0  0  0  0  0  0  0  0  0  0  0  0
   57.3780   31.5270   44.6380 N   0  0  0  0  0  0  0  0  0  0  0  0
   58.0280   32.6510   45.2520 C   0  0  0  0  0  0  0  0  0  0  0  0
   57.8740   32.8490   46.6300 C   0  0  0  0  0  0  0  0  0  0  0  0
   57.2771   32.1389   47.2211 H   0  0  0  0  0  0  0  0  0  0  0  0
   58.4740   33.9430   47.2580 C   0  0  0  0  0  0  0  0  0  0  0  0
   58.3613   34.0822   48.3433 H   0  0  0  0  0  0  0  0  0  0  0  0
   59.2170   34.8610   46.5110 C   0  0  0  0  0  0  0  0  0  0  0  0
   59.7950   35.9230   47.1210 F   0  0  0  0  0  0  0  0  0  0  0  0
   59.3480   34.6910   45.1300 C   0  0  0  0  0  0  0  0  0  0  0  0
   59.9233   35.4198   44.5402 H   0  0  0  0  0  0  0  0  0  0  0  0
   58.7500   33.5970   44.4950 C   0  0  0  0  0  0  0  0  0  0  0  0
   58.8300   33.4940   43.1440 F   0  0  0  0  0  0  0  0  0  0  0  0
   56.2840   29.4790   44.8760 N   0  0  0  0  0  0  0  0  0  0  0  0
   55.1660   29.6660   43.9560 C   0  0  0  0  0  0  0  0  0  0  0  0
   54.2406   29.8208   44.5302 H   0  0  0  0  0  0  0  0  0  0  0  0
   55.3557   30.5449   43.3223 H   0  0  0  0  0  0  0  0  0  0  0  0
   55.0593   28.7732   43.3223 H   0  0  0  0  0  0  0  0  0  0  0  0
   58.3020   27.5710   47.0140 C   0  0  0  0  0  0  0  0  0  0  0  0
   59.2434   27.7146   47.5647 H   0  0  0  0  0  0  0  0  0  0  0  0
   57.6170   26.3920   47.0790 N   0  0  0  0  0  0  0  0  0  0  0  0
   56.0400   24.0650   44.2600 C   0  0  0  0  0  0  0  0  0  0  0  0
   55.8134   25.0457   43.8163 H   0  0  0  0  0  0  0  0  0  0  0  0
  1  2  1  0
  2  3  2  0
  3  4  1  0
  3  5  1  0
  5  6  1  0
  5  7  2  0
  7  8  1  0
  8  9  1  0
  8 10  1  0
  8 11  1  0
  7 12  1  0
 12 13  1  0
 13 14  2  0
 14 15  1  0
 15 16  2  0
 16 17  1  0
 17 18  1  0
 18 19  1  0
 19 20  2  0
 20 21  1  0
 21 22  2  0
 22 23  1  0
 22 24  1  0
 24 25  1  0
 24 26  2  0
 26 27  1  0
 26 28  1  0
 28 29  1  0
 28 30  2  0
 30 31  1  0
 19 32  1  0
 32 33  1  0
 33 34  1  0
 33 35  1  0
 33 36  1  0
 17 37  2  0
 37 38  1  0
 37 39  1  0
 12 40  2  0
 40 41  1  0
 40  2  1  0
 39 14  1  0
 32 16  1  0
 30 21  1  0
M  CHG  2  18  -1  39  -1
M  END
>  <UniqueID>  (92) 
83

>  <SMILES>  (92) 
Cc1ccccc1/N=c1/nc2c(c[n-]1)[n-]/c(=N\c1ccc(F)cc1F)n2C

>  <Energy>  (92) 
102.38111037966361

>  <Genealogy>  (92) 
Cc1ccccc1N=c1nc2c(c[n-]1)[n-]c(=Nc1ccc(F)cc1F)n2C (protonated)
Cc1ccccc1/N=c1/nc2c(c[n-]1)[n-]/c(=N\c1ccc(F)cc1F)n2C (cis-trans isomerization)
Cc1ccccc1/N=c1/nc2c(c[n-]1)[n-]/c(=N\c1ccc(F)cc1F)n2C (3D coordinates assigned)
Cc1ccccc1/N=c1/nc2c(c[n-]1)[n-]/c(=N\c1ccc(F)cc1F)n2C (optimized conformer: 102.38111037966361 kcal/mol)

>  <smiles>  (92) 
Cc1ccccc1N=c1nc2c(c[nH]1)[nH]c(=Nc1ccc(F)cc1F)n2C

>  <score_type>  (92) 
oracle

>  <origin>  (92) 
adg

>  <m_score__min__energy>  (92) 
-10.859999999999999

>  <m_primary>  (92) 
energy

$$$$
92:0
     RDKit          3D

 46 49  0  0  0  0  0  0  0  0999 V2000
   59.0110   34.7120   48.1570 N   0  0  0  0  0  0  0  0  0  0  0  0
   59.8610   34.6740   46.6530 S   0  0  0  0  0  0  0  0  0  0  0  0
   59.9410   36.0660   46.0900 O   0  0  0  0  0  0  0  0  0  0  0  0
   61.2560   34.1650   46.8770 O   0  0  0  0  0  0  0  0  0  0  0  0
   59.0190   33.6180   45.5230 C   0  0  0  0  0  0  0  0  0  0  0  0
   59.0260   33.9080   44.1530 C   0  0  0  0  0  0  0  0  0  0  0  0
   58.3770   33.0590   43.2540 C   0  0  0  0  0  0  0  0  0  0  0  0
   57.7120   31.9190   43.7160 C   0  0  0  0  0  0  0  0  0  0  0  0
   57.6830   31.6270   45.0920 C   0  0  0  0  0  0  0  0  0  0  0  0
   57.0320   30.4590   45.6120 N   0  0  0  0  0  0  0  0  0  0  0  0
   56.5250   29.3500   44.8580 C   0  0  0  0  0  0  0  0  0  0  0  0
   55.2970   29.0710   44.8640 O   0  0  0  0  0  0  0  0  0  0  0  0
   57.4790   28.4550   44.1350 C   0  0  0  0  0  0  0  0  0  0  0  0
   57.7850   27.3100   44.9270 O   0  0  0  0  0  0  0  0  0  0  0  0
   58.2380   27.3860   46.2510 C   0  0  0  0  0  0  0  0  0  0  0  0
   57.9610   26.4650   47.0680 O   0  0  0  0  0  0  0  0  0  0  0  0
   59.0380   28.5500   46.6890 C   0  0  0  0  0  0  0  0  0  0  0  0
   60.1770   28.9630   45.9440 C   0  0  0  0  0  0  0  0  0  0  0  0
   60.9450   30.0690   46.3510 C   0  0  0  0  0  0  0  0  0  0  0  0
   60.5570   30.7470   47.5030 C   0  0  0  0  0  0  0  0  0  0  0  0
   61.1590   31.8220   48.0590 N   0  0  0  0  0  0  0  0  0  0  0  0
   60.4190   32.1030   49.1540 C   0  0  0  0  0  0  0  0  0  0  0  0
   60.6310   33.1280   50.0740 C   0  0  0  0  0  0  0  0  0  0  0  0
   59.7350   33.2400   51.1550 C   0  0  0  0  0  0  0  0  0  0  0  0
   58.6570   32.3360   51.2910 C   0  0  0  0  0  0  0  0  0  0  0  0
   58.4630   31.3080   50.3510 C   0  0  0  0  0  0  0  0  0  0  0  0
   59.3650   31.2220   49.2920 C   0  0  0  0  0  0  0  0  0  0  0  0
   59.4550   30.3500   48.2300 C   0  0  0  0  0  0  0  0  0  0  0  0
   58.6720   29.2610   47.8550 C   0  0  0  0  0  0  0  0  0  0  0  0
   58.3580   32.4700   45.9860 C   0  0  0  0  0  0  0  0  0  0  0  0
   58.8750   35.7180   48.4060 H   0  0  0  0  0  0  0  0  0  0  0  0
   58.0610   34.3150   47.9820 H   0  0  0  0  0  0  0  0  0  0  0  0
   59.5435   34.8060   43.7844 H   0  0  0  0  0  0  0  0  0  0  0  0
   58.3890   33.2880   42.1782 H   0  0  0  0  0  0  0  0  0  0  0  0
   57.2105   31.2491   43.0021 H   0  0  0  0  0  0  0  0  0  0  0  0
   57.0235   28.1293   43.1882 H   0  0  0  0  0  0  0  0  0  0  0  0
   58.4079   29.0099   43.9370 H   0  0  0  0  0  0  0  0  0  0  0  0
   60.4613   28.4097   45.0368 H   0  0  0  0  0  0  0  0  0  0  0  0
   61.8264   30.3887   45.7757 H   0  0  0  0  0  0  0  0  0  0  0  0
   62.0090   32.3230   47.7190 H   0  0  0  0  0  0  0  0  0  0  0  0
   61.4719   33.8278   49.9596 H   0  0  0  0  0  0  0  0  0  0  0  0
   59.8754   34.0375   51.8995 H   0  0  0  0  0  0  0  0  0  0  0  0
   57.9640   32.4373   52.1392 H   0  0  0  0  0  0  0  0  0  0  0  0
   57.6291   30.5972   50.4482 H   0  0  0  0  0  0  0  0  0  0  0  0
   57.7950   28.9629   48.4483 H   0  0  0  0  0  0  0  0  0  0  0  0
   58.3696   32.2295   47.0593 H   0  0  0  0  0  0  0  0  0  0  0  0
  1  2  1  0
  2  3  2  0
  2  4  2  0
  2  5  1  0
  5  6  2  0
  6  7  1  0
  7  8  2  0
  8  9  1  0
  9 10  1  0
 10 11  1  0
 11 12  2  0
 11 13  1  0
 13 14  1  0
 14 15  1  0
 15 16  2  0
 15 17  1  0
 17 18  2  0
 18 19  1  0
 19 20  2  0
 20 21  1  0
 21 22  1  0
 22 23  2  0
 23 24  1  0
 24 25  2  0
 25 26  1  0
 26 27  2  0
 27 28  1  0
 28 29  2  0
  9 30  2  0
 30  5  1  0
 29 17  1  0
 28 20  1  0
 27 22  1  0
  1 31  1  0
  1 32  1  0
  6 33  1  0
  7 34  1  0
  8 35  1  0
 13 36  1  0
 13 37  1  0
 18 38  1  0
 19 39  1  0
 21 40  1  0
 23 41  1  0
 24 42  1  0
 25 43  1  0
 26 44  1  0
 29 45  1  0
 30 46  1  0
M  CHG  1  10  -1
M  END
>  <UniqueID>  (93) 
84

>  <SMILES>  (93) 
NS(=O)(=O)c1cccc([N-]C(=O)COC(=O)c2ccc3[nH]c4ccccc4c3c2)c1

>  <Energy>  (93) 
90.83582203514185

>  <Genealogy>  (93) 
NS(=O)(=O)c1cccc([N-]C(=O)COC(=O)c2ccc3[nH]c4ccccc4c3c2)c1 (protonated)
NS(=O)(=O)c1cccc([N-]C(=O)COC(=O)c2ccc3[nH]c4ccccc4c3c2)c1 (3D coordinates assigned)
NS(=O)(=O)c1cccc([N-]C(=O)COC(=O)c2ccc3[nH]c4ccccc4c3c2)c1 (optimized conformer: 90.83582203514185 kcal/mol)

>  <smiles>  (93) 
NS(=O)(=O)c1cccc(NC(=O)COC(=O)c2ccc3[nH]c4ccccc4c3c2)c1

>  <score_type>  (93) 
oracle

>  <origin>  (93) 
adg

>  <m_score__min__energy>  (93) 
-11.08

>  <m_primary>  (93) 
energy

$$$$
93:0
     RDKit          3D

 42 43  0  0  0  0  0  0  0  0999 V2000
   63.6710   33.0840   47.0730 C   0  0  0  0  0  0  0  0  0  0  0  0
   62.7130   33.8700   47.7750 O   0  0  0  0  0  0  0  0  0  0  0  0
   61.3250   33.7520   47.6190 C   0  0  0  0  0  0  0  0  0  0  0  0
   60.4880   33.2690   48.6430 C   0  0  0  0  0  0  0  0  0  0  0  0
   59.1140   33.1450   48.4270 C   0  0  0  0  0  0  0  0  0  0  0  0
   58.5610   33.4990   47.1950 C   0  0  0  0  0  0  0  0  0  0  0  0
   59.3800   33.9900   46.1670 C   0  0  0  0  0  0  0  0  0  0  0  0
   58.7790   34.3750   44.8360 C   0  0  0  0  0  0  0  0  0  0  0  0
   57.5860   33.5780   44.5060 N   0  0  0  0  0  0  0  0  0  0  0  0
   57.7720   32.6970   43.3390 C   0  0  0  0  0  0  0  0  0  0  0  0
   57.1560   31.3430   43.5460 C   0  0  0  0  0  0  0  0  0  0  0  0
   56.9500   30.5940   42.5530 O   0  0  0  0  0  0  0  0  0  0  0  0
   56.8870   30.8880   44.8770 N   0  0  0  0  0  0  0  0  0  0  0  0
   57.4250   29.7180   45.5110 C   0  0  0  0  0  0  0  0  0  0  0  0
   58.5040   29.8710   46.3900 C   0  0  0  0  0  0  0  0  0  0  0  0
   59.0280   28.7660   47.0650 C   0  0  0  0  0  0  0  0  0  0  0  0
   58.4660   27.5020   46.8820 C   0  0  0  0  0  0  0  0  0  0  0  0
   57.3690   27.3360   46.0270 C   0  0  0  0  0  0  0  0  0  0  0  0
   56.6510   25.7390   45.8370 S   0  0  0  0  0  0  0  0  0  0  0  0
   56.9990   25.0900   44.2710 N   0  0  0  0  0  0  0  0  0  0  0  0
   55.1590   25.8440   45.9940 O   0  0  0  0  0  0  0  0  0  0  0  0
   57.2010   24.8180   46.8900 O   0  0  0  0  0  0  0  0  0  0  0  0
   56.8510   28.4440   45.3410 C   0  0  0  0  0  0  0  0  0  0  0  0
   60.7600   34.1190   46.3910 C   0  0  0  0  0  0  0  0  0  0  0  0
   64.3128   32.5574   47.7946 H   0  0  0  0  0  0  0  0  0  0  0  0
   63.1504   32.3494   46.4411 H   0  0  0  0  0  0  0  0  0  0  0  0
   64.2897   33.7381   46.4411 H   0  0  0  0  0  0  0  0  0  0  0  0
   60.9177   32.9885   49.6160 H   0  0  0  0  0  0  0  0  0  0  0  0
   58.4649   32.7670   49.2306 H   0  0  0  0  0  0  0  0  0  0  0  0
   57.4787   33.3926   47.0295 H   0  0  0  0  0  0  0  0  0  0  0  0
   58.4954   35.4372   44.8707 H   0  0  0  0  0  0  0  0  0  0  0  0
   59.5345   34.1841   44.0597 H   0  0  0  0  0  0  0  0  0  0  0  0
   57.2550   33.0400   45.3420 H   0  0  0  0  0  0  0  0  0  0  0  0
   57.3050   33.1682   42.4615 H   0  0  0  0  0  0  0  0  0  0  0  0
   58.8529   32.5570   43.1907 H   0  0  0  0  0  0  0  0  0  0  0  0
   58.9417   30.8674   46.5500 H   0  0  0  0  0  0  0  0  0  0  0  0
   59.8855   28.8926   47.7423 H   0  0  0  0  0  0  0  0  0  0  0  0
   58.8856   26.6334   47.4107 H   0  0  0  0  0  0  0  0  0  0  0  0
   58.0380   25.0650   44.1740 H   0  0  0  0  0  0  0  0  0  0  0  0
   56.6510   25.7800   43.5660 H   0  0  0  0  0  0  0  0  0  0  0  0
   55.9915   28.3169   44.6664 H   0  0  0  0  0  0  0  0  0  0  0  0
   61.4055   34.5132   45.5922 H   0  0  0  0  0  0  0  0  0  0  0  0
  1  2  1  0
  2  3  1  0
  3  4  2  0
  4  5  1  0
  5  6  2  0
  6  7  1  0
  7  8  1  0
  8  9  1  0
  9 10  1  0
 10 11  1  0
 11 12  2  0
 11 13  1  0
 13 14  1  0
 14 15  2  0
 15 16  1  0
 16 17  2  0
 17 18  1  0
 18 19  1  0
 19 20  1  0
 19 21  2  0
 19 22  2  0
 18 23  2  0
  7 24  2  0
 24  3  1  0
 23 14  1  0
  1 25  1  0
  1 26  1  0
  1 27  1  0
  4 28  1  0
  5 29  1  0
  6 30  1  0
  8 31  1  0
  8 32  1  0
  9 33  1  0
 10 34  1  0
 10 35  1  0
 15 36  1  0
 16 37  1  0
 17 38  1  0
 20 39  1  0
 20 40  1  0
 23 41  1  0
 24 42  1  0
M  CHG  1  13  -1
M  END
>  <UniqueID>  (94) 
85

>  <SMILES>  (94) 
COc1cccc(CNCC(=O)[N-]c2cccc(S(N)(=O)=O)c2)c1

>  <Energy>  (94) 
38.19704122674069

>  <Genealogy>  (94) 
COc1cccc(CNCC(=O)[N-]c2cccc(S(N)(=O)=O)c2)c1 (protonated)
COc1cccc(CNCC(=O)[N-]c2cccc(S(N)(=O)=O)c2)c1 (3D coordinates assigned)
COc1cccc(CNCC(=O)[N-]c2cccc(S(N)(=O)=O)c2)c1 (optimized conformer: 38.19704122674069 kcal/mol)

>  <smiles>  (94) 
COc1cccc(CNCC(=O)Nc2cccc(S(N)(=O)=O)c2)c1

>  <score_type>  (94) 
oracle

>  <origin>  (94) 
adg

>  <m_score__min__energy>  (94) 
-8.8499999999999996

>  <m_primary>  (94) 
energy

$$$$
94:0
     RDKit          3D

 51 54  0  0  0  0  0  0  0  0999 V2000
   58.2120   32.9190   43.8190 C   0  0  0  0  0  0  0  0  0  0  0  0
   58.6000   33.2830   45.2220 C   0  0  0  0  0  0  0  0  0  0  0  0
   58.8600   34.6170   45.5540 C   0  0  0  0  0  0  0  0  0  0  0  0
   59.1700   34.9680   46.8670 C   0  0  0  0  0  0  0  0  0  0  0  0
   59.2210   33.9900   47.8710 C   0  0  0  0  0  0  0  0  0  0  0  0
   59.5070   34.3450   49.1510 N   0  0  0  0  0  0  0  0  0  0  0  0
   59.5240   33.4240   50.1510 C   0  0  0  0  0  0  0  0  0  0  0  0
   59.7730   33.8560   51.5680 C   0  0  0  0  0  0  0  0  0  0  0  0
   59.2400   32.0810   49.8600 C   0  0  0  0  0  0  0  0  0  0  0  0
   59.1770   31.1650   50.9210 O   0  0  0  0  0  0  0  0  0  0  0  0
   57.9930   30.8190   51.5900 C   0  0  0  0  0  0  0  0  0  0  0  0
   56.7960   31.5380   51.4160 C   0  0  0  0  0  0  0  0  0  0  0  0
   55.6380   31.1530   52.0960 C   0  0  0  0  0  0  0  0  0  0  0  0
   55.6550   30.0380   52.9510 C   0  0  0  0  0  0  0  0  0  0  0  0
   54.4890   29.6220   53.6770 N   0  0  0  0  0  0  0  0  0  0  0  0
   53.4960   28.7020   53.2120 C   0  0  0  0  0  0  0  0  0  0  0  0
   53.5800   27.4950   53.5580 O   0  0  0  0  0  0  0  0  0  0  0  0
   52.5150   29.1250   52.2510 N   0  0  0  0  0  0  0  0  0  0  0  0
   52.0620   30.3270   52.0140 C   0  0  0  0  0  0  0  0  0  0  0  0
   52.2480   30.9970   50.7860 C   0  0  0  0  0  0  0  0  0  0  0  0
   51.7190   32.2790   50.6140 C   0  0  0  0  0  0  0  0  0  0  0  0
   51.0190   32.8710   51.6160 N   0  0  0  0  0  0  0  0  0  0  0  0
   50.8090   32.2440   52.8020 C   0  0  0  0  0  0  0  0  0  0  0  0
   51.3200   30.9630   53.0180 C   0  0  0  0  0  0  0  0  0  0  0  0
   56.8560   29.3480   53.1510 C   0  0  0  0  0  0  0  0  0  0  0  0
   58.0150   29.7320   52.4690 C   0  0  0  0  0  0  0  0  0  0  0  0
   59.0280   31.6840   48.5600 N   0  0  0  0  0  0  0  0  0  0  0  0
   58.8850   30.2480   48.2500 C   0  0  0  0  0  0  0  0  0  0  0  0
   58.9630   32.6320   47.5580 C   0  0  0  0  0  0  0  0  0  0  0  0
   58.6320   32.3000   46.2220 C   0  0  0  0  0  0  0  0  0  0  0  0
   57.4100   32.1666   43.8439 H   0  0  0  0  0  0  0  0  0  0  0  0
   57.8563   33.8168   43.2923 H   0  0  0  0  0  0  0  0  0  0  0  0
   59.0853   32.5068   43.2923 H   0  0  0  0  0  0  0  0  0  0  0  0
   58.8196   35.3927   44.7751 H   0  0  0  0  0  0  0  0  0  0  0  0
   59.3760   36.0191   47.1173 H   0  0  0  0  0  0  0  0  0  0  0  0
   59.6970   35.3470   49.3770 H   0  0  0  0  0  0  0  0  0  0  0  0
   59.3452   33.1139   52.2581 H   0  0  0  0  0  0  0  0  0  0  0  0
   60.8562   33.9367   51.7418 H   0  0  0  0  0  0  0  0  0  0  0  0
   59.2999   34.8337   51.7418 H   0  0  0  0  0  0  0  0  0  0  0  0
   56.7720   32.4068   50.7418 H   0  0  0  0  0  0  0  0  0  0  0  0
   54.7084   31.7255   51.9615 H   0  0  0  0  0  0  0  0  0  0  0  0
   52.8054   30.5136   49.9701 H   0  0  0  0  0  0  0  0  0  0  0  0
   51.8702   32.8108   49.6631 H   0  0  0  0  0  0  0  0  0  0  0  0
   50.2349   32.7466   53.5943 H   0  0  0  0  0  0  0  0  0  0  0  0
   51.1402   30.4532   53.9760 H   0  0  0  0  0  0  0  0  0  0  0  0
   56.8886   28.4984   53.8489 H   0  0  0  0  0  0  0  0  0  0  0  0
   58.9505   29.1749   52.6253 H   0  0  0  0  0  0  0  0  0  0  0  0
   58.8279   29.6745   49.1870 H   0  0  0  0  0  0  0  0  0  0  0  0
   57.9665   30.0886   47.6660 H   0  0  0  0  0  0  0  0  0  0  0  0
   59.7540   29.9106   47.6660 H   0  0  0  0  0  0  0  0  0  0  0  0
   58.3967   31.2567   45.9647 H   0  0  0  0  0  0  0  0  0  0  0  0
  1  2  1  0
  2  3  2  0
  3  4  1  0
  4  5  2  0
  5  6  1  0
  6  7  2  0
  7  8  1  0
  7  9  1  0
  9 10  1  0
 10 11  1  0
 11 12  2  0
 12 13  1  0
 13 14  2  0
 14 15  1  0
 15 16  1  0
 16 17  2  0
 16 18  1  0
 18 19  2  3
 19 20  1  0
 20 21  2  0
 21 22  1  0
 22 23  1  0
 23 24  2  0
 14 25  1  0
 25 26  2  0
  9 27  2  0
 27 28  1  0
 27 29  1  0
 29 30  2  0
 30  2  1  0
 29  5  1  0
 26 11  1  0
 24 19  1  0
  1 31  1  0
  1 32  1  0
  1 33  1  0
  3 34  1  0
  4 35  1  0
  6 36  1  0
  8 37  1  0
  8 38  1  0
  8 39  1  0
 12 40  1  0
 13 41  1  0
 20 42  1  0
 21 43  1  0
 23 44  1  0
 24 45  1  0
 25 46  1  0
 26 47  1  0
 28 48  1  0
 28 49  1  0
 28 50  1  0
 30 51  1  0
M  CHG  4   6   1  15  -1  22  -1  27   1
M  END
>  <UniqueID>  (95) 
86

>  <SMILES>  (95) 
Cc1ccc2[nH+]c(C)c(Oc3ccc([N-]C(=O)N=c4cc[n-]cc4)cc3)[n+](C)c2c1

>  <Energy>  (95) 
82.70056686247263

>  <Genealogy>  (95) 
Cc1ccc2[nH+]c(C)c(Oc3ccc([N-]C(=O)N=c4cc[n-]cc4)cc3)[n+](C)c2c1 (protonated)
Cc1ccc2[nH+]c(C)c(Oc3ccc([N-]C(=O)N=c4cc[n-]cc4)cc3)[n+](C)c2c1 (3D coordinates assigned)
Cc1ccc2[nH+]c(C)c(Oc3ccc([N-]C(=O)N=c4cc[n-]cc4)cc3)[n+](C)c2c1 (optimized conformer: 82.70056686247263 kcal/mol)

>  <smiles>  (95) 
Cc1ccc2nc(C)c(Oc3ccc(NC(=O)N=c4cc[nH]cc4)cc3)[n+](C)c2c1

>  <score_type>  (95) 
oracle

>  <origin>  (95) 
adg

>  <m_score__min__energy>  (95) 
-9.6500000000000004

>  <m_primary>  (95) 
energy

$$$$
95:0
     RDKit          3D

 40 42  0  0  0  0  0  0  0  0999 V2000
   56.8340   29.2800   42.8200 N   0  0  0  0  0  0  0  0  0  0  0  0
   56.4950   29.8720   44.4090 S   0  0  0  0  0  0  0  0  0  0  0  0
   55.1670   29.3450   44.8720 O   0  0  0  0  0  0  0  0  0  0  0  0
   56.4580   31.3740   44.3780 O   0  0  0  0  0  0  0  0  0  0  0  0
   57.7520   29.3400   45.5080 C   0  0  0  0  0  0  0  0  0  0  0  0
   58.3050   30.1000   46.5250 C   0  0  0  0  0  0  0  0  0  0  0  0
   59.2850   29.4080   47.2560 C   0  0  0  0  0  0  0  0  0  0  0  0
   60.0280   29.9910   48.3940 C   0  0  0  0  0  0  0  0  0  0  0  0
   60.5260   29.2270   49.2620 O   0  0  0  0  0  0  0  0  0  0  0  0
   60.2460   31.4030   48.5140 N   0  0  0  0  0  0  0  0  0  0  0  0
   61.4020   32.1200   48.0560 C   0  0  0  0  0  0  0  0  0  0  0  0
   62.6940   31.7250   48.4500 C   0  0  0  0  0  0  0  0  0  0  0  0
   63.8180   32.4000   47.9680 C   0  0  0  0  0  0  0  0  0  0  0  0
   63.6660   33.4600   47.0740 C   0  0  0  0  0  0  0  0  0  0  0  0
   62.3900   33.8480   46.6590 C   0  0  0  0  0  0  0  0  0  0  0  0
   61.2520   33.1850   47.1430 C   0  0  0  0  0  0  0  0  0  0  0  0
   59.9490   33.6240   46.7190 N   0  0  0  0  0  0  0  0  0  0  0  0
   59.7180   34.0880   45.3490 C   0  0  0  0  0  0  0  0  0  0  0  0
   58.3170   33.6600   44.9000 C   0  0  0  0  0  0  0  0  0  0  0  0
   57.3400   34.0730   45.8370 O   0  0  0  0  0  0  0  0  0  0  0  0
   57.5400   33.4010   47.0690 C   0  0  0  0  0  0  0  0  0  0  0  0
   58.8770   33.8040   47.6980 C   0  0  0  0  0  0  0  0  0  0  0  0
   59.5150   28.1170   46.7850 C   0  0  0  0  0  0  0  0  0  0  0  0
   58.4830   27.8290   45.4870 S   0  0  0  0  0  0  0  0  0  0  0  0
   57.8600   29.3900   42.6640 H   0  0  0  0  0  0  0  0  0  0  0  0
   56.6380   28.2530   42.8280 H   0  0  0  0  0  0  0  0  0  0  0  0
   58.0079   31.1374   46.7382 H   0  0  0  0  0  0  0  0  0  0  0  0
   62.8196   30.8792   49.1420 H   0  0  0  0  0  0  0  0  0  0  0  0
   64.8236   32.0955   48.2936 H   0  0  0  0  0  0  0  0  0  0  0  0
   64.5520   33.9908   46.6955 H   0  0  0  0  0  0  0  0  0  0  0  0
   62.2764   34.6793   45.9476 H   0  0  0  0  0  0  0  0  0  0  0  0
   59.7962   35.1847   45.3142 H   0  0  0  0  0  0  0  0  0  0  0  0
   60.4708   33.6478   44.6785 H   0  0  0  0  0  0  0  0  0  0  0  0
   58.0961   34.1166   43.9239 H   0  0  0  0  0  0  0  0  0  0  0  0
   58.2911   32.5629   44.8246 H   0  0  0  0  0  0  0  0  0  0  0  0
   56.7238   33.6620   47.7587 H   0  0  0  0  0  0  0  0  0  0  0  0
   57.5512   32.3172   46.8815 H   0  0  0  0  0  0  0  0  0  0  0  0
   58.8345   34.8592   48.0057 H   0  0  0  0  0  0  0  0  0  0  0  0
   59.0736   33.1738   48.5779 H   0  0  0  0  0  0  0  0  0  0  0  0
   60.2480   27.4055   47.1930 H   0  0  0  0  0  0  0  0  0  0  0  0
  1  2  1  0
  2  3  2  0
  2  4  2  0
  2  5  1  0
  5  6  2  0
  6  7  1  0
  7  8  1  0
  8  9  2  0
  8 10  1  0
 10 11  1  0
 11 12  2  0
 12 13  1  0
 13 14  2  0
 14 15  1  0
 15 16  2  0
 16 17  1  0
 17 18  1  0
 18 19  1  0
 19 20  1  0
 20 21  1  0
 21 22  1  0
  7 23  2  0
 23 24  1  0
 24  5  1  0
 16 11  1  0
 22 17  1  0
  1 25  1  0
  1 26  1  0
  6 27  1  0
 12 28  1  0
 13 29  1  0
 14 30  1  0
 15 31  1  0
 18 32  1  0
 18 33  1  0
 19 34  1  0
 19 35  1  0
 21 36  1  0
 21 37  1  0
 22 38  1  0
 22 39  1  0
 23 40  1  0
M  CHG  1  10  -1
M  END
>  <UniqueID>  (96) 
87

>  <SMILES>  (96) 
NS(=O)(=O)c1cc(C(=O)[N-]c2ccccc2N2CCOCC2)cs1

>  <Energy>  (96) 
76.99682694792412

>  <Genealogy>  (96) 
NS(=O)(=O)c1cc(C(=O)[N-]c2ccccc2N2CCOCC2)cs1 (protonated)
NS(=O)(=O)c1cc(C(=O)[N-]c2ccccc2N2CCOCC2)cs1 (3D coordinates assigned)
NS(=O)(=O)c1cc(C(=O)[N-]c2ccccc2N2CCOCC2)cs1 (nonaromatic ring conformer: 76.99682694792412 kcal/mol)

>  <smiles>  (96) 
NS(=O)(=O)c1cc(C(=O)Nc2ccccc2N2CCOCC2)cs1

>  <score_type>  (96) 
oracle

>  <origin>  (96) 
adg

>  <m_score__min__energy>  (96) 
-9.5999999999999996

>  <m_primary>  (96) 
energy

$$$$
96:0
     RDKit          3D

 58 61  0  0  0  0  0  0  0  0999 V2000
   58.2170   30.1680   42.9600 H   0  0  0  0  0  0  0  0  0  0  0  0
   57.6100   30.6110   43.6390 O   0  0  0  0  0  0  0  0  0  0  0  0
   58.0900   31.5720   44.5260 C   0  0  0  0  0  0  0  0  0  0  0  0
   57.8240   32.9310   44.3200 C   0  0  0  0  0  0  0  0  0  0  0  0
   57.2283   33.2475   43.4511 H   0  0  0  0  0  0  0  0  0  0  0  0
   58.3130   33.8870   45.2150 C   0  0  0  0  0  0  0  0  0  0  0  0
   58.0912   34.9521   45.0526 H   0  0  0  0  0  0  0  0  0  0  0  0
   59.0870   33.4950   46.3220 C   0  0  0  0  0  0  0  0  0  0  0  0
   59.6190   34.4970   47.2750 C   0  0  0  0  0  0  0  0  0  0  0  0
   59.4310   35.7230   47.0340 O   0  0  0  0  0  0  0  0  0  0  0  0
   60.3350   34.1020   48.5190 C   0  0  0  0  0  0  0  0  0  0  0  0
   59.6590   34.0920   49.6880 C   0  0  0  0  0  0  0  0  0  0  0  0
   59.6337   35.0307   50.2609 H   0  0  0  0  0  0  0  0  0  0  0  0
   58.9480   32.9270   50.2670 C   0  0  0  0  0  0  0  0  0  0  0  0
   58.3020   33.0000   51.5110 C   0  0  0  0  0  0  0  0  0  0  0  0
   58.2428   33.9625   52.0403 H   0  0  0  0  0  0  0  0  0  0  0  0
   57.7340   31.8590   52.0810 C   0  0  0  0  0  0  0  0  0  0  0  0
   57.2145   31.9327   53.0478 H   0  0  0  0  0  0  0  0  0  0  0  0
   57.8210   30.6150   51.4280 C   0  0  0  0  0  0  0  0  0  0  0  0
   57.3020   29.4260   51.9760 O   0  0  0  0  0  0  0  0  0  0  0  0
   56.9840   29.1880   53.3500 C   0  0  0  0  0  0  0  0  0  0  0  0
   56.6454   28.1478   53.4658 H   0  0  0  0  0  0  0  0  0  0  0  0
   57.8848   29.3699   53.9545 H   0  0  0  0  0  0  0  0  0  0  0  0
   55.8770   30.1310   53.8290 C   0  0  0  0  0  0  0  0  0  0  0  0
   55.4818   29.7611   54.7866 H   0  0  0  0  0  0  0  0  0  0  0  0
   56.3067   31.1369   53.9453 H   0  0  0  0  0  0  0  0  0  0  0  0
   54.7850   30.2080   52.8630 N   0  0  0  0  0  0  0  0  0  0  0  0
   54.5620   31.2140   51.9950 C   0  0  0  0  0  0  0  0  0  0  0  0
   55.1934   32.1080   51.8849 H   0  0  0  0  0  0  0  0  0  0  0  0
   53.4220   30.9520   51.2660 C   0  0  0  0  0  0  0  0  0  0  0  0
   52.9853   31.5851   50.4796 H   0  0  0  0  0  0  0  0  0  0  0  0
   52.9340   29.7390   51.7150 C   0  0  0  0  0  0  0  0  0  0  0  0
   52.0331   29.2195   51.3565 H   0  0  0  0  0  0  0  0  0  0  0  0
   53.7980   29.3070   52.7010 C   0  0  0  0  0  0  0  0  0  0  0  0
   53.6957   28.3698   53.2677 H   0  0  0  0  0  0  0  0  0  0  0  0
   58.4700   30.5330   50.1860 C   0  0  0  0  0  0  0  0  0  0  0  0
   58.5360   29.2820   49.5530 O   0  0  0  0  0  0  0  0  0  0  0  0
   59.5410   28.9010   48.6190 C   0  0  0  0  0  0  0  0  0  0  0  0
   60.4359   28.5617   49.1613 H   0  0  0  0  0  0  0  0  0  0  0  0
   59.1634   28.0836   47.9871 H   0  0  0  0  0  0  0  0  0  0  0  0
   59.8001   29.7633   47.9871 H   0  0  0  0  0  0  0  0  0  0  0  0
   59.0360   31.6900   49.6160 C   0  0  0  0  0  0  0  0  0  0  0  0
   59.5535   31.6212   48.6477 H   0  0  0  0  0  0  0  0  0  0  0  0
   61.7700   33.7320   48.4300 C   0  0  0  0  0  0  0  0  0  0  0  0
   62.4040   33.6720   47.1770 C   0  0  0  0  0  0  0  0  0  0  0  0
   61.8229   33.8527   46.2607 H   0  0  0  0  0  0  0  0  0  0  0  0
   63.7690   33.3840   47.0890 C   0  0  0  0  0  0  0  0  0  0  0  0
   64.2562   33.3249   46.1046 H   0  0  0  0  0  0  0  0  0  0  0  0
   64.5150   33.1710   48.2520 C   0  0  0  0  0  0  0  0  0  0  0  0
   65.5896   32.9465   48.1823 H   0  0  0  0  0  0  0  0  0  0  0  0
   63.8970   33.2430   49.5020 C   0  0  0  0  0  0  0  0  0  0  0  0
   64.4886   33.0884   50.4164 H   0  0  0  0  0  0  0  0  0  0  0  0
   62.5290   33.5110   49.5940 C   0  0  0  0  0  0  0  0  0  0  0  0
   62.0433   33.5494   50.5802 H   0  0  0  0  0  0  0  0  0  0  0  0
   59.3330   32.1270   46.5330 C   0  0  0  0  0  0  0  0  0  0  0  0
   59.9157   31.8047   47.4085 H   0  0  0  0  0  0  0  0  0  0  0  0
   58.8410   31.1740   45.6360 C   0  0  0  0  0  0  0  0  0  0  0  0
   59.0457   30.1064   45.8044 H   0  0  0  0  0  0  0  0  0  0  0  0
  1  2  1  0
  2  3  1  0
  3  4  2  0
  4  5  1  0
  4  6  1  0
  6  7  1  0
  6  8  2  0
  8  9  1  0
  9 10  2  0
  9 11  1  0
 11 12  2  0
 12 13  1  0
 12 14  1  0
 14 15  2  0
 15 16  1  0
 15 17  1  0
 17 18  1  0
 17 19  2  0
 19 20  1  0
 20 21  1  0
 21 22  1  0
 21 23  1  0
 21 24  1  0
 24 25  1  0
 24 26  1  0
 24 27  1  0
 27 28  1  0
 28 29  1  0
 28 30  2  0
 30 31  1  0
 30 32  1  0
 32 33  1  0
 32 34  2  0
 34 35  1  0
 19 36  1  0
 36 37  1  0
 37 38  1  0
 38 39  1  0
 38 40  1  0
 38 41  1  0
 36 42  2  0
 42 43  1  0
 11 44  1  0
 44 45  2  0
 45 46  1  0
 45 47  1  0
 47 48  1  0
 47 49  2  0
 49 50  1  0
 49 51  1  0
 51 52  1  0
 51 53  2  0
 53 54  1  0
  8 55  1  0
 55 56  1  0
 55 57  2  0
 57 58  1  0
 57  3  1  0
 42 14  1  0
 53 44  1  0
 34 27  1  0
M  END
>  <UniqueID>  (97) 
88

>  <SMILES>  (97) 
COc1cc(/C=C(/C(=O)c2ccc(O)cc2)c2ccccc2)ccc1OCCn1cccc1

>  <Energy>  (97) 
98.48139298351096

>  <Genealogy>  (97) 
COc1cc(/C=C(/C(=O)c2ccc(O)cc2)c2ccccc2)ccc1OCCn1cccc1 (cis-trans isomerization)
COc1cc(/C=C(/C(=O)c2ccc(O)cc2)c2ccccc2)ccc1OCCn1cccc1 (3D coordinates assigned)
COc1cc(/C=C(/C(=O)c2ccc(O)cc2)c2ccccc2)ccc1OCCn1cccc1 (optimized conformer: 98.48139298351096 kcal/mol)

>  <smiles>  (97) 
COc1cc(C=C(C(=O)c2ccc(O)cc2)c2ccccc2)ccc1OCCn1cccc1

>  <score_type>  (97) 
oracle

>  <origin>  (97) 
adg

>  <m_score__min__energy>  (97) 
-8.6099999999999994

>  <m_primary>  (97) 
energy

$$$$
97:0
     RDKit          3D

 55 59  0  0  0  0  0  0  0  0999 V2000
   54.3900   26.7040   46.7820 H   0  0  0  0  0  0  0  0  0  0  0  0
   54.3490   26.2330   45.8880 O   0  0  0  0  0  0  0  0  0  0  0  0
   55.1550   25.1380   45.5860 C   0  0  0  0  0  0  0  0  0  0  0  0
   54.6130   24.0990   44.8200 C   0  0  0  0  0  0  0  0  0  0  0  0
   53.5666   24.1552   44.4854 H   0  0  0  0  0  0  0  0  0  0  0  0
   55.3920   22.9920   44.4780 C   0  0  0  0  0  0  0  0  0  0  0  0
   54.9610   22.1838   43.8688 H   0  0  0  0  0  0  0  0  0  0  0  0
   56.7160   22.9100   44.9080 C   0  0  0  0  0  0  0  0  0  0  0  0
   57.3275   22.0358   44.6399 H   0  0  0  0  0  0  0  0  0  0  0  0
   57.2670   23.9370   45.6790 C   0  0  0  0  0  0  0  0  0  0  0  0
   58.3090   23.8621   46.0234 H   0  0  0  0  0  0  0  0  0  0  0  0
   56.4970   25.0690   46.0190 C   0  0  0  0  0  0  0  0  0  0  0  0
   57.0310   26.1080   46.8580 N   0  0  0  0  0  0  0  0  0  0  0  0
   58.1070   26.7850   46.5950 C   0  0  0  0  0  0  0  0  0  0  0  0
   59.0085   26.2528   46.2572 H   0  0  0  0  0  0  0  0  0  0  0  0
   58.1470   28.2500   46.7390 C   0  0  0  0  0  0  0  0  0  0  0  0
   58.8770   29.0400   47.6200 C   0  0  0  0  0  0  0  0  0  0  0  0
   59.7610   28.5840   48.7000 C   0  0  0  0  0  0  0  0  0  0  0  0
   60.1790   29.4730   49.6940 C   0  0  0  0  0  0  0  0  0  0  0  0
   59.8416   30.5197   49.6697 H   0  0  0  0  0  0  0  0  0  0  0  0
   61.0240   29.0380   50.7190 C   0  0  0  0  0  0  0  0  0  0  0  0
   61.3449   29.7442   51.4990 H   0  0  0  0  0  0  0  0  0  0  0  0
   61.4670   27.7030   50.7600 C   0  0  0  0  0  0  0  0  0  0  0  0
   62.3450   27.2350   51.8610 C   0  0  0  0  0  0  0  0  0  0  0  0
   62.6740   25.8720   51.9810 C   0  0  0  0  0  0  0  0  0  0  0  0
   62.2848   25.1494   51.2486 H   0  0  0  0  0  0  0  0  0  0  0  0
   63.4930   25.4300   53.0260 C   0  0  0  0  0  0  0  0  0  0  0  0
   63.7448   24.3627   53.1124 H   0  0  0  0  0  0  0  0  0  0  0  0
   63.9910   26.3410   53.9590 C   0  0  0  0  0  0  0  0  0  0  0  0
   64.6340   25.9913   54.7801 H   0  0  0  0  0  0  0  0  0  0  0  0
   63.6730   27.6960   53.8500 C   0  0  0  0  0  0  0  0  0  0  0  0
   64.0673   28.4130   54.5851 H   0  0  0  0  0  0  0  0  0  0  0  0
   62.8540   28.1440   52.8080 C   0  0  0  0  0  0  0  0  0  0  0  0
   62.6063   29.2128   52.7281 H   0  0  0  0  0  0  0  0  0  0  0  0
   61.0570   26.8200   49.7460 C   0  0  0  0  0  0  0  0  0  0  0  0
   61.3987   25.7745   49.7613 H   0  0  0  0  0  0  0  0  0  0  0  0
   60.2180   27.2610   48.7180 C   0  0  0  0  0  0  0  0  0  0  0  0
   59.9161   26.5659   47.9207 H   0  0  0  0  0  0  0  0  0  0  0  0
   58.7170   30.3440   47.3050 N   0  0  0  0  0  0  0  0  0  0  0  0
   57.8950   30.4130   46.2680 N   0  0  0  0  0  0  0  0  0  0  0  0
   57.5230   31.6390   45.6160 C   0  0  0  0  0  0  0  0  0  0  0  0
   56.5740   31.6360   44.7840 O   0  0  0  0  0  0  0  0  0  0  0  0
   58.2440   32.9050   45.8800 C   0  0  0  0  0  0  0  0  0  0  0  0
   58.5680   33.7660   44.8160 C   0  0  0  0  0  0  0  0  0  0  0  0
   58.2864   33.4939   43.7881 H   0  0  0  0  0  0  0  0  0  0  0  0
   59.2460   34.9660   45.0560 C   0  0  0  0  0  0  0  0  0  0  0  0
   59.5044   35.6287   44.2170 H   0  0  0  0  0  0  0  0  0  0  0  0
   59.5950   35.3230   46.3610 C   0  0  0  0  0  0  0  0  0  0  0  0
   60.1328   36.2640   46.5487 H   0  0  0  0  0  0  0  0  0  0  0  0
   59.2610   34.4850   47.4270 C   0  0  0  0  0  0  0  0  0  0  0  0
   59.5294   34.7709   48.4547 H   0  0  0  0  0  0  0  0  0  0  0  0
   58.5860   33.2830   47.1910 C   0  0  0  0  0  0  0  0  0  0  0  0
   58.3211   32.6296   48.0353 H   0  0  0  0  0  0  0  0  0  0  0  0
   57.5510   29.1640   45.8970 C   0  0  0  0  0  0  0  0  0  0  0  0
   56.7290   28.8580   44.8180 O   0  0  0  0  0  0  0  0  0  0  0  0
  1  2  1  0
  2  3  1  0
  3  4  2  0
  4  5  1  0
  4  6  1  0
  6  7  1  0
  6  8  2  0
  8  9  1  0
  8 10  1  0
 10 11  1  0
 10 12  2  0
 12 13  1  0
 13 14  2  0
 14 15  1  0
 14 16  1  0
 16 17  1  0
 17 18  1  0
 18 19  2  0
 19 20  1  0
 19 21  1  0
 21 22  1  0
 21 23  2  0
 23 24  1  0
 24 25  2  0
 25 26  1  0
 25 27  1  0
 27 28  1  0
 27 29  2  0
 29 30  1  0
 29 31  1  0
 31 32  1  0
 31 33  2  0
 33 34  1  0
 23 35  1  0
 35 36  1  0
 35 37  2  0
 37 38  1  0
 17 39  2  0
 39 40  1  0
 40 41  1  0
 41 42  2  0
 41 43  1  0
 43 44  2  0
 44 45  1  0
 44 46  1  0
 46 47  1  0
 46 48  2  0
 48 49  1  0
 48 50  1  0
 50 51  1  0
 50 52  2  0
 52 53  1  0
 40 54  1  0
 54 55  1  0
 12  3  1  0
 54 16  2  0
 37 18  1  0
 52 43  1  0
 33 24  1  0
M  CHG  1  55  -1
M  END
>  <UniqueID>  (98) 
89

>  <SMILES>  (98) 
O=C(c1ccccc1)n1nc(-c2ccc(-c3ccccc3)cc2)c(/C=N/c2ccccc2O)c1[O-]

>  <Energy>  (98) 
113.42631200991212

>  <Genealogy>  (98) 
O=C(c1ccccc1)n1nc(-c2ccc(-c3ccccc3)cc2)c(C=Nc2ccccc2O)c1[O-] (protonated)
O=C(c1ccccc1)n1nc(-c2ccc(-c3ccccc3)cc2)c(/C=N/c2ccccc2O)c1[O-] (cis-trans isomerization)
O=C(c1ccccc1)n1nc(-c2ccc(-c3ccccc3)cc2)c(/C=N/c2ccccc2O)c1[O-] (3D coordinates assigned)
O=C(c1ccccc1)n1nc(-c2ccc(-c3ccccc3)cc2)c(/C=N/c2ccccc2O)c1[O-] (optimized conformer: 113.42631200991212 kcal/mol)

>  <smiles>  (98) 
O=C(c1ccccc1)n1nc(-c2ccc(-c3ccccc3)cc2)c(C=Nc2ccccc2O)c1O

>  <score_type>  (98) 
oracle

>  <origin>  (98) 
adg

>  <m_score__min__energy>  (98) 
-12.380000000000001

>  <m_primary>  (98) 
energy

$$$$
