0:0
     RDKit          3D

 61 64  0  0  0  0  0  0  0  0999 V2000
   56.9130   21.5280   43.5880 C   0  0  0  0  0  0  0  0  0  0  0  0
   56.5790   22.4420   44.6780 N   0  0  0  0  0  0  0  0  0  0  0  0
   55.2050   22.7260   44.9860 C   0  0  0  0  0  0  0  0  0  0  0  0
   54.5060   23.7060   44.2610 C   0  0  0  0  0  0  0  0  0  0  0  0
   53.1790   24.0040   44.5780 C   0  0  0  0  0  0  0  0  0  0  0  0
   52.5370   23.3240   45.6180 C   0  0  0  0  0  0  0  0  0  0  0  0
   53.2230   22.3440   46.3390 C   0  0  0  0  0  0  0  0  0  0  0  0
   54.5510   22.0430   46.0250 C   0  0  0  0  0  0  0  0  0  0  0  0
   57.8530   23.1320   45.6400 S   0  0  0  0  0  0  0  0  0  0  0  0
   57.7610   22.6450   47.0590 O   0  0  0  0  0  0  0  0  0  0  0  0
   59.1800   22.6990   45.0800 O   0  0  0  0  0  0  0  0  0  0  0  0
   57.7290   24.8890   45.6280 C   0  0  0  0  0  0  0  0  0  0  0  0
   57.4770   25.5800   46.8190 C   0  0  0  0  0  0  0  0  0  0  0  0
   57.3860   26.9760   46.8180 C   0  0  0  0  0  0  0  0  0  0  0  0
   57.5610   27.6990   45.6300 C   0  0  0  0  0  0  0  0  0  0  0  0
   57.4450   29.1320   45.6540 N   0  0  0  0  0  0  0  0  0  0  0  0
   56.7750   29.9080   44.6500 C   0  0  0  0  0  0  0  0  0  0  0  0
   56.4070   29.3790   43.5660 O   0  0  0  0  0  0  0  0  0  0  0  0
   56.5590   31.3020   44.8730 N   0  0  0  0  0  0  0  0  0  0  0  0
   57.3760   32.3390   44.2560 C   0  0  0  0  0  0  0  0  0  0  0  0
   58.5520   32.6390   45.1390 C   0  0  0  0  0  0  0  0  0  0  0  0
   59.1220   31.6340   45.9320 C   0  0  0  0  0  0  0  0  0  0  0  0
   60.1900   31.9290   46.7870 C   0  0  0  0  0  0  0  0  0  0  0  0
   60.6950   33.2380   46.8690 C   0  0  0  0  0  0  0  0  0  0  0  0
   61.7950   33.5400   47.7500 N   0  0  0  0  0  0  0  0  0  0  0  0
   63.1730   33.3020   47.3050 C   0  0  0  0  0  0  0  0  0  0  0  0
   64.1500   33.4870   48.4640 C   0  0  0  0  0  0  0  0  0  0  0  0
   63.5910   32.9340   49.6350 O   0  0  0  0  0  0  0  0  0  0  0  0
   62.5560   33.7710   50.1210 C   0  0  0  0  0  0  0  0  0  0  0  0
   61.5490   34.2210   49.0310 C   0  0  0  0  0  0  0  0  0  0  0  0
   60.1190   34.2430   46.0740 C   0  0  0  0  0  0  0  0  0  0  0  0
   59.0520   33.9470   45.2220 C   0  0  0  0  0  0  0  0  0  0  0  0
   57.7820   26.9980   44.4300 C   0  0  0  0  0  0  0  0  0  0  0  0
   57.8700   25.6030   44.4310 C   0  0  0  0  0  0  0  0  0  0  0  0
   57.2623   20.5720   44.0052 H   0  0  0  0  0  0  0  0  0  0  0  0
   56.0205   21.3537   42.9691 H   0  0  0  0  0  0  0  0  0  0  0  0
   57.7076   21.9702   42.9691 H   0  0  0  0  0  0  0  0  0  0  0  0
   55.0063   24.2408   43.4402 H   0  0  0  0  0  0  0  0  0  0  0  0
   52.6380   24.7745   44.0091 H   0  0  0  0  0  0  0  0  0  0  0  0
   51.4923   23.5609   45.8680 H   0  0  0  0  0  0  0  0  0  0  0  0
   52.7170   21.8081   47.1555 H   0  0  0  0  0  0  0  0  0  0  0  0
   55.0864   21.2683   46.5935 H   0  0  0  0  0  0  0  0  0  0  0  0
   57.3501   25.0233   47.7592 H   0  0  0  0  0  0  0  0  0  0  0  0
   57.1756   27.5101   47.7563 H   0  0  0  0  0  0  0  0  0  0  0  0
   57.9430   29.6550   46.4110 H   0  0  0  0  0  0  0  0  0  0  0  0
   57.7328   31.9902   43.2757 H   0  0  0  0  0  0  0  0  0  0  0  0
   56.7743   33.2503   44.1235 H   0  0  0  0  0  0  0  0  0  0  0  0
   58.7281   30.6082   45.8822 H   0  0  0  0  0  0  0  0  0  0  0  0
   60.6369   31.1314   47.3986 H   0  0  0  0  0  0  0  0  0  0  0  0
   63.2570   32.2744   46.9215 H   0  0  0  0  0  0  0  0  0  0  0  0
   63.4204   34.0243   46.5131 H   0  0  0  0  0  0  0  0  0  0  0  0
   65.0967   32.9771   48.2320 H   0  0  0  0  0  0  0  0  0  0  0  0
   64.3426   34.5591   48.6173 H   0  0  0  0  0  0  0  0  0  0  0  0
   62.0033   33.2229   50.8983 H   0  0  0  0  0  0  0  0  0  0  0  0
   63.0365   34.6817   50.5078 H   0  0  0  0  0  0  0  0  0  0  0  0
   60.5288   33.9868   49.3693 H   0  0  0  0  0  0  0  0  0  0  0  0
   61.6731   35.3027   48.8743 H   0  0  0  0  0  0  0  0  0  0  0  0
   60.5107   35.2697   46.1227 H   0  0  0  0  0  0  0  0  0  0  0  0
   58.6014   34.7443   44.6127 H   0  0  0  0  0  0  0  0  0  0  0  0
   57.8862   27.5514   43.4851 H   0  0  0  0  0  0  0  0  0  0  0  0
   58.0505   25.0642   43.4891 H   0  0  0  0  0  0  0  0  0  0  0  0
  1  2  1  0
  2  3  1  0
  3  4  2  0
  4  5  1  0
  5  6  2  0
  6  7  1  0
  7  8  2  0
  2  9  1  0
  9 10  2  0
  9 11  2  0
  9 12  1  0
 12 13  2  0
 13 14  1  0
 14 15  2  0
 15 16  1  0
 16 17  1  0
 17 18  2  0
 17 19  1  0
 19 20  1  0
 20 21  1  0
 21 22  2  0
 22 23  1  0
 23 24  2  0
 24 25  1  0
 25 26  1  0
 26 27  1  0
 27 28  1  0
 28 29  1  0
 29 30  1  0
 24 31  1  0
 31 32  2  0
 15 33  1  0
 33 34  2  0
  8  3  1  0
 34 12  1  0
 32 21  1  0
 30 25  1  0
  1 35  1  0
  1 36  1  0
  1 37  1  0
  4 38  1  0
  5 39  1  0
  6 40  1  0
  7 41  1  0
  8 42  1  0
 13 43  1  0
 14 44  1  0
 16 45  1  0
 20 46  1  0
 20 47  1  0
 22 48  1  0
 23 49  1  0
 26 50  1  0
 26 51  1  0
 27 52  1  0
 27 53  1  0
 29 54  1  0
 29 55  1  0
 30 56  1  0
 30 57  1  0
 31 58  1  0
 32 59  1  0
 33 60  1  0
 34 61  1  0
M  CHG  1  19  -1
M  END
>  <UniqueID>  (1) 
1

>  <SMILES>  (1) 
CN(c1ccccc1)S(=O)(=O)c1ccc(NC(=O)[N-]Cc2ccc(N3CCOCC3)cc2)cc1

>  <Energy>  (1) 
80.83657067175145

>  <Genealogy>  (1) 
CN(c1ccccc1)S(=O)(=O)c1ccc(NC(=O)[N-]Cc2ccc(N3CCOCC3)cc2)cc1 (protonated)
CN(c1ccccc1)S(=O)(=O)c1ccc(NC(=O)[N-]Cc2ccc(N3CCOCC3)cc2)cc1 (3D coordinates assigned)
CN(c1ccccc1)S(=O)(=O)c1ccc(NC(=O)[N-]Cc2ccc(N3CCOCC3)cc2)cc1 (nonaromatic ring conformer: 80.83657067175145 kcal/mol)

>  <smiles>  (1) 
CN(c1ccccc1)S(=O)(=O)c1ccc(NC(=O)NCc2ccc(N3CCOCC3)cc2)cc1

>  <score_type>  (1) 
oracle

>  <origin>  (1) 
adg

>  <m_score__min__energy>  (1) 
-10.76

>  <m_primary>  (1) 
energy

$$$$
1:0
     RDKit          3D

 32 35  0  0  0  0  0  0  0  0999 V2000
   55.2050   29.0090   44.4990 O   0  0  0  0  0  0  0  0  0  0  0  0
   56.2830   29.6540   44.4260 C   0  0  0  0  0  0  0  0  0  0  0  0
   56.5530   30.6940   43.4130 C   0  0  0  0  0  0  0  0  0  0  0  0
   58.0610   30.9380   43.5670 C   0  0  0  0  0  0  0  0  0  0  0  0
   58.4640   30.3500   44.9460 C   0  0  2  0  0  0  0  0  0  0  0  0
   58.6320   31.4570   45.9860 C   0  0  0  0  0  0  0  0  0  0  0  0
   59.0210   31.1850   47.3150 C   0  0  0  0  0  0  0  0  0  0  0  0
   59.1510   32.2230   48.2440 C   0  0  0  0  0  0  0  0  0  0  0  0
   58.8890   33.5400   47.8660 C   0  0  0  0  0  0  0  0  0  0  0  0
   58.4930   33.8250   46.5580 C   0  0  0  0  0  0  0  0  0  0  0  0
   58.3610   32.7920   45.6250 C   0  0  0  0  0  0  0  0  0  0  0  0
   60.0180   29.3430   44.8480 S   0  0  0  0  0  0  0  0  0  0  0  0
   59.1650   27.9740   45.6130 C   0  0  0  0  0  0  0  0  0  0  0  0
   59.7640   26.7870   46.0400 C   0  0  0  0  0  0  0  0  0  0  0  0
   58.9590   25.7870   46.6060 C   0  0  0  0  0  0  0  0  0  0  0  0
   57.5740   25.9870   46.7390 C   0  0  0  0  0  0  0  0  0  0  0  0
   56.9910   27.1880   46.3080 C   0  0  0  0  0  0  0  0  0  0  0  0
   57.8120   28.1700   45.7430 C   0  0  0  0  0  0  0  0  0  0  0  0
   57.3760   29.4450   45.3020 N   0  0  0  0  0  0  0  0  0  0  0  0
   56.3114   30.3342   42.4020 H   0  0  0  0  0  0  0  0  0  0  0  0
   55.9491   31.6029   43.5514 H   0  0  0  0  0  0  0  0  0  0  0  0
   58.6123   30.4305   42.7617 H   0  0  0  0  0  0  0  0  0  0  0  0
   58.2987   32.0103   43.5070 H   0  0  0  0  0  0  0  0  0  0  0  0
   59.2236   30.1486   47.6229 H   0  0  0  0  0  0  0  0  0  0  0  0
   59.4608   31.9999   49.2756 H   0  0  0  0  0  0  0  0  0  0  0  0
   58.9944   34.3538   48.5985 H   0  0  0  0  0  0  0  0  0  0  0  0
   58.2846   34.8634   46.2610 H   0  0  0  0  0  0  0  0  0  0  0  0
   58.0422   33.0239   44.5981 H   0  0  0  0  0  0  0  0  0  0  0  0
   60.8488   26.6385   45.9344 H   0  0  0  0  0  0  0  0  0  0  0  0
   59.4126   24.8445   46.9464 H   0  0  0  0  0  0  0  0  0  0  0  0
   56.9459   25.2001   47.1820 H   0  0  0  0  0  0  0  0  0  0  0  0
   55.9087   27.3545   46.4123 H   0  0  0  0  0  0  0  0  0  0  0  0
  1  2  2  0
  2  3  1  0
  3  4  1  0
  4  5  1  0
  5  6  1  1
  6  7  2  0
  7  8  1  0
  8  9  2  0
  9 10  1  0
 10 11  2  0
  5 12  1  0
 12 13  1  0
 13 14  2  0
 14 15  1  0
 15 16  2  0
 16 17  1  0
 17 18  2  0
 18 19  1  0
 19  2  1  0
 19  5  1  0
 11  6  1  0
 18 13  1  0
  3 20  1  0
  3 21  1  0
  4 22  1  0
  4 23  1  0
  7 24  1  0
  8 25  1  0
  9 26  1  0
 10 27  1  0
 11 28  1  0
 14 29  1  0
 15 30  1  0
 16 31  1  0
 17 32  1  0
M  END
>  <UniqueID>  (2) 
2

>  <SMILES>  (2) 
O=C1CC[C@]2(c3ccccc3)Sc3ccccc3N12

>  <Energy>  (2) 
63.999258192095525

>  <Genealogy>  (2) 
O=C1CC[C@]2(c3ccccc3)Sc3ccccc3N12 (chirality)
O=C1CC[C@]2(c3ccccc3)Sc3ccccc3N12 (3D coordinates assigned)
O=C1CC[C@]2(c3ccccc3)Sc3ccccc3N12 (nonaromatic ring conformer: 63.999258192095525 kcal/mol)

>  <smiles>  (2) 
O=C1CCC2(c3ccccc3)Sc3ccccc3N12

>  <score_type>  (2) 
oracle

>  <origin>  (2) 
adg

>  <m_score__min__energy>  (2) 
-7.5700000000000003

>  <m_primary>  (2) 
energy

$$$$
2:0
     RDKit          3D

 38 39  0  0  0  0  0  0  0  0999 V2000
   56.8570   29.6950   43.9490 C   0  0  0  0  0  0  0  0  0  0  0  0
   56.3860   30.9380   44.4610 O   0  0  0  0  0  0  0  0  0  0  0  0
   57.1760   31.8510   45.1740 C   0  0  0  0  0  0  0  0  0  0  0  0
   57.0630   33.2080   44.8670 C   0  0  0  0  0  0  0  0  0  0  0  0
   57.8440   34.1540   45.5330 C   0  0  0  0  0  0  0  0  0  0  0  0
   58.7650   33.7580   46.5180 C   0  0  0  0  0  0  0  0  0  0  0  0
   59.6160   34.7460   47.1250 N   0  0  0  0  0  0  0  0  0  0  0  0
   60.0450   35.7060   46.4510 O   0  0  0  0  0  0  0  0  0  0  0  0
   60.1210   34.5460   48.3890 O   0  0  0  0  0  0  0  0  0  0  0  0
   58.8710   32.3890   46.8560 C   0  0  0  0  0  0  0  0  0  0  0  0
   59.7430   31.9580   47.9130 N   0  0  0  0  0  0  0  0  0  0  0  0
   60.7990   30.5910   47.7490 S   0  0  0  0  0  0  0  0  0  0  0  0
   61.4100   30.2750   49.0870 O   0  0  0  0  0  0  0  0  0  0  0  0
   61.8950   30.9190   46.7740 O   0  0  0  0  0  0  0  0  0  0  0  0
   59.8920   29.2110   47.1360 C   0  0  0  0  0  0  0  0  0  0  0  0
   60.0120   28.8110   45.7980 C   0  0  0  0  0  0  0  0  0  0  0  0
   59.3250   27.6820   45.3400 C   0  0  0  0  0  0  0  0  0  0  0  0
   58.5140   26.9410   46.2070 C   0  0  0  0  0  0  0  0  0  0  0  0
   57.8380   25.7870   45.6900 N   0  0  0  0  0  0  0  0  0  0  0  0
   56.2070   25.3180   46.0500 S   0  0  0  0  0  0  0  0  0  0  0  0
   55.1740   26.7050   46.0470 N   0  0  0  0  0  0  0  0  0  0  0  0
   56.1760   24.6930   47.4160 O   0  0  0  0  0  0  0  0  0  0  0  0
   55.7250   24.3090   45.0460 O   0  0  0  0  0  0  0  0  0  0  0  0
   58.3900   27.3500   47.5470 C   0  0  0  0  0  0  0  0  0  0  0  0
   59.0770   28.4770   48.0060 C   0  0  0  0  0  0  0  0  0  0  0  0
   58.0700   31.4480   46.1820 C   0  0  0  0  0  0  0  0  0  0  0  0
   57.1103   29.0265   44.7850 H   0  0  0  0  0  0  0  0  0  0  0  0
   56.0723   29.2311   43.3333 H   0  0  0  0  0  0  0  0  0  0  0  0
   57.7521   29.8676   43.3333 H   0  0  0  0  0  0  0  0  0  0  0  0
   56.3523   33.5347   44.0935 H   0  0  0  0  0  0  0  0  0  0  0  0
   57.7375   35.2202   45.2844 H   0  0  0  0  0  0  0  0  0  0  0  0
   59.8130   32.5190   48.7900 H   0  0  0  0  0  0  0  0  0  0  0  0
   60.6470   29.3855   45.1075 H   0  0  0  0  0  0  0  0  0  0  0  0
   59.4231   27.3737   44.2887 H   0  0  0  0  0  0  0  0  0  0  0  0
   55.1570   27.0820   45.0730 H   0  0  0  0  0  0  0  0  0  0  0  0
   57.7496   26.7804   48.2365 H   0  0  0  0  0  0  0  0  0  0  0  0
   58.9769   28.7889   49.0561 H   0  0  0  0  0  0  0  0  0  0  0  0
   58.1443   30.3831   46.4473 H   0  0  0  0  0  0  0  0  0  0  0  0
  1  2  1  0
  2  3  1  0
  3  4  2  0
  4  5  1  0
  5  6  2  0
  6  7  1  0
  7  8  2  0
  7  9  1  0
  6 10  1  0
 10 11  1  0
 11 12  1  0
 12 13  2  0
 12 14  2  0
 12 15  1  0
 15 16  2  0
 16 17  1  0
 17 18  2  0
 18 19  1  0
 19 20  1  0
 20 21  1  0
 20 22  2  0
 20 23  2  0
 18 24  1  0
 24 25  2  0
 10 26  2  0
 26  3  1  0
 25 15  1  0
  1 27  1  0
  1 28  1  0
  1 29  1  0
  4 30  1  0
  5 31  1  0
 11 32  1  0
 16 33  1  0
 17 34  1  0
 21 35  1  0
 24 36  1  0
 25 37  1  0
 26 38  1  0
M  CHG  4   7   1   9  -1  19  -1  21  -1
M  END
>  <UniqueID>  (3) 
3

>  <SMILES>  (3) 
COc1ccc([N+](=O)[O-])c(NS(=O)(=O)c2ccc([N-]S([NH-])(=O)=O)cc2)c1

>  <Energy>  (3) 
46.6826251307693

>  <Genealogy>  (3) 
COc1ccc([N+](=O)[O-])c(NS(=O)(=O)c2ccc([N-]S([NH-])(=O)=O)cc2)c1 (protonated)
COc1ccc([N+](=O)[O-])c(NS(=O)(=O)c2ccc([N-]S([NH-])(=O)=O)cc2)c1 (3D coordinates assigned)
COc1ccc([N+](=O)[O-])c(NS(=O)(=O)c2ccc([N-]S([NH-])(=O)=O)cc2)c1 (optimized conformer: 46.6826251307693 kcal/mol)

>  <smiles>  (3) 
COc1ccc([N+](=O)[O-])c(NS(=O)(=O)c2ccc(NS(N)(=O)=O)cc2)c1

>  <score_type>  (3) 
oracle

>  <origin>  (3) 
adg

>  <m_score__min__energy>  (3) 
-12.24

>  <m_primary>  (3) 
energy

$$$$
3:0
     RDKit          3D

 43 45  0  0  0  0  0  0  0  0999 V2000
   60.2800   33.4160   49.9680 C   0  0  0  0  0  0  0  0  0  0  0  0
   61.4580   33.1660   49.0640 C   0  0  0  0  0  0  0  0  0  0  0  0
   62.6620   33.8410   49.3270 C   0  0  0  0  0  0  0  0  0  0  0  0
   63.7760   33.6540   48.5050 C   0  0  0  0  0  0  0  0  0  0  0  0
   63.7010   32.7900   47.4150 C   0  0  0  0  0  0  0  0  0  0  0  0
   62.5180   32.0970   47.1500 C   0  0  0  0  0  0  0  0  0  0  0  0
   61.3970   32.2560   47.9790 C   0  0  0  0  0  0  0  0  0  0  0  0
   59.9010   31.3100   47.6190 S   0  0  0  0  0  0  0  0  0  0  0  0
   59.2080   32.5550   46.5120 C   0  0  0  0  0  0  0  0  0  0  0  0
   59.6420   33.8810   46.6580 C   0  0  0  0  0  0  0  0  0  0  0  0
   59.1310   34.8920   45.8460 C   0  0  0  0  0  0  0  0  0  0  0  0
   58.1880   34.5880   44.8660 C   0  0  0  0  0  0  0  0  0  0  0  0
   57.7720   33.2690   44.6800 C   0  0  0  0  0  0  0  0  0  0  0  0
   58.2860   32.2300   45.4800 C   0  0  0  0  0  0  0  0  0  0  0  0
   57.8740   30.8320   45.1820 C   0  0  0  0  0  0  0  0  0  0  0  0
   56.6550   30.5110   45.1930 O   0  0  0  0  0  0  0  0  0  0  0  0
   58.8590   29.8320   44.8750 N   0  0  0  0  0  0  0  0  0  0  0  0
   58.5020   28.5270   44.3250 C   0  0  0  0  0  0  0  0  0  0  0  0
   58.3280   27.5270   45.4350 C   0  0  0  0  0  0  0  0  0  0  0  0
   57.1520   26.7630   45.5330 C   0  0  0  0  0  0  0  0  0  0  0  0
   57.0120   25.8140   46.5500 C   0  0  0  0  0  0  0  0  0  0  0  0
   58.0450   25.6180   47.4720 C   0  0  0  0  0  0  0  0  0  0  0  0
   59.2200   26.3680   47.3770 C   0  0  0  0  0  0  0  0  0  0  0  0
   59.3640   27.3190   46.3610 C   0  0  0  0  0  0  0  0  0  0  0  0
   60.6022   33.3476   51.0175 H   0  0  0  0  0  0  0  0  0  0  0  0
   59.8751   34.4201   49.7734 H   0  0  0  0  0  0  0  0  0  0  0  0
   59.5022   32.6629   49.7734 H   0  0  0  0  0  0  0  0  0  0  0  0
   62.7280   34.5227   50.1878 H   0  0  0  0  0  0  0  0  0  0  0  0
   64.7129   34.1893   48.7187 H   0  0  0  0  0  0  0  0  0  0  0  0
   64.5754   32.6533   46.7617 H   0  0  0  0  0  0  0  0  0  0  0  0
   62.4644   31.4207   46.2841 H   0  0  0  0  0  0  0  0  0  0  0  0
   60.3944   34.1257   47.4222 H   0  0  0  0  0  0  0  0  0  0  0  0
   59.4719   35.9294   45.9786 H   0  0  0  0  0  0  0  0  0  0  0  0
   57.7709   35.3891   44.2380 H   0  0  0  0  0  0  0  0  0  0  0  0
   57.0332   33.0378   43.8985 H   0  0  0  0  0  0  0  0  0  0  0  0
   59.8680   30.0230   45.0700 H   0  0  0  0  0  0  0  0  0  0  0  0
   57.5602   28.6144   43.7634 H   0  0  0  0  0  0  0  0  0  0  0  0
   59.3066   28.1861   43.6569 H   0  0  0  0  0  0  0  0  0  0  0  0
   56.3392   26.9124   44.8070 H   0  0  0  0  0  0  0  0  0  0  0  0
   56.0886   25.2210   46.6250 H   0  0  0  0  0  0  0  0  0  0  0  0
   57.9324   24.8725   48.2730 H   0  0  0  0  0  0  0  0  0  0  0  0
   60.0325   26.2106   48.1016 H   0  0  0  0  0  0  0  0  0  0  0  0
   60.2914   27.9058   46.2869 H   0  0  0  0  0  0  0  0  0  0  0  0
  1  2  1  0
  2  3  2  0
  3  4  1  0
  4  5  2  0
  5  6  1  0
  6  7  2  0
  7  8  1  0
  8  9  1  0
  9 10  2  0
 10 11  1  0
 11 12  2  0
 12 13  1  0
 13 14  2  0
 14 15  1  0
 15 16  2  0
 15 17  1  0
 17 18  1  0
 18 19  1  0
 19 20  2  0
 20 21  1  0
 21 22  2  0
 22 23  1  0
 23 24  2  0
  7  2  1  0
 14  9  1  0
 24 19  1  0
  1 25  1  0
  1 26  1  0
  1 27  1  0
  3 28  1  0
  4 29  1  0
  5 30  1  0
  6 31  1  0
 10 32  1  0
 11 33  1  0
 12 34  1  0
 13 35  1  0
 17 36  1  0
 18 37  1  0
 18 38  1  0
 20 39  1  0
 21 40  1  0
 22 41  1  0
 23 42  1  0
 24 43  1  0
M  END
>  <UniqueID>  (4) 
4

>  <SMILES>  (4) 
Cc1ccccc1Sc1ccccc1C(=O)NCc1ccccc1

>  <Energy>  (4) 
46.694781053021494

>  <Genealogy>  (4) 
Cc1ccccc1Sc1ccccc1C(=O)NCc1ccccc1 (3D coordinates assigned)
Cc1ccccc1Sc1ccccc1C(=O)NCc1ccccc1 (optimized conformer: 46.694781053021494 kcal/mol)

>  <smiles>  (4) 
Cc1ccccc1Sc1ccccc1C(=O)NCc1ccccc1

>  <score_type>  (4) 
oracle

>  <origin>  (4) 
adg

>  <m_score__min__energy>  (4) 
-8.2699999999999996

>  <m_primary>  (4) 
energy

$$$$
4:0
     RDKit          3D

 63 66  0  0  0  0  0  0  0  0999 V2000
   51.4210   23.7870   44.4440 C   0  0  0  0  0  0  0  0  0  0  0  0
   52.0620   22.5980   44.8950 O   0  0  0  0  0  0  0  0  0  0  0  0
   52.9620   22.5310   45.9700 C   0  0  0  0  0  0  0  0  0  0  0  0
   52.5380   22.2170   47.2760 C   0  0  0  0  0  0  0  0  0  0  0  0
   53.4510   22.2080   48.3320 C   0  0  0  0  0  0  0  0  0  0  0  0
   54.7900   22.5140   48.0990 C   0  0  0  0  0  0  0  0  0  0  0  0
   55.2220   22.8290   46.8110 C   0  0  0  0  0  0  0  0  0  0  0  0
   54.3240   22.8150   45.7410 C   0  0  0  0  0  0  0  0  0  0  0  0
   54.7980   23.1820   44.4400 N   0  0  0  0  0  0  0  0  0  0  0  0
   55.9440   22.6040   43.8050 C   0  0  0  0  0  0  0  0  0  0  0  0
   55.9050   21.4170   43.3810 O   0  0  0  0  0  0  0  0  0  0  0  0
   57.1990   23.4010   43.6630 C   0  0  0  0  0  0  0  0  0  0  0  0
   57.6480   24.2100   45.2350 S   0  0  0  0  0  0  0  0  0  0  0  0
   57.9360   25.8190   44.4870 C   0  0  0  0  0  0  0  0  0  0  0  0
   57.7680   26.0610   43.1740 N   0  0  0  0  0  0  0  0  0  0  0  0
   58.0910   27.3310   42.9720 N   0  0  0  0  0  0  0  0  0  0  0  0
   58.4450   27.8440   44.1660 C   0  0  0  0  0  0  0  0  0  0  0  0
   58.9940   29.2320   44.3150 C   0  0  0  0  0  0  0  0  0  0  0  0
   57.9840   30.2290   44.1760 O   0  0  0  0  0  0  0  0  0  0  0  0
   57.9660   31.4750   44.8210 C   0  0  0  0  0  0  0  0  0  0  0  0
   57.4490   32.5740   44.1170 C   0  0  0  0  0  0  0  0  0  0  0  0
   57.3760   33.8310   44.7170 C   0  0  0  0  0  0  0  0  0  0  0  0
   57.8420   34.0110   46.0190 C   0  0  0  0  0  0  0  0  0  0  0  0
   58.4020   32.9380   46.7220 C   0  0  0  0  0  0  0  0  0  0  0  0
   58.8980   33.1470   48.0480 N   0  0  0  0  0  0  0  0  0  0  0  0
   59.6350   34.3210   48.4130 C   0  0  0  0  0  0  0  0  0  0  0  0
   59.8570   35.2260   47.5640 O   0  0  0  0  0  0  0  0  0  0  0  0
   60.0960   34.4710   49.7600 N   0  0  0  0  0  0  0  0  0  0  0  0
   61.2970   33.8290   50.2850 C   0  0  0  0  0  0  0  0  0  0  0  0
   62.0820   33.1520   49.1920 C   0  0  0  0  0  0  0  0  0  0  0  0
   63.0590   33.8560   48.4760 C   0  0  0  0  0  0  0  0  0  0  0  0
   63.7700   33.2070   47.4610 C   0  0  0  0  0  0  0  0  0  0  0  0
   63.4970   31.9130   47.1540 N   0  0  0  0  0  0  0  0  0  0  0  0
   62.5380   31.2140   47.8140 C   0  0  0  0  0  0  0  0  0  0  0  0
   61.8130   31.8200   48.8450 C   0  0  0  0  0  0  0  0  0  0  0  0
   58.4460   31.6630   46.1320 C   0  0  0  0  0  0  0  0  0  0  0  0
   58.3590   26.9150   45.1450 N   0  0  0  0  0  0  0  0  0  0  0  0
   58.8500   26.9960   46.5190 C   0  0  0  0  0  0  0  0  0  0  0  0
   51.1001   24.3822   45.3116 H   0  0  0  0  0  0  0  0  0  0  0  0
   52.1245   24.3748   43.8360 H   0  0  0  0  0  0  0  0  0  0  0  0
   50.5433   23.5224   43.8360 H   0  0  0  0  0  0  0  0  0  0  0  0
   51.4812   21.9774   47.4649 H   0  0  0  0  0  0  0  0  0  0  0  0
   53.1129   21.9591   49.3488 H   0  0  0  0  0  0  0  0  0  0  0  0
   55.5078   22.5071   48.9325 H   0  0  0  0  0  0  0  0  0  0  0  0
   56.2762   23.0901   46.6365 H   0  0  0  0  0  0  0  0  0  0  0  0
   58.0166   22.7315   43.3577 H   0  0  0  0  0  0  0  0  0  0  0  0
   57.0326   24.1807   42.9051 H   0  0  0  0  0  0  0  0  0  0  0  0
   59.4508   29.3271   45.3111 H   0  0  0  0  0  0  0  0  0  0  0  0
   59.7353   29.3891   43.5177 H   0  0  0  0  0  0  0  0  0  0  0  0
   57.0983   32.4426   43.0827 H   0  0  0  0  0  0  0  0  0  0  0  0
   56.9507   34.6808   44.1629 H   0  0  0  0  0  0  0  0  0  0  0  0
   57.7692   34.9999   46.4953 H   0  0  0  0  0  0  0  0  0  0  0  0
   58.5600   32.5160   48.8160 H   0  0  0  0  0  0  0  0  0  0  0  0
   61.9311   34.5914   50.7612 H   0  0  0  0  0  0  0  0  0  0  0  0
   60.9899   33.0649   51.0143 H   0  0  0  0  0  0  0  0  0  0  0  0
   63.2654   34.9108   48.7101 H   0  0  0  0  0  0  0  0  0  0  0  0
   64.5534   33.7473   46.9094 H   0  0  0  0  0  0  0  0  0  0  0  0
   62.3311   30.1697   47.5373 H   0  0  0  0  0  0  0  0  0  0  0  0
   61.0360   31.2550   49.3808 H   0  0  0  0  0  0  0  0  0  0  0  0
   58.8557   30.8111   46.6946 H   0  0  0  0  0  0  0  0  0  0  0  0
   58.0111   26.8576   47.2169 H   0  0  0  0  0  0  0  0  0  0  0  0
   59.6004   26.2095   46.6872 H   0  0  0  0  0  0  0  0  0  0  0  0
   59.3081   27.9819   46.6872 H   0  0  0  0  0  0  0  0  0  0  0  0
  1  2  1  0
  2  3  1  0
  3  4  2  0
  4  5  1  0
  5  6  2  0
  6  7  1  0
  7  8  2  0
  8  9  1  0
  9 10  1  0
 10 11  2  0
 10 12  1  0
 12 13  1  0
 13 14  1  0
 14 15  2  0
 15 16  1  0
 16 17  2  0
 17 18  1  0
 18 19  1  0
 19 20  1  0
 20 21  2  0
 21 22  1  0
 22 23  2  0
 23 24  1  0
 24 25  1  0
 25 26  1  0
 26 27  2  0
 26 28  1  0
 28 29  1  0
 29 30  1  0
 30 31  2  0
 31 32  1  0
 32 33  2  0
 33 34  1  0
 34 35  2  0
 24 36  2  0
 17 37  1  0
 37 38  1  0
  8  3  1  0
 37 14  1  0
 36 20  1  0
 35 30  1  0
  1 39  1  0
  1 40  1  0
  1 41  1  0
  4 42  1  0
  5 43  1  0
  6 44  1  0
  7 45  1  0
 12 46  1  0
 12 47  1  0
 18 48  1  0
 18 49  1  0
 21 50  1  0
 22 51  1  0
 23 52  1  0
 25 53  1  0
 29 54  1  0
 29 55  1  0
 31 56  1  0
 32 57  1  0
 34 58  1  0
 35 59  1  0
 36 60  1  0
 38 61  1  0
 38 62  1  0
 38 63  1  0
M  CHG  2   9  -1  28  -1
M  END
>  <UniqueID>  (5) 
5

>  <SMILES>  (5) 
COc1ccccc1[N-]C(=O)CSc1nnc(COc2cccc(NC(=O)[N-]Cc3ccncc3)c2)n1C

>  <Energy>  (5) 
95.65455154971487

>  <Genealogy>  (5) 
COc1ccccc1[N-]C(=O)CSc1nnc(COc2cccc(NC(=O)[N-]Cc3ccncc3)c2)n1C (protonated)
COc1ccccc1[N-]C(=O)CSc1nnc(COc2cccc(NC(=O)[N-]Cc3ccncc3)c2)n1C (3D coordinates assigned)
COc1ccccc1[N-]C(=O)CSc1nnc(COc2cccc(NC(=O)[N-]Cc3ccncc3)c2)n1C (optimized conformer: 95.65455154971487 kcal/mol)

>  <smiles>  (5) 
COc1ccccc1NC(=O)CSc1nnc(COc2cccc(NC(=O)NCc3ccncc3)c2)n1C

>  <score_type>  (5) 
oracle

>  <origin>  (5) 
adg

>  <m_score__min__energy>  (5) 
-13.289999999999999

>  <m_primary>  (5) 
energy

$$$$
5:0
     RDKit          3D

 35 37  0  0  0  0  0  0  0  0999 V2000
   57.7400   32.4800   42.9370 O   0  0  0  0  0  0  0  0  0  0  0  0
   57.5530   32.2720   44.1640 C   0  0  0  0  0  0  0  0  0  0  0  0
   56.7020   31.1870   44.5550 N   0  0  0  0  0  0  0  0  0  0  0  0
   57.1510   29.8710   44.9090 C   0  0  0  0  0  0  0  0  0  0  0  0
   58.5180   29.5440   44.9270 C   0  0  0  0  0  0  0  0  0  0  0  0
   58.9250   28.2520   45.2680 C   0  0  0  0  0  0  0  0  0  0  0  0
   57.9760   27.2840   45.6070 C   0  0  0  0  0  0  0  0  0  0  0  0
   56.6140   27.6030   45.6110 C   0  0  0  0  0  0  0  0  0  0  0  0
   55.6630   26.6010   45.9950 N   0  0  0  0  0  0  0  0  0  0  0  0
   55.9660   25.2280   46.2790 C   0  0  0  0  0  0  0  0  0  0  0  0
   55.8900   24.8250   47.4690 O   0  0  0  0  0  0  0  0  0  0  0  0
   56.3160   24.2670   45.2160 C   0  0  0  0  0  0  0  0  0  0  0  0
   55.5430   23.9300   44.1080 C   0  0  0  0  0  0  0  0  0  0  0  0
   56.1410   22.9660   43.2870 C   0  0  0  0  0  0  0  0  0  0  0  0
   57.3770   22.5310   43.7460 C   0  0  0  0  0  0  0  0  0  0  0  0
   57.7230   23.3440   45.1760 S   0  0  0  0  0  0  0  0  0  0  0  0
   56.2040   28.8900   45.2190 C   0  0  0  0  0  0  0  0  0  0  0  0
   58.1700   33.1780   45.1620 C   0  0  0  0  0  0  0  0  0  0  0  0
   59.0170   34.2270   44.7560 C   0  0  0  0  0  0  0  0  0  0  0  0
   59.5970   35.0740   45.7040 C   0  0  0  0  0  0  0  0  0  0  0  0
   59.3470   34.8790   47.0640 C   0  0  0  0  0  0  0  0  0  0  0  0
   58.5200   33.8310   47.4790 C   0  0  0  0  0  0  0  0  0  0  0  0
   57.9380   32.9810   46.5340 C   0  0  0  0  0  0  0  0  0  0  0  0
   59.2685   30.3068   44.6721 H   0  0  0  0  0  0  0  0  0  0  0  0
   59.9948   27.9961   45.2697 H   0  0  0  0  0  0  0  0  0  0  0  0
   58.3012   26.2671   45.8718 H   0  0  0  0  0  0  0  0  0  0  0  0
   54.5599   24.3768   43.8984 H   0  0  0  0  0  0  0  0  0  0  0  0
   55.6751   22.5887   42.3647 H   0  0  0  0  0  0  0  0  0  0  0  0
   58.0192   21.7831   43.2579 H   0  0  0  0  0  0  0  0  0  0  0  0
   55.1315   29.1264   45.1559 H   0  0  0  0  0  0  0  0  0  0  0  0
   59.2233   34.3806   43.6865 H   0  0  0  0  0  0  0  0  0  0  0  0
   60.2517   35.8958   45.3784 H   0  0  0  0  0  0  0  0  0  0  0  0
   59.8006   35.5498   47.8085 H   0  0  0  0  0  0  0  0  0  0  0  0
   58.3270   33.6750   48.5506 H   0  0  0  0  0  0  0  0  0  0  0  0
   57.2946   32.1530   46.8663 H   0  0  0  0  0  0  0  0  0  0  0  0
  1  2  2  0
  2  3  1  0
  3  4  1  0
  4  5  2  0
  5  6  1  0
  6  7  2  0
  7  8  1  0
  8  9  1  0
  9 10  1  0
 10 11  2  0
 10 12  1  0
 12 13  2  0
 13 14  1  0
 14 15  2  0
 15 16  1  0
  8 17  2  0
  2 18  1  0
 18 19  2  0
 19 20  1  0
 20 21  2  0
 21 22  1  0
 22 23  2  0
 17  4  1  0
 23 18  1  0
 16 12  1  0
  5 24  1  0
  6 25  1  0
  7 26  1  0
 13 27  1  0
 14 28  1  0
 15 29  1  0
 17 30  1  0
 19 31  1  0
 20 32  1  0
 21 33  1  0
 22 34  1  0
 23 35  1  0
M  CHG  2   3  -1   9  -1
M  END
>  <UniqueID>  (6) 
6

>  <SMILES>  (6) 
O=C([N-]c1cccc([N-]C(=O)c2cccs2)c1)c1ccccc1

>  <Energy>  (6) 
75.10981680606335

>  <Genealogy>  (6) 
O=C([N-]c1cccc([N-]C(=O)c2cccs2)c1)c1ccccc1 (protonated)
O=C([N-]c1cccc([N-]C(=O)c2cccs2)c1)c1ccccc1 (3D coordinates assigned)
O=C([N-]c1cccc([N-]C(=O)c2cccs2)c1)c1ccccc1 (optimized conformer: 75.10981680606335 kcal/mol)

>  <smiles>  (6) 
O=C(Nc1cccc(NC(=O)c2cccs2)c1)c1ccccc1

>  <score_type>  (6) 
oracle

>  <origin>  (6) 
adg

>  <m_score__min__energy>  (6) 
-11.710000000000001

>  <m_primary>  (6) 
energy

$$$$
6:0
     RDKit          3D

 19 21  0  0  0  0  0  0  0  0999 V2000
   57.7730   32.4980   41.3630 O   0  0  0  0  0  0  0  0  0  0  0  0
   57.6240   32.0980   42.5470 C   0  0  0  0  0  0  0  0  0  0  0  0
   56.9150   30.9480   42.9300 O   0  0  0  0  0  0  0  0  0  0  0  0
   57.0180   30.9070   44.3270 C   0  0  0  0  0  0  0  0  0  0  0  0
   56.5110   30.0190   45.0600 O   0  0  0  0  0  0  0  0  0  0  0  0
   57.7760   32.0080   44.7980 N   0  0  0  0  0  0  0  0  0  0  0  0
   58.1430   32.7260   43.7520 C   0  0  0  0  0  0  0  0  0  0  0  0
   58.8960   33.8350   44.1160 C   0  0  0  0  0  0  0  0  0  0  0  0
   58.9560   33.7280   45.5100 C   0  0  0  0  0  0  0  0  0  0  0  0
   59.5730   34.5450   46.4540 C   0  0  0  0  0  0  0  0  0  0  0  0
   59.4660   34.1840   47.8120 C   0  0  0  0  0  0  0  0  0  0  0  0
   60.0540   34.9540   48.7600 F   0  0  0  0  0  0  0  0  0  0  0  0
   58.7500   33.0250   48.1930 C   0  0  0  0  0  0  0  0  0  0  0  0
   58.1330   32.2110   47.2260 C   0  0  0  0  0  0  0  0  0  0  0  0
   58.2580   32.5960   45.8950 C   0  0  0  0  0  0  0  0  0  0  0  0
   59.3366   34.6071   43.4681 H   0  0  0  0  0  0  0  0  0  0  0  0
   60.1271   35.4449   46.1489 H   0  0  0  0  0  0  0  0  0  0  0  0
   58.6749   32.7574   49.2573 H   0  0  0  0  0  0  0  0  0  0  0  0
   57.5745   31.3070   47.5105 H   0  0  0  0  0  0  0  0  0  0  0  0
  1  2  2  0
  2  3  1  0
  3  4  1  0
  4  5  2  0
  4  6  1  0
  6  7  1  0
  7  8  2  0
  8  9  1  0
  9 10  2  0
 10 11  1  0
 11 12  1  0
 11 13  2  0
 13 14  1  0
 14 15  2  0
  7  2  1  0
 15  9  1  0
 15  6  1  0
  8 16  1  0
 10 17  1  0
 13 18  1  0
 14 19  1  0
M  END
>  <UniqueID>  (7) 
7

>  <SMILES>  (7) 
O=C1OC(=O)n2c1cc1cc(F)ccc12

>  <Energy>  (7) 
110.40337528412228

>  <Genealogy>  (7) 
O=C1OC(=O)n2c1cc1cc(F)ccc12 (3D coordinates assigned)
O=C1OC(=O)n2c1cc1cc(F)ccc12 (nonaromatic ring conformer: 110.40337528412228 kcal/mol)

>  <smiles>  (7) 
O=C1OC(=O)n2c1cc1cc(F)ccc12

>  <score_type>  (7) 
oracle

>  <origin>  (7) 
adg

>  <m_score__min__energy>  (7) 
-6.0300000000000002

>  <m_primary>  (7) 
energy

$$$$
7:0
     RDKit          3D

 49 52  0  0  1  0  0  0  0  0999 V2000
   56.2620   20.7160   43.4050 O   0  0  0  0  0  0  0  0  0  0  0  0
   56.1690   21.8960   44.1340 C   0  0  0  0  0  0  0  0  0  0  0  0
   55.8430   21.8860   45.4880 C   0  0  0  0  0  0  0  0  0  0  0  0
   55.7600   23.0730   46.1830 C   0  0  0  0  0  0  0  0  0  0  0  0
   55.9950   24.3010   45.5610 C   0  0  0  0  0  0  0  0  0  0  0  0
   55.8850   25.4510   46.3600 N   0  0  0  0  0  0  0  0  0  0  0  0
   56.6680   26.4460   46.1320 C   0  0  0  0  0  0  0  0  0  0  0  0
   57.9660   26.3580   46.4610 N   0  0  0  0  0  0  0  0  0  0  0  0
   58.8310   27.3770   46.2410 C   0  0  0  0  0  0  0  0  0  0  0  0
   58.3110   28.5140   45.6610 C   0  0  0  0  0  0  0  0  0  0  0  0
   56.9750   28.6260   45.3120 C   0  0  0  0  0  0  0  0  0  0  0  0
   56.5050   29.6810   44.7750 N   0  0  0  0  0  0  0  0  0  0  0  0
   57.2220   30.9080   44.8470 C   0  0  0  0  0  0  0  0  0  0  0  0
   57.7710   31.2700   46.0550 C   0  0  0  0  0  0  0  0  0  0  0  0
   58.4710   32.4550   46.1490 C   0  0  0  0  0  0  0  0  0  0  0  0
   58.6710   33.3260   45.1170 C   0  0  0  0  0  0  0  0  0  0  0  0
   59.3280   34.4890   45.1100 O   0  0  0  0  0  0  0  0  0  0  0  0
   60.0190   35.2770   45.9880 C   0  0  0  0  0  0  0  0  0  0  0  0
   60.7240   34.5430   47.0420 C   0  0  0  0  0  0  0  0  0  0  0  0
   60.3620   34.4630   48.3620 C   0  0  0  0  0  0  0  0  0  0  0  0
   61.0680   33.7660   49.3170 C   0  0  0  0  0  0  0  0  0  0  0  0
   62.2130   33.1040   48.9230 C   0  0  0  0  0  0  0  0  0  0  0  0
   62.6220   33.1500   47.6120 C   0  0  0  0  0  0  0  0  0  0  0  0
   61.8900   33.8580   46.6870 C   0  0  0  0  0  0  0  0  0  0  0  0
   58.0950   32.9260   43.8860 C   0  0  0  0  0  0  0  0  0  0  0  0
   57.3960   31.7500   43.7720 C   0  0  0  0  0  0  0  0  0  0  0  0
   56.1690   27.5690   45.5610 N   0  0  0  0  0  0  0  0  0  0  0  0
   56.3180   24.3060   44.2200 C   0  0  0  0  0  0  0  0  0  0  0  0
   56.4100   23.1160   43.4910 C   0  0  0  0  0  0  0  0  0  0  0  0
   56.9670   20.0470   43.6990 H   0  0  0  0  0  0  0  0  0  0  0  0
   55.6521   20.9322   46.0017 H   0  0  0  0  0  0  0  0  0  0  0  0
   55.5027   23.0528   47.2523 H   0  0  0  0  0  0  0  0  0  0  0  0
   58.3930   25.5050   46.9060 H   0  0  0  0  0  0  0  0  0  0  0  0
   59.8945   27.3009   46.5115 H   0  0  0  0  0  0  0  0  0  0  0  0
   58.9818   29.3642   45.4680 H   0  0  0  0  0  0  0  0  0  0  0  0
   57.6533   30.6220   46.9361 H   0  0  0  0  0  0  0  0  0  0  0  0
   58.8996   32.7174   47.1275 H   0  0  0  0  0  0  0  0  0  0  0  0
   60.7606   35.8564   45.4185 H   0  0  0  0  0  0  0  0  0  0  0  0
   59.2735   35.9086   46.4933 H   0  0  0  0  0  0  0  0  0  0  0  0
   59.4493   34.9892   48.6784 H   0  0  0  0  0  0  0  0  0  0  0  0
   60.7293   33.7377   50.3632 H   0  0  0  0  0  0  0  0  0  0  0  0
   62.8002   32.5376   49.6609 H   0  0  0  0  0  0  0  0  0  0  0  0
   63.5350   32.6206   47.3020 H   0  0  0  0  0  0  0  0  0  0  0  0
   62.2308   33.8859   45.6415 H   0  0  0  0  0  0  0  0  0  0  0  0
   58.2103   33.5715   43.0028 H   0  0  0  0  0  0  0  0  0  0  0  0
   56.9647   31.4740   42.7985 H   0  0  0  0  0  0  0  0  0  0  0  0
   55.1550   27.5740   45.3280 H   0  0  0  0  0  0  0  0  0  0  0  0
   56.5069   25.2644   43.7142 H   0  0  0  0  0  0  0  0  0  0  0  0
   56.6693   23.1384   42.4222 H   0  0  0  0  0  0  0  0  0  0  0  0
  1  2  1  0
  2  3  2  0
  3  4  1  0
  4  5  2  0
  5  6  1  0
  6  7  2  0
  7  8  1  0
  8  9  1  0
  9 10  2  0
 10 11  1  0
 11 12  2  0
 12 13  1  0
 13 14  2  0
 14 15  1  0
 15 16  2  0
 16 17  1  0
 17 18  1  0
 18 19  1  0
 19 20  2  0
 20 21  1  0
 21 22  2  0
 22 23  1  0
 23 24  2  0
 16 25  1  0
 25 26  2  0
 11 27  1  0
  5 28  1  0
 28 29  2  0
 29  2  1  0
 27  7  1  0
 26 13  1  0
 24 19  1  0
  1 30  1  0
  3 31  1  0
  4 32  1  0
  8 33  1  0
  9 34  1  0
 10 35  1  0
 14 36  1  0
 15 37  1  0
 18 38  1  0
 18 39  1  0
 20 40  1  0
 21 41  1  0
 22 42  1  0
 23 43  1  0
 24 44  1  0
 25 45  1  0
 26 46  1  0
 27 47  1  0
 28 48  1  0
 29 49  1  0
M  END
>  <smiles>  (8) 
Oc1ccc(N=c2[nH]ccc(=Nc3ccc(OCc4ccccc4)cc3)[nH]2)cc1

>  <score_type>  (8) 
oracle

>  <origin>  (8) 
adg

>  <m_score__min__energy>  (8) 
-9.8499999999999996

>  <m_primary>  (8) 
energy

$$$$
8:0
     RDKit          3D

 61 64  0  0  0  0  0  0  0  0999 V2000
   61.1110   28.6240   45.2310 C   0  0  0  0  0  0  0  0  0  0  0  0
   59.8520   27.8160   45.4240 C   0  0  0  0  0  0  0  0  0  0  0  0
   59.9200   26.5980   46.1210 C   0  0  0  0  0  0  0  0  0  0  0  0
   58.7700   25.8320   46.3250 C   0  0  0  0  0  0  0  0  0  0  0  0
   57.5360   26.2640   45.8270 C   0  0  0  0  0  0  0  0  0  0  0  0
   56.0820   25.3020   46.1060 S   0  0  0  0  0  0  0  0  0  0  0  0
   56.0650   24.8330   47.5350 O   0  0  0  0  0  0  0  0  0  0  0  0
   54.8740   26.1770   45.8990 O   0  0  0  0  0  0  0  0  0  0  0  0
   55.9850   23.9110   45.0440 N   0  0  0  0  0  0  0  0  0  0  0  0
   55.4000   22.7300   45.7120 C   0  0  0  0  0  0  0  0  0  0  0  0
   56.4330   21.9210   46.5370 C   0  0  0  0  0  0  0  0  0  0  0  0
   57.7660   22.3540   46.3410 O   0  0  0  0  0  0  0  0  0  0  0  0
   58.0330   22.4510   44.9630 C   0  0  0  0  0  0  0  0  0  0  0  0
   57.2610   23.6310   44.3480 C   0  0  0  0  0  0  0  0  0  0  0  0
   57.4630   27.4610   45.1050 C   0  0  0  0  0  0  0  0  0  0  0  0
   58.6080   28.2570   44.9080 C   0  0  0  0  0  0  0  0  0  0  0  0
   58.5230   29.4820   44.1480 N   0  0  0  0  0  0  0  0  0  0  0  0
   57.3350   30.2890   44.0570 C   0  0  0  0  0  0  0  0  0  0  0  0
   56.3670   30.1040   44.8470 O   0  0  0  0  0  0  0  0  0  0  0  0
   57.2740   31.4210   43.0760 C   0  0  0  0  0  0  0  0  0  0  0  0
   57.6740   32.7390   43.7530 C   0  0  0  0  0  0  0  0  0  0  0  0
   57.0310   32.8590   45.1420 C   0  0  0  0  0  0  0  0  0  0  0  0
   57.6400   34.0020   45.9670 C   0  0  0  0  0  0  0  0  0  0  0  0
   58.9570   33.6440   46.4940 N   0  0  0  0  0  0  0  0  0  0  0  0
   60.1610   34.4130   46.3920 C   0  0  0  0  0  0  0  0  0  0  0  0
   60.2060   35.6150   46.0150 O   0  0  0  0  0  0  0  0  0  0  0  0
   61.3110   33.5930   46.7640 C   0  0  0  0  0  0  0  0  0  0  0  0
   62.6720   33.9010   46.8130 C   0  0  0  0  0  0  0  0  0  0  0  0
   63.5660   32.8820   47.1960 C   0  0  0  0  0  0  0  0  0  0  0  0
   63.0850   31.5920   47.5160 C   0  0  0  0  0  0  0  0  0  0  0  0
   61.7060   31.3060   47.4540 C   0  0  0  0  0  0  0  0  0  0  0  0
   60.8420   32.3330   47.0750 C   0  0  0  0  0  0  0  0  0  0  0  0
   59.3920   32.3430   46.9030 C   0  0  0  0  0  0  0  0  0  0  0  0
   58.6220   31.3550   47.0640 O   0  0  0  0  0  0  0  0  0  0  0  0
   61.5287   28.8921   46.2127 H   0  0  0  0  0  0  0  0  0  0  0  0
   61.8463   28.0287   44.6698 H   0  0  0  0  0  0  0  0  0  0  0  0
   60.8761   29.5405   44.6698 H   0  0  0  0  0  0  0  0  0  0  0  0
   60.8867   26.2448   46.5092 H   0  0  0  0  0  0  0  0  0  0  0  0
   58.8349   24.8844   46.8799 H   0  0  0  0  0  0  0  0  0  0  0  0
   54.6020   23.0704   46.3882 H   0  0  0  0  0  0  0  0  0  0  0  0
   55.0179   22.0646   44.9239 H   0  0  0  0  0  0  0  0  0  0  0  0
   56.1855   22.0235   47.6039 H   0  0  0  0  0  0  0  0  0  0  0  0
   56.3758   20.8762   46.1977 H   0  0  0  0  0  0  0  0  0  0  0  0
   59.1116   22.6062   44.8130 H   0  0  0  0  0  0  0  0  0  0  0  0
   57.7126   21.5205   44.4715 H   0  0  0  0  0  0  0  0  0  0  0  0
   57.8936   24.5294   44.4002 H   0  0  0  0  0  0  0  0  0  0  0  0
   57.0179   23.3607   43.3098 H   0  0  0  0  0  0  0  0  0  0  0  0
   56.4986   27.7842   44.6860 H   0  0  0  0  0  0  0  0  0  0  0  0
   59.3850   29.8570   43.7020 H   0  0  0  0  0  0  0  0  0  0  0  0
   57.9641   31.2170   42.2441 H   0  0  0  0  0  0  0  0  0  0  0  0
   56.2443   31.5116   42.6999 H   0  0  0  0  0  0  0  0  0  0  0  0
   58.7684   32.7718   43.8588 H   0  0  0  0  0  0  0  0  0  0  0  0
   57.3228   33.5747   43.1299 H   0  0  0  0  0  0  0  0  0  0  0  0
   55.9540   33.0460   45.0187 H   0  0  0  0  0  0  0  0  0  0  0  0
   57.2151   31.9182   45.6815 H   0  0  0  0  0  0  0  0  0  0  0  0
   57.7415   34.8901   45.3259 H   0  0  0  0  0  0  0  0  0  0  0  0
   56.9729   34.2054   46.8177 H   0  0  0  0  0  0  0  0  0  0  0  0
   63.0349   34.9082   46.5603 H   0  0  0  0  0  0  0  0  0  0  0  0
   64.6447   33.0914   47.2463 H   0  0  0  0  0  0  0  0  0  0  0  0
   63.7925   30.8049   47.8158 H   0  0  0  0  0  0  0  0  0  0  0  0
   61.3233   30.3038   47.6970 H   0  0  0  0  0  0  0  0  0  0  0  0
  1  2  1  0
  2  3  2  0
  3  4  1  0
  4  5  2  0
  5  6  1  0
  6  7  2  0
  6  8  2  0
  6  9  1  0
  9 10  1  0
 10 11  1  0
 11 12  1  0
 12 13  1  0
 13 14  1  0
  5 15  1  0
 15 16  2  0
 16 17  1  0
 17 18  1  0
 18 19  2  0
 18 20  1  0
 20 21  1  0
 21 22  1  0
 22 23  1  0
 23 24  1  0
 24 25  1  0
 25 26  2  0
 25 27  1  0
 27 28  2  0
 28 29  1  0
 29 30  2  0
 30 31  1  0
 31 32  2  0
 32 33  1  0
 33 34  2  0
 16  2  1  0
 33 24  1  0
 14  9  1  0
 32 27  1  0
  1 35  1  0
  1 36  1  0
  1 37  1  0
  3 38  1  0
  4 39  1  0
 10 40  1  0
 10 41  1  0
 11 42  1  0
 11 43  1  0
 13 44  1  0
 13 45  1  0
 14 46  1  0
 14 47  1  0
 15 48  1  0
 17 49  1  0
 20 50  1  0
 20 51  1  0
 21 52  1  0
 21 53  1  0
 22 54  1  0
 22 55  1  0
 23 56  1  0
 23 57  1  0
 28 58  1  0
 29 59  1  0
 30 60  1  0
 31 61  1  0
M  END
>  <UniqueID>  (9) 
8

>  <SMILES>  (9) 
Cc1ccc(S(=O)(=O)N2CCOCC2)cc1NC(=O)CCCCN1C(=O)c2ccccc2C1=O

>  <Energy>  (9) 
101.64341333604382

>  <Genealogy>  (9) 
Cc1ccc(S(=O)(=O)N2CCOCC2)cc1NC(=O)CCCCN1C(=O)c2ccccc2C1=O (3D coordinates assigned)
Cc1ccc(S(=O)(=O)N2CCOCC2)cc1NC(=O)CCCCN1C(=O)c2ccccc2C1=O (nonaromatic ring conformer: 101.64341333604382 kcal/mol)

>  <smiles>  (9) 
Cc1ccc(S(=O)(=O)N2CCOCC2)cc1NC(=O)CCCCN1C(=O)c2ccccc2C1=O

>  <score_type>  (9) 
oracle

>  <origin>  (9) 
adg

>  <m_score__min__energy>  (9) 
-11.640000000000001

>  <m_primary>  (9) 
energy

$$$$
9:0
     RDKit          3D

 58 61  0  0  0  0  0  0  0  0999 V2000
   56.5265   31.7183   52.1291 H   0  0  0  0  0  0  0  0  0  0  0  0
   56.4360   30.6230   52.0830 C   0  0  0  0  0  0  0  0  0  0  0  0
   55.2920   30.0670   52.5430 C   0  0  0  0  0  0  0  0  0  0  0  0
   55.3370   28.7710   53.2730 C   0  0  0  0  0  0  0  0  0  0  0  0
   54.3130   27.8140   53.1200 C   0  0  0  0  0  0  0  0  0  0  0  0
   53.4705   28.0189   52.4430 H   0  0  0  0  0  0  0  0  0  0  0  0
   54.3610   26.6060   53.8230 C   0  0  0  0  0  0  0  0  0  0  0  0
   53.5590   25.8641   53.6950 H   0  0  0  0  0  0  0  0  0  0  0  0
   55.4250   26.3400   54.6870 C   0  0  0  0  0  0  0  0  0  0  0  0
   55.4630   25.3870   55.2350 H   0  0  0  0  0  0  0  0  0  0  0  0
   56.4410   27.2830   54.8560 C   0  0  0  0  0  0  0  0  0  0  0  0
   57.2764   27.0736   55.5404 H   0  0  0  0  0  0  0  0  0  0  0  0
   56.3980   28.4940   54.1560 C   0  0  0  0  0  0  0  0  0  0  0  0
   57.1989   29.2348   54.2967 H   0  0  0  0  0  0  0  0  0  0  0  0
   53.9720   30.7120   52.3340 C   0  0  0  0  0  0  0  0  0  0  0  0
   53.0610   30.8400   53.3970 C   0  0  0  0  0  0  0  0  0  0  0  0
   53.3138   30.4340   54.3876 H   0  0  0  0  0  0  0  0  0  0  0  0
   51.8340   31.4820   53.1990 C   0  0  0  0  0  0  0  0  0  0  0  0
   51.1290   31.5905   54.0364 H   0  0  0  0  0  0  0  0  0  0  0  0
   51.5030   31.9860   51.9370 C   0  0  0  0  0  0  0  0  0  0  0  0
   50.2880   32.6350   51.7450 O   0  0  0  0  0  0  0  0  0  0  0  0
   52.3920   31.8350   50.8680 C   0  0  0  0  0  0  0  0  0  0  0  0
   52.1263   32.2229   49.8736 H   0  0  0  0  0  0  0  0  0  0  0  0
   53.6190   31.1910   51.0620 C   0  0  0  0  0  0  0  0  0  0  0  0
   54.3092   31.0595   50.2156 H   0  0  0  0  0  0  0  0  0  0  0  0
   57.5970   29.8470   51.5110 C   0  0  0  0  0  0  0  0  0  0  0  0
   58.0381   29.2207   52.3004 H   0  0  0  0  0  0  0  0  0  0  0  0
   57.2325   29.2163   50.6868 H   0  0  0  0  0  0  0  0  0  0  0  0
   58.6640   30.8020   50.9700 C   0  0  0  0  0  0  0  0  0  0  0  0
   58.1977   31.4498   50.2130 H   0  0  0  0  0  0  0  0  0  0  0  0
   59.0512   31.3691   51.8294 H   0  0  0  0  0  0  0  0  0  0  0  0
   59.8720   30.0870   50.3220 C   0  0  0  0  0  0  0  0  0  0  0  0
   60.7681   30.3644   50.8964 H   0  0  0  0  0  0  0  0  0  0  0  0
   59.6157   29.0176   50.3464 H   0  0  0  0  0  0  0  0  0  0  0  0
   60.1620   30.3980   48.8190 C   0  0  2  0  0  0  0  0  0  0  0  0
   61.1911   30.0520   48.6421 H   0  0  0  0  0  0  0  0  0  0  0  0
   60.2900   31.8820   48.4270 C   0  0  0  0  0  0  0  0  0  0  0  0
   59.1880   32.7550   48.5870 C   0  0  0  0  0  0  0  0  0  0  0  0
   58.2507   32.3716   49.0166 H   0  0  0  0  0  0  0  0  0  0  0  0
   59.2730   34.0980   48.2070 C   0  0  0  0  0  0  0  0  0  0  0  0
   58.4192   34.7709   48.3749 H   0  0  0  0  0  0  0  0  0  0  0  0
   60.4370   34.5860   47.6160 C   0  0  0  0  0  0  0  0  0  0  0  0
   60.5097   35.6475   47.3369 H   0  0  0  0  0  0  0  0  0  0  0  0
   61.5090   33.7270   47.3790 C   0  0  0  0  0  0  0  0  0  0  0  0
   62.4204   34.1079   46.8950 H   0  0  0  0  0  0  0  0  0  0  0  0
   61.4290   32.3820   47.7550 C   0  0  0  0  0  0  0  0  0  0  0  0
   62.2639   31.7039   47.5246 H   0  0  0  0  0  0  0  0  0  0  0  0
   59.2080   29.6040   47.9290 C   0  0  0  0  0  0  0  0  0  0  0  0
   58.5560   30.1990   46.8290 C   0  0  0  0  0  0  0  0  0  0  0  0
   58.7573   31.2516   46.5810 H   0  0  0  0  0  0  0  0  0  0  0  0
   57.6570   29.4650   46.0510 C   0  0  0  0  0  0  0  0  0  0  0  0
   57.1616   29.9377   45.1901 H   0  0  0  0  0  0  0  0  0  0  0  0
   57.3870   28.1310   46.3660 C   0  0  0  0  0  0  0  0  0  0  0  0
   56.4960   27.3990   45.5890 O   0  0  0  0  0  0  0  0  0  0  0  0
   58.0120   27.5320   47.4640 C   0  0  0  0  0  0  0  0  0  0  0  0
   57.7957   26.4829   47.7141 H   0  0  0  0  0  0  0  0  0  0  0  0
   58.9120   28.2650   48.2450 C   0  0  0  0  0  0  0  0  0  0  0  0
   59.3924   27.7907   49.1135 H   0  0  0  0  0  0  0  0  0  0  0  0
  1  2  1  0
  2  3  2  0
  3  4  1  0
  4  5  2  0
  5  6  1  0
  5  7  1  0
  7  8  1  0
  7  9  2  0
  9 10  1  0
  9 11  1  0
 11 12  1  0
 11 13  2  0
 13 14  1  0
  3 15  1  0
 15 16  2  0
 16 17  1  0
 16 18  1  0
 18 19  1  0
 18 20  2  0
 20 21  1  0
 20 22  1  0
 22 23  1  0
 22 24  2  0
 24 25  1  0
  2 26  1  0
 26 27  1  0
 26 28  1  0
 26 29  1  0
 29 30  1  0
 29 31  1  0
 29 32  1  0
 32 33  1  0
 32 34  1  0
 32 35  1  0
 35 36  1  6
 35 37  1  0
 37 38  2  0
 38 39  1  0
 38 40  1  0
 40 41  1  0
 40 42  2  0
 42 43  1  0
 42 44  1  0
 44 45  1  0
 44 46  2  0
 46 47  1  0
 35 48  1  0
 48 49  2  0
 49 50  1  0
 49 51  1  0
 51 52  1  0
 51 53  2  0
 53 54  1  0
 53 55  1  0
 55 56  1  0
 55 57  2  0
 57 58  1  0
 13  4  1  0
 24 15  1  0
 46 37  1  0
 57 48  1  0
M  CHG  2  21  -1  54  -1
M  END
>  <UniqueID>  (10) 
9

>  <SMILES>  (10) 
[O-]c1ccc(/C(=C\CCC[C@H](c2ccccc2)c2ccc([O-])cc2)c2ccccc2)cc1

>  <Energy>  (10) 
75.69700515782854

>  <Genealogy>  (10) 
[O-]c1ccc(C(=CCCCC(c2ccccc2)c2ccc([O-])cc2)c2ccccc2)cc1 (protonated)
[O-]c1ccc(C(=CCCC[C@H](c2ccccc2)c2ccc([O-])cc2)c2ccccc2)cc1 (chirality)
[O-]c1ccc(/C(=C\CCC[C@H](c2ccccc2)c2ccc([O-])cc2)c2ccccc2)cc1 (cis-trans isomerization)
[O-]c1ccc(/C(=C\CCC[C@H](c2ccccc2)c2ccc([O-])cc2)c2ccccc2)cc1 (3D coordinates assigned)
[O-]c1ccc(/C(=C\CCC[C@H](c2ccccc2)c2ccc([O-])cc2)c2ccccc2)cc1 (optimized conformer: 75.69700515782854 kcal/mol)

>  <smiles>  (10) 
Oc1ccc(C(=CCCCC(c2ccccc2)c2ccc(O)cc2)c2ccccc2)cc1

>  <score_type>  (10) 
oracle

>  <origin>  (10) 
adg

>  <m_score__min__energy>  (10) 
-13.57

>  <m_primary>  (10) 
energy

$$$$
10:0
     RDKit          3D

 61 64  0  0  0  0  0  0  0  0999 V2000
   55.8890   19.3580   44.1390 C   0  0  0  0  0  0  0  0  0  0  0  0
   56.3390   20.5040   43.4230 O   0  0  0  0  0  0  0  0  0  0  0  0
   56.3960   21.8000   43.9580 C   0  0  0  0  0  0  0  0  0  0  0  0
   56.0040   22.9340   43.2280 C   0  0  0  0  0  0  0  0  0  0  0  0
   56.0850   24.2020   43.8010 C   0  0  0  0  0  0  0  0  0  0  0  0
   56.5640   24.3700   45.1110 C   0  0  0  0  0  0  0  0  0  0  0  0
   56.6480   25.7360   45.6800 C   0  0  0  0  0  0  0  0  0  0  0  0
   56.2780   25.9350   46.8700 O   0  0  0  0  0  0  0  0  0  0  0  0
   57.0750   26.8440   44.8700 N   0  0  0  0  0  0  0  0  0  0  0  0
   57.5570   28.0890   45.4060 C   0  0  0  0  0  0  0  0  0  0  0  0
   58.3100   28.1350   46.5870 C   0  0  0  0  0  0  0  0  0  0  0  0
   58.7890   29.3520   47.0780 C   0  0  0  0  0  0  0  0  0  0  0  0
   58.5370   30.5680   46.3970 C   0  0  0  0  0  0  0  0  0  0  0  0
   59.0340   31.8460   46.9090 N   0  0  0  0  0  0  0  0  0  0  0  0
   59.3010   32.9410   45.9520 C   0  0  0  0  0  0  0  0  0  0  0  0
   59.7210   34.2650   46.5950 C   0  0  0  0  0  0  0  0  0  0  0  0
   60.5750   34.0880   47.7710 N   0  0  0  0  0  0  0  0  0  0  0  0
   62.1520   33.4210   47.3980 S   0  0  0  0  0  0  0  0  0  0  0  0
   61.9930   32.0050   46.9210 O   0  0  0  0  0  0  0  0  0  0  0  0
   62.8370   34.2110   46.3180 O   0  0  0  0  0  0  0  0  0  0  0  0
   63.1510   33.4150   48.8500 C   0  0  0  0  0  0  0  0  0  0  0  0
   64.2990   32.6110   48.9230 C   0  0  0  0  0  0  0  0  0  0  0  0
   65.0960   32.6300   50.0720 C   0  0  0  0  0  0  0  0  0  0  0  0
   64.7540   33.4540   51.1490 C   0  0  0  0  0  0  0  0  0  0  0  0
   63.6150   34.2600   51.0780 C   0  0  0  0  0  0  0  0  0  0  0  0
   62.8150   34.2430   49.9300 C   0  0  0  0  0  0  0  0  0  0  0  0
   59.8660   33.3350   48.8070 C   0  0  0  0  0  0  0  0  0  0  0  0
   59.3830   31.9500   48.3450 C   0  0  0  0  0  0  0  0  0  0  0  0
   57.7980   30.4970   45.1910 C   0  0  0  0  0  0  0  0  0  0  0  0
   57.3240   29.2760   44.7050 C   0  0  0  0  0  0  0  0  0  0  0  0
   56.9380   23.2340   45.8620 C   0  0  0  0  0  0  0  0  0  0  0  0
   57.3560   23.3970   47.1940 O   0  0  0  0  0  0  0  0  0  0  0  0
   56.5870   23.0370   48.3370 C   0  0  0  0  0  0  0  0  0  0  0  0
   56.8590   21.9580   45.2690 C   0  0  0  0  0  0  0  0  0  0  0  0
   55.9637   19.5483   45.2198 H   0  0  0  0  0  0  0  0  0  0  0  0
   54.8419   19.1486   43.8751 H   0  0  0  0  0  0  0  0  0  0  0  0
   56.5139   18.4920   43.8751 H   0  0  0  0  0  0  0  0  0  0  0  0
   55.6313   22.8209   42.1993 H   0  0  0  0  0  0  0  0  0  0  0  0
   55.7701   25.0817   43.2206 H   0  0  0  0  0  0  0  0  0  0  0  0
   56.9330   26.7760   43.8370 H   0  0  0  0  0  0  0  0  0  0  0  0
   58.5258   27.2044   47.1323 H   0  0  0  0  0  0  0  0  0  0  0  0
   59.3725   29.3661   48.0104 H   0  0  0  0  0  0  0  0  0  0  0  0
   60.1070   32.6171   45.2771 H   0  0  0  0  0  0  0  0  0  0  0  0
   58.3521   33.1362   45.4310 H   0  0  0  0  0  0  0  0  0  0  0  0
   60.2712   34.8573   45.8490 H   0  0  0  0  0  0  0  0  0  0  0  0
   58.8040   34.7722   46.9294 H   0  0  0  0  0  0  0  0  0  0  0  0
   64.5722   31.9652   48.0755 H   0  0  0  0  0  0  0  0  0  0  0  0
   65.9931   31.9960   50.1287 H   0  0  0  0  0  0  0  0  0  0  0  0
   65.3818   33.4675   52.0521 H   0  0  0  0  0  0  0  0  0  0  0  0
   63.3469   34.9084   51.9251 H   0  0  0  0  0  0  0  0  0  0  0  0
   61.9205   34.8808   49.8750 H   0  0  0  0  0  0  0  0  0  0  0  0
   60.5441   33.1986   49.6623 H   0  0  0  0  0  0  0  0  0  0  0  0
   58.9698   33.9163   49.0697 H   0  0  0  0  0  0  0  0  0  0  0  0
   60.1831   31.2245   48.5533 H   0  0  0  0  0  0  0  0  0  0  0  0
   58.4530   31.7528   48.8983 H   0  0  0  0  0  0  0  0  0  0  0  0
   57.5937   31.4192   44.6272 H   0  0  0  0  0  0  0  0  0  0  0  0
   56.7612   29.2482   43.7603 H   0  0  0  0  0  0  0  0  0  0  0  0
   57.1430   23.2973   49.2498 H   0  0  0  0  0  0  0  0  0  0  0  0
   55.6312   23.5812   48.3221 H   0  0  0  0  0  0  0  0  0  0  0  0
   56.3928   21.9544   48.3221 H   0  0  0  0  0  0  0  0  0  0  0  0
   57.1659   21.0728   45.8454 H   0  0  0  0  0  0  0  0  0  0  0  0
  1  2  1  0
  2  3  1  0
  3  4  2  0
  4  5  1  0
  5  6  2  0
  6  7  1  0
  7  8  2  0
  7  9  1  0
  9 10  1  0
 10 11  2  0
 11 12  1  0
 12 13  2  0
 13 14  1  0
 14 15  1  0
 15 16  1  0
 16 17  1  0
 17 18  1  0
 18 19  2  0
 18 20  2  0
 18 21  1  0
 21 22  2  0
 22 23  1  0
 23 24  2  0
 24 25  1  0
 25 26  2  0
 17 27  1  0
 27 28  1  0
 13 29  1  0
 29 30  2  0
  6 31  1  0
 31 32  1  0
 32 33  1  0
 31 34  2  0
 34  3  1  0
 30 10  1  0
 28 14  1  0
 26 21  1  0
  1 35  1  0
  1 36  1  0
  1 37  1  0
  4 38  1  0
  5 39  1  0
  9 40  1  0
 11 41  1  0
 12 42  1  0
 15 43  1  0
 15 44  1  0
 16 45  1  0
 16 46  1  0
 22 47  1  0
 23 48  1  0
 24 49  1  0
 25 50  1  0
 26 51  1  0
 27 52  1  0
 27 53  1  0
 28 54  1  0
 28 55  1  0
 29 56  1  0
 30 57  1  0
 33 58  1  0
 33 59  1  0
 33 60  1  0
 34 61  1  0
M  END
>  <UniqueID>  (11) 
10

>  <SMILES>  (11) 
COc1ccc(C(=O)Nc2ccc(N3CCN(S(=O)(=O)c4ccccc4)CC3)cc2)c(OC)c1

>  <Energy>  (11) 
81.20809078425839

>  <Genealogy>  (11) 
COc1ccc(C(=O)Nc2ccc(N3CCN(S(=O)(=O)c4ccccc4)CC3)cc2)c(OC)c1 (3D coordinates assigned)
COc1ccc(C(=O)Nc2ccc(N3CCN(S(=O)(=O)c4ccccc4)CC3)cc2)c(OC)c1 (nonaromatic ring conformer: 81.20809078425839 kcal/mol)

>  <smiles>  (11) 
COc1ccc(C(=O)Nc2ccc(N3CCN(S(=O)(=O)c4ccccc4)CC3)cc2)c(OC)c1

>  <score_type>  (11) 
oracle

>  <origin>  (11) 
adg

>  <m_score__min__energy>  (11) 
-9.6899999999999995

>  <m_primary>  (11) 
energy

$$$$
11:0
     RDKit          3D

 44 46  0  0  0  0  0  0  0  0999 V2000
   54.7770   26.7140   46.0110 O   0  0  0  0  0  0  0  0  0  0  0  0
   55.7960   25.8060   45.7440 C   0  0  0  0  0  0  0  0  0  0  0  0
   55.4840   24.6030   45.1050 C   0  0  0  0  0  0  0  0  0  0  0  0
   56.4890   23.6820   44.8120 C   0  0  0  0  0  0  0  0  0  0  0  0
   57.8130   23.9600   45.1510 C   0  0  0  0  0  0  0  0  0  0  0  0
   58.1500   25.1680   45.7820 C   0  0  0  0  0  0  0  0  0  0  0  0
   57.1270   26.0930   46.1100 C   0  0  0  0  0  0  0  0  0  0  0  0
   57.4510   27.4280   46.7460 C   0  0  0  0  0  0  0  0  0  0  0  0
   58.8260   27.4470   47.4440 C   0  0  2  0  0  0  0  0  0  0  0  0
   59.1740   28.8250   47.8640 N   0  0  0  0  0  0  0  0  0  0  0  0
   60.4120   29.3280   47.2200 C   0  0  0  0  0  0  0  0  0  0  0  0
   60.1290   30.2540   46.0230 C   0  0  0  0  0  0  0  0  0  0  0  0
   58.7770   30.9700   46.1370 C   0  0  0  0  0  0  0  0  0  0  0  0
   57.9760   30.7910   44.8740 C   0  0  0  0  0  0  0  0  0  0  0  0
   58.1580   31.6670   43.7910 C   0  0  0  0  0  0  0  0  0  0  0  0
   57.3920   31.5210   42.6310 C   0  0  0  0  0  0  0  0  0  0  0  0
   56.4340   30.5070   42.5480 C   0  0  0  0  0  0  0  0  0  0  0  0
   56.2370   29.6400   43.6270 C   0  0  0  0  0  0  0  0  0  0  0  0
   57.0020   29.7830   44.7890 C   0  0  0  0  0  0  0  0  0  0  0  0
   59.8840   26.8700   46.4820 C   0  0  0  0  0  0  0  0  0  0  0  0
   59.5860   25.3990   46.1840 C   0  0  0  0  0  0  0  0  0  0  0  0
   54.4416   24.3818   44.8321 H   0  0  0  0  0  0  0  0  0  0  0  0
   56.2372   22.7347   44.3127 H   0  0  0  0  0  0  0  0  0  0  0  0
   58.6000   23.2264   44.9220 H   0  0  0  0  0  0  0  0  0  0  0  0
   57.4454   28.1998   45.9623 H   0  0  0  0  0  0  0  0  0  0  0  0
   56.6891   27.6182   47.5163 H   0  0  0  0  0  0  0  0  0  0  0  0
   58.7925   26.8256   48.3511 H   0  0  0  0  0  0  0  0  0  0  0  0
   59.2720   28.8670   48.9060 H   0  0  0  0  0  0  0  0  0  0  0  0
   58.3820   29.4680   47.6250 H   0  0  0  0  0  0  0  0  0  0  0  0
   60.9942   29.8875   47.9670 H   0  0  0  0  0  0  0  0  0  0  0  0
   60.9651   28.4562   46.8403 H   0  0  0  0  0  0  0  0  0  0  0  0
   60.9250   31.0112   45.9676 H   0  0  0  0  0  0  0  0  0  0  0  0
   60.0995   29.6290   45.1183 H   0  0  0  0  0  0  0  0  0  0  0  0
   58.2153   30.5497   46.9843 H   0  0  0  0  0  0  0  0  0  0  0  0
   58.9558   32.0438   46.2952 H   0  0  0  0  0  0  0  0  0  0  0  0
   58.9061   32.4708   43.8561 H   0  0  0  0  0  0  0  0  0  0  0  0
   57.5434   32.2048   41.7828 H   0  0  0  0  0  0  0  0  0  0  0  0
   55.8345   30.3909   41.6331 H   0  0  0  0  0  0  0  0  0  0  0  0
   55.4797   28.8448   43.5619 H   0  0  0  0  0  0  0  0  0  0  0  0
   56.8402   29.1038   45.6390 H   0  0  0  0  0  0  0  0  0  0  0  0
   59.8691   27.4408   45.5418 H   0  0  0  0  0  0  0  0  0  0  0  0
   60.8749   26.9456   46.9535 H   0  0  0  0  0  0  0  0  0  0  0  0
   60.2393   25.0662   45.3640 H   0  0  0  0  0  0  0  0  0  0  0  0
   59.7699   24.8282   47.1062 H   0  0  0  0  0  0  0  0  0  0  0  0
  1  2  1  0
  2  3  2  0
  3  4  1  0
  4  5  2  0
  5  6  1  0
  6  7  2  0
  7  8  1  0
  8  9  1  0
  9 10  1  0
 10 11  1  0
 11 12  1  0
 12 13  1  0
 13 14  1  0
 14 15  2  0
 15 16  1  0
 16 17  2  0
 17 18  1  0
 18 19  2  0
  9 20  1  0
 20 21  1  0
  7  2  1  0
 19 14  1  0
 21  6  1  0
  3 22  1  0
  4 23  1  0
  5 24  1  0
  8 25  1  0
  8 26  1  0
  9 27  1  1
 10 28  1  0
 10 29  1  0
 11 30  1  0
 11 31  1  0
 12 32  1  0
 12 33  1  0
 13 34  1  0
 13 35  1  0
 15 36  1  0
 16 37  1  0
 17 38  1  0
 18 39  1  0
 19 40  1  0
 20 41  1  0
 20 42  1  0
 21 43  1  0
 21 44  1  0
M  CHG  2   1  -1  10   1
M  END
>  <UniqueID>  (12) 
11

>  <SMILES>  (12) 
[O-]c1cccc2c1C[C@H]([NH2+]CCCc1ccccc1)CC2

>  <Energy>  (12) 
46.170823008996344

>  <Genealogy>  (12) 
[O-]c1cccc2c1CC([NH2+]CCCc1ccccc1)CC2 (protonated)
[O-]c1cccc2c1C[C@H]([NH2+]CCCc1ccccc1)CC2 (chirality)
[O-]c1cccc2c1C[C@H]([NH2+]CCCc1ccccc1)CC2 (3D coordinates assigned)
[O-]c1cccc2c1C[C@H]([NH2+]CCCc1ccccc1)CC2 (nonaromatic ring conformer: 46.170823008996344 kcal/mol)

>  <smiles>  (12) 
Oc1cccc2c1CC(NCCCc1ccccc1)CC2

>  <score_type>  (12) 
oracle

>  <origin>  (12) 
adg

>  <m_score__min__energy>  (12) 
-10.32

>  <m_primary>  (12) 
energy

$$$$
12:0
     RDKit          3D

 73 77  0  0  0  0  0  0  0  0999 V2000
   59.5820   27.9250   47.1410 C   0  0  0  0  0  0  0  0  0  0  0  0
   58.9330   28.9430   46.2390 C   0  0  0  0  0  0  0  0  0  0  0  0
   59.3460   30.2830   46.3220 C   0  0  0  0  0  0  0  0  0  0  0  0
   58.7880   31.2630   45.4960 C   0  0  0  0  0  0  0  0  0  0  0  0
   59.2510   32.5790   45.6240 O   0  0  0  0  0  0  0  0  0  0  0  0
   59.1160   33.3750   46.7990 C   0  0  0  0  0  0  0  0  0  0  0  0
   60.4910   33.6620   47.4210 C   0  0  0  0  0  0  0  0  0  0  0  0
   61.5950   32.9540   46.7150 N   0  0  0  0  0  0  0  0  0  0  0  0
   62.1630   31.8540   47.5250 C   0  0  0  0  0  0  0  0  0  0  0  0
   63.4530   32.3510   48.1720 C   0  0  0  0  0  0  0  0  0  0  0  0
   63.6780   33.7460   47.6260 C   0  0  0  0  0  0  0  0  0  0  0  0
   62.7310   33.8520   46.4460 C   0  0  0  0  0  0  0  0  0  0  0  0
   57.7940   30.8990   44.5720 C   0  0  0  0  0  0  0  0  0  0  0  0
   57.3610   29.5750   44.4910 C   0  0  0  0  0  0  0  0  0  0  0  0
   57.9070   28.5900   45.3280 C   0  0  0  0  0  0  0  0  0  0  0  0
   57.3940   27.2060   45.2250 C   0  0  0  0  0  0  0  0  0  0  0  0
   56.4170   26.7400   46.1170 C   0  0  0  0  0  0  0  0  0  0  0  0
   55.9400   25.4300   46.0200 C   0  0  0  0  0  0  0  0  0  0  0  0
   56.4250   24.5680   45.0240 C   0  0  0  0  0  0  0  0  0  0  0  0
   55.9560   23.1360   44.9520 C   0  0  0  0  0  0  0  0  0  0  0  0
   54.8830   22.8920   45.9400 N   0  0  0  0  0  0  0  0  0  0  0  0
   53.5650   22.9810   45.5440 C   0  0  0  0  0  0  0  0  0  0  0  0
   53.2680   23.3320   44.3690 O   0  0  0  0  0  0  0  0  0  0  0  0
   52.5170   22.6850   46.4340 C   0  0  0  0  0  0  0  0  0  0  0  0
   52.7860   22.2820   47.7510 C   0  0  0  0  0  0  0  0  0  0  0  0
   51.6590   21.9640   48.7200 C   0  0  0  0  0  0  0  0  0  0  0  0
   51.5750   20.4580   49.0010 C   0  0  0  0  0  0  0  0  0  0  0  0
   50.3230   22.5040   48.1970 C   0  0  0  0  0  0  0  0  0  0  0  0
   54.1310   22.2170   48.1270 C   0  0  0  0  0  0  0  0  0  0  0  0
   54.7840   21.8020   49.6220 S   0  0  0  0  0  0  0  0  0  0  0  0
   56.3910   22.0090   49.1590 C   0  0  0  0  0  0  0  0  0  0  0  0
   57.5520   21.8040   50.0360 C   0  0  0  0  0  0  0  0  0  0  0  0
   57.9800   22.8400   50.9170 N   0  0  0  0  0  0  0  0  0  0  0  0
   58.1740   20.7090   50.0100 O   0  0  0  0  0  0  0  0  0  0  0  0
   56.4380   22.4090   47.8250 C   0  0  0  0  0  0  0  0  0  0  0  0
   55.1590   22.5200   47.2380 C   0  0  0  0  0  0  0  0  0  0  0  0
   57.3910   25.0420   44.1200 C   0  0  0  0  0  0  0  0  0  0  0  0
   57.8680   26.3530   44.2160 C   0  0  0  0  0  0  0  0  0  0  0  0
   59.4062   28.2007   48.1913 H   0  0  0  0  0  0  0  0  0  0  0  0
   59.1494   26.9328   46.9451 H   0  0  0  0  0  0  0  0  0  0  0  0
   60.6641   27.8984   46.9451 H   0  0  0  0  0  0  0  0  0  0  0  0
   60.1214   30.5659   47.0491 H   0  0  0  0  0  0  0  0  0  0  0  0
   58.6325   34.3275   46.5364 H   0  0  0  0  0  0  0  0  0  0  0  0
   58.5047   32.8257   47.5301 H   0  0  0  0  0  0  0  0  0  0  0  0
   60.6800   34.7447   47.3751 H   0  0  0  0  0  0  0  0  0  0  0  0
   60.4708   33.2988   48.4591 H   0  0  0  0  0  0  0  0  0  0  0  0
   61.2450   32.5790   45.8000 H   0  0  0  0  0  0  0  0  0  0  0  0
   61.4460   31.5580   48.3049 H   0  0  0  0  0  0  0  0  0  0  0  0
   62.3707   30.9822   46.8871 H   0  0  0  0  0  0  0  0  0  0  0  0
   63.3459   32.3807   49.2664 H   0  0  0  0  0  0  0  0  0  0  0  0
   64.3005   31.6868   47.9473 H   0  0  0  0  0  0  0  0  0  0  0  0
   63.4378   34.5040   48.3861 H   0  0  0  0  0  0  0  0  0  0  0  0
   64.7255   33.9171   47.3371 H   0  0  0  0  0  0  0  0  0  0  0  0
   62.3755   34.8876   46.3403 H   0  0  0  0  0  0  0  0  0  0  0  0
   63.2388   33.5691   45.5121 H   0  0  0  0  0  0  0  0  0  0  0  0
   57.3556   31.6605   43.9102 H   0  0  0  0  0  0  0  0  0  0  0  0
   56.5833   29.3005   43.7632 H   0  0  0  0  0  0  0  0  0  0  0  0
   56.0243   27.4090   46.8968 H   0  0  0  0  0  0  0  0  0  0  0  0
   55.1792   25.0719   46.7291 H   0  0  0  0  0  0  0  0  0  0  0  0
   55.5714   22.9314   43.9419 H   0  0  0  0  0  0  0  0  0  0  0  0
   56.8040   22.4723   45.1766 H   0  0  0  0  0  0  0  0  0  0  0  0
   51.4744   22.7704   46.0938 H   0  0  0  0  0  0  0  0  0  0  0  0
   51.8803   22.4671   49.6728 H   0  0  0  0  0  0  0  0  0  0  0  0
   51.5655   20.2877   50.0877 H   0  0  0  0  0  0  0  0  0  0  0  0
   50.6529   20.0533   48.5584 H   0  0  0  0  0  0  0  0  0  0  0  0
   52.4464   19.9533   48.5584 H   0  0  0  0  0  0  0  0  0  0  0  0
   49.6754   22.7657   49.0468 H   0  0  0  0  0  0  0  0  0  0  0  0
   50.5040   23.3996   47.5845 H   0  0  0  0  0  0  0  0  0  0  0  0
   49.8309   21.7342   47.5845 H   0  0  0  0  0  0  0  0  0  0  0  0
   58.9480   23.2280   50.8600 H   0  0  0  0  0  0  0  0  0  0  0  0
   57.3740   22.6166   47.2857 H   0  0  0  0  0  0  0  0  0  0  0  0
   57.7744   24.3774   43.3318 H   0  0  0  0  0  0  0  0  0  0  0  0
   58.6176   26.7172   43.4980 H   0  0  0  0  0  0  0  0  0  0  0  0
  1  2  1  0
  2  3  2  0
  3  4  1  0
  4  5  1  0
  5  6  1  0
  6  7  1  0
  7  8  1  0
  8  9  1  0
  9 10  1  0
 10 11  1  0
 11 12  1  0
  4 13  2  0
 13 14  1  0
 14 15  2  0
 15 16  1  0
 16 17  2  0
 17 18  1  0
 18 19  2  0
 19 20  1  0
 20 21  1  0
 21 22  1  0
 22 23  2  0
 22 24  1  0
 24 25  2  0
 25 26  1  0
 26 27  1  0
 26 28  1  0
 25 29  1  0
 29 30  1  0
 30 31  1  0
 31 32  1  0
 32 33  1  0
 32 34  2  0
 31 35  2  0
 35 36  1  0
 19 37  1  0
 37 38  2  0
 15  2  1  0
 38 16  1  0
 12  8  1  0
 36 21  1  0
 36 29  2  0
  1 39  1  0
  1 40  1  0
  1 41  1  0
  3 42  1  0
  6 43  1  0
  6 44  1  0
  7 45  1  0
  7 46  1  0
  8 47  1  0
  9 48  1  0
  9 49  1  0
 10 50  1  0
 10 51  1  0
 11 52  1  0
 11 53  1  0
 12 54  1  0
 12 55  1  0
 13 56  1  0
 14 57  1  0
 17 58  1  0
 18 59  1  0
 20 60  1  0
 20 61  1  0
 24 62  1  0
 26 63  1  0
 27 64  1  0
 27 65  1  0
 27 66  1  0
 28 67  1  0
 28 68  1  0
 28 69  1  0
 33 70  1  0
 35 71  1  0
 37 72  1  0
 38 73  1  0
M  CHG  2   8   1  33  -1
M  END
>  <UniqueID>  (13) 
12

>  <SMILES>  (13) 
Cc1cc(OCC[NH+]2CCCC2)ccc1-c1ccc(Cn2c(=O)cc(C(C)C)c3sc(C([NH-])=O)cc32)cc1

>  <Energy>  (13) 
119.72673413953477

>  <Genealogy>  (13) 
Cc1cc(OCC[NH+]2CCCC2)ccc1-c1ccc(Cn2c(=O)cc(C(C)C)c3sc(C([NH-])=O)cc32)cc1 (protonated)
Cc1cc(OCC[NH+]2CCCC2)ccc1-c1ccc(Cn2c(=O)cc(C(C)C)c3sc(C([NH-])=O)cc32)cc1 (3D coordinates assigned)
Cc1cc(OCC[NH+]2CCCC2)ccc1-c1ccc(Cn2c(=O)cc(C(C)C)c3sc(C([NH-])=O)cc32)cc1 (nonaromatic ring conformer: 119.72673413953477 kcal/mol)

>  <smiles>  (13) 
Cc1cc(OCCN2CCCC2)ccc1-c1ccc(Cn2c(=O)cc(C(C)C)c3sc(C(N)=O)cc32)cc1

>  <score_type>  (13) 
oracle

>  <origin>  (13) 
adg

>  <m_score__min__energy>  (13) 
-9.6899999999999995

>  <m_primary>  (13) 
energy

$$$$
13:0
     RDKit          3D

 24 24  0  0  0  0  0  0  0  0999 V2000
   57.1560   33.8110   45.9900 C   0  0  0  0  0  0  0  0  0  0  0  0
   58.1660   33.6110   44.9490 N   0  0  0  0  0  0  0  0  0  0  0  0
   59.2670   34.5680   44.8290 C   0  0  0  0  0  0  0  0  0  0  0  0
   58.0710   32.5260   44.0070 C   0  0  0  0  0  0  0  0  0  0  0  0
   58.4250   32.7150   42.8110 O   0  0  0  0  0  0  0  0  0  0  0  0
   57.5840   31.1850   44.4090 C   0  0  0  0  0  0  0  0  0  0  0  0
   58.3590   30.3800   45.2620 C   0  0  0  0  0  0  0  0  0  0  0  0
   57.9000   29.1200   45.6560 C   0  0  0  0  0  0  0  0  0  0  0  0
   56.6570   28.6500   45.2130 C   0  0  0  0  0  0  0  0  0  0  0  0
   56.1870   27.3610   45.6180 N   0  0  0  0  0  0  0  0  0  0  0  0
   55.8730   29.4550   44.3760 C   0  0  0  0  0  0  0  0  0  0  0  0
   56.3300   30.7160   43.9810 C   0  0  0  0  0  0  0  0  0  0  0  0
   57.6264   33.7179   46.9800 H   0  0  0  0  0  0  0  0  0  0  0  0
   56.7159   34.8137   45.8861 H   0  0  0  0  0  0  0  0  0  0  0  0
   56.3669   33.0517   45.8861 H   0  0  0  0  0  0  0  0  0  0  0  0
   59.6070   34.8635   45.8325 H   0  0  0  0  0  0  0  0  0  0  0  0
   60.0999   34.1020   44.2821 H   0  0  0  0  0  0  0  0  0  0  0  0
   58.9215   35.4577   44.2821 H   0  0  0  0  0  0  0  0  0  0  0  0
   59.3327   30.7440   45.6216 H   0  0  0  0  0  0  0  0  0  0  0  0
   58.5178   28.4945   46.3171 H   0  0  0  0  0  0  0  0  0  0  0  0
   56.0780   26.5900   44.9220 H   0  0  0  0  0  0  0  0  0  0  0  0
   55.9420   27.1700   46.6150 H   0  0  0  0  0  0  0  0  0  0  0  0
   54.8940   29.0935   44.0283 H   0  0  0  0  0  0  0  0  0  0  0  0
   55.7041   31.3451   43.3311 H   0  0  0  0  0  0  0  0  0  0  0  0
  1  2  1  0
  2  3  1  0
  2  4  1  0
  4  5  2  0
  4  6  1  0
  6  7  2  0
  7  8  1  0
  8  9  2  0
  9 10  1  0
  9 11  1  0
 11 12  2  0
 12  6  1  0
  1 13  1  0
  1 14  1  0
  1 15  1  0
  3 16  1  0
  3 17  1  0
  3 18  1  0
  7 19  1  0
  8 20  1  0
 10 21  1  0
 10 22  1  0
 11 23  1  0
 12 24  1  0
M  END
>  <UniqueID>  (14) 
13

>  <SMILES>  (14) 
CN(C)C(=O)c1ccc(N)cc1

>  <Energy>  (14) 
24.11451621515953

>  <Genealogy>  (14) 
CN(C)C(=O)c1ccc(N)cc1 (3D coordinates assigned)
CN(C)C(=O)c1ccc(N)cc1 (optimized conformer: 24.11451621515953 kcal/mol)

>  <smiles>  (14) 
CN(C)C(=O)c1ccc(N)cc1

>  <score_type>  (14) 
oracle

>  <origin>  (14) 
adg

>  <m_score__min__energy>  (14) 
-5.0999999999999996

>  <m_primary>  (14) 
energy

$$$$
14:0
     RDKit          3D

 61 64  0  0  0  0  0  0  0  0999 V2000
   64.6860   29.2430   52.2030 C   0  0  0  0  0  0  0  0  0  0  0  0
   64.8620   30.1860   51.1530 O   0  0  0  0  0  0  0  0  0  0  0  0
   65.8320   31.2020   51.1480 C   0  0  0  0  0  0  0  0  0  0  0  0
   67.0590   31.0660   51.8290 C   0  0  0  0  0  0  0  0  0  0  0  0
   67.9890   32.1080   51.8250 C   0  0  0  0  0  0  0  0  0  0  0  0
   67.7090   33.2960   51.1450 C   0  0  0  0  0  0  0  0  0  0  0  0
   66.4990   33.4420   50.4640 C   0  0  0  0  0  0  0  0  0  0  0  0
   65.5580   32.3970   50.4550 C   0  0  0  0  0  0  0  0  0  0  0  0
   64.3160   32.5540   49.7480 N   0  0  0  0  0  0  0  0  0  0  0  0
   63.0450   32.2410   50.4080 C   0  0  0  0  0  0  0  0  0  0  0  0
   62.0910   31.5890   49.4090 C   0  0  0  0  0  0  0  0  0  0  0  0
   62.0420   32.3740   48.1680 N   0  0  0  0  0  0  0  0  0  0  0  0
   60.8020   32.4910   47.4450 C   0  0  0  0  0  0  0  0  0  0  0  0
   60.6470   33.4550   46.4350 C   0  0  0  0  0  0  0  0  0  0  0  0
   59.4430   33.5560   45.7320 C   0  0  0  0  0  0  0  0  0  0  0  0
   58.3710   32.7030   46.0340 C   0  0  0  0  0  0  0  0  0  0  0  0
   57.1070   32.7790   45.2770 C   0  0  0  0  0  0  0  0  0  0  0  0
   56.6520   33.9100   44.9610 O   0  0  0  0  0  0  0  0  0  0  0  0
   56.3900   31.6090   44.8640 N   0  0  0  0  0  0  0  0  0  0  0  0
   56.9650   30.4900   44.1260 C   0  0  0  0  0  0  0  0  0  0  0  0
   56.7910   29.1590   44.8900 C   0  0  0  0  0  0  0  0  0  0  0  0
   58.0350   28.4270   45.2300 N   0  0  0  0  0  0  0  0  0  0  0  0
   58.3780   28.3350   46.6560 C   0  0  0  0  0  0  0  0  0  0  0  0
   59.8930   28.2850   46.7330 C   0  0  0  0  0  0  0  0  0  0  0  0
   60.3520   29.0400   45.5020 C   0  0  0  0  0  0  0  0  0  0  0  0
   59.2330   28.8470   44.4890 C   0  0  0  0  0  0  0  0  0  0  0  0
   58.5300   31.7310   47.0320 C   0  0  0  0  0  0  0  0  0  0  0  0
   59.7310   31.6300   47.7390 C   0  0  0  0  0  0  0  0  0  0  0  0
   63.3150   32.7000   47.5120 C   0  0  0  0  0  0  0  0  0  0  0  0
   64.2730   33.3460   48.5150 C   0  0  0  0  0  0  0  0  0  0  0  0
   64.7811   29.7526   53.1732 H   0  0  0  0  0  0  0  0  0  0  0  0
   63.6875   28.7883   52.1239 H   0  0  0  0  0  0  0  0  0  0  0  0
   65.4533   28.4588   52.1239 H   0  0  0  0  0  0  0  0  0  0  0  0
   67.2852   30.1335   52.3668 H   0  0  0  0  0  0  0  0  0  0  0  0
   68.9441   31.9931   52.3584 H   0  0  0  0  0  0  0  0  0  0  0  0
   68.4419   34.1163   51.1462 H   0  0  0  0  0  0  0  0  0  0  0  0
   66.2805   34.3795   49.9316 H   0  0  0  0  0  0  0  0  0  0  0  0
   63.2278   31.5492   51.2435 H   0  0  0  0  0  0  0  0  0  0  0  0
   62.5944   33.1697   50.7881 H   0  0  0  0  0  0  0  0  0  0  0  0
   62.4423   30.5717   49.1818 H   0  0  0  0  0  0  0  0  0  0  0  0
   61.0834   31.5489   49.8485 H   0  0  0  0  0  0  0  0  0  0  0  0
   61.4782   34.1346   46.1959 H   0  0  0  0  0  0  0  0  0  0  0  0
   59.3355   34.3088   44.9372 H   0  0  0  0  0  0  0  0  0  0  0  0
   56.4638   30.4101   43.1501 H   0  0  0  0  0  0  0  0  0  0  0  0
   58.0415   30.6770   43.9991 H   0  0  0  0  0  0  0  0  0  0  0  0
   56.2645   29.3791   45.8304 H   0  0  0  0  0  0  0  0  0  0  0  0
   56.2409   28.4979   44.2042 H   0  0  0  0  0  0  0  0  0  0  0  0
   57.9990   29.2155   47.1955 H   0  0  0  0  0  0  0  0  0  0  0  0
   57.9269   27.4438   47.1167 H   0  0  0  0  0  0  0  0  0  0  0  0
   60.2536   28.7759   47.6489 H   0  0  0  0  0  0  0  0  0  0  0  0
   60.2799   27.2558   46.7651 H   0  0  0  0  0  0  0  0  0  0  0  0
   60.4884   30.1074   45.7303 H   0  0  0  0  0  0  0  0  0  0  0  0
   61.3195   28.6747   45.1271 H   0  0  0  0  0  0  0  0  0  0  0  0
   59.0365   29.7921   43.9616 H   0  0  0  0  0  0  0  0  0  0  0  0
   59.5125   28.0894   43.7421 H   0  0  0  0  0  0  0  0  0  0  0  0
   57.7029   31.0427   47.2601 H   0  0  0  0  0  0  0  0  0  0  0  0
   59.8387   30.8728   48.5296 H   0  0  0  0  0  0  0  0  0  0  0  0
   63.7679   31.7782   47.1181 H   0  0  0  0  0  0  0  0  0  0  0  0
   63.1258   33.4052   46.6892 H   0  0  0  0  0  0  0  0  0  0  0  0
   65.2810   33.3938   48.0773 H   0  0  0  0  0  0  0  0  0  0  0  0
   63.9200   34.3610   48.7497 H   0  0  0  0  0  0  0  0  0  0  0  0
  1  2  1  0
  2  3  1  0
  3  4  2  0
  4  5  1  0
  5  6  2  0
  6  7  1  0
  7  8  2  0
  8  9  1  0
  9 10  1  0
 10 11  1  0
 11 12  1  0
 12 13  1  0
 13 14  2  0
 14 15  1  0
 15 16  2  0
 16 17  1  0
 17 18  2  0
 17 19  1  0
 19 20  1  0
 20 21  1  0
 21 22  1  0
 22 23  1  0
 23 24  1  0
 24 25  1  0
 25 26  1  0
 16 27  1  0
 27 28  2  0
 12 29  1  0
 29 30  1  0
  8  3  1  0
 30  9  1  0
 28 13  1  0
 26 22  1  0
  1 31  1  0
  1 32  1  0
  1 33  1  0
  4 34  1  0
  5 35  1  0
  6 36  1  0
  7 37  1  0
 10 38  1  0
 10 39  1  0
 11 40  1  0
 11 41  1  0
 14 42  1  0
 15 43  1  0
 20 44  1  0
 20 45  1  0
 21 46  1  0
 21 47  1  0
 23 48  1  0
 23 49  1  0
 24 50  1  0
 24 51  1  0
 25 52  1  0
 25 53  1  0
 26 54  1  0
 26 55  1  0
 27 56  1  0
 28 57  1  0
 29 58  1  0
 29 59  1  0
 30 60  1  0
 30 61  1  0
M  CHG  1  19  -1
M  END
>  <UniqueID>  (15) 
14

>  <SMILES>  (15) 
COc1ccccc1N1CCN(c2ccc(C(=O)[N-]CCN3CCCC3)cc2)CC1

>  <Energy>  (15) 
80.95000560888721

>  <Genealogy>  (15) 
COc1ccccc1N1CCN(c2ccc(C(=O)[N-]CCN3CCCC3)cc2)CC1 (protonated)
COc1ccccc1N1CCN(c2ccc(C(=O)[N-]CCN3CCCC3)cc2)CC1 (3D coordinates assigned)
COc1ccccc1N1CCN(c2ccc(C(=O)[N-]CCN3CCCC3)cc2)CC1 (nonaromatic ring conformer: 80.95000560888721 kcal/mol)

>  <smiles>  (15) 
COc1ccccc1N1CCN(c2ccc(C(=O)NCCN3CCCC3)cc2)CC1

>  <score_type>  (15) 
oracle

>  <origin>  (15) 
adg

>  <m_score__min__energy>  (15) 
-9.2200000000000006

>  <m_primary>  (15) 
energy

$$$$
15:0
     RDKit          3D

 56 61  0  0  0  0  0  0  0  0999 V2000
   58.5585   25.0797   46.9504 H   0  0  0  0  0  0  0  0  0  0  0  0
   57.8300   25.6390   46.3450 C   0  0  0  0  0  0  0  0  0  0  0  0
   56.6690   24.9090   45.8010 C   0  0  0  0  0  0  0  0  0  0  0  0
   55.5130   25.2870   46.1280 O   0  0  0  0  0  0  0  0  0  0  0  0
   56.8160   23.7930   44.8470 C   0  0  0  0  0  0  0  0  0  0  0  0
   55.8660   23.5620   43.4770 S   0  0  0  0  0  0  0  0  0  0  0  0
   56.6490   22.1760   42.9370 C   0  0  0  0  0  0  0  0  0  0  0  0
   56.3904   21.5997   42.0365 H   0  0  0  0  0  0  0  0  0  0  0  0
   57.6780   21.8830   43.8220 C   0  0  0  0  0  0  0  0  0  0  0  0
   58.3511   21.0218   43.6986 H   0  0  0  0  0  0  0  0  0  0  0  0
   57.7780   22.7870   44.8860 C   0  0  0  0  0  0  0  0  0  0  0  0
   58.5409   22.7103   45.6748 H   0  0  0  0  0  0  0  0  0  0  0  0
   58.0470   26.9530   46.1410 C   0  0  0  0  0  0  0  0  0  0  0  0
   58.1460   28.1190   47.3420 S   0  0  0  0  0  0  0  0  0  0  0  0
   58.3850   29.4310   46.3150 C   0  0  0  0  0  0  0  0  0  0  0  0
   58.5510   30.7210   46.7140 C   0  0  0  0  0  0  0  0  0  0  0  0
   59.0010   31.2350   48.0300 C   0  0  0  0  0  0  0  0  0  0  0  0
   59.3860   30.5430   49.0070 O   0  0  0  0  0  0  0  0  0  0  0  0
   59.0140   32.6590   48.0550 N   0  0  0  0  0  0  0  0  0  0  0  0
   59.6520   33.4960   49.0720 C   0  0  0  0  0  0  0  0  0  0  0  0
   59.3164   33.1739   50.0688 H   0  0  0  0  0  0  0  0  0  0  0  0
   59.3701   34.5449   48.8981 H   0  0  0  0  0  0  0  0  0  0  0  0
   61.1500   33.3740   48.9900 C   0  0  0  0  0  0  0  0  0  0  0  0
   61.8020   33.4650   47.7310 C   0  0  0  0  0  0  0  0  0  0  0  0
   61.2046   33.6018   46.8176 H   0  0  0  0  0  0  0  0  0  0  0  0
   63.2030   33.3820   47.6400 C   0  0  0  0  0  0  0  0  0  0  0  0
   63.7136   33.4508   46.6681 H   0  0  0  0  0  0  0  0  0  0  0  0
   63.9230   33.2100   48.8190 C   0  0  0  0  0  0  0  0  0  0  0  0
   65.2210   33.1090   48.9580 O   0  0  0  0  0  0  0  0  0  0  0  0
   65.4670   32.9560   50.2470 C   0  0  0  0  0  0  0  0  0  0  0  0
   66.8350   32.7990   50.8200 C   0  0  0  0  0  0  0  0  0  0  0  0
   66.7755   32.8058   51.9184 H   0  0  0  0  0  0  0  0  0  0  0  0
   67.2668   31.8454   50.4821 H   0  0  0  0  0  0  0  0  0  0  0  0
   67.4716   33.6300   50.4821 H   0  0  0  0  0  0  0  0  0  0  0  0
   64.2860   32.9540   50.9810 C   0  0  0  0  0  0  0  0  0  0  0  0
   64.1666   32.8441   52.0690 H   0  0  0  0  0  0  0  0  0  0  0  0
   63.3010   33.1210   50.0350 C   0  0  0  0  0  0  0  0  0  0  0  0
   61.9180   33.1990   50.1650 C   0  0  0  0  0  0  0  0  0  0  0  0
   61.4365   33.1268   51.1514 H   0  0  0  0  0  0  0  0  0  0  0  0
   58.6160   33.0580   46.7480 C   0  0  0  0  0  0  0  0  0  0  0  0
   58.4850   34.3730   46.2920 C   0  0  0  0  0  0  0  0  0  0  0  0
   58.7094   35.2220   46.9545 H   0  0  0  0  0  0  0  0  0  0  0  0
   58.0620   34.5870   44.9740 C   0  0  0  0  0  0  0  0  0  0  0  0
   57.9589   35.6132   44.5916 H   0  0  0  0  0  0  0  0  0  0  0  0
   57.7690   33.4970   44.1390 C   0  0  0  0  0  0  0  0  0  0  0  0
   57.4348   33.6753   43.1063 H   0  0  0  0  0  0  0  0  0  0  0  0
   57.8990   32.1820   44.6110 C   0  0  0  0  0  0  0  0  0  0  0  0
   57.6648   31.3290   43.9572 H   0  0  0  0  0  0  0  0  0  0  0  0
   58.3330   31.9700   45.9320 C   0  0  0  0  0  0  0  0  0  0  0  0
   58.3760   28.8940   45.0090 C   0  0  0  0  0  0  0  0  0  0  0  0
   58.5580   29.5900   43.9770 O   0  0  0  0  0  0  0  0  0  0  0  0
   58.1810   27.5390   44.9200 N   0  0  0  0  0  0  0  0  0  0  0  0
   58.1320   26.8060   43.6460 C   0  0  0  0  0  0  0  0  0  0  0  0
   58.0599   25.7268   43.8464 H   0  0  0  0  0  0  0  0  0  0  0  0
   57.2536   27.1314   43.0693 H   0  0  0  0  0  0  0  0  0  0  0  0
   59.0459   27.0115   43.0693 H   0  0  0  0  0  0  0  0  0  0  0  0
  1  2  1  0
  2  3  1  0
  3  4  2  0
  3  5  1  0
  5  6  1  0
  6  7  1  0
  7  8  1  0
  7  9  2  0
  9 10  1  0
  9 11  1  0
 11 12  1  0
  2 13  2  0
 13 14  1  0
 14 15  1  0
 15 16  2  3
 16 17  1  0
 17 18  2  0
 17 19  1  0
 19 20  1  0
 20 21  1  0
 20 22  1  0
 20 23  1  0
 23 24  2  0
 24 25  1  0
 24 26  1  0
 26 27  1  0
 26 28  2  0
 28 29  1  0
 29 30  1  0
 30 31  1  0
 31 32  1  0
 31 33  1  0
 31 34  1  0
 30 35  2  0
 35 36  1  0
 35 37  1  0
 37 38  2  0
 38 39  1  0
 19 40  1  0
 40 41  2  0
 41 42  1  0
 41 43  1  0
 43 44  1  0
 43 45  2  0
 45 46  1  0
 45 47  1  0
 47 48  1  0
 47 49  2  0
 15 50  1  0
 50 51  2  0
 50 52  1  0
 52 53  1  0
 53 54  1  0
 53 55  1  0
 53 56  1  0
 11  5  2  0
 52 13  1  0
 49 16  1  0
 38 23  1  0
 49 40  1  0
 37 28  1  0
M  END
>  <UniqueID>  (16) 
15

>  <SMILES>  (16) 
Cc1cc2cc(CN3C(=O)C(=c4s/c(=C\C(=O)c5cccs5)n(C)c4=O)c4ccccc43)ccc2o1

>  <Energy>  (16) 
198.1262928702358

>  <Genealogy>  (16) 
Cc1cc2cc(CN3C(=O)C(=c4s/c(=C\C(=O)c5cccs5)n(C)c4=O)c4ccccc43)ccc2o1 (cis-trans isomerization)
Cc1cc2cc(CN3C(=O)C(=c4s/c(=C\C(=O)c5cccs5)n(C)c4=O)c4ccccc43)ccc2o1 (3D coordinates assigned)
Cc1cc2cc(CN3C(=O)C(=c4s/c(=C\C(=O)c5cccs5)n(C)c4=O)c4ccccc43)ccc2o1 (nonaromatic ring conformer: 198.1262928702358 kcal/mol)

>  <smiles>  (16) 
Cc1cc2cc(CN3C(=O)C(=c4sc(=CC(=O)c5cccs5)n(C)c4=O)c4ccccc43)ccc2o1

>  <score_type>  (16) 
oracle

>  <origin>  (16) 
adg

>  <m_score__min__energy>  (16) 
-10.66

>  <m_primary>  (16) 
energy

$$$$
16:0
     RDKit          3D

 36 37  0  0  0  0  0  0  0  0999 V2000
   57.9120   25.9250   44.8230 C   0  0  0  0  0  0  0  0  0  0  0  0
   56.7880   26.6630   45.9850 S   0  0  0  0  0  0  0  0  0  0  0  0
   57.5560   27.1040   47.2000 O   0  0  0  0  0  0  0  0  0  0  0  0
   55.7480   25.6510   46.3730 O   0  0  0  0  0  0  0  0  0  0  0  0
   56.0280   28.0320   45.2400 N   0  0  0  0  0  0  0  0  0  0  0  0
   56.5760   29.3570   45.1950 C   0  0  0  0  0  0  0  0  0  0  0  0
   57.5570   29.7090   46.1290 C   0  0  0  0  0  0  0  0  0  0  0  0
   58.1190   30.9890   46.1200 C   0  0  0  0  0  0  0  0  0  0  0  0
   57.7000   31.9350   45.1770 C   0  0  0  0  0  0  0  0  0  0  0  0
   58.4340   33.5370   45.1560 S   0  0  0  0  0  0  0  0  0  0  0  0
   57.3500   34.5740   45.2520 O   0  0  0  0  0  0  0  0  0  0  0  0
   59.1780   33.7480   43.8660 O   0  0  0  0  0  0  0  0  0  0  0  0
   59.5220   33.7220   46.4970 N   0  0  0  0  0  0  0  0  0  0  0  0
   60.8830   33.9430   46.0040 C   0  0  0  0  0  0  0  0  0  0  0  0
   61.8620   33.7630   47.1300 C   0  0  0  0  0  0  0  0  0  0  0  0
   61.4420   33.8610   48.4640 C   0  0  0  0  0  0  0  0  0  0  0  0
   62.3540   33.6580   49.5000 C   0  0  0  0  0  0  0  0  0  0  0  0
   63.6800   33.3460   49.1930 C   0  0  0  0  0  0  0  0  0  0  0  0
   64.0700   33.2380   47.8950 N   0  0  0  0  0  0  0  0  0  0  0  0
   63.2010   33.4330   46.8680 C   0  0  0  0  0  0  0  0  0  0  0  0
   56.7210   31.5860   44.2360 C   0  0  0  0  0  0  0  0  0  0  0  0
   56.1600   30.3060   44.2450 C   0  0  0  0  0  0  0  0  0  0  0  0
   58.7107   25.4006   45.3679 H   0  0  0  0  0  0  0  0  0  0  0  0
   57.3675   25.2080   44.1909 H   0  0  0  0  0  0  0  0  0  0  0  0
   58.3534   26.7096   44.1909 H   0  0  0  0  0  0  0  0  0  0  0  0
   57.8884   28.9727   46.8760 H   0  0  0  0  0  0  0  0  0  0  0  0
   58.8926   31.2536   46.8559 H   0  0  0  0  0  0  0  0  0  0  0  0
   59.5090   32.8170   47.0230 H   0  0  0  0  0  0  0  0  0  0  0  0
   61.1055   33.2192   45.2061 H   0  0  0  0  0  0  0  0  0  0  0  0
   60.9664   34.9655   45.6070 H   0  0  0  0  0  0  0  0  0  0  0  0
   60.3928   34.0981   48.6939 H   0  0  0  0  0  0  0  0  0  0  0  0
   62.0317   33.7429   50.5483 H   0  0  0  0  0  0  0  0  0  0  0  0
   64.4091   33.1876   50.0013 H   0  0  0  0  0  0  0  0  0  0  0  0
   63.5480   33.3319   45.8291 H   0  0  0  0  0  0  0  0  0  0  0  0
   56.3932   32.3226   43.4877 H   0  0  0  0  0  0  0  0  0  0  0  0
   55.3900   30.0401   43.5059 H   0  0  0  0  0  0  0  0  0  0  0  0
  1  2  1  0
  2  3  2  0
  2  4  2  0
  2  5  1  0
  5  6  1  0
  6  7  2  0
  7  8  1  0
  8  9  2  0
  9 10  1  0
 10 11  2  0
 10 12  2  0
 10 13  1  0
 13 14  1  0
 14 15  1  0
 15 16  2  0
 16 17  1  0
 17 18  2  0
 18 19  1  0
 19 20  2  0
  9 21  1  0
 21 22  2  0
 22  6  1  0
 20 15  1  0
  1 23  1  0
  1 24  1  0
  1 25  1  0
  7 26  1  0
  8 27  1  0
 13 28  1  0
 14 29  1  0
 14 30  1  0
 16 31  1  0
 17 32  1  0
 18 33  1  0
 20 34  1  0
 21 35  1  0
 22 36  1  0
M  CHG  1   5  -1
M  END
>  <UniqueID>  (17) 
16

>  <SMILES>  (17) 
CS(=O)(=O)[N-]c1ccc(S(=O)(=O)NCc2cccnc2)cc1

>  <Energy>  (17) 
32.93221574535627

>  <Genealogy>  (17) 
CS(=O)(=O)[N-]c1ccc(S(=O)(=O)NCc2cccnc2)cc1 (protonated)
CS(=O)(=O)[N-]c1ccc(S(=O)(=O)NCc2cccnc2)cc1 (3D coordinates assigned)
CS(=O)(=O)[N-]c1ccc(S(=O)(=O)NCc2cccnc2)cc1 (optimized conformer: 32.93221574535627 kcal/mol)

>  <smiles>  (17) 
CS(=O)(=O)Nc1ccc(S(=O)(=O)NCc2cccnc2)cc1

>  <score_type>  (17) 
oracle

>  <origin>  (17) 
adg

>  <m_score__min__energy>  (17) 
-9.4800000000000004

>  <m_primary>  (17) 
energy

$$$$
17:0
     RDKit          3D

 28 29  0  0  0  0  0  0  0  0999 V2000
   57.9540   32.3380   42.0450 C   0  0  0  0  0  0  0  0  0  0  0  0
   57.0310   31.7930   43.0530 N   0  0  0  0  0  0  0  0  0  0  0  0
   56.7710   30.3600   42.7890 C   0  0  0  0  0  0  0  0  0  0  0  0
   56.2340   29.6490   44.0390 C   0  0  0  0  0  0  0  0  0  0  0  0
   57.1830   29.7290   45.1760 N   0  0  0  0  0  0  0  0  0  0  0  0
   57.8240   28.4410   45.5160 C   0  0  0  0  0  0  0  0  0  0  0  0
   56.8350   27.3400   45.7950 C   0  0  0  0  0  0  0  0  0  0  0  0
   57.1230   26.0800   46.2790 C   0  0  0  0  0  0  0  0  0  0  0  0
   55.8820   25.4950   46.3560 C   0  0  0  0  0  0  0  0  0  0  0  0
   55.6530   24.3230   46.7560 O   0  0  0  0  0  0  0  0  0  0  0  0
   54.9240   26.3430   45.9460 N   0  0  0  0  0  0  0  0  0  0  0  0
   55.5350   27.4440   45.6150 O   0  0  0  0  0  0  0  0  0  0  0  0
   58.1500   30.8470   45.0910 C   0  0  0  0  0  0  0  0  0  0  0  0
   57.5080   32.0750   44.4310 C   0  0  0  0  0  0  0  0  0  0  0  0
   58.7958   32.8350   42.5493 H   0  0  0  0  0  0  0  0  0  0  0  0
   58.3348   31.5198   41.4161 H   0  0  0  0  0  0  0  0  0  0  0  0
   57.4215   33.0666   41.4161 H   0  0  0  0  0  0  0  0  0  0  0  0
   56.0290   30.2737   41.9815 H   0  0  0  0  0  0  0  0  0  0  0  0
   57.7194   29.8834   42.5000 H   0  0  0  0  0  0  0  0  0  0  0  0
   55.2850   30.1199   44.3350 H   0  0  0  0  0  0  0  0  0  0  0  0
   56.0914   28.5870   43.7903 H   0  0  0  0  0  0  0  0  0  0  0  0
   58.4600   28.1339   44.6726 H   0  0  0  0  0  0  0  0  0  0  0  0
   58.4051   28.5987   46.4366 H   0  0  0  0  0  0  0  0  0  0  0  0
   58.1021   25.6509   46.5385 H   0  0  0  0  0  0  0  0  0  0  0  0
   58.4815   31.1148   46.1051 H   0  0  0  0  0  0  0  0  0  0  0  0
   59.0066   30.5262   44.4800 H   0  0  0  0  0  0  0  0  0  0  0  0
   56.6520   32.3974   45.0420 H   0  0  0  0  0  0  0  0  0  0  0  0
   58.2755   32.8603   44.3660 H   0  0  0  0  0  0  0  0  0  0  0  0
  1  2  1  0
  2  3  1  0
  3  4  1  0
  4  5  1  0
  5  6  1  0
  6  7  1  0
  7  8  2  0
  8  9  1  0
  9 10  2  0
  9 11  1  0
 11 12  1  0
  5 13  1  0
 13 14  1  0
 14  2  1  0
 12  7  1  0
  1 15  1  0
  1 16  1  0
  1 17  1  0
  3 18  1  0
  3 19  1  0
  4 20  1  0
  4 21  1  0
  6 22  1  0
  6 23  1  0
  8 24  1  0
 13 25  1  0
 13 26  1  0
 14 27  1  0
 14 28  1  0
M  CHG  1  11  -1
M  END
>  <UniqueID>  (18) 
17

>  <SMILES>  (18) 
CN1CCN(Cc2cc(=O)[n-]o2)CC1

>  <Energy>  (18) 
71.26580406973325

>  <Genealogy>  (18) 
CN1CCN(Cc2cc(=O)[n-]o2)CC1 (protonated)
CN1CCN(Cc2cc(=O)[n-]o2)CC1 (3D coordinates assigned)
CN1CCN(Cc2cc(=O)[n-]o2)CC1 (nonaromatic ring conformer: 71.26580406973325 kcal/mol)

>  <smiles>  (18) 
CN1CCN(Cc2cc(=O)[nH]o2)CC1

>  <score_type>  (18) 
oracle

>  <origin>  (18) 
adg

>  <m_score__min__energy>  (18) 
-9.3599999999999994

>  <m_primary>  (18) 
energy

$$$$
18:0
     RDKit          3D

 71 75  0  0  0  0  0  0  0  0999 V2000
   60.7420   27.8760   50.2220 C   0  0  0  0  0  0  0  0  0  0  0  0
   60.4870   29.2980   50.4620 N   0  0  0  0  0  0  0  0  0  0  0  0
   59.3930   29.7710   49.6040 C   0  0  0  0  0  0  0  0  0  0  0  0
   59.9430   30.4170   48.3270 C   0  0  0  0  0  0  0  0  0  0  0  0
   59.2660   29.8930   47.1290 N   0  0  0  0  0  0  0  0  0  0  0  0
   58.7620   30.8190   46.1470 C   0  0  0  0  0  0  0  0  0  0  0  0
   58.1210   30.3470   44.9910 C   0  0  0  0  0  0  0  0  0  0  0  0
   57.5880   31.2500   44.0540 C   0  0  0  0  0  0  0  0  0  0  0  0
   56.9170   30.8220   42.8960 O   0  0  0  0  0  0  0  0  0  0  0  0
   56.2820   29.5560   42.7530 C   0  0  0  0  0  0  0  0  0  0  0  0
   57.7100   32.6260   44.2810 C   0  0  0  0  0  0  0  0  0  0  0  0
   58.3320   33.1070   45.4490 C   0  0  0  0  0  0  0  0  0  0  0  0
   58.4480   34.4770   45.7270 O   0  0  0  0  0  0  0  0  0  0  0  0
   59.6250   35.1020   46.2300 C   0  0  0  0  0  0  0  0  0  0  0  0
   58.8460   32.1970   46.3770 C   0  0  0  0  0  0  0  0  0  0  0  0
   59.1720   28.4700   46.8870 C   0  0  0  0  0  0  0  0  0  0  0  0
   60.3220   27.6970   46.6330 C   0  0  0  0  0  0  0  0  0  0  0  0
   60.2170   26.3330   46.3380 C   0  0  0  0  0  0  0  0  0  0  0  0
   58.9590   25.7250   46.2990 C   0  0  0  0  0  0  0  0  0  0  0  0
   58.8280   24.4110   45.9780 N   0  0  0  0  0  0  0  0  0  0  0  0
   57.6070   23.8110   45.9260 C   0  0  0  0  0  0  0  0  0  0  0  0
   56.4450   24.5560   46.2200 C   0  0  0  0  0  0  0  0  0  0  0  0
   55.0660   23.9750   46.1770 C   0  0  0  0  0  0  0  0  0  0  0  0
   54.7060   22.9860   47.1170 C   0  0  0  0  0  0  0  0  0  0  0  0
   53.4250   22.4340   47.1160 C   0  0  0  0  0  0  0  0  0  0  0  0
   52.4820   22.8440   46.1750 C   0  0  0  0  0  0  0  0  0  0  0  0
   52.8090   23.8160   45.2160 C   0  0  0  0  0  0  0  0  0  0  0  0
   51.8220   24.2480   44.2500 N   0  0  0  0  0  0  0  0  0  0  0  0
   52.0480   23.9830   42.8220 C   0  0  0  0  0  0  0  0  0  0  0  0
   50.7930   24.2990   42.0030 C   0  0  0  0  0  0  0  0  0  0  0  0
   50.2960   25.6390   42.3310 N   0  0  0  0  0  0  0  0  0  0  0  0
   49.9340   25.8010   43.7550 C   0  0  0  0  0  0  0  0  0  0  0  0
   50.4990   24.7140   44.6940 C   0  0  0  0  0  0  0  0  0  0  0  0
   54.1040   24.3760   45.2250 C   0  0  0  0  0  0  0  0  0  0  0  0
   56.5920   25.8750   46.5320 N   0  0  0  0  0  0  0  0  0  0  0  0
   57.8070   26.4790   46.5750 C   0  0  0  0  0  0  0  0  0  0  0  0
   57.9120   27.8400   46.8640 C   0  0  0  0  0  0  0  0  0  0  0  0
   60.8358   27.3527   51.1850 H   0  0  0  0  0  0  0  0  0  0  0  0
   59.9068   27.4451   49.6504 H   0  0  0  0  0  0  0  0  0  0  0  0
   61.6749   27.7621   49.6504 H   0  0  0  0  0  0  0  0  0  0  0  0
   61.3560   29.8220   50.2070 H   0  0  0  0  0  0  0  0  0  0  0  0
   58.7546   28.9180   49.3305 H   0  0  0  0  0  0  0  0  0  0  0  0
   58.8111   30.5230   50.1571 H   0  0  0  0  0  0  0  0  0  0  0  0
   59.7874   31.5047   48.3798 H   0  0  0  0  0  0  0  0  0  0  0  0
   61.0147   30.1808   48.2518 H   0  0  0  0  0  0  0  0  0  0  0  0
   58.0351   29.2643   44.8169 H   0  0  0  0  0  0  0  0  0  0  0  0
   56.0717   29.1368   43.7480 H   0  0  0  0  0  0  0  0  0  0  0  0
   55.3390   29.6791   42.2002 H   0  0  0  0  0  0  0  0  0  0  0  0
   56.9446   28.8738   42.2002 H   0  0  0  0  0  0  0  0  0  0  0  0
   57.3164   33.3377   43.5403 H   0  0  0  0  0  0  0  0  0  0  0  0
   59.6045   35.0911   47.3298 H   0  0  0  0  0  0  0  0  0  0  0  0
   60.5109   34.5555   45.8743 H   0  0  0  0  0  0  0  0  0  0  0  0
   59.6685   36.1420   45.8743 H   0  0  0  0  0  0  0  0  0  0  0  0
   59.3213   32.5675   47.2972 H   0  0  0  0  0  0  0  0  0  0  0  0
   61.3140   28.1710   46.6669 H   0  0  0  0  0  0  0  0  0  0  0  0
   61.1221   25.7409   46.1374 H   0  0  0  0  0  0  0  0  0  0  0  0
   57.5264   22.7479   45.6554 H   0  0  0  0  0  0  0  0  0  0  0  0
   55.4439   22.6466   47.8589 H   0  0  0  0  0  0  0  0  0  0  0  0
   53.1575   21.6710   47.8619 H   0  0  0  0  0  0  0  0  0  0  0  0
   51.4744   22.4029   46.1838 H   0  0  0  0  0  0  0  0  0  0  0  0
   52.8781   24.6109   42.4660 H   0  0  0  0  0  0  0  0  0  0  0  0
   52.2912   22.9176   42.6961 H   0  0  0  0  0  0  0  0  0  0  0  0
   51.0381   24.2550   40.9316 H   0  0  0  0  0  0  0  0  0  0  0  0
   50.0141   23.5598   42.2417 H   0  0  0  0  0  0  0  0  0  0  0  0
   51.0440   26.3350   42.0910 H   0  0  0  0  0  0  0  0  0  0  0  0
   50.3111   26.7768   44.0951 H   0  0  0  0  0  0  0  0  0  0  0  0
   48.8385   25.7169   43.8076 H   0  0  0  0  0  0  0  0  0  0  0  0
   50.5892   25.1303   45.7082 H   0  0  0  0  0  0  0  0  0  0  0  0
   49.8102   23.8564   44.6807 H   0  0  0  0  0  0  0  0  0  0  0  0
   54.3685   25.1382   44.4773 H   0  0  0  0  0  0  0  0  0  0  0  0
   57.0048   28.4251   47.0753 H   0  0  0  0  0  0  0  0  0  0  0  0
  1  2  1  0
  2  3  1  0
  3  4  1  0
  4  5  1  0
  5  6  1  0
  6  7  2  0
  7  8  1  0
  8  9  1  0
  9 10  1  0
  8 11  2  0
 11 12  1  0
 12 13  1  0
 13 14  1  0
 12 15  2  0
  5 16  1  0
 16 17  2  0
 17 18  1  0
 18 19  2  0
 19 20  1  0
 20 21  2  0
 21 22  1  0
 22 23  1  0
 23 24  2  0
 24 25  1  0
 25 26  2  0
 26 27  1  0
 27 28  1  0
 28 29  1  0
 29 30  1  0
 30 31  1  0
 31 32  1  0
 32 33  1  0
 27 34  2  0
 22 35  2  0
 35 36  1  0
 36 37  2  0
 15  6  1  0
 37 16  1  0
 36 19  1  0
 34 23  1  0
 33 28  1  0
  1 38  1  0
  1 39  1  0
  1 40  1  0
  2 41  1  0
  3 42  1  0
  3 43  1  0
  4 44  1  0
  4 45  1  0
  7 46  1  0
 10 47  1  0
 10 48  1  0
 10 49  1  0
 11 50  1  0
 14 51  1  0
 14 52  1  0
 14 53  1  0
 15 54  1  0
 17 55  1  0
 18 56  1  0
 21 57  1  0
 24 58  1  0
 25 59  1  0
 26 60  1  0
 29 61  1  0
 29 62  1  0
 30 63  1  0
 30 64  1  0
 31 65  1  0
 32 66  1  0
 32 67  1  0
 33 68  1  0
 33 69  1  0
 34 70  1  0
 37 71  1  0
M  END
>  <UniqueID>  (19) 
18

>  <SMILES>  (19) 
CNCCN(c1cc(OC)cc(OC)c1)c1ccc2ncc(-c3cccc(N4CCNCC4)c3)nc2c1

>  <Energy>  (19) 
95.95343534880404

>  <Genealogy>  (19) 
CNCCN(c1cc(OC)cc(OC)c1)c1ccc2ncc(-c3cccc(N4CCNCC4)c3)nc2c1 (3D coordinates assigned)
CNCCN(c1cc(OC)cc(OC)c1)c1ccc2ncc(-c3cccc(N4CCNCC4)c3)nc2c1 (nonaromatic ring conformer: 95.95343534880404 kcal/mol)

>  <smiles>  (19) 
CNCCN(c1cc(OC)cc(OC)c1)c1ccc2ncc(-c3cccc(N4CCNCC4)c3)nc2c1

>  <score_type>  (19) 
oracle

>  <origin>  (19) 
adg

>  <m_score__min__energy>  (19) 
-8.9199999999999999

>  <m_primary>  (19) 
energy

$$$$
19:0
     RDKit          3D

 44 46  0  0  0  0  0  0  0  0999 V2000
   55.7770   26.9070   45.9290 N   0  0  0  0  0  0  0  0  0  0  0  0
   56.6790   27.8820   45.3980 C   0  0  0  0  0  0  0  0  0  0  0  0
   57.9780   27.5110   45.0290 C   0  0  0  0  0  0  0  0  0  0  0  0
   58.8530   28.4590   44.4950 C   0  0  0  0  0  0  0  0  0  0  0  0
   58.4370   29.7830   44.3270 C   0  0  0  0  0  0  0  0  0  0  0  0
   57.1380   30.1730   44.7070 C   0  0  0  0  0  0  0  0  0  0  0  0
   56.6710   31.4920   44.5780 O   0  0  0  0  0  0  0  0  0  0  0  0
   57.4950   32.6410   44.3640 C   0  0  0  0  0  0  0  0  0  0  0  0
   58.3460   32.9390   45.5720 C   0  0  0  0  0  0  0  0  0  0  0  0
   58.0850   32.3140   46.8030 C   0  0  0  0  0  0  0  0  0  0  0  0
   58.9030   32.5650   47.9070 C   0  0  0  0  0  0  0  0  0  0  0  0
   59.9880   33.4450   47.7950 C   0  0  0  0  0  0  0  0  0  0  0  0
   60.8750   33.6870   48.9500 C   0  0  0  0  0  0  0  0  0  0  0  0
   60.5160   34.5690   49.7770 O   0  0  0  0  0  0  0  0  0  0  0  0
   62.0910   32.9220   49.2100 N   0  0  0  0  0  0  0  0  0  0  0  0
   62.0960   31.5260   48.7020 C   0  0  0  0  0  0  0  0  0  0  0  0
   62.3690   31.4530   47.1860 C   0  0  0  0  0  0  0  0  0  0  0  0
   63.5650   32.1280   46.8530 O   0  0  0  0  0  0  0  0  0  0  0  0
   63.4460   33.4940   47.1970 C   0  0  0  0  0  0  0  0  0  0  0  0
   63.2840   33.6490   48.7180 C   0  0  0  0  0  0  0  0  0  0  0  0
   60.1970   34.1350   46.5940 C   0  0  0  0  0  0  0  0  0  0  0  0
   59.3900   33.8740   45.4850 C   0  0  0  0  0  0  0  0  0  0  0  0
   56.2670   29.2130   45.2380 C   0  0  0  0  0  0  0  0  0  0  0  0
   56.1320   25.9930   46.2900 H   0  0  0  0  0  0  0  0  0  0  0  0
   54.7520   27.0950   45.9810 H   0  0  0  0  0  0  0  0  0  0  0  0
   58.3097   26.4704   45.1602 H   0  0  0  0  0  0  0  0  0  0  0  0
   59.8723   28.1633   44.2058 H   0  0  0  0  0  0  0  0  0  0  0  0
   59.1271   30.5234   43.8962 H   0  0  0  0  0  0  0  0  0  0  0  0
   58.1511   32.4554   43.5008 H   0  0  0  0  0  0  0  0  0  0  0  0
   56.8417   33.5063   44.1782 H   0  0  0  0  0  0  0  0  0  0  0  0
   57.2332   31.6244   46.8977 H   0  0  0  0  0  0  0  0  0  0  0  0
   58.6950   32.0705   48.8673 H   0  0  0  0  0  0  0  0  0  0  0  0
   62.1780   32.8650   50.2550 H   0  0  0  0  0  0  0  0  0  0  0  0
   62.8786   30.9609   49.2295 H   0  0  0  0  0  0  0  0  0  0  0  0
   61.0986   31.0993   48.8841 H   0  0  0  0  0  0  0  0  0  0  0  0
   62.4562   30.3981   46.8867 H   0  0  0  0  0  0  0  0  0  0  0  0
   61.5349   31.9366   46.6564 H   0  0  0  0  0  0  0  0  0  0  0  0
   64.3498   34.0302   46.8718 H   0  0  0  0  0  0  0  0  0  0  0  0
   62.5595   33.9127   46.6982 H   0  0  0  0  0  0  0  0  0  0  0  0
   64.1788   33.2475   49.2162 H   0  0  0  0  0  0  0  0  0  0  0  0
   63.1574   34.7176   48.9461 H   0  0  0  0  0  0  0  0  0  0  0  0
   60.9991   34.8845   46.5245 H   0  0  0  0  0  0  0  0  0  0  0  0
   59.5729   34.4035   44.5383 H   0  0  0  0  0  0  0  0  0  0  0  0
   55.2486   29.5063   45.5327 H   0  0  0  0  0  0  0  0  0  0  0  0
  1  2  1  0
  2  3  2  0
  3  4  1  0
  4  5  2  0
  5  6  1  0
  6  7  1  0
  7  8  1  0
  8  9  1  0
  9 10  2  0
 10 11  1  0
 11 12  2  0
 12 13  1  0
 13 14  2  0
 13 15  1  0
 15 16  1  0
 16 17  1  0
 17 18  1  0
 18 19  1  0
 19 20  1  0
 12 21  1  0
 21 22  2  0
  6 23  2  0
 23  2  1  0
 22  9  1  0
 20 15  1  0
  1 24  1  0
  1 25  1  0
  3 26  1  0
  4 27  1  0
  5 28  1  0
  8 29  1  0
  8 30  1  0
 10 31  1  0
 11 32  1  0
 15 33  1  0
 16 34  1  0
 16 35  1  0
 17 36  1  0
 17 37  1  0
 19 38  1  0
 19 39  1  0
 20 40  1  0
 20 41  1  0
 21 42  1  0
 22 43  1  0
 23 44  1  0
M  CHG  1  15   1
M  END
>  <UniqueID>  (20) 
19

>  <SMILES>  (20) 
Nc1cccc(OCc2ccc(C(=O)[NH+]3CCOCC3)cc2)c1

>  <Energy>  (20) 
60.96026449322244

>  <Genealogy>  (20) 
Nc1cccc(OCc2ccc(C(=O)[NH+]3CCOCC3)cc2)c1 (protonated)
Nc1cccc(OCc2ccc(C(=O)[NH+]3CCOCC3)cc2)c1 (3D coordinates assigned)
Nc1cccc(OCc2ccc(C(=O)[NH+]3CCOCC3)cc2)c1 (nonaromatic ring conformer: 60.96026449322244 kcal/mol)

>  <smiles>  (20) 
Nc1cccc(OCc2ccc(C(=O)N3CCOCC3)cc2)c1

>  <score_type>  (20) 
oracle

>  <origin>  (20) 
adg

>  <m_score__min__energy>  (20) 
-6.6799999999999997

>  <m_primary>  (20) 
energy

$$$$
20:0
     RDKit          3D

 27 28  0  0  0  0  0  0  0  0999 V2000
   55.5400   28.6810   44.9060 O   0  0  0  0  0  0  0  0  0  0  0  0
   56.3060   27.7420   45.5870 C   0  0  0  0  0  0  0  0  0  0  0  0
   57.6670   27.9810   45.8050 C   0  0  0  0  0  0  0  0  0  0  0  0
   58.4520   27.0380   46.4860 C   0  0  0  0  0  0  0  0  0  0  0  0
   59.9070   27.3120   46.7550 C   0  0  0  0  0  0  0  0  0  0  0  0
   60.0820   27.8410   48.1450 C   0  0  0  0  0  0  0  0  0  0  0  0
   60.8590   27.2920   49.1450 C   0  0  0  0  0  0  0  0  0  0  0  0
   60.6330   28.0810   50.2600 C   0  0  0  0  0  0  0  0  0  0  0  0
   61.2780   27.9030   51.5970 C   0  0  0  0  0  0  0  0  0  0  0  0
   60.7330   28.8060   52.5180 O   0  0  0  0  0  0  0  0  0  0  0  0
   59.7800   29.0420   49.9770 O   0  0  0  0  0  0  0  0  0  0  0  0
   59.4290   28.9120   48.7200 C   0  0  0  0  0  0  0  0  0  0  0  0
   58.5210   29.7450   48.0800 O   0  0  0  0  0  0  0  0  0  0  0  0
   57.8540   25.8620   46.9660 C   0  0  0  0  0  0  0  0  0  0  0  0
   56.4900   25.6210   46.7490 C   0  0  0  0  0  0  0  0  0  0  0  0
   55.8960   24.4510   47.2200 O   0  0  0  0  0  0  0  0  0  0  0  0
   55.7180   26.5620   46.0570 C   0  0  0  0  0  0  0  0  0  0  0  0
   54.3650   26.3250   45.8390 O   0  0  0  0  0  0  0  0  0  0  0  0
   58.1242   28.9128   45.4408 H   0  0  0  0  0  0  0  0  0  0  0  0
   60.4793   26.3789   46.6460 H   0  0  0  0  0  0  0  0  0  0  0  0
   60.2716   28.0605   46.0361 H   0  0  0  0  0  0  0  0  0  0  0  0
   61.5178   26.4142   49.0717 H   0  0  0  0  0  0  0  0  0  0  0  0
   61.1064   26.8753   51.9498 H   0  0  0  0  0  0  0  0  0  0  0  0
   62.3578   28.0913   51.5039 H   0  0  0  0  0  0  0  0  0  0  0  0
   60.0990   29.3800   52.0120 H   0  0  0  0  0  0  0  0  0  0  0  0
   58.4589   25.1256   47.5154 H   0  0  0  0  0  0  0  0  0  0  0  0
   54.8900   24.3280   47.2150 H   0  0  0  0  0  0  0  0  0  0  0  0
  1  2  1  0
  2  3  2  0
  3  4  1  0
  4  5  1  0
  5  6  1  0
  6  7  1  0
  7  8  2  0
  8  9  1  0
  9 10  1  0
  8 11  1  0
 11 12  1  0
 12 13  1  0
  4 14  2  0
 14 15  1  0
 15 16  1  0
 15 17  2  0
 17 18  1  0
 17  2  1  0
 12  6  2  0
  3 19  1  0
  5 20  1  0
  5 21  1  0
  7 22  1  0
  9 23  1  0
  9 24  1  0
 10 25  1  0
 14 26  1  0
 16 27  1  0
M  CHG  3   1  -1  13  -1  18  -1
M  END
>  <UniqueID>  (21) 
20

>  <SMILES>  (21) 
[O-]c1cc(Cc2cc(CO)oc2[O-])cc(O)c1[O-]

>  <Energy>  (21) 
51.9693672088066

>  <Genealogy>  (21) 
[O-]c1cc(Cc2cc(CO)oc2[O-])cc(O)c1[O-] (protonated)
[O-]c1cc(Cc2cc(CO)oc2[O-])cc(O)c1[O-] (3D coordinates assigned)
[O-]c1cc(Cc2cc(CO)oc2[O-])cc(O)c1[O-] (optimized conformer: 51.9693672088066 kcal/mol)

>  <smiles>  (21) 
OCc1cc(Cc2cc(O)c(O)c(O)c2)c(O)o1

>  <score_type>  (21) 
oracle

>  <origin>  (21) 
adg

>  <m_score__min__energy>  (21) 
-15.130000000000001

>  <m_primary>  (21) 
energy

$$$$
21:0
     RDKit          3D

 43 45  0  0  0  0  0  0  0  0999 V2000
   60.3310   33.8120   49.7800 C   0  0  0  0  0  0  0  0  0  0  0  0
   59.2090   33.0590   49.0520 C   0  0  0  0  0  0  0  0  0  0  0  0
   59.4380   31.5440   49.1020 C   0  0  0  0  0  0  0  0  0  0  0  0
   59.0640   33.5460   47.6230 C   0  0  0  0  0  0  0  0  0  0  0  0
   59.7820   34.6730   47.1890 C   0  0  0  0  0  0  0  0  0  0  0  0
   59.6530   35.1310   45.8760 C   0  0  0  0  0  0  0  0  0  0  0  0
   58.8190   34.4630   44.9770 C   0  0  0  0  0  0  0  0  0  0  0  0
   58.1200   33.3140   45.3830 C   0  0  0  0  0  0  0  0  0  0  0  0
   57.2490   32.6080   44.4850 N   0  0  0  0  0  0  0  0  0  0  0  0
   57.4510   31.4340   43.9550 C   0  0  0  0  0  0  0  0  0  0  0  0
   57.2610   30.1560   44.6790 C   0  0  0  0  0  0  0  0  0  0  0  0
   56.0460   29.4710   44.5750 C   0  0  0  0  0  0  0  0  0  0  0  0
   55.0110   29.9780   43.7970 O   0  0  0  0  0  0  0  0  0  0  0  0
   55.8750   28.2940   45.2230 N   0  0  0  0  0  0  0  0  0  0  0  0
   56.8580   27.7570   45.9900 C   0  0  0  0  0  0  0  0  0  0  0  0
   56.6500   26.6550   46.5690 O   0  0  0  0  0  0  0  0  0  0  0  0
   58.0500   28.4120   46.1400 N   0  0  0  0  0  0  0  0  0  0  0  0
   59.0920   27.8340   46.9510 C   0  0  0  0  0  0  0  0  0  0  0  0
   59.9880   26.9100   46.3890 C   0  0  0  0  0  0  0  0  0  0  0  0
   61.0060   26.3540   47.1690 C   0  0  0  0  0  0  0  0  0  0  0  0
   61.1370   26.7160   48.5130 C   0  0  0  0  0  0  0  0  0  0  0  0
   60.2470   27.6350   49.0790 C   0  0  0  0  0  0  0  0  0  0  0  0
   59.2270   28.1940   48.3020 C   0  0  0  0  0  0  0  0  0  0  0  0
   58.3640   29.0780   48.8650 F   0  0  0  0  0  0  0  0  0  0  0  0
   58.2590   29.6110   45.5100 C   0  0  0  0  0  0  0  0  0  0  0  0
   59.3440   30.2360   45.6790 O   0  0  0  0  0  0  0  0  0  0  0  0
   58.2230   32.8780   46.7100 C   0  0  0  0  0  0  0  0  0  0  0  0
   60.1906   33.7178   50.8669 H   0  0  0  0  0  0  0  0  0  0  0  0
   61.3038   33.3832   49.4974 H   0  0  0  0  0  0  0  0  0  0  0  0
   60.3028   34.8747   49.4974 H   0  0  0  0  0  0  0  0  0  0  0  0
   58.2652   33.2713   49.5755 H   0  0  0  0  0  0  0  0  0  0  0  0
   59.4877   31.2151   50.1505 H   0  0  0  0  0  0  0  0  0  0  0  0
   58.6072   31.0307   48.5957 H   0  0  0  0  0  0  0  0  0  0  0  0
   60.3834   31.2992   48.5957 H   0  0  0  0  0  0  0  0  0  0  0  0
   60.4500   35.1979   47.8878 H   0  0  0  0  0  0  0  0  0  0  0  0
   60.2103   36.0211   45.5488 H   0  0  0  0  0  0  0  0  0  0  0  0
   58.7091   34.8373   43.9485 H   0  0  0  0  0  0  0  0  0  0  0  0
   57.7825   31.3901   42.9071 H   0  0  0  0  0  0  0  0  0  0  0  0
   59.8884   26.6230   45.3318 H   0  0  0  0  0  0  0  0  0  0  0  0
   61.7052   25.6304   46.7246 H   0  0  0  0  0  0  0  0  0  0  0  0
   61.9394   26.2784   49.1251 H   0  0  0  0  0  0  0  0  0  0  0  0
   60.3495   27.9185   50.1369 H   0  0  0  0  0  0  0  0  0  0  0  0
   57.6418   32.0055   47.0431 H   0  0  0  0  0  0  0  0  0  0  0  0
  1  2  1  0
  2  3  1  0
  2  4  1  0
  4  5  2  0
  5  6  1  0
  6  7  2  0
  7  8  1  0
  8  9  1  0
  9 10  2  3
 10 11  1  0
 11 12  2  0
 12 13  1  0
 12 14  1  0
 14 15  1  0
 15 16  2  0
 15 17  1  0
 17 18  1  0
 18 19  2  0
 19 20  1  0
 20 21  2  0
 21 22  1  0
 22 23  2  0
 23 24  1  0
 17 25  1  0
 25 26  2  0
  8 27  2  0
 27  4  1  0
 25 11  1  0
 23 18  1  0
  1 28  1  0
  1 29  1  0
  1 30  1  0
  2 31  1  0
  3 32  1  0
  3 33  1  0
  3 34  1  0
  5 35  1  0
  6 36  1  0
  7 37  1  0
 10 38  1  0
 19 39  1  0
 20 40  1  0
 21 41  1  0
 22 42  1  0
 27 43  1  0
M  CHG  2  13  -1  14  -1
M  END
>  <UniqueID>  (22) 
21

>  <SMILES>  (22) 
CC(C)c1cccc(N=Cc2c([O-])[n-]c(=O)n(-c3ccccc3F)c2=O)c1

>  <Energy>  (22) 
65.9606131255122

>  <Genealogy>  (22) 
CC(C)c1cccc(N=Cc2c([O-])[n-]c(=O)n(-c3ccccc3F)c2=O)c1 (protonated)
CC(C)c1cccc(N=Cc2c([O-])[n-]c(=O)n(-c3ccccc3F)c2=O)c1 (3D coordinates assigned)
CC(C)c1cccc(N=Cc2c([O-])[n-]c(=O)n(-c3ccccc3F)c2=O)c1 (optimized conformer: 65.9606131255122 kcal/mol)

>  <smiles>  (22) 
CC(C)c1cccc(N=Cc2c(O)[nH]c(=O)n(-c3ccccc3F)c2=O)c1

>  <score_type>  (22) 
oracle

>  <origin>  (22) 
adg

>  <m_score__min__energy>  (22) 
-12.44

>  <m_primary>  (22) 
energy

$$$$
22:0
     RDKit          3D

 34 35  0  0  0  0  0  0  0  0999 V2000
   60.9140   33.5820   46.8250 C   0  0  0  0  0  0  0  0  0  0  0  0
   61.9760   32.5670   47.1240 C   0  0  0  0  0  0  0  0  0  0  0  0
   63.1820   32.9280   47.1160 O   0  0  0  0  0  0  0  0  0  0  0  0
   61.6660   31.1910   47.3790 N   0  0  0  0  0  0  0  0  0  0  0  0
   60.5360   30.4620   46.8780 C   0  0  0  0  0  0  0  0  0  0  0  0
   59.2340   30.7090   47.3430 C   0  0  0  0  0  0  0  0  0  0  0  0
   58.1580   29.9650   46.8520 C   0  0  0  0  0  0  0  0  0  0  0  0
   58.3730   28.9550   45.9040 C   0  0  0  0  0  0  0  0  0  0  0  0
   57.0220   28.0310   45.2500 S   0  0  0  0  0  0  0  0  0  0  0  0
   57.4220   27.4790   43.9110 O   0  0  0  0  0  0  0  0  0  0  0  0
   56.6910   26.8800   46.1590 O   0  0  0  0  0  0  0  0  0  0  0  0
   55.6110   29.0330   45.0500 N   0  0  0  0  0  0  0  0  0  0  0  0
   55.6150   29.7180   43.7550 C   0  0  0  0  0  0  0  0  0  0  0  0
   56.5370   30.9030   43.7700 C   0  0  0  0  0  0  0  0  0  0  0  0
   57.2870   31.2470   42.6340 C   0  0  0  0  0  0  0  0  0  0  0  0
   58.1440   32.3480   42.6880 C   0  0  0  0  0  0  0  0  0  0  0  0
   58.2420   33.0950   43.8630 C   0  0  0  0  0  0  0  0  0  0  0  0
   57.4770   32.7280   44.9720 C   0  0  0  0  0  0  0  0  0  0  0  0
   56.6500   31.6510   44.9030 N   0  0  0  0  0  0  0  0  0  0  0  0
   59.6740   28.6880   45.4620 C   0  0  0  0  0  0  0  0  0  0  0  0
   60.7510   29.4310   45.9550 C   0  0  0  0  0  0  0  0  0  0  0  0
   60.5047   33.9732   47.7681 H   0  0  0  0  0  0  0  0  0  0  0  0
   61.3496   34.4081   46.2437 H   0  0  0  0  0  0  0  0  0  0  0  0
   60.1085   33.1095   46.2437 H   0  0  0  0  0  0  0  0  0  0  0  0
   59.0606   31.4912   48.0967 H   0  0  0  0  0  0  0  0  0  0  0  0
   57.1390   30.1725   47.2105 H   0  0  0  0  0  0  0  0  0  0  0  0
   55.9480   29.0142   42.9779 H   0  0  0  0  0  0  0  0  0  0  0  0
   54.5951   30.0730   43.5458 H   0  0  0  0  0  0  0  0  0  0  0  0
   57.2003   30.6552   41.7109 H   0  0  0  0  0  0  0  0  0  0  0  0
   58.7405   32.6260   41.8066 H   0  0  0  0  0  0  0  0  0  0  0  0
   58.9148   33.9637   43.9148 H   0  0  0  0  0  0  0  0  0  0  0  0
   57.5435   33.3109   45.9025 H   0  0  0  0  0  0  0  0  0  0  0  0
   59.8497   27.8911   44.7244 H   0  0  0  0  0  0  0  0  0  0  0  0
   61.7727   29.2045   45.6160 H   0  0  0  0  0  0  0  0  0  0  0  0
  1  2  1  0
  2  3  2  0
  2  4  1  0
  4  5  1  0
  5  6  2  0
  6  7  1  0
  7  8  2  0
  8  9  1  0
  9 10  2  0
  9 11  2  0
  9 12  1  0
 12 13  1  0
 13 14  1  0
 14 15  2  0
 15 16  1  0
 16 17  2  0
 17 18  1  0
 18 19  2  0
  8 20  1  0
 20 21  2  0
 21  5  1  0
 19 14  1  0
  1 22  1  0
  1 23  1  0
  1 24  1  0
  6 25  1  0
  7 26  1  0
 13 27  1  0
 13 28  1  0
 15 29  1  0
 16 30  1  0
 17 31  1  0
 18 32  1  0
 20 33  1  0
 21 34  1  0
M  CHG  2   4  -1  12  -1
M  END
>  <UniqueID>  (23) 
22

>  <SMILES>  (23) 
CC(=O)[N-]c1ccc(S(=O)(=O)[N-]Cc2ccccn2)cc1

>  <Energy>  (23) 
36.479130114598476

>  <Genealogy>  (23) 
CC(=O)[N-]c1ccc(S(=O)(=O)[N-]Cc2ccccn2)cc1 (protonated)
CC(=O)[N-]c1ccc(S(=O)(=O)[N-]Cc2ccccn2)cc1 (3D coordinates assigned)
CC(=O)[N-]c1ccc(S(=O)(=O)[N-]Cc2ccccn2)cc1 (optimized conformer: 36.479130114598476 kcal/mol)

>  <smiles>  (23) 
CC(=O)Nc1ccc(S(=O)(=O)NCc2ccccn2)cc1

>  <score_type>  (23) 
oracle

>  <origin>  (23) 
adg

>  <m_score__min__energy>  (23) 
-10.380000000000001

>  <m_primary>  (23) 
energy

$$$$
23:0
     RDKit          3D

 22 23  0  0  1  0  0  0  0  0999 V2000
   56.9110   30.8270   43.2000 C   0  0  0  0  0  0  0  0  0  0  0  0
   56.2070   30.4060   44.4090 N   0  0  0  0  0  0  0  0  0  0  0  0
   56.7450   29.4100   45.0630 C   0  0  0  0  0  0  0  0  0  0  0  0
   58.0130   29.5100   45.5940 C   0  0  0  0  0  0  0  0  0  0  0  0
   58.5800   28.4590   46.2840 C   0  0  0  0  0  0  0  0  0  0  0  0
   59.8630   28.6080   46.7990 C   0  0  0  0  0  0  0  0  0  0  0  0
   60.4360   27.5640   47.4890 C   0  0  0  0  0  0  0  0  0  0  0  0
   59.7360   26.3840   47.6620 C   0  0  0  0  0  0  0  0  0  0  0  0
   58.4530   26.2800   47.1280 C   0  0  0  0  0  0  0  0  0  0  0  0
   57.9050   27.3080   46.4560 N   0  0  0  0  0  0  0  0  0  0  0  0
   56.6640   27.2250   45.9310 C   0  0  0  0  0  0  0  0  0  0  0  0
   55.9870   26.1720   46.0610 O   0  0  0  0  0  0  0  0  0  0  0  0
   56.0950   28.2490   45.2500 N   0  0  0  0  0  0  0  0  0  0  0  0
   57.8242   31.3731   43.4789 H   0  0  0  0  0  0  0  0  0  0  0  0
   57.1804   29.9416   42.6054 H   0  0  0  0  0  0  0  0  0  0  0  0
   56.2584   31.4833   42.6054 H   0  0  0  0  0  0  0  0  0  0  0  0
   58.5817   30.4428   45.4654 H   0  0  0  0  0  0  0  0  0  0  0  0
   60.4137   29.5495   46.6566 H   0  0  0  0  0  0  0  0  0  0  0  0
   61.4500   27.6682   47.9025 H   0  0  0  0  0  0  0  0  0  0  0  0
   60.1838   25.5427   48.2112 H   0  0  0  0  0  0  0  0  0  0  0  0
   57.8830   25.3481   47.2574 H   0  0  0  0  0  0  0  0  0  0  0  0
   55.1230   28.1250   44.8640 H   0  0  0  0  0  0  0  0  0  0  0  0
  1  2  1  0
  2  3  2  0
  3  4  1  0
  4  5  2  0
  5  6  1  0
  6  7  2  0
  7  8  1  0
  8  9  2  0
  9 10  1  0
 10 11  1  0
 11 12  2  0
 11 13  1  0
 13  3  1  0
 10  5  1  0
  1 14  1  0
  1 15  1  0
  1 16  1  0
  4 17  1  0
  6 18  1  0
  7 19  1  0
  8 20  1  0
  9 21  1  0
 13 22  1  0
M  END
>  <smiles>  (24) 
CN=c1cc2ccccn2c(=O)[nH]1

>  <score_type>  (24) 
oracle

>  <origin>  (24) 
adg

>  <m_score__min__energy>  (24) 
-5.4500000000000002

>  <m_primary>  (24) 
energy

$$$$
24:0
     RDKit          3D

 47 50  0  0  0  0  0  0  0  0999 V2000
   55.1350   20.2690   46.7530 C   0  0  0  0  0  0  0  0  0  0  0  0
   55.1850   21.7260   46.5430 N   0  0  0  0  0  0  0  0  0  0  0  0
   56.2940   22.4400   46.9390 C   0  0  0  0  0  0  0  0  0  0  0  0
   57.2890   21.8730   47.4680 O   0  0  0  0  0  0  0  0  0  0  0  0
   56.2970   23.8090   46.7430 C   0  0  0  0  0  0  0  0  0  0  0  0
   57.2630   24.6970   47.0240 N   0  0  0  0  0  0  0  0  0  0  0  0
   56.7060   25.8680   46.6140 C   0  0  0  0  0  0  0  0  0  0  0  0
   57.4010   27.1590   46.7250 C   0  0  0  0  0  0  0  0  0  0  0  0
   57.0880   28.0950   45.9410 O   0  0  0  0  0  0  0  0  0  0  0  0
   58.3950   27.3630   47.7430 N   0  0  0  0  0  0  0  0  0  0  0  0
   59.2910   28.4870   47.7760 C   0  0  0  0  0  0  0  0  0  0  0  0
   59.6130   29.1340   48.9820 C   0  0  0  0  0  0  0  0  0  0  0  0
   60.4670   30.2410   48.9850 C   0  0  0  0  0  0  0  0  0  0  0  0
   61.0000   30.7320   47.7830 C   0  0  0  0  0  0  0  0  0  0  0  0
   61.8870   31.8670   47.7920 N   0  0  0  0  0  0  0  0  0  0  0  0
   61.7610   32.8980   46.7540 C   0  0  0  0  0  0  0  0  0  0  0  0
   62.9610   33.8440   46.7960 C   0  0  0  0  0  0  0  0  0  0  0  0
   64.1310   33.1060   47.0730 O   0  0  0  0  0  0  0  0  0  0  0  0
   64.1440   32.7100   48.4350 C   0  0  0  0  0  0  0  0  0  0  0  0
   62.8160   32.0720   48.9110 C   0  0  0  0  0  0  0  0  0  0  0  0
   60.6650   30.0950   46.5770 C   0  0  0  0  0  0  0  0  0  0  0  0
   59.8100   28.9890   46.5740 C   0  0  0  0  0  0  0  0  0  0  0  0
   55.4510   25.7460   46.1000 N   0  0  0  0  0  0  0  0  0  0  0  0
   55.2290   24.4270   46.2000 C   0  0  0  0  0  0  0  0  0  0  0  0
   54.1040   23.7530   45.8390 N   0  0  0  0  0  0  0  0  0  0  0  0
   52.9650   24.4550   45.2310 C   0  0  0  0  0  0  0  0  0  0  0  0
   54.0890   22.3840   46.0070 C   0  0  0  0  0  0  0  0  0  0  0  0
   53.0640   21.7260   45.6700 O   0  0  0  0  0  0  0  0  0  0  0  0
   55.1276   20.0541   47.8318 H   0  0  0  0  0  0  0  0  0  0  0  0
   54.2224   19.8632   46.2920 H   0  0  0  0  0  0  0  0  0  0  0  0
   56.0176   19.8016   46.2920 H   0  0  0  0  0  0  0  0  0  0  0  0
   58.4110   26.7050   48.5540 H   0  0  0  0  0  0  0  0  0  0  0  0
   59.1904   28.7670   49.9290 H   0  0  0  0  0  0  0  0  0  0  0  0
   60.7230   30.7306   49.9362 H   0  0  0  0  0  0  0  0  0  0  0  0
   61.7143   32.4150   45.7668 H   0  0  0  0  0  0  0  0  0  0  0  0
   60.8432   33.4767   46.9347 H   0  0  0  0  0  0  0  0  0  0  0  0
   63.0661   34.3467   45.8232 H   0  0  0  0  0  0  0  0  0  0  0  0
   62.8072   34.5972   47.5828 H   0  0  0  0  0  0  0  0  0  0  0  0
   64.9515   31.9764   48.5756 H   0  0  0  0  0  0  0  0  0  0  0  0
   64.2952   33.6209   49.0329 H   0  0  0  0  0  0  0  0  0  0  0  0
   63.0334   31.1001   49.3780 H   0  0  0  0  0  0  0  0  0  0  0  0
   62.3433   32.7552   49.6319 H   0  0  0  0  0  0  0  0  0  0  0  0
   61.0781   30.4688   45.6285 H   0  0  0  0  0  0  0  0  0  0  0  0
   59.5423   28.5088   45.6213 H   0  0  0  0  0  0  0  0  0  0  0  0
   52.3156   24.8553   46.0235 H   0  0  0  0  0  0  0  0  0  0  0  0
   53.3347   25.2822   44.6072 H   0  0  0  0  0  0  0  0  0  0  0  0
   52.3922   23.7530   44.6072 H   0  0  0  0  0  0  0  0  0  0  0  0
  1  2  1  0
  2  3  1  0
  3  4  2  0
  3  5  1  0
  5  6  1  0
  6  7  1  0
  7  8  1  0
  8  9  2  0
  8 10  1  0
 10 11  1  0
 11 12  2  0
 12 13  1  0
 13 14  2  0
 14 15  1  0
 15 16  1  0
 16 17  1  0
 17 18  1  0
 18 19  1  0
 19 20  1  0
 14 21  1  0
 21 22  2  0
  7 23  2  0
 23 24  1  0
 24 25  1  0
 25 26  1  0
 25 27  1  0
 27 28  2  0
 27  2  1  0
 24  5  2  0
 22 11  1  0
 20 15  1  0
  1 29  1  0
  1 30  1  0
  1 31  1  0
 10 32  1  0
 12 33  1  0
 13 34  1  0
 16 35  1  0
 16 36  1  0
 17 37  1  0
 17 38  1  0
 19 39  1  0
 19 40  1  0
 20 41  1  0
 20 42  1  0
 21 43  1  0
 22 44  1  0
 26 45  1  0
 26 46  1  0
 26 47  1  0
M  CHG  1   6  -1
M  END
>  <UniqueID>  (25) 
23

>  <SMILES>  (25) 
Cn1c(=O)c2[n-]c(C(=O)Nc3ccc(N4CCOCC4)cc3)nc2n(C)c1=O

>  <Energy>  (25) 
105.8619132975674

>  <Genealogy>  (25) 
Cn1c(=O)c2[n-]c(C(=O)Nc3ccc(N4CCOCC4)cc3)nc2n(C)c1=O (protonated)
Cn1c(=O)c2[n-]c(C(=O)Nc3ccc(N4CCOCC4)cc3)nc2n(C)c1=O (3D coordinates assigned)
Cn1c(=O)c2[n-]c(C(=O)Nc3ccc(N4CCOCC4)cc3)nc2n(C)c1=O (nonaromatic ring conformer: 105.8619132975674 kcal/mol)

>  <smiles>  (25) 
Cn1c(=O)c2[nH]c(C(=O)Nc3ccc(N4CCOCC4)cc3)nc2n(C)c1=O

>  <score_type>  (25) 
oracle

>  <origin>  (25) 
adg

>  <m_score__min__energy>  (25) 
-9.7599999999999998

>  <m_primary>  (25) 
energy

$$$$
25:0
     RDKit          3D

 40 42  0  0  1  0  0  0  0  0999 V2000
   56.6890   30.7920   44.7940 O   0  0  0  0  0  0  0  0  0  0  0  0
   56.5100   29.5420   44.6970 C   0  0  0  0  0  0  0  0  0  0  0  0
   55.2430   29.0390   44.8300 O   0  0  0  0  0  0  0  0  0  0  0  0
   57.7160   28.7050   44.4410 C   0  0  0  0  0  0  0  0  0  0  0  0
   58.6940   29.0260   45.4960 C   0  0  0  0  0  0  0  0  0  0  0  0
   58.2710   28.8600   46.8190 C   0  0  0  0  0  0  0  0  0  0  0  0
   59.1370   29.1420   47.8480 C   0  0  0  0  0  0  0  0  0  0  0  0
   60.4260   29.5900   47.5590 C   0  0  0  0  0  0  0  0  0  0  0  0
   61.2570   29.8580   48.7000 N   0  0  0  0  0  0  0  0  0  0  0  0
   61.1950   31.0420   49.2360 C   0  0  0  0  0  0  0  0  0  0  0  0
   60.5180   32.0690   48.6240 C   0  0  0  0  0  0  0  0  0  0  0  0
   60.4430   33.3530   49.1930 C   0  0  0  0  0  0  0  0  0  0  0  0
   59.7240   34.3590   48.5420 N   0  0  0  0  0  0  0  0  0  0  0  0
   59.0490   34.2890   47.3170 C   0  0  0  0  0  0  0  0  0  0  0  0
   59.6220   34.9220   46.2090 C   0  0  0  0  0  0  0  0  0  0  0  0
   59.0150   34.9240   44.9710 C   0  0  0  0  0  0  0  0  0  0  0  0
   57.8060   34.2930   44.7820 C   0  0  0  0  0  0  0  0  0  0  0  0
   57.2220   33.6650   45.8510 C   0  0  0  0  0  0  0  0  0  0  0  0
   57.8400   33.6660   47.1030 C   0  0  0  0  0  0  0  0  0  0  0  0
   61.0800   33.4830   50.3680 N   0  0  0  0  0  0  0  0  0  0  0  0
   61.7450   32.4680   50.9650 C   0  0  0  0  0  0  0  0  0  0  0  0
   61.8200   31.2390   50.4250 N   0  0  0  0  0  0  0  0  0  0  0  0
   60.8670   29.7610   46.2760 C   0  0  0  0  0  0  0  0  0  0  0  0
   59.9810   29.4720   45.2330 C   0  0  0  0  0  0  0  0  0  0  0  0
   55.1400   28.0360   44.9560 H   0  0  0  0  0  0  0  0  0  0  0  0
   57.4514   27.6381   44.4829 H   0  0  0  0  0  0  0  0  0  0  0  0
   58.1322   28.9102   43.4437 H   0  0  0  0  0  0  0  0  0  0  0  0
   57.2520   28.5061   47.0342 H   0  0  0  0  0  0  0  0  0  0  0  0
   58.8159   29.0153   48.8924 H   0  0  0  0  0  0  0  0  0  0  0  0
   60.0202   31.8816   47.6611 H   0  0  0  0  0  0  0  0  0  0  0  0
   59.6790   35.3060   49.0390 H   0  0  0  0  0  0  0  0  0  0  0  0
   60.5878   35.4346   46.3292 H   0  0  0  0  0  0  0  0  0  0  0  0
   59.5012   35.4344   44.1265 H   0  0  0  0  0  0  0  0  0  0  0  0
   57.3198   34.2929   43.7953 H   0  0  0  0  0  0  0  0  0  0  0  0
   56.2562   33.1548   45.7213 H   0  0  0  0  0  0  0  0  0  0  0  0
   57.3468   33.1543   47.9426 H   0  0  0  0  0  0  0  0  0  0  0  0
   61.0720   34.3850   50.8740 H   0  0  0  0  0  0  0  0  0  0  0  0
   62.2429   32.6548   51.9279 H   0  0  0  0  0  0  0  0  0  0  0  0
   61.8879   30.1152   46.0703 H   0  0  0  0  0  0  0  0  0  0  0  0
   60.3089   29.6000   44.1908 H   0  0  0  0  0  0  0  0  0  0  0  0
  1  2  2  0
  2  3  1  0
  2  4  1  0
  4  5  1  0
  5  6  2  0
  6  7  1  0
  7  8  2  0
  8  9  1  0
  9 10  2  0
 10 11  1  0
 11 12  2  0
 12 13  1  0
 13 14  1  0
 14 15  2  0
 15 16  1  0
 16 17  2  0
 17 18  1  0
 18 19  2  0
 12 20  1  0
 20 21  1  0
 21 22  2  0
  8 23  1  0
 23 24  2  0
 24  5  1  0
 22 10  1  0
 19 14  1  0
  3 25  1  0
  4 26  1  0
  4 27  1  0
  6 28  1  0
  7 29  1  0
 11 30  1  0
 13 31  1  0
 15 32  1  0
 16 33  1  0
 17 34  1  0
 18 35  1  0
 19 36  1  0
 20 37  1  0
 21 38  1  0
 23 39  1  0
 24 40  1  0
M  END
>  <smiles>  (26) 
O=C(O)Cc1ccc(N=c2cc(Nc3ccccc3)[nH]cn2)cc1

>  <score_type>  (26) 
oracle

>  <origin>  (26) 
adg

>  <m_score__min__energy>  (26) 
-8.5800000000000001

>  <m_primary>  (26) 
energy

$$$$
26:0
     RDKit          3D

 63 68  0  0  0  0  0  0  0  0999 V2000
   58.9410   29.2870   49.0580 O   0  0  0  0  0  0  0  0  0  0  0  0
   59.6040   30.3360   48.8340 C   0  0  0  0  0  0  0  0  0  0  0  0
   60.1530   30.5450   47.4400 C   0  0  0  0  0  0  0  0  0  0  0  0
   59.2570   31.3260   46.5800 N   0  0  0  0  0  0  0  0  0  0  0  0
   58.1610   30.9090   45.8690 C   0  0  0  0  0  0  0  0  0  0  0  0
   57.6310   29.5210   45.8200 C   0  0  0  0  0  0  0  0  0  0  0  0
   58.4670   28.4640   46.2230 C   0  0  0  0  0  0  0  0  0  0  0  0
   58.0300   27.1370   46.1290 C   0  0  0  0  0  0  0  0  0  0  0  0
   58.8650   26.0640   46.4830 C   0  0  0  0  0  0  0  0  0  0  0  0
   58.4060   24.7480   46.3660 C   0  0  0  0  0  0  0  0  0  0  0  0
   57.1100   24.4950   45.9080 C   0  0  0  0  0  0  0  0  0  0  0  0
   56.2720   25.5600   45.5520 C   0  0  0  0  0  0  0  0  0  0  0  0
   56.7320   26.8790   45.6460 C   0  0  0  0  0  0  0  0  0  0  0  0
   55.9450   27.9100   45.2400 N   0  0  0  0  0  0  0  0  0  0  0  0
   56.3620   29.2030   45.2890 C   0  0  0  0  0  0  0  0  0  0  0  0
   55.6150   30.0950   44.8140 O   0  0  0  0  0  0  0  0  0  0  0  0
   57.6400   31.9030   45.1040 N   0  0  0  0  0  0  0  0  0  0  0  0
   58.4230   32.9660   45.3440 C   0  0  0  0  0  0  0  0  0  0  0  0
   58.3090   34.2530   44.8260 C   0  0  0  0  0  0  0  0  0  0  0  0
   59.2520   35.2100   45.2460 C   0  0  0  0  0  0  0  0  0  0  0  0
   60.2750   34.8570   46.1570 C   0  0  0  0  0  0  0  0  0  0  0  0
   60.3620   33.5460   46.6590 C   0  0  0  0  0  0  0  0  0  0  0  0
   59.4100   32.6200   46.2240 C   0  0  0  0  0  0  0  0  0  0  0  0
   59.8950   31.2280   49.9310 N   0  0  0  0  0  0  0  0  0  0  0  0
   60.2040   30.6580   51.2470 C   0  0  0  0  0  0  0  0  0  0  0  0
   58.9480   30.6930   52.1450 C   0  0  0  0  0  0  0  0  0  0  0  0
   57.9140   31.6270   51.6310 N   0  0  0  0  0  0  0  0  0  0  0  0
   56.8810   31.9020   52.6510 C   0  0  0  0  0  0  0  0  0  0  0  0
   55.8470   30.8040   52.6890 C   0  0  0  0  0  0  0  0  0  0  0  0
   54.6740   30.9030   51.9200 C   0  0  0  0  0  0  0  0  0  0  0  0
   53.7290   29.8730   51.9450 C   0  0  0  0  0  0  0  0  0  0  0  0
   53.9470   28.7390   52.7310 C   0  0  0  0  0  0  0  0  0  0  0  0
   55.1120   28.6320   53.4980 C   0  0  0  0  0  0  0  0  0  0  0  0
   56.0610   29.6590   53.4740 C   0  0  0  0  0  0  0  0  0  0  0  0
   58.5280   32.8850   51.1630 C   0  0  0  0  0  0  0  0  0  0  0  0
   59.3980   32.6120   49.9250 C   0  0  0  0  0  0  0  0  0  0  0  0
   61.1137   31.0751   47.5179 H   0  0  0  0  0  0  0  0  0  0  0  0
   60.2667   29.5523   46.9799 H   0  0  0  0  0  0  0  0  0  0  0  0
   59.4715   28.6815   46.6149 H   0  0  0  0  0  0  0  0  0  0  0  0
   59.8823   26.2594   46.8531 H   0  0  0  0  0  0  0  0  0  0  0  0
   59.0664   23.9104   46.6350 H   0  0  0  0  0  0  0  0  0  0  0  0
   56.7478   23.4595   45.8270 H   0  0  0  0  0  0  0  0  0  0  0  0
   55.2501   25.3593   45.1978 H   0  0  0  0  0  0  0  0  0  0  0  0
   56.8130   31.8570   44.4670 H   0  0  0  0  0  0  0  0  0  0  0  0
   57.5113   34.5127   44.1145 H   0  0  0  0  0  0  0  0  0  0  0  0
   59.1930   36.2395   44.8631 H   0  0  0  0  0  0  0  0  0  0  0  0
   61.0077   35.6132   46.4751 H   0  0  0  0  0  0  0  0  0  0  0  0
   61.1517   33.2596   47.3691 H   0  0  0  0  0  0  0  0  0  0  0  0
   60.5353   29.6163   51.1243 H   0  0  0  0  0  0  0  0  0  0  0  0
   61.0022   31.2498   51.7188 H   0  0  0  0  0  0  0  0  0  0  0  0
   58.5187   29.6813   52.1926 H   0  0  0  0  0  0  0  0  0  0  0  0
   59.2555   31.0459   53.1404 H   0  0  0  0  0  0  0  0  0  0  0  0
   57.3617   31.9767   53.6376 H   0  0  0  0  0  0  0  0  0  0  0  0
   56.3782   32.8456   52.3925 H   0  0  0  0  0  0  0  0  0  0  0  0
   54.4995   31.7929   51.2973 H   0  0  0  0  0  0  0  0  0  0  0  0
   52.8113   29.9558   51.3441 H   0  0  0  0  0  0  0  0  0  0  0  0
   53.2022   27.9297   52.7468 H   0  0  0  0  0  0  0  0  0  0  0  0
   55.2816   27.7405   54.1197 H   0  0  0  0  0  0  0  0  0  0  0  0
   56.9794   29.5697   54.0727 H   0  0  0  0  0  0  0  0  0  0  0  0
   57.7362   33.6025   50.9017 H   0  0  0  0  0  0  0  0  0  0  0  0
   59.1568   33.3016   51.9636 H   0  0  0  0  0  0  0  0  0  0  0  0
   58.7967   32.7753   49.0185 H   0  0  0  0  0  0  0  0  0  0  0  0
   60.2593   33.2960   49.9415 H   0  0  0  0  0  0  0  0  0  0  0  0
  1  2  2  0
  2  3  1  0
  3  4  1  0
  4  5  1  0
  5  6  1  0
  6  7  2  0
  7  8  1  0
  8  9  2  0
  9 10  1  0
 10 11  2  0
 11 12  1  0
 12 13  2  0
 13 14  1  0
 14 15  1  0
 15 16  2  0
  5 17  2  0
 17 18  1  0
 18 19  2  0
 19 20  1  0
 20 21  2  0
 21 22  1  0
 22 23  2  0
  2 24  1  0
 24 25  1  0
 25 26  1  0
 26 27  1  0
 27 28  1  0
 28 29  1  0
 29 30  2  0
 30 31  1  0
 31 32  2  0
 32 33  1  0
 33 34  2  0
 27 35  1  0
 35 36  1  0
 23  4  1  0
 36 24  1  0
 15  6  1  0
 23 18  1  0
 34 29  1  0
 13  8  1  0
  3 37  1  0
  3 38  1  0
  7 39  1  0
  9 40  1  0
 10 41  1  0
 11 42  1  0
 12 43  1  0
 17 44  1  0
 19 45  1  0
 20 46  1  0
 21 47  1  0
 22 48  1  0
 25 49  1  0
 25 50  1  0
 26 51  1  0
 26 52  1  0
 28 53  1  0
 28 54  1  0
 30 55  1  0
 31 56  1  0
 32 57  1  0
 33 58  1  0
 34 59  1  0
 35 60  1  0
 35 61  1  0
 36 62  1  0
 36 63  1  0
M  CHG  2  14  -1  17   1
M  END
>  <UniqueID>  (27) 
24

>  <SMILES>  (27) 
O=C(Cn1c(-c2cc3ccccc3[n-]c2=O)[nH+]c2ccccc21)N1CCN(Cc2ccccc2)CC1

>  <Energy>  (27) 
131.39773554489994

>  <Genealogy>  (27) 
O=C(Cn1c(-c2cc3ccccc3[n-]c2=O)[nH+]c2ccccc21)N1CCN(Cc2ccccc2)CC1 (protonated)
O=C(Cn1c(-c2cc3ccccc3[n-]c2=O)[nH+]c2ccccc21)N1CCN(Cc2ccccc2)CC1 (3D coordinates assigned)
O=C(Cn1c(-c2cc3ccccc3[n-]c2=O)[nH+]c2ccccc21)N1CCN(Cc2ccccc2)CC1 (nonaromatic ring conformer: 131.39773554489994 kcal/mol)

>  <smiles>  (27) 
O=C(Cn1c(-c2cc3ccccc3[nH]c2=O)nc2ccccc21)N1CCN(Cc2ccccc2)CC1

>  <score_type>  (27) 
oracle

>  <origin>  (27) 
adg

>  <m_score__min__energy>  (27) 
-10.25

>  <m_primary>  (27) 
energy

$$$$
27:0
     RDKit          3D

 46 48  0  0  0  0  0  0  0  0999 V2000
   53.6850   26.5040   53.5220 C   0  0  0  0  0  0  0  0  0  0  0  0
   53.4790   27.9080   53.4110 O   0  0  0  0  0  0  0  0  0  0  0  0
   54.4800   28.8320   53.0720 C   0  0  0  0  0  0  0  0  0  0  0  0
   54.1250   29.9470   52.3080 C   0  0  0  0  0  0  0  0  0  0  0  0
   55.0850   30.8960   51.9450 C   0  0  0  0  0  0  0  0  0  0  0  0
   56.4250   30.7450   52.3410 C   0  0  0  0  0  0  0  0  0  0  0  0
   57.4310   31.7620   51.9480 C   0  0  0  0  0  0  0  0  0  0  0  0
   57.9820   31.9490   50.6910 C   0  0  0  0  0  0  0  0  0  0  0  0
   58.8550   33.0070   50.8600 C   0  0  0  0  0  0  0  0  0  0  0  0
   59.7220   33.6150   49.8360 C   0  0  0  0  0  0  0  0  0  0  0  0
   60.9210   33.8760   50.1280 O   0  0  0  0  0  0  0  0  0  0  0  0
   59.2260   33.9130   48.5220 N   0  0  0  0  0  0  0  0  0  0  0  0
   60.1120   34.4110   47.4700 C   0  0  0  0  0  0  0  0  0  0  0  0
   59.3640   34.6150   46.1460 C   0  0  0  0  0  0  0  0  0  0  0  0
   58.7320   33.3340   45.6620 C   0  0  0  0  0  0  0  0  0  0  0  0
   57.6180   33.3650   44.8080 C   0  0  0  0  0  0  0  0  0  0  0  0
   57.0190   32.1740   44.3850 C   0  0  0  0  0  0  0  0  0  0  0  0
   57.5220   30.9400   44.8180 C   0  0  0  0  0  0  0  0  0  0  0  0
   56.7710   29.4420   44.2750 S   0  0  0  0  0  0  0  0  0  0  0  0
   55.1500   29.3620   44.8670 N   0  0  0  0  0  0  0  0  0  0  0  0
   57.5530   28.2650   44.7860 O   0  0  0  0  0  0  0  0  0  0  0  0
   56.7560   29.3960   42.7730 O   0  0  0  0  0  0  0  0  0  0  0  0
   58.6360   30.9050   45.6660 C   0  0  0  0  0  0  0  0  0  0  0  0
   59.2350   32.0940   46.0900 C   0  0  0  0  0  0  0  0  0  0  0  0
   58.8240   33.4170   52.1420 N   0  0  0  0  0  0  0  0  0  0  0  0
   57.9580   32.6620   52.8020 N   0  0  0  0  0  0  0  0  0  0  0  0
   56.7810   29.6220   53.1110 C   0  0  0  0  0  0  0  0  0  0  0  0
   55.8190   28.6740   53.4740 C   0  0  0  0  0  0  0  0  0  0  0  0
   53.7263   26.2223   54.5845 H   0  0  0  0  0  0  0  0  0  0  0  0
   52.8553   25.9719   53.0336 H   0  0  0  0  0  0  0  0  0  0  0  0
   54.6326   26.2327   53.0336 H   0  0  0  0  0  0  0  0  0  0  0  0
   53.0805   30.0791   51.9893 H   0  0  0  0  0  0  0  0  0  0  0  0
   54.7891   31.7686   51.3442 H   0  0  0  0  0  0  0  0  0  0  0  0
   57.7728   31.3851   49.7700 H   0  0  0  0  0  0  0  0  0  0  0  0
   58.2110   33.7810   48.3180 H   0  0  0  0  0  0  0  0  0  0  0  0
   60.5392   35.3729   47.7897 H   0  0  0  0  0  0  0  0  0  0  0  0
   60.9020   33.6635   47.3053 H   0  0  0  0  0  0  0  0  0  0  0  0
   58.5760   35.3682   46.2936 H   0  0  0  0  0  0  0  0  0  0  0  0
   60.0893   34.9481   45.3890 H   0  0  0  0  0  0  0  0  0  0  0  0
   57.2143   34.3308   44.4699 H   0  0  0  0  0  0  0  0  0  0  0  0
   56.1506   32.2062   43.7105 H   0  0  0  0  0  0  0  0  0  0  0  0
   55.1390   28.6470   45.6290 H   0  0  0  0  0  0  0  0  0  0  0  0
   59.0408   29.9381   45.9994 H   0  0  0  0  0  0  0  0  0  0  0  0
   60.1049   32.0590   46.7624 H   0  0  0  0  0  0  0  0  0  0  0  0
   57.8252   29.4887   53.4302 H   0  0  0  0  0  0  0  0  0  0  0  0
   56.1105   27.8010   54.0764 H   0  0  0  0  0  0  0  0  0  0  0  0
  1  2  1  0
  2  3  1  0
  3  4  2  0
  4  5  1  0
  5  6  2  0
  6  7  1  0
  7  8  1  0
  8  9  2  0
  9 10  1  0
 10 11  2  0
 10 12  1  0
 12 13  1  0
 13 14  1  0
 14 15  1  0
 15 16  2  0
 16 17  1  0
 17 18  2  0
 18 19  1  0
 19 20  1  0
 19 21  2  0
 19 22  2  0
 18 23  1  0
 23 24  2  0
  9 25  1  0
 25 26  1  0
  6 27  1  0
 27 28  2  0
 28  3  1  0
 26  7  2  0
 24 15  1  0
  1 29  1  0
  1 30  1  0
  1 31  1  0
  4 32  1  0
  5 33  1  0
  8 34  1  0
 12 35  1  0
 13 36  1  0
 13 37  1  0
 14 38  1  0
 14 39  1  0
 16 40  1  0
 17 41  1  0
 20 42  1  0
 23 43  1  0
 24 44  1  0
 27 45  1  0
 28 46  1  0
M  CHG  2  20  -1  25  -1
M  END
>  <UniqueID>  (28) 
25

>  <SMILES>  (28) 
COc1ccc(-c2cc(C(=O)NCCc3ccc(S([NH-])(=O)=O)cc3)[n-]n2)cc1

>  <Energy>  (28) 
73.13769108493375

>  <Genealogy>  (28) 
COc1ccc(-c2cc(C(=O)NCCc3ccc(S([NH-])(=O)=O)cc3)[n-]n2)cc1 (protonated)
COc1ccc(-c2cc(C(=O)NCCc3ccc(S([NH-])(=O)=O)cc3)[n-]n2)cc1 (3D coordinates assigned)
COc1ccc(-c2cc(C(=O)NCCc3ccc(S([NH-])(=O)=O)cc3)[n-]n2)cc1 (optimized conformer: 73.13769108493375 kcal/mol)

>  <smiles>  (28) 
COc1ccc(-c2cc(C(=O)NCCc3ccc(S(N)(=O)=O)cc3)[nH]n2)cc1

>  <score_type>  (28) 
oracle

>  <origin>  (28) 
adg

>  <m_score__min__energy>  (28) 
-12.029999999999999

>  <m_primary>  (28) 
energy

$$$$
28:0
     RDKit          3D

 40 43  0  0  0  0  0  0  0  0999 V2000
   59.5930   35.3850   46.1950 C   0  0  0  0  0  0  0  0  0  0  0  0
   59.2670   35.0210   44.8870 C   0  0  0  0  0  0  0  0  0  0  0  0
   58.7260   33.7580   44.6230 C   0  0  0  0  0  0  0  0  0  0  0  0
   58.5070   32.8470   45.6720 C   0  0  0  0  0  0  0  0  0  0  0  0
   57.9510   31.5070   45.3930 C   0  0  0  0  0  0  0  0  0  0  0  0
   56.7050   31.2930   44.9260 N   0  0  0  0  0  0  0  0  0  0  0  0
   56.5860   30.0020   44.8680 O   0  0  0  0  0  0  0  0  0  0  0  0
   57.6950   29.4370   45.2800 C   0  0  0  0  0  0  0  0  0  0  0  0
   57.9240   27.9530   45.3860 C   0  0  2  0  0  0  0  0  0  0  0  0
   56.6110   27.1640   45.6250 C   0  0  0  0  0  0  0  0  0  0  0  0
   56.8630   25.5070   46.3730 S   0  0  0  0  0  0  0  0  0  0  0  0
   58.5300   25.2410   45.6950 C   0  0  0  0  0  0  0  0  0  0  0  0
   59.5310   26.2760   46.2380 C   0  0  0  0  0  0  0  0  0  0  0  0
   58.9730   27.6450   46.3930 N   0  0  0  0  0  0  0  0  0  0  0  0
   58.6210   27.9960   47.7940 C   0  0  0  0  0  0  0  0  0  0  0  0
   59.4120   29.1840   48.2460 C   0  0  0  0  0  0  0  0  0  0  0  0
   60.6830   29.5160   47.8220 C   0  0  0  0  0  0  0  0  0  0  0  0
   60.9950   30.6890   48.4750 C   0  0  0  0  0  0  0  0  0  0  0  0
   59.9010   30.9950   49.2590 C   0  0  0  0  0  0  0  0  0  0  0  0
   58.9730   30.0770   49.1020 O   0  0  0  0  0  0  0  0  0  0  0  0
   58.6170   30.3560   45.6240 N   0  0  0  0  0  0  0  0  0  0  0  0
   58.8410   33.2230   46.9850 C   0  0  0  0  0  0  0  0  0  0  0  0
   59.3800   34.4870   47.2430 C   0  0  0  0  0  0  0  0  0  0  0  0
   60.0175   36.3789   46.3999 H   0  0  0  0  0  0  0  0  0  0  0  0
   59.4359   35.7289   44.0622 H   0  0  0  0  0  0  0  0  0  0  0  0
   58.4709   33.4763   43.5907 H   0  0  0  0  0  0  0  0  0  0  0  0
   58.2995   27.6077   44.4114 H   0  0  0  0  0  0  0  0  0  0  0  0
   55.9705   27.7535   46.2975 H   0  0  0  0  0  0  0  0  0  0  0  0
   56.1524   27.0019   44.6384 H   0  0  0  0  0  0  0  0  0  0  0  0
   58.8721   24.2330   45.9724 H   0  0  0  0  0  0  0  0  0  0  0  0
   58.4795   25.3501   44.6016 H   0  0  0  0  0  0  0  0  0  0  0  0
   59.8806   25.9331   47.2230 H   0  0  0  0  0  0  0  0  0  0  0  0
   60.3414   26.3485   45.4977 H   0  0  0  0  0  0  0  0  0  0  0  0
   57.5480   28.2315   47.8505 H   0  0  0  0  0  0  0  0  0  0  0  0
   58.8539   27.1416   48.4464 H   0  0  0  0  0  0  0  0  0  0  0  0
   61.3141   28.9611   47.1122 H   0  0  0  0  0  0  0  0  0  0  0  0
   61.9280   31.2653   48.3887 H   0  0  0  0  0  0  0  0  0  0  0  0
   59.8181   31.8737   49.9156 H   0  0  0  0  0  0  0  0  0  0  0  0
   58.6773   32.5187   47.8140 H   0  0  0  0  0  0  0  0  0  0  0  0
   59.6367   34.7746   48.2732 H   0  0  0  0  0  0  0  0  0  0  0  0
  1  2  2  0
  2  3  1  0
  3  4  2  0
  4  5  1  0
  5  6  2  0
  6  7  1  0
  7  8  1  0
  8  9  1  0
  9 10  1  0
 10 11  1  0
 11 12  1  0
 12 13  1  0
 13 14  1  0
 14 15  1  0
 15 16  1  0
 16 17  2  0
 17 18  1  0
 18 19  2  0
 19 20  1  0
  8 21  2  0
  4 22  1  0
 22 23  2  0
 23  1  1  0
 21  5  1  0
 14  9  1  0
 20 16  1  0
  1 24  1  0
  2 25  1  0
  3 26  1  0
  9 27  1  6
 10 28  1  0
 10 29  1  0
 12 30  1  0
 12 31  1  0
 13 32  1  0
 13 33  1  0
 15 34  1  0
 15 35  1  0
 17 36  1  0
 18 37  1  0
 19 38  1  0
 22 39  1  0
 23 40  1  0
M  END
>  <UniqueID>  (29) 
26

>  <SMILES>  (29) 
c1ccc(-c2noc([C@@H]3CSCCN3Cc3ccco3)n2)cc1

>  <Energy>  (29) 
112.28141804311414

>  <Genealogy>  (29) 
c1ccc(-c2noc([C@@H]3CSCCN3Cc3ccco3)n2)cc1 (chirality)
c1ccc(-c2noc([C@@H]3CSCCN3Cc3ccco3)n2)cc1 (3D coordinates assigned)
c1ccc(-c2noc([C@@H]3CSCCN3Cc3ccco3)n2)cc1 (nonaromatic ring conformer: 112.28141804311414 kcal/mol)

>  <smiles>  (29) 
c1ccc(-c2noc(C3CSCCN3Cc3ccco3)n2)cc1

>  <score_type>  (29) 
oracle

>  <origin>  (29) 
adg

>  <m_score__min__energy>  (29) 
-8.0899999999999999

>  <m_primary>  (29) 
energy

$$$$
29:0
     RDKit          3D

 48 51  0  0  0  0  0  0  0  0999 V2000
   55.2410   29.7130   43.6380 C   0  0  0  0  0  0  0  0  0  0  0  0
   55.4660   28.9780   44.8370 O   0  0  0  0  0  0  0  0  0  0  0  0
   56.7230   28.7840   45.4330 C   0  0  0  0  0  0  0  0  0  0  0  0
   57.6520   29.8350   45.5580 C   0  0  0  0  0  0  0  0  0  0  0  0
   58.8830   29.6330   46.2070 C   0  0  0  0  0  0  0  0  0  0  0  0
   59.8780   30.7640   46.3460 C   0  0  2  0  0  0  0  0  0  0  0  0
   60.6960   30.6670   47.6630 C   0  0  0  0  0  0  0  0  0  0  0  0
   60.6330   32.0810   48.2830 C   0  0  0  0  0  0  0  0  0  0  0  0
   60.1630   32.8910   47.1020 C   0  0  2  0  0  0  0  0  0  0  0  0
   59.4500   34.2140   47.2210 C   0  0  0  0  0  0  0  0  0  0  0  0
   58.6830   34.2540   45.8800 C   0  0  0  0  0  0  0  0  0  0  0  0
   58.7480   32.8130   45.3290 C   0  0  0  0  0  0  0  0  0  0  0  0
   59.1900   32.0400   46.4770 N   0  0  0  0  0  0  0  0  0  0  0  0
   59.1700   28.3750   46.7510 C   0  0  0  0  0  0  0  0  0  0  0  0
   58.2590   27.3260   46.6240 C   0  0  0  0  0  0  0  0  0  0  0  0
   57.0500   27.5110   45.9460 C   0  0  0  0  0  0  0  0  0  0  0  0
   56.1750   26.4210   45.8420 O   0  0  0  0  0  0  0  0  0  0  0  0
   56.4330   25.1420   46.3450 C   0  0  0  0  0  0  0  0  0  0  0  0
   56.3140   24.9270   47.5830 O   0  0  0  0  0  0  0  0  0  0  0  0
   56.7870   24.0170   45.4350 C   0  0  0  0  0  0  0  0  0  0  0  0
   58.1350   23.6190   45.3370 C   0  0  0  0  0  0  0  0  0  0  0  0
   58.5070   22.5710   44.5000 C   0  0  0  0  0  0  0  0  0  0  0  0
   57.5340   21.9140   43.7550 C   0  0  0  0  0  0  0  0  0  0  0  0
   56.2340   22.2970   43.8410 N   0  0  0  0  0  0  0  0  0  0  0  0
   55.8310   23.3210   44.6470 C   0  0  0  0  0  0  0  0  0  0  0  0
   54.1170   23.7350   44.6310 Cl  0  0  0  0  0  0  0  0  0  0  0  0
   54.9275   30.7371   43.8890 H   0  0  0  0  0  0  0  0  0  0  0  0
   56.1697   29.7477   43.0495 H   0  0  0  0  0  0  0  0  0  0  0  0
   54.4520   29.2219   43.0495 H   0  0  0  0  0  0  0  0  0  0  0  0
   57.4120   30.8251   45.1433 H   0  0  0  0  0  0  0  0  0  0  0  0
   60.5157   30.6937   45.4525 H   0  0  0  0  0  0  0  0  0  0  0  0
   60.2473   29.9274   48.3424 H   0  0  0  0  0  0  0  0  0  0  0  0
   61.7314   30.3431   47.4814 H   0  0  0  0  0  0  0  0  0  0  0  0
   59.9151   32.1258   49.1152 H   0  0  0  0  0  0  0  0  0  0  0  0
   61.5804   32.4266   48.7222 H   0  0  0  0  0  0  0  0  0  0  0  0
   61.1097   33.1760   46.6198 H   0  0  0  0  0  0  0  0  0  0  0  0
   58.7633   34.2275   48.0802 H   0  0  0  0  0  0  0  0  0  0  0  0
   60.1139   35.0745   47.3907 H   0  0  0  0  0  0  0  0  0  0  0  0
   57.6382   34.5573   46.0428 H   0  0  0  0  0  0  0  0  0  0  0  0
   59.1204   34.9806   45.1794 H   0  0  0  0  0  0  0  0  0  0  0  0
   57.7589   32.4772   44.9842 H   0  0  0  0  0  0  0  0  0  0  0  0
   59.4132   32.7128   44.4587 H   0  0  0  0  0  0  0  0  0  0  0  0
   60.1197   28.2128   47.2818 H   0  0  0  0  0  0  0  0  0  0  0  0
   58.4939   26.3443   47.0612 H   0  0  0  0  0  0  0  0  0  0  0  0
   58.9013   24.1419   45.9281 H   0  0  0  0  0  0  0  0  0  0  0  0
   59.5612   22.2653   44.4285 H   0  0  0  0  0  0  0  0  0  0  0  0
   57.8181   21.0818   43.0942 H   0  0  0  0  0  0  0  0  0  0  0  0
   55.5240   21.7900   43.2630 H   0  0  0  0  0  0  0  0  0  0  0  0
  1  2  1  0
  2  3  1  0
  3  4  2  0
  4  5  1  0
  5  6  1  0
  6  7  1  0
  7  8  1  0
  8  9  1  0
  9 10  1  0
 10 11  1  0
 11 12  1  0
 12 13  1  0
  5 14  2  0
 14 15  1  0
 15 16  2  0
 16 17  1  0
 17 18  1  0
 18 19  2  0
 18 20  1  0
 20 21  2  0
 21 22  1  0
 22 23  2  0
 23 24  1  0
 24 25  2  0
 25 26  1  0
 16  3  1  0
 25 20  1  0
 13  6  1  0
 13  9  1  0
  1 27  1  0
  1 28  1  0
  1 29  1  0
  4 30  1  0
  6 31  1  6
  7 32  1  0
  7 33  1  0
  8 34  1  0
  8 35  1  0
  9 36  1  6
 10 37  1  0
 10 38  1  0
 11 39  1  0
 11 40  1  0
 12 41  1  0
 12 42  1  0
 14 43  1  0
 15 44  1  0
 21 45  1  0
 22 46  1  0
 23 47  1  0
 24 48  1  0
M  CHG  1  24   1
M  END
>  <UniqueID>  (30) 
27

>  <SMILES>  (30) 
COc1cc([C@@H]2CC[C@@H]3CCCN32)ccc1OC(=O)c1ccc[nH+]c1Cl

>  <Energy>  (30) 
85.59632592496438

>  <Genealogy>  (30) 
COc1cc(C2CCC3CCCN32)ccc1OC(=O)c1ccc[nH+]c1Cl (protonated)
COc1cc([C@@H]2CC[C@@H]3CCCN32)ccc1OC(=O)c1ccc[nH+]c1Cl (chirality)
COc1cc([C@@H]2CC[C@@H]3CCCN32)ccc1OC(=O)c1ccc[nH+]c1Cl (3D coordinates assigned)
COc1cc([C@@H]2CC[C@@H]3CCCN32)ccc1OC(=O)c1ccc[nH+]c1Cl (nonaromatic ring conformer: 85.59632592496438 kcal/mol)

>  <smiles>  (30) 
COc1cc(C2CCC3CCCN32)ccc1OC(=O)c1cccnc1Cl

>  <score_type>  (30) 
oracle

>  <origin>  (30) 
adg

>  <m_score__min__energy>  (30) 
-7.8700000000000001

>  <m_primary>  (30) 
energy

$$$$
30:0
     RDKit          3D

 45 47  0  0  0  0  0  0  0  0999 V2000
   55.9040   24.7070   47.3760 O   0  0  0  0  0  0  0  0  0  0  0  0
   55.8880   25.1830   45.9500 S   0  0  0  0  0  0  0  0  0  0  0  0
   54.5020   25.6620   45.6270 O   0  0  0  0  0  0  0  0  0  0  0  0
   57.0040   26.5010   45.7450 N   0  0  0  0  0  0  0  0  0  0  0  0
   58.3840   26.0270   45.6080 C   0  0  0  0  0  0  0  0  0  0  0  0
   59.3430   27.1750   45.2710 C   0  0  0  0  0  0  0  0  0  0  0  0
   58.6220   28.2880   44.6600 N   0  0  0  0  0  0  0  0  0  0  0  0
   58.8770   29.5960   44.8640 C   0  0  0  0  0  0  0  0  0  0  0  0
   57.8740   30.3210   44.2560 C   0  0  0  0  0  0  0  0  0  0  0  0
   57.6540   32.0650   44.3070 S   0  0  0  0  0  0  0  0  0  0  0  0
   56.2960   32.3640   44.8770 O   0  0  0  0  0  0  0  0  0  0  0  0
   57.7060   32.5990   42.9030 O   0  0  0  0  0  0  0  0  0  0  0  0
   58.8700   32.8640   45.2740 N   0  0  0  0  0  0  0  0  0  0  0  0
   59.1280   34.2260   44.8080 C   0  0  0  0  0  0  0  0  0  0  0  0
   59.6450   35.0000   46.0080 C   0  0  0  0  0  0  0  0  0  0  0  0
   59.1800   34.2150   47.2270 C   0  0  0  0  0  0  0  0  0  0  0  0
   58.4590   32.9950   46.6720 C   0  0  0  0  0  0  0  0  0  0  0  0
   57.0280   29.3900   43.6820 C   0  0  0  0  0  0  0  0  0  0  0  0
   57.5100   28.1630   43.9520 N   0  0  0  0  0  0  0  0  0  0  0  0
   56.3020   23.8640   44.8590 C   0  0  0  0  0  0  0  0  0  0  0  0
   55.6120   23.7220   43.6470 C   0  0  0  0  0  0  0  0  0  0  0  0
   55.9410   22.6860   42.7680 C   0  0  0  0  0  0  0  0  0  0  0  0
   56.9630   21.7890   43.0940 C   0  0  0  0  0  0  0  0  0  0  0  0
   57.6580   21.9290   44.2990 C   0  0  0  0  0  0  0  0  0  0  0  0
   57.3290   22.9640   45.1800 C   0  0  0  0  0  0  0  0  0  0  0  0
   58.6987   25.5651   46.5554 H   0  0  0  0  0  0  0  0  0  0  0  0
   58.4176   25.2972   44.7856 H   0  0  0  0  0  0  0  0  0  0  0  0
   59.8283   27.5229   46.1948 H   0  0  0  0  0  0  0  0  0  0  0  0
   60.0966   26.8084   44.5585 H   0  0  0  0  0  0  0  0  0  0  0  0
   59.7327   30.0109   45.4169 H   0  0  0  0  0  0  0  0  0  0  0  0
   59.8822   34.2175   44.0073 H   0  0  0  0  0  0  0  0  0  0  0  0
   58.2165   34.6866   44.3994 H   0  0  0  0  0  0  0  0  0  0  0  0
   60.7432   35.0586   45.9840 H   0  0  0  0  0  0  0  0  0  0  0  0
   59.2700   36.0340   46.0201 H   0  0  0  0  0  0  0  0  0  0  0  0
   60.0413   33.9078   47.8383 H   0  0  0  0  0  0  0  0  0  0  0  0
   58.5260   34.8165   47.8755 H   0  0  0  0  0  0  0  0  0  0  0  0
   58.7452   32.0958   47.2372 H   0  0  0  0  0  0  0  0  0  0  0  0
   57.3680   33.1083   46.7548 H   0  0  0  0  0  0  0  0  0  0  0  0
   56.1187   29.6136   43.1048 H   0  0  0  0  0  0  0  0  0  0  0  0
   57.0650   27.2550   43.6910 H   0  0  0  0  0  0  0  0  0  0  0  0
   54.8094   24.4278   43.3869 H   0  0  0  0  0  0  0  0  0  0  0  0
   55.3955   22.5763   41.8191 H   0  0  0  0  0  0  0  0  0  0  0  0
   57.2201   20.9732   42.4024 H   0  0  0  0  0  0  0  0  0  0  0  0
   58.4637   21.2249   44.5541 H   0  0  0  0  0  0  0  0  0  0  0  0
   57.8771   23.0727   46.1275 H   0  0  0  0  0  0  0  0  0  0  0  0
  1  2  2  0
  2  3  2  0
  2  4  1  0
  4  5  1  0
  5  6  1  0
  6  7  1  0
  7  8  1  0
  8  9  2  0
  9 10  1  0
 10 11  2  0
 10 12  2  0
 10 13  1  0
 13 14  1  0
 14 15  1  0
 15 16  1  0
 16 17  1  0
  9 18  1  0
 18 19  2  0
  2 20  1  0
 20 21  2  0
 21 22  1  0
 22 23  2  0
 23 24  1  0
 24 25  2  0
 19  7  1  0
 25 20  1  0
 17 13  1  0
  5 26  1  0
  5 27  1  0
  6 28  1  0
  6 29  1  0
  8 30  1  0
 14 31  1  0
 14 32  1  0
 15 33  1  0
 15 34  1  0
 16 35  1  0
 16 36  1  0
 17 37  1  0
 17 38  1  0
 18 39  1  0
 19 40  1  0
 21 41  1  0
 22 42  1  0
 23 43  1  0
 24 44  1  0
 25 45  1  0
M  CHG  2   4  -1  19   1
M  END
>  <UniqueID>  (31) 
28

>  <SMILES>  (31) 
O=S(=O)([N-]CCn1cc(S(=O)(=O)N2CCCC2)c[nH+]1)c1ccccc1

>  <Energy>  (31) 
73.09528101522343

>  <Genealogy>  (31) 
O=S(=O)([N-]CCn1cc(S(=O)(=O)N2CCCC2)c[nH+]1)c1ccccc1 (protonated)
O=S(=O)([N-]CCn1cc(S(=O)(=O)N2CCCC2)c[nH+]1)c1ccccc1 (3D coordinates assigned)
O=S(=O)([N-]CCn1cc(S(=O)(=O)N2CCCC2)c[nH+]1)c1ccccc1 (nonaromatic ring conformer: 73.09528101522343 kcal/mol)

>  <smiles>  (31) 
O=S(=O)(NCCn1cc(S(=O)(=O)N2CCCC2)cn1)c1ccccc1

>  <score_type>  (31) 
oracle

>  <origin>  (31) 
adg

>  <m_score__min__energy>  (31) 
-9.3200000000000003

>  <m_primary>  (31) 
energy

$$$$
31:0
     RDKit          3D

 38 40  0  0  0  0  0  0  0  0999 V2000
   54.3570   30.3030   43.8350 H   0  0  0  0  0  0  0  0  0  0  0  0
   55.0120   29.5080   44.0140 N   0  0  0  0  0  0  0  0  0  0  0  0
   56.0920   29.6650   44.7070 C   0  0  0  0  0  0  0  0  0  0  0  0
   56.6950   28.5890   45.2690 N   0  0  0  0  0  0  0  0  0  0  0  0
   57.8290   28.7440   45.9980 C   0  0  0  0  0  0  0  0  0  0  0  0
   58.4690   27.5600   46.6010 C   0  0  0  0  0  0  0  0  0  0  0  0
   59.5633   27.4637   46.5446 H   0  0  0  0  0  0  0  0  0  0  0  0
   57.7680   26.5970   47.2150 C   0  0  0  0  0  0  0  0  0  0  0  0
   57.6395   26.6498   48.3062 H   0  0  0  0  0  0  0  0  0  0  0  0
   57.1590   25.4630   46.4790 C   0  0  0  0  0  0  0  0  0  0  0  0
   57.9190   24.3060   46.2080 C   0  0  0  0  0  0  0  0  0  0  0  0
   58.9510   24.2319   46.5814 H   0  0  0  0  0  0  0  0  0  0  0  0
   57.3730   23.2540   45.4700 C   0  0  0  0  0  0  0  0  0  0  0  0
   57.9736   22.3544   45.2699 H   0  0  0  0  0  0  0  0  0  0  0  0
   56.0680   23.3410   44.9860 C   0  0  0  0  0  0  0  0  0  0  0  0
   55.6408   22.5115   44.4034 H   0  0  0  0  0  0  0  0  0  0  0  0
   55.3050   24.4800   45.2410 C   0  0  0  0  0  0  0  0  0  0  0  0
   54.2781   24.5457   44.8523 H   0  0  0  0  0  0  0  0  0  0  0  0
   55.8330   25.5410   45.9870 C   0  0  0  0  0  0  0  0  0  0  0  0
   55.0070   26.6400   46.2380 O   0  0  0  0  0  0  0  0  0  0  0  0
   55.3110   27.4610   46.7450 H   0  0  0  0  0  0  0  0  0  0  0  0
   58.3580   29.9850   46.1610 N   0  0  0  0  0  0  0  0  0  0  0  0
   57.7620   31.0720   45.6010 C   0  0  0  0  0  0  0  0  0  0  0  0
   58.3300   32.3880   45.7770 N   0  0  0  0  0  0  0  0  0  0  0  0
   59.1400   32.6810   46.9670 C   0  0  0  0  0  0  0  0  0  0  0  0
   58.4733   32.9225   47.8079 H   0  0  0  0  0  0  0  0  0  0  0  0
   59.7502   31.7980   47.2076 H   0  0  0  0  0  0  0  0  0  0  0  0
   60.0700   33.8680   46.7050 C   0  0  0  0  0  0  0  0  0  0  0  0
   60.5473   34.1673   47.6498 H   0  0  0  0  0  0  0  0  0  0  0  0
   60.8305   33.5641   45.9706 H   0  0  0  0  0  0  0  0  0  0  0  0
   59.3490   34.9660   46.1820 O   0  0  0  0  0  0  0  0  0  0  0  0
   58.8510   34.6350   44.9030 C   0  0  0  0  0  0  0  0  0  0  0  0
   58.3865   35.5261   44.4557 H   0  0  0  0  0  0  0  0  0  0  0  0
   59.6872   34.2840   44.2804 H   0  0  0  0  0  0  0  0  0  0  0  0
   57.8070   33.5180   44.9950 C   0  0  0  0  0  0  0  0  0  0  0  0
   56.9016   33.9079   45.4831 H   0  0  0  0  0  0  0  0  0  0  0  0
   57.5694   33.1684   43.9795 H   0  0  0  0  0  0  0  0  0  0  0  0
   56.6260   30.9030   44.8730 N   0  0  0  0  0  0  0  0  0  0  0  0
  1  2  1  0
  2  3  2  0
  3  4  1  0
  4  5  2  0
  5  6  1  0
  6  7  1  0
  6  8  2  0
  8  9  1  0
  8 10  1  0
 10 11  2  0
 11 12  1  0
 11 13  1  0
 13 14  1  0
 13 15  2  0
 15 16  1  0
 15 17  1  0
 17 18  1  0
 17 19  2  0
 19 20  1  0
 20 21  1  0
  5 22  1  0
 22 23  1  0
 23 24  1  0
 24 25  1  0
 25 26  1  0
 25 27  1  0
 25 28  1  0
 28 29  1  0
 28 30  1  0
 28 31  1  0
 31 32  1  0
 32 33  1  0
 32 34  1  0
 32 35  1  0
 35 36  1  0
 35 37  1  0
 23 38  2  0
 38  3  1  0
 19 10  1  0
 35 24  1  0
M  CHG  1  22  -1
M  END
>  <UniqueID>  (32) 
29

>  <SMILES>  (32) 
[H]/N=c1/nc(/C=C/c2ccccc2O)[n-]c(N2CCOCC2)n1

>  <Energy>  (32) 
45.43617105581487

>  <Genealogy>  (32) 
N=c1nc(C=Cc2ccccc2O)[n-]c(N2CCOCC2)n1 (protonated)
[H]/N=c1/nc(/C=C/c2ccccc2O)[n-]c(N2CCOCC2)n1 (cis-trans isomerization)
[H]/N=c1/nc(/C=C/c2ccccc2O)[n-]c(N2CCOCC2)n1 (3D coordinates assigned)
[H]/N=c1/nc(/C=C/c2ccccc2O)[n-]c(N2CCOCC2)n1 (nonaromatic ring conformer: 45.43617105581487 kcal/mol)

>  <smiles>  (32) 
N=c1nc(C=Cc2ccccc2O)[nH]c(N2CCOCC2)n1

>  <score_type>  (32) 
oracle

>  <origin>  (32) 
adg

>  <m_score__min__energy>  (32) 
-10.5

>  <m_primary>  (32) 
energy

$$$$
32:0
     RDKit          3D

 45 48  0  0  0  0  0  0  0  0999 V2000
   59.3390   33.5960   44.9140 O   0  0  0  0  0  0  0  0  0  0  0  0
   58.8550   32.4800   45.2610 C   0  0  0  0  0  0  0  0  0  0  0  0
   58.0770   31.7460   44.3490 C   0  0  0  0  0  0  0  0  0  0  0  0
   57.8230   32.1950   43.0400 C   0  0  0  0  0  0  0  0  0  0  0  0
   57.0430   31.4220   42.1740 C   0  0  0  0  0  0  0  0  0  0  0  0
   56.5110   30.2030   42.6050 C   0  0  0  0  0  0  0  0  0  0  0  0
   56.7590   29.7500   43.9040 C   0  0  0  0  0  0  0  0  0  0  0  0
   57.5400   30.5180   44.7760 C   0  0  0  0  0  0  0  0  0  0  0  0
   57.7930   30.0710   46.0290 N   0  0  0  0  0  0  0  0  0  0  0  0
   58.5580   30.7800   46.8970 C   0  0  0  0  0  0  0  0  0  0  0  0
   58.9020   30.0470   48.5100 S   0  0  0  0  0  0  0  0  0  0  0  0
   59.0190   28.3360   47.8780 C   0  0  0  0  0  0  0  0  0  0  0  0
   60.0370   28.2270   46.7400 C   0  0  0  0  0  0  0  0  0  0  0  0
   59.6260   27.2390   45.7940 O   0  0  0  0  0  0  0  0  0  0  0  0
   58.4690   26.4470   45.9030 C   0  0  0  0  0  0  0  0  0  0  0  0
   58.6240   25.0590   46.0110 C   0  0  0  0  0  0  0  0  0  0  0  0
   57.5050   24.2270   46.1140 C   0  0  0  0  0  0  0  0  0  0  0  0
   56.2200   24.7750   46.1120 C   0  0  0  0  0  0  0  0  0  0  0  0
   56.0520   26.1590   46.0120 C   0  0  0  0  0  0  0  0  0  0  0  0
   54.7740   26.7050   46.0120 O   0  0  0  0  0  0  0  0  0  0  0  0
   57.1690   26.9950   45.9110 C   0  0  0  0  0  0  0  0  0  0  0  0
   59.0830   31.9930   46.5230 N   0  0  0  0  0  0  0  0  0  0  0  0
   59.8900   32.7550   47.4420 C   0  0  0  0  0  0  0  0  0  0  0  0
   61.2870   32.7780   47.3020 C   0  0  0  0  0  0  0  0  0  0  0  0
   62.0700   33.5170   48.1950 C   0  0  0  0  0  0  0  0  0  0  0  0
   61.4620   34.2390   49.2270 C   0  0  0  0  0  0  0  0  0  0  0  0
   60.0710   34.2260   49.3660 C   0  0  0  0  0  0  0  0  0  0  0  0
   59.2850   33.4880   48.4760 C   0  0  0  0  0  0  0  0  0  0  0  0
   58.2381   33.1544   42.6976 H   0  0  0  0  0  0  0  0  0  0  0  0
   56.8474   31.7742   41.1504 H   0  0  0  0  0  0  0  0  0  0  0  0
   55.8964   29.5995   41.9209 H   0  0  0  0  0  0  0  0  0  0  0  0
   56.3405   28.7902   44.2411 H   0  0  0  0  0  0  0  0  0  0  0  0
   59.3279   27.6721   48.6988 H   0  0  0  0  0  0  0  0  0  0  0  0
   58.0328   28.0437   47.4882 H   0  0  0  0  0  0  0  0  0  0  0  0
   60.1199   29.2002   46.2341 H   0  0  0  0  0  0  0  0  0  0  0  0
   61.0104   27.9339   47.1603 H   0  0  0  0  0  0  0  0  0  0  0  0
   59.6329   24.6206   46.0148 H   0  0  0  0  0  0  0  0  0  0  0  0
   57.6368   23.1381   46.1968 H   0  0  0  0  0  0  0  0  0  0  0  0
   55.3412   24.1179   46.1891 H   0  0  0  0  0  0  0  0  0  0  0  0
   57.0332   28.0841   45.8375 H   0  0  0  0  0  0  0  0  0  0  0  0
   61.7665   32.2138   46.4885 H   0  0  0  0  0  0  0  0  0  0  0  0
   63.1645   33.5303   48.0855 H   0  0  0  0  0  0  0  0  0  0  0  0
   62.0790   34.8177   49.9301 H   0  0  0  0  0  0  0  0  0  0  0  0
   59.5944   34.7970   50.1765 H   0  0  0  0  0  0  0  0  0  0  0  0
   58.1905   33.4814   48.5858 H   0  0  0  0  0  0  0  0  0  0  0  0
  1  2  2  0
  2  3  1  0
  3  4  2  0
  4  5  1  0
  5  6  2  0
  6  7  1  0
  7  8  2  0
  8  9  1  0
  9 10  2  0
 10 11  1  0
 11 12  1  0
 12 13  1  0
 13 14  1  0
 14 15  1  0
 15 16  2  0
 16 17  1  0
 17 18  2  0
 18 19  1  0
 19 20  1  0
 19 21  2  0
 10 22  1  0
 22 23  1  0
 23 24  2  0
 24 25  1  0
 25 26  2  0
 26 27  1  0
 27 28  2  0
 22  2  1  0
 28 23  1  0
  8  3  1  0
 21 15  1  0
  4 29  1  0
  5 30  1  0
  6 31  1  0
  7 32  1  0
 12 33  1  0
 12 34  1  0
 13 35  1  0
 13 36  1  0
 16 37  1  0
 17 38  1  0
 18 39  1  0
 21 40  1  0
 24 41  1  0
 25 42  1  0
 26 43  1  0
 27 44  1  0
 28 45  1  0
M  CHG  1  20  -1
M  END
>  <UniqueID>  (33) 
30

>  <SMILES>  (33) 
O=c1c2ccccc2nc(SCCOc2cccc([O-])c2)n1-c1ccccc1

>  <Energy>  (33) 
56.59284430551474

>  <Genealogy>  (33) 
O=c1c2ccccc2nc(SCCOc2cccc([O-])c2)n1-c1ccccc1 (protonated)
O=c1c2ccccc2nc(SCCOc2cccc([O-])c2)n1-c1ccccc1 (3D coordinates assigned)
O=c1c2ccccc2nc(SCCOc2cccc([O-])c2)n1-c1ccccc1 (optimized conformer: 56.59284430551474 kcal/mol)

>  <smiles>  (33) 
O=c1c2ccccc2nc(SCCOc2cccc(O)c2)n1-c1ccccc1

>  <score_type>  (33) 
oracle

>  <origin>  (33) 
adg

>  <m_score__min__energy>  (33) 
-12.359999999999999

>  <m_primary>  (33) 
energy

$$$$
33:0
     RDKit          3D

 38 40  0  0  0  0  0  0  0  0999 V2000
   54.7380   30.0770   44.8870 H   0  0  0  0  0  0  0  0  0  0  0  0
   55.4860   29.3500   44.8780 N   0  0  0  0  0  0  0  0  0  0  0  0
   56.7390   29.5850   45.1210 C   0  0  0  0  0  0  0  0  0  0  0  0
   57.1350   30.8690   45.3070 N   0  0  0  0  0  0  0  0  0  0  0  0
   58.4410   31.1870   45.5040 C   0  0  0  0  0  0  0  0  0  0  0  0
   58.8500   32.5990   45.7040 C   0  0  0  0  0  0  0  0  0  0  0  0
   58.5400   33.5790   44.7400 C   0  0  0  0  0  0  0  0  0  0  0  0
   57.9897   33.2955   43.8307 H   0  0  0  0  0  0  0  0  0  0  0  0
   58.9270   34.9100   44.9310 C   0  0  0  0  0  0  0  0  0  0  0  0
   58.6812   35.6672   44.1719 H   0  0  0  0  0  0  0  0  0  0  0  0
   59.6240   35.2790   46.0820 C   0  0  0  0  0  0  0  0  0  0  0  0
   59.9261   36.3262   46.2303 H   0  0  0  0  0  0  0  0  0  0  0  0
   59.9380   34.3180   47.0460 C   0  0  0  0  0  0  0  0  0  0  0  0
   60.4885   34.6096   47.9526 H   0  0  0  0  0  0  0  0  0  0  0  0
   59.5540   32.9860   46.8610 C   0  0  0  0  0  0  0  0  0  0  0  0
   59.8037   32.2349   47.6248 H   0  0  0  0  0  0  0  0  0  0  0  0
   59.3670   30.1930   45.5040 N   0  0  0  0  0  0  0  0  0  0  0  0
   59.0100   28.9200   45.3350 N   0  0  0  0  0  0  0  0  0  0  0  0
   57.7120   28.5620   45.1550 C   0  0  0  0  0  0  0  0  0  0  0  0
   57.3930   27.1240   45.0160 C   0  0  0  0  0  0  0  0  0  0  0  0
   56.6330   26.4800   46.0000 C   0  0  0  0  0  0  0  0  0  0  0  0
   56.3005   27.0395   46.8868 H   0  0  0  0  0  0  0  0  0  0  0  0
   56.2940   25.1310   45.8630 C   0  0  0  0  0  0  0  0  0  0  0  0
   55.7070   24.6358   46.6505 H   0  0  0  0  0  0  0  0  0  0  0  0
   56.6950   24.3970   44.7280 C   0  0  0  0  0  0  0  0  0  0  0  0
   56.3450   22.9950   44.5840 N   0  0  0  0  0  0  0  0  0  0  0  0
   55.7010   22.2690   45.6860 C   0  0  0  0  0  0  0  0  0  0  0  0
   56.0567   22.6700   46.6466 H   0  0  0  0  0  0  0  0  0  0  0  0
   54.6101   22.3926   45.6185 H   0  0  0  0  0  0  0  0  0  0  0  0
   55.9538   21.2006   45.6185 H   0  0  0  0  0  0  0  0  0  0  0  0
   56.6260   22.2800   43.3330 C   0  0  0  0  0  0  0  0  0  0  0  0
   57.0194   21.2789   43.5633 H   0  0  0  0  0  0  0  0  0  0  0  0
   55.6986   22.1842   42.7492 H   0  0  0  0  0  0  0  0  0  0  0  0
   57.3705   22.8412   42.7492 H   0  0  0  0  0  0  0  0  0  0  0  0
   57.4400   25.0620   43.7310 C   0  0  0  0  0  0  0  0  0  0  0  0
   57.7590   24.5126   42.8330 H   0  0  0  0  0  0  0  0  0  0  0  0
   57.7770   26.4110   43.8720 C   0  0  0  0  0  0  0  0  0  0  0  0
   58.3478   26.9169   43.0794 H   0  0  0  0  0  0  0  0  0  0  0  0
  1  2  1  0
  2  3  2  0
  3  4  1  0
  4  5  1  0
  5  6  1  0
  6  7  2  0
  7  8  1  0
  7  9  1  0
  9 10  1  0
  9 11  2  0
 11 12  1  0
 11 13  1  0
 13 14  1  0
 13 15  2  0
 15 16  1  0
  5 17  2  0
 17 18  1  0
 18 19  2  0
 19 20  1  0
 20 21  2  0
 21 22  1  0
 21 23  1  0
 23 24  1  0
 23 25  2  0
 25 26  1  0
 26 27  1  0
 27 28  1  0
 27 29  1  0
 27 30  1  0
 26 31  1  0
 31 32  1  0
 31 33  1  0
 31 34  1  0
 25 35  1  0
 35 36  1  0
 35 37  2  0
 37 38  1  0
 19  3  1  0
 37 20  1  0
 15  6  1  0
M  CHG  1   4  -1
M  END
>  <UniqueID>  (34) 
31

>  <SMILES>  (34) 
[H]/N=c1/[n-]c(-c2ccccc2)nnc1-c1ccc(N(C)C)cc1

>  <Energy>  (34) 
53.929468846093016

>  <Genealogy>  (34) 
CN(C)c1ccc(-c2nnc(-c3ccccc3)[n-]c2=N)cc1 (protonated)
[H]/N=c1/[n-]c(-c2ccccc2)nnc1-c1ccc(N(C)C)cc1 (cis-trans isomerization)
[H]/N=c1/[n-]c(-c2ccccc2)nnc1-c1ccc(N(C)C)cc1 (3D coordinates assigned)
[H]/N=c1/[n-]c(-c2ccccc2)nnc1-c1ccc(N(C)C)cc1 (optimized conformer: 53.929468846093016 kcal/mol)

>  <smiles>  (34) 
CN(C)c1ccc(-c2nnc(-c3ccccc3)[nH]c2=N)cc1

>  <score_type>  (34) 
oracle

>  <origin>  (34) 
adg

>  <m_score__min__energy>  (34) 
-9.4700000000000006

>  <m_primary>  (34) 
energy

$$$$
34:0
     RDKit          3D

 26 27  0  0  0  0  0  0  0  0999 V2000
   55.1670   29.3440   44.9440 N   0  0  0  0  0  0  0  0  0  0  0  0
   56.6300   29.9580   44.2570 S   0  0  0  0  0  0  0  0  0  0  0  0
   56.5980   29.8280   42.7610 O   0  0  0  0  0  0  0  0  0  0  0  0
   56.7090   31.4180   44.6040 O   0  0  0  0  0  0  0  0  0  0  0  0
   58.0450   29.1190   44.9330 C   0  0  0  0  0  0  0  0  0  0  0  0
   59.2970   29.7020   44.6720 C   0  0  0  0  0  0  0  0  0  0  0  0
   60.3910   29.3570   45.3950 N   0  0  0  0  0  0  0  0  0  0  0  0
   60.3250   28.4460   46.3960 C   0  0  0  0  0  0  0  0  0  0  0  0
   59.1220   27.8070   46.6780 C   0  0  0  0  0  0  0  0  0  0  0  0
   57.9800   28.0730   45.9080 C   0  0  0  0  0  0  0  0  0  0  0  0
   56.9440   27.3070   46.1260 N   0  0  0  0  0  0  0  0  0  0  0  0
   56.6750   25.9740   45.6740 C   0  0  0  0  0  0  0  0  0  0  0  0
   57.7340   25.0840   45.4340 C   0  0  0  0  0  0  0  0  0  0  0  0
   57.4710   23.7520   45.1000 C   0  0  0  0  0  0  0  0  0  0  0  0
   56.1530   23.2930   45.0400 C   0  0  0  0  0  0  0  0  0  0  0  0
   55.0970   24.1610   45.3310 C   0  0  0  0  0  0  0  0  0  0  0  0
   55.3570   25.4940   45.6680 C   0  0  0  0  0  0  0  0  0  0  0  0
   54.3010   26.3420   45.9850 O   0  0  0  0  0  0  0  0  0  0  0  0
   55.4380   28.6020   45.6270 H   0  0  0  0  0  0  0  0  0  0  0  0
   59.3907   30.4488   43.8698 H   0  0  0  0  0  0  0  0  0  0  0  0
   61.2233   28.2116   46.9860 H   0  0  0  0  0  0  0  0  0  0  0  0
   59.0659   27.0890   47.5095 H   0  0  0  0  0  0  0  0  0  0  0  0
   58.7736   25.4356   45.5089 H   0  0  0  0  0  0  0  0  0  0  0  0
   58.3026   23.0650   44.8843 H   0  0  0  0  0  0  0  0  0  0  0  0
   55.9463   22.2485   44.7637 H   0  0  0  0  0  0  0  0  0  0  0  0
   54.0600   23.7958   45.2951 H   0  0  0  0  0  0  0  0  0  0  0  0
  1  2  1  0
  2  3  2  0
  2  4  2  0
  2  5  1  0
  5  6  2  0
  6  7  1  0
  7  8  1  0
  8  9  2  0
  9 10  1  0
 10 11  2  3
 11 12  1  0
 12 13  2  0
 13 14  1  0
 14 15  2  0
 15 16  1  0
 16 17  2  0
 17 18  1  0
 10  5  1  0
 17 12  1  0
  1 19  1  0
  6 20  1  0
  8 21  1  0
  9 22  1  0
 13 23  1  0
 14 24  1  0
 15 25  1  0
 16 26  1  0
M  CHG  3   1  -1   7  -1  18  -1
M  END
>  <UniqueID>  (35) 
32

>  <SMILES>  (35) 
[NH-]S(=O)(=O)c1c[n-]ccc1=Nc1ccccc1[O-]

>  <Energy>  (35) 
49.7441526771526

>  <Genealogy>  (35) 
[NH-]S(=O)(=O)c1c[n-]ccc1=Nc1ccccc1[O-] (protonated)
[NH-]S(=O)(=O)c1c[n-]ccc1=Nc1ccccc1[O-] (3D coordinates assigned)
[NH-]S(=O)(=O)c1c[n-]ccc1=Nc1ccccc1[O-] (optimized conformer: 49.7441526771526 kcal/mol)

>  <smiles>  (35) 
NS(=O)(=O)c1c[nH]ccc1=Nc1ccccc1O

>  <score_type>  (35) 
oracle

>  <origin>  (35) 
adg

>  <m_score__min__energy>  (35) 
-14.31

>  <m_primary>  (35) 
energy

$$$$
35:0
     RDKit          3D

 61 65  0  0  1  0  0  0  0  0999 V2000
   56.4370   22.5380   48.7700 C   0  0  0  0  0  0  0  0  0  0  0  0
   57.2190   21.8870   47.7760 O   0  0  0  0  0  0  0  0  0  0  0  0
   57.3860   22.5020   46.5480 C   0  0  0  0  0  0  0  0  0  0  0  0
   57.4790   21.6970   45.4130 C   0  0  0  0  0  0  0  0  0  0  0  0
   57.6460   22.2990   44.1870 C   0  0  0  0  0  0  0  0  0  0  0  0
   57.7180   23.6770   44.1130 C   0  0  0  0  0  0  0  0  0  0  0  0
   57.6320   24.5040   45.1990 C   0  0  0  0  0  0  0  0  0  0  0  0
   57.7020   25.9140   45.1520 N   0  0  0  0  0  0  0  0  0  0  0  0
   56.6830   26.7150   45.8520 C   0  0  0  0  0  0  0  0  0  0  0  0
   57.0450   28.1670   45.8310 C   0  0  0  0  0  0  0  0  0  0  0  0
   57.2130   28.6250   44.4040 C   0  0  0  0  0  0  0  0  0  0  0  0
   57.8750   29.8970   44.3450 N   0  0  0  0  0  0  0  0  0  0  0  0
   57.1640   31.1530   44.3920 C   0  0  0  0  0  0  0  0  0  0  0  0
   55.8870   31.1710   44.4900 O   0  0  0  0  0  0  0  0  0  0  0  0
   57.8390   32.3590   44.3300 N   0  0  0  0  0  0  0  0  0  0  0  0
   58.4510   33.0040   45.2200 C   0  0  0  0  0  0  0  0  0  0  0  0
   58.8680   34.2910   44.9210 C   0  0  0  0  0  0  0  0  0  0  0  0
   59.5400   35.0310   45.8640 C   0  0  0  0  0  0  0  0  0  0  0  0
   60.0150   36.4120   45.6140 C   0  0  0  0  0  0  0  0  0  0  0  0
   59.7620   34.4500   47.0530 N   0  0  0  0  0  0  0  0  0  0  0  0
   59.3450   33.2070   47.3070 C   0  0  0  0  0  0  0  0  0  0  0  0
   59.4860   32.4650   48.4590 C   0  0  0  0  0  0  0  0  0  0  0  0
   60.1280   32.8380   49.7160 C   0  0  0  0  0  0  0  0  0  0  0  0
   61.4770   33.1810   49.7520 C   0  0  0  0  0  0  0  0  0  0  0  0
   61.9980   33.5210   50.9910 C   0  0  0  0  0  0  0  0  0  0  0  0
   61.2170   33.5230   52.1390 C   0  0  0  0  0  0  0  0  0  0  0  0
   59.9080   33.1810   52.0450 N   0  0  0  0  0  0  0  0  0  0  0  0
   59.3460   32.8390   50.8650 C   0  0  0  0  0  0  0  0  0  0  0  0
   58.8800   31.2590   48.1830 C   0  0  0  0  0  0  0  0  0  0  0  0
   58.3890   31.2740   46.9030 N   0  0  0  0  0  0  0  0  0  0  0  0
   58.6760   32.4420   46.4000 N   0  0  0  0  0  0  0  0  0  0  0  0
   57.9690   27.6520   43.5620 C   0  0  0  0  0  0  0  0  0  0  0  0
   58.7190   26.6600   44.4580 C   0  0  0  0  0  0  0  0  0  0  0  0
   57.4630   23.8750   46.4380 C   0  0  0  0  0  0  0  0  0  0  0  0
   56.7924   22.2421   49.7681 H   0  0  0  0  0  0  0  0  0  0  0  0
   56.5316   23.6279   48.6553 H   0  0  0  0  0  0  0  0  0  0  0  0
   55.3823   22.2474   48.6553 H   0  0  0  0  0  0  0  0  0  0  0  0
   57.4200   20.6017   45.4963 H   0  0  0  0  0  0  0  0  0  0  0  0
   57.7215   21.6892   43.2746 H   0  0  0  0  0  0  0  0  0  0  0  0
   57.8524   24.1358   43.1223 H   0  0  0  0  0  0  0  0  0  0  0  0
   55.7115   26.5779   45.3546 H   0  0  0  0  0  0  0  0  0  0  0  0
   56.6269   26.3797   46.8981 H   0  0  0  0  0  0  0  0  0  0  0  0
   56.2459   28.7507   46.3113 H   0  0  0  0  0  0  0  0  0  0  0  0
   57.9884   28.3166   46.3765 H   0  0  0  0  0  0  0  0  0  0  0  0
   56.1939   28.7075   43.9983 H   0  0  0  0  0  0  0  0  0  0  0  0
   58.9070   29.9290   44.2660 H   0  0  0  0  0  0  0  0  0  0  0  0
   58.6613   34.7201   43.9295 H   0  0  0  0  0  0  0  0  0  0  0  0
   60.1895   36.9192   46.5744 H   0  0  0  0  0  0  0  0  0  0  0  0
   60.9534   36.3789   45.0410 H   0  0  0  0  0  0  0  0  0  0  0  0
   59.2548   36.9631   45.0410 H   0  0  0  0  0  0  0  0  0  0  0  0
   62.0976   33.1822   48.8438 H   0  0  0  0  0  0  0  0  0  0  0  0
   63.0601   33.7970   51.0667 H   0  0  0  0  0  0  0  0  0  0  0  0
   61.6536   33.7979   53.1105 H   0  0  0  0  0  0  0  0  0  0  0  0
   58.2820   32.5646   50.8142 H   0  0  0  0  0  0  0  0  0  0  0  0
   58.8020   30.4136   48.8824 H   0  0  0  0  0  0  0  0  0  0  0  0
   57.9040   30.4310   46.5550 H   0  0  0  0  0  0  0  0  0  0  0  0
   57.2658   27.1029   42.9186 H   0  0  0  0  0  0  0  0  0  0  0  0
   58.6936   28.1977   42.9397 H   0  0  0  0  0  0  0  0  0  0  0  0
   59.3397   25.9866   43.8486 H   0  0  0  0  0  0  0  0  0  0  0  0
   59.3927   27.1754   45.1583 H   0  0  0  0  0  0  0  0  0  0  0  0
   57.3898   24.4908   47.3465 H   0  0  0  0  0  0  0  0  0  0  0  0
  1  2  1  0
  2  3  1  0
  3  4  2  0
  4  5  1  0
  5  6  2  0
  6  7  1  0
  7  8  1  0
  8  9  1  0
  9 10  1  0
 10 11  1  0
 11 12  1  0
 12 13  1  0
 13 14  2  0
 13 15  1  0
 15 16  2  0
 16 17  1  0
 17 18  2  0
 18 19  1  0
 18 20  1  0
 20 21  2  0
 21 22  1  0
 22 23  1  0
 23 24  2  0
 24 25  1  0
 25 26  2  0
 26 27  1  0
 27 28  2  0
 22 29  2  0
 29 30  1  0
 30 31  1  0
 11 32  1  0
 32 33  1  0
  7 34  2  0
 34  3  1  0
 33  8  1  0
 31 16  1  0
 31 21  1  0
 28 23  1  0
  1 35  1  0
  1 36  1  0
  1 37  1  0
  4 38  1  0
  5 39  1  0
  6 40  1  0
  9 41  1  0
  9 42  1  0
 10 43  1  0
 10 44  1  0
 11 45  1  0
 12 46  1  0
 17 47  1  0
 19 48  1  0
 19 49  1  0
 19 50  1  0
 24 51  1  0
 25 52  1  0
 26 53  1  0
 28 54  1  0
 29 55  1  0
 30 56  1  0
 32 57  1  0
 32 58  1  0
 33 59  1  0
 33 60  1  0
 34 61  1  0
M  END
>  <smiles>  (36) 
COc1cccc(N2CCC(NC(=O)N=c3cc(C)nc4c(-c5cccnc5)c[nH]n34)CC2)c1

>  <score_type>  (36) 
oracle

>  <origin>  (36) 
adg

>  <m_score__min__energy>  (36) 
-9.2400000000000002

>  <m_primary>  (36) 
energy

$$$$
36:0
     RDKit          3D

 32 33  0  0  0  0  0  0  0  0999 V2000
   60.9190   26.3330   46.3760 C   0  0  0  0  0  0  0  0  0  0  0  0
   59.8330   27.2210   45.8470 C   0  0  0  0  0  0  0  0  0  0  0  0
   60.1470   28.4600   45.2660 C   0  0  0  0  0  0  0  0  0  0  0  0
   59.1290   29.3100   44.8240 C   0  0  0  0  0  0  0  0  0  0  0  0
   57.7860   28.9340   44.9670 C   0  0  0  0  0  0  0  0  0  0  0  0
   56.4870   30.0150   44.4670 S   0  0  0  0  0  0  0  0  0  0  0  0
   56.4990   30.1940   42.9740 O   0  0  0  0  0  0  0  0  0  0  0  0
   55.1750   29.4040   44.8650 O   0  0  0  0  0  0  0  0  0  0  0  0
   56.6550   31.5620   45.2470 N   0  0  0  0  0  0  0  0  0  0  0  0
   57.4580   32.4830   44.4400 C   0  0  0  0  0  0  0  0  0  0  0  0
   58.2930   33.3750   45.3120 C   0  0  0  0  0  0  0  0  0  0  0  0
   58.9110   34.5330   44.8440 C   0  0  0  0  0  0  0  0  0  0  0  0
   59.7120   35.2500   46.1390 S   0  0  0  0  0  0  0  0  0  0  0  0
   59.2680   34.0510   47.2310 C   0  0  0  0  0  0  0  0  0  0  0  0
   59.5920   34.0580   48.6860 C   0  0  0  0  0  0  0  0  0  0  0  0
   58.4950   33.1180   46.6340 N   0  0  0  0  0  0  0  0  0  0  0  0
   57.4710   27.7010   45.5500 C   0  0  0  0  0  0  0  0  0  0  0  0
   58.4880   26.8520   45.9950 C   0  0  0  0  0  0  0  0  0  0  0  0
   60.9013   26.3475   47.4758 H   0  0  0  0  0  0  0  0  0  0  0  0
   60.7577   25.3047   46.0202 H   0  0  0  0  0  0  0  0  0  0  0  0
   61.8948   26.6953   46.0202 H   0  0  0  0  0  0  0  0  0  0  0  0
   61.1989   28.7632   45.1581 H   0  0  0  0  0  0  0  0  0  0  0  0
   59.3823   30.2761   44.3630 H   0  0  0  0  0  0  0  0  0  0  0  0
   58.1202   31.9010   43.7821 H   0  0  0  0  0  0  0  0  0  0  0  0
   56.7786   33.1111   43.8451 H   0  0  0  0  0  0  0  0  0  0  0  0
   58.8807   34.9113   43.8115 H   0  0  0  0  0  0  0  0  0  0  0  0
   58.6596   34.0379   49.2694 H   0  0  0  0  0  0  0  0  0  0  0  0
   60.1971   33.1727   48.9312 H   0  0  0  0  0  0  0  0  0  0  0  0
   60.1583   34.9686   48.9312 H   0  0  0  0  0  0  0  0  0  0  0  0
   58.0870   32.2980   47.1380 H   0  0  0  0  0  0  0  0  0  0  0  0
   56.4188   27.3991   45.6583 H   0  0  0  0  0  0  0  0  0  0  0  0
   58.2325   25.8901   46.4634 H   0  0  0  0  0  0  0  0  0  0  0  0
  1  2  1  0
  2  3  2  0
  3  4  1  0
  4  5  2  0
  5  6  1  0
  6  7  2  0
  6  8  2  0
  6  9  1  0
  9 10  1  0
 10 11  1  0
 11 12  2  0
 12 13  1  0
 13 14  1  0
 14 15  1  0
 14 16  2  0
  5 17  1  0
 17 18  2  0
 18  2  1  0
 16 11  1  0
  1 19  1  0
  1 20  1  0
  1 21  1  0
  3 22  1  0
  4 23  1  0
 10 24  1  0
 10 25  1  0
 12 26  1  0
 15 27  1  0
 15 28  1  0
 15 29  1  0
 16 30  1  0
 17 31  1  0
 18 32  1  0
M  CHG  2   9  -1  16   1
M  END
>  <UniqueID>  (37) 
33

>  <SMILES>  (37) 
Cc1ccc(S(=O)(=O)[N-]Cc2csc(C)[nH+]2)cc1

>  <Energy>  (37) 
53.0301778668942

>  <Genealogy>  (37) 
Cc1ccc(S(=O)(=O)[N-]Cc2csc(C)[nH+]2)cc1 (protonated)
Cc1ccc(S(=O)(=O)[N-]Cc2csc(C)[nH+]2)cc1 (3D coordinates assigned)
Cc1ccc(S(=O)(=O)[N-]Cc2csc(C)[nH+]2)cc1 (optimized conformer: 53.0301778668942 kcal/mol)

>  <smiles>  (37) 
Cc1ccc(S(=O)(=O)NCc2csc(C)n2)cc1

>  <score_type>  (37) 
oracle

>  <origin>  (37) 
adg

>  <m_score__min__energy>  (37) 
-7.4400000000000004

>  <m_primary>  (37) 
energy

$$$$
37:0
     RDKit          3D

 41 43  0  0  0  0  0  0  0  0999 V2000
   56.9600   20.4400   45.0850 C   0  0  0  0  0  0  0  0  0  0  0  0
   55.8990   21.1900   44.5070 O   0  0  0  0  0  0  0  0  0  0  0  0
   56.1180   22.2380   43.6060 C   0  0  0  0  0  0  0  0  0  0  0  0
   55.9880   22.0410   42.3650 O   0  0  0  0  0  0  0  0  0  0  0  0
   56.5030   23.5750   44.1090 C   0  0  0  0  0  0  0  0  0  0  0  0
   56.0210   24.0420   45.3450 C   0  0  0  0  0  0  0  0  0  0  0  0
   56.3870   25.3060   45.8170 C   0  0  0  0  0  0  0  0  0  0  0  0
   57.2430   26.1270   45.0650 C   0  0  0  0  0  0  0  0  0  0  0  0
   57.6190   27.4320   45.5450 N   0  0  0  0  0  0  0  0  0  0  0  0
   58.8150   27.7720   46.0700 C   0  0  0  0  0  0  0  0  0  0  0  0
   58.7930   29.1020   46.4430 C   0  0  0  0  0  0  0  0  0  0  0  0
   60.0850   29.9770   47.2420 S   0  0  0  0  0  0  0  0  0  0  0  0
   60.6090   29.1880   48.4080 O   0  0  0  0  0  0  0  0  0  0  0  0
   61.2000   30.1950   46.2590 O   0  0  0  0  0  0  0  0  0  0  0  0
   59.4950   31.5120   47.7960 N   0  0  0  0  0  0  0  0  0  0  0  0
   59.1560   32.5840   46.8980 C   0  0  0  0  0  0  0  0  0  0  0  0
   57.8490   32.7040   46.3880 C   0  0  0  0  0  0  0  0  0  0  0  0
   57.5190   33.7430   45.5150 C   0  0  0  0  0  0  0  0  0  0  0  0
   58.4850   34.6810   45.1480 C   0  0  0  0  0  0  0  0  0  0  0  0
   59.7820   34.5830   45.6550 C   0  0  0  0  0  0  0  0  0  0  0  0
   60.1240   33.5430   46.5290 C   0  0  0  0  0  0  0  0  0  0  0  0
   61.9350   33.4500   47.1500 Br  0  0  0  0  0  0  0  0  0  0  0  0
   57.5410   29.6010   46.1490 C   0  0  0  0  0  0  0  0  0  0  0  0
   56.8490   28.5420   45.6000 C   0  0  0  0  0  0  0  0  0  0  0  0
   55.5190   28.5950   45.1990 O   0  0  0  0  0  0  0  0  0  0  0  0
   57.7170   25.6640   43.8270 C   0  0  0  0  0  0  0  0  0  0  0  0
   57.3530   24.4000   43.3550 C   0  0  0  0  0  0  0  0  0  0  0  0
   56.8894   20.4899   46.1816 H   0  0  0  0  0  0  0  0  0  0  0  0
   56.8872   19.3916   44.7602 H   0  0  0  0  0  0  0  0  0  0  0  0
   57.9241   20.8584   44.7602 H   0  0  0  0  0  0  0  0  0  0  0  0
   55.3512   23.4081   45.9446 H   0  0  0  0  0  0  0  0  0  0  0  0
   56.0017   25.6601   46.7845 H   0  0  0  0  0  0  0  0  0  0  0  0
   59.6744   27.0948   46.1834 H   0  0  0  0  0  0  0  0  0  0  0  0
   59.5110   31.6770   48.8260 H   0  0  0  0  0  0  0  0  0  0  0  0
   57.0809   31.9727   46.6799 H   0  0  0  0  0  0  0  0  0  0  0  0
   56.4968   33.8221   45.1163 H   0  0  0  0  0  0  0  0  0  0  0  0
   58.2243   35.4979   44.4590 H   0  0  0  0  0  0  0  0  0  0  0  0
   60.5396   35.3265   45.3666 H   0  0  0  0  0  0  0  0  0  0  0  0
   57.1735   30.6242   46.3165 H   0  0  0  0  0  0  0  0  0  0  0  0
   58.3802   26.3014   43.2238 H   0  0  0  0  0  0  0  0  0  0  0  0
   57.7353   24.0486   42.3853 H   0  0  0  0  0  0  0  0  0  0  0  0
  1  2  1  0
  2  3  1  0
  3  4  2  0
  3  5  1  0
  5  6  2  0
  6  7  1  0
  7  8  2  0
  8  9  1  0
  9 10  1  0
 10 11  2  0
 11 12  1  0
 12 13  2  0
 12 14  2  0
 12 15  1  0
 15 16  1  0
 16 17  2  0
 17 18  1  0
 18 19  2  0
 19 20  1  0
 20 21  2  0
 21 22  1  0
 11 23  1  0
 23 24  2  0
 24 25  1  0
  8 26  1  0
 26 27  2  0
 27  5  1  0
 24  9  1  0
 21 16  1  0
  1 28  1  0
  1 29  1  0
  1 30  1  0
  6 31  1  0
  7 32  1  0
 10 33  1  0
 15 34  1  0
 17 35  1  0
 18 36  1  0
 19 37  1  0
 20 38  1  0
 23 39  1  0
 26 40  1  0
 27 41  1  0
M  CHG  1  25  -1
M  END
>  <UniqueID>  (38) 
34

>  <SMILES>  (38) 
COC(=O)c1ccc(-n2cc(S(=O)(=O)Nc3ccccc3Br)cc2[O-])cc1

>  <Energy>  (38) 
77.91412443262915

>  <Genealogy>  (38) 
COC(=O)c1ccc(-n2cc(S(=O)(=O)Nc3ccccc3Br)cc2[O-])cc1 (protonated)
COC(=O)c1ccc(-n2cc(S(=O)(=O)Nc3ccccc3Br)cc2[O-])cc1 (3D coordinates assigned)
COC(=O)c1ccc(-n2cc(S(=O)(=O)Nc3ccccc3Br)cc2[O-])cc1 (optimized conformer: 77.91412443262915 kcal/mol)

>  <smiles>  (38) 
COC(=O)c1ccc(-n2cc(S(=O)(=O)Nc3ccccc3Br)cc2O)cc1

>  <score_type>  (38) 
oracle

>  <origin>  (38) 
adg

>  <m_score__min__energy>  (38) 
-11.550000000000001

>  <m_primary>  (38) 
energy

$$$$
38:0
     RDKit          3D

 40 43  0  0  0  0  0  0  0  0999 V2000
   61.5850   29.9580   50.1590 C   0  0  0  0  0  0  0  0  0  0  0  0
   61.0880   30.6740   48.9890 N   0  0  0  0  0  0  0  0  0  0  0  0
   59.8950   30.4800   48.3790 C   0  0  0  0  0  0  0  0  0  0  0  0
   59.7500   31.3670   47.3160 C   0  0  0  0  0  0  0  0  0  0  0  0
   58.5960   31.4560   46.4000 C   0  0  0  0  0  0  0  0  0  0  0  0
   58.0420   30.4540   45.7120 C   0  0  0  0  0  0  0  0  0  0  0  0
   58.3620   29.0120   45.8150 C   0  0  0  0  0  0  0  0  0  0  0  0
   59.6960   28.5720   45.8150 C   0  0  0  0  0  0  0  0  0  0  0  0
   59.9890   27.2090   45.9090 C   0  0  0  0  0  0  0  0  0  0  0  0
   58.9550   26.2760   46.0160 C   0  0  0  0  0  0  0  0  0  0  0  0
   57.6220   26.7030   46.0380 C   0  0  0  0  0  0  0  0  0  0  0  0
   56.3190   25.5250   46.1580 S   0  0  0  0  0  0  0  0  0  0  0  0
   54.8000   26.3210   45.9470 N   0  0  0  0  0  0  0  0  0  0  0  0
   56.3530   24.8640   47.5080 O   0  0  0  0  0  0  0  0  0  0  0  0
   56.4850   24.4700   45.1010 O   0  0  0  0  0  0  0  0  0  0  0  0
   57.3280   28.0700   45.9350 C   0  0  0  0  0  0  0  0  0  0  0  0
   57.0170   31.0390   44.8430 C   0  0  0  0  0  0  0  0  0  0  0  0
   56.2660   30.3880   44.0710 O   0  0  0  0  0  0  0  0  0  0  0  0
   56.9390   32.4510   44.9910 N   0  0  0  0  0  0  0  0  0  0  0  0
   57.9450   32.6930   45.9670 C   0  0  0  0  0  0  0  0  0  0  0  0
   58.2580   33.8490   46.3540 O   0  0  0  0  0  0  0  0  0  0  0  0
   60.9070   32.1270   47.2980 C   0  0  0  0  0  0  0  0  0  0  0  0
   61.2920   33.2010   46.4930 C   0  0  0  0  0  0  0  0  0  0  0  0
   62.5370   33.8030   46.7490 C   0  0  0  0  0  0  0  0  0  0  0  0
   63.3560   33.3340   47.8000 C   0  0  0  0  0  0  0  0  0  0  0  0
   62.9350   32.2640   48.6080 C   0  0  0  0  0  0  0  0  0  0  0  0
   61.6960   31.6800   48.3300 C   0  0  0  0  0  0  0  0  0  0  0  0
   61.2357   30.4613   51.0726 H   0  0  0  0  0  0  0  0  0  0  0  0
   61.2092   28.9243   50.1433 H   0  0  0  0  0  0  0  0  0  0  0  0
   62.6848   29.9486   50.1433 H   0  0  0  0  0  0  0  0  0  0  0  0
   59.1485   29.7302   48.6798 H   0  0  0  0  0  0  0  0  0  0  0  0
   60.5138   29.3039   45.7406 H   0  0  0  0  0  0  0  0  0  0  0  0
   61.0355   26.8702   45.8987 H   0  0  0  0  0  0  0  0  0  0  0  0
   59.1887   25.2032   46.0831 H   0  0  0  0  0  0  0  0  0  0  0  0
   54.7600   27.0910   46.6520 H   0  0  0  0  0  0  0  0  0  0  0  0
   56.2808   28.4065   45.9483 H   0  0  0  0  0  0  0  0  0  0  0  0
   60.6418   33.5649   45.6838 H   0  0  0  0  0  0  0  0  0  0  0  0
   62.8752   34.6446   46.1267 H   0  0  0  0  0  0  0  0  0  0  0  0
   64.3300   33.8096   47.9873 H   0  0  0  0  0  0  0  0  0  0  0  0
   63.5617   31.8972   49.4343 H   0  0  0  0  0  0  0  0  0  0  0  0
  1  2  1  0
  2  3  1  0
  3  4  2  0
  4  5  1  0
  5  6  2  0
  6  7  1  0
  7  8  2  0
  8  9  1  0
  9 10  2  0
 10 11  1  0
 11 12  1  0
 12 13  1  0
 12 14  2  0
 12 15  2  0
 11 16  2  0
  6 17  1  0
 17 18  2  0
 17 19  1  0
 19 20  1  0
 20 21  2  0
  4 22  1  0
 22 23  2  0
 23 24  1  0
 24 25  2  0
 25 26  1  0
 26 27  2  0
 27  2  1  0
 20  5  1  0
 27 22  1  0
 16  7  1  0
  1 28  1  0
  1 29  1  0
  1 30  1  0
  3 31  1  0
  8 32  1  0
  9 33  1  0
 10 34  1  0
 13 35  1  0
 16 36  1  0
 23 37  1  0
 24 38  1  0
 25 39  1  0
 26 40  1  0
M  CHG  2  13  -1  19  -1
M  END
>  <UniqueID>  (39) 
35

>  <SMILES>  (39) 
Cn1cc(C2=C(c3cccc(S([NH-])(=O)=O)c3)C(=O)[N-]C2=O)c2ccccc21

>  <Energy>  (39) 
110.37504104080419

>  <Genealogy>  (39) 
Cn1cc(C2=C(c3cccc(S([NH-])(=O)=O)c3)C(=O)[N-]C2=O)c2ccccc21 (protonated)
Cn1cc(C2=C(c3cccc(S([NH-])(=O)=O)c3)C(=O)[N-]C2=O)c2ccccc21 (3D coordinates assigned)
Cn1cc(C2=C(c3cccc(S([NH-])(=O)=O)c3)C(=O)[N-]C2=O)c2ccccc21 (nonaromatic ring conformer: 110.37504104080419 kcal/mol)

>  <smiles>  (39) 
Cn1cc(C2=C(c3cccc(S(N)(=O)=O)c3)C(=O)NC2=O)c2ccccc21

>  <score_type>  (39) 
oracle

>  <origin>  (39) 
adg

>  <m_score__min__energy>  (39) 
-13.73

>  <m_primary>  (39) 
energy

$$$$
39:0
     RDKit          3D

 24 25  0  0  0  0  0  0  0  0999 V2000
   57.5020   22.8240   48.8830 H   0  0  0  0  0  0  0  0  0  0  0  0
   57.0290   22.9660   47.9620 N   0  0  0  0  0  0  0  0  0  0  0  0
   57.2110   24.0430   47.2680 C   0  0  0  0  0  0  0  0  0  0  0  0
   56.1540   24.8360   46.9670 N   0  0  0  0  0  0  0  0  0  0  0  0
   56.3000   25.9720   46.2370 C   0  0  0  0  0  0  0  0  0  0  0  0
   55.1520   26.7100   45.9420 O   0  0  0  0  0  0  0  0  0  0  0  0
   55.1450   27.5220   45.3400 H   0  0  0  0  0  0  0  0  0  0  0  0
   57.5860   26.3550   45.7870 C   0  0  0  0  0  0  0  0  0  0  0  0
   57.7930   27.6180   45.0360 C   0  0  0  0  0  0  0  0  0  0  0  0
   58.6367   27.7011   44.3351 H   0  0  0  0  0  0  0  0  0  0  0  0
   56.9900   28.6270   45.1960 N   0  0  0  0  0  0  0  0  0  0  0  0
   57.1910   29.9670   44.7140 C   0  0  0  0  0  0  0  0  0  0  0  0
   57.4120   30.9530   45.6250 N   0  0  0  0  0  0  0  0  0  0  0  0
   57.6240   32.2460   45.2610 C   0  0  0  0  0  0  0  0  0  0  0  0
   57.7946   33.0133   46.0305 H   0  0  0  0  0  0  0  0  0  0  0  0
   57.6250   32.5990   43.9110 C   0  0  0  0  0  0  0  0  0  0  0  0
   57.7888   33.6441   43.6094 H   0  0  0  0  0  0  0  0  0  0  0  0
   57.4160   31.6120   42.9490 C   0  0  0  0  0  0  0  0  0  0  0  0
   57.4204   31.8753   41.8810 H   0  0  0  0  0  0  0  0  0  0  0  0
   57.2010   30.2890   43.3410 C   0  0  0  0  0  0  0  0  0  0  0  0
   57.0409   29.5053   42.5859 H   0  0  0  0  0  0  0  0  0  0  0  0
   58.6670   25.5050   46.1110 C   0  0  0  0  0  0  0  0  0  0  0  0
   59.8420   25.7820   45.7540 O   0  0  0  0  0  0  0  0  0  0  0  0
   58.4520   24.3780   46.8370 N   0  0  0  0  0  0  0  0  0  0  0  0
  1  2  1  0
  2  3  2  0
  3  4  1  0
  4  5  1  0
  5  6  1  0
  6  7  1  0
  5  8  2  0
  8  9  1  0
  9 10  1  0
  9 11  2  0
 11 12  1  0
 12 13  2  0
 13 14  1  0
 14 15  1  0
 14 16  2  0
 16 17  1  0
 16 18  1  0
 18 19  1  0
 18 20  2  0
 20 21  1  0
  8 22  1  0
 22 23  2  0
 22 24  1  0
 24  3  1  0
 20 12  1  0
M  CHG  2   4  -1  24  -1
M  END
>  <UniqueID>  (40) 
36

>  <SMILES>  (40) 
[H]/N=c1/[n-]c(O)c(/C=N/c2ccccn2)c(=O)[n-]1

>  <Energy>  (40) 
34.288725355203134

>  <Genealogy>  (40) 
N=c1[n-]c(O)c(C=Nc2ccccn2)c(=O)[n-]1 (protonated)
[H]/N=c1/[n-]c(O)c(/C=N/c2ccccn2)c(=O)[n-]1 (cis-trans isomerization)
[H]/N=c1/[n-]c(O)c(/C=N/c2ccccn2)c(=O)[n-]1 (3D coordinates assigned)
[H]/N=c1/[n-]c(O)c(/C=N/c2ccccn2)c(=O)[n-]1 (optimized conformer: 34.288725355203134 kcal/mol)

>  <smiles>  (40) 
N=c1[nH]c(O)c(C=Nc2ccccn2)c(=O)[nH]1

>  <score_type>  (40) 
oracle

>  <origin>  (40) 
adg

>  <m_score__min__energy>  (40) 
-10.41

>  <m_primary>  (40) 
energy

$$$$
40:0
     RDKit          3D

 41 43  0  0  0  0  0  0  0  0999 V2000
   64.6839   33.1139   46.4732 H   0  0  0  0  0  0  0  0  0  0  0  0
   63.7610   33.3120   47.0380 C   0  0  0  0  0  0  0  0  0  0  0  0
   62.5990   33.7370   46.5150 N   0  0  0  0  0  0  0  0  0  0  0  0
   61.7790   33.8440   47.5840 C   0  0  0  0  0  0  0  0  0  0  0  0
   60.3280   34.2140   47.4630 C   0  0  0  0  0  0  0  0  0  0  0  0
   60.1470   35.1351   48.0365 H   0  0  0  0  0  0  0  0  0  0  0  0
   59.7297   33.3783   47.8549 H   0  0  0  0  0  0  0  0  0  0  0  0
   59.9330   34.4400   46.0630 N   0  0  0  0  0  0  0  0  0  0  0  0
   59.4920   35.3860   45.9690 H   0  0  0  0  0  0  0  0  0  0  0  0
   60.7930   34.4360   45.4660 H   0  0  0  0  0  0  0  0  0  0  0  0
   59.0310   33.4110   45.5990 C   0  0  0  0  0  0  0  0  0  0  0  0
   58.5240   33.4490   44.2890 C   0  0  0  0  0  0  0  0  0  0  0  0
   58.7503   34.3076   43.6397 H   0  0  0  0  0  0  0  0  0  0  0  0
   57.7330   32.4010   43.8060 C   0  0  0  0  0  0  0  0  0  0  0  0
   57.3377   32.4396   42.7802 H   0  0  0  0  0  0  0  0  0  0  0  0
   57.4430   31.3020   44.6260 C   0  0  0  0  0  0  0  0  0  0  0  0
   56.5520   29.9210   43.9980 S   0  0  0  0  0  0  0  0  0  0  0  0
   55.3410   29.6880   44.8570 O   0  0  0  0  0  0  0  0  0  0  0  0
   56.1120   30.1700   42.5820 O   0  0  0  0  0  0  0  0  0  0  0  0
   57.5640   28.5110   44.0380 N   0  0  0  0  0  0  0  0  0  0  0  0
   57.7250   27.7680   45.0910 C   0  0  0  0  0  0  0  0  0  0  0  0
   56.6770   27.0840   45.6330 N   0  0  0  0  0  0  0  0  0  0  0  0
   56.8240   26.2880   46.7250 C   0  0  0  0  0  0  0  0  0  0  0  0
   55.9553   25.7530   47.1362 H   0  0  0  0  0  0  0  0  0  0  0  0
   58.0770   26.1490   47.3250 C   0  0  0  0  0  0  0  0  0  0  0  0
   58.1989   25.5118   48.2134 H   0  0  0  0  0  0  0  0  0  0  0  0
   59.1780   26.8280   46.7860 C   0  0  0  0  0  0  0  0  0  0  0  0
   60.5250   26.7220   47.4380 C   0  0  0  0  0  0  0  0  0  0  0  0
   60.4049   26.7315   48.5314 H   0  0  0  0  0  0  0  0  0  0  0  0
   61.0084   25.7830   47.1303 H   0  0  0  0  0  0  0  0  0  0  0  0
   61.1493   27.5738   47.1303 H   0  0  0  0  0  0  0  0  0  0  0  0
   58.9950   27.6580   45.6710 C   0  0  0  0  0  0  0  0  0  0  0  0
   59.8440   28.2196   45.2541 H   0  0  0  0  0  0  0  0  0  0  0  0
   57.9250   31.2730   45.9410 C   0  0  0  0  0  0  0  0  0  0  0  0
   57.6801   30.4236   46.5956 H   0  0  0  0  0  0  0  0  0  0  0  0
   58.7150   32.3180   46.4240 C   0  0  0  0  0  0  0  0  0  0  0  0
   59.0924   32.2856   47.4567 H   0  0  0  0  0  0  0  0  0  0  0  0
   62.3530   33.4920   48.7540 N   0  0  0  0  0  0  0  0  0  0  0  0
   63.6060   33.1660   48.3930 C   0  0  0  0  0  0  0  0  0  0  0  0
   64.6130   32.7080   49.3110 C   0  0  0  0  0  0  0  0  0  0  0  0
   65.4240   32.3400   50.0480 N   0  0  0  0  0  0  0  0  0  0  0  0
  1  2  1  0
  2  3  1  0
  3  4  1  0
  4  5  1  0
  5  6  1  0
  5  7  1  0
  5  8  1  0
  8  9  1  0
  8 10  1  0
  8 11  1  0
 11 12  2  0
 12 13  1  0
 12 14  1  0
 14 15  1  0
 14 16  2  0
 16 17  1  0
 17 18  2  0
 17 19  2  0
 17 20  1  0
 20 21  2  0
 21 22  1  0
 22 23  1  0
 23 24  1  0
 23 25  2  0
 25 26  1  0
 25 27  1  0
 27 28  1  0
 28 29  1  0
 28 30  1  0
 28 31  1  0
 27 32  2  0
 32 33  1  0
 16 34  1  0
 34 35  1  0
 34 36  2  0
 36 37  1  0
  4 38  2  0
 38 39  1  0
 39 40  1  0
 40 41  3  0
 39  2  2  0
 36 11  1  0
 32 21  1  0
M  CHG  3   3  -1   8   1  22  -1
M  END
>  <UniqueID>  (41) 
37

>  <SMILES>  (41) 
Cc1cc[n-]/c(=N\S(=O)(=O)c2ccc([NH2+]Cc3nc(C#N)c[n-]3)cc2)c1

>  <Energy>  (41) 
71.26155385149015

>  <Genealogy>  (41) 
Cc1cc[n-]c(=NS(=O)(=O)c2ccc([NH2+]Cc3nc(C#N)c[n-]3)cc2)c1 (protonated)
Cc1cc[n-]/c(=N\S(=O)(=O)c2ccc([NH2+]Cc3nc(C#N)c[n-]3)cc2)c1 (cis-trans isomerization)
Cc1cc[n-]/c(=N\S(=O)(=O)c2ccc([NH2+]Cc3nc(C#N)c[n-]3)cc2)c1 (3D coordinates assigned)
Cc1cc[n-]/c(=N\S(=O)(=O)c2ccc([NH2+]Cc3nc(C#N)c[n-]3)cc2)c1 (optimized conformer: 71.26155385149015 kcal/mol)

>  <smiles>  (41) 
Cc1cc[nH]c(=NS(=O)(=O)c2ccc(NCc3nc(C#N)c[nH]3)cc2)c1

>  <score_type>  (41) 
oracle

>  <origin>  (41) 
adg

>  <m_score__min__energy>  (41) 
-9.4499999999999993

>  <m_primary>  (41) 
energy

$$$$
41:0
     RDKit          3D

 52 55  0  0  0  0  0  0  0  0999 V2000
   57.7940   21.1050   42.8620 C   0  0  0  0  0  0  0  0  0  0  0  0
   57.5930   22.2700   43.7850 C   0  0  0  0  0  0  0  0  0  0  0  0
   58.5220   22.5270   44.8050 C   0  0  0  0  0  0  0  0  0  0  0  0
   58.3210   23.5910   45.6890 C   0  0  0  0  0  0  0  0  0  0  0  0
   57.1870   24.4070   45.5660 C   0  0  0  0  0  0  0  0  0  0  0  0
   56.9230   25.7070   46.7200 S   0  0  0  0  0  0  0  0  0  0  0  0
   55.5320   26.2470   46.5430 O   0  0  0  0  0  0  0  0  0  0  0  0
   57.0680   25.2090   48.1290 O   0  0  0  0  0  0  0  0  0  0  0  0
   58.0950   26.9870   46.4390 C   0  0  0  0  0  0  0  0  0  0  0  0
   58.7850   27.6070   47.4120 N   0  0  0  0  0  0  0  0  0  0  0  0
   59.5380   28.5180   46.7640 C   0  0  0  0  0  0  0  0  0  0  0  0
   60.4320   29.4670   47.4310 C   0  0  0  0  0  0  0  0  0  0  0  0
   61.1210   30.4890   46.8160 C   0  0  0  0  0  0  0  0  0  0  0  0
   61.8050   31.1340   47.8230 C   0  0  0  0  0  0  0  0  0  0  0  0
   61.4870   30.4680   48.9890 C   0  0  0  0  0  0  0  0  0  0  0  0
   60.6670   29.4780   48.7220 O   0  0  0  0  0  0  0  0  0  0  0  0
   59.3440   28.4850   45.4630 O   0  0  0  0  0  0  0  0  0  0  0  0
   58.4450   27.5590   45.2310 C   0  0  0  0  0  0  0  0  0  0  0  0
   57.7820   27.1900   43.6040 S   0  0  0  0  0  0  0  0  0  0  0  0
   57.1740   28.8820   43.2580 C   0  0  0  0  0  0  0  0  0  0  0  0
   56.3950   29.4390   44.4080 C   0  0  0  0  0  0  0  0  0  0  0  0
   55.8510   28.6570   45.2320 O   0  0  0  0  0  0  0  0  0  0  0  0
   56.3000   30.8630   44.5540 N   0  0  0  0  0  0  0  0  0  0  0  0
   57.3330   31.8120   44.8730 C   0  0  0  0  0  0  0  0  0  0  0  0
   57.6970   32.1070   46.2020 C   0  0  0  0  0  0  0  0  0  0  0  0
   58.6680   33.0750   46.4700 C   0  0  0  0  0  0  0  0  0  0  0  0
   59.2680   33.7770   45.4270 C   0  0  0  0  0  0  0  0  0  0  0  0
   58.8970   33.5170   44.1070 C   0  0  0  0  0  0  0  0  0  0  0  0
   57.9380   32.5320   43.8190 C   0  0  0  0  0  0  0  0  0  0  0  0
   57.5090   32.3030   42.3970 C   0  0  0  0  0  0  0  0  0  0  0  0
   56.2510   24.1430   44.5590 C   0  0  0  0  0  0  0  0  0  0  0  0
   56.4500   23.0790   43.6750 C   0  0  0  0  0  0  0  0  0  0  0  0
   57.9516   20.1913   43.4538 H   0  0  0  0  0  0  0  0  0  0  0  0
   56.9038   20.9820   42.2276 H   0  0  0  0  0  0  0  0  0  0  0  0
   58.6740   21.2874   42.2276 H   0  0  0  0  0  0  0  0  0  0  0  0
   59.4118   21.8887   44.9093 H   0  0  0  0  0  0  0  0  0  0  0  0
   59.0550   23.7890   46.4840 H   0  0  0  0  0  0  0  0  0  0  0  0
   58.7320   27.4340   48.4420 H   0  0  0  0  0  0  0  0  0  0  0  0
   61.1244   30.7381   45.7446 H   0  0  0  0  0  0  0  0  0  0  0  0
   62.4701   32.0039   47.7187 H   0  0  0  0  0  0  0  0  0  0  0  0
   61.8632   30.7271   49.9897 H   0  0  0  0  0  0  0  0  0  0  0  0
   58.0358   29.5367   43.0614 H   0  0  0  0  0  0  0  0  0  0  0  0
   56.5068   28.8335   42.3848 H   0  0  0  0  0  0  0  0  0  0  0  0
   57.2139   31.5721   47.0330 H   0  0  0  0  0  0  0  0  0  0  0  0
   58.9602   33.2839   47.5097 H   0  0  0  0  0  0  0  0  0  0  0  0
   60.0340   34.5361   45.6438 H   0  0  0  0  0  0  0  0  0  0  0  0
   59.3584   34.0870   43.2871 H   0  0  0  0  0  0  0  0  0  0  0  0
   56.5386   31.7850   42.3856 H   0  0  0  0  0  0  0  0  0  0  0  0
   57.4142   33.2705   41.8823 H   0  0  0  0  0  0  0  0  0  0  0  0
   58.2601   31.6859   41.8823 H   0  0  0  0  0  0  0  0  0  0  0  0
   55.3559   24.7752   44.4632 H   0  0  0  0  0  0  0  0  0  0  0  0
   55.7079   22.8741   42.8893 H   0  0  0  0  0  0  0  0  0  0  0  0
  1  2  1  0
  2  3  2  0
  3  4  1  0
  4  5  2  0
  5  6  1  0
  6  7  2  0
  6  8  2  0
  6  9  1  0
  9 10  1  0
 10 11  2  0
 11 12  1  0
 12 13  2  0
 13 14  1  0
 14 15  2  0
 15 16  1  0
 11 17  1  0
 17 18  1  0
 18 19  1  0
 19 20  1  0
 20 21  1  0
 21 22  2  0
 21 23  1  0
 23 24  1  0
 24 25  2  0
 25 26  1  0
 26 27  2  0
 27 28  1  0
 28 29  2  0
 29 30  1  0
  5 31  1  0
 31 32  2  0
 32  2  1  0
 18  9  2  0
 29 24  1  0
 16 12  1  0
  1 33  1  0
  1 34  1  0
  1 35  1  0
  3 36  1  0
  4 37  1  0
 10 38  1  0
 13 39  1  0
 14 40  1  0
 15 41  1  0
 20 42  1  0
 20 43  1  0
 25 44  1  0
 26 45  1  0
 27 46  1  0
 28 47  1  0
 30 48  1  0
 30 49  1  0
 30 50  1  0
 31 51  1  0
 32 52  1  0
M  CHG  2  10   1  23  -1
M  END
>  <UniqueID>  (42) 
38

>  <SMILES>  (42) 
Cc1ccc(S(=O)(=O)c2[nH+]c(-c3ccco3)oc2SCC(=O)[N-]c2ccccc2C)cc1

>  <Energy>  (42) 
105.43423556847173

>  <Genealogy>  (42) 
Cc1ccc(S(=O)(=O)c2[nH+]c(-c3ccco3)oc2SCC(=O)[N-]c2ccccc2C)cc1 (protonated)
Cc1ccc(S(=O)(=O)c2[nH+]c(-c3ccco3)oc2SCC(=O)[N-]c2ccccc2C)cc1 (3D coordinates assigned)
Cc1ccc(S(=O)(=O)c2[nH+]c(-c3ccco3)oc2SCC(=O)[N-]c2ccccc2C)cc1 (optimized conformer: 105.43423556847173 kcal/mol)

>  <smiles>  (42) 
Cc1ccc(S(=O)(=O)c2nc(-c3ccco3)oc2SCC(=O)Nc2ccccc2C)cc1

>  <score_type>  (42) 
oracle

>  <origin>  (42) 
adg

>  <m_score__min__energy>  (42) 
-9.1099999999999994

>  <m_primary>  (42) 
energy

$$$$
42:0
     RDKit          3D

 43 45  0  0  0  0  0  0  0  0999 V2000
   55.5580   29.0710   44.8790 O   0  0  0  0  0  0  0  0  0  0  0  0
   56.4090   29.8250   44.3370 C   0  0  0  0  0  0  0  0  0  0  0  0
   56.2730   31.2420   44.4930 N   0  0  0  0  0  0  0  0  0  0  0  0
   57.3080   32.1380   44.9140 C   0  0  0  0  0  0  0  0  0  0  0  0
   57.9190   32.9650   43.9650 C   0  0  0  0  0  0  0  0  0  0  0  0
   58.9240   33.8550   44.3480 C   0  0  0  0  0  0  0  0  0  0  0  0
   59.3500   33.9000   45.6770 C   0  0  0  0  0  0  0  0  0  0  0  0
   58.7950   33.0330   46.6270 C   0  0  0  0  0  0  0  0  0  0  0  0
   59.2790   33.0850   47.9750 N   0  0  0  0  0  0  0  0  0  0  0  0
   60.4500   33.7820   48.4110 C   0  0  0  0  0  0  0  0  0  0  0  0
   60.3930   34.5960   49.3720 O   0  0  0  0  0  0  0  0  0  0  0  0
   61.7380   33.4970   47.7690 C   0  0  0  0  0  0  0  0  0  0  0  0
   62.6580   32.5500   48.1760 C   0  0  0  0  0  0  0  0  0  0  0  0
   63.7030   32.6410   47.2800 C   0  0  0  0  0  0  0  0  0  0  0  0
   63.3560   33.6340   46.3860 C   0  0  0  0  0  0  0  0  0  0  0  0
   62.1790   34.1240   46.7030 O   0  0  0  0  0  0  0  0  0  0  0  0
   57.7580   32.1610   46.2450 C   0  0  0  0  0  0  0  0  0  0  0  0
   57.5390   29.2610   43.6530 N   0  0  0  0  0  0  0  0  0  0  0  0
   57.8150   27.8240   43.6530 C   0  0  0  0  0  0  0  0  0  0  0  0
   59.1770   27.5140   44.2820 C   0  0  0  0  0  0  0  0  0  0  0  0
   59.4240   28.3440   45.5150 C   0  0  0  0  0  0  0  0  0  0  0  0
   58.6380   28.1550   46.6630 C   0  0  0  0  0  0  0  0  0  0  0  0
   58.8710   28.9190   47.8100 C   0  0  0  0  0  0  0  0  0  0  0  0
   59.8900   29.8740   47.8210 C   0  0  0  0  0  0  0  0  0  0  0  0
   60.1240   30.6040   48.9400 F   0  0  0  0  0  0  0  0  0  0  0  0
   60.6750   30.0710   46.6800 C   0  0  0  0  0  0  0  0  0  0  0  0
   60.4370   29.3180   45.5270 C   0  0  0  0  0  0  0  0  0  0  0  0
   57.6058   32.9136   42.9118 H   0  0  0  0  0  0  0  0  0  0  0  0
   59.3809   34.5217   43.6019 H   0  0  0  0  0  0  0  0  0  0  0  0
   60.1250   34.6196   45.9794 H   0  0  0  0  0  0  0  0  0  0  0  0
   62.5747   31.8670   49.0342 H   0  0  0  0  0  0  0  0  0  0  0  0
   64.6263   32.0431   47.2783 H   0  0  0  0  0  0  0  0  0  0  0  0
   63.9718   33.9649   45.5367 H   0  0  0  0  0  0  0  0  0  0  0  0
   57.2985   31.4956   46.9907 H   0  0  0  0  0  0  0  0  0  0  0  0
   58.2830   29.8940   43.2850 H   0  0  0  0  0  0  0  0  0  0  0  0
   57.0306   27.3094   44.2273 H   0  0  0  0  0  0  0  0  0  0  0  0
   57.8291   27.4752   42.6098 H   0  0  0  0  0  0  0  0  0  0  0  0
   59.2086   26.4494   44.5569 H   0  0  0  0  0  0  0  0  0  0  0  0
   59.9574   27.7545   43.5451 H   0  0  0  0  0  0  0  0  0  0  0  0
   57.8356   27.4026   46.6597 H   0  0  0  0  0  0  0  0  0  0  0  0
   58.2506   28.7678   48.7057 H   0  0  0  0  0  0  0  0  0  0  0  0
   61.4808   30.8197   46.6903 H   0  0  0  0  0  0  0  0  0  0  0  0
   61.0445   29.4882   44.6259 H   0  0  0  0  0  0  0  0  0  0  0  0
  1  2  2  0
  2  3  1  0
  3  4  1  0
  4  5  2  0
  5  6  1  0
  6  7  2  0
  7  8  1  0
  8  9  1  0
  9 10  1  0
 10 11  2  0
 10 12  1  0
 12 13  2  0
 13 14  1  0
 14 15  2  0
 15 16  1  0
  8 17  2  0
  2 18  1  0
 18 19  1  0
 19 20  1  0
 20 21  1  0
 21 22  2  0
 22 23  1  0
 23 24  2  0
 24 25  1  0
 24 26  1  0
 26 27  2  0
 17  4  1  0
 27 21  1  0
 16 12  1  0
  5 28  1  0
  6 29  1  0
  7 30  1  0
 13 31  1  0
 14 32  1  0
 15 33  1  0
 17 34  1  0
 18 35  1  0
 19 36  1  0
 19 37  1  0
 20 38  1  0
 20 39  1  0
 22 40  1  0
 23 41  1  0
 26 42  1  0
 27 43  1  0
M  CHG  2   3  -1   9  -1
M  END
>  <UniqueID>  (43) 
39

>  <SMILES>  (43) 
O=C([N-]c1cccc([N-]C(=O)c2ccco2)c1)NCCc1ccc(F)cc1

>  <Energy>  (43) 
70.1303405297173

>  <Genealogy>  (43) 
O=C([N-]c1cccc([N-]C(=O)c2ccco2)c1)NCCc1ccc(F)cc1 (protonated)
O=C([N-]c1cccc([N-]C(=O)c2ccco2)c1)NCCc1ccc(F)cc1 (3D coordinates assigned)
O=C([N-]c1cccc([N-]C(=O)c2ccco2)c1)NCCc1ccc(F)cc1 (optimized conformer: 70.1303405297173 kcal/mol)

>  <smiles>  (43) 
O=C(NCCc1ccc(F)cc1)Nc1cccc(NC(=O)c2ccco2)c1

>  <score_type>  (43) 
oracle

>  <origin>  (43) 
adg

>  <m_score__min__energy>  (43) 
-11.51

>  <m_primary>  (43) 
energy

$$$$
43:0
     RDKit          3D

 38 41  0  0  0  0  0  0  0  0999 V2000
   55.5670   29.5330   44.8760 O   0  0  0  0  0  0  0  0  0  0  0  0
   56.8200   30.3120   44.5840 S   0  0  0  0  0  0  0  0  0  0  0  0
   57.0200   30.3810   43.0960 O   0  0  0  0  0  0  0  0  0  0  0  0
   56.6420   31.9200   45.2080 N   0  0  0  0  0  0  0  0  0  0  0  0
   57.7180   32.8440   45.4230 C   0  0  0  0  0  0  0  0  0  0  0  0
   57.6960   34.0720   44.7560 C   0  0  0  0  0  0  0  0  0  0  0  0
   58.7080   34.9620   44.9230 N   0  0  0  0  0  0  0  0  0  0  0  0
   59.7690   34.6980   45.7300 C   0  0  0  0  0  0  0  0  0  0  0  0
   59.8450   33.4820   46.4280 C   0  0  0  0  0  0  0  0  0  0  0  0
   61.0020   33.1780   47.3070 C   0  0  0  0  0  0  0  0  0  0  0  0
   61.7550   31.9860   47.1220 C   0  0  0  0  0  0  0  0  0  0  0  0
   62.8590   31.6980   47.9440 C   0  0  0  0  0  0  0  0  0  0  0  0
   63.1860   32.6150   48.9370 C   0  0  0  0  0  0  0  0  0  0  0  0
   62.4760   33.7540   49.1240 C   0  0  0  0  0  0  0  0  0  0  0  0
   61.3760   34.0780   48.3350 C   0  0  0  0  0  0  0  0  0  0  0  0
   63.0230   34.4720   50.1690 O   0  0  0  0  0  0  0  0  0  0  0  0
   64.1480   33.7360   50.6710 C   0  0  0  0  0  0  0  0  0  0  0  0
   64.2150   32.5570   49.8570 O   0  0  0  0  0  0  0  0  0  0  0  0
   58.8010   32.5560   46.2690 C   0  0  0  0  0  0  0  0  0  0  0  0
   58.2200   29.5300   45.3110 C   0  0  0  0  0  0  0  0  0  0  0  0
   59.1530   28.8570   44.5080 C   0  0  0  0  0  0  0  0  0  0  0  0
   60.2490   28.2160   45.0940 C   0  0  0  0  0  0  0  0  0  0  0  0
   60.4190   28.2450   46.4810 C   0  0  0  0  0  0  0  0  0  0  0  0
   59.4950   28.9180   47.2860 C   0  0  0  0  0  0  0  0  0  0  0  0
   59.7250   28.9540   49.1800 Br  0  0  0  0  0  0  0  0  0  0  0  0
   58.3980   29.5620   46.7010 C   0  0  0  0  0  0  0  0  0  0  0  0
   56.8544   34.3189   44.0922 H   0  0  0  0  0  0  0  0  0  0  0  0
   60.5729   35.4412   45.8370 H   0  0  0  0  0  0  0  0  0  0  0  0
   61.4706   31.2812   46.3268 H   0  0  0  0  0  0  0  0  0  0  0  0
   63.4449   30.7773   47.8060 H   0  0  0  0  0  0  0  0  0  0  0  0
   60.8126   35.0073   48.5051 H   0  0  0  0  0  0  0  0  0  0  0  0
   65.0709   34.3263   50.5727 H   0  0  0  0  0  0  0  0  0  0  0  0
   64.0400   33.4947   51.7388 H   0  0  0  0  0  0  0  0  0  0  0  0
   58.8320   31.5991   46.8107 H   0  0  0  0  0  0  0  0  0  0  0  0
   59.0222   28.8335   43.4161 H   0  0  0  0  0  0  0  0  0  0  0  0
   60.9786   27.6881   44.4623 H   0  0  0  0  0  0  0  0  0  0  0  0
   61.2806   27.7378   46.9397 H   0  0  0  0  0  0  0  0  0  0  0  0
   57.6734   30.0948   47.3343 H   0  0  0  0  0  0  0  0  0  0  0  0
  1  2  2  0
  2  3  2  0
  2  4  1  0
  4  5  1  0
  5  6  2  0
  6  7  1  0
  7  8  2  0
  8  9  1  0
  9 10  1  0
 10 11  2  0
 11 12  1  0
 12 13  2  0
 13 14  1  0
 14 15  2  0
 14 16  1  0
 16 17  1  0
 17 18  1  0
  9 19  2  0
  2 20  1  0
 20 21  2  0
 21 22  1  0
 22 23  2  0
 23 24  1  0
 24 25  1  0
 24 26  2  0
 19  5  1  0
 26 20  1  0
 15 10  1  0
 18 13  1  0
  6 27  1  0
  8 28  1  0
 11 29  1  0
 12 30  1  0
 15 31  1  0
 17 32  1  0
 17 33  1  0
 19 34  1  0
 21 35  1  0
 22 36  1  0
 23 37  1  0
 26 38  1  0
M  CHG  1   4  -1
M  END
>  <UniqueID>  (44) 
40

>  <SMILES>  (44) 
O=S(=O)([N-]c1cncc(-c2ccc3c(c2)OCO3)c1)c1cccc(Br)c1

>  <Energy>  (44) 
78.32759753475369

>  <Genealogy>  (44) 
O=S(=O)([N-]c1cncc(-c2ccc3c(c2)OCO3)c1)c1cccc(Br)c1 (protonated)
O=S(=O)([N-]c1cncc(-c2ccc3c(c2)OCO3)c1)c1cccc(Br)c1 (3D coordinates assigned)
O=S(=O)([N-]c1cncc(-c2ccc3c(c2)OCO3)c1)c1cccc(Br)c1 (nonaromatic ring conformer: 78.32759753475369 kcal/mol)

>  <smiles>  (44) 
O=S(=O)(Nc1cncc(-c2ccc3c(c2)OCO3)c1)c1cccc(Br)c1

>  <score_type>  (44) 
oracle

>  <origin>  (44) 
adg

>  <m_score__min__energy>  (44) 
-10.31

>  <m_primary>  (44) 
energy

$$$$
44:0
     RDKit          3D

 45 48  0  0  0  0  0  0  0  0999 V2000
   58.6380   33.4201   42.1805 H   0  0  0  0  0  0  0  0  0  0  0  0
   58.0870   32.6420   42.7290 C   0  0  0  0  0  0  0  0  0  0  0  0
   57.3970   31.6480   42.0290 C   0  0  0  0  0  0  0  0  0  0  0  0
   57.4129   31.6395   40.9291 H   0  0  0  0  0  0  0  0  0  0  0  0
   56.6870   30.6650   42.7240 C   0  0  0  0  0  0  0  0  0  0  0  0
   56.1597   29.8749   42.1694 H   0  0  0  0  0  0  0  0  0  0  0  0
   56.6440   30.6820   44.1320 C   0  0  0  0  0  0  0  0  0  0  0  0
   55.9570   29.6700   44.8870 N   0  0  0  0  0  0  0  0  0  0  0  0
   56.4940   28.6960   45.5610 C   0  0  0  0  0  0  0  0  0  0  0  0
   55.9060   27.4720   45.6270 N   0  0  0  0  0  0  0  0  0  0  0  0
   56.4660   26.4750   46.3580 C   0  0  0  0  0  0  0  0  0  0  0  0
   55.8940   25.3060   46.3780 N   0  0  0  0  0  0  0  0  0  0  0  0
   56.1750   24.1920   45.5120 C   0  0  0  0  0  0  0  0  0  0  0  0
   55.5490   24.0420   44.2600 C   0  0  0  0  0  0  0  0  0  0  0  0
   54.7988   24.7759   43.9306 H   0  0  0  0  0  0  0  0  0  0  0  0
   55.8780   22.9630   43.4340 C   0  0  0  0  0  0  0  0  0  0  0  0
   55.3744   22.8408   42.4637 H   0  0  0  0  0  0  0  0  0  0  0  0
   56.8460   22.0390   43.8390 C   0  0  0  0  0  0  0  0  0  0  0  0
   57.0969   21.1856   43.1919 H   0  0  0  0  0  0  0  0  0  0  0  0
   57.4940   22.2000   45.0650 C   0  0  0  0  0  0  0  0  0  0  0  0
   58.2627   21.4785   45.3789 H   0  0  0  0  0  0  0  0  0  0  0  0
   57.1670   23.2780   45.8950 C   0  0  0  0  0  0  0  0  0  0  0  0
   57.6910   23.4092   46.8532 H   0  0  0  0  0  0  0  0  0  0  0  0
   57.6320   26.7050   47.0180 N   0  0  0  0  0  0  0  0  0  0  0  0
   58.2230   27.9250   46.9670 C   0  0  0  0  0  0  0  0  0  0  0  0
   59.3340   28.1240   47.6120 N   0  0  0  0  0  0  0  0  0  0  0  0
   59.5180   29.1140   48.6720 C   0  0  0  0  0  0  0  0  0  0  0  0
   60.3522   28.8018   49.3175 H   0  0  0  0  0  0  0  0  0  0  0  0
   58.5894   29.1836   49.2576 H   0  0  0  0  0  0  0  0  0  0  0  0
   59.8250   30.4660   48.0860 C   0  0  0  0  0  0  0  0  0  0  0  0
   61.1220   30.7770   47.6420 C   0  0  0  0  0  0  0  0  0  0  0  0
   61.9183   30.0206   47.7039 H   0  0  0  0  0  0  0  0  0  0  0  0
   61.4040   32.0440   47.1220 C   0  0  0  0  0  0  0  0  0  0  0  0
   62.4203   32.2815   46.7747 H   0  0  0  0  0  0  0  0  0  0  0  0
   60.3960   33.0090   47.0430 C   0  0  0  0  0  0  0  0  0  0  0  0
   60.6192   34.0049   46.6327 H   0  0  0  0  0  0  0  0  0  0  0  0
   59.1050   32.7090   47.4850 C   0  0  0  0  0  0  0  0  0  0  0  0
   58.1280   33.6470   47.4120 F   0  0  0  0  0  0  0  0  0  0  0  0
   58.8190   31.4430   48.0070 C   0  0  0  0  0  0  0  0  0  0  0  0
   57.8021   31.2117   48.3570 H   0  0  0  0  0  0  0  0  0  0  0  0
   57.6460   28.9200   46.2410 N   0  0  0  0  0  0  0  0  0  0  0  0
   57.3670   31.6640   44.8240 C   0  0  0  0  0  0  0  0  0  0  0  0
   57.3764   31.6617   45.9240 H   0  0  0  0  0  0  0  0  0  0  0  0
   58.0760   32.6460   44.1260 C   0  0  0  0  0  0  0  0  0  0  0  0
   58.6259   33.4229   44.6774 H   0  0  0  0  0  0  0  0  0  0  0  0
  1  2  1  0
  2  3  2  0
  3  4  1  0
  3  5  1  0
  5  6  1  0
  5  7  2  0
  7  8  1  0
  8  9  2  3
  9 10  1  0
 10 11  1  0
 11 12  2  0
 12 13  1  0
 13 14  2  0
 14 15  1  0
 14 16  1  0
 16 17  1  0
 16 18  2  0
 18 19  1  0
 18 20  1  0
 20 21  1  0
 20 22  2  0
 22 23  1  0
 11 24  1  0
 24 25  1  0
 25 26  2  0
 26 27  1  0
 27 28  1  0
 27 29  1  0
 27 30  1  0
 30 31  2  0
 31 32  1  0
 31 33  1  0
 33 34  1  0
 33 35  2  0
 35 36  1  0
 35 37  1  0
 37 38  1  0
 37 39  2  0
 39 40  1  0
 25 41  1  0
  7 42  1  0
 42 43  1  0
 42 44  2  0
 44 45  1  0
 44  2  1  0
 41  9  1  0
 22 13  1  0
 39 30  1  0
M  CHG  3  10  -1  24  -1  41  -1
M  END
>  <UniqueID>  (45) 
41

>  <SMILES>  (45) 
Fc1cccc(C/N=c2\[n-]c(=Nc3ccccc3)[n-]/c(=N/c3ccccc3)[n-]2)c1

>  <Energy>  (45) 
62.07294205642567

>  <Genealogy>  (45) 
Fc1cccc(CN=c2[n-]c(=Nc3ccccc3)[n-]c(=Nc3ccccc3)[n-]2)c1 (protonated)
Fc1cccc(C/N=c2\[n-]c(=Nc3ccccc3)[n-]/c(=N/c3ccccc3)[n-]2)c1 (cis-trans isomerization)
Fc1cccc(C/N=c2\[n-]c(=Nc3ccccc3)[n-]/c(=N/c3ccccc3)[n-]2)c1 (3D coordinates assigned)
Fc1cccc(C/N=c2\[n-]c(=Nc3ccccc3)[n-]/c(=N/c3ccccc3)[n-]2)c1 (optimized conformer: 62.07294205642567 kcal/mol)

>  <smiles>  (45) 
Fc1cccc(CN=c2[nH]c(=Nc3ccccc3)[nH]c(=Nc3ccccc3)[nH]2)c1

>  <score_type>  (45) 
oracle

>  <origin>  (45) 
adg

>  <m_score__min__energy>  (45) 
-13.08

>  <m_primary>  (45) 
energy

$$$$
45:0
     RDKit          3D

 54 57  0  0  0  0  0  0  0  0999 V2000
   60.1840   26.3580   46.3890 N   0  0  0  0  0  0  0  0  0  0  0  0
   58.7570   26.3440   46.2600 C   0  0  0  0  0  0  0  0  0  0  0  0
   58.0380   25.2100   46.6730 C   0  0  0  0  0  0  0  0  0  0  0  0
   56.6470   25.1750   46.5610 C   0  0  0  0  0  0  0  0  0  0  0  0
   55.9610   26.2650   46.0270 C   0  0  0  0  0  0  0  0  0  0  0  0
   56.6630   27.3990   45.6130 C   0  0  0  0  0  0  0  0  0  0  0  0
   58.0630   27.4590   45.7460 C   0  0  0  0  0  0  0  0  0  0  0  0
   58.7950   28.6240   45.3260 N   0  0  0  0  0  0  0  0  0  0  0  0
   59.8350   29.2710   46.0730 C   0  0  0  0  0  0  0  0  0  0  0  0
   61.0350   29.0260   45.7820 O   0  0  0  0  0  0  0  0  0  0  0  0
   59.5270   30.1880   47.1890 C   0  0  0  0  0  0  0  0  0  0  0  0
   59.7860   29.8070   48.5160 C   0  0  0  0  0  0  0  0  0  0  0  0
   59.4020   30.6320   49.5750 C   0  0  0  0  0  0  0  0  0  0  0  0
   58.7550   31.8510   49.3250 C   0  0  0  0  0  0  0  0  0  0  0  0
   58.1790   32.6510   50.4600 C   0  0  0  0  0  0  0  0  0  0  0  0
   57.1290   31.8730   51.1150 N   0  0  0  0  0  0  0  0  0  0  0  0
   57.3910   31.0970   52.2970 C   0  0  0  0  0  0  0  0  0  0  0  0
   58.4280   31.3260   52.9760 O   0  0  0  0  0  0  0  0  0  0  0  0
   56.4890   29.9940   52.7070 C   0  0  0  0  0  0  0  0  0  0  0  0
   57.0290   28.8400   53.3010 C   0  0  0  0  0  0  0  0  0  0  0  0
   56.2000   27.7860   53.6830 C   0  0  0  0  0  0  0  0  0  0  0  0
   54.8200   27.8620   53.4770 C   0  0  0  0  0  0  0  0  0  0  0  0
   53.8060   26.5390   54.0440 Cl  0  0  0  0  0  0  0  0  0  0  0  0
   54.2640   29.0070   52.8730 C   0  0  0  0  0  0  0  0  0  0  0  0
   52.8510   29.1250   52.6570 N   0  0  0  0  0  0  0  0  0  0  0  0
   52.2460   30.1570   51.8610 C   0  0  0  0  0  0  0  0  0  0  0  0
   51.8670   31.3920   52.4140 C   0  0  0  0  0  0  0  0  0  0  0  0
   51.2690   32.3400   51.5830 C   0  0  0  0  0  0  0  0  0  0  0  0
   50.9240   33.4590   52.0460 O   0  0  0  0  0  0  0  0  0  0  0  0
   51.0570   32.0570   50.2720 N   0  0  0  0  0  0  0  0  0  0  0  0
   51.4160   30.8550   49.7530 C   0  0  0  0  0  0  0  0  0  0  0  0
   51.2070   30.6080   48.5370 O   0  0  0  0  0  0  0  0  0  0  0  0
   52.0010   29.9170   50.5450 N   0  0  0  0  0  0  0  0  0  0  0  0
   55.0990   30.0750   52.5150 C   0  0  0  0  0  0  0  0  0  0  0  0
   58.5320   32.2510   47.9980 C   0  0  0  0  0  0  0  0  0  0  0  0
   58.9290   31.4330   46.9370 C   0  0  0  0  0  0  0  0  0  0  0  0
   60.7390   27.1820   46.0650 H   0  0  0  0  0  0  0  0  0  0  0  0
   60.7030   25.5540   46.8050 H   0  0  0  0  0  0  0  0  0  0  0  0
   58.5747   24.3438   47.0874 H   0  0  0  0  0  0  0  0  0  0  0  0
   56.0913   24.2862   46.8945 H   0  0  0  0  0  0  0  0  0  0  0  0
   54.8656   26.2317   45.9317 H   0  0  0  0  0  0  0  0  0  0  0  0
   56.1183   28.2510   45.1801 H   0  0  0  0  0  0  0  0  0  0  0  0
   60.2942   28.8534   48.7220 H   0  0  0  0  0  0  0  0  0  0  0  0
   59.6080   30.3243   50.6108 H   0  0  0  0  0  0  0  0  0  0  0  0
   58.9722   32.8824   51.1862 H   0  0  0  0  0  0  0  0  0  0  0  0
   57.7551   33.5890   50.0720 H   0  0  0  0  0  0  0  0  0  0  0  0
   56.2510   31.7170   50.5740 H   0  0  0  0  0  0  0  0  0  0  0  0
   58.1142   28.7680   53.4657 H   0  0  0  0  0  0  0  0  0  0  0  0
   56.6348   26.8895   54.1492 H   0  0  0  0  0  0  0  0  0  0  0  0
   52.2200   28.4980   53.2050 H   0  0  0  0  0  0  0  0  0  0  0  0
   52.0381   31.6068   53.4792 H   0  0  0  0  0  0  0  0  0  0  0  0
   54.6618   30.9856   52.0794 H   0  0  0  0  0  0  0  0  0  0  0  0
   58.0419   33.2140   47.7922 H   0  0  0  0  0  0  0  0  0  0  0  0
   58.7724   31.7658   45.9003 H   0  0  0  0  0  0  0  0  0  0  0  0
  1  2  1  0
  2  3  2  0
  3  4  1  0
  4  5  2  0
  5  6  1  0
  6  7  2  0
  7  8  1  0
  8  9  1  0
  9 10  2  0
  9 11  1  0
 11 12  2  0
 12 13  1  0
 13 14  2  0
 14 15  1  0
 15 16  1  0
 16 17  1  0
 17 18  2  0
 17 19  1  0
 19 20  2  0
 20 21  1  0
 21 22  2  0
 22 23  1  0
 22 24  1  0
 24 25  1  0
 25 26  1  0
 26 27  2  0
 27 28  1  0
 28 29  2  0
 28 30  1  0
 30 31  1  0
 31 32  2  0
 31 33  1  0
 24 34  2  0
 14 35  1  0
 35 36  2  0
  7  2  1  0
 36 11  1  0
 34 19  1  0
 33 26  1  0
  1 37  1  0
  1 38  1  0
  3 39  1  0
  4 40  1  0
  5 41  1  0
  6 42  1  0
 12 43  1  0
 13 44  1  0
 15 45  1  0
 15 46  1  0
 16 47  1  0
 20 48  1  0
 21 49  1  0
 25 50  1  0
 27 51  1  0
 34 52  1  0
 35 53  1  0
 36 54  1  0
M  CHG  3   8  -1  30  -1  33  -1
M  END
>  <UniqueID>  (46) 
42

>  <SMILES>  (46) 
Nc1ccccc1[N-]C(=O)c1ccc(CNC(=O)c2ccc(Cl)c(Nc3cc(=O)[n-]c(=O)[n-]3)c2)cc1

>  <Energy>  (46) 
74.11025452576605

>  <Genealogy>  (46) 
Nc1ccccc1[N-]C(=O)c1ccc(CNC(=O)c2ccc(Cl)c(Nc3cc(=O)[n-]c(=O)[n-]3)c2)cc1 (protonated)
Nc1ccccc1[N-]C(=O)c1ccc(CNC(=O)c2ccc(Cl)c(Nc3cc(=O)[n-]c(=O)[n-]3)c2)cc1 (3D coordinates assigned)
Nc1ccccc1[N-]C(=O)c1ccc(CNC(=O)c2ccc(Cl)c(Nc3cc(=O)[n-]c(=O)[n-]3)c2)cc1 (optimized conformer: 74.11025452576605 kcal/mol)

>  <smiles>  (46) 
Nc1ccccc1NC(=O)c1ccc(CNC(=O)c2ccc(Cl)c(Nc3cc(=O)[nH]c(=O)[nH]3)c2)cc1

>  <score_type>  (46) 
oracle

>  <origin>  (46) 
adg

>  <m_score__min__energy>  (46) 
-15.43

>  <m_primary>  (46) 
energy

$$$$
46:0
     RDKit          3D

 37 38  0  0  0  0  0  0  0  0999 V2000
   59.2880   33.6500   51.4290 C   0  0  0  0  0  0  0  0  0  0  0  0
   59.7170   34.0930   50.1450 O   0  0  0  0  0  0  0  0  0  0  0  0
   59.3920   33.4540   48.9390 C   0  0  0  0  0  0  0  0  0  0  0  0
   59.2400   34.1580   47.7300 C   0  0  0  0  0  0  0  0  0  0  0  0
   58.9230   33.4780   46.5500 C   0  0  0  0  0  0  0  0  0  0  0  0
   58.7490   32.0790   46.5510 C   0  0  0  0  0  0  0  0  0  0  0  0
   58.4140   31.3280   45.3060 C   0  0  0  0  0  0  0  0  0  0  0  0
   58.9900   30.2300   45.0730 O   0  0  0  0  0  0  0  0  0  0  0  0
   57.4250   31.8350   44.2850 C   0  0  0  0  0  0  0  0  0  0  0  0
   56.9090   30.7160   43.3720 C   0  0  0  0  0  0  0  0  0  0  0  0
   56.3240   29.5830   44.1610 C   0  0  0  0  0  0  0  0  0  0  0  0
   55.3090   29.7830   44.8800 O   0  0  0  0  0  0  0  0  0  0  0  0
   57.0040   28.3190   44.1840 N   0  0  0  0  0  0  0  0  0  0  0  0
   57.3950   27.5980   45.2020 C   0  0  0  0  0  0  0  0  0  0  0  0
   58.7340   27.5580   45.4740 N   0  0  0  0  0  0  0  0  0  0  0  0
   59.2450   26.8510   46.5190 C   0  0  0  0  0  0  0  0  0  0  0  0
   58.4000   26.1230   47.3530 C   0  0  0  0  0  0  0  0  0  0  0  0
   57.0330   26.1120   47.0920 C   0  0  0  0  0  0  0  0  0  0  0  0
   56.5160   26.8300   46.0110 C   0  0  0  0  0  0  0  0  0  0  0  0
   55.1570   26.7220   45.7430 O   0  0  0  0  0  0  0  0  0  0  0  0
   58.8930   31.3850   47.7680 C   0  0  0  0  0  0  0  0  0  0  0  0
   59.2130   32.0680   48.9460 C   0  0  0  0  0  0  0  0  0  0  0  0
   59.8279   34.2075   52.2085 H   0  0  0  0  0  0  0  0  0  0  0  0
   58.2072   33.8250   51.5350 H   0  0  0  0  0  0  0  0  0  0  0  0
   59.4976   32.5754   51.5350 H   0  0  0  0  0  0  0  0  0  0  0  0
   59.3714   35.2500   47.7131 H   0  0  0  0  0  0  0  0  0  0  0  0
   58.8082   34.0403   45.6116 H   0  0  0  0  0  0  0  0  0  0  0  0
   56.5705   32.2842   44.8123 H   0  0  0  0  0  0  0  0  0  0  0  0
   57.9402   32.5745   43.6543 H   0  0  0  0  0  0  0  0  0  0  0  0
   56.1336   31.1262   42.7084 H   0  0  0  0  0  0  0  0  0  0  0  0
   57.7587   30.3273   42.7916 H   0  0  0  0  0  0  0  0  0  0  0  0
   59.3990   28.0990   44.8740 H   0  0  0  0  0  0  0  0  0  0  0  0
   60.3291   26.8547   46.7054 H   0  0  0  0  0  0  0  0  0  0  0  0
   58.8081   25.5635   48.2076 H   0  0  0  0  0  0  0  0  0  0  0  0
   56.3566   25.5353   47.7399 H   0  0  0  0  0  0  0  0  0  0  0  0
   58.7523   30.2943   47.7924 H   0  0  0  0  0  0  0  0  0  0  0  0
   59.3248   31.5089   49.8867 H   0  0  0  0  0  0  0  0  0  0  0  0
  1  2  1  0
  2  3  1  0
  3  4  2  0
  4  5  1  0
  5  6  2  0
  6  7  1  0
  7  8  2  0
  7  9  1  0
  9 10  1  0
 10 11  1  0
 11 12  2  0
 11 13  1  0
 13 14  2  3
 14 15  1  0
 15 16  1  0
 16 17  2  0
 17 18  1  0
 18 19  2  0
 19 20  1  0
  6 21  1  0
 21 22  2  0
 22  3  1  0
 19 14  1  0
  1 23  1  0
  1 24  1  0
  1 25  1  0
  4 26  1  0
  5 27  1  0
  9 28  1  0
  9 29  1  0
 10 30  1  0
 10 31  1  0
 15 32  1  0
 16 33  1  0
 17 34  1  0
 18 35  1  0
 21 36  1  0
 22 37  1  0
M  CHG  1  20  -1
M  END
>  <UniqueID>  (47) 
43

>  <SMILES>  (47) 
COc1ccc(C(=O)CCC(=O)N=c2[nH]cccc2[O-])cc1

>  <Energy>  (47) 
47.21466642253444

>  <Genealogy>  (47) 
COc1ccc(C(=O)CCC(=O)N=c2[nH]cccc2[O-])cc1 (protonated)
COc1ccc(C(=O)CCC(=O)N=c2[nH]cccc2[O-])cc1 (3D coordinates assigned)
COc1ccc(C(=O)CCC(=O)N=c2[nH]cccc2[O-])cc1 (optimized conformer: 47.21466642253444 kcal/mol)

>  <smiles>  (47) 
COc1ccc(C(=O)CCC(=O)N=c2[nH]cccc2O)cc1

>  <score_type>  (47) 
oracle

>  <origin>  (47) 
adg

>  <m_score__min__energy>  (47) 
-11.15

>  <m_primary>  (47) 
energy

$$$$
47:0
     RDKit          3D

 48 50  0  0  0  0  0  0  0  0999 V2000
   51.8310   23.6760   44.7570 C   0  0  0  0  0  0  0  0  0  0  0  0
   53.0790   23.0390   44.7790 O   0  0  0  0  0  0  0  0  0  0  0  0
   54.2700   23.7090   44.8650 C   0  0  0  0  0  0  0  0  0  0  0  0
   54.6410   24.5820   45.8570 C   0  0  0  0  0  0  0  0  0  0  0  0
   55.8780   25.2280   45.8730 C   0  0  0  0  0  0  0  0  0  0  0  0
   56.7920   25.0070   44.8680 C   0  0  0  0  0  0  0  0  0  0  0  0
   58.1200   25.6410   44.7870 C   0  0  0  0  0  0  0  0  0  0  0  0
   58.2440   26.8940   45.4610 N   0  0  0  0  0  0  0  0  0  0  0  0
   59.2000   27.2160   46.4450 C   0  0  0  0  0  0  0  0  0  0  0  0
   60.0590   26.3750   46.8220 O   0  0  0  0  0  0  0  0  0  0  0  0
   59.2190   28.5510   47.0640 C   0  0  0  0  0  0  0  0  0  0  0  0
   59.4750   29.7700   46.4790 C   0  0  0  0  0  0  0  0  0  0  0  0
   59.3880   30.7790   47.4310 C   0  0  0  0  0  0  0  0  0  0  0  0
   59.6050   32.2400   47.2230 C   0  0  0  0  0  0  0  0  0  0  0  0
   58.1570   33.0150   46.4670 S   0  0  0  0  0  0  0  0  0  0  0  0
   57.6440   32.1050   45.0350 C   0  0  0  0  0  0  0  0  0  0  0  0
   57.0370   30.9150   45.2390 N   0  0  0  0  0  0  0  0  0  0  0  0
   56.6100   30.1580   44.2080 C   0  0  0  0  0  0  0  0  0  0  0  0
   56.0400   29.0270   44.5070 N   0  0  0  0  0  0  0  0  0  0  0  0
   56.7760   30.5650   42.9080 C   0  0  0  0  0  0  0  0  0  0  0  0
   57.4050   31.7970   42.7250 C   0  0  0  0  0  0  0  0  0  0  0  0
   57.6170   32.3210   41.0710 Cl  0  0  0  0  0  0  0  0  0  0  0  0
   57.8170   32.5240   43.7860 N   0  0  0  0  0  0  0  0  0  0  0  0
   59.0710   30.1380   48.6050 C   0  0  0  0  0  0  0  0  0  0  0  0
   58.8540   30.7530   49.9460 C   0  0  0  0  0  0  0  0  0  0  0  0
   58.9780   28.8160   48.3560 N   0  0  0  0  0  0  0  0  0  0  0  0
   56.4150   24.1270   43.8700 C   0  0  0  0  0  0  0  0  0  0  0  0
   55.1950   23.4860   43.8500 C   0  0  0  0  0  0  0  0  0  0  0  0
   51.4900   23.8501   45.7882 H   0  0  0  0  0  0  0  0  0  0  0  0
   51.9200   24.6389   44.2328 H   0  0  0  0  0  0  0  0  0  0  0  0
   51.1034   23.0390   44.2328 H   0  0  0  0  0  0  0  0  0  0  0  0
   53.9327   24.7811   46.6748 H   0  0  0  0  0  0  0  0  0  0  0  0
   56.1239   25.9179   46.6937 H   0  0  0  0  0  0  0  0  0  0  0  0
   58.8541   24.9474   45.2229 H   0  0  0  0  0  0  0  0  0  0  0  0
   58.2896   25.8528   43.7210 H   0  0  0  0  0  0  0  0  0  0  0  0
   57.5620   27.6770   45.2140 H   0  0  0  0  0  0  0  0  0  0  0  0
   59.7131   29.9231   45.4160 H   0  0  0  0  0  0  0  0  0  0  0  0
   59.8000   32.7158   48.1954 H   0  0  0  0  0  0  0  0  0  0  0  0
   60.4632   32.3720   46.5476 H   0  0  0  0  0  0  0  0  0  0  0  0
   56.2670   28.2050   43.9350 H   0  0  0  0  0  0  0  0  0  0  0  0
   56.4330   29.9552   42.0592 H   0  0  0  0  0  0  0  0  0  0  0  0
   58.2750   33.4230   43.6090 H   0  0  0  0  0  0  0  0  0  0  0  0
   59.1110   30.0247   50.7293 H   0  0  0  0  0  0  0  0  0  0  0  0
   59.4924   31.6428   50.0490 H   0  0  0  0  0  0  0  0  0  0  0  0
   57.7985   31.0451   50.0490 H   0  0  0  0  0  0  0  0  0  0  0  0
   58.7460   28.0980   49.0910 H   0  0  0  0  0  0  0  0  0  0  0  0
   57.1234   23.9289   43.0522 H   0  0  0  0  0  0  0  0  0  0  0  0
   54.9519   22.7958   43.0287 H   0  0  0  0  0  0  0  0  0  0  0  0
  1  2  1  0
  2  3  1  0
  3  4  2  0
  4  5  1  0
  5  6  2  0
  6  7  1  0
  7  8  1  0
  8  9  1  0
  9 10  2  0
  9 11  1  0
 11 12  2  0
 12 13  1  0
 13 14  1  0
 14 15  1  0
 15 16  1  0
 16 17  2  0
 17 18  1  0
 18 19  2  3
 18 20  1  0
 20 21  2  0
 21 22  1  0
 21 23  1  0
 13 24  2  0
 24 25  1  0
 24 26  1  0
  6 27  1  0
 27 28  2  0
 28  3  1  0
 26 11  1  0
 23 16  1  0
  1 29  1  0
  1 30  1  0
  1 31  1  0
  4 32  1  0
  5 33  1  0
  7 34  1  0
  7 35  1  0
  8 36  1  0
 12 37  1  0
 14 38  1  0
 14 39  1  0
 19 40  1  0
 20 41  1  0
 23 42  1  0
 25 43  1  0
 25 44  1  0
 25 45  1  0
 26 46  1  0
 27 47  1  0
 28 48  1  0
M  END
>  <smiles>  (48) 
COc1ccc(CNC(=O)c2cc(CSc3nc(=N)cc(Cl)[nH]3)c(C)[nH]2)cc1

>  <score_type>  (48) 
oracle

>  <origin>  (48) 
adg

>  <m_score__min__energy>  (48) 
-9.2100000000000009

>  <m_primary>  (48) 
energy

$$$$
48:0
     RDKit          3D

 49 52  0  0  0  0  0  0  0  0999 V2000
   60.7800   28.3370   45.0680 O   0  0  0  0  0  0  0  0  0  0  0  0
   60.0730   29.3180   45.4300 C   0  0  0  0  0  0  0  0  0  0  0  0
   60.4750   30.0120   46.7020 C   0  0  0  0  0  0  0  0  0  0  0  0
   61.5970   30.8420   46.7470 C   0  0  0  0  0  0  0  0  0  0  0  0
   61.7750   31.3640   47.9770 N   0  0  0  0  0  0  0  0  0  0  0  0
   62.8180   32.3220   48.3490 C   0  0  0  0  0  0  0  0  0  0  0  0
   62.4950   33.7040   47.7780 C   0  0  0  0  0  0  0  0  0  0  0  0
   61.1890   34.1210   48.1740 O   0  0  0  0  0  0  0  0  0  0  0  0
   60.0460   34.1110   47.3570 C   0  0  0  0  0  0  0  0  0  0  0  0
   60.0270   34.6730   46.0630 C   0  0  0  0  0  0  0  0  0  0  0  0
   58.8580   34.6320   45.2960 C   0  0  0  0  0  0  0  0  0  0  0  0
   57.7040   34.0330   45.8060 C   0  0  0  0  0  0  0  0  0  0  0  0
   57.7170   33.4710   47.0850 C   0  0  0  0  0  0  0  0  0  0  0  0
   58.8830   33.5100   47.8550 C   0  0  0  0  0  0  0  0  0  0  0  0
   60.7660   30.9010   48.7360 C   0  0  0  0  0  0  0  0  0  0  0  0
   60.5230   31.1990   50.0810 C   0  0  0  0  0  0  0  0  0  0  0  0
   59.4110   30.6160   50.7010 C   0  0  0  0  0  0  0  0  0  0  0  0
   58.5680   29.7560   49.9770 C   0  0  0  0  0  0  0  0  0  0  0  0
   58.8240   29.4720   48.6250 C   0  0  0  0  0  0  0  0  0  0  0  0
   59.9430   30.0600   48.0070 C   0  0  0  0  0  0  0  0  0  0  0  0
   58.9480   29.6810   44.5930 N   0  0  0  0  0  0  0  0  0  0  0  0
   57.8650   28.6750   44.6670 C   0  0  0  0  0  0  0  0  0  0  0  0
   56.5810   29.1860   44.0030 C   0  0  0  0  0  0  0  0  0  0  0  0
   56.2220   30.4540   44.5090 O   0  0  0  0  0  0  0  0  0  0  0  0
   57.2030   31.3990   44.1380 C   0  0  0  0  0  0  0  0  0  0  0  0
   58.5460   31.0880   44.8100 C   0  0  0  0  0  0  0  0  0  0  0  0
   62.2528   31.0443   45.8873 H   0  0  0  0  0  0  0  0  0  0  0  0
   62.8773   32.3868   49.4455 H   0  0  0  0  0  0  0  0  0  0  0  0
   63.7805   31.9810   47.9400 H   0  0  0  0  0  0  0  0  0  0  0  0
   63.2337   34.4296   48.1491 H   0  0  0  0  0  0  0  0  0  0  0  0
   62.5311   33.6501   46.6799 H   0  0  0  0  0  0  0  0  0  0  0  0
   60.9338   35.1446   45.6563 H   0  0  0  0  0  0  0  0  0  0  0  0
   58.8476   35.0728   44.2882 H   0  0  0  0  0  0  0  0  0  0  0  0
   56.7857   34.0037   45.2012 H   0  0  0  0  0  0  0  0  0  0  0  0
   56.8089   32.9974   47.4864 H   0  0  0  0  0  0  0  0  0  0  0  0
   58.8872   33.0648   48.8609 H   0  0  0  0  0  0  0  0  0  0  0  0
   61.1890   31.8746   50.6378 H   0  0  0  0  0  0  0  0  0  0  0  0
   59.1967   30.8319   51.7581 H   0  0  0  0  0  0  0  0  0  0  0  0
   57.6987   29.3004   50.4738 H   0  0  0  0  0  0  0  0  0  0  0  0
   58.1608   28.8012   48.0591 H   0  0  0  0  0  0  0  0  0  0  0  0
   59.2820   29.6460   43.5970 H   0  0  0  0  0  0  0  0  0  0  0  0
   58.1924   27.7582   44.1548 H   0  0  0  0  0  0  0  0  0  0  0  0
   57.6505   28.4743   45.7271 H   0  0  0  0  0  0  0  0  0  0  0  0
   56.7433   29.2641   42.9178 H   0  0  0  0  0  0  0  0  0  0  0  0
   55.7676   28.4780   44.2200 H   0  0  0  0  0  0  0  0  0  0  0  0
   57.3325   31.3735   43.0459 H   0  0  0  0  0  0  0  0  0  0  0  0
   56.8705   32.3959   44.4629 H   0  0  0  0  0  0  0  0  0  0  0  0
   59.3178   31.7492   44.3892 H   0  0  0  0  0  0  0  0  0  0  0  0
   58.4367   31.2527   45.8921 H   0  0  0  0  0  0  0  0  0  0  0  0
  1  2  2  0
  2  3  1  0
  3  4  2  0
  4  5  1  0
  5  6  1  0
  6  7  1  0
  7  8  1  0
  8  9  1  0
  9 10  2  0
 10 11  1  0
 11 12  2  0
 12 13  1  0
 13 14  2  0
  5 15  1  0
 15 16  2  0
 16 17  1  0
 17 18  2  0
 18 19  1  0
 19 20  2  0
  2 21  1  0
 21 22  1  0
 22 23  1  0
 23 24  1  0
 24 25  1  0
 25 26  1  0
 20  3  1  0
 26 21  1  0
 14  9  1  0
 20 15  1  0
  4 27  1  0
  6 28  1  0
  6 29  1  0
  7 30  1  0
  7 31  1  0
 10 32  1  0
 11 33  1  0
 12 34  1  0
 13 35  1  0
 14 36  1  0
 16 37  1  0
 17 38  1  0
 18 39  1  0
 19 40  1  0
 21 41  1  0
 22 42  1  0
 22 43  1  0
 23 44  1  0
 23 45  1  0
 25 46  1  0
 25 47  1  0
 26 48  1  0
 26 49  1  0
M  CHG  1  21   1
M  END
>  <UniqueID>  (49) 
44

>  <SMILES>  (49) 
O=C(c1cn(CCOc2ccccc2)c2ccccc12)[NH+]1CCOCC1

>  <Energy>  (49) 
101.10875795498423

>  <Genealogy>  (49) 
O=C(c1cn(CCOc2ccccc2)c2ccccc12)[NH+]1CCOCC1 (protonated)
O=C(c1cn(CCOc2ccccc2)c2ccccc12)[NH+]1CCOCC1 (3D coordinates assigned)
O=C(c1cn(CCOc2ccccc2)c2ccccc12)[NH+]1CCOCC1 (nonaromatic ring conformer: 101.10875795498423 kcal/mol)

>  <smiles>  (49) 
O=C(c1cn(CCOc2ccccc2)c2ccccc12)N1CCOCC1

>  <score_type>  (49) 
oracle

>  <origin>  (49) 
adg

>  <m_score__min__energy>  (49) 
-6.5899999999999999

>  <m_primary>  (49) 
energy

$$$$
49:0
     RDKit          3D

 38 41  0  0  0  0  0  0  0  0999 V2000
   60.9830   30.2480   46.7720 C   0  0  0  0  0  0  0  0  0  0  0  0
   60.9070   29.3390   45.5520 C   0  0  0  0  0  0  0  0  0  0  0  0
   59.5140   29.0240   45.2450 N   0  0  0  0  0  0  0  0  0  0  0  0
   59.0580   27.8130   44.9350 N   0  0  0  0  0  0  0  0  0  0  0  0
   57.7430   27.8970   44.6120 C   0  0  0  0  0  0  0  0  0  0  0  0
   57.3750   29.2240   44.7170 C   0  0  0  0  0  0  0  0  0  0  0  0
   56.2040   29.9260   44.4790 C   0  0  0  0  0  0  0  0  0  0  0  0
   55.1520   29.3430   44.1080 O   0  0  0  0  0  0  0  0  0  0  0  0
   56.2270   31.2810   44.6510 N   0  0  0  0  0  0  0  0  0  0  0  0
   57.3700   31.9340   45.0460 C   0  0  0  0  0  0  0  0  0  0  0  0
   57.3710   33.4240   45.1680 C   0  0  0  0  0  0  0  0  0  0  0  0
   58.9260   34.1290   44.5190 S   0  0  0  0  0  0  0  0  0  0  0  0
   59.7600   34.1520   46.1070 C   0  0  0  0  0  0  0  0  0  0  0  0
   59.0670   34.5110   47.2690 C   0  0  0  0  0  0  0  0  0  0  0  0
   59.7140   34.5090   48.4650 N   0  0  0  0  0  0  0  0  0  0  0  0
   61.0270   34.1690   48.5500 C   0  0  0  0  0  0  0  0  0  0  0  0
   61.6860   34.1690   49.7860 C   0  0  0  0  0  0  0  0  0  0  0  0
   63.0380   33.8170   49.8530 C   0  0  0  0  0  0  0  0  0  0  0  0
   63.7340   33.4650   48.6900 C   0  0  0  0  0  0  0  0  0  0  0  0
   65.0440   33.1250   48.7630 F   0  0  0  0  0  0  0  0  0  0  0  0
   63.0800   33.4640   47.4520 C   0  0  0  0  0  0  0  0  0  0  0  0
   61.7290   33.8140   47.3790 C   0  0  0  0  0  0  0  0  0  0  0  0
   61.0760   33.8160   46.1860 N   0  0  0  0  0  0  0  0  0  0  0  0
   58.5240   31.2320   45.2710 N   0  0  0  0  0  0  0  0  0  0  0  0
   58.4950   29.8880   45.1080 C   0  0  0  0  0  0  0  0  0  0  0  0
   60.9321   29.6391   47.6867 H   0  0  0  0  0  0  0  0  0  0  0  0
   61.9309   30.8058   46.7552 H   0  0  0  0  0  0  0  0  0  0  0  0
   60.1409   30.9555   46.7552 H   0  0  0  0  0  0  0  0  0  0  0  0
   61.3630   29.8483   44.6902 H   0  0  0  0  0  0  0  0  0  0  0  0
   61.4481   28.4053   45.7652 H   0  0  0  0  0  0  0  0  0  0  0  0
   59.6360   26.9450   44.9230 H   0  0  0  0  0  0  0  0  0  0  0  0
   57.0898   27.0615   44.3201 H   0  0  0  0  0  0  0  0  0  0  0  0
   56.5242   33.8328   44.5972 H   0  0  0  0  0  0  0  0  0  0  0  0
   57.2810   33.6900   46.2316 H   0  0  0  0  0  0  0  0  0  0  0  0
   58.0052   34.7931   47.2150 H   0  0  0  0  0  0  0  0  0  0  0  0
   61.1418   34.4450   50.7013 H   0  0  0  0  0  0  0  0  0  0  0  0
   63.5566   33.8167   50.8231 H   0  0  0  0  0  0  0  0  0  0  0  0
   63.6283   33.1884   46.5391 H   0  0  0  0  0  0  0  0  0  0  0  0
  1  2  1  0
  2  3  1  0
  3  4  1  0
  4  5  2  0
  5  6  1  0
  6  7  1  0
  7  8  2  0
  7  9  1  0
  9 10  2  0
 10 11  1  0
 11 12  1  0
 12 13  1  0
 13 14  2  0
 14 15  1  0
 15 16  2  0
 16 17  1  0
 17 18  2  0
 18 19  1  0
 19 20  1  0
 19 21  2  0
 21 22  1  0
 22 23  2  0
 10 24  1  0
 24 25  1  0
 25  3  1  0
 25  6  2  0
 23 13  1  0
 22 16  1  0
  1 26  1  0
  1 27  1  0
  1 28  1  0
  2 29  1  0
  2 30  1  0
  4 31  1  0
  5 32  1  0
 11 33  1  0
 11 34  1  0
 14 35  1  0
 17 36  1  0
 18 37  1  0
 21 38  1  0
M  CHG  2   4   1  24  -1
M  END
>  <UniqueID>  (50) 
45

>  <SMILES>  (50) 
CCn1[nH+]cc2c(=O)nc(CSc3cnc4ccc(F)cc4n3)[n-]c21

>  <Energy>  (50) 
79.91205937967275

>  <Genealogy>  (50) 
CCn1[nH+]cc2c(=O)nc(CSc3cnc4ccc(F)cc4n3)[n-]c21 (protonated)
CCn1[nH+]cc2c(=O)nc(CSc3cnc4ccc(F)cc4n3)[n-]c21 (3D coordinates assigned)
CCn1[nH+]cc2c(=O)nc(CSc3cnc4ccc(F)cc4n3)[n-]c21 (optimized conformer: 79.91205937967275 kcal/mol)

>  <smiles>  (50) 
CCn1ncc2c(=O)nc(CSc3cnc4ccc(F)cc4n3)[nH]c21

>  <score_type>  (50) 
oracle

>  <origin>  (50) 
adg

>  <m_score__min__energy>  (50) 
-8.0700000000000003

>  <m_primary>  (50) 
energy

$$$$
50:0
     RDKit          3D

 42 45  0  0  0  0  0  0  0  0999 V2000
   64.3600   33.1280   50.3760 C   0  0  0  0  0  0  0  0  0  0  0  0
   64.5200   32.4580   49.1610 C   0  0  0  0  0  0  0  0  0  0  0  0
   63.6140   32.6720   48.1170 C   0  0  0  0  0  0  0  0  0  0  0  0
   62.5360   33.5550   48.2870 C   0  0  0  0  0  0  0  0  0  0  0  0
   61.5940   33.8250   47.1440 C   0  0  0  0  0  0  0  0  0  0  0  0
   59.9730   34.4030   47.7580 S   0  0  0  0  0  0  0  0  0  0  0  0
   59.0590   33.8080   46.3290 C   0  0  0  0  0  0  0  0  0  0  0  0
   58.7500   34.5780   45.2740 N   0  0  0  0  0  0  0  0  0  0  0  0
   58.0870   33.8360   44.4050 N   0  0  0  0  0  0  0  0  0  0  0  0
   58.0020   32.6010   44.9420 C   0  0  0  0  0  0  0  0  0  0  0  0
   57.3270   31.4920   44.2450 C   0  0  0  0  0  0  0  0  0  0  0  0
   56.4710   30.6550   44.8720 N   0  0  0  0  0  0  0  0  0  0  0  0
   55.9020   29.7630   44.0160 C   0  0  0  0  0  0  0  0  0  0  0  0
   56.2870   29.8920   42.6870 C   0  0  0  0  0  0  0  0  0  0  0  0
   57.3710   31.1730   42.5920 S   0  0  0  0  0  0  0  0  0  0  0  0
   58.6040   32.5470   46.1610 N   0  0  0  0  0  0  0  0  0  0  0  0
   58.5800   31.4770   47.1660 C   0  0  0  0  0  0  0  0  0  0  0  0
   59.0650   30.1790   46.5710 C   0  0  0  0  0  0  0  0  0  0  0  0
   60.3190   30.1180   45.9380 C   0  0  0  0  0  0  0  0  0  0  0  0
   60.7740   28.9180   45.3830 C   0  0  0  0  0  0  0  0  0  0  0  0
   59.9770   27.7710   45.4470 C   0  0  0  0  0  0  0  0  0  0  0  0
   58.7240   27.8240   46.0650 C   0  0  0  0  0  0  0  0  0  0  0  0
   58.2640   29.0220   46.6180 C   0  0  0  0  0  0  0  0  0  0  0  0
   62.3800   34.2240   49.5130 C   0  0  0  0  0  0  0  0  0  0  0  0
   63.2900   34.0100   50.5510 C   0  0  0  0  0  0  0  0  0  0  0  0
   65.0756   32.9616   51.1946 H   0  0  0  0  0  0  0  0  0  0  0  0
   65.3599   31.7609   49.0249 H   0  0  0  0  0  0  0  0  0  0  0  0
   63.7467   32.1467   47.1597 H   0  0  0  0  0  0  0  0  0  0  0  0
   62.0292   34.5979   46.4935 H   0  0  0  0  0  0  0  0  0  0  0  0
   61.4447   32.8905   46.5833 H   0  0  0  0  0  0  0  0  0  0  0  0
   58.9810   35.5880   45.1440 H   0  0  0  0  0  0  0  0  0  0  0  0
   55.1890   28.9956   44.3518 H   0  0  0  0  0  0  0  0  0  0  0  0
   55.9441   29.2682   41.8484 H   0  0  0  0  0  0  0  0  0  0  0  0
   59.2328   31.7557   48.0064 H   0  0  0  0  0  0  0  0  0  0  0  0
   57.5459   31.3422   47.5159 H   0  0  0  0  0  0  0  0  0  0  0  0
   60.9460   31.0199   45.8790 H   0  0  0  0  0  0  0  0  0  0  0  0
   61.7594   28.8763   44.8958 H   0  0  0  0  0  0  0  0  0  0  0  0
   60.3358   26.8269   45.0111 H   0  0  0  0  0  0  0  0  0  0  0  0
   58.0988   26.9204   46.1160 H   0  0  0  0  0  0  0  0  0  0  0  0
   57.2721   29.0613   47.0919 H   0  0  0  0  0  0  0  0  0  0  0  0
   61.5388   34.9183   49.6557 H   0  0  0  0  0  0  0  0  0  0  0  0
   63.1642   34.5369   51.5084 H   0  0  0  0  0  0  0  0  0  0  0  0
  1  2  2  0
  2  3  1  0
  3  4  2  0
  4  5  1  0
  5  6  1  0
  6  7  1  0
  7  8  2  0
  8  9  1  0
  9 10  2  0
 10 11  1  0
 11 12  2  0
 12 13  1  0
 13 14  2  0
 14 15  1  0
 10 16  1  0
 16 17  1  0
 17 18  1  0
 18 19  2  0
 19 20  1  0
 20 21  2  0
 21 22  1  0
 22 23  2  0
  4 24  1  0
 24 25  2  0
 25  1  1  0
 16  7  1  0
 23 18  1  0
 15 11  1  0
  1 26  1  0
  2 27  1  0
  3 28  1  0
  5 29  1  0
  5 30  1  0
  8 31  1  0
 13 32  1  0
 14 33  1  0
 17 34  1  0
 17 35  1  0
 19 36  1  0
 20 37  1  0
 21 38  1  0
 22 39  1  0
 23 40  1  0
 24 41  1  0
 25 42  1  0
M  CHG  1   8   1
M  END
>  <UniqueID>  (51) 
46

>  <SMILES>  (51) 
c1ccc(CSc2[nH+]nc(-c3nccs3)n2Cc2ccccc2)cc1

>  <Energy>  (51) 
106.17170785274544

>  <Genealogy>  (51) 
c1ccc(CSc2[nH+]nc(-c3nccs3)n2Cc2ccccc2)cc1 (protonated)
c1ccc(CSc2[nH+]nc(-c3nccs3)n2Cc2ccccc2)cc1 (3D coordinates assigned)
c1ccc(CSc2[nH+]nc(-c3nccs3)n2Cc2ccccc2)cc1 (optimized conformer: 106.17170785274544 kcal/mol)

>  <smiles>  (51) 
c1ccc(CSc2nnc(-c3nccs3)n2Cc2ccccc2)cc1

>  <score_type>  (51) 
oracle

>  <origin>  (51) 
adg

>  <m_score__min__energy>  (51) 
-7.1900000000000004

>  <m_primary>  (51) 
energy

$$$$
51:0
     RDKit          3D

 50 53  0  0  0  0  0  0  0  0999 V2000
   58.5100   22.8960   44.9450 C   0  0  0  0  0  0  0  0  0  0  0  0
   58.4250   23.7900   46.0510 O   0  0  0  0  0  0  0  0  0  0  0  0
   58.3740   25.1880   45.9350 C   0  0  0  0  0  0  0  0  0  0  0  0
   57.1700   25.8850   45.7290 C   0  0  0  0  0  0  0  0  0  0  0  0
   57.1690   27.2790   45.6270 C   0  0  0  0  0  0  0  0  0  0  0  0
   58.3690   28.0030   45.7320 C   0  0  0  0  0  0  0  0  0  0  0  0
   58.3690   29.4440   45.6600 N   0  0  0  0  0  0  0  0  0  0  0  0
   57.5120   30.1380   44.6890 C   0  0  0  0  0  0  0  0  0  0  0  0
   58.1520   31.4670   44.2460 C   0  0  0  0  0  0  0  0  0  0  0  0
   58.7410   32.2660   45.3640 N   0  0  0  0  0  0  0  0  0  0  0  0
   58.3520   33.6730   45.3610 C   0  0  0  0  0  0  0  0  0  0  0  0
   57.2510   33.9750   44.9210 O   0  0  0  0  0  0  0  0  0  0  0  0
   59.2520   34.8070   45.8260 C   0  0  0  0  0  0  0  0  0  0  0  0
   59.9200   34.4910   47.0900 N   0  0  0  0  0  0  0  0  0  0  0  0
   59.3480   34.5570   48.3200 C   0  0  0  0  0  0  0  0  0  0  0  0
   60.2670   34.2150   49.3070 C   0  0  0  0  0  0  0  0  0  0  0  0
   61.4350   33.9240   48.6320 C   0  0  0  0  0  0  0  0  0  0  0  0
   62.6810   33.5290   49.1190 C   0  0  0  0  0  0  0  0  0  0  0  0
   63.7050   33.2920   48.1840 C   0  0  0  0  0  0  0  0  0  0  0  0
   63.4620   33.4440   46.8020 C   0  0  0  0  0  0  0  0  0  0  0  0
   62.1940   33.8450   46.3390 C   0  0  0  0  0  0  0  0  0  0  0  0
   61.1960   34.0900   47.2900 C   0  0  0  0  0  0  0  0  0  0  0  0
   58.5510   31.6730   46.7050 C   0  0  0  0  0  0  0  0  0  0  0  0
   59.0270   30.2170   46.7220 C   0  0  0  0  0  0  0  0  0  0  0  0
   59.5690   27.3020   45.9360 C   0  0  0  0  0  0  0  0  0  0  0  0
   59.5690   25.9080   46.0330 C   0  0  0  0  0  0  0  0  0  0  0  0
   58.6081   21.8644   45.3141 H   0  0  0  0  0  0  0  0  0  0  0  0
   57.5997   22.9816   44.3335 H   0  0  0  0  0  0  0  0  0  0  0  0
   59.3879   23.1517   44.3335 H   0  0  0  0  0  0  0  0  0  0  0  0
   56.2238   25.3300   45.6477 H   0  0  0  0  0  0  0  0  0  0  0  0
   56.2217   27.8135   45.4633 H   0  0  0  0  0  0  0  0  0  0  0  0
   57.3708   29.4945   43.8081 H   0  0  0  0  0  0  0  0  0  0  0  0
   56.5440   30.3542   45.1646 H   0  0  0  0  0  0  0  0  0  0  0  0
   58.9513   31.2415   43.5247 H   0  0  0  0  0  0  0  0  0  0  0  0
   57.3460   32.0769   43.8119 H   0  0  0  0  0  0  0  0  0  0  0  0
   59.7790   32.2550   45.2060 H   0  0  0  0  0  0  0  0  0  0  0  0
   60.0161   34.9928   45.0568 H   0  0  0  0  0  0  0  0  0  0  0  0
   58.6248   35.6965   45.9851 H   0  0  0  0  0  0  0  0  0  0  0  0
   58.3025   34.8416   48.5097 H   0  0  0  0  0  0  0  0  0  0  0  0
   60.0985   34.1833   50.3936 H   0  0  0  0  0  0  0  0  0  0  0  0
   62.8570   33.4069   50.1979 H   0  0  0  0  0  0  0  0  0  0  0  0
   64.7024   32.9860   48.5325 H   0  0  0  0  0  0  0  0  0  0  0  0
   64.2693   33.2477   46.0811 H   0  0  0  0  0  0  0  0  0  0  0  0
   61.9938   33.9621   45.2637 H   0  0  0  0  0  0  0  0  0  0  0  0
   59.1288   32.2510   47.4412 H   0  0  0  0  0  0  0  0  0  0  0  0
   57.4805   31.6995   46.9565 H   0  0  0  0  0  0  0  0  0  0  0  0
   60.1156   30.1910   46.5662 H   0  0  0  0  0  0  0  0  0  0  0  0
   58.7704   29.7720   47.6947 H   0  0  0  0  0  0  0  0  0  0  0  0
   60.5163   27.8548   46.0201 H   0  0  0  0  0  0  0  0  0  0  0  0
   60.5172   25.3723   46.1878 H   0  0  0  0  0  0  0  0  0  0  0  0
  1  2  1  0
  2  3  1  0
  3  4  2  0
  4  5  1  0
  5  6  2  0
  6  7  1  0
  7  8  1  0
  8  9  1  0
  9 10  1  0
 10 11  1  0
 11 12  2  0
 11 13  1  0
 13 14  1  0
 14 15  1  0
 15 16  2  0
 16 17  1  0
 17 18  2  0
 18 19  1  0
 19 20  2  0
 20 21  1  0
 21 22  2  0
 10 23  1  0
 23 24  1  0
  6 25  1  0
 25 26  2  0
 26  3  1  0
 24  7  1  0
 22 14  1  0
 22 17  1  0
  1 27  1  0
  1 28  1  0
  1 29  1  0
  4 30  1  0
  5 31  1  0
  8 32  1  0
  8 33  1  0
  9 34  1  0
  9 35  1  0
 10 36  1  0
 13 37  1  0
 13 38  1  0
 15 39  1  0
 16 40  1  0
 18 41  1  0
 19 42  1  0
 20 43  1  0
 21 44  1  0
 23 45  1  0
 23 46  1  0
 24 47  1  0
 24 48  1  0
 25 49  1  0
 26 50  1  0
M  CHG  1  10   1
M  END
>  <UniqueID>  (52) 
47

>  <SMILES>  (52) 
COc1ccc(N2CC[NH+](C(=O)Cn3ccc4ccccc43)CC2)cc1

>  <Energy>  (52) 
99.56449918960548

>  <Genealogy>  (52) 
COc1ccc(N2CC[NH+](C(=O)Cn3ccc4ccccc43)CC2)cc1 (protonated)
COc1ccc(N2CC[NH+](C(=O)Cn3ccc4ccccc43)CC2)cc1 (3D coordinates assigned)
COc1ccc(N2CC[NH+](C(=O)Cn3ccc4ccccc43)CC2)cc1 (nonaromatic ring conformer: 99.56449918960548 kcal/mol)

>  <smiles>  (52) 
COc1ccc(N2CCN(C(=O)Cn3ccc4ccccc43)CC2)cc1

>  <score_type>  (52) 
oracle

>  <origin>  (52) 
adg

>  <m_score__min__energy>  (52) 
-6.5700000000000003

>  <m_primary>  (52) 
energy

$$$$
52:0
     RDKit          3D

 59 61  0  0  0  0  0  0  0  0999 V2000
   66.2560   31.1410   50.8930 C   0  0  0  0  0  0  0  0  0  0  0  0
   66.7390   32.2320   50.1170 O   0  0  0  0  0  0  0  0  0  0  0  0
   67.2680   33.4170   50.6530 C   0  0  0  0  0  0  0  0  0  0  0  0
   68.6000   33.8160   50.4200 C   0  0  0  0  0  0  0  0  0  0  0  0
   69.0880   35.0020   50.9710 C   0  0  0  0  0  0  0  0  0  0  0  0
   68.2580   35.8020   51.7580 C   0  0  0  0  0  0  0  0  0  0  0  0
   66.9370   35.4170   51.9970 C   0  0  0  0  0  0  0  0  0  0  0  0
   66.4330   34.2200   51.4480 C   0  0  0  0  0  0  0  0  0  0  0  0
   65.1110   33.7930   51.6650 O   0  0  0  0  0  0  0  0  0  0  0  0
   63.9530   34.6270   51.6180 C   0  0  0  0  0  0  0  0  0  0  0  0
   63.0090   34.1690   50.5370 C   0  0  0  0  0  0  0  0  0  0  0  0
   63.4170   34.1430   49.1950 C   0  0  0  0  0  0  0  0  0  0  0  0
   62.5360   33.7160   48.1970 C   0  0  0  0  0  0  0  0  0  0  0  0
   61.2350   33.2960   48.5260 C   0  0  0  0  0  0  0  0  0  0  0  0
   60.3000   32.8390   47.4680 C   0  0  0  0  0  0  0  0  0  0  0  0
   59.7700   33.7520   46.5400 C   0  0  0  0  0  0  0  0  0  0  0  0
   58.8860   33.3220   45.5470 C   0  0  0  0  0  0  0  0  0  0  0  0
   58.5230   31.9740   45.4610 C   0  0  0  0  0  0  0  0  0  0  0  0
   57.3760   31.4570   44.2290 S   0  0  0  0  0  0  0  0  0  0  0  0
   55.9800   31.6040   44.7650 O   0  0  0  0  0  0  0  0  0  0  0  0
   57.5110   32.3060   42.9960 O   0  0  0  0  0  0  0  0  0  0  0  0
   57.6680   29.7890   43.8310 N   0  0  0  0  0  0  0  0  0  0  0  0
   57.6250   28.9250   45.0290 C   0  0  1  0  0  0  0  0  0  0  0  0
   56.2010   28.4800   45.2070 C   0  0  0  0  0  0  0  0  0  0  0  0
   55.2500   29.2350   44.8690 O   0  0  0  0  0  0  0  0  0  0  0  0
   55.9250   27.2370   45.7640 O   0  0  0  0  0  0  0  0  0  0  0  0
   58.5990   27.7100   44.9180 C   0  0  0  0  0  0  0  0  0  0  0  0
   58.1170   26.6820   43.8770 C   0  0  0  0  0  0  0  0  0  0  0  0
   58.7580   27.0010   46.2750 C   0  0  0  0  0  0  0  0  0  0  0  0
   59.0450   31.0570   46.3840 C   0  0  0  0  0  0  0  0  0  0  0  0
   59.9270   31.4850   47.3800 C   0  0  0  0  0  0  0  0  0  0  0  0
   60.8360   33.3100   49.8740 C   0  0  0  0  0  0  0  0  0  0  0  0
   61.7160   33.7420   50.8700 C   0  0  0  0  0  0  0  0  0  0  0  0
   66.3605   31.3770   51.9623 H   0  0  0  0  0  0  0  0  0  0  0  0
   65.1959   30.9650   50.6582 H   0  0  0  0  0  0  0  0  0  0  0  0
   66.8384   30.2378   50.6582 H   0  0  0  0  0  0  0  0  0  0  0  0
   69.2583   33.1892   49.8005 H   0  0  0  0  0  0  0  0  0  0  0  0
   70.1284   35.3067   50.7847 H   0  0  0  0  0  0  0  0  0  0  0  0
   68.6448   36.7366   52.1904 H   0  0  0  0  0  0  0  0  0  0  0  0
   66.2861   36.0510   52.6169 H   0  0  0  0  0  0  0  0  0  0  0  0
   63.4378   34.5842   52.5889 H   0  0  0  0  0  0  0  0  0  0  0  0
   64.2687   35.6575   51.3979 H   0  0  0  0  0  0  0  0  0  0  0  0
   64.4355   34.4603   48.9266 H   0  0  0  0  0  0  0  0  0  0  0  0
   62.8629   33.7085   47.1467 H   0  0  0  0  0  0  0  0  0  0  0  0
   60.0534   34.8134   46.5959 H   0  0  0  0  0  0  0  0  0  0  0  0
   58.4737   34.0469   44.8297 H   0  0  0  0  0  0  0  0  0  0  0  0
   58.5760   29.7260   43.3180 H   0  0  0  0  0  0  0  0  0  0  0  0
   57.9650   29.4899   45.9095 H   0  0  0  0  0  0  0  0  0  0  0  0
   59.5689   28.1169   44.5958 H   0  0  0  0  0  0  0  0  0  0  0  0
   57.7047   25.8027   44.3936 H   0  0  0  0  0  0  0  0  0  0  0  0
   57.3378   27.1359   43.2470 H   0  0  0  0  0  0  0  0  0  0  0  0
   58.9642   26.3733   43.2470 H   0  0  0  0  0  0  0  0  0  0  0  0
   58.5958   27.7242   47.0878 H   0  0  0  0  0  0  0  0  0  0  0  0
   58.0195   26.1895   46.3535 H   0  0  0  0  0  0  0  0  0  0  0  0
   59.7723   26.5826   46.3535 H   0  0  0  0  0  0  0  0  0  0  0  0
   58.7593   29.9965   46.3241 H   0  0  0  0  0  0  0  0  0  0  0  0
   60.3323   30.7587   48.0999 H   0  0  0  0  0  0  0  0  0  0  0  0
   59.8233   32.9784   50.1469 H   0  0  0  0  0  0  0  0  0  0  0  0
   61.3922   33.7470   51.9212 H   0  0  0  0  0  0  0  0  0  0  0  0
  1  2  1  0
  2  3  1  0
  3  4  2  0
  4  5  1  0
  5  6  2  0
  6  7  1  0
  7  8  2  0
  8  9  1  0
  9 10  1  0
 10 11  1  0
 11 12  2  0
 12 13  1  0
 13 14  2  0
 14 15  1  0
 15 16  2  0
 16 17  1  0
 17 18  2  0
 18 19  1  0
 19 20  2  0
 19 21  2  0
 19 22  1  0
 22 23  1  0
 23 24  1  0
 24 25  2  0
 24 26  1  0
 23 27  1  0
 27 28  1  0
 27 29  1  0
 18 30  1  0
 30 31  2  0
 14 32  1  0
 32 33  2  0
  8  3  1  0
 33 11  1  0
 31 15  1  0
  1 34  1  0
  1 35  1  0
  1 36  1  0
  4 37  1  0
  5 38  1  0
  6 39  1  0
  7 40  1  0
 10 41  1  0
 10 42  1  0
 12 43  1  0
 13 44  1  0
 16 45  1  0
 17 46  1  0
 22 47  1  0
 23 48  1  1
 27 49  1  0
 28 50  1  0
 28 51  1  0
 28 52  1  0
 29 53  1  0
 29 54  1  0
 29 55  1  0
 30 56  1  0
 31 57  1  0
 32 58  1  0
 33 59  1  0
M  CHG  1  26  -1
M  END
>  <UniqueID>  (53) 
48

>  <SMILES>  (53) 
COc1ccccc1OCc1ccc(-c2ccc(S(=O)(=O)N[C@@H](C(=O)[O-])C(C)C)cc2)cc1

>  <Energy>  (53) 
62.97933300309528

>  <Genealogy>  (53) 
COc1ccccc1OCc1ccc(-c2ccc(S(=O)(=O)NC(C(=O)[O-])C(C)C)cc2)cc1 (protonated)
COc1ccccc1OCc1ccc(-c2ccc(S(=O)(=O)N[C@@H](C(=O)[O-])C(C)C)cc2)cc1 (chirality)
COc1ccccc1OCc1ccc(-c2ccc(S(=O)(=O)N[C@@H](C(=O)[O-])C(C)C)cc2)cc1 (3D coordinates assigned)
COc1ccccc1OCc1ccc(-c2ccc(S(=O)(=O)N[C@@H](C(=O)[O-])C(C)C)cc2)cc1 (optimized conformer: 62.97933300309528 kcal/mol)

>  <smiles>  (53) 
COc1ccccc1OCc1ccc(-c2ccc(S(=O)(=O)NC(C(=O)O)C(C)C)cc2)cc1

>  <score_type>  (53) 
oracle

>  <origin>  (53) 
adg

>  <m_score__min__energy>  (53) 
-11.85

>  <m_primary>  (53) 
energy

$$$$
53:0
     RDKit          3D

 50 54  0  0  1  0  0  0  0  0999 V2000
   57.2080   31.6620   41.8540 C   0  0  0  0  0  0  0  0  0  0  0  0
   56.6430   30.4630   42.6250 C   0  0  0  0  0  0  0  0  0  0  0  0
   57.5000   30.2180   43.8100 C   0  0  0  0  0  0  0  0  0  0  0  0
   58.2790   29.1070   43.9560 N   0  0  0  0  0  0  0  0  0  0  0  0
   58.9110   29.1750   45.1130 C   0  0  0  0  0  0  0  0  0  0  0  0
   59.7960   28.2960   45.6980 C   0  0  0  0  0  0  0  0  0  0  0  0
   60.3360   28.5750   46.9310 C   0  0  0  0  0  0  0  0  0  0  0  0
   59.9560   29.7540   47.5410 C   0  0  0  0  0  0  0  0  0  0  0  0
   60.5150   30.0500   48.8280 N   0  0  0  0  0  0  0  0  0  0  0  0
   60.6140   31.2810   49.1950 C   0  0  0  0  0  0  0  0  0  0  0  0
   59.7720   31.8000   50.1180 N   0  0  0  0  0  0  0  0  0  0  0  0
   59.8590   33.0880   50.5150 C   0  0  0  0  0  0  0  0  0  0  0  0
   60.7950   33.9120   50.0060 N   0  0  0  0  0  0  0  0  0  0  0  0
   61.6560   33.4220   49.0770 C   0  0  0  0  0  0  0  0  0  0  0  0
   62.6320   34.2170   48.5230 C   0  0  0  0  0  0  0  0  0  0  0  0
   63.5090   33.7010   47.5710 C   0  0  0  0  0  0  0  0  0  0  0  0
   63.4240   32.3800   47.1590 C   0  0  0  0  0  0  0  0  0  0  0  0
   62.4390   31.5690   47.7150 C   0  0  0  0  0  0  0  0  0  0  0  0
   61.5690   32.1010   48.6670 C   0  0  0  0  0  0  0  0  0  0  0  0
   59.0660   30.6310   46.9460 C   0  0  0  0  0  0  0  0  0  0  0  0
   58.5170   30.3600   45.7030 C   0  0  0  0  0  0  0  0  0  0  0  0
   57.6380   31.0100   44.8920 N   0  0  0  0  0  0  0  0  0  0  0  0
   57.0280   32.2830   45.1990 C   0  0  0  0  0  0  0  0  0  0  0  0
   57.9700   33.3140   45.6760 C   0  0  0  0  0  0  0  0  0  0  0  0
   58.1300   33.6220   47.0190 C   0  0  0  0  0  0  0  0  0  0  0  0
   59.0040   34.5870   47.4710 C   0  0  0  0  0  0  0  0  0  0  0  0
   59.7790   35.3080   46.5890 C   0  0  0  0  0  0  0  0  0  0  0  0
   59.6440   35.0270   45.2560 C   0  0  0  0  0  0  0  0  0  0  0  0
   58.7670   34.0580   44.8020 C   0  0  0  0  0  0  0  0  0  0  0  0
   57.5654   32.4204   42.5661 H   0  0  0  0  0  0  0  0  0  0  0  0
   58.0444   31.3300   41.2214 H   0  0  0  0  0  0  0  0  0  0  0  0
   56.4195   32.0957   41.2214 H   0  0  0  0  0  0  0  0  0  0  0  0
   55.6150   30.6819   42.9496 H   0  0  0  0  0  0  0  0  0  0  0  0
   56.6300   29.5725   41.9793 H   0  0  0  0  0  0  0  0  0  0  0  0
   60.0715   27.3675   45.1765 H   0  0  0  0  0  0  0  0  0  0  0  0
   61.0440   27.8851   47.4134 H   0  0  0  0  0  0  0  0  0  0  0  0
   59.0250   31.1910   50.5420 H   0  0  0  0  0  0  0  0  0  0  0  0
   59.1533   33.4707   51.2670 H   0  0  0  0  0  0  0  0  0  0  0  0
   62.7210   35.2684   48.8339 H   0  0  0  0  0  0  0  0  0  0  0  0
   64.2822   34.3532   47.1388 H   0  0  0  0  0  0  0  0  0  0  0  0
   64.1212   31.9808   46.4076 H   0  0  0  0  0  0  0  0  0  0  0  0
   62.3472   30.5172   47.4063 H   0  0  0  0  0  0  0  0  0  0  0  0
   58.7898   31.5587   47.4686 H   0  0  0  0  0  0  0  0  0  0  0  0
   56.5400   32.6588   44.2876 H   0  0  0  0  0  0  0  0  0  0  0  0
   56.3209   32.1007   46.0217 H   0  0  0  0  0  0  0  0  0  0  0  0
   57.5310   33.0699   47.7582 H   0  0  0  0  0  0  0  0  0  0  0  0
   59.0839   34.7842   48.5502 H   0  0  0  0  0  0  0  0  0  0  0  0
   60.4790   36.0795   46.9422 H   0  0  0  0  0  0  0  0  0  0  0  0
   60.2486   35.5862   44.5268 H   0  0  0  0  0  0  0  0  0  0  0  0
   58.6950   33.8676   43.7210 H   0  0  0  0  0  0  0  0  0  0  0  0
  1  2  1  0
  2  3  1  0
  3  4  2  0
  4  5  1  0
  5  6  2  0
  6  7  1  0
  7  8  2  0
  8  9  1  0
  9 10  2  0
 10 11  1  0
 11 12  1  0
 12 13  2  0
 13 14  1  0
 14 15  2  0
 15 16  1  0
 16 17  2  0
 17 18  1  0
 18 19  2  0
  8 20  1  0
 20 21  2  0
 21 22  1  0
 22 23  1  0
 23 24  1  0
 24 25  2  0
 25 26  1  0
 26 27  2  0
 27 28  1  0
 28 29  2  0
 22  3  1  0
 29 24  1  0
 21  5  1  0
 19 10  1  0
 19 14  1  0
  1 30  1  0
  1 31  1  0
  1 32  1  0
  2 33  1  0
  2 34  1  0
  6 35  1  0
  7 36  1  0
 11 37  1  0
 12 38  1  0
 15 39  1  0
 16 40  1  0
 17 41  1  0
 18 42  1  0
 20 43  1  0
 23 44  1  0
 23 45  1  0
 25 46  1  0
 26 47  1  0
 27 48  1  0
 28 49  1  0
 29 50  1  0
M  END
>  <smiles>  (54) 
CCc1nc2ccc(N=c3[nH]cnc4ccccc34)cc2n1Cc1ccccc1

>  <score_type>  (54) 
oracle

>  <origin>  (54) 
adg

>  <m_score__min__energy>  (54) 
-8.6400000000000006

>  <m_primary>  (54) 
energy

$$$$
54:0
     RDKit          3D

 44 46  0  0  0  0  0  0  0  0999 V2000
   56.3090   30.0950   43.4480 C   0  0  0  0  0  0  0  0  0  0  0  0
   57.3290   31.0210   44.1000 C   0  0  0  0  0  0  0  0  0  0  0  0
   56.6770   32.0030   44.9030 O   0  0  0  0  0  0  0  0  0  0  0  0
   57.3630   32.9780   45.6380 C   0  0  0  0  0  0  0  0  0  0  0  0
   57.0310   33.2360   46.8270 O   0  0  0  0  0  0  0  0  0  0  0  0
   58.4730   33.7150   45.0150 C   0  0  0  0  0  0  0  0  0  0  0  0
   58.8000   33.4580   43.8240 O   0  0  0  0  0  0  0  0  0  0  0  0
   59.2380   34.7520   45.7810 C   0  0  0  0  0  0  0  0  0  0  0  0
   60.8270   34.0800   46.3790 S   0  0  0  0  0  0  0  0  0  0  0  0
   60.0970   33.1750   47.7480 C   0  0  0  0  0  0  0  0  0  0  0  0
   59.8810   33.8040   48.9370 N   0  0  0  0  0  0  0  0  0  0  0  0
   59.3170   33.1440   49.9930 C   0  0  0  0  0  0  0  0  0  0  0  0
   59.1000   33.8110   51.2040 C   0  0  0  0  0  0  0  0  0  0  0  0
   58.5200   33.1340   52.2820 C   0  0  0  0  0  0  0  0  0  0  0  0
   58.1540   31.7890   52.1570 C   0  0  0  0  0  0  0  0  0  0  0  0
   58.3650   31.1090   50.9530 C   0  0  0  0  0  0  0  0  0  0  0  0
   58.9460   31.7820   49.8690 C   0  0  0  0  0  0  0  0  0  0  0  0
   59.1870   31.1740   48.6350 C   0  0  0  0  0  0  0  0  0  0  0  0
   58.9070   29.8940   48.3050 N   0  0  0  0  0  0  0  0  0  0  0  0
   59.3220   29.8080   47.0170 C   0  0  0  0  0  0  0  0  0  0  0  0
   59.2100   28.5530   46.1930 C   0  0  0  0  0  0  0  0  0  0  0  0
   59.9200   28.7240   44.8470 C   0  0  0  0  0  0  0  0  0  0  0  0
   57.7410   28.1660   45.9960 C   0  0  0  0  0  0  0  0  0  0  0  0
   59.8400   31.0220   46.5940 C   0  0  0  0  0  0  0  0  0  0  0  0
   59.7450   31.8680   47.6310 N   0  0  0  0  0  0  0  0  0  0  0  0
   55.7351   29.5740   44.2286 H   0  0  0  0  0  0  0  0  0  0  0  0
   55.6241   30.6863   42.8224 H   0  0  0  0  0  0  0  0  0  0  0  0
   56.8316   29.3563   42.8224 H   0  0  0  0  0  0  0  0  0  0  0  0
   58.0036   30.4263   44.7335 H   0  0  0  0  0  0  0  0  0  0  0  0
   57.8991   31.5317   43.3099 H   0  0  0  0  0  0  0  0  0  0  0  0
   59.4351   35.6123   45.1244 H   0  0  0  0  0  0  0  0  0  0  0  0
   58.6380   35.0611   46.6496 H   0  0  0  0  0  0  0  0  0  0  0  0
   59.3856   34.8681   51.3082 H   0  0  0  0  0  0  0  0  0  0  0  0
   58.3508   33.6613   53.2324 H   0  0  0  0  0  0  0  0  0  0  0  0
   57.6983   31.2642   53.0096 H   0  0  0  0  0  0  0  0  0  0  0  0
   58.0766   30.0518   50.8572 H   0  0  0  0  0  0  0  0  0  0  0  0
   59.7068   27.7356   46.7362 H   0  0  0  0  0  0  0  0  0  0  0  0
   60.9762   28.9784   45.0193 H   0  0  0  0  0  0  0  0  0  0  0  0
   59.8572   27.7850   44.2774 H   0  0  0  0  0  0  0  0  0  0  0  0
   59.4366   29.5314   44.2774 H   0  0  0  0  0  0  0  0  0  0  0  0
   57.2604   28.0394   46.9773 H   0  0  0  0  0  0  0  0  0  0  0  0
   57.2251   28.9589   45.4346 H   0  0  0  0  0  0  0  0  0  0  0  0
   57.6827   27.2218   45.4346 H   0  0  0  0  0  0  0  0  0  0  0  0
   60.2503   31.2485   45.5988 H   0  0  0  0  0  0  0  0  0  0  0  0
  1  2  1  0
  2  3  1  0
  3  4  1  0
  4  5  2  0
  4  6  1  0
  6  7  2  0
  6  8  1  0
  8  9  1  0
  9 10  1  0
 10 11  2  0
 11 12  1  0
 12 13  2  0
 13 14  1  0
 14 15  2  0
 15 16  1  0
 16 17  2  0
 17 18  1  0
 18 19  2  0
 19 20  1  0
 20 21  1  0
 21 22  1  0
 21 23  1  0
 20 24  2  0
 24 25  1  0
 25 10  1  0
 17 12  1  0
 25 18  1  0
  1 26  1  0
  1 27  1  0
  1 28  1  0
  2 29  1  0
  2 30  1  0
  8 31  1  0
  8 32  1  0
 13 33  1  0
 14 34  1  0
 15 35  1  0
 16 36  1  0
 21 37  1  0
 22 38  1  0
 22 39  1  0
 22 40  1  0
 23 41  1  0
 23 42  1  0
 23 43  1  0
 24 44  1  0
M  END
>  <UniqueID>  (55) 
49

>  <SMILES>  (55) 
CCOC(=O)C(=O)CSc1nc2ccccc2c2nc(C(C)C)cn12

>  <Energy>  (55) 
68.46302357877968

>  <Genealogy>  (55) 
CCOC(=O)C(=O)CSc1nc2ccccc2c2nc(C(C)C)cn12 (3D coordinates assigned)
CCOC(=O)C(=O)CSc1nc2ccccc2c2nc(C(C)C)cn12 (optimized conformer: 68.46302357877968 kcal/mol)

>  <smiles>  (55) 
CCOC(=O)C(=O)CSc1nc2ccccc2c2nc(C(C)C)cn12

>  <score_type>  (55) 
oracle

>  <origin>  (55) 
adg

>  <m_score__min__energy>  (55) 
-7.5700000000000003

>  <m_primary>  (55) 
energy

$$$$
55:0
     RDKit          3D

 36 38  0  0  0  0  0  0  0  0999 V2000
   56.3412   21.1866   41.6173 H   0  0  0  0  0  0  0  0  0  0  0  0
   56.6500   21.5460   42.6100 C   0  0  0  0  0  0  0  0  0  0  0  0
   55.9010   22.4200   43.3340 N   0  0  0  0  0  0  0  0  0  0  0  0
   56.4830   22.7140   44.5150 C   0  0  0  0  0  0  0  0  0  0  0  0
   55.9440   23.5290   45.3680 N   0  0  0  0  0  0  0  0  0  0  0  0
   56.8390   24.4750   46.5130 S   0  0  0  0  0  0  0  0  0  0  0  0
   56.0050   24.7200   47.7390 O   0  0  0  0  0  0  0  0  0  0  0  0
   58.0970   23.7510   46.9060 O   0  0  0  0  0  0  0  0  0  0  0  0
   57.2600   26.0160   45.7720 C   0  0  0  0  0  0  0  0  0  0  0  0
   57.5200   26.0870   44.3970 C   0  0  0  0  0  0  0  0  0  0  0  0
   57.4713   25.1761   43.7822 H   0  0  0  0  0  0  0  0  0  0  0  0
   57.8410   27.3110   43.8040 C   0  0  0  0  0  0  0  0  0  0  0  0
   58.0361   27.3603   42.7226 H   0  0  0  0  0  0  0  0  0  0  0  0
   57.9160   28.4800   44.5820 C   0  0  0  0  0  0  0  0  0  0  0  0
   58.2210   29.7560   43.9940 N   0  0  0  0  0  0  0  0  0  0  0  0
   59.0610   29.8230   43.3750 H   0  0  0  0  0  0  0  0  0  0  0  0
   57.3770   30.9150   44.0970 C   0  0  0  0  0  0  0  0  0  0  0  0
   56.2020   30.8160   44.5450 O   0  0  0  0  0  0  0  0  0  0  0  0
   57.8570   32.2360   43.5830 C   0  0  0  0  0  0  0  0  0  0  0  0
   58.7074   32.0757   42.9040 H   0  0  0  0  0  0  0  0  0  0  0  0
   57.0377   32.7332   43.0430 H   0  0  0  0  0  0  0  0  0  0  0  0
   58.2900   33.1010   44.7240 C   0  0  0  0  0  0  0  0  0  0  0  0
   57.7690   32.9440   46.3140 S   0  0  0  0  0  0  0  0  0  0  0  0
   58.5960   34.2820   46.9090 C   0  0  0  0  0  0  0  0  0  0  0  0
   58.5949   34.6278   47.9532 H   0  0  0  0  0  0  0  0  0  0  0  0
   59.2810   34.8760   45.8560 C   0  0  0  0  0  0  0  0  0  0  0  0
   59.9028   35.7758   45.9737 H   0  0  0  0  0  0  0  0  0  0  0  0
   59.1050   34.2210   44.6310 C   0  0  0  0  0  0  0  0  0  0  0  0
   59.5654   34.5593   43.6910 H   0  0  0  0  0  0  0  0  0  0  0  0
   57.6230   28.4070   45.9530 C   0  0  0  0  0  0  0  0  0  0  0  0
   57.6462   29.3202   46.5658 H   0  0  0  0  0  0  0  0  0  0  0  0
   57.3020   27.1820   46.5450 C   0  0  0  0  0  0  0  0  0  0  0  0
   57.0817   27.1343   47.6217 H   0  0  0  0  0  0  0  0  0  0  0  0
   57.9480   21.9020   44.7100 S   0  0  0  0  0  0  0  0  0  0  0  0
   57.8350   21.1390   43.2150 C   0  0  0  0  0  0  0  0  0  0  0  0
   58.5701   20.4399   42.7897 H   0  0  0  0  0  0  0  0  0  0  0  0
  1  2  1  0
  2  3  1  0
  3  4  1  0
  4  5  2  0
  5  6  1  0
  6  7  2  0
  6  8  2  0
  6  9  1  0
  9 10  2  0
 10 11  1  0
 10 12  1  0
 12 13  1  0
 12 14  2  0
 14 15  1  0
 15 16  1  0
 15 17  1  0
 17 18  2  0
 17 19  1  0
 19 20  1  0
 19 21  1  0
 19 22  1  0
 22 23  1  0
 23 24  1  0
 24 25  1  0
 24 26  2  0
 26 27  1  0
 26 28  1  0
 28 29  1  0
 14 30  1  0
 30 31  1  0
 30 32  2  0
 32 33  1  0
  4 34  1  0
 34 35  1  0
 35 36  1  0
 35  2  2  0
 32  9  1  0
 28 22  2  0
M  CHG  1   3  -1
M  END
>  <UniqueID>  (56) 
50

>  <SMILES>  (56) 
O=C(Cc1cccs1)Nc1ccc(S(=O)(=O)/N=c2/[n-]ccs2)cc1

>  <Energy>  (56) 
99.07735350833083

>  <Genealogy>  (56) 
O=C(Cc1cccs1)Nc1ccc(S(=O)(=O)N=c2[n-]ccs2)cc1 (protonated)
O=C(Cc1cccs1)Nc1ccc(S(=O)(=O)/N=c2/[n-]ccs2)cc1 (cis-trans isomerization)
O=C(Cc1cccs1)Nc1ccc(S(=O)(=O)/N=c2/[n-]ccs2)cc1 (3D coordinates assigned)
O=C(Cc1cccs1)Nc1ccc(S(=O)(=O)/N=c2/[n-]ccs2)cc1 (optimized conformer: 99.07735350833083 kcal/mol)

>  <smiles>  (56) 
O=C(Cc1cccs1)Nc1ccc(S(=O)(=O)N=c2[nH]ccs2)cc1

>  <score_type>  (56) 
oracle

>  <origin>  (56) 
adg

>  <m_score__min__energy>  (56) 
-10.18

>  <m_primary>  (56) 
energy

$$$$
56:0
     RDKit          3D

 46 49  0  0  0  0  0  0  0  0999 V2000
   60.5830   27.2600   48.8400 C   0  0  0  0  0  0  0  0  0  0  0  0
   60.5230   27.5910   47.4560 O   0  0  0  0  0  0  0  0  0  0  0  0
   59.3750   28.0700   46.8070 C   0  0  0  0  0  0  0  0  0  0  0  0
   58.3630   27.2110   46.3140 C   0  0  0  0  0  0  0  0  0  0  0  0
   57.2280   27.7360   45.6600 C   0  0  0  0  0  0  0  0  0  0  0  0
   57.0820   29.1270   45.4850 C   0  0  0  0  0  0  0  0  0  0  0  0
   55.9760   29.7020   44.8420 O   0  0  0  0  0  0  0  0  0  0  0  0
   55.9480   30.0710   43.4660 C   0  0  0  0  0  0  0  0  0  0  0  0
   58.0910   29.9510   45.9850 C   0  0  0  0  0  0  0  0  0  0  0  0
   58.1670   31.6290   45.9810 S   0  0  0  0  0  0  0  0  0  0  0  0
   59.6530   31.6510   46.8010 C   0  0  0  0  0  0  0  0  0  0  0  0
   60.3030   32.8480   47.2740 N   0  0  0  0  0  0  0  0  0  0  0  0
   61.5520   33.3340   46.6710 C   0  0  0  0  0  0  0  0  0  0  0  0
   62.6310   33.4610   47.7570 C   0  0  0  0  0  0  0  0  0  0  0  0
   62.0710   33.9860   49.0180 N   0  0  0  0  0  0  0  0  0  0  0  0
   62.6670   33.6170   50.2850 C   0  0  0  0  0  0  0  0  0  0  0  0
   61.9310   33.4640   51.2980 O   0  0  0  0  0  0  0  0  0  0  0  0
   64.1190   33.3680   50.4360 C   0  0  0  0  0  0  0  0  0  0  0  0
   64.8320   32.3560   49.7930 C   0  0  0  0  0  0  0  0  0  0  0  0
   66.1930   32.3390   50.1280 C   0  0  0  0  0  0  0  0  0  0  0  0
   66.5610   33.3220   51.0390 C   0  0  0  0  0  0  0  0  0  0  0  0
   65.1870   34.2060   51.4320 S   0  0  0  0  0  0  0  0  0  0  0  0
   60.7300   34.5910   48.9850 C   0  0  0  0  0  0  0  0  0  0  0  0
   59.7310   33.5730   48.4180 C   0  0  0  0  0  0  0  0  0  0  0  0
   60.0840   30.3950   47.0830 N   0  0  0  0  0  0  0  0  0  0  0  0
   59.2130   29.4510   46.6320 C   0  0  0  0  0  0  0  0  0  0  0  0
   60.4187   28.1664   49.4412 H   0  0  0  0  0  0  0  0  0  0  0  0
   59.8046   26.5188   49.0738 H   0  0  0  0  0  0  0  0  0  0  0  0
   61.5721   26.8392   49.0738 H   0  0  0  0  0  0  0  0  0  0  0  0
   58.4626   26.1230   46.4421 H   0  0  0  0  0  0  0  0  0  0  0  0
   56.4510   27.0542   45.2838 H   0  0  0  0  0  0  0  0  0  0  0  0
   55.8650   31.1646   43.3813 H   0  0  0  0  0  0  0  0  0  0  0  0
   56.8743   29.7346   42.9772 H   0  0  0  0  0  0  0  0  0  0  0  0
   55.0831   29.5987   42.9772 H   0  0  0  0  0  0  0  0  0  0  0  0
   61.8883   32.6233   45.9017 H   0  0  0  0  0  0  0  0  0  0  0  0
   61.3779   34.3180   46.2111 H   0  0  0  0  0  0  0  0  0  0  0  0
   63.0669   32.4688   47.9454 H   0  0  0  0  0  0  0  0  0  0  0  0
   63.3978   34.1647   47.4008 H   0  0  0  0  0  0  0  0  0  0  0  0
   64.3722   31.6427   49.0931 H   0  0  0  0  0  0  0  0  0  0  0  0
   66.9052   31.6135   49.7080 H   0  0  0  0  0  0  0  0  0  0  0  0
   67.5737   33.4915   51.4335 H   0  0  0  0  0  0  0  0  0  0  0  0
   60.4287   34.8736   50.0045 H   0  0  0  0  0  0  0  0  0  0  0  0
   60.7448   35.4881   48.3487 H   0  0  0  0  0  0  0  0  0  0  0  0
   59.4683   32.8512   49.2053 H   0  0  0  0  0  0  0  0  0  0  0  0
   58.8373   34.1153   48.0755 H   0  0  0  0  0  0  0  0  0  0  0  0
   60.9470   30.1730   47.6250 H   0  0  0  0  0  0  0  0  0  0  0  0
  1  2  1  0
  2  3  1  0
  3  4  2  0
  4  5  1  0
  5  6  2  0
  6  7  1  0
  7  8  1  0
  6  9  1  0
  9 10  1  0
 10 11  1  0
 11 12  1  0
 12 13  1  0
 13 14  1  0
 14 15  1  0
 15 16  1  0
 16 17  2  0
 16 18  1  0
 18 19  2  0
 19 20  1  0
 20 21  2  0
 21 22  1  0
 15 23  1  0
 23 24  1  0
 11 25  2  0
 25 26  1  0
 26  3  1  0
 26  9  2  0
 24 12  1  0
 22 18  1  0
  1 27  1  0
  1 28  1  0
  1 29  1  0
  4 30  1  0
  5 31  1  0
  8 32  1  0
  8 33  1  0
  8 34  1  0
 13 35  1  0
 13 36  1  0
 14 37  1  0
 14 38  1  0
 19 39  1  0
 20 40  1  0
 21 41  1  0
 23 42  1  0
 23 43  1  0
 24 44  1  0
 24 45  1  0
 25 46  1  0
M  CHG  1  25   1
M  END
>  <UniqueID>  (57) 
51

>  <SMILES>  (57) 
COc1ccc(OC)c2sc(N3CCN(C(=O)c4cccs4)CC3)[nH+]c12

>  <Energy>  (57) 
115.35314698660589

>  <Genealogy>  (57) 
COc1ccc(OC)c2sc(N3CCN(C(=O)c4cccs4)CC3)[nH+]c12 (protonated)
COc1ccc(OC)c2sc(N3CCN(C(=O)c4cccs4)CC3)[nH+]c12 (3D coordinates assigned)
COc1ccc(OC)c2sc(N3CCN(C(=O)c4cccs4)CC3)[nH+]c12 (nonaromatic ring conformer: 115.35314698660589 kcal/mol)

>  <smiles>  (57) 
COc1ccc(OC)c2sc(N3CCN(C(=O)c4cccs4)CC3)nc12

>  <score_type>  (57) 
oracle

>  <origin>  (57) 
adg

>  <m_score__min__energy>  (57) 
-5.4500000000000002

>  <m_primary>  (57) 
energy

$$$$
57:0
     RDKit          3D

 25 26  0  0  0  0  0  0  0  0999 V2000
   54.0940   25.1050   45.6180 C   0  0  0  0  0  0  0  0  0  0  0  0
   54.8000   26.2890   45.9750 O   0  0  0  0  0  0  0  0  0  0  0  0
   56.1970   26.3810   46.0770 C   0  0  0  0  0  0  0  0  0  0  0  0
   56.9880   25.3060   46.5320 C   0  0  0  0  0  0  0  0  0  0  0  0
   58.3760   25.4370   46.6130 C   0  0  0  0  0  0  0  0  0  0  0  0
   58.9900   26.6320   46.2340 C   0  0  0  0  0  0  0  0  0  0  0  0
   58.2170   27.7020   45.7800 C   0  0  0  0  0  0  0  0  0  0  0  0
   56.8150   27.5890   45.7130 C   0  0  0  0  0  0  0  0  0  0  0  0
   56.0160   28.6430   45.2450 O   0  0  0  0  0  0  0  0  0  0  0  0
   56.4490   29.6860   44.4150 C   0  0  0  0  0  0  0  0  0  0  0  0
   56.4000   29.5980   43.0140 C   0  0  0  0  0  0  0  0  0  0  0  0
   56.8550   30.6330   42.2610 N   0  0  0  0  0  0  0  0  0  0  0  0
   57.3660   31.7530   42.8370 C   0  0  0  0  0  0  0  0  0  0  0  0
   57.7760   32.6990   42.1120 O   0  0  0  0  0  0  0  0  0  0  0  0
   57.4330   31.8390   44.2320 C   0  0  0  0  0  0  0  0  0  0  0  0
   58.1530   33.3820   45.1010 Br  0  0  0  0  0  0  0  0  0  0  0  0
   56.9780   30.8020   44.9830 N   0  0  0  0  0  0  0  0  0  0  0  0
   53.7791   24.5768   46.5300 H   0  0  0  0  0  0  0  0  0  0  0  0
   53.2074   25.3718   45.0241 H   0  0  0  0  0  0  0  0  0  0  0  0
   54.7502   24.4518   45.0241 H   0  0  0  0  0  0  0  0  0  0  0  0
   56.5095   24.3597   46.8245 H   0  0  0  0  0  0  0  0  0  0  0  0
   58.9865   24.5971   46.9761 H   0  0  0  0  0  0  0  0  0  0  0  0
   60.0840   26.7306   46.2932 H   0  0  0  0  0  0  0  0  0  0  0  0
   58.7057   28.6384   45.4729 H   0  0  0  0  0  0  0  0  0  0  0  0
   55.9958   28.6968   42.5297 H   0  0  0  0  0  0  0  0  0  0  0  0
  1  2  1  0
  2  3  1  0
  3  4  2  0
  4  5  1  0
  5  6  2  0
  6  7  1  0
  7  8  2  0
  8  9  1  0
  9 10  1  0
 10 11  2  0
 11 12  1  0
 12 13  1  0
 13 14  2  0
 13 15  1  0
 15 16  1  0
 15 17  2  0
  8  3  1  0
 17 10  1  0
  1 18  1  0
  1 19  1  0
  1 20  1  0
  4 21  1  0
  5 22  1  0
  6 23  1  0
  7 24  1  0
 11 25  1  0
M  CHG  1  12  -1
M  END
>  <UniqueID>  (58) 
52

>  <SMILES>  (58) 
COc1ccccc1Oc1c[n-]c(=O)c(Br)n1

>  <Energy>  (58) 
34.34113441721277

>  <Genealogy>  (58) 
COc1ccccc1Oc1c[n-]c(=O)c(Br)n1 (protonated)
COc1ccccc1Oc1c[n-]c(=O)c(Br)n1 (3D coordinates assigned)
COc1ccccc1Oc1c[n-]c(=O)c(Br)n1 (optimized conformer: 34.34113441721277 kcal/mol)

>  <smiles>  (58) 
COc1ccccc1Oc1c[nH]c(=O)c(Br)n1

>  <score_type>  (58) 
oracle

>  <origin>  (58) 
adg

>  <m_score__min__energy>  (58) 
-8.4100000000000001

>  <m_primary>  (58) 
energy

$$$$
58:0
     RDKit          3D

 30 31  0  0  0  0  0  0  0  0999 V2000
   56.6570   21.7630   42.6320 C   0  0  0  0  0  0  0  0  0  0  0  0
   55.6310   22.2560   43.4870 O   0  0  0  0  0  0  0  0  0  0  0  0
   55.8620   22.9190   44.7020 C   0  0  0  0  0  0  0  0  0  0  0  0
   55.5570   24.2820   44.7820 C   0  0  0  0  0  0  0  0  0  0  0  0
   55.7540   24.9920   45.9700 C   0  0  0  0  0  0  0  0  0  0  0  0
   55.4370   26.3910   46.0020 N   0  0  0  0  0  0  0  0  0  0  0  0
   56.3130   27.4640   45.6300 C   0  0  0  0  0  0  0  0  0  0  0  0
   55.8120   28.5160   45.1510 O   0  0  0  0  0  0  0  0  0  0  0  0
   57.7710   27.3950   45.8390 C   0  0  0  0  0  0  0  0  0  0  0  0
   58.4280   26.9580   46.9850 C   0  0  0  0  0  0  0  0  0  0  0  0
   59.8220   27.0370   46.8880 C   0  0  0  0  0  0  0  0  0  0  0  0
   60.2690   27.5460   45.6770 C   0  0  0  0  0  0  0  0  0  0  0  0
   58.9280   27.9000   44.7270 S   0  0  0  0  0  0  0  0  0  0  0  0
   56.3060   24.3350   47.0840 C   0  0  0  0  0  0  0  0  0  0  0  0
   56.6100   22.9630   47.0230 C   0  0  0  0  0  0  0  0  0  0  0  0
   57.1360   22.2620   48.1190 O   0  0  0  0  0  0  0  0  0  0  0  0
   56.3700   21.8250   49.2360 C   0  0  0  0  0  0  0  0  0  0  0  0
   56.3850   22.2640   45.8330 C   0  0  0  0  0  0  0  0  0  0  0  0
   57.4827   21.3663   43.2410 H   0  0  0  0  0  0  0  0  0  0  0  0
   56.2516   20.9614   41.9972 H   0  0  0  0  0  0  0  0  0  0  0  0
   57.0295   22.5804   41.9972 H   0  0  0  0  0  0  0  0  0  0  0  0
   55.1571   24.8017   43.8988 H   0  0  0  0  0  0  0  0  0  0  0  0
   57.9040   26.5873   47.8783 H   0  0  0  0  0  0  0  0  0  0  0  0
   60.4998   26.7248   47.6961 H   0  0  0  0  0  0  0  0  0  0  0  0
   61.3202   27.6927   45.3882 H   0  0  0  0  0  0  0  0  0  0  0  0
   56.5013   24.8975   48.0089 H   0  0  0  0  0  0  0  0  0  0  0  0
   56.8797   22.1158   50.1664 H   0  0  0  0  0  0  0  0  0  0  0  0
   55.3741   22.2909   49.2025 H   0  0  0  0  0  0  0  0  0  0  0  0
   56.2642   20.7306   49.2025 H   0  0  0  0  0  0  0  0  0  0  0  0
   56.6192   21.1905   45.7801 H   0  0  0  0  0  0  0  0  0  0  0  0
  1  2  1  0
  2  3  1  0
  3  4  2  0
  4  5  1  0
  5  6  1  0
  6  7  1  0
  7  8  2  0
  7  9  1  0
  9 10  2  0
 10 11  1  0
 11 12  2  0
 12 13  1  0
  5 14  2  0
 14 15  1  0
 15 16  1  0
 16 17  1  0
 15 18  2  0
 18  3  1  0
 13  9  1  0
  1 19  1  0
  1 20  1  0
  1 21  1  0
  4 22  1  0
 10 23  1  0
 11 24  1  0
 12 25  1  0
 14 26  1  0
 17 27  1  0
 17 28  1  0
 17 29  1  0
 18 30  1  0
M  CHG  1   6  -1
M  END
>  <UniqueID>  (59) 
53

>  <SMILES>  (59) 
COc1cc([N-]C(=O)c2cccs2)cc(OC)c1

>  <Energy>  (59) 
59.69966715137991

>  <Genealogy>  (59) 
COc1cc([N-]C(=O)c2cccs2)cc(OC)c1 (protonated)
COc1cc([N-]C(=O)c2cccs2)cc(OC)c1 (3D coordinates assigned)
COc1cc([N-]C(=O)c2cccs2)cc(OC)c1 (optimized conformer: 59.69966715137991 kcal/mol)

>  <smiles>  (59) 
COc1cc(NC(=O)c2cccs2)cc(OC)c1

>  <score_type>  (59) 
oracle

>  <origin>  (59) 
adg

>  <m_score__min__energy>  (59) 
-7.9400000000000004

>  <m_primary>  (59) 
energy

$$$$
59:0
     RDKit          3D

 27 28  0  0  0  0  0  0  0  0999 V2000
   55.4650   29.3530   44.9820 O   0  0  0  0  0  0  0  0  0  0  0  0
   56.6020   28.8240   44.8370 C   0  0  0  0  0  0  0  0  0  0  0  0
   57.5540   29.4280   43.9480 N   0  0  0  0  0  0  0  0  0  0  0  0
   57.3000   30.7340   43.3380 C   0  0  0  0  0  0  0  0  0  0  0  0
   57.6250   31.8400   44.2980 C   0  0  0  0  0  0  0  0  0  0  0  0
   58.1610   33.0520   43.8370 C   0  0  0  0  0  0  0  0  0  0  0  0
   58.4880   34.0500   44.7580 C   0  0  0  0  0  0  0  0  0  0  0  0
   58.2890   33.8290   46.1220 C   0  0  0  0  0  0  0  0  0  0  0  0
   57.7670   32.6050   46.5460 C   0  0  0  0  0  0  0  0  0  0  0  0
   57.4540   31.6450   45.6350 N   0  0  0  0  0  0  0  0  0  0  0  0
   56.9220   27.5790   45.5750 C   0  0  0  0  0  0  0  0  0  0  0  0
   58.2480   27.2330   45.8920 C   0  0  0  0  0  0  0  0  0  0  0  0
   58.5180   26.0570   46.5940 C   0  0  0  0  0  0  0  0  0  0  0  0
   57.4600   25.2330   46.9840 C   0  0  0  0  0  0  0  0  0  0  0  0
   57.6860   24.1700   47.6170 O   0  0  0  0  0  0  0  0  0  0  0  0
   56.1820   25.5820   46.6840 N   0  0  0  0  0  0  0  0  0  0  0  0
   55.8920   26.7220   46.0020 C   0  0  0  0  0  0  0  0  0  0  0  0
   58.4190   28.9030   43.6860 H   0  0  0  0  0  0  0  0  0  0  0  0
   57.9253   30.8405   42.4393 H   0  0  0  0  0  0  0  0  0  0  0  0
   56.2347   30.7987   43.0716 H   0  0  0  0  0  0  0  0  0  0  0  0
   58.3221   33.2146   42.7611 H   0  0  0  0  0  0  0  0  0  0  0  0
   58.9014   35.0079   44.4093 H   0  0  0  0  0  0  0  0  0  0  0  0
   58.5405   34.6101   46.8545 H   0  0  0  0  0  0  0  0  0  0  0  0
   57.6088   32.4172   47.6182 H   0  0  0  0  0  0  0  0  0  0  0  0
   59.0746   27.8910   45.5858 H   0  0  0  0  0  0  0  0  0  0  0  0
   59.5547   25.7818   46.8378 H   0  0  0  0  0  0  0  0  0  0  0  0
   54.8444   26.9757   45.7827 H   0  0  0  0  0  0  0  0  0  0  0  0
  1  2  2  0
  2  3  1  0
  3  4  1  0
  4  5  1  0
  5  6  2  0
  6  7  1  0
  7  8  2  0
  8  9  1  0
  9 10  2  0
  2 11  1  0
 11 12  1  0
 12 13  2  0
 13 14  1  0
 14 15  2  0
 14 16  1  0
 16 17  1  0
 10  5  1  0
 17 11  2  0
  3 18  1  0
  4 19  1  0
  4 20  1  0
  6 21  1  0
  7 22  1  0
  8 23  1  0
  9 24  1  0
 12 25  1  0
 13 26  1  0
 17 27  1  0
M  CHG  1  16  -1
M  END
>  <UniqueID>  (60) 
54

>  <SMILES>  (60) 
O=C(NCc1ccccn1)c1ccc(=O)[n-]c1

>  <Energy>  (60) 
29.436684120954087

>  <Genealogy>  (60) 
O=C(NCc1ccccn1)c1ccc(=O)[n-]c1 (protonated)
O=C(NCc1ccccn1)c1ccc(=O)[n-]c1 (3D coordinates assigned)
O=C(NCc1ccccn1)c1ccc(=O)[n-]c1 (optimized conformer: 29.436684120954087 kcal/mol)

>  <smiles>  (60) 
O=C(NCc1ccccn1)c1ccc(=O)[nH]c1

>  <score_type>  (60) 
oracle

>  <origin>  (60) 
adg

>  <m_score__min__energy>  (60) 
-8.5399999999999991

>  <m_primary>  (60) 
energy

$$$$
60:0
     RDKit          3D

 28 30  0  0  0  0  0  0  0  0999 V2000
   55.1580   26.5770   45.9960 N   0  0  0  0  0  0  0  0  0  0  0  0
   56.5290   26.8650   45.7250 C   0  0  0  0  0  0  0  0  0  0  0  0
   57.3180   25.9130   45.4800 O   0  0  0  0  0  0  0  0  0  0  0  0
   57.0220   28.2620   45.7290 C   0  0  0  0  0  0  0  0  0  0  0  0
   58.0440   28.6580   46.6100 C   0  0  0  0  0  0  0  0  0  0  0  0
   58.5080   29.9770   46.6110 C   0  0  0  0  0  0  0  0  0  0  0  0
   57.9540   30.9260   45.7400 C   0  0  0  0  0  0  0  0  0  0  0  0
   58.4560   32.3200   45.7310 C   0  0  0  0  0  0  0  0  0  0  0  0
   58.5140   33.0450   44.5240 C   0  0  0  0  0  0  0  0  0  0  0  0
   59.0150   34.3600   44.5240 C   0  0  0  0  0  0  0  0  0  0  0  0
   59.4480   34.9540   45.7170 C   0  0  0  0  0  0  0  0  0  0  0  0
   59.3600   34.2020   46.8860 C   0  0  0  0  0  0  0  0  0  0  0  0
   59.6950   34.6310   48.1190 N   0  0  0  0  0  0  0  0  0  0  0  0
   59.3990   33.5730   48.9100 C   0  0  0  0  0  0  0  0  0  0  0  0
   58.8910   32.5360   48.1490 C   0  0  0  0  0  0  0  0  0  0  0  0
   58.8820   32.9440   46.8680 N   0  0  0  0  0  0  0  0  0  0  0  0
   56.9430   30.5310   44.8500 C   0  0  0  0  0  0  0  0  0  0  0  0
   56.4790   29.2140   44.8470 C   0  0  0  0  0  0  0  0  0  0  0  0
   54.6410   27.0840   46.7480 H   0  0  0  0  0  0  0  0  0  0  0  0
   58.4816   27.9247   47.3034 H   0  0  0  0  0  0  0  0  0  0  0  0
   59.3132   30.2722   47.2998 H   0  0  0  0  0  0  0  0  0  0  0  0
   58.1692   32.5851   43.5861 H   0  0  0  0  0  0  0  0  0  0  0  0
   59.0670   34.9251   43.5817 H   0  0  0  0  0  0  0  0  0  0  0  0
   59.8442   35.9801   45.7298 H   0  0  0  0  0  0  0  0  0  0  0  0
   59.5419   33.5426   50.0003 H   0  0  0  0  0  0  0  0  0  0  0  0
   58.5559   31.5573   48.5230 H   0  0  0  0  0  0  0  0  0  0  0  0
   56.5136   31.2634   44.1506 H   0  0  0  0  0  0  0  0  0  0  0  0
   55.6820   28.9183   44.1489 H   0  0  0  0  0  0  0  0  0  0  0  0
  1  2  1  0
  2  3  2  0
  2  4  1  0
  4  5  2  0
  5  6  1  0
  6  7  2  0
  7  8  1  0
  8  9  2  0
  9 10  1  0
 10 11  2  0
 11 12  1  0
 12 13  2  0
 13 14  1  0
 14 15  2  0
 15 16  1  0
  7 17  1  0
 17 18  2  0
 18  4  1  0
 16  8  1  0
 16 12  1  0
  1 19  1  0
  5 20  1  0
  6 21  1  0
  9 22  1  0
 10 23  1  0
 11 24  1  0
 14 25  1  0
 15 26  1  0
 17 27  1  0
 18 28  1  0
M  CHG  1   1  -1
M  END
>  <UniqueID>  (61) 
55

>  <SMILES>  (61) 
[NH-]C(=O)c1ccc(-c2cccc3nccn23)cc1

>  <Energy>  (61) 
71.7149654648235

>  <Genealogy>  (61) 
[NH-]C(=O)c1ccc(-c2cccc3nccn23)cc1 (protonated)
[NH-]C(=O)c1ccc(-c2cccc3nccn23)cc1 (3D coordinates assigned)
[NH-]C(=O)c1ccc(-c2cccc3nccn23)cc1 (optimized conformer: 71.7149654648235 kcal/mol)

>  <smiles>  (61) 
NC(=O)c1ccc(-c2cccc3nccn23)cc1

>  <score_type>  (61) 
oracle

>  <origin>  (61) 
adg

>  <m_score__min__energy>  (61) 
-9.8000000000000007

>  <m_primary>  (61) 
energy

$$$$
61:0
     RDKit          3D

 45 48  0  0  0  0  0  0  0  0999 V2000
   63.2052   32.1230   50.8280 H   0  0  0  0  0  0  0  0  0  0  0  0
   62.7660   31.7790   49.8800 C   0  0  0  0  0  0  0  0  0  0  0  0
   63.2330   32.2930   48.6660 C   0  0  0  0  0  0  0  0  0  0  0  0
   64.0473   33.0325   48.6589 H   0  0  0  0  0  0  0  0  0  0  0  0
   62.6650   31.8670   47.4610 C   0  0  0  0  0  0  0  0  0  0  0  0
   63.0486   32.2541   46.5055 H   0  0  0  0  0  0  0  0  0  0  0  0
   61.6060   30.9460   47.4700 C   0  0  0  0  0  0  0  0  0  0  0  0
   61.0730   30.4490   46.2390 N   0  0  0  0  0  0  0  0  0  0  0  0
   59.9260   29.8640   46.0220 C   0  0  0  0  0  0  0  0  0  0  0  0
   59.7020   28.6070   46.4690 N   0  0  0  0  0  0  0  0  0  0  0  0
   60.3620   28.0010   47.0080 H   0  0  0  0  0  0  0  0  0  0  0  0
   58.4520   28.3290   46.0740 C   0  0  0  0  0  0  0  0  0  0  0  0
   57.9260   29.4000   45.4180 C   0  0  0  0  0  0  0  0  0  0  0  0
   56.5960   29.3430   44.9850 C   0  0  0  0  0  0  0  0  0  0  0  0
   56.0490   30.2880   44.3610 O   0  0  0  0  0  0  0  0  0  0  0  0
   55.8870   28.2100   45.2450 N   0  0  0  0  0  0  0  0  0  0  0  0
   56.4350   27.1480   45.9110 C   0  0  0  0  0  0  0  0  0  0  0  0
   55.7190   26.1350   46.1320 O   0  0  0  0  0  0  0  0  0  0  0  0
   57.7450   27.1920   46.3320 N   0  0  0  0  0  0  0  0  0  0  0  0
   58.3620   26.0850   47.0760 C   0  0  0  0  0  0  0  0  0  0  0  0
   58.2603   26.2674   48.1560 H   0  0  0  0  0  0  0  0  0  0  0  0
   57.8592   25.1422   46.8144 H   0  0  0  0  0  0  0  0  0  0  0  0
   59.4283   26.0167   46.8144 H   0  0  0  0  0  0  0  0  0  0  0  0
   58.8400   30.4070   45.3730 N   0  0  0  0  0  0  0  0  0  0  0  0
   58.5540   31.8240   45.0810 C   0  0  0  0  0  0  0  0  0  0  0  0
   59.5051   32.3626   44.9574 H   0  0  0  0  0  0  0  0  0  0  0  0
   57.9542   31.8725   44.1602 H   0  0  0  0  0  0  0  0  0  0  0  0
   57.7520   32.4810   46.2140 C   0  0  0  0  0  0  0  0  0  0  0  0
   57.1485   33.2996   45.7948 H   0  0  0  0  0  0  0  0  0  0  0  0
   57.1118   31.7118   46.6705 H   0  0  0  0  0  0  0  0  0  0  0  0
   58.6520   33.0380   47.2860 C   0  0  0  0  0  0  0  0  0  0  0  0
   59.5890   34.0360   46.9750 C   0  0  0  0  0  0  0  0  0  0  0  0
   59.6997   34.3787   45.9356 H   0  0  0  0  0  0  0  0  0  0  0  0
   60.3820   34.5960   47.9810 C   0  0  0  0  0  0  0  0  0  0  0  0
   61.1169   35.3752   47.7306 H   0  0  0  0  0  0  0  0  0  0  0  0
   60.2430   34.1680   49.3040 C   0  0  0  0  0  0  0  0  0  0  0  0
   60.8661   34.6117   50.0945 H   0  0  0  0  0  0  0  0  0  0  0  0
   59.3110   33.1750   49.6220 C   0  0  0  0  0  0  0  0  0  0  0  0
   59.2010   32.8381   50.6633 H   0  0  0  0  0  0  0  0  0  0  0  0
   58.5190   32.6100   48.6180 C   0  0  0  0  0  0  0  0  0  0  0  0
   57.7888   31.8273   48.8716 H   0  0  0  0  0  0  0  0  0  0  0  0
   61.1720   30.3990   48.6850 C   0  0  0  0  0  0  0  0  0  0  0  0
   60.3836   29.6320   48.6921 H   0  0  0  0  0  0  0  0  0  0  0  0
   61.7410   30.8280   49.8890 C   0  0  0  0  0  0  0  0  0  0  0  0
   61.3816   30.4167   50.8438 H   0  0  0  0  0  0  0  0  0  0  0  0
  1  2  1  0
  2  3  2  0
  3  4  1  0
  3  5  1  0
  5  6  1  0
  5  7  2  0
  7  8  1  0
  8  9  2  0
  9 10  1  0
 10 11  1  0
 10 12  1  0
 12 13  2  0
 13 14  1  0
 14 15  2  0
 14 16  1  0
 16 17  1  0
 17 18  2  0
 17 19  1  0
 19 20  1  0
 20 21  1  0
 20 22  1  0
 20 23  1  0
 13 24  1  0
 24 25  1  0
 25 26  1  0
 25 27  1  0
 25 28  1  0
 28 29  1  0
 28 30  1  0
 28 31  1  0
 31 32  2  0
 32 33  1  0
 32 34  1  0
 34 35  1  0
 34 36  2  0
 36 37  1  0
 36 38  1  0
 38 39  1  0
 38 40  2  0
 40 41  1  0
  7 42  1  0
 42 43  1  0
 42 44  2  0
 44 45  1  0
 44  2  1  0
 24  9  1  0
 40 31  1  0
 19 12  1  0
M  CHG  1  16  -1
M  END
>  <UniqueID>  (62) 
56

>  <SMILES>  (62) 
Cn1c(=O)[n-]c(=O)c2c1[nH]/c(=N/c1ccccc1)n2CCc1ccccc1

>  <Energy>  (62) 
105.53011178290298

>  <Genealogy>  (62) 
Cn1c(=O)[n-]c(=O)c2c1[nH]c(=Nc1ccccc1)n2CCc1ccccc1 (protonated)
Cn1c(=O)[n-]c(=O)c2c1[nH]/c(=N/c1ccccc1)n2CCc1ccccc1 (cis-trans isomerization)
Cn1c(=O)[n-]c(=O)c2c1[nH]/c(=N/c1ccccc1)n2CCc1ccccc1 (3D coordinates assigned)
Cn1c(=O)[n-]c(=O)c2c1[nH]/c(=N/c1ccccc1)n2CCc1ccccc1 (optimized conformer: 105.53011178290298 kcal/mol)

>  <smiles>  (62) 
Cn1c(=O)[nH]c(=O)c2c1[nH]c(=Nc1ccccc1)n2CCc1ccccc1

>  <score_type>  (62) 
oracle

>  <origin>  (62) 
adg

>  <m_score__min__energy>  (62) 
-10.119999999999999

>  <m_primary>  (62) 
energy

$$$$
62:0
     RDKit          3D

 57 59  0  0  0  0  0  0  0  0999 V2000
   57.1900   20.7610   46.4530 C   0  0  0  0  0  0  0  0  0  0  0  0
   57.1750   21.9560   47.2270 O   0  0  0  0  0  0  0  0  0  0  0  0
   57.3740   23.2410   46.7020 C   0  0  0  0  0  0  0  0  0  0  0  0
   57.6090   23.4710   45.3340 C   0  0  0  0  0  0  0  0  0  0  0  0
   57.7950   24.7730   44.8590 C   0  0  0  0  0  0  0  0  0  0  0  0
   57.7600   25.8620   45.7430 C   0  0  0  0  0  0  0  0  0  0  0  0
   57.9080   27.2680   45.2260 C   0  0  0  0  0  0  0  0  0  0  0  0
   56.6350   28.0350   45.4530 C   0  0  0  0  0  0  0  0  0  0  0  0
   55.5590   27.4040   45.6270 O   0  0  0  0  0  0  0  0  0  0  0  0
   56.6260   29.4630   45.5720 N   0  0  0  0  0  0  0  0  0  0  0  0
   57.0670   30.3970   44.5760 C   0  0  0  0  0  0  0  0  0  0  0  0
   56.6250   30.3010   43.2450 C   0  0  0  0  0  0  0  0  0  0  0  0
   57.0110   31.2600   42.3030 C   0  0  0  0  0  0  0  0  0  0  0  0
   57.8250   32.3290   42.6860 C   0  0  0  0  0  0  0  0  0  0  0  0
   58.2520   32.4440   44.0110 C   0  0  0  0  0  0  0  0  0  0  0  0
   57.8760   31.4830   44.9600 C   0  0  0  0  0  0  0  0  0  0  0  0
   58.3410   31.5960   46.3110 N   0  0  0  0  0  0  0  0  0  0  0  0
   59.2430   30.5810   46.8590 C   0  0  0  0  0  0  0  0  0  0  0  0
   58.7850   30.1890   48.2640 C   0  0  0  0  0  0  0  0  0  0  0  0
   58.5270   31.3720   49.1010 N   0  0  0  0  0  0  0  0  0  0  0  0
   58.3280   31.1740   50.5160 C   0  0  0  0  0  0  0  0  0  0  0  0
   57.8470   30.0810   50.9240 O   0  0  0  0  0  0  0  0  0  0  0  0
   58.6850   32.2380   51.5330 C   0  0  0  0  0  0  0  0  0  0  0  0
   59.8300   31.7640   52.4340 C   0  0  0  0  0  0  0  0  0  0  0  0
   57.4550   32.6060   52.3680 C   0  0  0  0  0  0  0  0  0  0  0  0
   58.5720   32.7230   48.5140 C   0  0  0  0  0  0  0  0  0  0  0  0
   57.9180   32.7400   47.1250 C   0  0  0  0  0  0  0  0  0  0  0  0
   57.5190   25.6330   47.1050 C   0  0  0  0  0  0  0  0  0  0  0  0
   57.3320   24.3310   47.5800 C   0  0  0  0  0  0  0  0  0  0  0  0
   57.2009   19.8895   47.1242 H   0  0  0  0  0  0  0  0  0  0  0  0
   56.2922   20.7238   45.8184 H   0  0  0  0  0  0  0  0  0  0  0  0
   58.0884   20.7464   45.8184 H   0  0  0  0  0  0  0  0  0  0  0  0
   57.6466   22.6226   44.6348 H   0  0  0  0  0  0  0  0  0  0  0  0
   57.9697   24.9443   43.7866 H   0  0  0  0  0  0  0  0  0  0  0  0
   58.7331   27.7662   45.7560 H   0  0  0  0  0  0  0  0  0  0  0  0
   58.1233   27.2359   44.1478 H   0  0  0  0  0  0  0  0  0  0  0  0
   55.9729   29.4682   42.9431 H   0  0  0  0  0  0  0  0  0  0  0  0
   56.6735   31.1726   41.2597 H   0  0  0  0  0  0  0  0  0  0  0  0
   58.1300   33.0809   41.9433 H   0  0  0  0  0  0  0  0  0  0  0  0
   58.8856   33.2917   44.3109 H   0  0  0  0  0  0  0  0  0  0  0  0
   59.2318   29.6931   46.2098 H   0  0  0  0  0  0  0  0  0  0  0  0
   60.2632   30.9892   46.9091 H   0  0  0  0  0  0  0  0  0  0  0  0
   57.8601   29.5986   48.1860 H   0  0  0  0  0  0  0  0  0  0  0  0
   59.5874   29.6028   48.7358 H   0  0  0  0  0  0  0  0  0  0  0  0
   59.0242   33.1359   50.9957 H   0  0  0  0  0  0  0  0  0  0  0  0
   59.5405   31.8838   53.4884 H   0  0  0  0  0  0  0  0  0  0  0  0
   60.0422   30.7041   52.2302 H   0  0  0  0  0  0  0  0  0  0  0  0
   60.7293   32.3638   52.2302 H   0  0  0  0  0  0  0  0  0  0  0  0
   57.7022   32.5320   53.4373 H   0  0  0  0  0  0  0  0  0  0  0  0
   57.1471   33.6356   52.1332 H   0  0  0  0  0  0  0  0  0  0  0  0
   56.6322   31.9147   52.1332 H   0  0  0  0  0  0  0  0  0  0  0  0
   58.0344   33.4201   49.1735 H   0  0  0  0  0  0  0  0  0  0  0  0
   59.6244   33.0257   48.4102 H   0  0  0  0  0  0  0  0  0  0  0  0
   56.8251   32.7069   47.2454 H   0  0  0  0  0  0  0  0  0  0  0  0
   58.2308   33.6606   46.6105 H   0  0  0  0  0  0  0  0  0  0  0  0
   57.4768   26.4817   47.8035 H   0  0  0  0  0  0  0  0  0  0  0  0
   57.1505   24.1619   48.6517 H   0  0  0  0  0  0  0  0  0  0  0  0
  1  2  1  0
  2  3  1  0
  3  4  2  0
  4  5  1  0
  5  6  2  0
  6  7  1  0
  7  8  1  0
  8  9  2  0
  8 10  1  0
 10 11  1  0
 11 12  2  0
 12 13  1  0
 13 14  2  0
 14 15  1  0
 15 16  2  0
 16 17  1  0
 17 18  1  0
 18 19  1  0
 19 20  1  0
 20 21  1  0
 21 22  2  0
 21 23  1  0
 23 24  1  0
 23 25  1  0
 20 26  1  0
 26 27  1  0
  6 28  1  0
 28 29  2  0
 29  3  1  0
 16 11  1  0
 27 17  1  0
  1 30  1  0
  1 31  1  0
  1 32  1  0
  4 33  1  0
  5 34  1  0
  7 35  1  0
  7 36  1  0
 12 37  1  0
 13 38  1  0
 14 39  1  0
 15 40  1  0
 18 41  1  0
 18 42  1  0
 19 43  1  0
 19 44  1  0
 23 45  1  0
 24 46  1  0
 24 47  1  0
 24 48  1  0
 25 49  1  0
 25 50  1  0
 25 51  1  0
 26 52  1  0
 26 53  1  0
 27 54  1  0
 27 55  1  0
 28 56  1  0
 29 57  1  0
M  CHG  1  10  -1
M  END
>  <UniqueID>  (63) 
57

>  <SMILES>  (63) 
COc1ccc(CC(=O)[N-]c2ccccc2N2CCN(C(=O)C(C)C)CC2)cc1

>  <Energy>  (63) 
61.86237333232107

>  <Genealogy>  (63) 
COc1ccc(CC(=O)[N-]c2ccccc2N2CCN(C(=O)C(C)C)CC2)cc1 (protonated)
COc1ccc(CC(=O)[N-]c2ccccc2N2CCN(C(=O)C(C)C)CC2)cc1 (3D coordinates assigned)
COc1ccc(CC(=O)[N-]c2ccccc2N2CCN(C(=O)C(C)C)CC2)cc1 (nonaromatic ring conformer: 61.86237333232107 kcal/mol)

>  <smiles>  (63) 
COc1ccc(CC(=O)Nc2ccccc2N2CCN(C(=O)C(C)C)CC2)cc1

>  <score_type>  (63) 
oracle

>  <origin>  (63) 
adg

>  <m_score__min__energy>  (63) 
-9.9900000000000002

>  <m_primary>  (63) 
energy

$$$$
63:0
     RDKit          3D

 29 30  0  0  0  0  0  0  0  0999 V2000
   57.5320   19.4330   47.2340 C   0  0  0  0  0  0  0  0  0  0  0  0
   57.7300   20.8410   47.3150 O   0  0  0  0  0  0  0  0  0  0  0  0
   57.3630   21.7530   46.3120 C   0  0  0  0  0  0  0  0  0  0  0  0
   56.5420   22.8640   46.5780 C   0  0  0  0  0  0  0  0  0  0  0  0
   56.2270   23.7640   45.5480 C   0  0  0  0  0  0  0  0  0  0  0  0
   55.3800   24.9540   45.8060 C   0  0  0  0  0  0  0  0  0  0  0  0
   54.1480   24.9010   45.5460 O   0  0  0  0  0  0  0  0  0  0  0  0
   55.9050   26.1540   46.3920 N   0  0  0  0  0  0  0  0  0  0  0  0
   56.9390   26.9840   45.8440 C   0  0  0  0  0  0  0  0  0  0  0  0
   58.2720   26.5710   45.9600 C   0  0  0  0  0  0  0  0  0  0  0  0
   59.3030   27.3560   45.4360 C   0  0  0  0  0  0  0  0  0  0  0  0
   59.0100   28.5670   44.8050 C   0  0  0  0  0  0  0  0  0  0  0  0
   57.6840   29.0010   44.7050 C   0  0  0  0  0  0  0  0  0  0  0  0
   57.3150   30.5280   43.9260 Cl  0  0  0  0  0  0  0  0  0  0  0  0
   56.6510   28.2180   45.2320 C   0  0  0  0  0  0  0  0  0  0  0  0
   56.7080   23.5100   44.2570 C   0  0  0  0  0  0  0  0  0  0  0  0
   57.5100   22.3920   44.0260 C   0  0  0  0  0  0  0  0  0  0  0  0
   57.8210   21.5480   45.0460 N   0  0  0  0  0  0  0  0  0  0  0  0
   57.4728   19.0121   48.2486 H   0  0  0  0  0  0  0  0  0  0  0  0
   56.5957   19.2248   46.6954 H   0  0  0  0  0  0  0  0  0  0  0  0
   58.3745   18.9746   46.6954 H   0  0  0  0  0  0  0  0  0  0  0  0
   56.1475   23.0272   47.5918 H   0  0  0  0  0  0  0  0  0  0  0  0
   58.5090   25.6236   46.4663 H   0  0  0  0  0  0  0  0  0  0  0  0
   60.3468   27.0194   45.5208 H   0  0  0  0  0  0  0  0  0  0  0  0
   59.8221   29.1796   44.3866 H   0  0  0  0  0  0  0  0  0  0  0  0
   55.6102   28.5683   45.1677 H   0  0  0  0  0  0  0  0  0  0  0  0
   56.4546   24.1888   43.4294 H   0  0  0  0  0  0  0  0  0  0  0  0
   57.8925   22.1923   43.0142 H   0  0  0  0  0  0  0  0  0  0  0  0
   58.4280   20.7210   44.8500 H   0  0  0  0  0  0  0  0  0  0  0  0
  1  2  1  0
  2  3  1  0
  3  4  2  0
  4  5  1  0
  5  6  1  0
  6  7  2  0
  6  8  1  0
  8  9  1  0
  9 10  2  0
 10 11  1  0
 11 12  2  0
 12 13  1  0
 13 14  1  0
 13 15  2  0
  5 16  2  0
 16 17  1  0
 17 18  2  0
 18  3  1  0
 15  9  1  0
  1 19  1  0
  1 20  1  0
  1 21  1  0
  4 22  1  0
 10 23  1  0
 11 24  1  0
 12 25  1  0
 15 26  1  0
 16 27  1  0
 17 28  1  0
 18 29  1  0
M  CHG  2   8  -1  18   1
M  END
>  <UniqueID>  (64) 
58

>  <SMILES>  (64) 
COc1cc(C(=O)[N-]c2cccc(Cl)c2)cc[nH+]1

>  <Energy>  (64) 
35.263553093335844

>  <Genealogy>  (64) 
COc1cc(C(=O)[N-]c2cccc(Cl)c2)cc[nH+]1 (protonated)
COc1cc(C(=O)[N-]c2cccc(Cl)c2)cc[nH+]1 (3D coordinates assigned)
COc1cc(C(=O)[N-]c2cccc(Cl)c2)cc[nH+]1 (optimized conformer: 35.263553093335844 kcal/mol)

>  <smiles>  (64) 
COc1cc(C(=O)Nc2cccc(Cl)c2)ccn1

>  <score_type>  (64) 
oracle

>  <origin>  (64) 
adg

>  <m_score__min__energy>  (64) 
-6.7999999999999998

>  <m_primary>  (64) 
energy

$$$$
64:0
     RDKit          3D

 56 59  0  0  0  0  0  0  0  0999 V2000
   60.4190   28.6000   47.2560 O   0  0  0  0  0  0  0  0  0  0  0  0
   59.6860   29.5840   46.9650 C   0  0  0  0  0  0  0  0  0  0  0  0
   59.4820   30.6070   47.8850 C   0  0  0  0  0  0  0  0  0  0  0  0
   59.9520   30.8010   49.1750 C   0  0  0  0  0  0  0  0  0  0  0  0
   60.7380   29.8710   50.0080 C   0  0  0  0  0  0  0  0  0  0  0  0
   60.2950   28.5540   50.2170 C   0  0  0  0  0  0  0  0  0  0  0  0
   61.0270   27.6840   51.0320 C   0  0  0  0  0  0  0  0  0  0  0  0
   62.1960   28.1270   51.6560 C   0  0  0  0  0  0  0  0  0  0  0  0
   62.6320   29.4420   51.4720 C   0  0  0  0  0  0  0  0  0  0  0  0
   61.9050   30.3160   50.6570 C   0  0  0  0  0  0  0  0  0  0  0  0
   62.3480   31.5880   50.4880 F   0  0  0  0  0  0  0  0  0  0  0  0
   59.5470   32.0170   49.6080 N   0  0  0  0  0  0  0  0  0  0  0  0
   58.8260   32.5290   48.5830 C   0  0  0  0  0  0  0  0  0  0  0  0
   58.7740   31.6810   47.5330 N   0  0  0  0  0  0  0  0  0  0  0  0
   58.1910   31.8200   46.3350 N   0  0  0  0  0  0  0  0  0  0  0  0
   57.4320   33.0360   45.9780 C   0  0  0  0  0  0  0  0  0  0  0  0
   58.0470   33.7400   44.7610 C   0  0  0  0  0  0  0  0  0  0  0  0
   58.9120   34.9490   45.1530 C   0  0  0  0  0  0  0  0  0  0  0  0
   59.6510   34.7210   46.4890 C   0  0  0  0  0  0  0  0  0  0  0  0
   60.9310   33.8750   46.3460 C   0  0  0  0  0  0  0  0  0  0  0  0
   61.7970   33.8270   47.6090 C   0  0  0  0  0  0  0  0  0  0  0  0
   63.1600   32.4490   47.4980 Br  0  0  0  0  0  0  0  0  0  0  0  0
   58.3420   30.8030   45.4180 C   0  0  0  0  0  0  0  0  0  0  0  0
   57.7920   30.8940   44.2850 O   0  0  0  0  0  0  0  0  0  0  0  0
   59.0970   29.6880   45.7290 N   0  0  0  0  0  0  0  0  0  0  0  0
   59.2360   28.5920   44.7490 C   0  0  0  0  0  0  0  0  0  0  0  0
   58.2990   27.4620   45.0900 C   0  0  0  0  0  0  0  0  0  0  0  0
   57.6520   27.4270   46.3360 C   0  0  0  0  0  0  0  0  0  0  0  0
   56.8130   26.3580   46.6650 C   0  0  0  0  0  0  0  0  0  0  0  0
   56.6190   25.3140   45.7570 C   0  0  0  0  0  0  0  0  0  0  0  0
   57.2630   25.3380   44.5160 C   0  0  0  0  0  0  0  0  0  0  0  0
   57.0230   24.0260   43.3770 Cl  0  0  0  0  0  0  0  0  0  0  0  0
   58.1020   26.4070   44.1830 C   0  0  0  0  0  0  0  0  0  0  0  0
   59.3683   28.2055   49.7376 H   0  0  0  0  0  0  0  0  0  0  0  0
   60.6820   26.6503   51.1817 H   0  0  0  0  0  0  0  0  0  0  0  0
   62.7735   27.4404   52.2924 H   0  0  0  0  0  0  0  0  0  0  0  0
   63.5492   29.7906   51.9693 H   0  0  0  0  0  0  0  0  0  0  0  0
   58.3412   33.5162   48.6029 H   0  0  0  0  0  0  0  0  0  0  0  0
   56.3948   32.7549   45.7431 H   0  0  0  0  0  0  0  0  0  0  0  0
   57.4637   33.7283   46.8322 H   0  0  0  0  0  0  0  0  0  0  0  0
   58.6748   33.0191   44.2168 H   0  0  0  0  0  0  0  0  0  0  0  0
   57.2203   34.1098   44.1366 H   0  0  0  0  0  0  0  0  0  0  0  0
   59.6552   35.1258   44.3615 H   0  0  0  0  0  0  0  0  0  0  0  0
   58.2478   35.8172   45.2754 H   0  0  0  0  0  0  0  0  0  0  0  0
   59.9259   35.7008   46.9066 H   0  0  0  0  0  0  0  0  0  0  0  0
   58.9669   34.1647   47.1467 H   0  0  0  0  0  0  0  0  0  0  0  0
   60.6376   32.8463   46.0897 H   0  0  0  0  0  0  0  0  0  0  0  0
   61.5394   34.3524   45.5638 H   0  0  0  0  0  0  0  0  0  0  0  0
   62.2873   34.8027   47.7416 H   0  0  0  0  0  0  0  0  0  0  0  0
   61.1436   33.5931   48.4624 H   0  0  0  0  0  0  0  0  0  0  0  0
   58.9966   28.9711   43.7445 H   0  0  0  0  0  0  0  0  0  0  0  0
   60.2704   28.2186   44.7748 H   0  0  0  0  0  0  0  0  0  0  0  0
   57.8060   28.2441   47.0562 H   0  0  0  0  0  0  0  0  0  0  0  0
   56.3048   26.3389   47.6404 H   0  0  0  0  0  0  0  0  0  0  0  0
   55.9597   24.4732   46.0183 H   0  0  0  0  0  0  0  0  0  0  0  0
   58.6095   26.4216   43.2072 H   0  0  0  0  0  0  0  0  0  0  0  0
  1  2  2  0
  2  3  1  0
  3  4  2  0
  4  5  1  0
  5  6  2  0
  6  7  1  0
  7  8  2  0
  8  9  1  0
  9 10  2  0
 10 11  1  0
  4 12  1  0
 12 13  2  0
 13 14  1  0
 14 15  1  0
 15 16  1  0
 16 17  1  0
 17 18  1  0
 18 19  1  0
 19 20  1  0
 20 21  1  0
 21 22  1  0
 15 23  1  0
 23 24  2  0
 23 25  1  0
 25 26  1  0
 26 27  1  0
 27 28  2  0
 28 29  1  0
 29 30  2  0
 30 31  1  0
 31 32  1  0
 31 33  2  0
 25  2  1  0
 33 27  1  0
 14  3  1  0
 10  5  1  0
  6 34  1  0
  7 35  1  0
  8 36  1  0
  9 37  1  0
 13 38  1  0
 16 39  1  0
 16 40  1  0
 17 41  1  0
 17 42  1  0
 18 43  1  0
 18 44  1  0
 19 45  1  0
 19 46  1  0
 20 47  1  0
 20 48  1  0
 21 49  1  0
 21 50  1  0
 26 51  1  0
 26 52  1  0
 28 53  1  0
 29 54  1  0
 30 55  1  0
 33 56  1  0
M  END
>  <UniqueID>  (65) 
59

>  <SMILES>  (65) 
O=c1c2c(-c3ccccc3F)ncn2n(CCCCCCBr)c(=O)n1Cc1cccc(Cl)c1

>  <Energy>  (65) 
103.31188224079172

>  <Genealogy>  (65) 
O=c1c2c(-c3ccccc3F)ncn2n(CCCCCCBr)c(=O)n1Cc1cccc(Cl)c1 (3D coordinates assigned)
O=c1c2c(-c3ccccc3F)ncn2n(CCCCCCBr)c(=O)n1Cc1cccc(Cl)c1 (optimized conformer: 103.31188224079172 kcal/mol)

>  <smiles>  (65) 
O=c1c2c(-c3ccccc3F)ncn2n(CCCCCCBr)c(=O)n1Cc1cccc(Cl)c1

>  <score_type>  (65) 
oracle

>  <origin>  (65) 
adg

>  <m_score__min__energy>  (65) 
-8.9399999999999995

>  <m_primary>  (65) 
energy

$$$$
65:0
     RDKit          3D

 24 25  0  0  0  0  0  0  0  0999 V2000
   56.9640   28.9440   43.4230 N   0  0  0  0  0  0  0  0  0  0  0  0
   56.8670   28.6850   44.8220 C   0  0  0  0  0  0  0  0  0  0  0  0
   55.9190   27.9840   45.2650 O   0  0  0  0  0  0  0  0  0  0  0  0
   57.8870   29.2430   45.7670 C   0  0  0  0  0  0  0  0  0  0  0  0
   58.7930   30.1560   45.0710 N   0  0  0  0  0  0  0  0  0  0  0  0
   57.9490   31.5700   44.5060 S   0  0  0  0  0  0  0  0  0  0  0  0
   58.1120   31.6920   43.0160 O   0  0  0  0  0  0  0  0  0  0  0  0
   56.4870   31.4260   44.8160 O   0  0  0  0  0  0  0  0  0  0  0  0
   58.5620   33.0150   45.3120 C   0  0  0  0  0  0  0  0  0  0  0  0
   58.8830   34.1660   44.5700 C   0  0  0  0  0  0  0  0  0  0  0  0
   59.3830   35.3150   45.2050 C   0  0  0  0  0  0  0  0  0  0  0  0
   59.5740   35.3360   46.5920 C   0  0  0  0  0  0  0  0  0  0  0  0
   59.2630   34.2020   47.3400 C   0  0  0  0  0  0  0  0  0  0  0  0
   59.4230   34.1450   48.6860 N   0  0  0  0  0  0  0  0  0  0  0  0
   58.9050   32.6020   48.9760 S   0  0  0  0  0  0  0  0  0  0  0  0
   58.4810   31.9750   47.5070 N   0  0  0  0  0  0  0  0  0  0  0  0
   58.7550   33.0340   46.7020 C   0  0  0  0  0  0  0  0  0  0  0  0
   57.7430   29.5250   43.0420 H   0  0  0  0  0  0  0  0  0  0  0  0
   56.2550   28.5520   42.7630 H   0  0  0  0  0  0  0  0  0  0  0  0
   57.3729   29.7887   46.5719 H   0  0  0  0  0  0  0  0  0  0  0  0
   58.4746   28.4117   46.1837 H   0  0  0  0  0  0  0  0  0  0  0  0
   58.7408   34.1664   43.4792 H   0  0  0  0  0  0  0  0  0  0  0  0
   59.6266   36.2059   44.6075 H   0  0  0  0  0  0  0  0  0  0  0  0
   59.9652   36.2377   47.0858 H   0  0  0  0  0  0  0  0  0  0  0  0
  1  2  1  0
  2  3  2  0
  2  4  1  0
  4  5  1  0
  5  6  1  0
  6  7  2  0
  6  8  2  0
  6  9  1  0
  9 10  2  0
 10 11  1  0
 11 12  2  0
 12 13  1  0
 13 14  2  0
 14 15  1  0
 15 16  1  0
 16 17  2  0
 17  9  1  0
 17 13  1  0
  1 18  1  0
  1 19  1  0
  4 20  1  0
  4 21  1  0
 10 22  1  0
 11 23  1  0
 12 24  1  0
M  CHG  1   5  -1
M  END
>  <UniqueID>  (66) 
60

>  <SMILES>  (66) 
NC(=O)C[N-]S(=O)(=O)c1cccc2nsnc12

>  <Energy>  (66) 
59.35199971237874

>  <Genealogy>  (66) 
NC(=O)C[N-]S(=O)(=O)c1cccc2nsnc12 (protonated)
NC(=O)C[N-]S(=O)(=O)c1cccc2nsnc12 (3D coordinates assigned)
NC(=O)C[N-]S(=O)(=O)c1cccc2nsnc12 (optimized conformer: 59.35199971237874 kcal/mol)

>  <smiles>  (66) 
NC(=O)CNS(=O)(=O)c1cccc2nsnc12

>  <score_type>  (66) 
oracle

>  <origin>  (66) 
adg

>  <m_score__min__energy>  (66) 
-8.7400000000000002

>  <m_primary>  (66) 
energy

$$$$
66:0
     RDKit          3D

 69 72  0  0  0  0  0  0  0  0999 V2000
   59.4680   33.4380   51.7910 C   0  0  0  0  0  0  0  0  0  0  0  0
   60.4880   33.6590   50.6770 C   0  0  0  0  0  0  0  0  0  0  0  0
   59.8200   33.6260   49.3270 C   0  0  0  0  0  0  0  0  0  0  0  0
   60.1850   34.5450   48.3330 C   0  0  0  0  0  0  0  0  0  0  0  0
   59.5450   34.5340   47.0890 C   0  0  0  0  0  0  0  0  0  0  0  0
   58.5190   33.6120   46.8220 C   0  0  0  0  0  0  0  0  0  0  0  0
   57.8230   33.6140   45.5120 C   0  0  0  0  0  0  0  0  0  0  0  0
   57.9530   34.5970   44.7320 O   0  0  0  0  0  0  0  0  0  0  0  0
   56.9730   32.5190   45.1460 N   0  0  0  0  0  0  0  0  0  0  0  0
   57.4050   31.1780   44.8680 C   0  0  0  0  0  0  0  0  0  0  0  0
   56.5490   30.3260   44.1600 C   0  0  0  0  0  0  0  0  0  0  0  0
   56.9130   28.9980   43.9170 C   0  0  0  0  0  0  0  0  0  0  0  0
   58.1360   28.5010   44.3900 C   0  0  0  0  0  0  0  0  0  0  0  0
   58.4800   27.0450   44.2240 C   0  0  0  0  0  0  0  0  0  0  0  0
   57.9120   26.2750   45.3330 N   0  0  0  0  0  0  0  0  0  0  0  0
   56.7640   25.5690   45.2730 C   0  0  0  0  0  0  0  0  0  0  0  0
   56.5970   24.8330   46.4290 C   0  0  0  0  0  0  0  0  0  0  0  0
   57.6980   25.0880   47.2240 C   0  0  0  0  0  0  0  0  0  0  0  0
   58.4940   25.9700   46.5160 C   0  0  0  0  0  0  0  0  0  0  0  0
   59.7590   26.5410   47.0140 C   0  0  0  0  0  0  0  0  0  0  0  0
   60.7820   26.5040   46.2840 O   0  0  0  0  0  0  0  0  0  0  0  0
   59.8540   27.1540   48.3040 N   0  0  0  0  0  0  0  0  0  0  0  0
   59.3640   28.4920   48.6170 C   0  0  0  0  0  0  0  0  0  0  0  0
   60.2450   29.1350   49.6910 C   0  0  0  0  0  0  0  0  0  0  0  0
   61.1420   30.1950   49.1020 C   0  0  0  0  0  0  0  0  0  0  0  0
   61.0590   30.5050   47.7400 C   0  0  0  0  0  0  0  0  0  0  0  0
   61.8970   31.4730   47.1850 C   0  0  0  0  0  0  0  0  0  0  0  0
   62.8480   32.1380   47.9830 C   0  0  0  0  0  0  0  0  0  0  0  0
   63.7020   33.1220   47.4600 O   0  0  0  0  0  0  0  0  0  0  0  0
   63.3630   33.9970   46.3890 C   0  0  0  0  0  0  0  0  0  0  0  0
   62.9510   31.8190   49.3460 C   0  0  0  0  0  0  0  0  0  0  0  0
   63.9180   32.4880   50.1130 O   0  0  0  0  0  0  0  0  0  0  0  0
   65.3250   32.3700   49.9180 C   0  0  0  0  0  0  0  0  0  0  0  0
   62.0930   30.8490   49.9020 C   0  0  0  0  0  0  0  0  0  0  0  0
   58.9890   29.3510   45.1140 C   0  0  0  0  0  0  0  0  0  0  0  0
   58.6290   30.6810   45.3480 C   0  0  0  0  0  0  0  0  0  0  0  0
   58.1490   32.6990   47.8270 C   0  0  0  0  0  0  0  0  0  0  0  0
   58.7920   32.7080   49.0670 C   0  0  0  0  0  0  0  0  0  0  0  0
   59.9627   33.5452   52.7676 H   0  0  0  0  0  0  0  0  0  0  0  0
   58.6630   34.1826   51.7041 H   0  0  0  0  0  0  0  0  0  0  0  0
   59.0433   32.4270   51.7041 H   0  0  0  0  0  0  0  0  0  0  0  0
   60.9693   34.6381   50.8175 H   0  0  0  0  0  0  0  0  0  0  0  0
   61.2373   32.8548   50.7198 H   0  0  0  0  0  0  0  0  0  0  0  0
   60.9795   35.2792   48.5325 H   0  0  0  0  0  0  0  0  0  0  0  0
   59.8475   35.2531   46.3135 H   0  0  0  0  0  0  0  0  0  0  0  0
   55.5835   30.7038   43.7924 H   0  0  0  0  0  0  0  0  0  0  0  0
   56.2366   28.3398   43.3520 H   0  0  0  0  0  0  0  0  0  0  0  0
   58.0660   26.6773   43.2735 H   0  0  0  0  0  0  0  0  0  0  0  0
   59.5736   26.9267   44.2203 H   0  0  0  0  0  0  0  0  0  0  0  0
   56.0626   25.5784   44.4257 H   0  0  0  0  0  0  0  0  0  0  0  0
   55.7516   24.1719   46.6703 H   0  0  0  0  0  0  0  0  0  0  0  0
   57.9011   24.6721   48.2219 H   0  0  0  0  0  0  0  0  0  0  0  0
   59.3882   29.1106   47.7078 H   0  0  0  0  0  0  0  0  0  0  0  0
   58.3325   28.4198   48.9922 H   0  0  0  0  0  0  0  0  0  0  0  0
   59.6007   29.5948   50.4548 H   0  0  0  0  0  0  0  0  0  0  0  0
   60.8777   28.3525   50.1352 H   0  0  0  0  0  0  0  0  0  0  0  0
   60.3294   29.9829   47.1035 H   0  0  0  0  0  0  0  0  0  0  0  0
   61.8141   31.7185   46.1160 H   0  0  0  0  0  0  0  0  0  0  0  0
   62.9939   34.9497   46.7967 H   0  0  0  0  0  0  0  0  0  0  0  0
   64.2541   34.1831   45.7715 H   0  0  0  0  0  0  0  0  0  0  0  0
   62.5791   33.5342   45.7715 H   0  0  0  0  0  0  0  0  0  0  0  0
   65.8283   32.3278   50.8952 H   0  0  0  0  0  0  0  0  0  0  0  0
   65.5412   31.4506   49.3542 H   0  0  0  0  0  0  0  0  0  0  0  0
   65.6913   33.2406   49.3542 H   0  0  0  0  0  0  0  0  0  0  0  0
   62.1688   30.6022   50.9713 H   0  0  0  0  0  0  0  0  0  0  0  0
   59.9455   28.9675   45.4988 H   0  0  0  0  0  0  0  0  0  0  0  0
   59.3060   31.3412   45.9099 H   0  0  0  0  0  0  0  0  0  0  0  0
   57.3464   31.9719   47.6344 H   0  0  0  0  0  0  0  0  0  0  0  0
   58.4902   31.9907   49.8444 H   0  0  0  0  0  0  0  0  0  0  0  0
  1  2  1  0
  2  3  1  0
  3  4  2  0
  4  5  1  0
  5  6  2  0
  6  7  1  0
  7  8  2  0
  7  9  1  0
  9 10  1  0
 10 11  2  0
 11 12  1  0
 12 13  2  0
 13 14  1  0
 14 15  1  0
 15 16  1  0
 16 17  2  0
 17 18  1  0
 18 19  2  0
 19 20  1  0
 20 21  2  0
 20 22  1  0
 22 23  1  0
 23 24  1  0
 24 25  1  0
 25 26  2  0
 26 27  1  0
 27 28  2  0
 28 29  1  0
 29 30  1  0
 28 31  1  0
 31 32  1  0
 32 33  1  0
 31 34  2  0
 13 35  1  0
 35 36  2  0
  6 37  1  0
 37 38  2  0
 38  3  1  0
 36 10  1  0
 19 15  1  0
 34 25  1  0
  1 39  1  0
  1 40  1  0
  1 41  1  0
  2 42  1  0
  2 43  1  0
  4 44  1  0
  5 45  1  0
 11 46  1  0
 12 47  1  0
 14 48  1  0
 14 49  1  0
 16 50  1  0
 17 51  1  0
 18 52  1  0
 23 53  1  0
 23 54  1  0
 24 55  1  0
 24 56  1  0
 26 57  1  0
 27 58  1  0
 30 59  1  0
 30 60  1  0
 30 61  1  0
 33 62  1  0
 33 63  1  0
 33 64  1  0
 34 65  1  0
 35 66  1  0
 36 67  1  0
 37 68  1  0
 38 69  1  0
M  CHG  2   9  -1  22  -1
M  END
>  <UniqueID>  (67) 
61

>  <SMILES>  (67) 
CCc1ccc(C(=O)[N-]c2ccc(Cn3cccc3C(=O)[N-]CCc3ccc(OC)c(OC)c3)cc2)cc1

>  <Energy>  (67) 
98.05140637363263

>  <Genealogy>  (67) 
CCc1ccc(C(=O)[N-]c2ccc(Cn3cccc3C(=O)[N-]CCc3ccc(OC)c(OC)c3)cc2)cc1 (protonated)
CCc1ccc(C(=O)[N-]c2ccc(Cn3cccc3C(=O)[N-]CCc3ccc(OC)c(OC)c3)cc2)cc1 (3D coordinates assigned)
CCc1ccc(C(=O)[N-]c2ccc(Cn3cccc3C(=O)[N-]CCc3ccc(OC)c(OC)c3)cc2)cc1 (optimized conformer: 98.05140637363263 kcal/mol)

>  <smiles>  (67) 
CCc1ccc(C(=O)Nc2ccc(Cn3cccc3C(=O)NCCc3ccc(OC)c(OC)c3)cc2)cc1

>  <score_type>  (67) 
oracle

>  <origin>  (67) 
adg

>  <m_score__min__energy>  (67) 
-11.32

>  <m_primary>  (67) 
energy

$$$$
67:0
     RDKit          3D

 48 50  0  0  0  0  0  0  0  0999 V2000
   57.0515   35.3038   44.5852 H   0  0  0  0  0  0  0  0  0  0  0  0
   57.7570   34.5300   44.9220 C   0  0  0  0  0  0  0  0  0  0  0  0
   59.0270   34.8690   45.2580 N   0  0  0  0  0  0  0  0  0  0  0  0
   59.9160   33.9320   45.6870 C   0  0  0  0  0  0  0  0  0  0  0  0
   61.1400   34.2500   45.9940 N   0  0  0  0  0  0  0  0  0  0  0  0
   61.9460   33.6670   47.0330 C   0  0  0  0  0  0  0  0  0  0  0  0
   63.3340   33.7880   46.9520 C   0  0  0  0  0  0  0  0  0  0  0  0
   63.7866   34.3410   46.1157 H   0  0  0  0  0  0  0  0  0  0  0  0
   64.1510   33.2120   47.9250 C   0  0  0  0  0  0  0  0  0  0  0  0
   65.2432   33.3207   47.8524 H   0  0  0  0  0  0  0  0  0  0  0  0
   63.5940   32.4950   48.9960 C   0  0  0  0  0  0  0  0  0  0  0  0
   64.5060   31.9020   50.0360 C   0  0  0  0  0  0  0  0  0  0  0  0
   64.1274   32.1482   51.0390 H   0  0  0  0  0  0  0  0  0  0  0  0
   64.5390   30.8092   49.9146 H   0  0  0  0  0  0  0  0  0  0  0  0
   65.5182   32.3152   49.9146 H   0  0  0  0  0  0  0  0  0  0  0  0
   62.1890   32.3320   49.0700 C   0  0  0  0  0  0  0  0  0  0  0  0
   61.5960   31.5590   50.1300 N   0  0  0  0  0  0  0  0  0  0  0  0
   61.9540   31.6500   51.1050 H   0  0  0  0  0  0  0  0  0  0  0  0
   60.1670   30.5960   49.9170 S   0  0  0  0  0  0  0  0  0  0  0  0
   59.9070   29.8240   51.1790 O   0  0  0  0  0  0  0  0  0  0  0  0
   60.3630   29.6280   48.7840 O   0  0  0  0  0  0  0  0  0  0  0  0
   58.7600   31.6410   49.5990 C   0  0  0  0  0  0  0  0  0  0  0  0
   58.3217   31.9665   50.5540 H   0  0  0  0  0  0  0  0  0  0  0  0
   59.0802   32.5219   49.0233 H   0  0  0  0  0  0  0  0  0  0  0  0
   58.0092   31.0799   49.0233 H   0  0  0  0  0  0  0  0  0  0  0  0
   61.3810   32.9080   48.0720 C   0  0  0  0  0  0  0  0  0  0  0  0
   60.2913   32.7620   48.1057 H   0  0  0  0  0  0  0  0  0  0  0  0
   59.5320   32.6300   45.7590 N   0  0  0  0  0  0  0  0  0  0  0  0
   58.2730   32.2330   45.4260 C   0  0  0  0  0  0  0  0  0  0  0  0
   57.9090   30.7970   45.5350 C   0  0  0  0  0  0  0  0  0  0  0  0
   57.0040   30.1970   44.6380 C   0  0  0  0  0  0  0  0  0  0  0  0
   56.5468   30.7999   43.8395 H   0  0  0  0  0  0  0  0  0  0  0  0
   56.6820   28.8420   44.7540 C   0  0  0  0  0  0  0  0  0  0  0  0
   55.9739   28.3851   44.0470 H   0  0  0  0  0  0  0  0  0  0  0  0
   57.2560   28.0640   45.7650 C   0  0  0  0  0  0  0  0  0  0  0  0
   56.8630   26.3530   45.8990 S   0  0  0  0  0  0  0  0  0  0  0  0
   57.5250   25.7730   47.1180 O   0  0  0  0  0  0  0  0  0  0  0  0
   55.3750   26.1790   46.0290 O   0  0  0  0  0  0  0  0  0  0  0  0
   57.4360   25.5000   44.4490 C   0  0  0  0  0  0  0  0  0  0  0  0
   58.0260   24.6216   44.7495 H   0  0  0  0  0  0  0  0  0  0  0  0
   56.5728   25.1744   43.8500 H   0  0  0  0  0  0  0  0  0  0  0  0
   58.0639   26.1760   43.8500 H   0  0  0  0  0  0  0  0  0  0  0  0
   58.1700   28.6460   46.6500 C   0  0  0  0  0  0  0  0  0  0  0  0
   58.6338   28.0353   47.4387 H   0  0  0  0  0  0  0  0  0  0  0  0
   58.4960   30.0000   46.5360 C   0  0  0  0  0  0  0  0  0  0  0  0
   59.2181   30.4473   47.2350 H   0  0  0  0  0  0  0  0  0  0  0  0
   57.3470   33.2000   45.0040 C   0  0  0  0  0  0  0  0  0  0  0  0
   56.3175   32.9138   44.7430 H   0  0  0  0  0  0  0  0  0  0  0  0
  1  2  1  0
  2  3  1  0
  3  4  1  0
  4  5  2  0
  5  6  1  0
  6  7  2  0
  7  8  1  0
  7  9  1  0
  9 10  1  0
  9 11  2  0
 11 12  1  0
 12 13  1  0
 12 14  1  0
 12 15  1  0
 11 16  1  0
 16 17  1  0
 17 18  1  0
 17 19  1  0
 19 20  2  0
 19 21  2  0
 19 22  1  0
 22 23  1  0
 22 24  1  0
 22 25  1  0
 16 26  2  0
 26 27  1  0
  4 28  1  0
 28 29  2  0
 29 30  1  0
 30 31  2  0
 31 32  1  0
 31 33  1  0
 33 34  1  0
 33 35  2  0
 35 36  1  0
 36 37  2  0
 36 38  2  0
 36 39  1  0
 39 40  1  0
 39 41  1  0
 39 42  1  0
 35 43  1  0
 43 44  1  0
 43 45  2  0
 45 46  1  0
 29 47  1  0
 47 48  1  0
 47  2  2  0
 26  6  1  0
 45 30  1  0
M  CHG  1   3  -1
M  END
>  <UniqueID>  (68) 
62

>  <SMILES>  (68) 
Cc1ccc(/N=c2/nc(-c3ccc(S(C)(=O)=O)cc3)cc[n-]2)cc1NS(C)(=O)=O

>  <Energy>  (68) 
58.0284433478909

>  <Genealogy>  (68) 
Cc1ccc(N=c2nc(-c3ccc(S(C)(=O)=O)cc3)cc[n-]2)cc1NS(C)(=O)=O (protonated)
Cc1ccc(/N=c2/nc(-c3ccc(S(C)(=O)=O)cc3)cc[n-]2)cc1NS(C)(=O)=O (cis-trans isomerization)
Cc1ccc(/N=c2/nc(-c3ccc(S(C)(=O)=O)cc3)cc[n-]2)cc1NS(C)(=O)=O (3D coordinates assigned)
Cc1ccc(/N=c2/nc(-c3ccc(S(C)(=O)=O)cc3)cc[n-]2)cc1NS(C)(=O)=O (optimized conformer: 58.0284433478909 kcal/mol)

>  <smiles>  (68) 
Cc1ccc(N=c2nc(-c3ccc(S(C)(=O)=O)cc3)cc[nH]2)cc1NS(C)(=O)=O

>  <score_type>  (68) 
oracle

>  <origin>  (68) 
adg

>  <m_score__min__energy>  (68) 
-10.619999999999999

>  <m_primary>  (68) 
energy

$$$$
68:0
     RDKit          3D

 19 19  0  0  0  0  0  0  0  0999 V2000
   61.9190   28.5620   44.4800 N   0  0  0  0  0  0  0  0  0  0  0  0
   60.7160   28.3060   45.2160 C   0  0  0  0  0  0  0  0  0  0  0  0
   60.7110   27.1060   46.3360 S   0  0  0  0  0  0  0  0  0  0  0  0
   59.6390   29.3230   45.2510 C   0  0  0  0  0  0  0  0  0  0  0  0
   58.4490   29.0840   44.5420 C   0  0  0  0  0  0  0  0  0  0  0  0
   57.4060   30.0290   44.5400 C   0  0  0  0  0  0  0  0  0  0  0  0
   56.1920   29.7830   43.8060 N   0  0  0  0  0  0  0  0  0  0  0  0
   55.1770   29.3410   44.3830 O   0  0  0  0  0  0  0  0  0  0  0  0
   56.1310   30.0290   42.4530 O   0  0  0  0  0  0  0  0  0  0  0  0
   57.5650   31.2190   45.2680 C   0  0  0  0  0  0  0  0  0  0  0  0
   58.7370   31.4570   45.9860 C   0  0  0  0  0  0  0  0  0  0  0  0
   59.7740   30.5190   45.9880 C   0  0  0  0  0  0  0  0  0  0  0  0
   61.1920   30.8510   46.9770 Cl  0  0  0  0  0  0  0  0  0  0  0  0
   61.6820   28.7260   43.4760 H   0  0  0  0  0  0  0  0  0  0  0  0
   62.3970   29.4080   44.8690 H   0  0  0  0  0  0  0  0  0  0  0  0
   62.5680   27.7470   44.5630 H   0  0  0  0  0  0  0  0  0  0  0  0
   58.3313   28.1452   43.9809 H   0  0  0  0  0  0  0  0  0  0  0  0
   56.7600   31.9686   45.2722 H   0  0  0  0  0  0  0  0  0  0  0  0
   58.8465   32.3914   46.5560 H   0  0  0  0  0  0  0  0  0  0  0  0
  1  2  1  0
  2  3  2  0
  2  4  1  0
  4  5  2  0
  5  6  1  0
  6  7  1  0
  7  8  2  0
  7  9  1  0
  6 10  2  0
 10 11  1  0
 11 12  2  0
 12 13  1  0
 12  4  1  0
  1 14  1  0
  1 15  1  0
  1 16  1  0
  5 17  1  0
 10 18  1  0
 11 19  1  0
M  CHG  3   1   1   7   1   9  -1
M  END
>  <UniqueID>  (69) 
63

>  <SMILES>  (69) 
[NH3+]C(=S)c1cc([N+](=O)[O-])ccc1Cl

>  <Energy>  (69) 
25.4230176805818

>  <Genealogy>  (69) 
[NH3+]C(=S)c1cc([N+](=O)[O-])ccc1Cl (protonated)
[NH3+]C(=S)c1cc([N+](=O)[O-])ccc1Cl (3D coordinates assigned)
[NH3+]C(=S)c1cc([N+](=O)[O-])ccc1Cl (optimized conformer: 25.4230176805818 kcal/mol)

>  <smiles>  (69) 
NC(=S)c1cc([N+](=O)[O-])ccc1Cl

>  <score_type>  (69) 
oracle

>  <origin>  (69) 
adg

>  <m_score__min__energy>  (69) 
-4.8499999999999996

>  <m_primary>  (69) 
energy

$$$$
69:0
     RDKit          3D

 33 35  0  0  0  0  0  0  0  0999 V2000
   54.5390   29.3960   45.1850 H   0  0  0  0  0  0  0  0  0  0  0  0
   54.7720   29.3420   44.1680 N   0  0  0  0  0  0  0  0  0  0  0  0
   56.2270   30.2440   43.9370 S   0  0  0  0  0  0  0  0  0  0  0  0
   56.4340   30.4910   42.4680 O   0  0  0  0  0  0  0  0  0  0  0  0
   56.1140   31.5680   44.6370 O   0  0  0  0  0  0  0  0  0  0  0  0
   57.5900   29.3390   44.5880 C   0  0  0  0  0  0  0  0  0  0  0  0
   57.9240   28.0850   44.0580 C   0  0  0  0  0  0  0  0  0  0  0  0
   57.3391   27.6690   43.2245 H   0  0  0  0  0  0  0  0  0  0  0  0
   58.9980   27.3610   44.5850 C   0  0  0  0  0  0  0  0  0  0  0  0
   59.2521   26.3758   44.1669 H   0  0  0  0  0  0  0  0  0  0  0  0
   59.7530   27.8860   45.6450 C   0  0  0  0  0  0  0  0  0  0  0  0
   60.8870   27.0930   46.2360 C   0  0  0  0  0  0  0  0  0  0  0  0
   61.2419   26.3616   45.4950 H   0  0  0  0  0  0  0  0  0  0  0  0
   61.6996   27.7829   46.5076 H   0  0  0  0  0  0  0  0  0  0  0  0
   60.4250   26.3510   47.4960 C   0  0  0  0  0  0  0  0  0  0  0  0
   60.5749   25.2705   47.3543 H   0  0  0  0  0  0  0  0  0  0  0  0
   61.0142   26.7085   48.3534 H   0  0  0  0  0  0  0  0  0  0  0  0
   59.0110   26.6090   47.7570 N   0  0  0  0  0  0  0  0  0  0  0  0
   58.0320   25.8460   47.3730 C   0  0  0  0  0  0  0  0  0  0  0  0
   56.9140   26.4180   46.8180 N   0  0  0  0  0  0  0  0  0  0  0  0
   55.8580   25.6600   46.4010 C   0  0  0  0  0  0  0  0  0  0  0  0
   54.8400   26.1980   45.8930 O   0  0  0  0  0  0  0  0  0  0  0  0
   55.9480   24.2840   46.5570 C   0  0  0  0  0  0  0  0  0  0  0  0
   55.0650   23.3290   46.2350 N   0  0  0  0  0  0  0  0  0  0  0  0
   55.7110   22.1960   46.6250 C   0  0  0  0  0  0  0  0  0  0  0  0
   55.2733   21.1934   46.5105 H   0  0  0  0  0  0  0  0  0  0  0  0
   56.9420   22.4030   47.1680 N   0  0  0  0  0  0  0  0  0  0  0  0
   57.0510   23.7360   47.1060 C   0  0  0  0  0  0  0  0  0  0  0  0
   58.1020   24.4830   47.5220 N   0  0  0  0  0  0  0  0  0  0  0  0
   59.4030   29.1330   46.1890 C   0  0  0  0  0  0  0  0  0  0  0  0
   59.9763   29.5423   47.0339 H   0  0  0  0  0  0  0  0  0  0  0  0
   58.3290   29.8560   45.6610 C   0  0  0  0  0  0  0  0  0  0  0  0
   58.0631   30.8338   46.0891 H   0  0  0  0  0  0  0  0  0  0  0  0
  1  2  1  0
  2  3  1  0
  3  4  2  0
  3  5  2  0
  3  6  1  0
  6  7  2  0
  7  8  1  0
  7  9  1  0
  9 10  1  0
  9 11  2  0
 11 12  1  0
 12 13  1  0
 12 14  1  0
 12 15  1  0
 15 16  1  0
 15 17  1  0
 15 18  1  0
 18 19  2  0
 19 20  1  0
 20 21  1  0
 21 22  2  0
 21 23  1  0
 23 24  1  0
 24 25  2  0
 25 26  1  0
 25 27  1  0
 27 28  1  0
 28 29  1  0
 11 30  1  0
 30 31  1  0
 30 32  2  0
 32 33  1  0
 32  6  1  0
 29 19  1  0
 28 23  2  0
M  CHG  4   2  -1  20  -1  27  -1  29  -1
M  END
>  <UniqueID>  (70) 
64

>  <SMILES>  (70) 
[NH-]S(=O)(=O)c1ccc(CC/N=c2/[n-]c(=O)c3nc[n-]c3[n-]2)cc1

>  <Energy>  (70) 
70.94954368873066

>  <Genealogy>  (70) 
[NH-]S(=O)(=O)c1ccc(CCN=c2[n-]c(=O)c3nc[n-]c3[n-]2)cc1 (protonated)
[NH-]S(=O)(=O)c1ccc(CC/N=c2/[n-]c(=O)c3nc[n-]c3[n-]2)cc1 (cis-trans isomerization)
[NH-]S(=O)(=O)c1ccc(CC/N=c2/[n-]c(=O)c3nc[n-]c3[n-]2)cc1 (3D coordinates assigned)
[NH-]S(=O)(=O)c1ccc(CC/N=c2/[n-]c(=O)c3nc[n-]c3[n-]2)cc1 (optimized conformer: 70.94954368873066 kcal/mol)

>  <smiles>  (70) 
NS(=O)(=O)c1ccc(CCN=c2[nH]c(=O)c3nc[nH]c3[nH]2)cc1

>  <score_type>  (70) 
oracle

>  <origin>  (70) 
adg

>  <m_score__min__energy>  (70) 
-15.42

>  <m_primary>  (70) 
energy

$$$$
70:0
     RDKit          3D

 35 37  0  0  0  0  0  0  0  0999 V2000
   57.5330   32.3410   40.9830 C   0  0  0  0  0  0  0  0  0  0  0  0
   57.0170   31.2430   41.9070 C   0  0  0  0  0  0  0  0  0  0  0  0
   57.2600   31.5870   43.3500 C   0  0  0  0  0  0  0  0  0  0  0  0
   58.1360   32.9350   43.8490 S   0  0  0  0  0  0  0  0  0  0  0  0
   58.0960   32.5090   45.4730 C   0  0  0  0  0  0  0  0  0  0  0  0
   58.7040   33.2780   46.5660 C   0  0  0  0  0  0  0  0  0  0  0  0
   59.2540   34.5400   46.4480 C   0  0  0  0  0  0  0  0  0  0  0  0
   59.7080   34.8820   47.7060 C   0  0  0  0  0  0  0  0  0  0  0  0
   59.4160   33.8170   48.5350 C   0  0  0  0  0  0  0  0  0  0  0  0
   58.8060   32.8420   47.8370 N   0  0  0  0  0  0  0  0  0  0  0  0
   57.4330   31.3460   45.6570 N   0  0  0  0  0  0  0  0  0  0  0  0
   56.9570   30.8260   44.4920 C   0  0  0  0  0  0  0  0  0  0  0  0
   56.2050   29.5550   44.5000 C   0  0  0  0  0  0  0  0  0  0  0  0
   55.0770   29.5120   43.9420 O   0  0  0  0  0  0  0  0  0  0  0  0
   56.7040   28.3760   45.1460 N   0  0  0  0  0  0  0  0  0  0  0  0
   57.9060   28.1850   45.6160 C   0  0  0  0  0  0  0  0  0  0  0  0
   58.0430   27.7110   46.9260 C   0  0  0  0  0  0  0  0  0  0  0  0
   59.3170   27.5050   47.4610 C   0  0  0  0  0  0  0  0  0  0  0  0
   60.4230   27.7500   46.7080 N   0  0  0  0  0  0  0  0  0  0  0  0
   60.3230   28.1900   45.4250 C   0  0  0  0  0  0  0  0  0  0  0  0
   59.0680   28.4120   44.8510 C   0  0  0  0  0  0  0  0  0  0  0  0
   57.9243   33.1737   41.5859 H   0  0  0  0  0  0  0  0  0  0  0  0
   58.3363   31.9386   40.3483 H   0  0  0  0  0  0  0  0  0  0  0  0
   56.7106   32.7026   40.3483 H   0  0  0  0  0  0  0  0  0  0  0  0
   55.9363   31.1168   41.7455 H   0  0  0  0  0  0  0  0  0  0  0  0
   57.5554   30.3121   41.6758 H   0  0  0  0  0  0  0  0  0  0  0  0
   59.3174   35.1499   45.5348 H   0  0  0  0  0  0  0  0  0  0  0  0
   60.2056   35.8203   47.9923 H   0  0  0  0  0  0  0  0  0  0  0  0
   59.6482   33.7723   49.6093 H   0  0  0  0  0  0  0  0  0  0  0  0
   58.4760   31.9270   48.2180 H   0  0  0  0  0  0  0  0  0  0  0  0
   57.1497   27.5012   47.5327 H   0  0  0  0  0  0  0  0  0  0  0  0
   59.4260   27.1436   48.4942 H   0  0  0  0  0  0  0  0  0  0  0  0
   61.3690   27.5890   47.1220 H   0  0  0  0  0  0  0  0  0  0  0  0
   61.2341   28.3720   44.8362 H   0  0  0  0  0  0  0  0  0  0  0  0
   58.9878   28.7610   43.8109 H   0  0  0  0  0  0  0  0  0  0  0  0
  1  2  1  0
  2  3  1  0
  3  4  1  0
  4  5  1  0
  5  6  1  0
  6  7  2  0
  7  8  1  0
  8  9  2  0
  9 10  1  0
  5 11  2  0
 11 12  1  0
 12 13  1  0
 13 14  2  0
 13 15  1  0
 15 16  2  3
 16 17  1  0
 17 18  2  0
 18 19  1  0
 19 20  1  0
 20 21  2  0
 12  3  2  0
 21 16  1  0
 10  6  1  0
  1 22  1  0
  1 23  1  0
  1 24  1  0
  2 25  1  0
  2 26  1  0
  7 27  1  0
  8 28  1  0
  9 29  1  0
 10 30  1  0
 17 31  1  0
 18 32  1  0
 19 33  1  0
 20 34  1  0
 21 35  1  0
M  END
>  <UniqueID>  (71) 
65

>  <SMILES>  (71) 
CCc1sc(-c2ccc[nH]2)nc1C(=O)N=c1cc[nH]cc1

>  <Energy>  (71) 
98.88736601528922

>  <Genealogy>  (71) 
CCc1sc(-c2ccc[nH]2)nc1C(=O)N=c1cc[nH]cc1 (3D coordinates assigned)
CCc1sc(-c2ccc[nH]2)nc1C(=O)N=c1cc[nH]cc1 (optimized conformer: 98.88736601528922 kcal/mol)

>  <smiles>  (71) 
CCc1sc(-c2ccc[nH]2)nc1C(=O)N=c1cc[nH]cc1

>  <score_type>  (71) 
oracle

>  <origin>  (71) 
adg

>  <m_score__min__energy>  (71) 
-7.1500000000000004

>  <m_primary>  (71) 
energy

$$$$
71:0
     RDKit          3D

 28 29  0  0  0  0  0  0  0  0999 V2000
   55.1570   26.3470   45.9550 N   0  0  0  0  0  0  0  0  0  0  0  0
   56.8330   26.7270   45.7850 S   0  0  0  0  0  0  0  0  0  0  0  0
   57.4550   25.8040   44.7750 O   0  0  0  0  0  0  0  0  0  0  0  0
   57.5280   26.5370   47.1040 O   0  0  0  0  0  0  0  0  0  0  0  0
   57.0080   28.3970   45.2550 C   0  0  0  0  0  0  0  0  0  0  0  0
   58.2300   29.0640   45.4100 C   0  0  0  0  0  0  0  0  0  0  0  0
   58.3690   30.3870   44.9810 C   0  0  0  0  0  0  0  0  0  0  0  0
   57.2860   31.0620   44.4090 C   0  0  0  0  0  0  0  0  0  0  0  0
   57.4660   32.4130   43.9520 N   0  0  0  0  0  0  0  0  0  0  0  0
   57.4050   33.4640   44.6800 N   0  0  0  0  0  0  0  0  0  0  0  0
   58.2070   33.7310   45.8400 C   0  0  0  0  0  0  0  0  0  0  0  0
   59.2150   34.6980   45.7640 C   0  0  0  0  0  0  0  0  0  0  0  0
   60.0300   34.9580   46.8700 C   0  0  0  0  0  0  0  0  0  0  0  0
   59.8580   34.2350   48.0550 C   0  0  0  0  0  0  0  0  0  0  0  0
   60.6710   34.5050   49.1490 O   0  0  0  0  0  0  0  0  0  0  0  0
   58.8730   33.2400   48.1300 C   0  0  0  0  0  0  0  0  0  0  0  0
   58.6530   32.3080   49.6020 Cl  0  0  0  0  0  0  0  0  0  0  0  0
   58.0600   32.9800   47.0200 C   0  0  0  0  0  0  0  0  0  0  0  0
   56.0730   30.3790   44.2120 C   0  0  0  0  0  0  0  0  0  0  0  0
   55.9340   29.0560   44.6420 C   0  0  0  0  0  0  0  0  0  0  0  0
   54.7410   27.0750   46.5780 H   0  0  0  0  0  0  0  0  0  0  0  0
   59.0832   28.5448   45.8709 H   0  0  0  0  0  0  0  0  0  0  0  0
   59.3355   30.9000   45.0939 H   0  0  0  0  0  0  0  0  0  0  0  0
   59.3673   35.2570   44.8289 H   0  0  0  0  0  0  0  0  0  0  0  0
   60.8082   35.7329   46.8081 H   0  0  0  0  0  0  0  0  0  0  0  0
   57.3024   32.1842   47.0712 H   0  0  0  0  0  0  0  0  0  0  0  0
   55.2313   30.8868   43.7184 H   0  0  0  0  0  0  0  0  0  0  0  0
   54.9783   28.5306   44.4986 H   0  0  0  0  0  0  0  0  0  0  0  0
  1  2  1  0
  2  3  2  0
  2  4  2  0
  2  5  1  0
  5  6  2  0
  6  7  1  0
  7  8  2  0
  8  9  1  0
  9 10  2  3
 10 11  1  0
 11 12  2  0
 12 13  1  0
 13 14  2  0
 14 15  1  0
 14 16  1  0
 16 17  1  0
 16 18  2  0
  8 19  1  0
 19 20  2  0
 20  5  1  0
 18 11  1  0
  1 21  1  0
  6 22  1  0
  7 23  1  0
 12 24  1  0
 13 25  1  0
 18 26  1  0
 19 27  1  0
 20 28  1  0
M  CHG  2   1  -1  15  -1
M  END
>  <UniqueID>  (72) 
66

>  <SMILES>  (72) 
[NH-]S(=O)(=O)c1ccc(N=Nc2ccc([O-])c(Cl)c2)cc1

>  <Energy>  (72) 
41.74461240388973

>  <Genealogy>  (72) 
[NH-]S(=O)(=O)c1ccc(N=Nc2ccc([O-])c(Cl)c2)cc1 (protonated)
[NH-]S(=O)(=O)c1ccc(N=Nc2ccc([O-])c(Cl)c2)cc1 (3D coordinates assigned)
[NH-]S(=O)(=O)c1ccc(N=Nc2ccc([O-])c(Cl)c2)cc1 (optimized conformer: 41.74461240388973 kcal/mol)

>  <smiles>  (72) 
NS(=O)(=O)c1ccc(N=Nc2ccc(O)c(Cl)c2)cc1

>  <score_type>  (72) 
oracle

>  <origin>  (72) 
adg

>  <m_score__min__energy>  (72) 
-11.140000000000001

>  <m_primary>  (72) 
energy

$$$$
72:0
     RDKit          3D

 51 53  0  0  0  0  0  0  0  0999 V2000
   55.2220   30.4920   51.9930 C   0  0  0  0  0  0  0  0  0  0  0  0
   56.4220   31.1870   52.5620 C   0  0  0  0  0  0  0  0  0  0  0  0
   56.9630   30.7680   53.7870 C   0  0  0  0  0  0  0  0  0  0  0  0
   58.0990   31.3930   54.3050 C   0  0  0  0  0  0  0  0  0  0  0  0
   58.7180   32.4240   53.5950 C   0  0  0  0  0  0  0  0  0  0  0  0
   58.2060   32.8350   52.3540 C   0  0  0  0  0  0  0  0  0  0  0  0
   58.8570   33.9640   51.6110 C   0  0  0  0  0  0  0  0  0  0  0  0
   60.3090   33.8680   51.7720 N   0  0  0  0  0  0  0  0  0  0  0  0
   60.9570   32.6300   50.7390 S   0  0  0  0  0  0  0  0  0  0  0  0
   62.4530   32.7650   50.6750 O   0  0  0  0  0  0  0  0  0  0  0  0
   60.6070   31.2790   51.2940 O   0  0  0  0  0  0  0  0  0  0  0  0
   60.2490   32.8040   49.1370 C   0  0  0  0  0  0  0  0  0  0  0  0
   58.9490   32.3380   48.9080 C   0  0  0  0  0  0  0  0  0  0  0  0
   58.3130   32.6010   47.6940 C   0  0  0  0  0  0  0  0  0  0  0  0
   58.9740   33.3260   46.6950 C   0  0  0  0  0  0  0  0  0  0  0  0
   58.0930   33.7970   45.2470 S   0  0  0  0  0  0  0  0  0  0  0  0
   56.6780   34.1830   45.5770 O   0  0  0  0  0  0  0  0  0  0  0  0
   58.7850   34.9740   44.6190 O   0  0  0  0  0  0  0  0  0  0  0  0
   58.0790   32.4680   44.1310 N   0  0  0  0  0  0  0  0  0  0  0  0
   57.7840   31.1160   44.5230 C   0  0  0  0  0  0  0  0  0  0  0  0
   58.7750   30.3510   45.1580 C   0  0  0  0  0  0  0  0  0  0  0  0
   58.5120   29.0370   45.5570 C   0  0  0  0  0  0  0  0  0  0  0  0
   57.2540   28.4670   45.3220 C   0  0  0  0  0  0  0  0  0  0  0  0
   56.9100   26.8090   45.8080 S   0  0  0  0  0  0  0  0  0  0  0  0
   55.2070   26.5930   46.0060 N   0  0  0  0  0  0  0  0  0  0  0  0
   57.5950   26.4950   47.1090 O   0  0  0  0  0  0  0  0  0  0  0  0
   57.4160   25.8670   44.7530 O   0  0  0  0  0  0  0  0  0  0  0  0
   56.2650   29.2210   44.6800 C   0  0  0  0  0  0  0  0  0  0  0  0
   56.5280   30.5330   44.2760 C   0  0  0  0  0  0  0  0  0  0  0  0
   60.2940   33.7500   46.9040 C   0  0  0  0  0  0  0  0  0  0  0  0
   60.9290   33.4940   48.1220 C   0  0  0  0  0  0  0  0  0  0  0  0
   57.0510   32.2180   51.8460 C   0  0  0  0  0  0  0  0  0  0  0  0
   54.5878   30.1247   52.8133 H   0  0  0  0  0  0  0  0  0  0  0  0
   54.6487   31.1978   51.3741 H   0  0  0  0  0  0  0  0  0  0  0  0
   55.5489   29.6434   51.3741 H   0  0  0  0  0  0  0  0  0  0  0  0
   56.4903   29.9439   54.3414 H   0  0  0  0  0  0  0  0  0  0  0  0
   58.5074   31.0725   55.2748 H   0  0  0  0  0  0  0  0  0  0  0  0
   59.6102   32.9160   54.0097 H   0  0  0  0  0  0  0  0  0  0  0  0
   58.5995   33.8996   50.5435 H   0  0  0  0  0  0  0  0  0  0  0  0
   58.5021   34.9251   52.0114 H   0  0  0  0  0  0  0  0  0  0  0  0
   58.4273   31.7629   49.6872 H   0  0  0  0  0  0  0  0  0  0  0  0
   57.2892   32.2376   47.5214 H   0  0  0  0  0  0  0  0  0  0  0  0
   58.4620   32.6460   43.1750 H   0  0  0  0  0  0  0  0  0  0  0  0
   59.7669   30.7890   45.3433 H   0  0  0  0  0  0  0  0  0  0  0  0
   59.2955   28.4488   46.0571 H   0  0  0  0  0  0  0  0  0  0  0  0
   54.7710   26.6950   45.0630 H   0  0  0  0  0  0  0  0  0  0  0  0
   55.2755   28.7787   44.4924 H   0  0  0  0  0  0  0  0  0  0  0  0
   55.7478   31.1133   43.7616 H   0  0  0  0  0  0  0  0  0  0  0  0
   60.8310   34.2855   46.1072 H   0  0  0  0  0  0  0  0  0  0  0  0
   61.9625   33.8335   48.2852 H   0  0  0  0  0  0  0  0  0  0  0  0
   56.6365   32.5447   50.8809 H   0  0  0  0  0  0  0  0  0  0  0  0
  1  2  1  0
  2  3  2  0
  3  4  1  0
  4  5  2  0
  5  6  1  0
  6  7  1  0
  7  8  1  0
  8  9  1  0
  9 10  2  0
  9 11  2  0
  9 12  1  0
 12 13  2  0
 13 14  1  0
 14 15  2  0
 15 16  1  0
 16 17  2  0
 16 18  2  0
 16 19  1  0
 19 20  1  0
 20 21  2  0
 21 22  1  0
 22 23  2  0
 23 24  1  0
 24 25  1  0
 24 26  2  0
 24 27  2  0
 23 28  1  0
 28 29  2  0
 15 30  1  0
 30 31  2  0
  6 32  2  0
 32  2  1  0
 31 12  1  0
 29 20  1  0
  1 33  1  0
  1 34  1  0
  1 35  1  0
  3 36  1  0
  4 37  1  0
  5 38  1  0
  7 39  1  0
  7 40  1  0
 13 41  1  0
 14 42  1  0
 19 43  1  0
 21 44  1  0
 22 45  1  0
 25 46  1  0
 28 47  1  0
 29 48  1  0
 30 49  1  0
 31 50  1  0
 32 51  1  0
M  CHG  2   8  -1  25  -1
M  END
>  <UniqueID>  (73) 
67

>  <SMILES>  (73) 
Cc1cccc(C[N-]S(=O)(=O)c2ccc(S(=O)(=O)Nc3ccc(S([NH-])(=O)=O)cc3)cc2)c1

>  <Energy>  (73) 
48.35351232756566

>  <Genealogy>  (73) 
Cc1cccc(C[N-]S(=O)(=O)c2ccc(S(=O)(=O)Nc3ccc(S([NH-])(=O)=O)cc3)cc2)c1 (protonated)
Cc1cccc(C[N-]S(=O)(=O)c2ccc(S(=O)(=O)Nc3ccc(S([NH-])(=O)=O)cc3)cc2)c1 (3D coordinates assigned)
Cc1cccc(C[N-]S(=O)(=O)c2ccc(S(=O)(=O)Nc3ccc(S([NH-])(=O)=O)cc3)cc2)c1 (optimized conformer: 48.35351232756566 kcal/mol)

>  <smiles>  (73) 
Cc1cccc(CNS(=O)(=O)c2ccc(S(=O)(=O)Nc3ccc(S(N)(=O)=O)cc3)cc2)c1

>  <score_type>  (73) 
oracle

>  <origin>  (73) 
adg

>  <m_score__min__energy>  (73) 
-13.07

>  <m_primary>  (73) 
energy

$$$$
73:0
     RDKit          3D

 43 45  0  0  0  0  0  0  0  0999 V2000
   55.6453   24.5631   46.7561 H   0  0  0  0  0  0  0  0  0  0  0  0
   56.1530   25.4740   46.4060 C   0  0  0  0  0  0  0  0  0  0  0  0
   55.4720   26.5860   46.0200 N   0  0  0  0  0  0  0  0  0  0  0  0
   56.3050   27.5690   45.6210 C   0  0  0  0  0  0  0  0  0  0  0  0
   55.8690   28.7340   45.2400 N   0  0  0  0  0  0  0  0  0  0  0  0
   56.5850   29.6690   44.4220 C   0  0  0  0  0  0  0  0  0  0  0  0
   56.5410   29.5310   43.1710 O   0  0  0  0  0  0  0  0  0  0  0  0
   57.4280   30.7400   45.0070 C   0  0  0  0  0  0  0  0  0  0  0  0
   58.2540   30.4660   46.1120 C   0  0  0  0  0  0  0  0  0  0  0  0
   58.2777   29.4525   46.5389 H   0  0  0  0  0  0  0  0  0  0  0  0
   59.0450   31.4740   46.6710 C   0  0  0  0  0  0  0  0  0  0  0  0
   59.6961   31.2473   47.5282 H   0  0  0  0  0  0  0  0  0  0  0  0
   59.0120   32.7720   46.1440 C   0  0  0  0  0  0  0  0  0  0  0  0
   60.0020   34.0510   46.8410 S   0  0  0  0  0  0  0  0  0  0  0  0
   59.2320   35.3420   46.8410 O   0  0  0  0  0  0  0  0  0  0  0  0
   61.2400   34.2300   46.0080 O   0  0  0  0  0  0  0  0  0  0  0  0
   60.4490   33.6590   48.4790 N   0  0  0  0  0  0  0  0  0  0  0  0
   61.8290   33.4270   48.8330 C   0  0  0  0  0  0  0  0  0  0  0  0
   62.6510   32.6140   48.0290 C   0  0  0  0  0  0  0  0  0  0  0  0
   62.2355   32.1424   47.1262 H   0  0  0  0  0  0  0  0  0  0  0  0
   63.9900   32.4010   48.3680 C   0  0  0  0  0  0  0  0  0  0  0  0
   64.6181   31.7622   47.7297 H   0  0  0  0  0  0  0  0  0  0  0  0
   64.5390   32.9910   49.5090 C   0  0  0  0  0  0  0  0  0  0  0  0
   65.8880   32.7450   49.8050 O   0  0  0  0  0  0  0  0  0  0  0  0
   66.6110   33.3820   50.8530 C   0  0  0  0  0  0  0  0  0  0  0  0
   66.2244   33.0414   51.8249 H   0  0  0  0  0  0  0  0  0  0  0  0
   67.6774   33.1245   50.7719 H   0  0  0  0  0  0  0  0  0  0  0  0
   66.4899   34.4723   50.7719 H   0  0  0  0  0  0  0  0  0  0  0  0
   63.7250   33.8070   50.3170 C   0  0  0  0  0  0  0  0  0  0  0  0
   64.1446   34.2769   51.2187 H   0  0  0  0  0  0  0  0  0  0  0  0
   62.3860   34.0230   49.9790 C   0  0  0  0  0  0  0  0  0  0  0  0
   61.7610   34.6660   50.6161 H   0  0  0  0  0  0  0  0  0  0  0  0
   59.4010   33.5850   49.4990 C   0  0  0  0  0  0  0  0  0  0  0  0
   59.8592   33.6174   50.4985 H   0  0  0  0  0  0  0  0  0  0  0  0
   58.7150   34.4369   49.3824 H   0  0  0  0  0  0  0  0  0  0  0  0
   58.8415   32.6451   49.3824 H   0  0  0  0  0  0  0  0  0  0  0  0
   58.1830   33.0520   45.0510 C   0  0  0  0  0  0  0  0  0  0  0  0
   58.1541   34.0689   44.6325 H   0  0  0  0  0  0  0  0  0  0  0  0
   57.3920   32.0460   44.4890 C   0  0  0  0  0  0  0  0  0  0  0  0
   56.7373   32.2779   43.6360 H   0  0  0  0  0  0  0  0  0  0  0  0
   57.9220   27.1050   45.7520 S   0  0  0  0  0  0  0  0  0  0  0  0
   57.5380   25.5720   46.3260 C   0  0  0  0  0  0  0  0  0  0  0  0
   58.2573   24.7835   46.5921 H   0  0  0  0  0  0  0  0  0  0  0  0
  1  2  1  0
  2  3  1  0
  3  4  1  0
  4  5  2  0
  5  6  1  0
  6  7  2  0
  6  8  1  0
  8  9  2  0
  9 10  1  0
  9 11  1  0
 11 12  1  0
 11 13  2  0
 13 14  1  0
 14 15  2  0
 14 16  2  0
 14 17  1  0
 17 18  1  0
 18 19  2  0
 19 20  1  0
 19 21  1  0
 21 22  1  0
 21 23  2  0
 23 24  1  0
 24 25  1  0
 25 26  1  0
 25 27  1  0
 25 28  1  0
 23 29  1  0
 29 30  1  0
 29 31  2  0
 31 32  1  0
 17 33  1  0
 33 34  1  0
 33 35  1  0
 33 36  1  0
 13 37  1  0
 37 38  1  0
 37 39  2  0
 39 40  1  0
  4 41  1  0
 41 42  1  0
 42 43  1  0
 42  2  2  0
 39  8  1  0
 31 18  1  0
M  CHG  1   3  -1
M  END
>  <UniqueID>  (74) 
68

>  <SMILES>  (74) 
COc1ccc(N(C)S(=O)(=O)c2ccc(C(=O)/N=c3/[n-]ccs3)cc2)cc1

>  <Energy>  (74) 
87.56707283924814

>  <Genealogy>  (74) 
COc1ccc(N(C)S(=O)(=O)c2ccc(C(=O)N=c3[n-]ccs3)cc2)cc1 (protonated)
COc1ccc(N(C)S(=O)(=O)c2ccc(C(=O)/N=c3/[n-]ccs3)cc2)cc1 (cis-trans isomerization)
COc1ccc(N(C)S(=O)(=O)c2ccc(C(=O)/N=c3/[n-]ccs3)cc2)cc1 (3D coordinates assigned)
COc1ccc(N(C)S(=O)(=O)c2ccc(C(=O)/N=c3/[n-]ccs3)cc2)cc1 (optimized conformer: 87.56707283924814 kcal/mol)

>  <smiles>  (74) 
COc1ccc(N(C)S(=O)(=O)c2ccc(C(=O)N=c3[nH]ccs3)cc2)cc1

>  <score_type>  (74) 
oracle

>  <origin>  (74) 
adg

>  <m_score__min__energy>  (74) 
-10.23

>  <m_primary>  (74) 
energy

$$$$
74:0
     RDKit          3D

 49 51  0  0  0  0  0  0  0  0999 V2000
   58.1714   34.7552   47.0064 H   0  0  0  0  0  0  0  0  0  0  0  0
   58.0620   33.8900   46.3360 C   0  0  0  0  0  0  0  0  0  0  0  0
   57.9090   34.0860   44.9620 C   0  0  0  0  0  0  0  0  0  0  0  0
   57.8963   35.1064   44.5515 H   0  0  0  0  0  0  0  0  0  0  0  0
   57.7720   32.9890   44.1070 C   0  0  0  0  0  0  0  0  0  0  0  0
   57.6415   33.1513   43.0269 H   0  0  0  0  0  0  0  0  0  0  0  0
   57.8000   31.6740   44.6200 C   0  0  0  0  0  0  0  0  0  0  0  0
   57.6170   30.4460   43.7430 C   0  0  1  0  0  0  0  0  0  0  0  0
   58.3640   30.5503   42.9423 H   0  0  0  0  0  0  0  0  0  0  0  0
   57.8710   29.2250   44.5060 N   0  0  0  0  0  0  0  0  0  0  0  0
   56.8920   28.4740   45.2320 C   0  0  0  0  0  0  0  0  0  0  0  0
   55.6850   28.8390   45.2350 O   0  0  0  0  0  0  0  0  0  0  0  0
   57.3070   27.2810   46.0040 C   0  0  0  0  0  0  0  0  0  0  0  0
   56.4490   26.4170   46.4780 N   0  0  0  0  0  0  0  0  0  0  0  0
   55.6080   25.5350   45.7200 C   0  0  0  0  0  0  0  0  0  0  0  0
   54.3770   25.7920   45.6430 O   0  0  0  0  0  0  0  0  0  0  0  0
   56.1330   24.2710   45.1460 C   0  0  0  0  0  0  0  0  0  0  0  0
   56.1210   24.0980   43.7500 C   0  0  0  0  0  0  0  0  0  0  0  0
   55.7305   24.8993   43.1054 H   0  0  0  0  0  0  0  0  0  0  0  0
   56.6000   22.9190   43.1740 C   0  0  0  0  0  0  0  0  0  0  0  0
   56.5852   22.7957   42.0810 H   0  0  0  0  0  0  0  0  0  0  0  0
   57.0970   21.8980   43.9840 C   0  0  0  0  0  0  0  0  0  0  0  0
   57.4765   20.9710   43.5294 H   0  0  0  0  0  0  0  0  0  0  0  0
   57.1130   22.0520   45.3710 C   0  0  0  0  0  0  0  0  0  0  0  0
   57.5029   21.2426   46.0057 H   0  0  0  0  0  0  0  0  0  0  0  0
   56.6360   23.2300   45.9610 C   0  0  0  0  0  0  0  0  0  0  0  0
   56.6190   23.3190   47.8780 Br  0  0  0  0  0  0  0  0  0  0  0  0
   58.7700   27.0250   46.2290 C   0  0  0  0  0  0  0  0  0  0  0  0
   58.8891   26.1507   46.8858 H   0  0  0  0  0  0  0  0  0  0  0  0
   59.2545   26.8353   45.2598 H   0  0  0  0  0  0  0  0  0  0  0  0
   59.4140   28.2230   46.8740 C   0  0  0  0  0  0  0  0  0  0  0  0
   60.3750   28.9710   46.1730 C   0  0  0  0  0  0  0  0  0  0  0  0
   60.6794   28.6608   45.1625 H   0  0  0  0  0  0  0  0  0  0  0  0
   60.9460   30.1070   46.7530 C   0  0  0  0  0  0  0  0  0  0  0  0
   61.6982   30.6878   46.1990 H   0  0  0  0  0  0  0  0  0  0  0  0
   60.5620   30.5060   48.0370 C   0  0  0  0  0  0  0  0  0  0  0  0
   61.1160   31.6100   48.5970 F   0  0  0  0  0  0  0  0  0  0  0  0
   59.6060   29.7690   48.7410 C   0  0  0  0  0  0  0  0  0  0  0  0
   59.3039   30.0840   49.7507 H   0  0  0  0  0  0  0  0  0  0  0  0
   59.0330   28.6320   48.1640 C   0  0  0  0  0  0  0  0  0  0  0  0
   58.2808   28.0548   48.7217 H   0  0  0  0  0  0  0  0  0  0  0  0
   56.2640   30.3620   43.0220 C   0  0  0  0  0  0  0  0  0  0  0  0
   55.4548   30.3118   43.7655 H   0  0  0  0  0  0  0  0  0  0  0  0
   56.1283   31.2534   42.3920 H   0  0  0  0  0  0  0  0  0  0  0  0
   56.2396   29.4606   42.3920 H   0  0  0  0  0  0  0  0  0  0  0  0
   57.9410   31.4950   46.0080 C   0  0  0  0  0  0  0  0  0  0  0  0
   57.9451   30.4786   46.4287 H   0  0  0  0  0  0  0  0  0  0  0  0
   58.0760   32.5970   46.8580 C   0  0  0  0  0  0  0  0  0  0  0  0
   58.1935   32.4436   47.9409 H   0  0  0  0  0  0  0  0  0  0  0  0
  1  2  1  0
  2  3  2  0
  3  4  1  0
  3  5  1  0
  5  6  1  0
  5  7  2  0
  7  8  1  0
  8  9  1  6
  8 10  1  0
 10 11  1  0
 11 12  2  0
 11 13  1  0
 13 14  2  0
 14 15  1  0
 15 16  2  0
 15 17  1  0
 17 18  2  0
 18 19  1  0
 18 20  1  0
 20 21  1  0
 20 22  2  0
 22 23  1  0
 22 24  1  0
 24 25  1  0
 24 26  2  0
 26 27  1  0
 13 28  1  0
 28 29  1  0
 28 30  1  0
 28 31  1  0
 31 32  2  0
 32 33  1  0
 32 34  1  0
 34 35  1  0
 34 36  2  0
 36 37  1  0
 36 38  1  0
 38 39  1  0
 38 40  2  0
 40 41  1  0
  8 42  1  0
 42 43  1  0
 42 44  1  0
 42 45  1  0
  7 46  1  0
 46 47  1  0
 46 48  2  0
 48 49  1  0
 48  2  1  0
 26 17  1  0
 40 31  1  0
M  CHG  1  10  -1
M  END
>  <UniqueID>  (75) 
69

>  <SMILES>  (75) 
C[C@H]([N-]C(=O)/C(Cc1ccc(F)cc1)=N\C(=O)c1ccccc1Br)c1ccccc1

>  <Energy>  (75) 
59.75564657177712

>  <Genealogy>  (75) 
CC([N-]C(=O)C(Cc1ccc(F)cc1)=NC(=O)c1ccccc1Br)c1ccccc1 (protonated)
C[C@H]([N-]C(=O)C(Cc1ccc(F)cc1)=NC(=O)c1ccccc1Br)c1ccccc1 (chirality)
C[C@H]([N-]C(=O)/C(Cc1ccc(F)cc1)=N\C(=O)c1ccccc1Br)c1ccccc1 (cis-trans isomerization)
C[C@H]([N-]C(=O)/C(Cc1ccc(F)cc1)=N\C(=O)c1ccccc1Br)c1ccccc1 (3D coordinates assigned)
C[C@H]([N-]C(=O)/C(Cc1ccc(F)cc1)=N\C(=O)c1ccccc1Br)c1ccccc1 (optimized conformer: 59.75564657177712 kcal/mol)

>  <smiles>  (75) 
CC(NC(=O)C(Cc1ccc(F)cc1)=NC(=O)c1ccccc1Br)c1ccccc1

>  <score_type>  (75) 
oracle

>  <origin>  (75) 
adg

>  <m_score__min__energy>  (75) 
-10.81

>  <m_primary>  (75) 
energy

$$$$
75:0
     RDKit          3D

 38 40  0  0  0  0  0  0  0  0999 V2000
   57.7737   33.1932   42.8578 H   0  0  0  0  0  0  0  0  0  0  0  0
   57.7690   32.2080   43.3470 C   0  0  0  0  0  0  0  0  0  0  0  0
   58.4950   32.0080   44.4760 N   0  0  0  0  0  0  0  0  0  0  0  0
   58.5250   30.8180   45.1370 C   0  0  0  0  0  0  0  0  0  0  0  0
   59.3350   30.7280   46.1590 N   0  0  0  0  0  0  0  0  0  0  0  0
   59.3470   31.4810   47.3800 C   0  0  0  0  0  0  0  0  0  0  0  0
   59.6520   32.8520   47.3790 C   0  0  0  0  0  0  0  0  0  0  0  0
   59.8819   33.3625   46.4322 H   0  0  0  0  0  0  0  0  0  0  0  0
   59.6640   33.5690   48.5790 C   0  0  0  0  0  0  0  0  0  0  0  0
   59.9270   34.6371   48.5780 H   0  0  0  0  0  0  0  0  0  0  0  0
   59.3420   32.9300   49.7810 C   0  0  0  0  0  0  0  0  0  0  0  0
   59.3740   33.8260   51.2870 Cl  0  0  0  0  0  0  0  0  0  0  0  0
   58.9870   31.5760   49.7790 C   0  0  0  0  0  0  0  0  0  0  0  0
   58.7166   31.0771   50.7213 H   0  0  0  0  0  0  0  0  0  0  0  0
   58.9760   30.8570   48.5790 C   0  0  0  0  0  0  0  0  0  0  0  0
   58.6753   29.7989   48.5764 H   0  0  0  0  0  0  0  0  0  0  0  0
   57.6990   29.7520   44.6610 C   0  0  0  0  0  0  0  0  0  0  0  0
   57.4310   28.5120   45.4140 C   0  0  0  0  0  0  0  0  0  0  0  0
   58.3890   27.9790   46.2170 N   0  0  0  0  0  0  0  0  0  0  0  0
   58.1590   26.8190   46.8820 C   0  0  0  0  0  0  0  0  0  0  0  0
   59.0980   26.3230   47.6320 N   0  0  0  0  0  0  0  0  0  0  0  0
   60.1590   27.0530   48.2670 C   0  0  0  0  0  0  0  0  0  0  0  0
   60.7170   26.5620   49.2820 O   0  0  0  0  0  0  0  0  0  0  0  0
   60.5460   28.3550   47.8160 N   0  0  0  0  0  0  0  0  0  0  0  0
   59.9650   28.8870   47.1320 H   0  0  0  0  0  0  0  0  0  0  0  0
   61.3560   28.8390   48.2590 H   0  0  0  0  0  0  0  0  0  0  0  0
   56.9470   26.2140   46.7730 N   0  0  0  0  0  0  0  0  0  0  0  0
   55.9760   26.7540   45.9940 C   0  0  0  0  0  0  0  0  0  0  0  0
   54.7390   26.1140   45.8950 O   0  0  0  0  0  0  0  0  0  0  0  0
   54.6110   24.7290   45.5930 C   0  0  0  0  0  0  0  0  0  0  0  0
   54.5578   24.1531   46.5287 H   0  0  0  0  0  0  0  0  0  0  0  0
   53.6938   24.5644   45.0085 H   0  0  0  0  0  0  0  0  0  0  0  0
   55.4825   24.3991   45.0085 H   0  0  0  0  0  0  0  0  0  0  0  0
   56.2200   27.9070   45.3170 N   0  0  0  0  0  0  0  0  0  0  0  0
   56.9830   29.9430   43.4690 C   0  0  0  0  0  0  0  0  0  0  0  0
   56.3876   29.1169   43.0529 H   0  0  0  0  0  0  0  0  0  0  0  0
   57.0190   31.1680   42.8080 C   0  0  0  0  0  0  0  0  0  0  0  0
   56.4611   31.3115   41.8709 H   0  0  0  0  0  0  0  0  0  0  0  0
  1  2  1  0
  2  3  1  0
  3  4  1  0
  4  5  2  0
  5  6  1  0
  6  7  2  0
  7  8  1  0
  7  9  1  0
  9 10  1  0
  9 11  2  0
 11 12  1  0
 11 13  1  0
 13 14  1  0
 13 15  2  0
 15 16  1  0
  4 17  1  0
 17 18  1  0
 18 19  2  0
 19 20  1  0
 20 21  2  3
 21 22  1  0
 22 23  2  0
 22 24  1  0
 24 25  1  0
 24 26  1  0
 20 27  1  0
 27 28  2  0
 28 29  1  0
 29 30  1  0
 30 31  1  0
 30 32  1  0
 30 33  1  0
 28 34  1  0
 17 35  2  0
 35 36  1  0
 35 37  1  0
 37 38  1  0
 37  2  2  0
 15  6  1  0
 34 18  1  0
M  CHG  2   3  -1  34  -1
M  END
>  <UniqueID>  (76) 
70

>  <SMILES>  (76) 
COc1nc(=NC(N)=O)nc(-c2ccc[n-]/c2=N/c2ccc(Cl)cc2)[n-]1

>  <Energy>  (76) 
61.556986203662746

>  <Genealogy>  (76) 
COc1nc(=NC(N)=O)nc(-c2ccc[n-]c2=Nc2ccc(Cl)cc2)[n-]1 (protonated)
COc1nc(=NC(N)=O)nc(-c2ccc[n-]/c2=N/c2ccc(Cl)cc2)[n-]1 (cis-trans isomerization)
COc1nc(=NC(N)=O)nc(-c2ccc[n-]/c2=N/c2ccc(Cl)cc2)[n-]1 (3D coordinates assigned)
COc1nc(=NC(N)=O)nc(-c2ccc[n-]/c2=N/c2ccc(Cl)cc2)[n-]1 (optimized conformer: 61.556986203662746 kcal/mol)

>  <smiles>  (76) 
COc1nc(=NC(N)=O)nc(-c2ccc[nH]c2=Nc2ccc(Cl)cc2)[nH]1

>  <score_type>  (76) 
oracle

>  <origin>  (76) 
adg

>  <m_score__min__energy>  (76) 
-11.6

>  <m_primary>  (76) 
energy

$$$$
76:0
     RDKit          3D

 61 65  0  0  0  0  0  0  0  0999 V2000
   56.9690   23.7520   46.2220 N   0  0  0  0  0  0  0  0  0  0  0  0
   58.3130   24.1960   46.0150 C   0  0  0  0  0  0  0  0  0  0  0  0
   59.1760   23.3620   45.6310 O   0  0  0  0  0  0  0  0  0  0  0  0
   58.7110   25.6040   46.2590 C   0  0  0  0  0  0  0  0  0  0  0  0
   58.6210   26.1430   47.5550 C   0  0  0  0  0  0  0  0  0  0  0  0
   58.9980   27.4650   47.8020 C   0  0  0  0  0  0  0  0  0  0  0  0
   59.4740   28.2750   46.7610 C   0  0  0  0  0  0  0  0  0  0  0  0
   59.8780   29.6350   47.0100 N   0  0  0  0  0  0  0  0  0  0  0  0
   59.4970   30.7090   46.1140 C   0  0  0  0  0  0  0  0  0  0  0  0
   58.4120   30.5520   45.1330 C   0  0  0  0  0  0  0  0  0  0  0  0
   58.5170   31.1710   43.8790 C   0  0  0  0  0  0  0  0  0  0  0  0
   57.4790   31.0530   42.9510 C   0  0  0  0  0  0  0  0  0  0  0  0
   56.3390   30.3100   43.2660 C   0  0  0  0  0  0  0  0  0  0  0  0
   56.2330   29.6800   44.5090 C   0  0  0  0  0  0  0  0  0  0  0  0
   57.2680   29.7960   45.4420 C   0  0  0  0  0  0  0  0  0  0  0  0
   57.1550   29.1720   46.6420 F   0  0  0  0  0  0  0  0  0  0  0  0
   60.1490   31.8320   46.1360 N   0  0  0  0  0  0  0  0  0  0  0  0
   61.2590   32.0540   47.0110 C   0  0  0  0  0  0  0  0  0  0  0  0
   62.0520   33.1960   46.8550 C   0  0  0  0  0  0  0  0  0  0  0  0
   63.1640   33.3960   47.6790 C   0  0  0  0  0  0  0  0  0  0  0  0
   63.4840   32.4560   48.6640 C   0  0  0  0  0  0  0  0  0  0  0  0
   64.9980   32.7360   49.7950 Br  0  0  0  0  0  0  0  0  0  0  0  0
   62.6880   31.3180   48.8320 C   0  0  0  0  0  0  0  0  0  0  0  0
   61.5730   31.1090   48.0020 C   0  0  0  0  0  0  0  0  0  0  0  0
   60.6410   29.9430   48.2360 C   0  0  1  0  0  0  0  0  0  0  0  0
   59.6860   30.2900   49.3970 C   0  0  0  0  0  0  0  0  0  0  0  0
   59.8300   31.7100   49.8500 C   0  0  0  0  0  0  0  0  0  0  0  0
   60.7630   32.0310   50.6340 O   0  0  0  0  0  0  0  0  0  0  0  0
   58.9070   32.6970   49.3800 N   0  0  0  0  0  0  0  0  0  0  0  0
   59.3290   33.9570   48.7860 C   0  0  0  0  0  0  0  0  0  0  0  0
   58.7800   34.0530   47.3930 C   0  0  0  0  0  0  0  0  0  0  0  0
   59.4230   34.8490   46.4310 C   0  0  0  0  0  0  0  0  0  0  0  0
   58.8840   34.9750   45.1470 C   0  0  0  0  0  0  0  0  0  0  0  0
   57.6940   34.3170   44.8190 C   0  0  0  0  0  0  0  0  0  0  0  0
   57.0410   33.5350   45.7750 C   0  0  0  0  0  0  0  0  0  0  0  0
   57.5770   33.4080   47.0600 C   0  0  0  0  0  0  0  0  0  0  0  0
   59.5780   27.7370   45.4710 C   0  0  0  0  0  0  0  0  0  0  0  0
   59.2030   26.4150   45.2210 C   0  0  0  0  0  0  0  0  0  0  0  0
   56.7030   22.7720   45.9810 H   0  0  0  0  0  0  0  0  0  0  0  0
   56.2570   24.3540   46.6880 H   0  0  0  0  0  0  0  0  0  0  0  0
   58.2506   25.5181   48.3810 H   0  0  0  0  0  0  0  0  0  0  0  0
   58.9210   27.8737   48.8204 H   0  0  0  0  0  0  0  0  0  0  0  0
   59.4173   31.7500   43.6257 H   0  0  0  0  0  0  0  0  0  0  0  0
   57.5598   31.5460   41.9710 H   0  0  0  0  0  0  0  0  0  0  0  0
   55.5228   30.2205   42.5341 H   0  0  0  0  0  0  0  0  0  0  0  0
   55.3354   29.0929   44.7533 H   0  0  0  0  0  0  0  0  0  0  0  0
   61.8003   33.9379   46.0828 H   0  0  0  0  0  0  0  0  0  0  0  0
   63.7875   34.2933   47.5524 H   0  0  0  0  0  0  0  0  0  0  0  0
   62.9350   30.5857   49.6147 H   0  0  0  0  0  0  0  0  0  0  0  0
   61.2284   29.0510   48.4994 H   0  0  0  0  0  0  0  0  0  0  0  0
   58.6505   30.1292   49.0626 H   0  0  0  0  0  0  0  0  0  0  0  0
   59.9410   29.6395   50.2467 H   0  0  0  0  0  0  0  0  0  0  0  0
   58.9490   34.7942   49.3899 H   0  0  0  0  0  0  0  0  0  0  0  0
   60.4276   34.0016   48.7545 H   0  0  0  0  0  0  0  0  0  0  0  0
   60.3540   35.3752   46.6886 H   0  0  0  0  0  0  0  0  0  0  0  0
   59.3962   35.5921   44.3941 H   0  0  0  0  0  0  0  0  0  0  0  0
   57.2721   34.4153   43.8079 H   0  0  0  0  0  0  0  0  0  0  0  0
   56.1046   33.0189   45.5165 H   0  0  0  0  0  0  0  0  0  0  0  0
   57.0546   32.8004   47.8136 H   0  0  0  0  0  0  0  0  0  0  0  0
   59.9581   28.3610   44.6487 H   0  0  0  0  0  0  0  0  0  0  0  0
   59.2932   26.0051   44.2042 H   0  0  0  0  0  0  0  0  0  0  0  0
  1  2  1  0
  2  3  2  0
  2  4  1  0
  4  5  2  0
  5  6  1  0
  6  7  2  0
  7  8  1  0
  8  9  1  0
  9 10  1  0
 10 11  2  0
 11 12  1  0
 12 13  2  0
 13 14  1  0
 14 15  2  0
 15 16  1  0
  9 17  2  0
 17 18  1  0
 18 19  2  0
 19 20  1  0
 20 21  2  0
 21 22  1  0
 21 23  1  0
 23 24  2  0
 24 25  1  0
 25 26  1  0
 26 27  1  0
 27 28  2  0
 27 29  1  0
 29 30  1  0
 30 31  1  0
 31 32  2  0
 32 33  1  0
 33 34  2  0
 34 35  1  0
 35 36  2  0
  7 37  1  0
 37 38  2  0
 38  4  1  0
 25  8  1  0
 36 31  1  0
 15 10  1  0
 24 18  1  0
  1 39  1  0
  1 40  1  0
  5 41  1  0
  6 42  1  0
 11 43  1  0
 12 44  1  0
 13 45  1  0
 14 46  1  0
 19 47  1  0
 20 48  1  0
 23 49  1  0
 25 50  1  1
 26 51  1  0
 26 52  1  0
 30 53  1  0
 30 54  1  0
 32 55  1  0
 33 56  1  0
 34 57  1  0
 35 58  1  0
 36 59  1  0
 37 60  1  0
 38 61  1  0
M  CHG  1  29  -1
M  END
>  <UniqueID>  (77) 
71

>  <SMILES>  (77) 
NC(=O)c1ccc(N2C(c3ccccc3F)=Nc3ccc(Br)cc3[C@H]2CC(=O)[N-]Cc2ccccc2)cc1

>  <Energy>  (77) 
75.70502199580825

>  <Genealogy>  (77) 
NC(=O)c1ccc(N2C(c3ccccc3F)=Nc3ccc(Br)cc3C2CC(=O)[N-]Cc2ccccc2)cc1 (protonated)
NC(=O)c1ccc(N2C(c3ccccc3F)=Nc3ccc(Br)cc3[C@H]2CC(=O)[N-]Cc2ccccc2)cc1 (chirality)
NC(=O)c1ccc(N2C(c3ccccc3F)=Nc3ccc(Br)cc3[C@H]2CC(=O)[N-]Cc2ccccc2)cc1 (3D coordinates assigned)
NC(=O)c1ccc(N2C(c3ccccc3F)=Nc3ccc(Br)cc3[C@H]2CC(=O)[N-]Cc2ccccc2)cc1 (nonaromatic ring conformer: 75.70502199580825 kcal/mol)

>  <smiles>  (77) 
NC(=O)c1ccc(N2C(c3ccccc3F)=Nc3ccc(Br)cc3C2CC(=O)NCc2ccccc2)cc1

>  <score_type>  (77) 
oracle

>  <origin>  (77) 
adg

>  <m_score__min__energy>  (77) 
-10.49

>  <m_primary>  (77) 
energy

$$$$
77:0
     RDKit          3D

 42 44  0  0  0  0  0  0  0  0999 V2000
   59.5760   30.8090   47.5070 C   0  0  0  0  0  0  0  0  0  0  0  0
   58.2930   30.8870   46.8940 O   0  0  0  0  0  0  0  0  0  0  0  0
   58.0580   31.3340   45.5830 C   0  0  0  0  0  0  0  0  0  0  0  0
   58.5820   32.5570   45.1180 C   0  0  0  0  0  0  0  0  0  0  0  0
   58.3770   32.9610   43.7970 C   0  0  0  0  0  0  0  0  0  0  0  0
   57.6520   32.1520   42.9230 C   0  0  0  0  0  0  0  0  0  0  0  0
   57.1190   30.9420   43.3690 C   0  0  0  0  0  0  0  0  0  0  0  0
   57.3000   30.5270   44.7010 C   0  0  0  0  0  0  0  0  0  0  0  0
   56.7090   29.2430   45.1450 C   0  0  0  0  0  0  0  0  0  0  0  0
   55.5150   28.9730   44.8390 O   0  0  0  0  0  0  0  0  0  0  0  0
   57.4590   28.3380   45.9700 N   0  0  0  0  0  0  0  0  0  0  0  0
   57.1620   26.9400   46.1000 C   0  0  0  0  0  0  0  0  0  0  0  0
   55.9330   26.3430   46.3130 C   0  0  0  0  0  0  0  0  0  0  0  0
   56.0920   25.0050   46.2760 N   0  0  0  0  0  0  0  0  0  0  0  0
   57.3740   24.7570   46.0510 N   0  0  0  0  0  0  0  0  0  0  0  0
   57.9210   23.4150   45.8760 C   0  0  0  0  0  0  0  0  0  0  0  0
   57.1740   22.6960   44.7900 C   0  0  0  0  0  0  0  0  0  0  0  0
   56.7920   21.3670   44.7510 C   0  0  0  0  0  0  0  0  0  0  0  0
   57.0290   20.3350   45.8040 C   0  0  0  0  0  0  0  0  0  0  0  0
   56.2480   21.0940   43.5490 N   0  0  0  0  0  0  0  0  0  0  0  0
   56.2760   22.1980   42.8570 O   0  0  0  0  0  0  0  0  0  0  0  0
   56.8240   23.1760   43.5430 C   0  0  0  0  0  0  0  0  0  0  0  0
   57.0280   24.5590   43.0210 C   0  0  0  0  0  0  0  0  0  0  0  0
   58.0560   25.9100   45.9230 C   0  0  0  0  0  0  0  0  0  0  0  0
   59.4607   30.8160   48.6009 H   0  0  0  0  0  0  0  0  0  0  0  0
   60.0746   29.8789   47.1968 H   0  0  0  0  0  0  0  0  0  0  0  0
   60.1837   31.6719   47.1968 H   0  0  0  0  0  0  0  0  0  0  0  0
   59.1574   33.1988   45.8015 H   0  0  0  0  0  0  0  0  0  0  0  0
   58.7881   33.9188   43.4455 H   0  0  0  0  0  0  0  0  0  0  0  0
   57.5000   32.4680   41.8804 H   0  0  0  0  0  0  0  0  0  0  0  0
   56.5520   30.3067   42.6726 H   0  0  0  0  0  0  0  0  0  0  0  0
   58.2480   28.7210   46.5370 H   0  0  0  0  0  0  0  0  0  0  0  0
   54.9838   26.8719   46.4841 H   0  0  0  0  0  0  0  0  0  0  0  0
   58.9837   23.4873   45.6014 H   0  0  0  0  0  0  0  0  0  0  0  0
   57.8174   22.8562   46.8178 H   0  0  0  0  0  0  0  0  0  0  0  0
   56.9235   20.7943   46.7979 H   0  0  0  0  0  0  0  0  0  0  0  0
   56.2937   19.5242   45.6949 H   0  0  0  0  0  0  0  0  0  0  0  0
   58.0444   19.9263   45.6949 H   0  0  0  0  0  0  0  0  0  0  0  0
   57.1311   25.2577   43.8643 H   0  0  0  0  0  0  0  0  0  0  0  0
   57.9402   24.5883   42.4070 H   0  0  0  0  0  0  0  0  0  0  0  0
   56.1631   24.8504   42.4070 H   0  0  0  0  0  0  0  0  0  0  0  0
   59.1315   26.0103   45.7149 H   0  0  0  0  0  0  0  0  0  0  0  0
  1  2  1  0
  2  3  1  0
  3  4  2  0
  4  5  1  0
  5  6  2  0
  6  7  1  0
  7  8  2  0
  8  9  1  0
  9 10  2  0
  9 11  1  0
 11 12  1  0
 12 13  1  0
 13 14  2  0
 14 15  1  0
 15 16  1  0
 16 17  1  0
 17 18  1  0
 18 19  1  0
 18 20  2  0
 20 21  1  0
 21 22  1  0
 22 23  1  0
 15 24  1  0
  8  3  1  0
 24 12  2  0
 22 17  2  0
  1 25  1  0
  1 26  1  0
  1 27  1  0
  4 28  1  0
  5 29  1  0
  6 30  1  0
  7 31  1  0
 11 32  1  0
 13 33  1  0
 16 34  1  0
 16 35  1  0
 19 36  1  0
 19 37  1  0
 19 38  1  0
 23 39  1  0
 23 40  1  0
 23 41  1  0
 24 42  1  0
M  END
>  <UniqueID>  (78) 
72

>  <SMILES>  (78) 
COc1ccccc1C(=O)Nc1cnn(Cc2c(C)noc2C)c1

>  <Energy>  (78) 
105.69137174017469

>  <Genealogy>  (78) 
COc1ccccc1C(=O)Nc1cnn(Cc2c(C)noc2C)c1 (3D coordinates assigned)
COc1ccccc1C(=O)Nc1cnn(Cc2c(C)noc2C)c1 (optimized conformer: 105.69137174017469 kcal/mol)

>  <smiles>  (78) 
COc1ccccc1C(=O)Nc1cnn(Cc2c(C)noc2C)c1

>  <score_type>  (78) 
oracle

>  <origin>  (78) 
adg

>  <m_score__min__energy>  (78) 
-7.5700000000000003

>  <m_primary>  (78) 
energy

$$$$
78:0
     RDKit          3D

 50 52  0  0  1  0  0  0  0  0999 V2000
   57.7850   30.3260   45.8050 C   0  0  0  0  0  0  0  0  0  0  0  0
   58.0860   28.9320   46.1810 C   0  0  0  0  0  0  0  0  0  0  0  0
   57.4320   27.8920   45.5510 C   0  0  0  0  0  0  0  0  0  0  0  0
   57.7230   26.6150   45.8930 C   0  0  0  0  0  0  0  0  0  0  0  0
   57.0900   25.3920   45.3070 C   0  0  0  0  0  0  0  0  0  0  0  0
   55.7460   25.2870   45.9570 C   0  0  0  0  0  0  0  0  0  0  0  0
   55.3970   24.2130   46.5910 O   0  0  0  0  0  0  0  0  0  0  0  0
   54.8810   26.3360   45.8700 O   0  0  0  0  0  0  0  0  0  0  0  0
   58.6720   26.3510   46.8730 C   0  0  0  0  0  0  0  0  0  0  0  0
   59.3070   27.3880   47.4870 C   0  0  0  0  0  0  0  0  0  0  0  0
   60.3140   27.1230   48.5560 C   0  0  0  0  0  0  0  0  0  0  0  0
   59.0510   28.7310   47.1740 C   0  0  0  0  0  0  0  0  0  0  0  0
   59.7280   29.6730   47.8290 O   0  0  0  0  0  0  0  0  0  0  0  0
   59.4920   30.8060   48.4940 C   0  0  0  0  0  0  0  0  0  0  0  0
   58.6490   30.9240   49.5720 C   0  0  0  0  0  0  0  0  0  0  0  0
   58.5280   32.1660   50.1470 C   0  0  0  0  0  0  0  0  0  0  0  0
   57.7200   32.2600   51.1510 N   0  0  0  0  0  0  0  0  0  0  0  0
   59.1950   33.2610   49.6980 N   0  0  0  0  0  0  0  0  0  0  0  0
   60.0320   33.1370   48.6240 C   0  0  0  0  0  0  0  0  0  0  0  0
   60.6790   34.1640   48.1560 N   0  0  0  0  0  0  0  0  0  0  0  0
   60.1070   35.0320   47.2110 C   0  0  0  0  0  0  0  0  0  0  0  0
   59.0600   34.3990   46.3330 C   0  0  0  0  0  0  0  0  0  0  0  0
   57.7980   34.0730   46.7520 C   0  0  0  0  0  0  0  0  0  0  0  0
   56.9720   33.4590   45.8270 C   0  0  0  0  0  0  0  0  0  0  0  0
   57.4110   33.1820   44.5230 C   0  0  0  0  0  0  0  0  0  0  0  0
   58.6820   33.5160   44.1080 C   0  0  0  0  0  0  0  0  0  0  0  0
   59.5030   34.1280   45.0270 C   0  0  0  0  0  0  0  0  0  0  0  0
   60.1440   31.9220   48.0700 N   0  0  0  0  0  0  0  0  0  0  0  0
   57.6544   30.9310   46.7143 H   0  0  0  0  0  0  0  0  0  0  0  0
   58.6160   30.7329   45.2101 H   0  0  0  0  0  0  0  0  0  0  0  0
   56.8602   30.3538   45.2101 H   0  0  0  0  0  0  0  0  0  0  0  0
   56.6794   28.0998   44.7762 H   0  0  0  0  0  0  0  0  0  0  0  0
   56.9828   25.4991   44.2175 H   0  0  0  0  0  0  0  0  0  0  0  0
   57.6994   24.4932   45.4822 H   0  0  0  0  0  0  0  0  0  0  0  0
   54.0250   26.3370   46.4000 H   0  0  0  0  0  0  0  0  0  0  0  0
   58.9085   25.3132   47.1507 H   0  0  0  0  0  0  0  0  0  0  0  0
   59.8430   27.2470   49.5423 H   0  0  0  0  0  0  0  0  0  0  0  0
   60.6921   26.0948   48.4568 H   0  0  0  0  0  0  0  0  0  0  0  0
   61.1492   27.8319   48.4568 H   0  0  0  0  0  0  0  0  0  0  0  0
   58.0925   30.0580   49.9598 H   0  0  0  0  0  0  0  0  0  0  0  0
   56.6980   32.3770   50.9640 H   0  0  0  0  0  0  0  0  0  0  0  0
   59.0680   34.1820   50.1730 H   0  0  0  0  0  0  0  0  0  0  0  0
   59.6413   35.8693   47.7515 H   0  0  0  0  0  0  0  0  0  0  0  0
   60.9227   35.3497   46.5449 H   0  0  0  0  0  0  0  0  0  0  0  0
   57.4569   34.2889   47.7752 H   0  0  0  0  0  0  0  0  0  0  0  0
   55.9487   33.1819   46.1202 H   0  0  0  0  0  0  0  0  0  0  0  0
   56.7264   32.6881   43.8177 H   0  0  0  0  0  0  0  0  0  0  0  0
   59.0257   33.3023   43.0851 H   0  0  0  0  0  0  0  0  0  0  0  0
   60.5250   34.4104   44.7341 H   0  0  0  0  0  0  0  0  0  0  0  0
   60.7740   31.7590   47.2500 H   0  0  0  0  0  0  0  0  0  0  0  0
  1  2  1  0
  2  3  2  0
  3  4  1  0
  4  5  1  0
  5  6  1  0
  6  7  2  0
  6  8  1  0
  4  9  2  0
  9 10  1  0
 10 11  1  0
 10 12  2  0
 12 13  1  0
 13 14  1  0
 14 15  2  0
 15 16  1  0
 16 17  2  3
 16 18  1  0
 18 19  1  0
 19 20  2  0
 20 21  1  0
 21 22  1  0
 22 23  2  0
 23 24  1  0
 24 25  2  0
 25 26  1  0
 26 27  2  0
 19 28  1  0
 12  2  1  0
 28 14  1  0
 27 22  1  0
  1 29  1  0
  1 30  1  0
  1 31  1  0
  3 32  1  0
  5 33  1  0
  5 34  1  0
  8 35  1  0
  9 36  1  0
 11 37  1  0
 11 38  1  0
 11 39  1  0
 15 40  1  0
 17 41  1  0
 18 42  1  0
 21 43  1  0
 21 44  1  0
 23 45  1  0
 24 46  1  0
 25 47  1  0
 26 48  1  0
 27 49  1  0
 28 50  1  0
M  END
>  <smiles>  (79) 
Cc1cc(CC(=O)O)cc(C)c1Oc1cc(=N)[nH]c(=NCc2ccccc2)[nH]1

>  <score_type>  (79) 
oracle

>  <origin>  (79) 
adg

>  <m_score__min__energy>  (79) 
-9.1799999999999997

>  <m_primary>  (79) 
energy

$$$$
79:0
     RDKit          3D

 43 46  0  0  0  0  0  0  0  0999 V2000
   56.0460   24.2050   46.8710 C   0  0  0  0  0  0  0  0  0  0  0  0
   56.4160   25.5510   46.3460 C   0  0  0  0  0  0  0  0  0  0  0  0
   57.7050   26.0190   46.1750 C   0  0  0  0  0  0  0  0  0  0  0  0
   57.5820   27.3020   45.6670 C   0  0  0  0  0  0  0  0  0  0  0  0
   58.7210   28.2850   45.4380 C   0  0  1  0  0  0  0  0  0  0  0  0
   58.2280   29.6710   45.0350 C   0  0  0  0  0  0  0  0  0  0  0  0
   57.7250   29.8780   43.7390 C   0  0  0  0  0  0  0  0  0  0  0  0
   57.3070   31.1480   43.3360 C   0  0  0  0  0  0  0  0  0  0  0  0
   57.3930   32.2270   44.2150 C   0  0  0  0  0  0  0  0  0  0  0  0
   57.9000   32.0500   45.5070 C   0  0  0  0  0  0  0  0  0  0  0  0
   57.9680   33.1860   46.3790 N   0  0  0  0  0  0  0  0  0  0  0  0
   59.2960   34.2990   46.4640 S   0  0  0  0  0  0  0  0  0  0  0  0
   59.5080   34.9480   45.1240 O   0  0  0  0  0  0  0  0  0  0  0  0
   59.0040   35.3440   47.5030 O   0  0  0  0  0  0  0  0  0  0  0  0
   60.7460   33.4270   46.9140 C   0  0  0  0  0  0  0  0  0  0  0  0
   62.0470   33.8580   46.7090 C   0  0  0  0  0  0  0  0  0  0  0  0
   63.0020   32.9530   47.1890 C   0  0  0  0  0  0  0  0  0  0  0  0
   62.4520   31.8180   47.7710 C   0  0  0  0  0  0  0  0  0  0  0  0
   60.7750   31.9380   47.6920 S   0  0  0  0  0  0  0  0  0  0  0  0
   58.3240   30.7720   45.9110 C   0  0  0  0  0  0  0  0  0  0  0  0
   59.7620   28.2840   46.5940 C   0  0  0  0  0  0  0  0  0  0  0  0
   60.4060   26.9450   46.9320 C   0  0  0  0  0  0  0  0  0  0  0  0
   59.4450   27.5880   47.9180 C   0  0  0  0  0  0  0  0  0  0  0  0
   56.2140   27.5360   45.6210 C   0  0  0  0  0  0  0  0  0  0  0  0
   55.5990   28.7210   45.2410 O   0  0  0  0  0  0  0  0  0  0  0  0
   55.5480   26.4770   46.0150 O   0  0  0  0  0  0  0  0  0  0  0  0
   56.0518   24.2261   47.9708 H   0  0  0  0  0  0  0  0  0  0  0  0
   55.0406   23.9361   46.5147 H   0  0  0  0  0  0  0  0  0  0  0  0
   56.7727   23.4600   46.5147 H   0  0  0  0  0  0  0  0  0  0  0  0
   58.6389   25.4819   46.3971 H   0  0  0  0  0  0  0  0  0  0  0  0
   59.2802   27.9208   44.5636 H   0  0  0  0  0  0  0  0  0  0  0  0
   57.6601   29.0335   43.0371 H   0  0  0  0  0  0  0  0  0  0  0  0
   56.9085   31.2977   42.3217 H   0  0  0  0  0  0  0  0  0  0  0  0
   57.0601   33.2239   43.8905 H   0  0  0  0  0  0  0  0  0  0  0  0
   62.3026   34.8101   46.2210 H   0  0  0  0  0  0  0  0  0  0  0  0
   64.0858   33.1249   47.1123 H   0  0  0  0  0  0  0  0  0  0  0  0
   63.0169   30.9821   48.2094 H   0  0  0  0  0  0  0  0  0  0  0  0
   58.7351   30.6293   46.9213 H   0  0  0  0  0  0  0  0  0  0  0  0
   60.1063   29.2955   46.3326 H   0  0  0  0  0  0  0  0  0  0  0  0
   60.1070   26.0384   46.3855 H   0  0  0  0  0  0  0  0  0  0  0  0
   61.4397   26.5729   46.9863 H   0  0  0  0  0  0  0  0  0  0  0  0
   58.4507   27.1477   48.0837 H   0  0  0  0  0  0  0  0  0  0  0  0
   59.4949   27.8743   48.9789 H   0  0  0  0  0  0  0  0  0  0  0  0
  1  2  1  0
  2  3  2  0
  3  4  1  0
  4  5  1  0
  5  6  1  0
  6  7  2  0
  7  8  1  0
  8  9  2  0
  9 10  1  0
 10 11  1  0
 11 12  1  0
 12 13  2  0
 12 14  2  0
 12 15  1  0
 15 16  2  0
 16 17  1  0
 17 18  2  0
 18 19  1  0
 10 20  2  0
  5 21  1  0
 21 22  1  0
 22 23  1  0
  4 24  2  0
 24 25  1  0
 24 26  1  0
 26  2  1  0
 20  6  1  0
 23 21  1  0
 19 15  1  0
  1 27  1  0
  1 28  1  0
  1 29  1  0
  3 30  1  0
  5 31  1  6
  7 32  1  0
  8 33  1  0
  9 34  1  0
 16 35  1  0
 17 36  1  0
 18 37  1  0
 20 38  1  0
 21 39  1  0
 22 40  1  0
 22 41  1  0
 23 42  1  0
 23 43  1  0
M  CHG  2  11  -1  25  -1
M  END
>  <UniqueID>  (80) 
73

>  <SMILES>  (80) 
Cc1cc([C@@H](c2cccc([N-]S(=O)(=O)c3cccs3)c2)C2CC2)c([O-])o1

>  <Energy>  (80) 
372.83849200060314

>  <Genealogy>  (80) 
Cc1cc(C(c2cccc([N-]S(=O)(=O)c3cccs3)c2)C2CC2)c([O-])o1 (protonated)
Cc1cc([C@@H](c2cccc([N-]S(=O)(=O)c3cccs3)c2)C2CC2)c([O-])o1 (chirality)
Cc1cc([C@@H](c2cccc([N-]S(=O)(=O)c3cccs3)c2)C2CC2)c([O-])o1 (3D coordinates assigned)
Cc1cc([C@@H](c2cccc([N-]S(=O)(=O)c3cccs3)c2)C2CC2)c([O-])o1 (nonaromatic ring conformer: 372.83849200060314 kcal/mol)

>  <smiles>  (80) 
Cc1cc(C(c2cccc(NS(=O)(=O)c3cccs3)c2)C2CC2)c(O)o1

>  <score_type>  (80) 
oracle

>  <origin>  (80) 
adg

>  <m_score__min__energy>  (80) 
-12.800000000000001

>  <m_primary>  (80) 
energy

$$$$
80:0
     RDKit          3D

 59 62  0  0  0  0  0  0  0  0999 V2000
   60.0240   33.7600   51.0090 C   0  0  0  0  0  0  0  0  0  0  0  0
   60.9090   33.2540   50.0170 O   0  0  0  0  0  0  0  0  0  0  0  0
   60.7410   32.0330   49.3440 C   0  0  0  0  0  0  0  0  0  0  0  0
   59.6920   31.1530   49.6660 C   0  0  0  0  0  0  0  0  0  0  0  0
   59.5250   29.9560   48.9670 C   0  0  0  0  0  0  0  0  0  0  0  0
   60.4160   29.6080   47.9390 C   0  0  0  0  0  0  0  0  0  0  0  0
   60.2890   28.4220   47.1980 O   0  0  0  0  0  0  0  0  0  0  0  0
   60.4660   28.3140   45.7860 C   0  0  0  0  0  0  0  0  0  0  0  0
   59.2170   28.7530   45.0700 C   0  0  0  0  0  0  0  0  0  0  0  0
   58.6250   27.9040   44.1240 C   0  0  0  0  0  0  0  0  0  0  0  0
   57.4810   28.3060   43.4340 C   0  0  0  0  0  0  0  0  0  0  0  0
   56.9170   29.5590   43.6860 C   0  0  0  0  0  0  0  0  0  0  0  0
   57.4920   30.4210   44.6260 C   0  0  0  0  0  0  0  0  0  0  0  0
   56.8810   31.6680   44.8380 O   0  0  0  0  0  0  0  0  0  0  0  0
   57.3780   32.9220   44.3720 C   0  0  0  0  0  0  0  0  0  0  0  0
   58.1850   33.6150   45.4380 C   0  0  0  0  0  0  0  0  0  0  0  0
   58.0020   33.2850   46.7930 C   0  0  0  0  0  0  0  0  0  0  0  0
   58.7900   33.8890   47.7780 C   0  0  0  0  0  0  0  0  0  0  0  0
   59.7750   34.8120   47.4180 C   0  0  0  0  0  0  0  0  0  0  0  0
   59.9640   35.1440   46.0740 C   0  0  0  0  0  0  0  0  0  0  0  0
   59.1750   34.5480   45.0870 C   0  0  0  0  0  0  0  0  0  0  0  0
   58.6480   30.0120   45.3210 C   0  0  0  0  0  0  0  0  0  0  0  0
   61.4720   30.4690   47.6290 C   0  0  0  0  0  0  0  0  0  0  0  0
   61.6420   31.6820   48.3180 C   0  0  0  0  0  0  0  0  0  0  0  0
   62.7200   32.6340   47.8640 C   0  0  0  0  0  0  0  0  0  0  0  0
   63.3700   33.2350   49.0290 N   0  0  0  0  0  0  0  0  0  0  0  0
   64.4030   32.5640   49.7710 C   0  0  0  0  0  0  0  0  0  0  0  0
   64.1270   31.4070   50.5230 C   0  0  0  0  0  0  0  0  0  0  0  0
   65.1420   30.7910   51.2620 C   0  0  0  0  0  0  0  0  0  0  0  0
   66.4370   31.3140   51.2490 C   0  0  0  0  0  0  0  0  0  0  0  0
   66.7230   32.4510   50.4890 C   0  0  0  0  0  0  0  0  0  0  0  0
   67.9810   32.9580   50.4760 F   0  0  0  0  0  0  0  0  0  0  0  0
   65.7130   33.0690   49.7450 C   0  0  0  0  0  0  0  0  0  0  0  0
   60.4238   33.5314   52.0080 H   0  0  0  0  0  0  0  0  0  0  0  0
   59.9277   34.8496   50.8931 H   0  0  0  0  0  0  0  0  0  0  0  0
   59.0361   33.2902   50.8931 H   0  0  0  0  0  0  0  0  0  0  0  0
   58.9955   31.4107   50.4775 H   0  0  0  0  0  0  0  0  0  0  0  0
   58.6929   29.2834   49.2224 H   0  0  0  0  0  0  0  0  0  0  0  0
   61.3062   28.9524   45.4753 H   0  0  0  0  0  0  0  0  0  0  0  0
   60.6763   27.2651   45.5300 H   0  0  0  0  0  0  0  0  0  0  0  0
   59.0649   26.9157   43.9248 H   0  0  0  0  0  0  0  0  0  0  0  0
   57.0230   27.6362   42.6913 H   0  0  0  0  0  0  0  0  0  0  0  0
   56.0136   29.8703   43.1410 H   0  0  0  0  0  0  0  0  0  0  0  0
   58.0161   32.7512   43.4924 H   0  0  0  0  0  0  0  0  0  0  0  0
   56.5222   33.5617   44.1103 H   0  0  0  0  0  0  0  0  0  0  0  0
   57.2362   32.5490   47.0791 H   0  0  0  0  0  0  0  0  0  0  0  0
   58.6340   33.6370   48.8373 H   0  0  0  0  0  0  0  0  0  0  0  0
   60.4019   35.2775   48.1928 H   0  0  0  0  0  0  0  0  0  0  0  0
   60.7354   35.8759   45.7925 H   0  0  0  0  0  0  0  0  0  0  0  0
   59.3297   34.8105   44.0300 H   0  0  0  0  0  0  0  0  0  0  0  0
   59.1065   30.6820   46.0633 H   0  0  0  0  0  0  0  0  0  0  0  0
   62.1806   30.1933   46.8341 H   0  0  0  0  0  0  0  0  0  0  0  0
   63.4667   32.0851   47.2714 H   0  0  0  0  0  0  0  0  0  0  0  0
   62.2701   33.4269   47.2485 H   0  0  0  0  0  0  0  0  0  0  0  0
   62.8730   34.0330   49.4880 H   0  0  0  0  0  0  0  0  0  0  0  0
   63.1107   30.9862   50.5296 H   0  0  0  0  0  0  0  0  0  0  0  0
   64.9198   29.8918   51.8553 H   0  0  0  0  0  0  0  0  0  0  0  0
   67.2314   30.8310   51.8369 H   0  0  0  0  0  0  0  0  0  0  0  0
   65.9459   33.9552   49.1363 H   0  0  0  0  0  0  0  0  0  0  0  0
  1  2  1  0
  2  3  1  0
  3  4  2  0
  4  5  1  0
  5  6  2  0
  6  7  1  0
  7  8  1  0
  8  9  1  0
  9 10  2  0
 10 11  1  0
 11 12  2  0
 12 13  1  0
 13 14  1  0
 14 15  1  0
 15 16  1  0
 16 17  2  0
 17 18  1  0
 18 19  2  0
 19 20  1  0
 20 21  2  0
 13 22  2  0
  6 23  1  0
 23 24  2  0
 24 25  1  0
 25 26  1  0
 26 27  1  0
 27 28  2  0
 28 29  1  0
 29 30  2  0
 30 31  1  0
 31 32  1  0
 31 33  2  0
 24  3  1  0
 33 27  1  0
 22  9  1  0
 21 16  1  0
  1 34  1  0
  1 35  1  0
  1 36  1  0
  4 37  1  0
  5 38  1  0
  8 39  1  0
  8 40  1  0
 10 41  1  0
 11 42  1  0
 12 43  1  0
 15 44  1  0
 15 45  1  0
 17 46  1  0
 18 47  1  0
 19 48  1  0
 20 49  1  0
 21 50  1  0
 22 51  1  0
 23 52  1  0
 25 53  1  0
 25 54  1  0
 26 55  1  0
 28 56  1  0
 29 57  1  0
 30 58  1  0
 33 59  1  0
M  END
>  <UniqueID>  (81) 
74

>  <SMILES>  (81) 
COc1ccc(OCc2cccc(OCc3ccccc3)c2)cc1CNc1cccc(F)c1

>  <Energy>  (81) 
59.800381491785586

>  <Genealogy>  (81) 
COc1ccc(OCc2cccc(OCc3ccccc3)c2)cc1CNc1cccc(F)c1 (3D coordinates assigned)
COc1ccc(OCc2cccc(OCc3ccccc3)c2)cc1CNc1cccc(F)c1 (optimized conformer: 59.800381491785586 kcal/mol)

>  <smiles>  (81) 
COc1ccc(OCc2cccc(OCc3ccccc3)c2)cc1CNc1cccc(F)c1

>  <score_type>  (81) 
oracle

>  <origin>  (81) 
adg

>  <m_score__min__energy>  (81) 
-8.8399999999999999

>  <m_primary>  (81) 
energy

$$$$
81:0
     RDKit          3D

 54 57  0  0  0  0  0  0  0  0999 V2000
   53.8920   26.7000   46.3720 H   0  0  0  0  0  0  0  0  0  0  0  0
   54.4590   26.0390   45.7960 N   0  0  0  0  0  0  0  0  0  0  0  0
   55.7740   25.6610   46.2010 C   0  0  0  0  0  0  0  0  0  0  0  0
   55.9350   24.6260   46.8980 O   0  0  0  0  0  0  0  0  0  0  0  0
   56.9320   26.4430   45.7300 C   0  0  0  0  0  0  0  0  0  0  0  0
   56.9050   27.8050   45.4970 C   0  0  0  0  0  0  0  0  0  0  0  0
   56.0960   28.4894   45.7922 H   0  0  0  0  0  0  0  0  0  0  0  0
   58.0340   28.1570   44.8480 N   0  0  0  0  0  0  0  0  0  0  0  0
   58.4050   29.5220   44.4640 C   0  0  0  0  0  0  0  0  0  0  0  0
   59.1088   29.4831   43.6195 H   0  0  0  0  0  0  0  0  0  0  0  0
   57.1480   30.2900   43.9980 C   0  0  0  0  0  0  0  0  0  0  0  0
   56.2823   29.9602   44.5911 H   0  0  0  0  0  0  0  0  0  0  0  0
   56.9800   30.0813   42.9311 H   0  0  0  0  0  0  0  0  0  0  0  0
   57.3390   31.7980   44.1820 C   0  0  0  0  0  0  0  0  0  0  0  0
   56.4570   32.3228   43.7861 H   0  0  0  0  0  0  0  0  0  0  0  0
   58.2463   32.1038   43.6405 H   0  0  0  0  0  0  0  0  0  0  0  0
   57.5060   32.1440   45.6130 N   0  0  0  0  0  0  0  0  0  0  0  0
   57.9570   33.5380   45.8380 C   0  0  0  0  0  0  0  0  0  0  0  0
   57.1671   34.0741   46.3846 H   0  0  0  0  0  0  0  0  0  0  0  0
   58.1545   33.9746   44.8479 H   0  0  0  0  0  0  0  0  0  0  0  0
   59.2440   33.6440   46.6320 C   0  0  0  0  0  0  0  0  0  0  0  0
   60.4850   33.6950   45.9780 C   0  0  0  0  0  0  0  0  0  0  0  0
   60.5267   33.6571   44.8794 H   0  0  0  0  0  0  0  0  0  0  0  0
   61.6360   33.7910   46.6960 N   0  0  0  0  0  0  0  0  0  0  0  0
   61.6330   33.8530   48.0560 C   0  0  0  0  0  0  0  0  0  0  0  0
   62.8300   33.9510   48.7720 O   0  0  0  0  0  0  0  0  0  0  0  0
   63.9410   33.0940   48.5390 C   0  0  0  0  0  0  0  0  0  0  0  0
   64.3619   32.7693   49.5020 H   0  0  0  0  0  0  0  0  0  0  0  0
   63.6116   32.2138   47.9674 H   0  0  0  0  0  0  0  0  0  0  0  0
   64.7087   33.6361   47.9674 H   0  0  0  0  0  0  0  0  0  0  0  0
   60.4200   33.8280   48.7470 C   0  0  0  0  0  0  0  0  0  0  0  0
   60.4067   33.8835   49.8455 H   0  0  0  0  0  0  0  0  0  0  0  0
   59.2240   33.7320   48.0330 C   0  0  0  0  0  0  0  0  0  0  0  0
   58.2637   33.7253   48.5695 H   0  0  0  0  0  0  0  0  0  0  0  0
   58.2020   31.1280   46.4420 C   0  0  0  0  0  0  0  0  0  0  0  0
   57.4480   30.4850   46.9195 H   0  0  0  0  0  0  0  0  0  0  0  0
   58.8076   31.6624   47.1888 H   0  0  0  0  0  0  0  0  0  0  0  0
   59.1510   30.2450   45.6140 C   0  0  0  0  0  0  0  0  0  0  0  0
   59.6035   29.4909   46.2748 H   0  0  0  0  0  0  0  0  0  0  0  0
   59.9208   30.8927   45.1692 H   0  0  0  0  0  0  0  0  0  0  0  0
   58.8070   27.0950   44.6750 N   0  0  0  0  0  0  0  0  0  0  0  0
   58.1660   26.0360   45.2070 C   0  0  0  0  0  0  0  0  0  0  0  0
   58.7100   24.8510   45.2260 N   0  0  0  0  0  0  0  0  0  0  0  0
   58.1180   23.6140   44.8140 C   0  0  0  0  0  0  0  0  0  0  0  0
   57.3040   23.5510   43.6690 C   0  0  0  0  0  0  0  0  0  0  0  0
   57.1570   24.4489   43.0507 H   0  0  0  0  0  0  0  0  0  0  0  0
   56.6810   22.3510   43.3140 C   0  0  0  0  0  0  0  0  0  0  0  0
   56.0564   22.3020   42.4099 H   0  0  0  0  0  0  0  0  0  0  0  0
   56.8520   21.2120   44.1090 C   0  0  0  0  0  0  0  0  0  0  0  0
   56.2470   20.0500   43.7630 F   0  0  0  0  0  0  0  0  0  0  0  0
   57.6370   21.2770   45.2670 C   0  0  0  0  0  0  0  0  0  0  0  0
   57.7940   20.1770   46.0440 F   0  0  0  0  0  0  0  0  0  0  0  0
   58.2550   22.4790   45.6260 C   0  0  0  0  0  0  0  0  0  0  0  0
   58.8509   22.5344   46.5489 H   0  0  0  0  0  0  0  0  0  0  0  0
  1  2  1  0
  2  3  1  0
  3  4  2  0
  3  5  1  0
  5  6  2  0
  6  7  1  0
  6  8  1  0
  8  9  1  0
  9 10  1  0
  9 11  1  0
 11 12  1  0
 11 13  1  0
 11 14  1  0
 14 15  1  0
 14 16  1  0
 14 17  1  0
 17 18  1  0
 18 19  1  0
 18 20  1  0
 18 21  1  0
 21 22  2  0
 22 23  1  0
 22 24  1  0
 24 25  2  0
 25 26  1  0
 26 27  1  0
 27 28  1  0
 27 29  1  0
 27 30  1  0
 25 31  1  0
 31 32  1  0
 31 33  2  0
 33 34  1  0
 17 35  1  0
 35 36  1  0
 35 37  1  0
 35 38  1  0
 38 39  1  0
 38 40  1  0
  8 41  1  0
 41 42  1  0
 42 43  2  0
 43 44  1  0
 44 45  2  0
 45 46  1  0
 45 47  1  0
 47 48  1  0
 47 49  2  0
 49 50  1  0
 49 51  1  0
 51 52  1  0
 51 53  2  0
 53 54  1  0
 42  5  1  0
 53 44  1  0
 38  9  1  0
 33 21  1  0
M  CHG  2   2  -1  41  -1
M  END
>  <UniqueID>  (82) 
75

>  <SMILES>  (82) 
COc1ccc(CN2CCC(n3cc(C([NH-])=O)/c(=N\c4ccc(F)c(F)c4)[n-]3)CC2)cn1

>  <Energy>  (82) 
110.64129813090362

>  <Genealogy>  (82) 
COc1ccc(CN2CCC(n3cc(C([NH-])=O)c(=Nc4ccc(F)c(F)c4)[n-]3)CC2)cn1 (protonated)
COc1ccc(CN2CCC(n3cc(C([NH-])=O)/c(=N\c4ccc(F)c(F)c4)[n-]3)CC2)cn1 (cis-trans isomerization)
COc1ccc(CN2CCC(n3cc(C([NH-])=O)/c(=N\c4ccc(F)c(F)c4)[n-]3)CC2)cn1 (3D coordinates assigned)
COc1ccc(CN2CCC(n3cc(C([NH-])=O)/c(=N\c4ccc(F)c(F)c4)[n-]3)CC2)cn1 (nonaromatic ring conformer: 110.64129813090362 kcal/mol)

>  <smiles>  (82) 
COc1ccc(CN2CCC(n3cc(C(N)=O)c(=Nc4ccc(F)c(F)c4)[nH]3)CC2)cn1

>  <score_type>  (82) 
oracle

>  <origin>  (82) 
adg

>  <m_score__min__energy>  (82) 
-13.57

>  <m_primary>  (82) 
energy

$$$$
82:0
     RDKit          3D

 52 55  0  0  0  0  0  0  0  0999 V2000
   56.4032   28.3727   44.8685 H   0  0  0  0  0  0  0  0  0  0  0  0
   56.6070   29.3710   44.4540 C   0  0  0  0  0  0  0  0  0  0  0  0
   56.6390   30.4880   45.2260 N   0  0  0  0  0  0  0  0  0  0  0  0
   56.9150   31.5890   44.4930 C   0  0  0  0  0  0  0  0  0  0  0  0
   56.9670   32.7930   44.9760 N   0  0  0  0  0  0  0  0  0  0  0  0
   58.1630   33.5720   45.1160 C   0  0  0  0  0  0  0  0  0  0  0  0
   58.7750   33.9390   44.0780 O   0  0  0  0  0  0  0  0  0  0  0  0
   58.6980   33.9020   46.4120 N   0  0  0  0  0  0  0  0  0  0  0  0
   58.1150   33.2900   47.6120 C   0  0  0  0  0  0  0  0  0  0  0  0
   58.3523   33.9083   48.4903 H   0  0  0  0  0  0  0  0  0  0  0  0
   57.0235   33.2217   47.4937 H   0  0  0  0  0  0  0  0  0  0  0  0
   58.6830   31.9130   47.8020 C   0  0  0  0  0  0  0  0  0  0  0  0
   58.5690   31.2650   49.0420 C   0  0  0  0  0  0  0  0  0  0  0  0
   58.1248   31.7945   49.8978 H   0  0  0  0  0  0  0  0  0  0  0  0
   59.0170   29.9510   49.1940 C   0  0  0  0  0  0  0  0  0  0  0  0
   58.9212   29.4497   50.1685 H   0  0  0  0  0  0  0  0  0  0  0  0
   59.5900   29.2650   48.1080 C   0  0  0  0  0  0  0  0  0  0  0  0
   60.0280   27.9380   48.2160 O   0  0  0  0  0  0  0  0  0  0  0  0
   59.5280   26.8540   47.4810 C   0  0  0  0  0  0  0  0  0  0  0  0
   60.3690   26.0130   46.7280 C   0  0  0  0  0  0  0  0  0  0  0  0
   61.4541   26.1928   46.7147 H   0  0  0  0  0  0  0  0  0  0  0  0
   59.8300   24.9500   45.9970 C   0  0  0  0  0  0  0  0  0  0  0  0
   60.4925   24.2891   45.4188 H   0  0  0  0  0  0  0  0  0  0  0  0
   58.4500   24.7260   46.0000 C   0  0  0  0  0  0  0  0  0  0  0  0
   57.9290   23.6970   45.2890 F   0  0  0  0  0  0  0  0  0  0  0  0
   57.6080   25.5710   46.7280 C   0  0  0  0  0  0  0  0  0  0  0  0
   56.5214   25.3997   46.7245 H   0  0  0  0  0  0  0  0  0  0  0  0
   58.1450   26.6340   47.4610 C   0  0  0  0  0  0  0  0  0  0  0  0
   57.4771   27.3014   48.0253 H   0  0  0  0  0  0  0  0  0  0  0  0
   59.6790   29.9040   46.8660 C   0  0  0  0  0  0  0  0  0  0  0  0
   60.1055   29.3685   46.0050 H   0  0  0  0  0  0  0  0  0  0  0  0
   59.2290   31.2190   46.7130 C   0  0  0  0  0  0  0  0  0  0  0  0
   59.3038   31.7119   45.7325 H   0  0  0  0  0  0  0  0  0  0  0  0
   59.7470   34.9220   46.5340 C   0  0  0  0  0  0  0  0  0  0  0  0
   59.3784   35.7507   47.1564 H   0  0  0  0  0  0  0  0  0  0  0  0
   60.0065   35.2942   45.5319 H   0  0  0  0  0  0  0  0  0  0  0  0
   60.9730   34.3270   47.1720 C   0  0  0  0  0  0  0  0  0  0  0  0
   62.0150   33.8400   46.3720 C   0  0  0  0  0  0  0  0  0  0  0  0
   61.9508   33.9238   45.2771 H   0  0  0  0  0  0  0  0  0  0  0  0
   63.1360   33.2480   46.9610 C   0  0  0  0  0  0  0  0  0  0  0  0
   63.9528   32.8747   46.3257 H   0  0  0  0  0  0  0  0  0  0  0  0
   63.2280   33.1260   48.3550 C   0  0  0  0  0  0  0  0  0  0  0  0
   64.3890   32.5140   48.9290 N   0  0  0  0  0  0  0  0  0  0  0  0
   65.2870   32.4770   48.3970 H   0  0  0  0  0  0  0  0  0  0  0  0
   64.3770   32.0860   49.8800 H   0  0  0  0  0  0  0  0  0  0  0  0
   62.1740   33.6040   49.1610 C   0  0  0  0  0  0  0  0  0  0  0  0
   62.2080   33.4670   51.0730 Br  0  0  0  0  0  0  0  0  0  0  0  0
   61.0540   34.1950   48.5650 C   0  0  0  0  0  0  0  0  0  0  0  0
   60.2297   34.5593   49.1957 H   0  0  0  0  0  0  0  0  0  0  0  0
   57.1130   31.2290   42.8660 S   0  0  0  0  0  0  0  0  0  0  0  0
   56.8510   29.5820   43.1000 C   0  0  0  0  0  0  0  0  0  0  0  0
   56.8695   28.8078   42.3188 H   0  0  0  0  0  0  0  0  0  0  0  0
  1  2  1  0
  2  3  1  0
  3  4  1  0
  4  5  2  0
  5  6  1  0
  6  7  2  0
  6  8  1  0
  8  9  1  0
  9 10  1  0
  9 11  1  0
  9 12  1  0
 12 13  2  0
 13 14  1  0
 13 15  1  0
 15 16  1  0
 15 17  2  0
 17 18  1  0
 18 19  1  0
 19 20  2  0
 20 21  1  0
 20 22  1  0
 22 23  1  0
 22 24  2  0
 24 25  1  0
 24 26  1  0
 26 27  1  0
 26 28  2  0
 28 29  1  0
 17 30  1  0
 30 31  1  0
 30 32  2  0
 32 33  1  0
  8 34  1  0
 34 35  1  0
 34 36  1  0
 34 37  1  0
 37 38  2  0
 38 39  1  0
 38 40  1  0
 40 41  1  0
 40 42  2  0
 42 43  1  0
 43 44  1  0
 43 45  1  0
 42 46  1  0
 46 47  1  0
 46 48  2  0
 48 49  1  0
  4 50  1  0
 50 51  1  0
 51 52  1  0
 51  2  2  0
 32 12  1  0
 48 37  1  0
 28 19  1  0
M  CHG  1   3  -1
M  END
>  <UniqueID>  (83) 
76

>  <SMILES>  (83) 
Nc1ccc(CN(Cc2ccc(Oc3ccc(F)cc3)cc2)C(=O)/N=c2\[n-]ccs2)cc1Br

>  <Energy>  (83) 
95.08631739951491

>  <Genealogy>  (83) 
Nc1ccc(CN(Cc2ccc(Oc3ccc(F)cc3)cc2)C(=O)N=c2[n-]ccs2)cc1Br (protonated)
Nc1ccc(CN(Cc2ccc(Oc3ccc(F)cc3)cc2)C(=O)/N=c2\[n-]ccs2)cc1Br (cis-trans isomerization)
Nc1ccc(CN(Cc2ccc(Oc3ccc(F)cc3)cc2)C(=O)/N=c2\[n-]ccs2)cc1Br (3D coordinates assigned)
Nc1ccc(CN(Cc2ccc(Oc3ccc(F)cc3)cc2)C(=O)/N=c2\[n-]ccs2)cc1Br (optimized conformer: 95.08631739951491 kcal/mol)

>  <smiles>  (83) 
Nc1ccc(CN(Cc2ccc(Oc3ccc(F)cc3)cc2)C(=O)N=c2[nH]ccs2)cc1Br

>  <score_type>  (83) 
oracle

>  <origin>  (83) 
adg

>  <m_score__min__energy>  (83) 
-11.07

>  <m_primary>  (83) 
energy

$$$$
83:0
     RDKit          3D

 28 28  0  0  0  0  0  0  0  0999 V2000
   56.3700   24.7800   44.8110 O   0  0  0  0  0  0  0  0  0  0  0  0
   56.1560   25.4140   46.1560 S   0  0  0  0  0  0  0  0  0  0  0  0
   55.5170   24.4110   47.0760 O   0  0  0  0  0  0  0  0  0  0  0  0
   55.1350   26.7360   45.9770 O   0  0  0  0  0  0  0  0  0  0  0  0
   57.7360   25.9460   46.8090 C   0  0  0  0  0  0  0  0  0  0  0  0
   58.9320   25.4470   45.9830 C   0  0  0  0  0  0  0  0  0  0  0  0
   60.2860   26.0860   46.3590 C   0  0  0  0  0  0  0  0  0  0  0  0
   60.5590   27.4280   45.6590 C   0  0  0  0  0  0  0  0  0  0  0  0
   59.3000   28.2070   45.3830 C   0  0  0  0  0  0  0  0  0  0  0  0
   58.8600   29.1930   46.2820 C   0  0  0  0  0  0  0  0  0  0  0  0
   57.7040   29.9310   46.0080 C   0  0  0  0  0  0  0  0  0  0  0  0
   56.9770   29.6920   44.8380 C   0  0  0  0  0  0  0  0  0  0  0  0
   55.8290   30.4360   44.5770 O   0  0  0  0  0  0  0  0  0  0  0  0
   57.4080   28.7060   43.9400 C   0  0  0  0  0  0  0  0  0  0  0  0
   58.5620   27.9660   44.2110 C   0  0  0  0  0  0  0  0  0  0  0  0
   57.7558   27.0457   46.8235 H   0  0  0  0  0  0  0  0  0  0  0  0
   57.8338   25.5173   47.8173 H   0  0  0  0  0  0  0  0  0  0  0  0
   59.0156   24.3592   46.1234 H   0  0  0  0  0  0  0  0  0  0  0  0
   58.7314   25.7342   44.9403 H   0  0  0  0  0  0  0  0  0  0  0  0
   60.2996   26.2536   47.4461 H   0  0  0  0  0  0  0  0  0  0  0  0
   61.0701   25.3889   46.0286 H   0  0  0  0  0  0  0  0  0  0  0  0
   61.2135   28.0339   46.3028 H   0  0  0  0  0  0  0  0  0  0  0  0
   61.0317   27.2072   44.6906 H   0  0  0  0  0  0  0  0  0  0  0  0
   59.4269   29.3853   47.2049 H   0  0  0  0  0  0  0  0  0  0  0  0
   57.3656   30.7022   46.7156 H   0  0  0  0  0  0  0  0  0  0  0  0
   55.0810   30.5130   45.2560 H   0  0  0  0  0  0  0  0  0  0  0  0
   56.8366   28.5142   43.0198 H   0  0  0  0  0  0  0  0  0  0  0  0
   58.8944   27.1915   43.5041 H   0  0  0  0  0  0  0  0  0  0  0  0
  1  2  2  0
  2  3  2  0
  2  4  1  0
  2  5  1  0
  5  6  1  0
  6  7  1  0
  7  8  1  0
  8  9  1  0
  9 10  2  0
 10 11  1  0
 11 12  2  0
 12 13  1  0
 12 14  1  0
 14 15  2  0
 15  9  1  0
  5 16  1  0
  5 17  1  0
  6 18  1  0
  6 19  1  0
  7 20  1  0
  7 21  1  0
  8 22  1  0
  8 23  1  0
 10 24  1  0
 11 25  1  0
 13 26  1  0
 14 27  1  0
 15 28  1  0
M  CHG  1   4  -1
M  END
>  <UniqueID>  (84) 
77

>  <SMILES>  (84) 
O=S(=O)([O-])CCCCc1ccc(O)cc1

>  <Energy>  (84) 
18.65888286424253

>  <Genealogy>  (84) 
O=S(=O)([O-])CCCCc1ccc(O)cc1 (protonated)
O=S(=O)([O-])CCCCc1ccc(O)cc1 (3D coordinates assigned)
O=S(=O)([O-])CCCCc1ccc(O)cc1 (optimized conformer: 18.65888286424253 kcal/mol)

>  <smiles>  (84) 
O=S(=O)(O)CCCCc1ccc(O)cc1

>  <score_type>  (84) 
oracle

>  <origin>  (84) 
adg

>  <m_score__min__energy>  (84) 
-9.8200000000000003

>  <m_primary>  (84) 
energy

$$$$
84:0
     RDKit          3D

 42 45  0  0  0  0  0  0  0  0999 V2000
   57.5476   34.0807   47.0350 H   0  0  0  0  0  0  0  0  0  0  0  0
   57.6520   33.5900   46.0560 C   0  0  0  0  0  0  0  0  0  0  0  0
   56.9200   32.5860   45.6320 O   0  0  0  0  0  0  0  0  0  0  0  0
   57.3180   32.2610   44.4240 C   0  0  0  0  0  0  0  0  0  0  0  0
   56.7180   31.1560   43.6090 C   0  0  0  0  0  0  0  0  0  0  0  0
   57.5239   30.5933   43.1152 H   0  0  0  0  0  0  0  0  0  0  0  0
   56.0441   31.5961   42.8593 H   0  0  0  0  0  0  0  0  0  0  0  0
   55.9470   30.2460   44.4570 N   0  0  0  0  0  0  0  0  0  0  0  0
   56.4660   29.3240   45.2130 C   0  0  0  0  0  0  0  0  0  0  0  0
   55.9010   28.0910   45.2460 N   0  0  0  0  0  0  0  0  0  0  0  0
   56.4380   27.1070   46.0170 C   0  0  0  0  0  0  0  0  0  0  0  0
   55.8990   25.9240   46.0780 N   0  0  0  0  0  0  0  0  0  0  0  0
   56.2660   24.7670   45.3080 C   0  0  0  0  0  0  0  0  0  0  0  0
   55.3410   24.0930   44.4870 C   0  0  0  0  0  0  0  0  0  0  0  0
   54.2957   24.4330   44.4447 H   0  0  0  0  0  0  0  0  0  0  0  0
   55.7480   22.9920   43.7250 C   0  0  0  0  0  0  0  0  0  0  0  0
   55.0184   22.4586   43.0980 H   0  0  0  0  0  0  0  0  0  0  0  0
   57.0790   22.5690   43.7590 C   0  0  0  0  0  0  0  0  0  0  0  0
   57.3953   21.6982   43.1659 H   0  0  0  0  0  0  0  0  0  0  0  0
   58.0080   23.2530   44.5470 C   0  0  0  0  0  0  0  0  0  0  0  0
   59.0579   22.9253   44.5675 H   0  0  0  0  0  0  0  0  0  0  0  0
   57.6050   24.3540   45.3100 C   0  0  0  0  0  0  0  0  0  0  0  0
   58.3440   24.8991   45.9155 H   0  0  0  0  0  0  0  0  0  0  0  0
   57.5370   27.3730   46.7690 N   0  0  0  0  0  0  0  0  0  0  0  0
   58.1060   28.6040   46.7500 C   0  0  0  0  0  0  0  0  0  0  0  0
   59.1840   28.8200   47.4460 N   0  0  0  0  0  0  0  0  0  0  0  0
   59.8400   30.0850   47.6350 C   0  0  0  0  0  0  0  0  0  0  0  0
   61.0390   30.4110   46.9730 C   0  0  0  0  0  0  0  0  0  0  0  0
   61.5100   29.6785   46.3009 H   0  0  0  0  0  0  0  0  0  0  0  0
   61.6340   31.6620   47.1660 C   0  0  0  0  0  0  0  0  0  0  0  0
   62.5770   31.9071   46.6554 H   0  0  0  0  0  0  0  0  0  0  0  0
   61.0310   32.6000   48.0070 C   0  0  0  0  0  0  0  0  0  0  0  0
   61.5057   33.5791   48.1684 H   0  0  0  0  0  0  0  0  0  0  0  0
   59.8240   32.2950   48.6440 C   0  0  0  0  0  0  0  0  0  0  0  0
   59.3449   33.0381   49.2984 H   0  0  0  0  0  0  0  0  0  0  0  0
   59.2260   31.0470   48.4500 C   0  0  0  0  0  0  0  0  0  0  0  0
   58.2679   30.8178   48.9395 H   0  0  0  0  0  0  0  0  0  0  0  0
   57.5690   29.5750   45.9650 N   0  0  0  0  0  0  0  0  0  0  0  0
   58.3620   33.0760   44.0340 C   0  0  0  0  0  0  0  0  0  0  0  0
   58.9105   33.0440   43.0810 H   0  0  0  0  0  0  0  0  0  0  0  0
   58.5730   33.9370   45.0870 C   0  0  0  0  0  0  0  0  0  0  0  0
   59.3234   34.7392   45.1450 H   0  0  0  0  0  0  0  0  0  0  0  0
  1  2  1  0
  2  3  1  0
  3  4  1  0
  4  5  1  0
  5  6  1  0
  5  7  1  0
  5  8  1  0
  8  9  2  0
  9 10  1  0
 10 11  1  0
 11 12  2  3
 12 13  1  0
 13 14  2  0
 14 15  1  0
 14 16  1  0
 16 17  1  0
 16 18  2  0
 18 19  1  0
 18 20  1  0
 20 21  1  0
 20 22  2  0
 22 23  1  0
 11 24  1  0
 24 25  1  0
 25 26  2  0
 26 27  1  0
 27 28  2  0
 28 29  1  0
 28 30  1  0
 30 31  1  0
 30 32  2  0
 32 33  1  0
 32 34  1  0
 34 35  1  0
 34 36  2  0
 36 37  1  0
 25 38  1  0
  4 39  2  0
 39 40  1  0
 39 41  1  0
 41 42  1  0
 41  2  2  0
 38  9  1  0
 22 13  1  0
 36 27  1  0
M  CHG  3  10  -1  24  -1  38  -1
M  END
>  <UniqueID>  (85) 
78

>  <SMILES>  (85) 
c1ccc(N=c2[n-]/c(=N/Cc3ccco3)[n-]/c(=N\c3ccccc3)[n-]2)cc1

>  <Energy>  (85) 
82.33867889586283

>  <Genealogy>  (85) 
c1ccc(N=c2[n-]c(=NCc3ccco3)[n-]c(=Nc3ccccc3)[n-]2)cc1 (protonated)
c1ccc(N=c2[n-]/c(=N/Cc3ccco3)[n-]/c(=N\c3ccccc3)[n-]2)cc1 (cis-trans isomerization)
c1ccc(N=c2[n-]/c(=N/Cc3ccco3)[n-]/c(=N\c3ccccc3)[n-]2)cc1 (3D coordinates assigned)
c1ccc(N=c2[n-]/c(=N/Cc3ccco3)[n-]/c(=N\c3ccccc3)[n-]2)cc1 (optimized conformer: 82.33867889586283 kcal/mol)

>  <smiles>  (85) 
c1ccc(N=c2[nH]c(=NCc3ccco3)[nH]c(=Nc3ccccc3)[nH]2)cc1

>  <score_type>  (85) 
oracle

>  <origin>  (85) 
adg

>  <m_score__min__energy>  (85) 
-13.279999999999999

>  <m_primary>  (85) 
energy

$$$$
85:0
     RDKit          3D

 43 44  0  0  0  0  0  0  0  0999 V2000
   58.1270   26.7270   42.5720 C   0  0  0  0  0  0  0  0  0  0  0  0
   58.5410   27.6360   43.7400 C   0  0  0  0  0  0  0  0  0  0  0  0
   57.4530   27.9930   44.6880 N   0  0  1  0  0  0  0  0  0  0  0  0
   57.7580   27.7310   46.1170 C   0  0  0  0  0  0  0  0  0  0  0  0
   56.9800   26.5300   46.6950 C   0  0  0  0  0  0  0  0  0  0  0  0
   56.2790   25.8150   45.6770 O   0  0  0  0  0  0  0  0  0  0  0  0
   56.6880   24.6270   45.0450 C   0  0  0  0  0  0  0  0  0  0  0  0
   55.7980   24.0590   44.1210 C   0  0  0  0  0  0  0  0  0  0  0  0
   56.1240   22.8800   43.4470 C   0  0  0  0  0  0  0  0  0  0  0  0
   57.3460   22.2520   43.6890 C   0  0  0  0  0  0  0  0  0  0  0  0
   58.2420   22.8020   44.6070 C   0  0  0  0  0  0  0  0  0  0  0  0
   57.9240   23.9840   45.2870 C   0  0  0  0  0  0  0  0  0  0  0  0
   58.8280   24.4680   46.1730 F   0  0  0  0  0  0  0  0  0  0  0  0
   57.0270   29.3720   44.5100 C   0  0  0  0  0  0  0  0  0  0  0  0
   55.9110   29.7280   44.8640 O   0  0  0  0  0  0  0  0  0  0  0  0
   57.9440   30.3890   43.8820 C   0  0  0  0  0  0  0  0  0  0  0  0
   57.9830   31.6400   44.7190 C   0  0  0  0  0  0  0  0  0  0  0  0
   57.7390   32.8890   44.1210 C   0  0  0  0  0  0  0  0  0  0  0  0
   57.7360   34.0530   44.8930 C   0  0  0  0  0  0  0  0  0  0  0  0
   57.9670   33.9820   46.2690 C   0  0  0  0  0  0  0  0  0  0  0  0
   58.1980   32.7450   46.8760 C   0  0  0  0  0  0  0  0  0  0  0  0
   58.2040   31.5750   46.1080 C   0  0  0  0  0  0  0  0  0  0  0  0
   58.4150   30.3820   46.7220 F   0  0  0  0  0  0  0  0  0  0  0  0
   57.7015   25.7928   42.9674 H   0  0  0  0  0  0  0  0  0  0  0  0
   57.3742   27.2410   41.9563 H   0  0  0  0  0  0  0  0  0  0  0  0
   59.0089   26.4965   41.9563 H   0  0  0  0  0  0  0  0  0  0  0  0
   59.3299   27.1208   44.3076 H   0  0  0  0  0  0  0  0  0  0  0  0
   58.8690   28.5824   43.2854 H   0  0  0  0  0  0  0  0  0  0  0  0
   56.6410   27.3820   44.4350 H   0  0  0  0  0  0  0  0  0  0  0  0
   58.8350   27.5287   46.2131 H   0  0  0  0  0  0  0  0  0  0  0  0
   57.4523   28.6221   46.6849 H   0  0  0  0  0  0  0  0  0  0  0  0
   57.6902   25.8478   47.1850 H   0  0  0  0  0  0  0  0  0  0  0  0
   56.2417   26.9140   47.4144 H   0  0  0  0  0  0  0  0  0  0  0  0
   54.8323   24.5479   43.9251 H   0  0  0  0  0  0  0  0  0  0  0  0
   55.4167   22.4463   42.7248 H   0  0  0  0  0  0  0  0  0  0  0  0
   57.6031   21.3243   43.1568 H   0  0  0  0  0  0  0  0  0  0  0  0
   59.2040   22.3038   44.7975 H   0  0  0  0  0  0  0  0  0  0  0  0
   58.9578   29.9685   43.8095 H   0  0  0  0  0  0  0  0  0  0  0  0
   57.5691   30.6396   42.8787 H   0  0  0  0  0  0  0  0  0  0  0  0
   57.5494   32.9497   43.0392 H   0  0  0  0  0  0  0  0  0  0  0  0
   57.5514   35.0272   44.4168 H   0  0  0  0  0  0  0  0  0  0  0  0
   57.9670   34.9002   46.8747 H   0  0  0  0  0  0  0  0  0  0  0  0
   58.3756   32.6905   47.9602 H   0  0  0  0  0  0  0  0  0  0  0  0
  1  2  1  0
  2  3  1  0
  3  4  1  0
  4  5  1  0
  5  6  1  0
  6  7  1  0
  7  8  2  0
  8  9  1  0
  9 10  2  0
 10 11  1  0
 11 12  2  0
 12 13  1  0
  3 14  1  0
 14 15  2  0
 14 16  1  0
 16 17  1  0
 17 18  2  0
 18 19  1  0
 19 20  2  0
 20 21  1  0
 21 22  2  0
 22 23  1  0
 12  7  1  0
 22 17  1  0
  1 24  1  0
  1 25  1  0
  1 26  1  0
  2 27  1  0
  2 28  1  0
  3 29  1  6
  4 30  1  0
  4 31  1  0
  5 32  1  0
  5 33  1  0
  8 34  1  0
  9 35  1  0
 10 36  1  0
 11 37  1  0
 16 38  1  0
 16 39  1  0
 18 40  1  0
 19 41  1  0
 20 42  1  0
 21 43  1  0
M  CHG  1   3   1
M  END
>  <UniqueID>  (86) 
79

>  <SMILES>  (86) 
CC[N@@H+](CCOc1ccccc1F)C(=O)Cc1ccccc1F

>  <Energy>  (86) 
47.5356715656477

>  <Genealogy>  (86) 
CC[NH+](CCOc1ccccc1F)C(=O)Cc1ccccc1F (protonated)
CC[N@@H+](CCOc1ccccc1F)C(=O)Cc1ccccc1F (chirality)
CC[N@@H+](CCOc1ccccc1F)C(=O)Cc1ccccc1F (3D coordinates assigned)
CC[N@@H+](CCOc1ccccc1F)C(=O)Cc1ccccc1F (optimized conformer: 47.5356715656477 kcal/mol)

>  <smiles>  (86) 
CCN(CCOc1ccccc1F)C(=O)Cc1ccccc1F

>  <score_type>  (86) 
oracle

>  <origin>  (86) 
adg

>  <m_score__min__energy>  (86) 
-5.6299999999999999

>  <m_primary>  (86) 
energy

$$$$
86:0
     RDKit          3D

 28 30  0  0  0  0  0  0  0  0999 V2000
   59.5710   34.9880   45.9460 Cl  0  0  0  0  0  0  0  0  0  0  0  0
   58.7350   33.6540   45.1730 C   0  0  0  0  0  0  0  0  0  0  0  0
   58.0580   32.7100   45.9490 C   0  0  0  0  0  0  0  0  0  0  0  0
   57.3920   31.6460   45.3360 C   0  0  0  0  0  0  0  0  0  0  0  0
   57.4030   31.5090   43.9370 C   0  0  0  0  0  0  0  0  0  0  0  0
   56.6510   30.3680   43.3030 C   0  0  0  0  0  0  0  0  0  0  0  0
   55.3230   29.8150   44.4240 S   0  0  0  0  0  0  0  0  0  0  0  0
   56.3580   28.6000   45.2300 C   0  0  0  0  0  0  0  0  0  0  0  0
   57.6730   28.8170   45.4920 N   0  0  0  0  0  0  0  0  0  0  0  0
   58.0410   27.6710   46.0820 C   0  0  0  0  0  0  0  0  0  0  0  0
   59.3000   27.3290   46.5680 C   0  0  0  0  0  0  0  0  0  0  0  0
   59.4490   26.0560   47.1530 C   0  0  0  0  0  0  0  0  0  0  0  0
   58.3480   25.1730   47.2350 C   0  0  0  0  0  0  0  0  0  0  0  0
   57.0910   25.5560   46.7330 C   0  0  0  0  0  0  0  0  0  0  0  0
   56.9800   26.8210   46.1610 C   0  0  0  0  0  0  0  0  0  0  0  0
   55.8900   27.3880   45.6250 N   0  0  0  0  0  0  0  0  0  0  0  0
   58.0750   32.4750   43.1560 C   0  0  0  0  0  0  0  0  0  0  0  0
   58.0980   32.3950   41.3970 Cl  0  0  0  0  0  0  0  0  0  0  0  0
   58.7410   33.5380   43.7810 C   0  0  0  0  0  0  0  0  0  0  0  0
   58.0493   32.8047   47.0449 H   0  0  0  0  0  0  0  0  0  0  0  0
   56.8551   30.9100   45.9525 H   0  0  0  0  0  0  0  0  0  0  0  0
   56.2117   30.7025   42.3516 H   0  0  0  0  0  0  0  0  0  0  0  0
   57.3425   29.5334   43.1152 H   0  0  0  0  0  0  0  0  0  0  0  0
   60.1473   28.0270   46.4978 H   0  0  0  0  0  0  0  0  0  0  0  0
   60.4280   25.7473   47.5483 H   0  0  0  0  0  0  0  0  0  0  0  0
   58.4749   24.1813   47.6937 H   0  0  0  0  0  0  0  0  0  0  0  0
   56.2254   24.8796   46.7903 H   0  0  0  0  0  0  0  0  0  0  0  0
   59.2713   34.2850   43.1721 H   0  0  0  0  0  0  0  0  0  0  0  0
  1  2  1  0
  2  3  2  0
  3  4  1  0
  4  5  2  0
  5  6  1  0
  6  7  1  0
  7  8  1  0
  8  9  2  0
  9 10  1  0
 10 11  2  0
 11 12  1  0
 12 13  2  0
 13 14  1  0
 14 15  2  0
 15 16  1  0
  5 17  1  0
 17 18  1  0
 17 19  2  0
 19  2  1  0
 16  8  1  0
 15 10  1  0
  3 20  1  0
  4 21  1  0
  6 22  1  0
  6 23  1  0
 11 24  1  0
 12 25  1  0
 13 26  1  0
 14 27  1  0
 19 28  1  0
M  CHG  1  16  -1
M  END
>  <UniqueID>  (87) 
80

>  <SMILES>  (87) 
Clc1ccc(CSc2nc3ccccc3[n-]2)c(Cl)c1

>  <Energy>  (87) 
62.23962085422639

>  <Genealogy>  (87) 
Clc1ccc(CSc2nc3ccccc3[n-]2)c(Cl)c1 (protonated)
Clc1ccc(CSc2nc3ccccc3[n-]2)c(Cl)c1 (3D coordinates assigned)
Clc1ccc(CSc2nc3ccccc3[n-]2)c(Cl)c1 (optimized conformer: 62.23962085422639 kcal/mol)

>  <smiles>  (87) 
Clc1ccc(CSc2nc3ccccc3[nH]2)c(Cl)c1

>  <score_type>  (87) 
oracle

>  <origin>  (87) 
adg

>  <m_score__min__energy>  (87) 
-8.6799999999999997

>  <m_primary>  (87) 
energy

$$$$
87:0
     RDKit          3D

 55 59  0  0  0  0  0  0  0  0999 V2000
   58.5320   25.9850   47.7490 N   0  0  0  0  0  0  0  0  0  0  0  0
   59.4950   26.9210   46.6610 S   0  0  0  0  0  0  0  0  0  0  0  0
   60.9510   26.7150   46.9700 O   0  0  0  0  0  0  0  0  0  0  0  0
   59.2340   26.4660   45.2520 O   0  0  0  0  0  0  0  0  0  0  0  0
   59.0830   28.6250   46.8090 C   0  0  0  0  0  0  0  0  0  0  0  0
   58.1890   29.4700   45.6640 S   0  0  0  0  0  0  0  0  0  0  0  0
   58.3250   30.9780   46.3920 C   0  0  0  0  0  0  0  0  0  0  0  0
   59.0860   30.8400   47.5450 C   0  0  0  0  0  0  0  0  0  0  0  0
   59.5100   29.5240   47.7910 C   0  0  0  0  0  0  0  0  0  0  0  0
   60.3280   29.1660   48.9680 C   0  0  0  0  0  0  0  0  0  0  0  0
   61.2160   30.0960   49.5310 C   0  0  0  0  0  0  0  0  0  0  0  0
   61.9940   29.7500   50.6390 C   0  0  0  0  0  0  0  0  0  0  0  0
   61.8940   28.4680   51.2010 C   0  0  0  0  0  0  0  0  0  0  0  0
   62.7530   28.0860   52.3770 C   0  0  0  0  0  0  0  0  0  0  0  0
   62.0970   28.5260   53.6890 C   0  0  0  0  0  0  0  0  0  0  0  0
   60.6380   28.8260   53.4750 C   0  0  0  0  0  0  0  0  0  0  0  0
   60.2170   30.1370   53.2070 C   0  0  0  0  0  0  0  0  0  0  0  0
   58.8650   30.4110   52.9740 C   0  0  0  0  0  0  0  0  0  0  0  0
   57.9160   29.3770   52.9950 C   0  0  0  0  0  0  0  0  0  0  0  0
   56.5270   29.6580   52.7520 N   0  0  0  0  0  0  0  0  0  0  0  0
   55.3990   28.8300   53.0530 C   0  0  0  0  0  0  0  0  0  0  0  0
   55.4740   27.6780   53.5580 O   0  0  0  0  0  0  0  0  0  0  0  0
   54.1670   29.4940   52.6410 C   0  0  0  0  0  0  0  0  0  0  0  0
   52.8410   29.0790   52.7250 C   0  0  0  0  0  0  0  0  0  0  0  0
   51.8450   29.9410   52.2340 C   0  0  0  0  0  0  0  0  0  0  0  0
   52.1850   31.1980   51.6680 C   0  0  0  0  0  0  0  0  0  0  0  0
   51.1320   32.1000   51.1540 C   0  0  0  0  0  0  0  0  0  0  0  0
   51.0060   32.2960   49.9160 O   0  0  0  0  0  0  0  0  0  0  0  0
   50.2650   32.7420   52.0300 O   0  0  0  0  0  0  0  0  0  0  0  0
   53.5450   31.5850   51.5980 C   0  0  0  0  0  0  0  0  0  0  0  0
   54.5080   30.7080   52.0920 C   0  0  0  0  0  0  0  0  0  0  0  0
   55.9610   30.8300   52.1520 C   0  0  0  0  0  0  0  0  0  0  0  0
   56.6240   31.8340   51.7810 O   0  0  0  0  0  0  0  0  0  0  0  0
   58.3420   28.0620   53.2510 C   0  0  0  0  0  0  0  0  0  0  0  0
   59.6920   27.7890   53.4860 C   0  0  0  0  0  0  0  0  0  0  0  0
   61.0300   27.5260   50.6200 C   0  0  0  0  0  0  0  0  0  0  0  0
   60.2540   27.8730   49.5100 C   0  0  0  0  0  0  0  0  0  0  0  0
   58.7680   24.9820   47.5790 H   0  0  0  0  0  0  0  0  0  0  0  0
   57.8860   31.9150   46.0188 H   0  0  0  0  0  0  0  0  0  0  0  0
   59.3341   31.6841   48.2053 H   0  0  0  0  0  0  0  0  0  0  0  0
   61.3000   31.1034   49.0973 H   0  0  0  0  0  0  0  0  0  0  0  0
   62.6876   30.4855   51.0725 H   0  0  0  0  0  0  0  0  0  0  0  0
   62.8863   26.9942   52.3878 H   0  0  0  0  0  0  0  0  0  0  0  0
   63.7275   28.5873   52.2821 H   0  0  0  0  0  0  0  0  0  0  0  0
   62.1956   27.7200   54.4310 H   0  0  0  0  0  0  0  0  0  0  0  0
   62.5980   29.4367   54.0490 H   0  0  0  0  0  0  0  0  0  0  0  0
   60.9535   30.9536   53.1799 H   0  0  0  0  0  0  0  0  0  0  0  0
   58.5436   31.4436   52.7730 H   0  0  0  0  0  0  0  0  0  0  0  0
   52.5799   28.1044   53.1631 H   0  0  0  0  0  0  0  0  0  0  0  0
   50.7890   29.6379   52.2890 H   0  0  0  0  0  0  0  0  0  0  0  0
   53.8340   32.5538   51.1645 H   0  0  0  0  0  0  0  0  0  0  0  0
   57.6080   27.2429   53.2664 H   0  0  0  0  0  0  0  0  0  0  0  0
   60.0153   26.7558   53.6807 H   0  0  0  0  0  0  0  0  0  0  0  0
   60.9634   26.5114   51.0396 H   0  0  0  0  0  0  0  0  0  0  0  0
   59.5816   27.1286   49.0587 H   0  0  0  0  0  0  0  0  0  0  0  0
  1  2  1  0
  2  3  2  0
  2  4  2  0
  2  5  1  0
  5  6  1  0
  6  7  1  0
  7  8  2  0
  8  9  1  0
  9 10  1  0
 10 11  2  0
 11 12  1  0
 12 13  2  0
 13 14  1  0
 14 15  1  0
 15 16  1  0
 16 17  2  0
 17 18  1  0
 18 19  2  0
 19 20  1  0
 20 21  1  0
 21 22  2  0
 21 23  1  0
 23 24  2  0
 24 25  1  0
 25 26  2  0
 26 27  1  0
 27 28  2  0
 27 29  1  0
 26 30  1  0
 30 31  2  0
 31 32  1  0
 32 33  2  0
 19 34  1  0
 34 35  2  0
 13 36  1  0
 36 37  2  0
  9  5  2  0
 37 10  1  0
 35 16  1  0
 32 20  1  0
 31 23  1  0
  1 38  1  0
  7 39  1  0
  8 40  1  0
 11 41  1  0
 12 42  1  0
 14 43  1  0
 14 44  1  0
 15 45  1  0
 15 46  1  0
 17 47  1  0
 18 48  1  0
 24 49  1  0
 25 50  1  0
 30 51  1  0
 34 52  1  0
 35 53  1  0
 36 54  1  0
 37 55  1  0
M  CHG  2   1  -1  29  -1
M  END
>  <UniqueID>  (88) 
81

>  <SMILES>  (88) 
[NH-]S(=O)(=O)c1sccc1-c1ccc(CCc2ccc(N3C(=O)c4ccc(C(=O)[O-])cc4C3=O)cc2)cc1

>  <Energy>  (88) 
127.23871072995772

>  <Genealogy>  (88) 
[NH-]S(=O)(=O)c1sccc1-c1ccc(CCc2ccc(N3C(=O)c4ccc(C(=O)[O-])cc4C3=O)cc2)cc1 (protonated)
[NH-]S(=O)(=O)c1sccc1-c1ccc(CCc2ccc(N3C(=O)c4ccc(C(=O)[O-])cc4C3=O)cc2)cc1 (3D coordinates assigned)
[NH-]S(=O)(=O)c1sccc1-c1ccc(CCc2ccc(N3C(=O)c4ccc(C(=O)[O-])cc4C3=O)cc2)cc1 (nonaromatic ring conformer: 127.23871072995772 kcal/mol)

>  <smiles>  (88) 
NS(=O)(=O)c1sccc1-c1ccc(CCc2ccc(N3C(=O)c4ccc(C(=O)O)cc4C3=O)cc2)cc1

>  <score_type>  (88) 
oracle

>  <origin>  (88) 
adg

>  <m_score__min__energy>  (88) 
-13.09

>  <m_primary>  (88) 
energy

$$$$
88:0
     RDKit          3D

 48 51  0  0  0  0  0  0  0  0999 V2000
   59.5980   30.0840   51.2410 C   0  0  0  0  0  0  0  0  0  0  0  0
   58.2600   30.6720   51.5490 C   0  0  0  0  0  0  0  0  0  0  0  0
   57.1570   29.9720   51.6750 O   0  0  0  0  0  0  0  0  0  0  0  0
   56.1830   30.8170   51.9470 C   0  0  0  0  0  0  0  0  0  0  0  0
   54.7770   30.4010   52.1620 C   0  0  0  0  0  0  0  0  0  0  0  0
   54.5000   29.2930   52.9840 C   0  0  0  0  0  0  0  0  0  0  0  0
   53.1810   28.8880   53.2060 C   0  0  0  0  0  0  0  0  0  0  0  0
   52.1250   29.5870   52.6190 C   0  0  0  0  0  0  0  0  0  0  0  0
   52.3860   30.6920   51.8060 C   0  0  0  0  0  0  0  0  0  0  0  0
   53.7050   31.0950   51.5710 C   0  0  0  0  0  0  0  0  0  0  0  0
   56.6320   32.0900   52.0040 N   0  0  0  0  0  0  0  0  0  0  0  0
   57.9500   32.0050   51.7470 C   0  0  0  0  0  0  0  0  0  0  0  0
   58.8700   33.1620   51.7070 C   0  0  0  0  0  0  0  0  0  0  0  0
   58.7790   34.0630   52.5820 O   0  0  0  0  0  0  0  0  0  0  0  0
   59.8300   33.3110   50.6540 N   0  0  0  0  0  0  0  0  0  0  0  0
   59.5020   33.5370   49.2770 C   0  0  0  0  0  0  0  0  0  0  0  0
   58.5160   32.7510   48.6700 C   0  0  0  0  0  0  0  0  0  0  0  0
   58.2120   32.9230   47.3160 C   0  0  0  0  0  0  0  0  0  0  0  0
   58.8740   33.9030   46.5600 C   0  0  0  0  0  0  0  0  0  0  0  0
   58.5630   34.0580   45.0970 C   0  0  0  0  0  0  0  0  0  0  0  0
   58.8570   32.8500   44.3940 O   0  0  0  0  0  0  0  0  0  0  0  0
   57.9540   31.8000   44.1640 C   0  0  0  0  0  0  0  0  0  0  0  0
   57.5250   31.5630   42.8540 C   0  0  0  0  0  0  0  0  0  0  0  0
   56.6400   30.5180   42.5800 C   0  0  0  0  0  0  0  0  0  0  0  0
   56.1920   29.7120   43.6260 C   0  0  0  0  0  0  0  0  0  0  0  0
   56.6100   29.9520   44.8960 N   0  0  0  0  0  0  0  0  0  0  0  0
   57.4700   30.9640   45.1890 C   0  0  0  0  0  0  0  0  0  0  0  0
   59.8290   34.7230   47.1820 C   0  0  0  0  0  0  0  0  0  0  0  0
   60.1430   34.5400   48.5300 C   0  0  0  0  0  0  0  0  0  0  0  0
   60.1223   29.8536   52.1802 H   0  0  0  0  0  0  0  0  0  0  0  0
   59.4672   29.1604   50.6580 H   0  0  0  0  0  0  0  0  0  0  0  0
   60.1899   30.8049   50.6580 H   0  0  0  0  0  0  0  0  0  0  0  0
   55.3273   28.7419   53.4550 H   0  0  0  0  0  0  0  0  0  0  0  0
   52.9746   28.0165   53.8447 H   0  0  0  0  0  0  0  0  0  0  0  0
   51.0875   29.2675   52.7967 H   0  0  0  0  0  0  0  0  0  0  0  0
   51.5529   31.2466   51.3495 H   0  0  0  0  0  0  0  0  0  0  0  0
   53.9052   31.9592   50.9206 H   0  0  0  0  0  0  0  0  0  0  0  0
   56.0890   32.9560   52.2120 H   0  0  0  0  0  0  0  0  0  0  0  0
   57.9779   31.9948   49.2604 H   0  0  0  0  0  0  0  0  0  0  0  0
   57.4503   32.2872   46.8410 H   0  0  0  0  0  0  0  0  0  0  0  0
   57.4960   34.2966   44.9767 H   0  0  0  0  0  0  0  0  0  0  0  0
   59.1810   34.8695   44.6852 H   0  0  0  0  0  0  0  0  0  0  0  0
   57.8865   32.2029   42.0355 H   0  0  0  0  0  0  0  0  0  0  0  0
   56.3001   30.3327   41.5504 H   0  0  0  0  0  0  0  0  0  0  0  0
   55.4999   28.8816   43.4226 H   0  0  0  0  0  0  0  0  0  0  0  0
   57.7883   31.1300   46.2288 H   0  0  0  0  0  0  0  0  0  0  0  0
   60.3319   35.5129   46.6048 H   0  0  0  0  0  0  0  0  0  0  0  0
   60.8953   35.1836   49.0094 H   0  0  0  0  0  0  0  0  0  0  0  0
  1  2  1  0
  2  3  1  0
  3  4  1  0
  4  5  1  0
  5  6  2  0
  6  7  1  0
  7  8  2  0
  8  9  1  0
  9 10  2  0
  4 11  2  0
 11 12  1  0
 12 13  1  0
 13 14  2  0
 13 15  1  0
 15 16  1  0
 16 17  2  0
 17 18  1  0
 18 19  2  0
 19 20  1  0
 20 21  1  0
 21 22  1  0
 22 23  2  0
 23 24  1  0
 24 25  2  0
 25 26  1  0
 26 27  2  0
 19 28  1  0
 28 29  2  0
 12  2  2  0
 29 16  1  0
 10  5  1  0
 27 22  1  0
  1 30  1  0
  1 31  1  0
  1 32  1  0
  6 33  1  0
  7 34  1  0
  8 35  1  0
  9 36  1  0
 10 37  1  0
 11 38  1  0
 17 39  1  0
 18 40  1  0
 20 41  1  0
 20 42  1  0
 23 43  1  0
 24 44  1  0
 25 45  1  0
 27 46  1  0
 28 47  1  0
 29 48  1  0
M  CHG  2  11   1  15  -1
M  END
>  <UniqueID>  (89) 
82

>  <SMILES>  (89) 
Cc1oc(-c2ccccc2)[nH+]c1C(=O)[N-]c1ccc(COc2cccnc2)cc1

>  <Energy>  (89) 
87.12663596710914

>  <Genealogy>  (89) 
Cc1oc(-c2ccccc2)[nH+]c1C(=O)[N-]c1ccc(COc2cccnc2)cc1 (protonated)
Cc1oc(-c2ccccc2)[nH+]c1C(=O)[N-]c1ccc(COc2cccnc2)cc1 (3D coordinates assigned)
Cc1oc(-c2ccccc2)[nH+]c1C(=O)[N-]c1ccc(COc2cccnc2)cc1 (optimized conformer: 87.12663596710914 kcal/mol)

>  <smiles>  (89) 
Cc1oc(-c2ccccc2)nc1C(=O)Nc1ccc(COc2cccnc2)cc1

>  <score_type>  (89) 
oracle

>  <origin>  (89) 
adg

>  <m_score__min__energy>  (89) 
-8.4800000000000004

>  <m_primary>  (89) 
energy

$$$$
89:0
     RDKit          3D

 40 41  0  0  0  0  0  0  0  0999 V2000
   58.5440   27.3280   47.3450 C   0  0  0  0  0  0  0  0  0  0  0  0
   59.4250   28.5400   47.4170 C   0  0  0  0  0  0  0  0  0  0  0  0
   59.4390   29.3410   48.5700 C   0  0  0  0  0  0  0  0  0  0  0  0
   60.2350   30.4890   48.6210 C   0  0  0  0  0  0  0  0  0  0  0  0
   61.0070   30.8620   47.5130 C   0  0  0  0  0  0  0  0  0  0  0  0
   62.0180   32.3010   47.5770 S   0  0  0  0  0  0  0  0  0  0  0  0
   61.9530   32.8860   48.9610 O   0  0  0  0  0  0  0  0  0  0  0  0
   63.4430   31.9250   47.2760 O   0  0  0  0  0  0  0  0  0  0  0  0
   61.4220   33.4500   46.4120 N   0  0  0  0  0  0  0  0  0  0  0  0
   60.4920   34.4150   47.0120 C   0  0  0  0  0  0  0  0  0  0  0  0
   59.3290   34.7780   46.0730 C   0  0  0  0  0  0  0  0  0  0  0  0
   58.6440   33.5320   45.5780 C   0  0  0  0  0  0  0  0  0  0  0  0
   58.3140   33.3980   44.2200 C   0  0  0  0  0  0  0  0  0  0  0  0
   57.7060   32.2270   43.7550 C   0  0  0  0  0  0  0  0  0  0  0  0
   57.4250   31.1780   44.6400 C   0  0  0  0  0  0  0  0  0  0  0  0
   56.6740   29.7020   44.0420 S   0  0  0  0  0  0  0  0  0  0  0  0
   55.5590   29.1090   45.2220 N   0  0  0  0  0  0  0  0  0  0  0  0
   57.7320   28.6680   43.7820 O   0  0  0  0  0  0  0  0  0  0  0  0
   55.9440   29.9820   42.7580 O   0  0  0  0  0  0  0  0  0  0  0  0
   57.7730   31.3010   45.9920 C   0  0  0  0  0  0  0  0  0  0  0  0
   58.3800   32.4710   46.4580 C   0  0  0  0  0  0  0  0  0  0  0  0
   60.9880   30.0690   46.3580 C   0  0  0  0  0  0  0  0  0  0  0  0
   60.1940   28.9190   46.3070 C   0  0  0  0  0  0  0  0  0  0  0  0
   58.2994   26.9915   48.3633 H   0  0  0  0  0  0  0  0  0  0  0  0
   57.6168   27.5800   46.8095 H   0  0  0  0  0  0  0  0  0  0  0  0
   59.0698   26.5238   46.8095 H   0  0  0  0  0  0  0  0  0  0  0  0
   58.8210   29.0641   49.4368 H   0  0  0  0  0  0  0  0  0  0  0  0
   60.2553   31.1017   49.5343 H   0  0  0  0  0  0  0  0  0  0  0  0
   60.9410   32.9220   45.6480 H   0  0  0  0  0  0  0  0  0  0  0  0
   60.0781   33.9793   47.9334 H   0  0  0  0  0  0  0  0  0  0  0  0
   61.0552   35.3374   47.2168 H   0  0  0  0  0  0  0  0  0  0  0  0
   58.6027   35.3981   46.6189 H   0  0  0  0  0  0  0  0  0  0  0  0
   59.7273   35.3323   45.2104 H   0  0  0  0  0  0  0  0  0  0  0  0
   58.5343   34.2167   43.5191 H   0  0  0  0  0  0  0  0  0  0  0  0
   57.4476   32.1295   42.6902 H   0  0  0  0  0  0  0  0  0  0  0  0
   54.6000   29.3420   44.8790 H   0  0  0  0  0  0  0  0  0  0  0  0
   57.5680   30.4746   46.6885 H   0  0  0  0  0  0  0  0  0  0  0  0
   58.6521   32.5605   47.5200 H   0  0  0  0  0  0  0  0  0  0  0  0
   61.5996   30.3519   45.4886 H   0  0  0  0  0  0  0  0  0  0  0  0
   60.1725   28.3088   45.3920 H   0  0  0  0  0  0  0  0  0  0  0  0
  1  2  1  0
  2  3  2  0
  3  4  1  0
  4  5  2  0
  5  6  1  0
  6  7  2  0
  6  8  2  0
  6  9  1  0
  9 10  1  0
 10 11  1  0
 11 12  1  0
 12 13  2  0
 13 14  1  0
 14 15  2  0
 15 16  1  0
 16 17  1  0
 16 18  2  0
 16 19  2  0
 15 20  1  0
 20 21  2  0
  5 22  1  0
 22 23  2  0
 23  2  1  0
 21 12  1  0
  1 24  1  0
  1 25  1  0
  1 26  1  0
  3 27  1  0
  4 28  1  0
  9 29  1  0
 10 30  1  0
 10 31  1  0
 11 32  1  0
 11 33  1  0
 13 34  1  0
 14 35  1  0
 17 36  1  0
 20 37  1  0
 21 38  1  0
 22 39  1  0
 23 40  1  0
M  CHG  1  17  -1
M  END
>  <UniqueID>  (90) 
83

>  <SMILES>  (90) 
Cc1ccc(S(=O)(=O)NCCc2ccc(S([NH-])(=O)=O)cc2)cc1

>  <Energy>  (90) 
37.360683380008794

>  <Genealogy>  (90) 
Cc1ccc(S(=O)(=O)NCCc2ccc(S([NH-])(=O)=O)cc2)cc1 (protonated)
Cc1ccc(S(=O)(=O)NCCc2ccc(S([NH-])(=O)=O)cc2)cc1 (3D coordinates assigned)
Cc1ccc(S(=O)(=O)NCCc2ccc(S([NH-])(=O)=O)cc2)cc1 (optimized conformer: 37.360683380008794 kcal/mol)

>  <smiles>  (90) 
Cc1ccc(S(=O)(=O)NCCc2ccc(S(N)(=O)=O)cc2)cc1

>  <score_type>  (90) 
oracle

>  <origin>  (90) 
adg

>  <m_score__min__energy>  (90) 
-11.41

>  <m_primary>  (90) 
energy

$$$$
90:0
     RDKit          3D

 41 43  0  0  0  0  0  0  0  0999 V2000
   55.2130   30.0860   44.4370 O   0  0  0  0  0  0  0  0  0  0  0  0
   56.2560   29.4310   44.2330 N   0  0  0  0  0  0  0  0  0  0  0  0
   56.6390   29.1980   42.9310 O   0  0  0  0  0  0  0  0  0  0  0  0
   57.0320   28.8990   45.3280 C   0  0  0  0  0  0  0  0  0  0  0  0
   58.1880   29.5780   45.7530 C   0  0  0  0  0  0  0  0  0  0  0  0
   58.9640   29.0860   46.8110 C   0  0  0  0  0  0  0  0  0  0  0  0
   60.4150   29.9500   47.3090 S   0  0  0  0  0  0  0  0  0  0  0  0
   61.0790   29.1840   48.4180 O   0  0  0  0  0  0  0  0  0  0  0  0
   61.3770   30.0910   46.1630 O   0  0  0  0  0  0  0  0  0  0  0  0
   59.9810   31.5260   47.8870 N   0  0  0  0  0  0  0  0  0  0  0  0
   59.4720   32.5930   47.0740 C   0  0  0  0  0  0  0  0  0  0  0  0
   58.1590   32.5660   46.5640 C   0  0  0  0  0  0  0  0  0  0  0  0
   57.6990   33.5940   45.7390 C   0  0  0  0  0  0  0  0  0  0  0  0
   58.5390   34.6570   45.4100 C   0  0  0  0  0  0  0  0  0  0  0  0
   59.8400   34.7000   45.9130 C   0  0  0  0  0  0  0  0  0  0  0  0
   60.3160   33.6750   46.7480 C   0  0  0  0  0  0  0  0  0  0  0  0
   61.6480   33.7620   47.2840 N   0  0  0  0  0  0  0  0  0  0  0  0
   62.8090   33.6810   46.3900 C   0  0  0  0  0  0  0  0  0  0  0  0
   64.0370   33.2040   47.1690 C   0  0  0  0  0  0  0  0  0  0  0  0
   63.6500   32.1990   48.0820 O   0  0  0  0  0  0  0  0  0  0  0  0
   62.9210   32.7620   49.1640 C   0  0  0  0  0  0  0  0  0  0  0  0
   61.8660   33.8100   48.7340 C   0  0  0  0  0  0  0  0  0  0  0  0
   58.5810   27.9090   47.4630 C   0  0  0  0  0  0  0  0  0  0  0  0
   57.4340   27.2250   47.0560 C   0  0  0  0  0  0  0  0  0  0  0  0
   56.6590   27.7100   45.9980 C   0  0  0  0  0  0  0  0  0  0  0  0
   55.5180   27.0030   45.6310 O   0  0  0  0  0  0  0  0  0  0  0  0
   58.4872   30.5082   45.2478 H   0  0  0  0  0  0  0  0  0  0  0  0
   57.4916   31.7291   46.8176 H   0  0  0  0  0  0  0  0  0  0  0  0
   56.6714   33.5652   45.3476 H   0  0  0  0  0  0  0  0  0  0  0  0
   58.1762   35.4619   44.7539 H   0  0  0  0  0  0  0  0  0  0  0  0
   60.4978   35.5427   45.6539 H   0  0  0  0  0  0  0  0  0  0  0  0
   62.5945   32.9710   45.5777 H   0  0  0  0  0  0  0  0  0  0  0  0
   63.0120   34.6774   45.9705 H   0  0  0  0  0  0  0  0  0  0  0  0
   64.7811   32.7971   46.4685 H   0  0  0  0  0  0  0  0  0  0  0  0
   64.4765   34.0502   47.7175 H   0  0  0  0  0  0  0  0  0  0  0  0
   62.4043   31.9481   49.6937 H   0  0  0  0  0  0  0  0  0  0  0  0
   63.6494   33.2859   49.8004 H   0  0  0  0  0  0  0  0  0  0  0  0
   60.9171   33.5993   49.2489 H   0  0  0  0  0  0  0  0  0  0  0  0
   62.2324   34.8116   49.0034 H   0  0  0  0  0  0  0  0  0  0  0  0
   59.1843   27.5220   48.2974 H   0  0  0  0  0  0  0  0  0  0  0  0
   57.1382   26.2990   47.5707 H   0  0  0  0  0  0  0  0  0  0  0  0
  1  2  2  0
  2  3  1  0
  2  4  1  0
  4  5  2  0
  5  6  1  0
  6  7  1  0
  7  8  2  0
  7  9  2  0
  7 10  1  0
 10 11  1  0
 11 12  2  0
 12 13  1  0
 13 14  2  0
 14 15  1  0
 15 16  2  0
 16 17  1  0
 17 18  1  0
 18 19  1  0
 19 20  1  0
 20 21  1  0
 21 22  1  0
  6 23  2  0
 23 24  1  0
 24 25  2  0
 25 26  1  0
 25  4  1  0
 16 11  1  0
 22 17  1  0
  5 27  1  0
 12 28  1  0
 13 29  1  0
 14 30  1  0
 15 31  1  0
 18 32  1  0
 18 33  1  0
 19 34  1  0
 19 35  1  0
 21 36  1  0
 21 37  1  0
 22 38  1  0
 22 39  1  0
 23 40  1  0
 24 41  1  0
M  CHG  4   2   1   3  -1  10  -1  26  -1
M  END
>  <UniqueID>  (91) 
84

>  <SMILES>  (91) 
O=[N+]([O-])c1cc(S(=O)(=O)[N-]c2ccccc2N2CCOCC2)ccc1[O-]

>  <Energy>  (91) 
60.27485565754476

>  <Genealogy>  (91) 
O=[N+]([O-])c1cc(S(=O)(=O)[N-]c2ccccc2N2CCOCC2)ccc1[O-] (protonated)
O=[N+]([O-])c1cc(S(=O)(=O)[N-]c2ccccc2N2CCOCC2)ccc1[O-] (3D coordinates assigned)
O=[N+]([O-])c1cc(S(=O)(=O)[N-]c2ccccc2N2CCOCC2)ccc1[O-] (nonaromatic ring conformer: 60.27485565754476 kcal/mol)

>  <smiles>  (91) 
O=[N+]([O-])c1cc(S(=O)(=O)Nc2ccccc2N2CCOCC2)ccc1O

>  <score_type>  (91) 
oracle

>  <origin>  (91) 
adg

>  <m_score__min__energy>  (91) 
-12.300000000000001

>  <m_primary>  (91) 
energy

$$$$
91:0
     RDKit          3D

 61 64  0  0  0  0  0  0  0  0999 V2000
   61.3470   30.6030   47.6720 C   0  0  0  0  0  0  0  0  0  0  0  0
   60.9260   30.6180   49.1320 C   0  0  0  0  0  0  0  0  0  0  0  0
   59.6590   29.9780   49.2690 O   0  0  0  0  0  0  0  0  0  0  0  0
   59.2950   28.7870   48.6240 C   0  0  0  0  0  0  0  0  0  0  0  0
   58.1970   28.7190   47.7440 C   0  0  0  0  0  0  0  0  0  0  0  0
   57.8630   27.5160   47.1220 C   0  0  0  0  0  0  0  0  0  0  0  0
   58.6230   26.3620   47.3580 C   0  0  0  0  0  0  0  0  0  0  0  0
   58.2440   25.0550   46.7090 C   0  0  0  0  0  0  0  0  0  0  0  0
   57.0620   25.2210   45.7440 C   0  0  0  0  0  0  0  0  0  0  0  0
   57.4740   25.0630   44.3490 N   0  0  0  0  0  0  0  0  0  0  0  0
   57.7990   26.1240   43.4410 C   0  0  0  0  0  0  0  0  0  0  0  0
   57.7590   25.8960   42.2030 O   0  0  0  0  0  0  0  0  0  0  0  0
   58.1530   27.4770   43.9100 C   0  0  0  0  0  0  0  0  0  0  0  0
   59.3970   27.6960   44.5210 C   0  0  0  0  0  0  0  0  0  0  0  0
   59.7370   28.9740   44.9580 C   0  0  0  0  0  0  0  0  0  0  0  0
   58.8320   30.0290   44.7970 C   0  0  0  0  0  0  0  0  0  0  0  0
   59.1480   31.3250   45.2320 C   0  0  0  0  0  0  0  0  0  0  0  0
   58.2240   32.3670   45.0710 C   0  0  0  0  0  0  0  0  0  0  0  0
   58.5970   33.9860   45.6490 S   0  0  0  0  0  0  0  0  0  0  0  0
   58.9340   34.8900   44.4960 O   0  0  0  0  0  0  0  0  0  0  0  0
   57.3980   34.5560   46.3560 O   0  0  0  0  0  0  0  0  0  0  0  0
   59.9680   33.8960   46.7480 C   0  0  0  0  0  0  0  0  0  0  0  0
   61.2750   33.8070   46.2490 C   0  0  0  0  0  0  0  0  0  0  0  0
   62.3610   33.7600   47.1290 C   0  0  0  0  0  0  0  0  0  0  0  0
   62.1480   33.8080   48.5100 C   0  0  0  0  0  0  0  0  0  0  0  0
   63.5110   33.7510   49.6120 Cl  0  0  0  0  0  0  0  0  0  0  0  0
   60.8450   33.9040   49.0110 C   0  0  0  0  0  0  0  0  0  0  0  0
   59.7580   33.9510   48.1340 C   0  0  0  0  0  0  0  0  0  0  0  0
   56.9780   32.1070   44.4850 C   0  0  0  0  0  0  0  0  0  0  0  0
   56.6580   30.8190   44.0490 C   0  0  0  0  0  0  0  0  0  0  0  0
   57.5790   29.7730   44.1970 C   0  0  0  0  0  0  0  0  0  0  0  0
   57.2710   28.5100   43.7790 N   0  0  0  0  0  0  0  0  0  0  0  0
   59.7150   26.4230   48.2370 C   0  0  0  0  0  0  0  0  0  0  0  0
   60.0550   27.6340   48.8730 C   0  0  0  0  0  0  0  0  0  0  0  0
   61.1400   27.7300   49.7590 O   0  0  0  0  0  0  0  0  0  0  0  0
   61.2730   26.9720   50.9570 C   0  0  0  0  0  0  0  0  0  0  0  0
   62.4444   30.5639   47.6072 H   0  0  0  0  0  0  0  0  0  0  0  0
   60.9187   29.7195   47.1759 H   0  0  0  0  0  0  0  0  0  0  0  0
   60.9827   31.5147   47.1759 H   0  0  0  0  0  0  0  0  0  0  0  0
   61.6742   30.0823   49.7347 H   0  0  0  0  0  0  0  0  0  0  0  0
   60.8503   31.6585   49.4806 H   0  0  0  0  0  0  0  0  0  0  0  0
   57.5990   29.6208   47.5460 H   0  0  0  0  0  0  0  0  0  0  0  0
   56.9988   27.4726   46.4428 H   0  0  0  0  0  0  0  0  0  0  0  0
   59.1096   24.6709   46.1494 H   0  0  0  0  0  0  0  0  0  0  0  0
   57.9434   24.3536   47.5013 H   0  0  0  0  0  0  0  0  0  0  0  0
   56.3012   24.4621   45.9788 H   0  0  0  0  0  0  0  0  0  0  0  0
   56.6585   26.2367   45.8687 H   0  0  0  0  0  0  0  0  0  0  0  0
   60.1011   26.8614   44.6544 H   0  0  0  0  0  0  0  0  0  0  0  0
   60.7149   29.1536   45.4287 H   0  0  0  0  0  0  0  0  0  0  0  0
   60.1231   31.5240   45.7005 H   0  0  0  0  0  0  0  0  0  0  0  0
   61.4468   33.7741   45.1630 H   0  0  0  0  0  0  0  0  0  0  0  0
   63.3848   33.6851   46.7338 H   0  0  0  0  0  0  0  0  0  0  0  0
   60.6760   33.9425   50.0973 H   0  0  0  0  0  0  0  0  0  0  0  0
   58.7354   34.0313   48.5313 H   0  0  0  0  0  0  0  0  0  0  0  0
   56.2480   32.9214   44.3677 H   0  0  0  0  0  0  0  0  0  0  0  0
   55.6786   30.6248   43.5874 H   0  0  0  0  0  0  0  0  0  0  0  0
   56.3240   28.3230   43.3740 H   0  0  0  0  0  0  0  0  0  0  0  0
   60.3104   25.5187   48.4312 H   0  0  0  0  0  0  0  0  0  0  0  0
   61.1564   27.6362   51.8260 H   0  0  0  0  0  0  0  0  0  0  0  0
   60.4980   26.1919   50.9852 H   0  0  0  0  0  0  0  0  0  0  0  0
   62.2673   26.5023   50.9852 H   0  0  0  0  0  0  0  0  0  0  0  0
  1  2  1  0
  2  3  1  0
  3  4  1  0
  4  5  2  0
  5  6  1  0
  6  7  2  0
  7  8  1  0
  8  9  1  0
  9 10  1  0
 10 11  1  0
 11 12  2  0
 11 13  1  0
 13 14  2  0
 14 15  1  0
 15 16  2  0
 16 17  1  0
 17 18  2  0
 18 19  1  0
 19 20  2  0
 19 21  2  0
 19 22  1  0
 22 23  2  0
 23 24  1  0
 24 25  2  0
 25 26  1  0
 25 27  1  0
 27 28  2  0
 18 29  1  0
 29 30  2  0
 30 31  1  0
 31 32  2  0
  7 33  1  0
 33 34  2  0
 34 35  1  0
 35 36  1  0
 34  4  1  0
 32 13  1  0
 31 16  1  0
 28 22  1  0
  1 37  1  0
  1 38  1  0
  1 39  1  0
  2 40  1  0
  2 41  1  0
  5 42  1  0
  6 43  1  0
  8 44  1  0
  8 45  1  0
  9 46  1  0
  9 47  1  0
 14 48  1  0
 15 49  1  0
 17 50  1  0
 23 51  1  0
 24 52  1  0
 27 53  1  0
 28 54  1  0
 29 55  1  0
 30 56  1  0
 32 57  1  0
 33 58  1  0
 36 59  1  0
 36 60  1  0
 36 61  1  0
M  CHG  2  10  -1  32   1
M  END
>  <UniqueID>  (92) 
85

>  <SMILES>  (92) 
CCOc1ccc(CC[N-]C(=O)c2ccc3cc(S(=O)(=O)c4ccc(Cl)cc4)ccc3[nH+]2)cc1OC

>  <Energy>  (92) 
66.8134326197847

>  <Genealogy>  (92) 
CCOc1ccc(CC[N-]C(=O)c2ccc3cc(S(=O)(=O)c4ccc(Cl)cc4)ccc3[nH+]2)cc1OC (protonated)
CCOc1ccc(CC[N-]C(=O)c2ccc3cc(S(=O)(=O)c4ccc(Cl)cc4)ccc3[nH+]2)cc1OC (3D coordinates assigned)
CCOc1ccc(CC[N-]C(=O)c2ccc3cc(S(=O)(=O)c4ccc(Cl)cc4)ccc3[nH+]2)cc1OC (optimized conformer: 66.8134326197847 kcal/mol)

>  <smiles>  (92) 
CCOc1ccc(CCNC(=O)c2ccc3cc(S(=O)(=O)c4ccc(Cl)cc4)ccc3n2)cc1OC

>  <score_type>  (92) 
oracle

>  <origin>  (92) 
adg

>  <m_score__min__energy>  (92) 
-8.7100000000000009

>  <m_primary>  (92) 
energy

$$$$
92:0
     RDKit          3D

 59 62  0  0  0  0  0  0  0  0999 V2000
   65.2500   32.7760   49.9500 C   0  0  0  0  0  0  0  0  0  0  0  0
   64.1170   33.4070   50.5360 O   0  0  0  0  0  0  0  0  0  0  0  0
   62.9380   33.7220   49.8440 C   0  0  0  0  0  0  0  0  0  0  0  0
   63.0060   33.9120   48.4600 C   0  0  0  0  0  0  0  0  0  0  0  0
   61.8520   34.2100   47.7260 C   0  0  0  0  0  0  0  0  0  0  0  0
   60.6110   34.2970   48.3620 C   0  0  0  0  0  0  0  0  0  0  0  0
   59.4750   34.5840   47.5900 O   0  0  0  0  0  0  0  0  0  0  0  0
   58.8470   33.6990   46.6960 C   0  0  0  0  0  0  0  0  0  0  0  0
   58.3970   32.4330   47.1060 C   0  0  0  0  0  0  0  0  0  0  0  0
   57.7870   31.5690   46.1980 C   0  0  0  0  0  0  0  0  0  0  0  0
   57.6260   31.9370   44.8590 C   0  0  0  0  0  0  0  0  0  0  0  0
   57.0000   30.9970   43.9710 N   0  0  0  0  0  0  0  0  0  0  0  0
   56.3800   29.7420   44.2850 C   0  0  0  0  0  0  0  0  0  0  0  0
   55.1630   29.6740   44.6180 O   0  0  0  0  0  0  0  0  0  0  0  0
   57.2170   28.5040   44.2980 C   0  0  0  0  0  0  0  0  0  0  0  0
   57.7860   28.2750   45.6230 N   0  0  0  0  0  0  0  0  0  0  0  0
   58.7630   29.0220   46.1150 N   0  0  0  0  0  0  0  0  0  0  0  0
   59.0800   28.5480   47.3370 C   0  0  0  0  0  0  0  0  0  0  0  0
   60.1180   29.1560   48.2020 C   0  0  0  0  0  0  0  0  0  0  0  0
   60.6450   30.4090   47.8460 C   0  0  0  0  0  0  0  0  0  0  0  0
   61.6170   31.0250   48.6350 C   0  0  0  0  0  0  0  0  0  0  0  0
   62.0840   30.3970   49.7860 C   0  0  0  0  0  0  0  0  0  0  0  0
   61.5840   29.1470   50.1510 C   0  0  0  0  0  0  0  0  0  0  0  0
   60.6070   28.5060   49.3600 C   0  0  0  0  0  0  0  0  0  0  0  0
   60.1280   27.2290   49.6860 O   0  0  0  0  0  0  0  0  0  0  0  0
   60.7900   26.3100   50.5470 C   0  0  0  0  0  0  0  0  0  0  0  0
   58.2620   27.4690   47.6360 C   0  0  0  0  0  0  0  0  0  0  0  0
   57.4530   27.3230   46.5260 C   0  0  0  0  0  0  0  0  0  0  0  0
   56.3960   26.3010   46.3860 C   0  0  0  0  0  0  0  0  0  0  0  0
   56.6480   25.0980   46.6600 O   0  0  0  0  0  0  0  0  0  0  0  0
   55.1150   26.6410   45.9810 O   0  0  0  0  0  0  0  0  0  0  0  0
   58.1220   33.1800   44.4260 C   0  0  0  0  0  0  0  0  0  0  0  0
   58.7220   34.0660   45.3420 C   0  0  0  0  0  0  0  0  0  0  0  0
   59.2340   35.4000   44.8710 C   0  0  0  0  0  0  0  0  0  0  0  0
   60.5420   34.1390   49.7560 C   0  0  0  0  0  0  0  0  0  0  0  0
   61.6960   33.8500   50.4920 C   0  0  0  0  0  0  0  0  0  0  0  0
   65.9150   32.4056   50.7441 H   0  0  0  0  0  0  0  0  0  0  0  0
   64.9184   31.9327   49.3265 H   0  0  0  0  0  0  0  0  0  0  0  0
   65.7924   33.5020   49.3265 H   0  0  0  0  0  0  0  0  0  0  0  0
   63.9739   33.8266   47.9443 H   0  0  0  0  0  0  0  0  0  0  0  0
   61.9226   34.3768   46.6410 H   0  0  0  0  0  0  0  0  0  0  0  0
   58.5271   32.1207   48.1527 H   0  0  0  0  0  0  0  0  0  0  0  0
   57.4283   30.5866   46.5389 H   0  0  0  0  0  0  0  0  0  0  0  0
   56.5911   27.6429   44.0209 H   0  0  0  0  0  0  0  0  0  0  0  0
   58.0396   28.6278   43.5783 H   0  0  0  0  0  0  0  0  0  0  0  0
   60.2870   30.9101   46.9346 H   0  0  0  0  0  0  0  0  0  0  0  0
   62.0151   32.0091   48.3468 H   0  0  0  0  0  0  0  0  0  0  0  0
   62.8477   30.8866   50.4081 H   0  0  0  0  0  0  0  0  0  0  0  0
   61.9545   28.6567   51.0633 H   0  0  0  0  0  0  0  0  0  0  0  0
   60.5938   26.5824   51.5945 H   0  0  0  0  0  0  0  0  0  0  0  0
   60.4153   25.2936   50.3561 H   0  0  0  0  0  0  0  0  0  0  0  0
   61.8728   26.3435   50.3561 H   0  0  0  0  0  0  0  0  0  0  0  0
   58.2582   26.8632   48.5542 H   0  0  0  0  0  0  0  0  0  0  0  0
   58.0408   33.4618   43.3658 H   0  0  0  0  0  0  0  0  0  0  0  0
   59.4751   36.0282   45.7412 H   0  0  0  0  0  0  0  0  0  0  0  0
   60.1391   35.2517   44.2637 H   0  0  0  0  0  0  0  0  0  0  0  0
   58.4621   35.8954   44.2637 H   0  0  0  0  0  0  0  0  0  0  0  0
   59.5758   34.2430   50.2715 H   0  0  0  0  0  0  0  0  0  0  0  0
   61.6319   33.7222   51.5827 H   0  0  0  0  0  0  0  0  0  0  0  0
  1  2  1  0
  2  3  1  0
  3  4  2  0
  4  5  1  0
  5  6  2  0
  6  7  1  0
  7  8  1  0
  8  9  2  0
  9 10  1  0
 10 11  2  0
 11 12  1  0
 12 13  1  0
 13 14  2  0
 13 15  1  0
 15 16  1  0
 16 17  1  0
 17 18  2  0
 18 19  1  0
 19 20  2  0
 20 21  1  0
 21 22  2  0
 22 23  1  0
 23 24  2  0
 24 25  1  0
 25 26  1  0
 18 27  1  0
 27 28  2  0
 28 29  1  0
 29 30  2  0
 29 31  1  0
 11 32  1  0
 32 33  2  0
 33 34  1  0
  6 35  1  0
 35 36  2  0
 36  3  1  0
 33  8  1  0
 28 16  1  0
 24 19  1  0
  1 37  1  0
  1 38  1  0
  1 39  1  0
  4 40  1  0
  5 41  1  0
  9 42  1  0
 10 43  1  0
 15 44  1  0
 15 45  1  0
 20 46  1  0
 21 47  1  0
 22 48  1  0
 23 49  1  0
 26 50  1  0
 26 51  1  0
 26 52  1  0
 27 53  1  0
 32 54  1  0
 34 55  1  0
 34 56  1  0
 34 57  1  0
 35 58  1  0
 36 59  1  0
M  CHG  2  12  -1  31  -1
M  END
>  <UniqueID>  (93) 
86

>  <SMILES>  (93) 
COc1ccc(Oc2ccc([N-]C(=O)Cn3nc(-c4ccccc4OC)cc3C(=O)[O-])cc2C)cc1

>  <Energy>  (93) 
105.84334962025781

>  <Genealogy>  (93) 
COc1ccc(Oc2ccc([N-]C(=O)Cn3nc(-c4ccccc4OC)cc3C(=O)[O-])cc2C)cc1 (protonated)
COc1ccc(Oc2ccc([N-]C(=O)Cn3nc(-c4ccccc4OC)cc3C(=O)[O-])cc2C)cc1 (3D coordinates assigned)
COc1ccc(Oc2ccc([N-]C(=O)Cn3nc(-c4ccccc4OC)cc3C(=O)[O-])cc2C)cc1 (optimized conformer: 105.84334962025781 kcal/mol)

>  <smiles>  (93) 
COc1ccc(Oc2ccc(NC(=O)Cn3nc(-c4ccccc4OC)cc3C(=O)O)cc2C)cc1

>  <score_type>  (93) 
oracle

>  <origin>  (93) 
adg

>  <m_score__min__energy>  (93) 
-13.07

>  <m_primary>  (93) 
energy

$$$$
93:0
     RDKit          3D

 31 32  0  0  0  0  0  0  0  0999 V2000
   58.4080   33.4740   46.9410 Br  0  0  0  0  0  0  0  0  0  0  0  0
   58.0520   32.6200   45.2690 C   0  0  0  0  0  0  0  0  0  0  0  0
   58.3570   33.2740   44.0710 C   0  0  0  0  0  0  0  0  0  0  0  0
   58.0890   32.6550   42.8470 C   0  0  0  0  0  0  0  0  0  0  0  0
   57.5190   31.3780   42.8180 C   0  0  0  0  0  0  0  0  0  0  0  0
   57.2240   30.7080   44.0160 C   0  0  0  0  0  0  0  0  0  0  0  0
   56.5730   29.3490   43.9860 C   0  0  0  0  0  0  0  0  0  0  0  0
   57.3970   28.4020   43.2170 N   0  0  0  0  0  0  0  0  0  0  0  0
   58.1290   27.4700   44.0930 C   0  0  0  0  0  0  0  0  0  0  0  0
   58.8360   28.1910   45.2170 C   0  0  0  0  0  0  0  0  0  0  0  0
   60.0090   28.9200   44.9620 C   0  0  0  0  0  0  0  0  0  0  0  0
   60.6520   29.6050   45.9970 C   0  0  0  0  0  0  0  0  0  0  0  0
   60.1270   29.5700   47.2920 C   0  0  0  0  0  0  0  0  0  0  0  0
   58.9580   28.8500   47.5530 C   0  0  0  0  0  0  0  0  0  0  0  0
   58.3120   28.1640   46.5210 C   0  0  0  0  0  0  0  0  0  0  0  0
   57.4820   31.3430   45.2430 C   0  0  0  0  0  0  0  0  0  0  0  0
   58.8084   34.2769   44.0922 H   0  0  0  0  0  0  0  0  0  0  0  0
   58.3265   33.1724   41.9058 H   0  0  0  0  0  0  0  0  0  0  0  0
   57.3011   30.8969   41.8531 H   0  0  0  0  0  0  0  0  0  0  0  0
   56.4603   28.9783   45.0155 H   0  0  0  0  0  0  0  0  0  0  0  0
   55.5873   29.4361   43.5055 H   0  0  0  0  0  0  0  0  0  0  0  0
   58.0720   28.9260   42.6110 H   0  0  0  0  0  0  0  0  0  0  0  0
   56.7700   27.8360   42.5970 H   0  0  0  0  0  0  0  0  0  0  0  0
   57.4154   26.7524   44.5241 H   0  0  0  0  0  0  0  0  0  0  0  0
   58.8892   26.9570   43.4856 H   0  0  0  0  0  0  0  0  0  0  0  0
   60.4235   28.9521   43.9436 H   0  0  0  0  0  0  0  0  0  0  0  0
   61.5720   30.1721   45.7922 H   0  0  0  0  0  0  0  0  0  0  0  0
   60.6340   30.1092   48.1057 H   0  0  0  0  0  0  0  0  0  0  0  0
   58.5457   28.8232   48.5724 H   0  0  0  0  0  0  0  0  0  0  0  0
   57.3904   27.6010   46.7299 H   0  0  0  0  0  0  0  0  0  0  0  0
   57.2348   30.8339   46.1862 H   0  0  0  0  0  0  0  0  0  0  0  0
  1  2  1  0
  2  3  2  0
  3  4  1  0
  4  5  2  0
  5  6  1  0
  6  7  1  0
  7  8  1  0
  8  9  1  0
  9 10  1  0
 10 11  2  0
 11 12  1  0
 12 13  2  0
 13 14  1  0
 14 15  2  0
  6 16  2  0
 16  2  1  0
 15 10  1  0
  3 17  1  0
  4 18  1  0
  5 19  1  0
  7 20  1  0
  7 21  1  0
  8 22  1  0
  8 23  1  0
  9 24  1  0
  9 25  1  0
 11 26  1  0
 12 27  1  0
 13 28  1  0
 14 29  1  0
 15 30  1  0
 16 31  1  0
M  CHG  1   8   1
M  END
>  <UniqueID>  (94) 
87

>  <SMILES>  (94) 
Brc1cccc(C[NH2+]Cc2ccccc2)c1

>  <Energy>  (94) 
30.131112948285313

>  <Genealogy>  (94) 
Brc1cccc(C[NH2+]Cc2ccccc2)c1 (protonated)
Brc1cccc(C[NH2+]Cc2ccccc2)c1 (3D coordinates assigned)
Brc1cccc(C[NH2+]Cc2ccccc2)c1 (optimized conformer: 30.131112948285313 kcal/mol)

>  <smiles>  (94) 
Brc1cccc(CNCc2ccccc2)c1

>  <score_type>  (94) 
oracle

>  <origin>  (94) 
adg

>  <m_score__min__energy>  (94) 
-5.2699999999999996

>  <m_primary>  (94) 
energy

$$$$
94:0
     RDKit          3D

 42 45  0  0  0  0  0  0  0  0999 V2000
   66.3320   32.4410   50.1150 C   0  0  0  0  0  0  0  0  0  0  0  0
   64.9670   33.0130   49.9320 C   0  0  0  0  0  0  0  0  0  0  0  0
   64.2200   32.8430   48.8200 N   0  0  0  0  0  0  0  0  0  0  0  0
   62.9800   33.3970   48.9300 C   0  0  0  0  0  0  0  0  0  0  0  0
   62.0210   33.3670   47.8090 C   0  0  0  0  0  0  0  0  0  0  0  0
   62.1170   34.1840   46.7380 N   0  0  0  0  0  0  0  0  0  0  0  0
   61.0770   33.9300   45.9520 N   0  0  0  0  0  0  0  0  0  0  0  0
   60.3790   32.9480   46.5520 C   0  0  0  0  0  0  0  0  0  0  0  0
   60.9390   32.5670   47.7000 N   0  0  0  0  0  0  0  0  0  0  0  0
   60.3770   31.5420   48.5700 C   0  0  0  0  0  0  0  0  0  0  0  0
   59.6810   30.4600   47.7210 C   0  0  0  0  0  0  0  0  0  0  0  0
   58.9230   30.9950   46.5620 N   0  0  0  0  0  0  0  0  0  0  0  0
   58.0050   30.1220   45.8630 C   0  0  0  0  0  0  0  0  0  0  0  0
   57.0160   30.6100   45.2510 O   0  0  0  0  0  0  0  0  0  0  0  0
   58.1850   28.6580   45.8410 C   0  0  0  0  0  0  0  0  0  0  0  0
   59.4640   28.0960   45.6860 C   0  0  0  0  0  0  0  0  0  0  0  0
   59.6240   26.7080   45.6440 C   0  0  0  0  0  0  0  0  0  0  0  0
   58.5090   25.8720   45.7430 C   0  0  0  0  0  0  0  0  0  0  0  0
   57.2300   26.4220   45.8760 C   0  0  0  0  0  0  0  0  0  0  0  0
   55.8300   25.3700   45.9880 Cl  0  0  0  0  0  0  0  0  0  0  0  0
   57.0680   27.8110   45.9180 C   0  0  0  0  0  0  0  0  0  0  0  0
   59.0710   32.3930   46.0930 C   0  0  1  0  0  0  0  0  0  0  0  0
   57.9330   33.2660   46.6320 C   0  0  0  0  0  0  0  0  0  0  0  0
   62.7380   34.0310   50.1500 C   0  0  0  0  0  0  0  0  0  0  0  0
   64.1130   33.8550   51.1070 S   0  0  0  0  0  0  0  0  0  0  0  0
   66.5502   32.3496   51.1892 H   0  0  0  0  0  0  0  0  0  0  0  0
   66.3792   31.4474   49.6454 H   0  0  0  0  0  0  0  0  0  0  0  0
   67.0734   33.1041   49.6454 H   0  0  0  0  0  0  0  0  0  0  0  0
   64.5560   32.3310   47.9730 H   0  0  0  0  0  0  0  0  0  0  0  0
   61.1834   31.0810   49.1593 H   0  0  0  0  0  0  0  0  0  0  0  0
   59.6410   32.0027   49.2453 H   0  0  0  0  0  0  0  0  0  0  0  0
   60.4496   29.7701   47.3426 H   0  0  0  0  0  0  0  0  0  0  0  0
   58.9505   29.9631   48.3763 H   0  0  0  0  0  0  0  0  0  0  0  0
   60.3430   28.7514   45.5974 H   0  0  0  0  0  0  0  0  0  0  0  0
   60.6285   26.2736   45.5329 H   0  0  0  0  0  0  0  0  0  0  0  0
   58.6372   24.7798   45.7163 H   0  0  0  0  0  0  0  0  0  0  0  0
   56.0602   28.2417   46.0118 H   0  0  0  0  0  0  0  0  0  0  0  0
   59.0334   32.3951   44.9936 H   0  0  0  0  0  0  0  0  0  0  0  0
   57.9501   33.2529   47.7318 H   0  0  0  0  0  0  0  0  0  0  0  0
   58.0626   34.2986   46.2756 H   0  0  0  0  0  0  0  0  0  0  0  0
   56.9693   32.8733   46.2756 H   0  0  0  0  0  0  0  0  0  0  0  0
   61.8130   34.5532   50.4358 H   0  0  0  0  0  0  0  0  0  0  0  0
  1  2  1  0
  2  3  2  0
  3  4  1  0
  4  5  1  0
  5  6  2  0
  6  7  1  0
  7  8  2  0
  8  9  1  0
  9 10  1  0
 10 11  1  0
 11 12  1  0
 12 13  1  0
 13 14  2  0
 13 15  1  0
 15 16  2  0
 16 17  1  0
 17 18  2  0
 18 19  1  0
 19 20  1  0
 19 21  2  0
 12 22  1  0
 22 23  1  0
  4 24  2  0
 24 25  1  0
 25  2  1  0
  9  5  1  0
 21 15  1  0
 22  8  1  0
  1 26  1  0
  1 27  1  0
  1 28  1  0
  3 29  1  0
 10 30  1  0
 10 31  1  0
 11 32  1  0
 11 33  1  0
 16 34  1  0
 17 35  1  0
 18 36  1  0
 21 37  1  0
 22 38  1  6
 23 39  1  0
 23 40  1  0
 23 41  1  0
 24 42  1  0
M  CHG  1   3   1
M  END
>  <UniqueID>  (95) 
88

>  <SMILES>  (95) 
Cc1[nH+]c(-c2nnc3n2CCN(C(=O)c2cccc(Cl)c2)[C@H]3C)cs1

>  <Energy>  (95) 
118.46839001730469

>  <Genealogy>  (95) 
Cc1[nH+]c(-c2nnc3n2CCN(C(=O)c2cccc(Cl)c2)C3C)cs1 (protonated)
Cc1[nH+]c(-c2nnc3n2CCN(C(=O)c2cccc(Cl)c2)[C@H]3C)cs1 (chirality)
Cc1[nH+]c(-c2nnc3n2CCN(C(=O)c2cccc(Cl)c2)[C@H]3C)cs1 (3D coordinates assigned)
Cc1[nH+]c(-c2nnc3n2CCN(C(=O)c2cccc(Cl)c2)[C@H]3C)cs1 (nonaromatic ring conformer: 118.46839001730469 kcal/mol)

>  <smiles>  (95) 
Cc1nc(-c2nnc3n2CCN(C(=O)c2cccc(Cl)c2)C3C)cs1

>  <score_type>  (95) 
oracle

>  <origin>  (95) 
adg

>  <m_score__min__energy>  (95) 
-7.6399999999999997

>  <m_primary>  (95) 
energy

$$$$
