0:0
     RDKit          3D

 69 72  0  0  1  0  0  0  0  0999 V2000
   57.1150   33.8830   44.7930 C   0  0  0  0  0  0  0  0  0  0  0  0
   57.9240   32.6690   45.8200 S   0  0  0  0  0  0  0  0  0  0  0  0
   57.2600   31.3350   45.5300 O   0  0  0  0  0  0  0  0  0  0  0  0
   59.3880   32.5910   45.5660 O   0  0  0  0  0  0  0  0  0  0  0  0
   57.6400   33.0290   47.5020 N   0  0  0  0  0  0  0  0  0  0  0  0
   58.8720   33.5110   48.1000 C   0  0  0  0  0  0  0  0  0  0  0  0
   59.5950   32.3450   48.7650 C   0  0  1  0  0  0  0  0  0  0  0  0
   59.3300   31.1300   48.0170 N   0  0  0  0  0  0  0  0  0  0  0  0
   59.7910   29.8650   48.4390 C   0  0  0  0  0  0  0  0  0  0  0  0
   60.4590   29.8310   49.5180 O   0  0  0  0  0  0  0  0  0  0  0  0
   59.5290   28.6410   47.6930 C   0  0  0  0  0  0  0  0  0  0  0  0
   58.3330   28.3770   47.0610 C   0  0  0  0  0  0  0  0  0  0  0  0
   58.1360   27.1980   46.3670 C   0  0  0  0  0  0  0  0  0  0  0  0
   59.1240   26.2400   46.2770 C   0  0  0  0  0  0  0  0  0  0  0  0
   58.8380   25.0370   45.5150 C   0  0  0  0  0  0  0  0  0  0  0  0
   59.4700   23.8690   45.9550 C   0  0  0  0  0  0  0  0  0  0  0  0
   59.2530   22.6990   45.3300 N   0  0  0  0  0  0  0  0  0  0  0  0
   58.4050   22.6810   44.2630 C   0  0  0  0  0  0  0  0  0  0  0  0
   58.2390   21.5300   43.7080 N   0  0  0  0  0  0  0  0  0  0  0  0
   56.9590   20.8580   43.7910 C   0  0  0  0  0  0  0  0  0  0  0  0
   56.4300   21.0530   45.1990 C   0  0  0  0  0  0  0  0  0  0  0  0
   55.8590   22.4150   45.3760 C   0  0  0  0  0  0  0  0  0  0  0  0
   56.2080   23.1580   46.4920 C   0  0  0  0  0  0  0  0  0  0  0  0
   55.7240   24.4270   46.7300 C   0  0  0  0  0  0  0  0  0  0  0  0
   54.8520   24.9870   45.8190 C   0  0  0  0  0  0  0  0  0  0  0  0
   54.3210   26.2670   45.9930 O   0  0  0  0  0  0  0  0  0  0  0  0
   54.4830   24.2610   44.6820 C   0  0  0  0  0  0  0  0  0  0  0  0
   54.9840   22.9810   44.4630 C   0  0  0  0  0  0  0  0  0  0  0  0
   57.7950   23.8010   43.8360 N   0  0  0  0  0  0  0  0  0  0  0  0
   57.9860   24.9940   44.4360 C   0  0  0  0  0  0  0  0  0  0  0  0
   57.4010   26.0120   43.9740 N   0  0  0  0  0  0  0  0  0  0  0  0
   60.3260   26.4870   46.9030 C   0  0  0  0  0  0  0  0  0  0  0  0
   60.5160   27.6810   47.6030 C   0  0  0  0  0  0  0  0  0  0  0  0
   61.0550   32.6310   48.7960 C   0  0  0  0  0  0  0  0  0  0  0  0
   61.8880   32.3460   47.7390 C   0  0  0  0  0  0  0  0  0  0  0  0
   63.2450   32.6020   47.7470 C   0  0  0  0  0  0  0  0  0  0  0  0
   63.7740   33.1790   48.8990 C   0  0  0  0  0  0  0  0  0  0  0  0
   65.1140   33.4670   48.9900 F   0  0  0  0  0  0  0  0  0  0  0  0
   62.9750   33.4850   49.9920 C   0  0  0  0  0  0  0  0  0  0  0  0
   61.6080   33.2090   49.9400 C   0  0  0  0  0  0  0  0  0  0  0  0
   56.6177   34.6293   45.4300 H   0  0  0  0  0  0  0  0  0  0  0  0
   57.8617   34.3822   44.1579 H   0  0  0  0  0  0  0  0  0  0  0  0
   56.3669   33.3860   44.1579 H   0  0  0  0  0  0  0  0  0  0  0  0
   56.9150   33.8010   47.5520 H   0  0  0  0  0  0  0  0  0  0  0  0
   59.5143   33.9457   47.3200 H   0  0  0  0  0  0  0  0  0  0  0  0
   58.6421   34.2808   48.8514 H   0  0  0  0  0  0  0  0  0  0  0  0
   59.2357   32.2124   49.7962 H   0  0  0  0  0  0  0  0  0  0  0  0
   58.7760   31.2370   47.1420 H   0  0  0  0  0  0  0  0  0  0  0  0
   57.5210   29.1175   47.1097 H   0  0  0  0  0  0  0  0  0  0  0  0
   57.1685   27.0196   45.8749 H   0  0  0  0  0  0  0  0  0  0  0  0
   60.1497   23.9085   46.8190 H   0  0  0  0  0  0  0  0  0  0  0  0
   59.7330   21.8360   45.6720 H   0  0  0  0  0  0  0  0  0  0  0  0
   56.2586   21.2937   43.0633 H   0  0  0  0  0  0  0  0  0  0  0  0
   57.0690   19.7873   43.5642 H   0  0  0  0  0  0  0  0  0  0  0  0
   55.6454   20.3070   45.3939 H   0  0  0  0  0  0  0  0  0  0  0  0
   57.2652   20.9314   45.9045 H   0  0  0  0  0  0  0  0  0  0  0  0
   56.9026   22.7156   47.2212 H   0  0  0  0  0  0  0  0  0  0  0  0
   56.0274   24.9827   47.6295 H   0  0  0  0  0  0  0  0  0  0  0  0
   53.9250   26.7080   45.1510 H   0  0  0  0  0  0  0  0  0  0  0  0
   53.7897   24.7062   43.9532 H   0  0  0  0  0  0  0  0  0  0  0  0
   54.6854   22.4192   43.5657 H   0  0  0  0  0  0  0  0  0  0  0  0
   57.1500   23.7610   43.0170 H   0  0  0  0  0  0  0  0  0  0  0  0
   56.9300   26.0040   43.0530 H   0  0  0  0  0  0  0  0  0  0  0  0
   61.1359   25.7444   46.8517 H   0  0  0  0  0  0  0  0  0  0  0  0
   61.4819   27.8613   48.0975 H   0  0  0  0  0  0  0  0  0  0  0  0
   61.4497   31.8897   46.8392 H   0  0  0  0  0  0  0  0  0  0  0  0
   63.8800   32.3609   46.8818 H   0  0  0  0  0  0  0  0  0  0  0  0
   63.4153   33.9409   50.8910 H   0  0  0  0  0  0  0  0  0  0  0  0
   60.9660   33.4470   50.8009 H   0  0  0  0  0  0  0  0  0  0  0  0
  1  2  1  0
  2  3  2  0
  2  4  2  0
  2  5  1  0
  5  6  1  0
  6  7  1  0
  7  8  1  0
  8  9  1  0
  9 10  2  0
  9 11  1  0
 11 12  2  0
 12 13  1  0
 13 14  2  0
 14 15  1  0
 15 16  2  0
 16 17  1  0
 17 18  1  0
 18 19  2  0
 19 20  1  0
 20 21  1  0
 21 22  1  0
 22 23  2  0
 23 24  1  0
 24 25  2  0
 25 26  1  0
 25 27  1  0
 27 28  2  0
 18 29  1  0
 29 30  1  0
 30 31  2  3
 14 32  1  0
 32 33  2  0
  7 34  1  0
 34 35  2  0
 35 36  1  0
 36 37  2  0
 37 38  1  0
 37 39  1  0
 39 40  2  0
 33 11  1  0
 40 34  1  0
 30 15  1  0
 28 22  1  0
  1 41  1  0
  1 42  1  0
  1 43  1  0
  5 44  1  0
  6 45  1  0
  6 46  1  0
  7 47  1  1
  8 48  1  0
 12 49  1  0
 13 50  1  0
 16 51  1  0
 17 52  1  0
 20 53  1  0
 20 54  1  0
 21 55  1  0
 21 56  1  0
 23 57  1  0
 24 58  1  0
 26 59  1  0
 27 60  1  0
 28 61  1  0
 29 62  1  0
 31 63  1  0
 32 64  1  0
 33 65  1  0
 35 66  1  0
 36 67  1  0
 39 68  1  0
 40 69  1  0
M  END
>  <smiles>  (1) 
CS(=O)(=O)NCC(NC(=O)c1ccc(-c2c[nH]c(=NCCc3ccc(O)cc3)[nH]c2=N)cc1)c1ccc(F)cc1

>  <score_type>  (1) 
oracle

>  <origin>  (1) 
adg

>  <m_score__min__energy>  (1) 
-8.8800000000000008

>  <m_primary>  (1) 
energy

$$$$
1:0
     RDKit          3D

 39 41  0  0  0  0  0  0  0  0999 V2000
   55.5320   28.0860   44.9000 H   0  0  0  0  0  0  0  0  0  0  0  0
   55.4050   29.1220   44.8750 N   0  0  0  0  0  0  0  0  0  0  0  0
   56.6770   29.7610   43.8950 S   0  0  0  0  0  0  0  0  0  0  0  0
   56.7110   29.0420   42.5750 O   0  0  0  0  0  0  0  0  0  0  0  0
   56.3930   31.2140   43.6380 O   0  0  0  0  0  0  0  0  0  0  0  0
   58.2380   29.5800   44.7180 C   0  0  0  0  0  0  0  0  0  0  0  0
   59.0930   28.5400   44.3120 C   0  0  0  0  0  0  0  0  0  0  0  0
   58.7800   27.8636   43.5029 H   0  0  0  0  0  0  0  0  0  0  0  0
   60.3330   28.3560   44.9230 C   0  0  0  0  0  0  0  0  0  0  0  0
   60.9908   27.5378   44.5946 H   0  0  0  0  0  0  0  0  0  0  0  0
   60.7400   29.2060   45.9480 C   0  0  0  0  0  0  0  0  0  0  0  0
   61.7199   29.0605   46.4262 H   0  0  0  0  0  0  0  0  0  0  0  0
   59.9060   30.2420   46.3690 C   0  0  0  0  0  0  0  0  0  0  0  0
   60.2368   30.9121   47.1762 H   0  0  0  0  0  0  0  0  0  0  0  0
   58.6460   30.4400   45.7730 C   0  0  0  0  0  0  0  0  0  0  0  0
   57.8090   31.6070   46.2510 C   0  0  0  0  0  0  0  0  0  0  0  0
   57.4804   31.4098   47.2821 H   0  0  0  0  0  0  0  0  0  0  0  0
   56.9492   31.7094   45.5725 H   0  0  0  0  0  0  0  0  0  0  0  0
   58.5800   32.9020   46.2250 C   0  0  0  0  0  0  0  0  0  0  0  0
   59.3480   33.2610   47.2910 N   0  0  0  0  0  0  0  0  0  0  0  0
   60.0370   34.4320   47.3110 C   0  0  0  0  0  0  0  0  0  0  0  0
   60.7480   34.7290   48.3590 N   0  0  0  0  0  0  0  0  0  0  0  0
   62.0280   34.1810   48.7190 C   0  0  0  0  0  0  0  0  0  0  0  0
   62.8470   33.5200   47.7830 C   0  0  0  0  0  0  0  0  0  0  0  0
   62.5245   33.4378   46.7346 H   0  0  0  0  0  0  0  0  0  0  0  0
   64.0680   32.9680   48.1810 C   0  0  0  0  0  0  0  0  0  0  0  0
   64.7099   32.4657   47.4423 H   0  0  0  0  0  0  0  0  0  0  0  0
   64.4760   33.0530   49.5180 C   0  0  0  0  0  0  0  0  0  0  0  0
   65.7320   32.4830   49.9270 C   0  0  0  0  0  0  0  0  0  0  0  0
   66.7420   32.0250   50.2560 N   0  0  0  0  0  0  0  0  0  0  0  0
   63.6510   33.6820   50.4580 C   0  0  0  0  0  0  0  0  0  0  0  0
   63.9650   33.7431   51.5105 H   0  0  0  0  0  0  0  0  0  0  0  0
   62.4280   34.2330   50.0610 C   0  0  0  0  0  0  0  0  0  0  0  0
   61.7759   34.7103   50.8073 H   0  0  0  0  0  0  0  0  0  0  0  0
   59.9320   35.2890   46.2580 N   0  0  0  0  0  0  0  0  0  0  0  0
   59.1640   34.9860   45.1810 C   0  0  0  0  0  0  0  0  0  0  0  0
   59.0969   35.6898   44.3383 H   0  0  0  0  0  0  0  0  0  0  0  0
   58.4610   33.7850   45.1420 C   0  0  0  0  0  0  0  0  0  0  0  0
   57.6810   33.4890   44.0720 F   0  0  0  0  0  0  0  0  0  0  0  0
  1  2  1  0
  2  3  1  0
  3  4  2  0
  3  5  2  0
  3  6  1  0
  6  7  2  0
  7  8  1  0
  7  9  1  0
  9 10  1  0
  9 11  2  0
 11 12  1  0
 11 13  1  0
 13 14  1  0
 13 15  2  0
 15 16  1  0
 16 17  1  0
 16 18  1  0
 16 19  1  0
 19 20  2  0
 20 21  1  0
 21 22  2  0
 22 23  1  0
 23 24  2  0
 24 25  1  0
 24 26  1  0
 26 27  1  0
 26 28  2  0
 28 29  1  0
 29 30  3  0
 28 31  1  0
 31 32  1  0
 31 33  2  0
 33 34  1  0
 21 35  1  0
 35 36  1  0
 36 37  1  0
 36 38  2  0
 38 39  1  0
 15  6  1  0
 38 19  1  0
 33 23  1  0
M  CHG  2   2  -1  35  -1
M  END
>  <UniqueID>  (2) 
1

>  <SMILES>  (2) 
N#Cc1ccc(/N=c2/nc(Cc3ccccc3S([NH-])(=O)=O)c(F)c[n-]2)cc1

>  <Energy>  (2) 
50.178900902550026

>  <Genealogy>  (2) 
N#Cc1ccc(N=c2nc(Cc3ccccc3S([NH-])(=O)=O)c(F)c[n-]2)cc1 (protonated)
N#Cc1ccc(/N=c2/nc(Cc3ccccc3S([NH-])(=O)=O)c(F)c[n-]2)cc1 (cis-trans isomerization)
N#Cc1ccc(/N=c2/nc(Cc3ccccc3S([NH-])(=O)=O)c(F)c[n-]2)cc1 (3D coordinates assigned)
N#Cc1ccc(/N=c2/nc(Cc3ccccc3S([NH-])(=O)=O)c(F)c[n-]2)cc1 (optimized conformer: 50.178900902550026 kcal/mol)

>  <smiles>  (2) 
N#Cc1ccc(N=c2nc(Cc3ccccc3S(N)(=O)=O)c(F)c[nH]2)cc1

>  <score_type>  (2) 
oracle

>  <origin>  (2) 
adg

>  <m_score__min__energy>  (2) 
-13.199999999999999

>  <m_primary>  (2) 
energy

$$$$
2:0
     RDKit          3D

 38 40  0  0  0  0  0  0  0  0999 V2000
   63.3090   33.8370   46.4690 C   0  0  0  0  0  0  0  0  0  0  0  0
   63.3700   32.7810   47.9490 S   0  0  0  0  0  0  0  0  0  0  0  0
   61.5910   32.5970   48.0260 C   0  0  0  0  0  0  0  0  0  0  0  0
   60.9520   32.7460   49.2150 N   0  0  0  0  0  0  0  0  0  0  0  0
   59.6030   32.6090   49.3180 C   0  0  0  0  0  0  0  0  0  0  0  0
   58.9610   32.7860   50.5950 N   0  0  0  0  0  0  0  0  0  0  0  0
   59.5150   33.7530   51.5480 C   0  0  0  0  0  0  0  0  0  0  0  0
   58.4240   34.2080   52.5210 C   0  0  0  0  0  0  0  0  0  0  0  0
   57.7900   33.0950   53.1210 O   0  0  0  0  0  0  0  0  0  0  0  0
   57.1020   32.3490   52.1350 C   0  0  0  0  0  0  0  0  0  0  0  0
   58.0840   31.7380   51.1320 C   0  0  0  0  0  0  0  0  0  0  0  0
   58.8560   32.3300   48.1680 C   0  0  0  0  0  0  0  0  0  0  0  0
   59.5260   32.1630   46.9490 C   0  0  0  0  0  0  0  0  0  0  0  0
   58.7680   31.8840   45.7070 C   0  0  0  0  0  0  0  0  0  0  0  0
   58.3120   30.5750   45.4690 C   0  0  0  0  0  0  0  0  0  0  0  0
   57.6050   30.2730   44.3030 C   0  0  0  0  0  0  0  0  0  0  0  0
   57.3390   31.2730   43.3670 C   0  0  0  0  0  0  0  0  0  0  0  0
   57.7730   32.5810   43.5970 C   0  0  0  0  0  0  0  0  0  0  0  0
   58.4830   32.8960   44.7620 C   0  0  0  0  0  0  0  0  0  0  0  0
   58.9350   34.5780   45.0300 Cl  0  0  0  0  0  0  0  0  0  0  0  0
   60.8800   32.3110   46.9020 N   0  0  0  0  0  0  0  0  0  0  0  0
   63.2480   34.8922   46.7737 H   0  0  0  0  0  0  0  0  0  0  0  0
   64.2177   33.6805   45.8692 H   0  0  0  0  0  0  0  0  0  0  0  0
   62.4244   33.5769   45.8692 H   0  0  0  0  0  0  0  0  0  0  0  0
   60.3334   33.2817   52.1119 H   0  0  0  0  0  0  0  0  0  0  0  0
   59.8972   34.6256   50.9981 H   0  0  0  0  0  0  0  0  0  0  0  0
   58.8777   34.8310   53.3059 H   0  0  0  0  0  0  0  0  0  0  0  0
   57.6713   34.7838   51.9625 H   0  0  0  0  0  0  0  0  0  0  0  0
   56.5361   31.5418   52.6231 H   0  0  0  0  0  0  0  0  0  0  0  0
   56.4201   33.0225   51.5952 H   0  0  0  0  0  0  0  0  0  0  0  0
   58.6939   30.9742   51.6367 H   0  0  0  0  0  0  0  0  0  0  0  0
   57.5214   31.2765   50.3071 H   0  0  0  0  0  0  0  0  0  0  0  0
   57.7607   32.2432   48.2203 H   0  0  0  0  0  0  0  0  0  0  0  0
   58.5135   29.7838   46.2061 H   0  0  0  0  0  0  0  0  0  0  0  0
   57.2573   29.2452   44.1223 H   0  0  0  0  0  0  0  0  0  0  0  0
   56.7869   31.0313   42.4468 H   0  0  0  0  0  0  0  0  0  0  0  0
   57.5558   33.3673   42.8591 H   0  0  0  0  0  0  0  0  0  0  0  0
   61.3880   32.1940   45.9960 H   0  0  0  0  0  0  0  0  0  0  0  0
  1  2  1  0
  2  3  1  0
  3  4  2  0
  4  5  1  0
  5  6  1  0
  6  7  1  0
  7  8  1  0
  8  9  1  0
  9 10  1  0
 10 11  1  0
  5 12  2  0
 12 13  1  0
 13 14  1  0
 14 15  2  0
 15 16  1  0
 16 17  2  0
 17 18  1  0
 18 19  2  0
 19 20  1  0
 13 21  2  0
 21  3  1  0
 11  6  1  0
 19 14  1  0
  1 22  1  0
  1 23  1  0
  1 24  1  0
  7 25  1  0
  7 26  1  0
  8 27  1  0
  8 28  1  0
 10 29  1  0
 10 30  1  0
 11 31  1  0
 11 32  1  0
 12 33  1  0
 15 34  1  0
 16 35  1  0
 17 36  1  0
 18 37  1  0
 21 38  1  0
M  CHG  1  21   1
M  END
>  <UniqueID>  (3) 
2

>  <SMILES>  (3) 
CSc1nc(N2CCOCC2)cc(-c2ccccc2Cl)[nH+]1

>  <Energy>  (3) 
46.55278150067218

>  <Genealogy>  (3) 
CSc1nc(N2CCOCC2)cc(-c2ccccc2Cl)[nH+]1 (protonated)
CSc1nc(N2CCOCC2)cc(-c2ccccc2Cl)[nH+]1 (3D coordinates assigned)
CSc1nc(N2CCOCC2)cc(-c2ccccc2Cl)[nH+]1 (nonaromatic ring conformer: 46.55278150067218 kcal/mol)

>  <smiles>  (3) 
CSc1nc(-c2ccccc2Cl)cc(N2CCOCC2)n1

>  <score_type>  (3) 
oracle

>  <origin>  (3) 
adg

>  <m_score__min__energy>  (3) 
-5.46

>  <m_primary>  (3) 
energy

$$$$
3:0
     RDKit          3D

 53 56  0  0  0  0  0  0  0  0999 V2000
   57.9570   31.9640   52.8000 C   0  0  0  0  0  0  0  0  0  0  0  0
   58.5890   32.4780   51.5510 C   0  0  0  0  0  0  0  0  0  0  0  0
   59.4740   33.5460   51.4710 C   0  0  0  0  0  0  0  0  0  0  0  0
   59.8390   33.8620   50.1570 C   0  0  0  0  0  0  0  0  0  0  0  0
   59.2560   33.0370   49.2000 C   0  0  0  0  0  0  0  0  0  0  0  0
   59.3900   33.2400   47.7440 C   0  0  0  0  0  0  0  0  0  0  0  0
   59.5300   32.2650   46.8290 C   0  0  0  0  0  0  0  0  0  0  0  0
   60.9450   31.1670   46.7430 S   0  0  0  0  0  0  0  0  0  0  0  0
   59.9050   29.7150   46.9130 C   0  0  0  0  0  0  0  0  0  0  0  0
   60.2640   28.7110   47.8150 C   0  0  0  0  0  0  0  0  0  0  0  0
   59.5060   27.5430   47.9020 C   0  0  0  0  0  0  0  0  0  0  0  0
   58.3660   27.3710   47.0990 C   0  0  0  0  0  0  0  0  0  0  0  0
   57.5730   26.1230   47.1960 C   0  0  0  0  0  0  0  0  0  0  0  0
   57.8620   25.2730   48.0830 O   0  0  0  0  0  0  0  0  0  0  0  0
   56.4770   25.8720   46.3020 N   0  0  0  0  0  0  0  0  0  0  0  0
   55.8630   24.5440   46.1850 C   0  0  1  0  0  0  0  0  0  0  0  0
   54.4280   24.6350   45.6360 C   0  0  0  0  0  0  0  0  0  0  0  0
   53.9690   25.9620   45.6160 O   0  0  0  0  0  0  0  0  0  0  0  0
   56.7110   23.6280   45.3240 C   0  0  0  0  0  0  0  0  0  0  0  0
   56.1940   23.0550   44.1460 C   0  0  0  0  0  0  0  0  0  0  0  0
   56.9790   22.1940   43.3750 C   0  0  0  0  0  0  0  0  0  0  0  0
   58.2830   21.8880   43.7750 C   0  0  0  0  0  0  0  0  0  0  0  0
   58.8000   22.4380   44.9510 C   0  0  0  0  0  0  0  0  0  0  0  0
   58.0170   23.3000   45.7250 C   0  0  0  0  0  0  0  0  0  0  0  0
   58.0000   28.3900   46.2010 C   0  0  0  0  0  0  0  0  0  0  0  0
   58.7580   29.5730   46.1060 C   0  0  0  0  0  0  0  0  0  0  0  0
   58.3050   30.6880   45.2990 N   0  0  0  0  0  0  0  0  0  0  0  0
   57.4810   30.4720   44.1070 C   0  0  0  0  0  0  0  0  0  0  0  0
   58.5010   32.0290   45.8000 C   0  0  0  0  0  0  0  0  0  0  0  0
   57.7840   32.9790   45.3820 O   0  0  0  0  0  0  0  0  0  0  0  0
   58.2390   31.9480   49.9950 S   0  0  0  0  0  0  0  0  0  0  0  0
   58.4755   32.3857   53.6737 H   0  0  0  0  0  0  0  0  0  0  0  0
   56.8979   32.2604   52.8238 H   0  0  0  0  0  0  0  0  0  0  0  0
   58.0313   30.8668   52.8238 H   0  0  0  0  0  0  0  0  0  0  0  0
   59.8498   34.0884   52.3511 H   0  0  0  0  0  0  0  0  0  0  0  0
   60.5229   34.6857   49.9045 H   0  0  0  0  0  0  0  0  0  0  0  0
   59.3739   34.2767   47.3766 H   0  0  0  0  0  0  0  0  0  0  0  0
   61.1466   28.8415   48.4584 H   0  0  0  0  0  0  0  0  0  0  0  0
   59.8032   26.7506   48.6047 H   0  0  0  0  0  0  0  0  0  0  0  0
   56.0720   26.6740   45.7690 H   0  0  0  0  0  0  0  0  0  0  0  0
   55.8089   24.1134   47.1958 H   0  0  0  0  0  0  0  0  0  0  0  0
   54.4110   24.2352   44.6114 H   0  0  0  0  0  0  0  0  0  0  0  0
   53.7683   24.0510   46.2945 H   0  0  0  0  0  0  0  0  0  0  0  0
   54.0950   26.3300   46.5290 H   0  0  0  0  0  0  0  0  0  0  0  0
   55.1659   23.2867   43.8310 H   0  0  0  0  0  0  0  0  0  0  0  0
   56.5705   21.7564   42.4522 H   0  0  0  0  0  0  0  0  0  0  0  0
   58.9020   21.2144   43.1642 H   0  0  0  0  0  0  0  0  0  0  0  0
   59.8243   22.1925   45.2682 H   0  0  0  0  0  0  0  0  0  0  0  0
   58.4262   23.7241   46.6538 H   0  0  0  0  0  0  0  0  0  0  0  0
   57.1114   28.2613   45.5656 H   0  0  0  0  0  0  0  0  0  0  0  0
   56.4586   30.2040   44.4117 H   0  0  0  0  0  0  0  0  0  0  0  0
   57.4551   31.3937   43.5072 H   0  0  0  0  0  0  0  0  0  0  0  0
   57.9106   29.6561   43.5072 H   0  0  0  0  0  0  0  0  0  0  0  0
  1  2  1  0
  2  3  2  0
  3  4  1  0
  4  5  2  0
  5  6  1  0
  6  7  2  3
  7  8  1  0
  8  9  1  0
  9 10  2  0
 10 11  1  0
 11 12  2  0
 12 13  1  0
 13 14  2  0
 13 15  1  0
 15 16  1  0
 16 17  1  0
 17 18  1  0
 16 19  1  0
 19 20  2  0
 20 21  1  0
 21 22  2  0
 22 23  1  0
 23 24  2  0
 12 25  1  0
 25 26  2  0
 26 27  1  0
 27 28  1  0
 27 29  1  0
 29 30  2  0
  5 31  1  0
 31  2  1  0
 29  7  1  0
 26  9  1  0
 24 19  1  0
  1 32  1  0
  1 33  1  0
  1 34  1  0
  3 35  1  0
  4 36  1  0
  6 37  1  0
 10 38  1  0
 11 39  1  0
 15 40  1  0
 16 41  1  1
 17 42  1  0
 17 43  1  0
 18 44  1  0
 20 45  1  0
 21 46  1  0
 22 47  1  0
 23 48  1  0
 24 49  1  0
 25 50  1  0
 28 51  1  0
 28 52  1  0
 28 53  1  0
M  END
>  <UniqueID>  (4) 
3

>  <SMILES>  (4) 
Cc1ccc(C=C2Sc3ccc(C(=O)N[C@@H](CO)c4ccccc4)cc3N(C)C2=O)s1

>  <Energy>  (4) 
98.22058909206194

>  <Genealogy>  (4) 
Cc1ccc(C=C2Sc3ccc(C(=O)N[C@@H](CO)c4ccccc4)cc3N(C)C2=O)s1 (chirality)
Cc1ccc(C=C2Sc3ccc(C(=O)N[C@@H](CO)c4ccccc4)cc3N(C)C2=O)s1 (3D coordinates assigned)
Cc1ccc(C=C2Sc3ccc(C(=O)N[C@@H](CO)c4ccccc4)cc3N(C)C2=O)s1 (nonaromatic ring conformer: 98.22058909206194 kcal/mol)

>  <smiles>  (4) 
Cc1ccc(C=C2Sc3ccc(C(=O)NC(CO)c4ccccc4)cc3N(C)C2=O)s1

>  <score_type>  (4) 
oracle

>  <origin>  (4) 
adg

>  <m_score__min__energy>  (4) 
-9.4499999999999993

>  <m_primary>  (4) 
energy

$$$$
4:0
     RDKit          3D

 32 35  0  0  0  0  0  0  0  0999 V2000
   55.7600   29.4190   44.5670 O   0  0  0  0  0  0  0  0  0  0  0  0
   56.6050   30.3000   44.8700 C   0  0  0  0  0  0  0  0  0  0  0  0
   57.7440   29.9450   45.5190 N   0  0  0  0  0  0  0  0  0  0  0  0
   58.6810   30.8690   45.8640 C   0  0  0  0  0  0  0  0  0  0  0  0
   59.8300   30.5090   46.5150 N   0  0  0  0  0  0  0  0  0  0  0  0
   60.0300   29.1170   46.8330 C   0  0  0  0  0  0  0  0  0  0  0  0
   60.4450   28.2280   45.8310 C   0  0  0  0  0  0  0  0  0  0  0  0
   60.6420   26.8760   46.1260 C   0  0  0  0  0  0  0  0  0  0  0  0
   60.4260   26.4060   47.4240 C   0  0  0  0  0  0  0  0  0  0  0  0
   60.0150   27.2860   48.4290 C   0  0  0  0  0  0  0  0  0  0  0  0
   59.8150   28.6410   48.1400 C   0  0  0  0  0  0  0  0  0  0  0  0
   59.2950   29.7270   49.4210 Cl  0  0  0  0  0  0  0  0  0  0  0  0
   60.7700   31.4600   46.8570 C   0  0  0  0  0  0  0  0  0  0  0  0
   61.9640   31.1100   47.5330 C   0  0  0  0  0  0  0  0  0  0  0  0
   62.9070   32.0820   47.8700 C   0  0  0  0  0  0  0  0  0  0  0  0
   62.6860   33.4190   47.5470 C   0  0  0  0  0  0  0  0  0  0  0  0
   61.5200   33.7940   46.8820 C   0  0  0  0  0  0  0  0  0  0  0  0
   60.5590   32.8320   46.5320 C   0  0  0  0  0  0  0  0  0  0  0  0
   59.3960   33.2300   45.8660 C   0  0  0  0  0  0  0  0  0  0  0  0
   58.4390   32.2820   45.5170 C   0  0  0  0  0  0  0  0  0  0  0  0
   57.2480   32.5920   44.8480 C   0  0  0  0  0  0  0  0  0  0  0  0
   56.9770   33.7780   44.5210 O   0  0  0  0  0  0  0  0  0  0  0  0
   56.3700   31.6000   44.5450 N   0  0  0  0  0  0  0  0  0  0  0  0
   60.6162   28.5962   44.8087 H   0  0  0  0  0  0  0  0  0  0  0  0
   60.9670   26.1823   45.3366 H   0  0  0  0  0  0  0  0  0  0  0  0
   60.5797   25.3416   47.6552 H   0  0  0  0  0  0  0  0  0  0  0  0
   59.8482   26.9127   49.4502 H   0  0  0  0  0  0  0  0  0  0  0  0
   62.1507   30.0583   47.7959 H   0  0  0  0  0  0  0  0  0  0  0  0
   63.8297   31.7909   48.3934 H   0  0  0  0  0  0  0  0  0  0  0  0
   63.4330   34.1799   47.8172 H   0  0  0  0  0  0  0  0  0  0  0  0
   61.3514   34.8513   46.6295 H   0  0  0  0  0  0  0  0  0  0  0  0
   59.2378   34.2900   45.6185 H   0  0  0  0  0  0  0  0  0  0  0  0
  1  2  2  0
  2  3  1  0
  3  4  2  0
  4  5  1  0
  5  6  1  0
  6  7  2  0
  7  8  1  0
  8  9  2  0
  9 10  1  0
 10 11  2  0
 11 12  1  0
  5 13  1  0
 13 14  2  0
 14 15  1  0
 15 16  2  0
 16 17  1  0
 17 18  2  0
 18 19  1  0
 19 20  2  0
 20 21  1  0
 21 22  2  0
 21 23  1  0
 23  2  1  0
 20  4  1  0
 11  6  1  0
 18 13  1  0
  7 24  1  0
  8 25  1  0
  9 26  1  0
 10 27  1  0
 14 28  1  0
 15 29  1  0
 16 30  1  0
 17 31  1  0
 19 32  1  0
M  CHG  1  23  -1
M  END
>  <UniqueID>  (5) 
4

>  <SMILES>  (5) 
O=c1nc2n(-c3ccccc3Cl)c3ccccc3cc-2c(=O)[n-]1

>  <Energy>  (5) 
55.2871583416848

>  <Genealogy>  (5) 
O=c1nc2n(-c3ccccc3Cl)c3ccccc3cc-2c(=O)[n-]1 (protonated)
O=c1nc2n(-c3ccccc3Cl)c3ccccc3cc-2c(=O)[n-]1 (3D coordinates assigned)
O=c1nc2n(-c3ccccc3Cl)c3ccccc3cc-2c(=O)[n-]1 (optimized conformer: 55.2871583416848 kcal/mol)

>  <smiles>  (5) 
O=c1nc2n(-c3ccccc3Cl)c3ccccc3cc-2c(=O)[nH]1

>  <score_type>  (5) 
oracle

>  <origin>  (5) 
adg

>  <m_score__min__energy>  (5) 
-9.1500000000000004

>  <m_primary>  (5) 
energy

$$$$
5:0
     RDKit          3D

 51 53  0  0  0  0  0  0  0  0999 V2000
   64.5180   33.0170   49.2790 C   0  0  0  0  0  0  0  0  0  0  0  0
   63.4110   32.9210   47.8880 S   0  0  0  0  0  0  0  0  0  0  0  0
   64.1090   33.4770   46.6780 O   0  0  0  0  0  0  0  0  0  0  0  0
   63.0390   31.4890   47.6210 O   0  0  0  0  0  0  0  0  0  0  0  0
   62.0060   33.8540   48.1860 O   0  0  0  0  0  0  0  0  0  0  0  0
   60.7950   33.7460   47.4860 C   0  0  0  0  0  0  0  0  0  0  0  0
   59.9010   32.7400   47.8700 C   0  0  0  0  0  0  0  0  0  0  0  0
   58.6760   32.5860   47.2160 C   0  0  0  0  0  0  0  0  0  0  0  0
   58.3100   33.4570   46.1750 C   0  0  0  0  0  0  0  0  0  0  0  0
   56.9990   33.2860   45.4430 C   0  0  0  0  0  0  0  0  0  0  0  0
   57.0220   32.1150   44.4910 C   0  0  0  0  0  0  0  0  0  0  0  0
   57.6680   32.2160   43.4130 O   0  0  0  0  0  0  0  0  0  0  0  0
   56.4690   30.8360   44.8380 N   0  0  0  0  0  0  0  0  0  0  0  0
   57.1010   29.5530   44.7170 C   0  0  0  0  0  0  0  0  0  0  0  0
   57.3880   28.9870   43.4630 C   0  0  0  0  0  0  0  0  0  0  0  0
   58.0310   27.7500   43.3800 C   0  0  0  0  0  0  0  0  0  0  0  0
   58.4230   27.0850   44.5430 C   0  0  0  0  0  0  0  0  0  0  0  0
   58.1950   27.6630   45.8050 C   0  0  0  0  0  0  0  0  0  0  0  0
   58.6320   26.9780   47.0460 C   0  0  0  0  0  0  0  0  0  0  0  0
   59.1970   27.6460   47.9520 O   0  0  0  0  0  0  0  0  0  0  0  0
   58.3880   25.5820   47.2720 N   0  0  0  0  0  0  0  0  0  0  0  0
   57.8810   24.6420   46.3120 C   0  0  0  0  0  0  0  0  0  0  0  0
   56.5020   24.5850   46.0810 C   0  0  0  0  0  0  0  0  0  0  0  0
   55.9740   23.6810   45.1530 C   0  0  0  0  0  0  0  0  0  0  0  0
   56.8200   22.8050   44.4500 C   0  0  0  0  0  0  0  0  0  0  0  0
   56.2660   21.8510   43.4620 C   0  0  0  0  0  0  0  0  0  0  0  0
   55.9270   20.5200   43.8480 N   0  0  0  0  0  0  0  0  0  0  0  0
   56.0850   22.2050   42.2650 O   0  0  0  0  0  0  0  0  0  0  0  0
   58.2030   22.8460   44.7050 C   0  0  0  0  0  0  0  0  0  0  0  0
   58.7280   23.7500   45.6340 C   0  0  0  0  0  0  0  0  0  0  0  0
   57.5260   28.8980   45.8800 C   0  0  0  0  0  0  0  0  0  0  0  0
   59.2130   34.4570   45.7780 C   0  0  0  0  0  0  0  0  0  0  0  0
   60.4430   34.6060   46.4290 C   0  0  0  0  0  0  0  0  0  0  0  0
   63.9387   32.9668   50.2128 H   0  0  0  0  0  0  0  0  0  0  0  0
   65.2272   32.1770   49.2418 H   0  0  0  0  0  0  0  0  0  0  0  0
   65.0720   33.9666   49.2418 H   0  0  0  0  0  0  0  0  0  0  0  0
   60.1657   32.0632   48.6957 H   0  0  0  0  0  0  0  0  0  0  0  0
   57.9934   31.7779   47.5176 H   0  0  0  0  0  0  0  0  0  0  0  0
   56.1999   33.1255   46.1817 H   0  0  0  0  0  0  0  0  0  0  0  0
   56.8230   34.1966   44.8516 H   0  0  0  0  0  0  0  0  0  0  0  0
   57.1051   29.5203   42.5434 H   0  0  0  0  0  0  0  0  0  0  0  0
   58.2289   27.2990   42.3964 H   0  0  0  0  0  0  0  0  0  0  0  0
   58.9133   26.1028   44.4722 H   0  0  0  0  0  0  0  0  0  0  0  0
   55.8279   25.2562   46.6334 H   0  0  0  0  0  0  0  0  0  0  0  0
   54.8893   23.6553   44.9720 H   0  0  0  0  0  0  0  0  0  0  0  0
   56.6060   19.7370   43.7300 H   0  0  0  0  0  0  0  0  0  0  0  0
   58.8770   22.1614   44.1692 H   0  0  0  0  0  0  0  0  0  0  0  0
   59.8095   23.7625   45.8347 H   0  0  0  0  0  0  0  0  0  0  0  0
   57.3345   29.3543   46.8624 H   0  0  0  0  0  0  0  0  0  0  0  0
   58.9510   35.1293   44.9477 H   0  0  0  0  0  0  0  0  0  0  0  0
   61.1374   35.3985   46.1132 H   0  0  0  0  0  0  0  0  0  0  0  0
  1  2  1  0
  2  3  2  0
  2  4  2  0
  2  5  1  0
  5  6  1  0
  6  7  2  0
  7  8  1  0
  8  9  2  0
  9 10  1  0
 10 11  1  0
 11 12  2  0
 11 13  1  0
 13 14  1  0
 14 15  2  0
 15 16  1  0
 16 17  2  0
 17 18  1  0
 18 19  1  0
 19 20  2  0
 19 21  1  0
 21 22  1  0
 22 23  2  0
 23 24  1  0
 24 25  2  0
 25 26  1  0
 26 27  1  0
 26 28  2  0
 25 29  1  0
 29 30  2  0
 18 31  2  0
  9 32  1  0
 32 33  2  0
 33  6  1  0
 31 14  1  0
 30 22  1  0
  1 34  1  0
  1 35  1  0
  1 36  1  0
  7 37  1  0
  8 38  1  0
 10 39  1  0
 10 40  1  0
 15 41  1  0
 16 42  1  0
 17 43  1  0
 23 44  1  0
 24 45  1  0
 27 46  1  0
 29 47  1  0
 30 48  1  0
 31 49  1  0
 32 50  1  0
 33 51  1  0
M  CHG  3  13  -1  21  -1  27  -1
M  END
>  <UniqueID>  (6) 
5

>  <SMILES>  (6) 
CS(=O)(=O)Oc1ccc(CC(=O)[N-]c2cccc(C(=O)[N-]c3ccc(C([NH-])=O)cc3)c2)cc1

>  <Energy>  (6) 
62.65644782064048

>  <Genealogy>  (6) 
CS(=O)(=O)Oc1ccc(CC(=O)[N-]c2cccc(C(=O)[N-]c3ccc(C([NH-])=O)cc3)c2)cc1 (protonated)
CS(=O)(=O)Oc1ccc(CC(=O)[N-]c2cccc(C(=O)[N-]c3ccc(C([NH-])=O)cc3)c2)cc1 (3D coordinates assigned)
CS(=O)(=O)Oc1ccc(CC(=O)[N-]c2cccc(C(=O)[N-]c3ccc(C([NH-])=O)cc3)c2)cc1 (optimized conformer: 62.65644782064048 kcal/mol)

>  <smiles>  (6) 
CS(=O)(=O)Oc1ccc(CC(=O)Nc2cccc(C(=O)Nc3ccc(C(N)=O)cc3)c2)cc1

>  <score_type>  (6) 
oracle

>  <origin>  (6) 
adg

>  <m_score__min__energy>  (6) 
-14.16

>  <m_primary>  (6) 
energy

$$$$
6:0
     RDKit          3D

 63 67  0  0  1  0  0  0  0  0999 V2000
   56.3150   30.8180   53.1630 C   0  0  0  0  0  0  0  0  0  0  0  0
   57.5770   31.4200   53.7370 C   0  0  0  0  0  0  0  0  0  0  0  0
   58.6270   31.3740   52.6990 C   0  0  0  0  0  0  0  0  0  0  0  0
   59.3280   32.4490   52.2920 N   0  0  0  0  0  0  0  0  0  0  0  0
   60.2740   32.3520   51.3410 C   0  0  0  0  0  0  0  0  0  0  0  0
   60.8900   33.4300   51.0170 N   0  0  0  0  0  0  0  0  0  0  0  0
   59.3070   28.2470   46.5690 C   0  0  0  0  0  0  0  0  0  0  0  0
   60.0280   27.3250   47.2870 C   0  0  0  0  0  0  0  0  0  0  0  0
   63.9230   33.4510   48.8810 C   0  0  0  0  0  0  0  0  0  0  0  0
   63.3300   33.3070   47.6330 C   0  0  0  0  0  0  0  0  0  0  0  0
   64.0770   33.2570   46.4580 O   0  0  0  0  0  0  0  0  0  0  0  0
   61.9540   33.2040   47.4960 C   0  0  0  0  0  0  0  0  0  0  0  0
   58.8290   29.3920   47.2000 C   0  0  0  0  0  0  0  0  0  0  0  0
   56.9890   28.7430   44.2830 N   0  0  0  0  0  0  0  0  0  0  0  0
   59.8380   30.0590   51.1740 C   0  0  0  0  0  0  0  0  0  0  0  0
   60.0520   28.9080   50.6680 N   0  0  0  0  0  0  0  0  0  0  0  0
   59.8180   28.6550   49.2860 C   0  0  0  0  0  0  0  0  0  0  0  0
   60.2800   27.5290   48.6360 C   0  0  0  0  0  0  0  0  0  0  0  0
   63.1420   33.4970   50.0390 C   0  0  0  0  0  0  0  0  0  0  0  0
   61.7720   33.3960   49.9110 C   0  0  0  0  0  0  0  0  0  0  0  0
   59.0040   28.1180   45.1890 N   0  0  0  0  0  0  0  0  0  0  0  0
   58.2670   29.0360   44.6550 C   0  0  0  0  0  0  0  0  0  0  0  0
   60.5190   31.1490   50.7900 N   0  0  0  0  0  0  0  0  0  0  0  0
   56.2110   29.6910   43.7260 C   0  0  0  0  0  0  0  0  0  0  0  0
   54.9920   29.3670   43.3830 N   0  0  0  0  0  0  0  0  0  0  0  0
   56.6520   30.9470   43.5170 N   0  0  0  0  0  0  0  0  0  0  0  0
   57.9160   31.2410   43.8860 C   0  0  0  0  0  0  0  0  0  0  0  0
   58.3350   32.4480   43.6840 N   0  0  0  0  0  0  0  0  0  0  0  0
   58.5720   33.3010   44.8110 C   0  0  0  0  0  0  0  0  0  0  0  0
   59.4020   34.4030   44.7400 C   0  0  0  0  0  0  0  0  0  0  0  0
   59.5960   35.1910   45.8570 C   0  0  0  0  0  0  0  0  0  0  0  0
   58.9840   34.9200   47.0750 C   0  0  0  0  0  0  0  0  0  0  0  0
   58.1580   33.8160   47.1380 C   0  0  0  0  0  0  0  0  0  0  0  0
   57.9520   33.0100   46.0150 C   0  0  0  0  0  0  0  0  0  0  0  0
   58.7280   30.3020   44.4510 N   0  0  0  0  0  0  0  0  0  0  0  0
   61.1970   33.2520   48.6560 C   0  0  0  0  0  0  0  0  0  0  0  0
   59.0860   29.5830   48.5400 C   0  0  0  0  0  0  0  0  0  0  0  0
   58.8930   30.1800   52.1300 N   0  0  0  0  0  0  0  0  0  0  0  0
   55.6534   30.5024   53.9831 H   0  0  0  0  0  0  0  0  0  0  0  0
   55.7999   31.5674   52.5441 H   0  0  0  0  0  0  0  0  0  0  0  0
   56.5733   29.9461   52.5441 H   0  0  0  0  0  0  0  0  0  0  0  0
   57.3907   32.4633   54.0316 H   0  0  0  0  0  0  0  0  0  0  0  0
   57.8968   30.8545   54.6246 H   0  0  0  0  0  0  0  0  0  0  0  0
   60.4077   26.4201   46.7901 H   0  0  0  0  0  0  0  0  0  0  0  0
   65.0175   33.5295   48.9584 H   0  0  0  0  0  0  0  0  0  0  0  0
   64.8930   32.6360   46.3390 H   0  0  0  0  0  0  0  0  0  0  0  0
   61.4832   33.0891   46.5085 H   0  0  0  0  0  0  0  0  0  0  0  0
   58.2513   30.1375   46.6339 H   0  0  0  0  0  0  0  0  0  0  0  0
   56.6020   27.7750   44.4260 H   0  0  0  0  0  0  0  0  0  0  0  0
   60.8581   26.7801   49.1971 H   0  0  0  0  0  0  0  0  0  0  0  0
   63.6083   33.6110   51.0287 H   0  0  0  0  0  0  0  0  0  0  0  0
   61.2510   31.0640   50.0530 H   0  0  0  0  0  0  0  0  0  0  0  0
   54.7710   28.7930   42.5490 H   0  0  0  0  0  0  0  0  0  0  0  0
   56.0630   31.6960   43.0880 H   0  0  0  0  0  0  0  0  0  0  0  0
   59.9074   34.6522   43.7953 H   0  0  0  0  0  0  0  0  0  0  0  0
   60.2592   36.0652   45.7801 H   0  0  0  0  0  0  0  0  0  0  0  0
   59.1513   35.5599   47.9539 H   0  0  0  0  0  0  0  0  0  0  0  0
   57.6554   33.5673   48.0843 H   0  0  0  0  0  0  0  0  0  0  0  0
   57.2900   32.1346   46.0881 H   0  0  0  0  0  0  0  0  0  0  0  0
   59.7060   30.5460   44.7320 H   0  0  0  0  0  0  0  0  0  0  0  0
   60.1025   33.1732   48.5793 H   0  0  0  0  0  0  0  0  0  0  0  0
   58.7056   30.4886   49.0352 H   0  0  0  0  0  0  0  0  0  0  0  0
   58.3630   29.3400   52.4310 H   0  0  0  0  0  0  0  0  0  0  0  0
  1  2  1  0
  2  3  1  0
  3  4  2  0
  4  5  1  0
  5  6  2  0
  6  7  1  0
  7  8  2  0
  8  9  1  0
  9 10  2  0
 10 11  1  0
 10 12  1  0
 12 13  2  0
  5 14  1  0
 14 15  1  0
 15 16  2  0
 16 17  1  0
 17 18  2  0
 18 19  1  0
 19 20  2  0
 20 21  1  0
 21 22  2  0
 22 23  1  0
 23 24  1  0
 24 25  2  3
 24 26  1  0
 26 27  1  0
 27 28  2  0
 28 29  1  0
 29 30  2  0
 30 31  1  0
 31 32  2  0
 32 33  1  0
 33 34  2  0
 27 35  1  0
 20 36  1  0
 36 37  2  0
 15 38  1  0
 38  3  1  0
 13  7  1  0
 37 17  1  0
 35 22  1  0
 34 29  1  0
  1 39  1  0
  1 40  1  0
  1 41  1  0
  2 42  1  0
  2 43  1  0
  8 44  1  0
  9 45  1  0
 11 46  1  0
 12 47  1  0
 13 48  1  0
 14 49  1  0
 18 50  1  0
 19 51  1  0
 23 52  1  0
 25 53  1  0
 26 54  1  0
 30 55  1  0
 31 56  1  0
 32 57  1  0
 33 58  1  0
 34 59  1  0
 35 60  1  0
 36 61  1  0
 37 62  1  0
 38 63  1  0
M  END
>  <smiles>  (7) 
CCc1nc(=Nc2ccc(O)cc2)[nH]c(=Nc2ccc(N=c3[nH]c(=N)[nH]c(=Nc4ccccc4)[nH]3)cc2)[nH]1

>  <score_type>  (7) 
oracle

>  <origin>  (7) 
adg

>  <m_score__min__energy>  (7) 
-10.880000000000001

>  <m_primary>  (7) 
energy

$$$$
7:0
     RDKit          3D

 79 84  0  0  0  0  0  0  0  0999 V2000
   60.4880   34.6140   46.3370 C   0  0  0  0  0  0  0  0  0  0  0  0
   60.5240   33.5530   47.4070 C   0  0  0  0  0  0  0  0  0  0  0  0
   61.7310   33.3130   48.1050 C   0  0  0  0  0  0  0  0  0  0  0  0
   62.8840   34.0300   47.8020 O   0  0  0  0  0  0  0  0  0  0  0  0
   61.7580   32.3330   49.1020 C   0  0  0  0  0  0  0  0  0  0  0  0
   60.6320   31.5790   49.3790 C   0  0  0  0  0  0  0  0  0  0  0  0
   59.4200   31.8070   48.7290 C   0  0  0  0  0  0  0  0  0  0  0  0
   58.2930   31.0580   49.0510 O   0  0  0  0  0  0  0  0  0  0  0  0
   59.3570   32.8170   47.7520 C   0  0  0  0  0  0  0  0  0  0  0  0
   58.1030   33.0820   47.1130 N   0  0  0  0  0  0  0  0  0  0  0  0
   57.7960   32.6550   45.7800 C   0  0  0  0  0  0  0  0  0  0  0  0
   57.5290   33.5250   44.9080 O   0  0  0  0  0  0  0  0  0  0  0  0
   57.7820   31.1960   45.4140 C   0  0  0  0  0  0  0  0  0  0  0  0
   56.5470   30.8570   44.8170 O   0  0  0  0  0  0  0  0  0  0  0  0
   56.7710   29.9400   43.7620 C   0  0  0  0  0  0  0  0  0  0  0  0
   57.6250   28.8110   44.2420 C   0  0  0  0  0  0  0  0  0  0  0  0
   58.8810   28.8780   44.1470 O   0  0  0  0  0  0  0  0  0  0  0  0
   57.0110   27.6570   44.7410 O   0  0  0  0  0  0  0  0  0  0  0  0
   57.6840   26.7420   45.6010 C   0  0  0  0  0  0  0  0  0  0  0  0
   56.7680   26.3470   46.7510 C   0  0  0  0  0  0  0  0  0  0  0  0
   55.9120   25.2830   46.3380 O   0  0  0  0  0  0  0  0  0  0  0  0
   56.2570   24.3130   45.3850 C   0  0  0  0  0  0  0  0  0  0  0  0
   55.4930   24.0890   44.2220 C   0  0  0  0  0  0  0  0  0  0  0  0
   55.8750   23.1020   43.3080 C   0  0  0  0  0  0  0  0  0  0  0  0
   57.0180   22.3340   43.5430 C   0  0  0  0  0  0  0  0  0  0  0  0
   57.3840   21.3770   42.6560 F   0  0  0  0  0  0  0  0  0  0  0  0
   57.7830   22.5530   44.6910 C   0  0  0  0  0  0  0  0  0  0  0  0
   57.4040   23.5390   45.6080 C   0  0  0  0  0  0  0  0  0  0  0  0
   60.9530   30.6170   50.4110 C   0  0  0  0  0  0  0  0  0  0  0  0
   60.1580   29.7910   50.9330 O   0  0  0  0  0  0  0  0  0  0  0  0
   62.3460   30.8250   50.7770 C   0  0  0  0  0  0  0  0  0  0  0  0
   62.9350   30.3980   51.8880 C   0  0  0  0  0  0  0  0  0  0  0  0
   64.3020   30.9210   52.2730 C   0  0  1  0  0  0  0  0  0  0  0  0
   65.3860   29.9730   51.8410 C   0  0  0  0  0  0  0  0  0  0  0  0
   65.1230   28.8310   51.3710 O   0  0  0  0  0  0  0  0  0  0  0  0
   66.7700   30.3830   52.0880 C   0  0  0  0  0  0  0  0  0  0  0  0
   67.7340   29.4720   52.5600 C   0  0  0  0  0  0  0  0  0  0  0  0
   67.4180   28.1310   52.7490 O   0  0  0  0  0  0  0  0  0  0  0  0
   69.0210   29.9180   52.8650 C   0  0  0  0  0  0  0  0  0  0  0  0
   69.3510   31.2620   52.7040 C   0  0  0  0  0  0  0  0  0  0  0  0
   68.4040   32.1670   52.2220 C   0  0  0  0  0  0  0  0  0  0  0  0
   67.0890   31.7440   51.9180 C   0  0  0  0  0  0  0  0  0  0  0  0
   66.0510   32.6430   51.2120 C   0  0  1  0  0  0  0  0  0  0  0  0
   66.4900   34.1400   51.2180 C   0  0  0  0  0  0  0  0  0  0  0  0
   65.9920   32.2270   49.8640 O   0  0  0  0  0  0  0  0  0  0  0  0
   64.5910   32.4460   51.8560 C   0  0  2  0  0  0  0  0  0  0  0  0
   64.4790   33.2890   53.1590 C   0  0  0  0  0  0  0  0  0  0  0  0
   63.4850   32.9900   50.8620 C   0  0  0  0  0  0  0  0  0  0  0  0
   62.9440   31.8970   49.9280 C   0  0  2  0  0  0  0  0  0  0  0  0
   60.4543   35.6079   46.8072 H   0  0  0  0  0  0  0  0  0  0  0  0
   61.3894   34.5347   45.7115 H   0  0  0  0  0  0  0  0  0  0  0  0
   59.5941   34.4737   45.7115 H   0  0  0  0  0  0  0  0  0  0  0  0
   58.5974   30.9910   44.7047 H   0  0  0  0  0  0  0  0  0  0  0  0
   57.9185   30.5949   46.3251 H   0  0  0  0  0  0  0  0  0  0  0  0
   55.8063   29.5442   43.4117 H   0  0  0  0  0  0  0  0  0  0  0  0
   57.2831   30.4559   42.9364 H   0  0  0  0  0  0  0  0  0  0  0  0
   57.9634   25.8434   45.0314 H   0  0  0  0  0  0  0  0  0  0  0  0
   58.5883   27.2207   46.0047 H   0  0  0  0  0  0  0  0  0  0  0  0
   57.3759   26.0167   47.6062 H   0  0  0  0  0  0  0  0  0  0  0  0
   56.1575   27.2133   47.0455 H   0  0  0  0  0  0  0  0  0  0  0  0
   54.5931   24.6926   44.0326 H   0  0  0  0  0  0  0  0  0  0  0  0
   55.2745   22.9301   42.4025 H   0  0  0  0  0  0  0  0  0  0  0  0
   58.6843   21.9496   44.8741 H   0  0  0  0  0  0  0  0  0  0  0  0
   58.0102   23.7080   46.5102 H   0  0  0  0  0  0  0  0  0  0  0  0
   62.4281   29.6625   52.5299 H   0  0  0  0  0  0  0  0  0  0  0  0
   64.3053   30.9584   53.3724 H   0  0  0  0  0  0  0  0  0  0  0  0
   69.7757   29.2074   53.2330 H   0  0  0  0  0  0  0  0  0  0  0  0
   70.3626   31.6115   52.9579 H   0  0  0  0  0  0  0  0  0  0  0  0
   68.6835   33.2210   52.0769 H   0  0  0  0  0  0  0  0  0  0  0  0
   66.5921   34.4880   52.2565 H   0  0  0  0  0  0  0  0  0  0  0  0
   67.4556   34.2410   50.7009 H   0  0  0  0  0  0  0  0  0  0  0  0
   65.7319   34.7465   50.7009 H   0  0  0  0  0  0  0  0  0  0  0  0
   65.5010   32.9150   49.3400 H   0  0  0  0  0  0  0  0  0  0  0  0
   64.5670   32.6267   54.0329 H   0  0  0  0  0  0  0  0  0  0  0  0
   65.2857   34.0364   53.1826 H   0  0  0  0  0  0  0  0  0  0  0  0
   63.5051   33.7998   53.1826 H   0  0  0  0  0  0  0  0  0  0  0  0
   62.6495   33.3953   51.4516 H   0  0  0  0  0  0  0  0  0  0  0  0
   63.9511   33.7645   50.2351 H   0  0  0  0  0  0  0  0  0  0  0  0
   63.7916   31.6104   49.2881 H   0  0  0  0  0  0  0  0  0  0  0  0
  1  2  1  0
  2  3  2  0
  3  4  1  0
  3  5  1  0
  5  6  2  0
  6  7  1  0
  7  8  1  0
  7  9  2  0
  9 10  1  0
 10 11  1  0
 11 12  2  0
 11 13  1  0
 13 14  1  0
 14 15  1  0
 15 16  1  0
 16 17  2  0
 16 18  1  0
 18 19  1  0
 19 20  1  0
 20 21  1  0
 21 22  1  0
 22 23  2  0
 23 24  1  0
 24 25  2  0
 25 26  1  0
 25 27  1  0
 27 28  2  0
  6 29  1  0
 29 30  2  0
 29 31  1  0
 31 32  2  0
 32 33  1  0
 33 34  1  0
 34 35  2  0
 34 36  1  0
 36 37  2  0
 37 38  1  0
 37 39  1  0
 39 40  2  0
 40 41  1  0
 41 42  2  0
 42 43  1  0
 43 44  1  0
 43 45  1  6
 43 46  1  0
 46 47  1  1
 46 48  1  0
 48 49  1  0
  9  2  1  0
 28 22  1  0
 49 31  1  0
 49  5  1  0
 46 33  1  0
 42 36  1  0
  1 50  1  0
  1 51  1  0
  1 52  1  0
 13 53  1  0
 13 54  1  0
 15 55  1  0
 15 56  1  0
 19 57  1  0
 19 58  1  0
 20 59  1  0
 20 60  1  0
 23 61  1  0
 24 62  1  0
 27 63  1  0
 28 64  1  0
 32 65  1  0
 33 66  1  1
 39 67  1  0
 40 68  1  0
 41 69  1  0
 44 70  1  0
 44 71  1  0
 44 72  1  0
 45 73  1  0
 47 74  1  0
 47 75  1  0
 47 76  1  0
 48 77  1  0
 48 78  1  0
 49 79  1  6
M  CHG  4   4  -1   8  -1  10  -1  38  -1
M  END
>  <UniqueID>  (8) 
6

>  <SMILES>  (8) 
Cc1c([O-])c2c(c([O-])c1[N-]C(=O)COCC(=O)OCCOc1ccc(F)cc1)C(=O)C1=C[C@H]3C(=O)c4c([O-])cccc4[C@@](C)(O)C3(C)CC12

>  <Energy>  (8) 
142.90775456761827

>  <Genealogy>  (8) 
Cc1c([O-])c2c(c([O-])c1[N-]C(=O)COCC(=O)OCCOc1ccc(F)cc1)C(=O)C1=CC3C(=O)c4c([O-])cccc4C(C)(O)C3(C)CC12 (protonated)
Cc1c([O-])c2c(c([O-])c1[N-]C(=O)COCC(=O)OCCOc1ccc(F)cc1)C(=O)C1=C[C@H]3C(=O)c4c([O-])cccc4[C@@](C)(O)C3(C)CC12 (chirality)
Cc1c([O-])c2c(c([O-])c1[N-]C(=O)COCC(=O)OCCOc1ccc(F)cc1)C(=O)C1=C[C@H]3C(=O)c4c([O-])cccc4[C@@](C)(O)C3(C)CC12 (3D coordinates assigned)
Cc1c([O-])c2c(c([O-])c1[N-]C(=O)COCC(=O)OCCOc1ccc(F)cc1)C(=O)C1=C[C@H]3C(=O)c4c([O-])cccc4[C@@](C)(O)C3(C)CC12 (nonaromatic ring conformer: 142.90775456761827 kcal/mol)

>  <smiles>  (8) 
Cc1c(O)c2c(c(O)c1NC(=O)COCC(=O)OCCOc1ccc(F)cc1)C(=O)C1=CC3C(=O)c4c(O)cccc4C(C)(O)C3(C)CC12

>  <score_type>  (8) 
oracle

>  <origin>  (8) 
adg

>  <m_score__min__energy>  (8) 
-14.119999999999999

>  <m_primary>  (8) 
energy

$$$$
8:0
     RDKit          3D

 36 38  0  0  0  0  0  0  0  0999 V2000
   59.9030   26.0270   45.8800 H   0  0  0  0  0  0  0  0  0  0  0  0
   59.3520   25.2050   46.0930 O   0  0  0  0  0  0  0  0  0  0  0  0
   57.9620   25.2040   45.9950 C   0  0  0  0  0  0  0  0  0  0  0  0
   57.1940   24.0870   45.7380 C   0  0  0  0  0  0  0  0  0  0  0  0
   55.8890   24.5050   45.7070 C   0  0  0  0  0  0  0  0  0  0  0  0
   55.9040   25.8640   45.9470 C   0  0  0  0  0  0  0  0  0  0  0  0
   54.7800   26.6790   46.0000 O   0  0  0  0  0  0  0  0  0  0  0  0
   57.1710   26.2970   46.1290 N   0  0  0  0  0  0  0  0  0  0  0  0
   57.5950   27.6800   46.3720 C   0  0  0  0  0  0  0  0  0  0  0  0
   58.0629   27.7435   47.3655 H   0  0  0  0  0  0  0  0  0  0  0  0
   56.7105   28.3319   46.3201 H   0  0  0  0  0  0  0  0  0  0  0  0
   58.5860   28.1320   45.3310 C   0  0  0  0  0  0  0  0  0  0  0  0
   59.7870   27.7620   45.4170 O   0  0  0  0  0  0  0  0  0  0  0  0
   58.2420   29.1330   44.3650 N   0  0  0  0  0  0  0  0  0  0  0  0
   57.8330   30.3370   44.6290 C   0  0  0  0  0  0  0  0  0  0  0  0
   56.5380   30.6980   44.5110 N   0  0  0  0  0  0  0  0  0  0  0  0
   56.3100   31.9610   44.8670 N   0  0  0  0  0  0  0  0  0  0  0  0
   57.4220   32.6060   45.2910 C   0  0  0  0  0  0  0  0  0  0  0  0
   57.4390   34.0460   45.6900 C   0  0  0  0  0  0  0  0  0  0  0  0
   57.0158   34.1462   46.7004 H   0  0  0  0  0  0  0  0  0  0  0  0
   56.8406   34.6210   44.9680 H   0  0  0  0  0  0  0  0  0  0  0  0
   58.8650   34.5870   45.6880 C   0  0  0  0  0  0  0  0  0  0  0  0
   59.2091   34.7175   46.7246 H   0  0  0  0  0  0  0  0  0  0  0  0
   59.5258   33.8771   45.1690 H   0  0  0  0  0  0  0  0  0  0  0  0
   58.8886   35.5566   45.1690 H   0  0  0  0  0  0  0  0  0  0  0  0
   58.7770   31.6080   45.2190 S   0  0  0  0  0  0  0  0  0  0  0  0
   54.7240   23.6060   45.4430 C   0  0  0  0  0  0  0  0  0  0  0  0
   54.2053   23.9512   44.5365 H   0  0  0  0  0  0  0  0  0  0  0  0
   54.0566   23.6432   46.3166 H   0  0  0  0  0  0  0  0  0  0  0  0
   55.1610   22.1680   45.2420 C   0  0  0  0  0  0  0  0  0  0  0  0
   54.3817   21.4132   45.0603 H   0  0  0  0  0  0  0  0  0  0  0  0
   56.4480   21.7550   45.2720 C   0  0  0  0  0  0  0  0  0  0  0  0
   56.6507   20.6852   45.1156 H   0  0  0  0  0  0  0  0  0  0  0  0
   57.6290   22.6760   45.5080 C   0  0  0  0  0  0  0  0  0  0  0  0
   58.2865   22.6451   44.6267 H   0  0  0  0  0  0  0  0  0  0  0  0
   58.1584   22.3300   46.4080 H   0  0  0  0  0  0  0  0  0  0  0  0
  1  2  1  0
  2  3  1  0
  3  4  2  0
  4  5  1  0
  5  6  2  0
  6  7  1  0
  6  8  1  0
  8  9  1  0
  9 10  1  0
  9 11  1  0
  9 12  1  0
 12 13  2  0
 12 14  1  0
 14 15  2  0
 15 16  1  0
 16 17  1  0
 17 18  2  0
 18 19  1  0
 19 20  1  0
 19 21  1  0
 19 22  1  0
 22 23  1  0
 22 24  1  0
 22 25  1  0
 18 26  1  0
  5 27  1  0
 27 28  1  0
 27 29  1  0
 27 30  1  0
 30 31  1  0
 30 32  2  0
 32 33  1  0
 32 34  1  0
 34 35  1  0
 34 36  1  0
  8  3  1  0
 26 15  1  0
 34  4  1  0
M  CHG  2   7  -1  16  -1
M  END
>  <UniqueID>  (9) 
7

>  <SMILES>  (9) 
CCc1n[n-]/c(=N/C(=O)Cn2c([O-])c3c(c2O)CC=CC3)s1

>  <Energy>  (9) 
106.50998246065065

>  <Genealogy>  (9) 
CCc1n[n-]c(=NC(=O)Cn2c([O-])c3c(c2O)CC=CC3)s1 (protonated)
CCc1n[n-]/c(=N/C(=O)Cn2c([O-])c3c(c2O)CC=CC3)s1 (cis-trans isomerization)
CCc1n[n-]/c(=N/C(=O)Cn2c([O-])c3c(c2O)CC=CC3)s1 (3D coordinates assigned)
CCc1n[n-]/c(=N/C(=O)Cn2c([O-])c3c(c2O)CC=CC3)s1 (nonaromatic ring conformer: 106.50998246065065 kcal/mol)

>  <smiles>  (9) 
CCc1n[nH]c(=NC(=O)Cn2c(O)c3c(c2O)CC=CC3)s1

>  <score_type>  (9) 
oracle

>  <origin>  (9) 
adg

>  <m_score__min__energy>  (9) 
-11.59

>  <m_primary>  (9) 
energy

$$$$
9:0
     RDKit          3D

 67 70  0  0  0  0  0  0  0  0999 V2000
   61.0250   30.6740   48.7890 C   0  0  0  0  0  0  0  0  0  0  0  0
   59.6340   30.4190   48.9610 O   0  0  0  0  0  0  0  0  0  0  0  0
   58.9300   30.6150   50.1590 C   0  0  0  0  0  0  0  0  0  0  0  0
   58.7610   29.5770   51.0970 C   0  0  0  0  0  0  0  0  0  0  0  0
   58.1170   29.8170   52.3220 C   0  0  0  0  0  0  0  0  0  0  0  0
   57.9380   28.6950   53.3160 C   0  0  0  0  0  0  0  0  0  0  0  0
   57.1960   29.1640   54.5950 C   0  0  2  0  0  0  0  0  0  0  0  0
   57.7210   28.4690   55.8470 C   0  0  0  0  0  0  0  0  0  0  0  0
   56.9970   27.2770   56.0430 O   0  0  0  0  0  0  0  0  0  0  0  0
   55.7890   27.3930   55.3230 C   0  0  0  0  0  0  0  0  0  0  0  0
   55.7390   28.7480   54.6270 C   0  0  2  0  0  0  0  0  0  0  0  0
   55.1700   28.6630   53.3170 O   0  0  0  0  0  0  0  0  0  0  0  0
   54.2410   29.5630   52.7690 C   0  0  0  0  0  0  0  0  0  0  0  0
   52.9980   29.6910   53.4000 C   0  0  0  0  0  0  0  0  0  0  0  0
   52.0360   30.5750   52.9060 C   0  0  0  0  0  0  0  0  0  0  0  0
   52.3020   31.3530   51.7660 C   0  0  0  0  0  0  0  0  0  0  0  0
   51.2920   32.3000   51.2460 C   0  0  0  0  0  0  0  0  0  0  0  0
   50.6740   33.0740   52.0270 O   0  0  0  0  0  0  0  0  0  0  0  0
   51.0110   32.3520   49.8860 O   0  0  0  0  0  0  0  0  0  0  0  0
   53.5490   31.2200   51.1280 C   0  0  0  0  0  0  0  0  0  0  0  0
   54.5080   30.3290   51.6200 C   0  0  0  0  0  0  0  0  0  0  0  0
   57.6440   31.1040   52.6090 C   0  0  0  0  0  0  0  0  0  0  0  0
   57.7910   32.1320   51.6780 C   0  0  0  0  0  0  0  0  0  0  0  0
   58.4050   31.8930   50.4440 C   0  0  0  0  0  0  0  0  0  0  0  0
   58.5090   32.9580   49.5380 O   0  0  0  0  0  0  0  0  0  0  0  0
   59.6050   33.8280   49.4610 C   0  0  0  0  0  0  0  0  0  0  0  0
   60.3050   34.0810   50.4800 O   0  0  0  0  0  0  0  0  0  0  0  0
   59.9540   34.4470   48.1440 C   0  0  0  0  0  0  0  0  0  0  0  0
   59.2220   33.8010   47.0570 N   0  0  0  0  0  0  0  0  0  0  0  0
   59.0870   34.3900   45.7590 C   0  0  0  0  0  0  0  0  0  0  0  0
   59.6500   35.4900   45.4970 O   0  0  0  0  0  0  0  0  0  0  0  0
   58.3170   33.7380   44.7900 O   0  0  0  0  0  0  0  0  0  0  0  0
   57.1450   32.9840   45.0970 C   0  0  0  0  0  0  0  0  0  0  0  0
   57.3900   31.5160   44.8760 C   0  0  0  0  0  0  0  0  0  0  0  0
   58.3610   30.8290   45.6250 C   0  0  0  0  0  0  0  0  0  0  0  0
   58.5750   29.4630   45.4160 C   0  0  0  0  0  0  0  0  0  0  0  0
   57.8220   28.7750   44.4600 C   0  0  0  0  0  0  0  0  0  0  0  0
   56.8530   29.4500   43.7130 C   0  0  0  0  0  0  0  0  0  0  0  0
   56.6340   30.8160   43.9200 C   0  0  0  0  0  0  0  0  0  0  0  0
   61.5062   30.7622   49.7742 H   0  0  0  0  0  0  0  0  0  0  0  0
   61.4834   29.8449   48.2300 H   0  0  0  0  0  0  0  0  0  0  0  0
   61.1595   31.6118   48.2300 H   0  0  0  0  0  0  0  0  0  0  0  0
   59.1371   28.5690   50.8676 H   0  0  0  0  0  0  0  0  0  0  0  0
   57.3558   27.8907   52.8425 H   0  0  0  0  0  0  0  0  0  0  0  0
   58.9366   28.3419   53.6129 H   0  0  0  0  0  0  0  0  0  0  0  0
   57.3425   30.2540   54.5765 H   0  0  0  0  0  0  0  0  0  0  0  0
   58.7886   28.2363   55.7203 H   0  0  0  0  0  0  0  0  0  0  0  0
   57.5982   29.1281   56.7191 H   0  0  0  0  0  0  0  0  0  0  0  0
   55.7324   26.5924   54.5708 H   0  0  0  0  0  0  0  0  0  0  0  0
   54.9396   27.3061   56.0165 H   0  0  0  0  0  0  0  0  0  0  0  0
   55.0958   29.4748   55.1447 H   0  0  0  0  0  0  0  0  0  0  0  0
   52.7766   29.0893   54.2939 H   0  0  0  0  0  0  0  0  0  0  0  0
   51.0636   30.6629   53.4126 H   0  0  0  0  0  0  0  0  0  0  0  0
   53.7714   31.8220   50.2346 H   0  0  0  0  0  0  0  0  0  0  0  0
   55.4753   30.2268   51.1062 H   0  0  0  0  0  0  0  0  0  0  0  0
   57.1543   31.3048   53.5733 H   0  0  0  0  0  0  0  0  0  0  0  0
   57.4207   33.1400   51.9163 H   0  0  0  0  0  0  0  0  0  0  0  0
   59.6951   35.5158   48.1679 H   0  0  0  0  0  0  0  0  0  0  0  0
   61.0322   34.3181   47.9685 H   0  0  0  0  0  0  0  0  0  0  0  0
   58.7770   32.8720   47.2340 H   0  0  0  0  0  0  0  0  0  0  0  0
   56.8724   33.1511   46.1495 H   0  0  0  0  0  0  0  0  0  0  0  0
   56.3282   33.3117   44.4372 H   0  0  0  0  0  0  0  0  0  0  0  0
   58.9546   31.3678   46.3782 H   0  0  0  0  0  0  0  0  0  0  0  0
   59.3363   28.9295   46.0041 H   0  0  0  0  0  0  0  0  0  0  0  0
   57.9925   27.7008   44.2956 H   0  0  0  0  0  0  0  0  0  0  0  0
   56.2617   28.9066   42.9613 H   0  0  0  0  0  0  0  0  0  0  0  0
   55.8680   31.3438   43.3329 H   0  0  0  0  0  0  0  0  0  0  0  0
  1  2  1  0
  2  3  1  0
  3  4  2  0
  4  5  1  0
  5  6  1  0
  6  7  1  0
  7  8  1  0
  8  9  1  0
  9 10  1  0
 10 11  1  0
 11 12  1  0
 12 13  1  0
 13 14  2  0
 14 15  1  0
 15 16  2  0
 16 17  1  0
 17 18  2  0
 17 19  1  0
 16 20  1  0
 20 21  2  0
  5 22  2  0
 22 23  1  0
 23 24  2  0
 24 25  1  0
 25 26  1  0
 26 27  2  0
 26 28  1  0
 28 29  1  0
 29 30  1  0
 30 31  2  0
 30 32  1  0
 32 33  1  0
 33 34  1  0
 34 35  2  0
 35 36  1  0
 36 37  2  0
 37 38  1  0
 38 39  2  0
 24  3  1  0
 39 34  1  0
 11  7  1  0
 21 13  1  0
  1 40  1  0
  1 41  1  0
  1 42  1  0
  4 43  1  0
  6 44  1  0
  6 45  1  0
  7 46  1  1
  8 47  1  0
  8 48  1  0
 10 49  1  0
 10 50  1  0
 11 51  1  1
 14 52  1  0
 15 53  1  0
 20 54  1  0
 21 55  1  0
 22 56  1  0
 23 57  1  0
 28 58  1  0
 28 59  1  0
 29 60  1  0
 33 61  1  0
 33 62  1  0
 35 63  1  0
 36 64  1  0
 37 65  1  0
 38 66  1  0
 39 67  1  0
M  CHG  1  19  -1
M  END
>  <UniqueID>  (10) 
8

>  <SMILES>  (10) 
COc1cc(C[C@@H]2COC[C@@H]2Oc2ccc(C(=O)[O-])cc2)ccc1OC(=O)CNC(=O)OCc1ccccc1

>  <Energy>  (10) 
73.35091592149357

>  <Genealogy>  (10) 
COc1cc(CC2COCC2Oc2ccc(C(=O)[O-])cc2)ccc1OC(=O)CNC(=O)OCc1ccccc1 (protonated)
COc1cc(C[C@@H]2COC[C@@H]2Oc2ccc(C(=O)[O-])cc2)ccc1OC(=O)CNC(=O)OCc1ccccc1 (chirality)
COc1cc(C[C@@H]2COC[C@@H]2Oc2ccc(C(=O)[O-])cc2)ccc1OC(=O)CNC(=O)OCc1ccccc1 (3D coordinates assigned)
COc1cc(C[C@@H]2COC[C@@H]2Oc2ccc(C(=O)[O-])cc2)ccc1OC(=O)CNC(=O)OCc1ccccc1 (nonaromatic ring conformer: 73.35091592149357 kcal/mol)

>  <smiles>  (10) 
COc1cc(CC2COCC2Oc2ccc(C(=O)O)cc2)ccc1OC(=O)CNC(=O)OCc1ccccc1

>  <score_type>  (10) 
oracle

>  <origin>  (10) 
adg

>  <m_score__min__energy>  (10) 
-12.19

>  <m_primary>  (10) 
energy

$$$$
10:0
     RDKit          3D

 33 34  0  0  0  0  0  0  0  0999 V2000
   55.1280   26.2380   45.9510 N   0  0  0  0  0  0  0  0  0  0  0  0
   56.8500   26.3510   45.8620 S   0  0  0  0  0  0  0  0  0  0  0  0
   57.4550   25.7460   47.0980 O   0  0  0  0  0  0  0  0  0  0  0  0
   57.3420   25.5910   44.6630 O   0  0  0  0  0  0  0  0  0  0  0  0
   57.3230   28.0410   45.7330 C   0  0  0  0  0  0  0  0  0  0  0  0
   58.2830   28.5730   46.6040 C   0  0  0  0  0  0  0  0  0  0  0  0
   58.6700   29.9120   46.4950 C   0  0  0  0  0  0  0  0  0  0  0  0
   58.0930   30.7400   45.5150 C   0  0  0  0  0  0  0  0  0  0  0  0
   58.4910   32.1150   45.3640 N   0  0  0  0  0  0  0  0  0  0  0  0
   57.5790   33.2210   45.3460 C   0  0  0  0  0  0  0  0  0  0  0  0
   56.3360   33.0300   45.2610 O   0  0  0  0  0  0  0  0  0  0  0  0
   58.0960   34.5540   45.3840 N   0  0  0  0  0  0  0  0  0  0  0  0
   59.5220   34.8470   45.3920 C   0  0  0  0  0  0  0  0  0  0  0  0
   60.1570   34.1960   46.5810 C   0  0  0  0  0  0  0  0  0  0  0  0
   59.7860   34.5660   47.8820 C   0  0  0  0  0  0  0  0  0  0  0  0
   60.3720   33.9180   48.9720 C   0  0  0  0  0  0  0  0  0  0  0  0
   61.3090   32.9070   48.7570 C   0  0  0  0  0  0  0  0  0  0  0  0
   61.6460   32.5550   47.4480 C   0  0  0  0  0  0  0  0  0  0  0  0
   61.0660   33.1980   46.3990 N   0  0  0  0  0  0  0  0  0  0  0  0
   57.1560   30.1940   44.6250 C   0  0  0  0  0  0  0  0  0  0  0  0
   56.7690   28.8550   44.7360 C   0  0  0  0  0  0  0  0  0  0  0  0
   54.7920   27.0900   46.4510 H   0  0  0  0  0  0  0  0  0  0  0  0
   58.7344   27.9340   47.3773 H   0  0  0  0  0  0  0  0  0  0  0  0
   59.4291   30.3199   47.1786 H   0  0  0  0  0  0  0  0  0  0  0  0
   59.4970   32.3190   45.1700 H   0  0  0  0  0  0  0  0  0  0  0  0
   59.9817   34.4579   44.4715 H   0  0  0  0  0  0  0  0  0  0  0  0
   59.6731   35.9353   45.4448 H   0  0  0  0  0  0  0  0  0  0  0  0
   59.0407   35.3589   48.0425 H   0  0  0  0  0  0  0  0  0  0  0  0
   60.0953   34.2042   49.9974 H   0  0  0  0  0  0  0  0  0  0  0  0
   61.7773   32.3926   49.6091 H   0  0  0  0  0  0  0  0  0  0  0  0
   62.3810   31.7572   47.2653 H   0  0  0  0  0  0  0  0  0  0  0  0
   56.7226   30.8239   43.8341 H   0  0  0  0  0  0  0  0  0  0  0  0
   56.0272   28.4392   44.0383 H   0  0  0  0  0  0  0  0  0  0  0  0
  1  2  1  0
  2  3  2  0
  2  4  2  0
  2  5  1  0
  5  6  2  0
  6  7  1  0
  7  8  2  0
  8  9  1  0
  9 10  1  0
 10 11  2  0
 10 12  1  0
 12 13  1  0
 13 14  1  0
 14 15  2  0
 15 16  1  0
 16 17  2  0
 17 18  1  0
 18 19  2  0
  8 20  1  0
 20 21  2  0
 21  5  1  0
 19 14  1  0
  1 22  1  0
  6 23  1  0
  7 24  1  0
  9 25  1  0
 13 26  1  0
 13 27  1  0
 15 28  1  0
 16 29  1  0
 17 30  1  0
 18 31  1  0
 20 32  1  0
 21 33  1  0
M  CHG  2   1  -1  12  -1
M  END
>  <UniqueID>  (11) 
9

>  <SMILES>  (11) 
[NH-]S(=O)(=O)c1ccc(NC(=O)[N-]Cc2ccccn2)cc1

>  <Energy>  (11) 
33.966365835428405

>  <Genealogy>  (11) 
[NH-]S(=O)(=O)c1ccc(NC(=O)[N-]Cc2ccccn2)cc1 (protonated)
[NH-]S(=O)(=O)c1ccc(NC(=O)[N-]Cc2ccccn2)cc1 (3D coordinates assigned)
[NH-]S(=O)(=O)c1ccc(NC(=O)[N-]Cc2ccccn2)cc1 (optimized conformer: 33.966365835428405 kcal/mol)

>  <smiles>  (11) 
NS(=O)(=O)c1ccc(NC(=O)NCc2ccccn2)cc1

>  <score_type>  (11) 
oracle

>  <origin>  (11) 
adg

>  <m_score__min__energy>  (11) 
-11.140000000000001

>  <m_primary>  (11) 
energy

$$$$
11:0
     RDKit          3D

 34 36  0  0  0  0  0  0  0  0999 V2000
   58.3600   27.9340   48.1790 N   0  0  0  0  0  0  0  0  0  0  0  0
   58.0240   28.4960   47.2260 C   0  0  0  0  0  0  0  0  0  0  0  0
   57.6050   29.2000   46.0350 C   0  0  0  0  0  0  0  0  0  0  0  0
   56.5700   28.6720   45.2500 C   0  0  0  0  0  0  0  0  0  0  0  0
   55.9620   27.4700   45.6040 O   0  0  0  0  0  0  0  0  0  0  0  0
   56.1480   29.3300   44.1370 N   0  0  0  0  0  0  0  0  0  0  0  0
   56.7060   30.5080   43.7460 C   0  0  0  0  0  0  0  0  0  0  0  0
   56.2810   31.0790   42.7030 O   0  0  0  0  0  0  0  0  0  0  0  0
   57.7450   31.0810   44.4960 C   0  0  0  0  0  0  0  0  0  0  0  0
   58.3490   32.3220   44.0560 C   0  0  0  0  0  0  0  0  0  0  0  0
   58.8330   33.3120   43.7050 N   0  0  0  0  0  0  0  0  0  0  0  0
   58.2020   30.4220   45.6580 C   0  0  0  0  0  0  0  0  0  0  0  0
   59.3000   31.0030   46.4710 C   0  0  0  0  0  0  0  0  0  0  0  0
   60.5760   30.4250   46.4370 C   0  0  0  0  0  0  0  0  0  0  0  0
   61.6170   30.9660   47.1970 C   0  0  0  0  0  0  0  0  0  0  0  0
   61.3960   32.0940   48.0080 C   0  0  0  0  0  0  0  0  0  0  0  0
   62.5010   32.6690   48.8170 C   0  0  0  0  0  0  0  0  0  0  0  0
   63.8260   32.2230   48.6400 C   0  0  0  0  0  0  0  0  0  0  0  0
   64.8640   32.7660   49.4020 C   0  0  0  0  0  0  0  0  0  0  0  0
   64.5940   33.7560   50.3490 C   0  0  0  0  0  0  0  0  0  0  0  0
   63.2850   34.2060   50.5360 C   0  0  0  0  0  0  0  0  0  0  0  0
   62.2430   33.6670   49.7740 C   0  0  0  0  0  0  0  0  0  0  0  0
   60.1130   32.6680   48.0410 C   0  0  0  0  0  0  0  0  0  0  0  0
   59.0720   32.1280   47.2790 C   0  0  0  0  0  0  0  0  0  0  0  0
   57.8410   32.6970   47.3360 F   0  0  0  0  0  0  0  0  0  0  0  0
   55.3750   28.9160   43.5690 H   0  0  0  0  0  0  0  0  0  0  0  0
   60.7595   29.5408   45.8089 H   0  0  0  0  0  0  0  0  0  0  0  0
   62.6158   30.5066   47.1607 H   0  0  0  0  0  0  0  0  0  0  0  0
   64.0447   31.4420   47.8969 H   0  0  0  0  0  0  0  0  0  0  0  0
   65.8955   32.4129   49.2555 H   0  0  0  0  0  0  0  0  0  0  0  0
   65.4125   34.1817   50.9480 H   0  0  0  0  0  0  0  0  0  0  0  0
   63.0733   34.9850   51.2832 H   0  0  0  0  0  0  0  0  0  0  0  0
   61.2143   34.0263   49.9243 H   0  0  0  0  0  0  0  0  0  0  0  0
   59.9263   33.5496   48.6718 H   0  0  0  0  0  0  0  0  0  0  0  0
  1  2  3  0
  2  3  1  0
  3  4  2  0
  4  5  1  0
  4  6  1  0
  6  7  1  0
  7  8  2  0
  7  9  1  0
  9 10  1  0
 10 11  3  0
  9 12  2  0
 12 13  1  0
 13 14  2  0
 14 15  1  0
 15 16  2  0
 16 17  1  0
 17 18  2  0
 18 19  1  0
 19 20  2  0
 20 21  1  0
 21 22  2  0
 16 23  1  0
 23 24  2  0
 24 25  1  0
 12  3  1  0
 24 13  1  0
 22 17  1  0
  6 26  1  0
 14 27  1  0
 15 28  1  0
 18 29  1  0
 19 30  1  0
 20 31  1  0
 21 32  1  0
 22 33  1  0
 23 34  1  0
M  CHG  1   5  -1
M  END
>  <UniqueID>  (12) 
10

>  <SMILES>  (12) 
N#Cc1c([O-])[nH]c(=O)c(C#N)c1-c1ccc(-c2ccccc2)cc1F

>  <Energy>  (12) 
52.87668201661338

>  <Genealogy>  (12) 
N#Cc1c([O-])[nH]c(=O)c(C#N)c1-c1ccc(-c2ccccc2)cc1F (protonated)
N#Cc1c([O-])[nH]c(=O)c(C#N)c1-c1ccc(-c2ccccc2)cc1F (3D coordinates assigned)
N#Cc1c([O-])[nH]c(=O)c(C#N)c1-c1ccc(-c2ccccc2)cc1F (optimized conformer: 52.87668201661338 kcal/mol)

>  <smiles>  (12) 
N#Cc1c(O)[nH]c(=O)c(C#N)c1-c1ccc(-c2ccccc2)cc1F

>  <score_type>  (12) 
oracle

>  <origin>  (12) 
adg

>  <m_score__min__energy>  (12) 
-9.0600000000000005

>  <m_primary>  (12) 
energy

$$$$
12:0
     RDKit          3D

 59 62  0  0  0  0  0  0  0  0999 V2000
   55.1610   28.6900   45.6250 H   0  0  0  0  0  0  0  0  0  0  0  0
   55.1360   29.3410   44.8080 N   0  0  0  0  0  0  0  0  0  0  0  0
   56.7760   29.6880   44.3910 S   0  0  0  0  0  0  0  0  0  0  0  0
   56.9250   29.6710   42.8950 O   0  0  0  0  0  0  0  0  0  0  0  0
   57.1470   31.0530   44.8980 O   0  0  0  0  0  0  0  0  0  0  0  0
   57.8340   28.4840   45.1200 C   0  0  0  0  0  0  0  0  0  0  0  0
   57.9270   27.2050   44.5560 C   0  0  0  0  0  0  0  0  0  0  0  0
   57.3241   26.9497   43.6721 H   0  0  0  0  0  0  0  0  0  0  0  0
   58.7840   26.2530   45.1140 C   0  0  0  0  0  0  0  0  0  0  0  0
   58.8597   25.2520   44.6643 H   0  0  0  0  0  0  0  0  0  0  0  0
   59.5450   26.5700   46.2420 C   0  0  0  0  0  0  0  0  0  0  0  0
   60.2313   25.8225   46.6666 H   0  0  0  0  0  0  0  0  0  0  0  0
   59.4390   27.8320   46.8340 C   0  0  0  0  0  0  0  0  0  0  0  0
   61.8250   31.9940   49.8710 N   0  0  0  0  0  0  0  0  0  0  0  0
   60.8800   31.0950   49.8110 C   0  0  0  0  0  0  0  0  0  0  0  0
   58.9650   29.1760   49.6000 N   0  0  0  0  0  0  0  0  0  0  0  0
   58.8080   30.1860   50.4950 C   0  0  0  0  0  0  0  0  0  0  0  0
   57.7590   30.2320   51.2650 N   0  0  0  0  0  0  0  0  0  0  0  0
   57.0010   31.4440   51.5810 C   0  0  0  0  0  0  0  0  0  0  0  0
   56.7939   31.9906   50.6491 H   0  0  0  0  0  0  0  0  0  0  0  0
   56.0635   31.1489   52.0749 H   0  0  0  0  0  0  0  0  0  0  0  0
   57.7710   32.3420   52.5170 C   0  0  0  0  0  0  0  0  0  0  0  0
   58.1320   31.8890   53.7980 C   0  0  0  0  0  0  0  0  0  0  0  0
   57.8346   30.8819   54.1257 H   0  0  0  0  0  0  0  0  0  0  0  0
   58.8660   32.7100   54.6570 C   0  0  0  0  0  0  0  0  0  0  0  0
   59.1569   32.3436   55.6526 H   0  0  0  0  0  0  0  0  0  0  0  0
   59.2310   33.9970   54.2520 C   0  0  0  0  0  0  0  0  0  0  0  0
   59.8124   34.6421   54.9271 H   0  0  0  0  0  0  0  0  0  0  0  0
   58.8570   34.4640   52.9890 C   0  0  0  0  0  0  0  0  0  0  0  0
   59.1383   35.4797   52.6740 H   0  0  0  0  0  0  0  0  0  0  0  0
   58.1260   33.6430   52.1250 C   0  0  0  0  0  0  0  0  0  0  0  0
   57.8279   34.0175   51.1346 H   0  0  0  0  0  0  0  0  0  0  0  0
   59.7640   31.1490   50.5990 N   0  0  0  0  0  0  0  0  0  0  0  0
   59.6080   31.9180   51.2830 H   0  0  0  0  0  0  0  0  0  0  0  0
   60.0680   29.1170   48.8100 C   0  0  0  0  0  0  0  0  0  0  0  0
   60.2510   28.1320   47.9810 N   0  0  0  0  0  0  0  0  0  0  0  0
   62.1160   33.1290   48.9760 C   0  0  0  0  0  0  0  0  0  0  0  0
   60.9530   33.3790   48.0040 C   0  0  0  0  0  0  0  0  0  0  0  0
   60.0060   34.3860   48.2920 C   0  0  0  0  0  0  0  0  0  0  0  0
   60.1230   34.9990   49.1978 H   0  0  0  0  0  0  0  0  0  0  0  0
   58.9220   34.6130   47.4400 C   0  0  0  0  0  0  0  0  0  0  0  0
   58.2013   35.4116   47.6696 H   0  0  0  0  0  0  0  0  0  0  0  0
   58.7520   33.8290   46.2990 C   0  0  0  0  0  0  0  0  0  0  0  0
   57.9042   34.0164   45.6236 H   0  0  0  0  0  0  0  0  0  0  0  0
   59.6580   32.8070   46.0150 C   0  0  0  0  0  0  0  0  0  0  0  0
   59.5164   32.1825   45.1206 H   0  0  0  0  0  0  0  0  0  0  0  0
   60.7450   32.5730   46.8620 C   0  0  0  0  0  0  0  0  0  0  0  0
   61.4446   31.7543   46.6377 H   0  0  0  0  0  0  0  0  0  0  0  0
   63.3470   32.7440   48.1390 C   0  0  0  0  0  0  0  0  0  0  0  0
   64.1794   32.4837   48.8094 H   0  0  0  0  0  0  0  0  0  0  0  0
   63.1031   31.8792   47.5044 H   0  0  0  0  0  0  0  0  0  0  0  0
   63.6392   33.5936   47.5044 H   0  0  0  0  0  0  0  0  0  0  0  0
   62.4930   34.3580   49.8390 C   0  0  0  0  0  0  0  0  0  0  0  0
   62.4128   34.0964   50.9044 H   0  0  0  0  0  0  0  0  0  0  0  0
   63.5257   34.6620   49.6128 H   0  0  0  0  0  0  0  0  0  0  0  0
   61.8084   35.1888   49.6128 H   0  0  0  0  0  0  0  0  0  0  0  0
   61.0210   30.0750   48.9260 N   0  0  0  0  0  0  0  0  0  0  0  0
   58.5990   28.7990   46.2520 C   0  0  0  0  0  0  0  0  0  0  0  0
   58.5421   29.8076   46.6874 H   0  0  0  0  0  0  0  0  0  0  0  0
  1  2  1  0
  2  3  1  0
  3  4  2  0
  3  5  2  0
  3  6  1  0
  6  7  2  0
  7  8  1  0
  7  9  1  0
  9 10  1  0
  9 11  2  0
 11 12  1  0
 11 13  1  0
 13 14  1  0
 14 15  2  0
 15 16  1  0
 16 17  1  0
 17 18  2  3
 18 19  1  0
 19 20  1  0
 19 21  1  0
 19 22  1  0
 22 23  2  0
 23 24  1  0
 23 25  1  0
 25 26  1  0
 25 27  2  0
 27 28  1  0
 27 29  1  0
 29 30  1  0
 29 31  2  0
 31 32  1  0
 17 33  1  0
 33 34  1  0
 33 35  1  0
 35 36  2  0
 36 37  1  0
 37 38  1  0
 38 39  2  0
 39 40  1  0
 39 41  1  0
 41 42  1  0
 41 43  2  0
 43 44  1  0
 43 45  1  0
 45 46  1  0
 45 47  2  0
 47 48  1  0
 37 49  1  0
 49 50  1  0
 49 51  1  0
 49 52  1  0
 37 53  1  0
 53 54  1  0
 53 55  1  0
 53 56  1  0
 35 57  1  0
 13 58  2  0
 58 59  1  0
 58  6  1  0
 57 15  1  0
 31 22  1  0
 47 38  1  0
M  CHG  3   2  -1  16  -1  57  -1
M  END
>  <UniqueID>  (13) 
11

>  <SMILES>  (13) 
CC(C)(/N=c1/[n-]/c(=N/c2cccc(S([NH-])(=O)=O)c2)[n-]c(=NCc2ccccc2)[nH]1)c1ccccc1

>  <Energy>  (13) 
70.50783959221224

>  <Genealogy>  (13) 
CC(C)(N=c1[n-]c(=Nc2cccc(S([NH-])(=O)=O)c2)[n-]c(=NCc2ccccc2)[nH]1)c1ccccc1 (protonated)
CC(C)(/N=c1/[n-]/c(=N/c2cccc(S([NH-])(=O)=O)c2)[n-]c(=NCc2ccccc2)[nH]1)c1ccccc1 (cis-trans isomerization)
CC(C)(/N=c1/[n-]/c(=N/c2cccc(S([NH-])(=O)=O)c2)[n-]c(=NCc2ccccc2)[nH]1)c1ccccc1 (3D coordinates assigned)
CC(C)(/N=c1/[n-]/c(=N/c2cccc(S([NH-])(=O)=O)c2)[n-]c(=NCc2ccccc2)[nH]1)c1ccccc1 (optimized conformer: 70.50783959221224 kcal/mol)

>  <smiles>  (13) 
CC(C)(N=c1[nH]c(=NCc2ccccc2)[nH]c(=Nc2cccc(S(N)(=O)=O)c2)[nH]1)c1ccccc1

>  <score_type>  (13) 
oracle

>  <origin>  (13) 
adg

>  <m_score__min__energy>  (13) 
-15.51

>  <m_primary>  (13) 
energy

$$$$
13:0
     RDKit          3D

 43 45  0  0  0  0  0  0  0  0999 V2000
   58.9470   29.9330   44.2290 O   0  0  0  0  0  0  0  0  0  0  0  0
   57.8300   29.6750   44.7560 C   0  0  0  0  0  0  0  0  0  0  0  0
   56.8400   30.7090   44.8670 N   0  0  0  0  0  0  0  0  0  0  0  0
   57.1330   32.1060   44.5550 C   0  0  0  0  0  0  0  0  0  0  0  0
   57.8210   32.7610   45.7200 C   0  0  0  0  0  0  0  0  0  0  0  0
   58.2180   31.9900   46.8220 C   0  0  0  0  0  0  0  0  0  0  0  0
   58.8840   32.5850   47.8970 C   0  0  0  0  0  0  0  0  0  0  0  0
   59.1630   33.9610   47.8840 C   0  0  0  0  0  0  0  0  0  0  0  0
   59.9230   34.5940   49.0200 C   0  0  0  0  0  0  0  0  0  0  0  0
   60.1270   33.6250   50.1910 C   0  0  0  0  0  0  0  0  0  0  0  0
   61.4450   32.9880   50.1260 N   0  0  0  0  0  0  0  0  0  0  0  0
   62.1890   32.9080   49.0620 C   0  0  0  0  0  0  0  0  0  0  0  0
   62.2010   31.7550   48.3430 N   0  0  0  0  0  0  0  0  0  0  0  0
   62.9630   31.6330   47.2250 C   0  0  0  0  0  0  0  0  0  0  0  0
   63.7520   32.7020   46.8020 C   0  0  0  0  0  0  0  0  0  0  0  0
   63.7330   33.8780   47.5500 C   0  0  0  0  0  0  0  0  0  0  0  0
   62.9570   33.9600   48.6610 N   0  0  0  0  0  0  0  0  0  0  0  0
   58.7770   34.7300   46.7740 C   0  0  0  0  0  0  0  0  0  0  0  0
   58.1110   34.1350   45.7000 C   0  0  0  0  0  0  0  0  0  0  0  0
   57.5530   28.3130   45.2630 C   0  0  0  0  0  0  0  0  0  0  0  0
   58.6000   27.4380   45.6000 C   0  0  0  0  0  0  0  0  0  0  0  0
   58.3020   26.1690   46.0980 C   0  0  0  0  0  0  0  0  0  0  0  0
   56.9710   25.7790   46.2570 C   0  0  0  0  0  0  0  0  0  0  0  0
   55.9530   26.6710   45.9120 C   0  0  0  0  0  0  0  0  0  0  0  0
   54.7470   26.3390   46.0500 O   0  0  0  0  0  0  0  0  0  0  0  0
   56.2650   27.9040   45.4300 N   0  0  0  0  0  0  0  0  0  0  0  0
   55.8810   30.4750   45.2070 H   0  0  0  0  0  0  0  0  0  0  0  0
   57.7880   32.1523   43.6725 H   0  0  0  0  0  0  0  0  0  0  0  0
   56.1906   32.6347   44.3491 H   0  0  0  0  0  0  0  0  0  0  0  0
   58.0041   30.9112   46.8404 H   0  0  0  0  0  0  0  0  0  0  0  0
   59.1911   31.9723   48.7574 H   0  0  0  0  0  0  0  0  0  0  0  0
   60.9079   34.9165   48.6512 H   0  0  0  0  0  0  0  0  0  0  0  0
   59.3339   35.4476   49.3865 H   0  0  0  0  0  0  0  0  0  0  0  0
   60.0432   34.1813   51.1363 H   0  0  0  0  0  0  0  0  0  0  0  0
   59.3573   32.8413   50.1337 H   0  0  0  0  0  0  0  0  0  0  0  0
   62.9576   30.6926   46.6544 H   0  0  0  0  0  0  0  0  0  0  0  0
   64.3749   32.6192   45.8991 H   0  0  0  0  0  0  0  0  0  0  0  0
   64.3455   34.7378   47.2408 H   0  0  0  0  0  0  0  0  0  0  0  0
   59.0004   35.8068   46.7503 H   0  0  0  0  0  0  0  0  0  0  0  0
   57.8124   34.7452   44.8349 H   0  0  0  0  0  0  0  0  0  0  0  0
   59.6467   27.7512   45.4721 H   0  0  0  0  0  0  0  0  0  0  0  0
   59.1145   25.4771   46.3648 H   0  0  0  0  0  0  0  0  0  0  0  0
   56.7268   24.7808   46.6494 H   0  0  0  0  0  0  0  0  0  0  0  0
  1  2  2  0
  2  3  1  0
  3  4  1  0
  4  5  1  0
  5  6  2  0
  6  7  1  0
  7  8  2  0
  8  9  1  0
  9 10  1  0
 10 11  1  0
 11 12  2  3
 12 13  1  0
 13 14  2  0
 14 15  1  0
 15 16  2  0
 16 17  1  0
  8 18  1  0
 18 19  2  0
  2 20  1  0
 20 21  2  0
 21 22  1  0
 22 23  2  0
 23 24  1  0
 24 25  2  0
 24 26  1  0
 19  5  1  0
 26 20  1  0
 17 12  1  0
  3 27  1  0
  4 28  1  0
  4 29  1  0
  6 30  1  0
  7 31  1  0
  9 32  1  0
  9 33  1  0
 10 34  1  0
 10 35  1  0
 14 36  1  0
 15 37  1  0
 16 38  1  0
 18 39  1  0
 19 40  1  0
 21 41  1  0
 22 42  1  0
 23 43  1  0
M  CHG  2  17  -1  26  -1
M  END
>  <UniqueID>  (14) 
12

>  <SMILES>  (14) 
O=C(NCc1ccc(CCN=c2nccc[n-]2)cc1)c1cccc(=O)[n-]1

>  <Energy>  (14) 
38.82646896998324

>  <Genealogy>  (14) 
O=C(NCc1ccc(CCN=c2nccc[n-]2)cc1)c1cccc(=O)[n-]1 (protonated)
O=C(NCc1ccc(CCN=c2nccc[n-]2)cc1)c1cccc(=O)[n-]1 (3D coordinates assigned)
O=C(NCc1ccc(CCN=c2nccc[n-]2)cc1)c1cccc(=O)[n-]1 (optimized conformer: 38.82646896998324 kcal/mol)

>  <smiles>  (14) 
O=C(NCc1ccc(CCN=c2nccc[nH]2)cc1)c1cccc(=O)[nH]1

>  <score_type>  (14) 
oracle

>  <origin>  (14) 
adg

>  <m_score__min__energy>  (14) 
-11.539999999999999

>  <m_primary>  (14) 
energy

$$$$
14:0
     RDKit          3D

 39 42  0  0  0  0  0  0  0  0999 V2000
   59.3250   27.2560   48.0510 N   0  0  0  0  0  0  0  0  0  0  0  0
   58.9810   28.3330   47.4140 C   0  0  0  0  0  0  0  0  0  0  0  0
   59.5860   29.4990   47.7610 N   0  0  0  0  0  0  0  0  0  0  0  0
   59.3450   30.6770   47.1300 C   0  0  0  0  0  0  0  0  0  0  0  0
   60.0580   31.8990   47.5820 C   0  0  0  0  0  0  0  0  0  0  0  0
   61.4490   32.0450   47.4290 C   0  0  0  0  0  0  0  0  0  0  0  0
   62.0870   33.2040   47.8740 C   0  0  0  0  0  0  0  0  0  0  0  0
   61.3350   34.2120   48.4760 C   0  0  0  0  0  0  0  0  0  0  0  0
   59.9940   34.0590   48.6300 N   0  0  0  0  0  0  0  0  0  0  0  0
   59.3470   32.9410   48.2060 C   0  0  0  0  0  0  0  0  0  0  0  0
   58.4160   30.7100   46.0810 C   0  0  0  0  0  0  0  0  0  0  0  0
   57.7450   29.5410   45.6920 C   0  0  0  0  0  0  0  0  0  0  0  0
   56.7170   29.6490   44.6250 C   0  0  0  0  0  0  0  0  0  0  0  0
   55.3750   29.2230   44.8560 N   0  0  0  0  0  0  0  0  0  0  0  0
   57.0150   30.1660   43.5150 O   0  0  0  0  0  0  0  0  0  0  0  0
   58.0360   28.3210   46.3570 C   0  0  0  0  0  0  0  0  0  0  0  0
   57.4030   27.0560   45.9200 C   0  0  0  0  0  0  0  0  0  0  0  0
   58.0520   26.1400   45.1520 N   0  0  0  0  0  0  0  0  0  0  0  0
   57.1190   25.1920   44.9830 C   0  0  0  0  0  0  0  0  0  0  0  0
   57.2340   24.0040   44.2680 C   0  0  0  0  0  0  0  0  0  0  0  0
   56.1100   23.1440   44.2180 C   0  0  0  0  0  0  0  0  0  0  0  0
   56.1810   21.8670   43.4710 C   0  0  0  0  0  0  0  0  0  0  0  0
   56.1470   20.6200   44.1620 N   0  0  0  0  0  0  0  0  0  0  0  0
   56.2690   21.8700   42.2130 O   0  0  0  0  0  0  0  0  0  0  0  0
   54.9150   23.5200   44.8930 C   0  0  0  0  0  0  0  0  0  0  0  0
   54.8430   24.7320   45.6050 C   0  0  0  0  0  0  0  0  0  0  0  0
   55.9730   25.5410   45.6250 C   0  0  0  0  0  0  0  0  0  0  0  0
   56.1210   26.7280   46.2300 N   0  0  0  0  0  0  0  0  0  0  0  0
   59.0750   26.2860   47.7580 H   0  0  0  0  0  0  0  0  0  0  0  0
   62.0357   31.2431   46.9571 H   0  0  0  0  0  0  0  0  0  0  0  0
   63.1738   33.3211   47.7508 H   0  0  0  0  0  0  0  0  0  0  0  0
   61.8275   35.1311   48.8262 H   0  0  0  0  0  0  0  0  0  0  0  0
   58.2605   32.8502   48.3516 H   0  0  0  0  0  0  0  0  0  0  0  0
   58.2120   31.6572   45.5602 H   0  0  0  0  0  0  0  0  0  0  0  0
   55.1420   28.5900   45.6540 H   0  0  0  0  0  0  0  0  0  0  0  0
   58.1713   23.7403   43.7562 H   0  0  0  0  0  0  0  0  0  0  0  0
   56.5910   19.7680   43.7530 H   0  0  0  0  0  0  0  0  0  0  0  0
   54.0384   22.8565   44.8580 H   0  0  0  0  0  0  0  0  0  0  0  0
   53.9224   25.0293   46.1286 H   0  0  0  0  0  0  0  0  0  0  0  0
  1  2  2  3
  2  3  1  0
  3  4  1  0
  4  5  1  0
  5  6  2  0
  6  7  1  0
  7  8  2  0
  8  9  1  0
  9 10  2  0
  4 11  2  0
 11 12  1  0
 12 13  1  0
 13 14  1  0
 13 15  2  0
 12 16  2  0
 16 17  1  0
 17 18  2  0
 18 19  1  0
 19 20  2  0
 20 21  1  0
 21 22  1  0
 22 23  1  0
 22 24  2  0
 21 25  2  0
 25 26  1  0
 26 27  2  0
 27 28  1  0
 16  2  1  0
 28 17  1  0
 10  5  1  0
 27 19  1  0
  1 29  1  0
  6 30  1  0
  7 31  1  0
  8 32  1  0
 10 33  1  0
 11 34  1  0
 14 35  1  0
 20 36  1  0
 23 37  1  0
 25 38  1  0
 26 39  1  0
M  CHG  4   3  -1  14  -1  23  -1  28  -1
M  END
>  <UniqueID>  (15) 
13

>  <SMILES>  (15) 
N=c1[n-]c(-c2cccnc2)cc(C([NH-])=O)c1-c1nc2cc(C([NH-])=O)ccc2[n-]1

>  <Energy>  (15) 
97.52517964662651

>  <Genealogy>  (15) 
N=c1[n-]c(-c2cccnc2)cc(C([NH-])=O)c1-c1nc2cc(C([NH-])=O)ccc2[n-]1 (protonated)
N=c1[n-]c(-c2cccnc2)cc(C([NH-])=O)c1-c1nc2cc(C([NH-])=O)ccc2[n-]1 (3D coordinates assigned)
N=c1[n-]c(-c2cccnc2)cc(C([NH-])=O)c1-c1nc2cc(C([NH-])=O)ccc2[n-]1 (optimized conformer: 97.52517964662651 kcal/mol)

>  <smiles>  (15) 
N=c1[nH]c(-c2cccnc2)cc(C(N)=O)c1-c1nc2cc(C(N)=O)ccc2[nH]1

>  <score_type>  (15) 
oracle

>  <origin>  (15) 
adg

>  <m_score__min__energy>  (15) 
-14.76

>  <m_primary>  (15) 
energy

$$$$
15:0
     RDKit          3D

 56 59  0  0  0  0  0  0  0  0999 V2000
   54.0210   24.8450   45.5850 C   0  0  0  0  0  0  0  0  0  0  0  0
   54.6850   26.0540   45.9470 O   0  0  0  0  0  0  0  0  0  0  0  0
   56.0720   26.1840   46.1150 C   0  0  0  0  0  0  0  0  0  0  0  0
   56.8590   25.1380   46.6330 C   0  0  0  0  0  0  0  0  0  0  0  0
   58.2450   25.2890   46.7500 C   0  0  0  0  0  0  0  0  0  0  0  0
   58.8580   26.4780   46.3490 C   0  0  0  0  0  0  0  0  0  0  0  0
   58.0860   27.5230   45.8360 C   0  0  0  0  0  0  0  0  0  0  0  0
   56.6960   27.3900   45.7360 C   0  0  0  0  0  0  0  0  0  0  0  0
   55.9290   28.4960   45.2510 N   0  0  0  0  0  0  0  0  0  0  0  0
   56.5050   29.5200   43.9760 S   0  0  0  0  0  0  0  0  0  0  0  0
   55.3540   30.0580   43.1720 O   0  0  0  0  0  0  0  0  0  0  0  0
   57.3930   28.7190   43.0650 O   0  0  0  0  0  0  0  0  0  0  0  0
   57.4340   30.8420   44.6770 C   0  0  0  0  0  0  0  0  0  0  0  0
   58.4870   30.5720   45.5610 C   0  0  0  0  0  0  0  0  0  0  0  0
   59.1820   31.6210   46.1700 C   0  0  0  0  0  0  0  0  0  0  0  0
   58.8240   32.9570   45.9130 C   0  0  0  0  0  0  0  0  0  0  0  0
   59.5340   34.0680   46.5840 C   0  0  0  0  0  0  0  0  0  0  0  0
   58.8810   35.0170   47.0970 O   0  0  0  0  0  0  0  0  0  0  0  0
   60.9330   34.0670   46.6410 O   0  0  0  0  0  0  0  0  0  0  0  0
   61.6890   33.0800   47.3410 C   0  0  0  0  0  0  0  0  0  0  0  0
   60.9010   32.5450   48.4970 C   0  0  0  0  0  0  0  0  0  0  0  0
   60.9680   31.3170   48.7740 O   0  0  0  0  0  0  0  0  0  0  0  0
   60.0230   33.4160   49.2280 N   0  0  0  0  0  0  0  0  0  0  0  0
   59.2600   33.0120   50.3780 C   0  0  0  0  0  0  0  0  0  0  0  0
   59.3010   33.8010   51.5410 C   0  0  0  0  0  0  0  0  0  0  0  0
   58.5830   33.4240   52.6800 C   0  0  0  0  0  0  0  0  0  0  0  0
   57.8360   32.2450   52.6750 C   0  0  0  0  0  0  0  0  0  0  0  0
   57.7850   31.4520   51.5200 C   0  0  0  0  0  0  0  0  0  0  0  0
   58.5100   31.8200   50.3830 C   0  0  0  0  0  0  0  0  0  0  0  0
   57.0040   30.2900   51.5270 O   0  0  0  0  0  0  0  0  0  0  0  0
   56.0550   30.0430   52.5680 C   0  0  0  0  0  0  0  0  0  0  0  0
   56.6140   30.5060   53.9210 C   0  0  0  0  0  0  0  0  0  0  0  0
   57.1350   31.8340   53.8130 O   0  0  0  0  0  0  0  0  0  0  0  0
   57.7650   33.2210   45.0250 C   0  0  0  0  0  0  0  0  0  0  0  0
   57.0780   32.1710   44.4090 C   0  0  0  0  0  0  0  0  0  0  0  0
   53.7235   24.3034   46.4950 H   0  0  0  0  0  0  0  0  0  0  0  0
   53.1264   25.0819   44.9904 H   0  0  0  0  0  0  0  0  0  0  0  0
   54.7009   24.2172   44.9904 H   0  0  0  0  0  0  0  0  0  0  0  0
   56.3822   24.1978   46.9471 H   0  0  0  0  0  0  0  0  0  0  0  0
   58.8535   24.4690   47.1590 H   0  0  0  0  0  0  0  0  0  0  0  0
   59.9486   26.5916   46.4371 H   0  0  0  0  0  0  0  0  0  0  0  0
   58.5722   28.4541   45.5093 H   0  0  0  0  0  0  0  0  0  0  0  0
   58.7679   29.5306   45.7767 H   0  0  0  0  0  0  0  0  0  0  0  0
   60.0142   31.4003   46.8546 H   0  0  0  0  0  0  0  0  0  0  0  0
   61.9324   32.2553   46.6550 H   0  0  0  0  0  0  0  0  0  0  0  0
   62.6135   33.5398   47.7203 H   0  0  0  0  0  0  0  0  0  0  0  0
   59.8420   34.3650   48.8300 H   0  0  0  0  0  0  0  0  0  0  0  0
   59.9025   34.7219   51.5549 H   0  0  0  0  0  0  0  0  0  0  0  0
   58.6068   34.0564   53.5797 H   0  0  0  0  0  0  0  0  0  0  0  0
   58.4947   31.1773   49.4904 H   0  0  0  0  0  0  0  0  0  0  0  0
   55.1275   30.5933   52.3513 H   0  0  0  0  0  0  0  0  0  0  0  0
   55.8506   28.9632   52.6164 H   0  0  0  0  0  0  0  0  0  0  0  0
   55.8091   30.4915   54.6706 H   0  0  0  0  0  0  0  0  0  0  0  0
   57.4239   29.8268   54.2257 H   0  0  0  0  0  0  0  0  0  0  0  0
   57.4756   34.2611   44.8140 H   0  0  0  0  0  0  0  0  0  0  0  0
   56.2554   32.3883   43.7118 H   0  0  0  0  0  0  0  0  0  0  0  0
  1  2  1  0
  2  3  1  0
  3  4  2  0
  4  5  1  0
  5  6  2  0
  6  7  1  0
  7  8  2  0
  8  9  1  0
  9 10  1  0
 10 11  2  0
 10 12  2  0
 10 13  1  0
 13 14  2  0
 14 15  1  0
 15 16  2  0
 16 17  1  0
 17 18  2  0
 17 19  1  0
 19 20  1  0
 20 21  1  0
 21 22  2  0
 21 23  1  0
 23 24  1  0
 24 25  2  0
 25 26  1  0
 26 27  2  0
 27 28  1  0
 28 29  2  0
 28 30  1  0
 30 31  1  0
 31 32  1  0
 32 33  1  0
 16 34  1  0
 34 35  2  0
  8  3  1  0
 35 13  1  0
 29 24  1  0
 33 27  1  0
  1 36  1  0
  1 37  1  0
  1 38  1  0
  4 39  1  0
  5 40  1  0
  6 41  1  0
  7 42  1  0
 14 43  1  0
 15 44  1  0
 20 45  1  0
 20 46  1  0
 23 47  1  0
 25 48  1  0
 26 49  1  0
 29 50  1  0
 31 51  1  0
 31 52  1  0
 32 53  1  0
 32 54  1  0
 34 55  1  0
 35 56  1  0
M  CHG  1   9  -1
M  END
>  <UniqueID>  (16) 
14

>  <SMILES>  (16) 
COc1ccccc1[N-]S(=O)(=O)c1ccc(C(=O)OCC(=O)Nc2ccc3c(c2)OCCO3)cc1

>  <Energy>  (16) 
69.58050182527914

>  <Genealogy>  (16) 
COc1ccccc1[N-]S(=O)(=O)c1ccc(C(=O)OCC(=O)Nc2ccc3c(c2)OCCO3)cc1 (protonated)
COc1ccccc1[N-]S(=O)(=O)c1ccc(C(=O)OCC(=O)Nc2ccc3c(c2)OCCO3)cc1 (3D coordinates assigned)
COc1ccccc1[N-]S(=O)(=O)c1ccc(C(=O)OCC(=O)Nc2ccc3c(c2)OCCO3)cc1 (nonaromatic ring conformer: 69.58050182527914 kcal/mol)

>  <smiles>  (16) 
COc1ccccc1NS(=O)(=O)c1ccc(C(=O)OCC(=O)Nc2ccc3c(c2)OCCO3)cc1

>  <score_type>  (16) 
oracle

>  <origin>  (16) 
adg

>  <m_score__min__energy>  (16) 
-11.65

>  <m_primary>  (16) 
energy

$$$$
16:0
     RDKit          3D

 54 57  0  0  0  0  0  0  0  0999 V2000
   58.5210   32.3890   49.8680 C   0  0  0  0  0  0  0  0  0  0  0  0
   59.7480   33.1090   49.8200 O   0  0  0  0  0  0  0  0  0  0  0  0
   60.4680   33.3640   48.6450 C   0  0  0  0  0  0  0  0  0  0  0  0
   59.9190   34.0910   47.5610 C   0  0  0  0  0  0  0  0  0  0  0  0
   60.6810   34.3340   46.3990 C   0  0  0  0  0  0  0  0  0  0  0  0
   61.9970   33.8580   46.2980 C   0  0  0  0  0  0  0  0  0  0  0  0
   62.5200   33.1450   47.3730 C   0  0  0  0  0  0  0  0  0  0  0  0
   63.7620   32.6450   47.4800 N   0  0  0  0  0  0  0  0  0  0  0  0
   63.8360   32.0780   48.7020 C   0  0  0  0  0  0  0  0  0  0  0  0
   62.6250   32.2090   49.3750 C   0  0  0  0  0  0  0  0  0  0  0  0
   62.3820   31.7970   50.8010 C   0  0  0  0  0  0  0  0  0  0  0  0
   61.5080   30.5390   50.8880 C   0  0  0  0  0  0  0  0  0  0  0  0
   60.7980   30.3070   49.6310 N   0  0  0  0  0  0  0  0  0  0  0  0
   60.5190   28.9860   49.1370 C   0  0  0  0  0  0  0  0  0  0  0  0
   61.0860   27.9860   49.6570 O   0  0  0  0  0  0  0  0  0  0  0  0
   59.5190   28.7790   48.0700 C   0  0  0  0  0  0  0  0  0  0  0  0
   59.1870   29.8360   47.2070 C   0  0  0  0  0  0  0  0  0  0  0  0
   58.3020   29.6290   46.1470 C   0  0  0  0  0  0  0  0  0  0  0  0
   57.7270   28.3720   45.9480 C   0  0  0  0  0  0  0  0  0  0  0  0
   58.0220   27.3160   46.8220 C   0  0  0  0  0  0  0  0  0  0  0  0
   57.2820   25.7370   46.5680 S   0  0  0  0  0  0  0  0  0  0  0  0
   55.8520   25.9300   46.1490 O   0  0  0  0  0  0  0  0  0  0  0  0
   57.2830   24.9330   47.8390 O   0  0  0  0  0  0  0  0  0  0  0  0
   58.1190   24.8860   45.3090 N   0  0  0  0  0  0  0  0  0  0  0  0
   57.5930   23.8240   44.4970 C   0  0  0  0  0  0  0  0  0  0  0  0
   56.4610   23.9900   43.6780 C   0  0  0  0  0  0  0  0  0  0  0  0
   55.9920   22.9260   42.8990 C   0  0  0  0  0  0  0  0  0  0  0  0
   56.6440   21.6920   42.9320 C   0  0  0  0  0  0  0  0  0  0  0  0
   57.7690   21.5190   43.7420 C   0  0  0  0  0  0  0  0  0  0  0  0
   58.2440   22.5810   44.5200 C   0  0  0  0  0  0  0  0  0  0  0  0
   59.3370   22.3980   45.3020 F   0  0  0  0  0  0  0  0  0  0  0  0
   58.9160   27.5230   47.8810 C   0  0  0  0  0  0  0  0  0  0  0  0
   61.7860   32.9010   48.5110 C   0  0  0  0  0  0  0  0  0  0  0  0
   58.2351   32.2212   50.9169 H   0  0  0  0  0  0  0  0  0  0  0  0
   57.7353   32.9693   49.3621 H   0  0  0  0  0  0  0  0  0  0  0  0
   58.6444   31.4201   49.3621 H   0  0  0  0  0  0  0  0  0  0  0  0
   58.8884   34.4699   47.6256 H   0  0  0  0  0  0  0  0  0  0  0  0
   60.2401   34.9009   45.5658 H   0  0  0  0  0  0  0  0  0  0  0  0
   62.5980   34.0429   45.3955 H   0  0  0  0  0  0  0  0  0  0  0  0
   64.5280   32.7040   46.7720 H   0  0  0  0  0  0  0  0  0  0  0  0
   64.7290   31.5814   49.1095 H   0  0  0  0  0  0  0  0  0  0  0  0
   63.3496   31.5927   51.2827 H   0  0  0  0  0  0  0  0  0  0  0  0
   61.8536   32.6171   51.3092 H   0  0  0  0  0  0  0  0  0  0  0  0
   62.1475   29.6709   51.1056 H   0  0  0  0  0  0  0  0  0  0  0  0
   60.7669   30.6815   51.6883 H   0  0  0  0  0  0  0  0  0  0  0  0
   60.3000   31.1240   49.2130 H   0  0  0  0  0  0  0  0  0  0  0  0
   59.6262   30.8317   47.3669 H   0  0  0  0  0  0  0  0  0  0  0  0
   58.0571   30.4582   45.4669 H   0  0  0  0  0  0  0  0  0  0  0  0
   57.0410   28.2099   45.1035 H   0  0  0  0  0  0  0  0  0  0  0  0
   55.9426   24.9598   43.6499 H   0  0  0  0  0  0  0  0  0  0  0  0
   55.1076   23.0624   42.2593 H   0  0  0  0  0  0  0  0  0  0  0  0
   56.2722   20.8565   42.3207 H   0  0  0  0  0  0  0  0  0  0  0  0
   58.2823   20.5465   43.7684 H   0  0  0  0  0  0  0  0  0  0  0  0
   59.1477   26.6969   48.5694 H   0  0  0  0  0  0  0  0  0  0  0  0
  1  2  1  0
  2  3  1  0
  3  4  2  0
  4  5  1  0
  5  6  2  0
  6  7  1  0
  7  8  1  0
  8  9  1  0
  9 10  2  0
 10 11  1  0
 11 12  1  0
 12 13  1  0
 13 14  1  0
 14 15  2  0
 14 16  1  0
 16 17  2  0
 17 18  1  0
 18 19  2  0
 19 20  1  0
 20 21  1  0
 21 22  2  0
 21 23  2  0
 21 24  1  0
 24 25  1  0
 25 26  2  0
 26 27  1  0
 27 28  2  0
 28 29  1  0
 29 30  2  0
 30 31  1  0
 20 32  2  0
 10 33  1  0
 33  3  1  0
 33  7  2  0
 32 16  1  0
 30 25  1  0
  1 34  1  0
  1 35  1  0
  1 36  1  0
  4 37  1  0
  5 38  1  0
  6 39  1  0
  8 40  1  0
  9 41  1  0
 11 42  1  0
 11 43  1  0
 12 44  1  0
 12 45  1  0
 13 46  1  0
 17 47  1  0
 18 48  1  0
 19 49  1  0
 26 50  1  0
 27 51  1  0
 28 52  1  0
 29 53  1  0
 32 54  1  0
M  CHG  1  24  -1
M  END
>  <UniqueID>  (17) 
15

>  <SMILES>  (17) 
COc1cccc2[nH]cc(CCNC(=O)c3cccc(S(=O)(=O)[N-]c4ccccc4F)c3)c12

>  <Energy>  (17) 
86.93227338157426

>  <Genealogy>  (17) 
COc1cccc2[nH]cc(CCNC(=O)c3cccc(S(=O)(=O)[N-]c4ccccc4F)c3)c12 (protonated)
COc1cccc2[nH]cc(CCNC(=O)c3cccc(S(=O)(=O)[N-]c4ccccc4F)c3)c12 (3D coordinates assigned)
COc1cccc2[nH]cc(CCNC(=O)c3cccc(S(=O)(=O)[N-]c4ccccc4F)c3)c12 (optimized conformer: 86.93227338157426 kcal/mol)

>  <smiles>  (17) 
COc1cccc2[nH]cc(CCNC(=O)c3cccc(S(=O)(=O)Nc4ccccc4F)c3)c12

>  <score_type>  (17) 
oracle

>  <origin>  (17) 
adg

>  <m_score__min__energy>  (17) 
-10.9

>  <m_primary>  (17) 
energy

$$$$
17:0
     RDKit          3D

 45 47  0  0  0  0  0  0  0  0999 V2000
   58.5980   31.3340   49.3540 O   0  0  0  0  0  0  0  0  0  0  0  0
   59.2150   30.9420   48.3290 C   0  0  0  0  0  0  0  0  0  0  0  0
   58.8830   29.6570   47.7820 N   0  0  0  0  0  0  0  0  0  0  0  0
   59.8300   28.6370   47.3480 C   0  0  0  0  0  0  0  0  0  0  0  0
   59.3880   27.2590   47.8460 C   0  0  0  0  0  0  0  0  0  0  0  0
   58.4370   26.6230   46.8680 C   0  0  0  0  0  0  0  0  0  0  0  0
   58.8910   25.6350   45.9780 C   0  0  0  0  0  0  0  0  0  0  0  0
   57.9980   25.0210   45.0940 C   0  0  0  0  0  0  0  0  0  0  0  0
   56.6480   25.3810   45.0980 C   0  0  0  0  0  0  0  0  0  0  0  0
   56.1850   26.3530   45.9910 C   0  0  0  0  0  0  0  0  0  0  0  0
   54.8420   26.7050   45.9990 O   0  0  0  0  0  0  0  0  0  0  0  0
   57.0760   26.9700   46.8760 C   0  0  0  0  0  0  0  0  0  0  0  0
   60.2500   31.8150   47.7300 C   0  0  0  0  0  0  0  0  0  0  0  0
   61.5530   31.6220   48.0760 N   0  0  0  0  0  0  0  0  0  0  0  0
   62.5480   32.4120   47.6030 C   0  0  0  0  0  0  0  0  0  0  0  0
   62.2350   33.4640   46.7460 C   0  0  0  0  0  0  0  0  0  0  0  0
   63.1390   34.2200   46.3040 O   0  0  0  0  0  0  0  0  0  0  0  0
   60.9420   33.6710   46.3910 N   0  0  0  0  0  0  0  0  0  0  0  0
   59.9330   32.8720   46.8410 C   0  0  0  0  0  0  0  0  0  0  0  0
   58.5100   33.1510   46.4060 C   0  0  0  0  0  0  0  0  0  0  0  0
   58.2960   32.9570   44.8980 C   0  0  0  0  0  0  0  0  0  0  0  0
   57.9400   31.5260   44.5950 C   0  0  0  0  0  0  0  0  0  0  0  0
   58.9090   30.5150   44.7120 C   0  0  0  0  0  0  0  0  0  0  0  0
   58.5870   29.1900   44.3970 C   0  0  0  0  0  0  0  0  0  0  0  0
   57.3000   28.8700   43.9540 C   0  0  0  0  0  0  0  0  0  0  0  0
   56.3350   29.8720   43.8220 C   0  0  0  0  0  0  0  0  0  0  0  0
   56.6540   31.1960   44.1360 C   0  0  0  0  0  0  0  0  0  0  0  0
   59.8765   28.6284   46.2490 H   0  0  0  0  0  0  0  0  0  0  0  0
   60.8218   28.8678   47.7641 H   0  0  0  0  0  0  0  0  0  0  0  0
   60.2725   26.6153   47.9611 H   0  0  0  0  0  0  0  0  0  0  0  0
   58.8762   27.3782   48.8124 H   0  0  0  0  0  0  0  0  0  0  0  0
   59.9517   25.3437   45.9766 H   0  0  0  0  0  0  0  0  0  0  0  0
   58.3592   24.2531   44.3941 H   0  0  0  0  0  0  0  0  0  0  0  0
   55.9488   24.8997   44.3984 H   0  0  0  0  0  0  0  0  0  0  0  0
   56.7089   27.7302   47.5812 H   0  0  0  0  0  0  0  0  0  0  0  0
   63.5922   32.2239   47.8933 H   0  0  0  0  0  0  0  0  0  0  0  0
   57.8378   32.4683   46.9464 H   0  0  0  0  0  0  0  0  0  0  0  0
   58.2956   34.2050   46.6364 H   0  0  0  0  0  0  0  0  0  0  0  0
   57.4791   33.6122   44.5612 H   0  0  0  0  0  0  0  0  0  0  0  0
   59.2278   33.2106   44.3713 H   0  0  0  0  0  0  0  0  0  0  0  0
   59.9244   30.7660   45.0525 H   0  0  0  0  0  0  0  0  0  0  0  0
   59.3462   28.4005   44.4979 H   0  0  0  0  0  0  0  0  0  0  0  0
   57.0468   27.8280   43.7090 H   0  0  0  0  0  0  0  0  0  0  0  0
   55.3238   29.6186   43.4708 H   0  0  0  0  0  0  0  0  0  0  0  0
   55.8943   31.9835   44.0232 H   0  0  0  0  0  0  0  0  0  0  0  0
  1  2  2  0
  2  3  1  0
  3  4  1  0
  4  5  1  0
  5  6  1  0
  6  7  2  0
  7  8  1  0
  8  9  2  0
  9 10  1  0
 10 11  1  0
 10 12  2  0
  2 13  1  0
 13 14  1  0
 14 15  2  0
 15 16  1  0
 16 17  2  0
 16 18  1  0
 18 19  1  0
 19 20  1  0
 20 21  1  0
 21 22  1  0
 22 23  2  0
 23 24  1  0
 24 25  2  0
 25 26  1  0
 26 27  2  0
 12  6  1  0
 19 13  2  0
 27 22  1  0
  4 28  1  0
  4 29  1  0
  5 30  1  0
  5 31  1  0
  7 32  1  0
  8 33  1  0
  9 34  1  0
 12 35  1  0
 15 36  1  0
 20 37  1  0
 20 38  1  0
 21 39  1  0
 21 40  1  0
 23 41  1  0
 24 42  1  0
 25 43  1  0
 26 44  1  0
 27 45  1  0
M  CHG  3   3  -1  11  -1  18  -1
M  END
>  <UniqueID>  (18) 
16

>  <SMILES>  (18) 
O=C([N-]CCc1cccc([O-])c1)c1ncc(=O)[n-]c1CCc1ccccc1

>  <Energy>  (18) 
50.11366267365772

>  <Genealogy>  (18) 
O=C([N-]CCc1cccc([O-])c1)c1ncc(=O)[n-]c1CCc1ccccc1 (protonated)
O=C([N-]CCc1cccc([O-])c1)c1ncc(=O)[n-]c1CCc1ccccc1 (3D coordinates assigned)
O=C([N-]CCc1cccc([O-])c1)c1ncc(=O)[n-]c1CCc1ccccc1 (optimized conformer: 50.11366267365772 kcal/mol)

>  <smiles>  (18) 
O=C(NCCc1cccc(O)c1)c1ncc(=O)[nH]c1CCc1ccccc1

>  <score_type>  (18) 
oracle

>  <origin>  (18) 
adg

>  <m_score__min__energy>  (18) 
-14.48

>  <m_primary>  (18) 
energy

$$$$
18:0
     RDKit          3D

 54 56  0  0  0  0  0  0  0  0999 V2000
   56.9050   32.5480   45.0980 C   0  0  0  0  0  0  0  0  0  0  0  0
   57.9180   31.4360   45.0770 C   0  0  0  0  0  0  0  0  0  0  0  0
   57.8090   30.3180   44.2390 C   0  0  0  0  0  0  0  0  0  0  0  0
   56.7500   30.0430   43.2100 C   0  0  0  0  0  0  0  0  0  0  0  0
   55.3930   29.7820   43.8630 C   0  0  0  0  0  0  0  0  0  0  0  0
   55.5620   29.0580   45.0510 O   0  0  0  0  0  0  0  0  0  0  0  0
   59.1390   29.3260   44.5100 S   0  0  0  0  0  0  0  0  0  0  0  0
   59.7910   30.3140   45.6970 C   0  0  0  0  0  0  0  0  0  0  0  0
   59.0060   31.3980   45.9150 N   0  0  0  0  0  0  0  0  0  0  0  0
   59.3510   32.4190   46.9160 C   0  0  0  0  0  0  0  0  0  0  0  0
   60.7980   32.3100   47.3610 C   0  0  0  0  0  0  0  0  0  0  0  0
   61.7670   33.0920   46.7060 C   0  0  0  0  0  0  0  0  0  0  0  0
   63.1010   33.0640   47.1140 C   0  0  0  0  0  0  0  0  0  0  0  0
   63.4910   32.2530   48.1790 C   0  0  0  0  0  0  0  0  0  0  0  0
   62.5500   31.4550   48.8290 C   0  0  0  0  0  0  0  0  0  0  0  0
   61.2070   31.4560   48.4200 C   0  0  0  0  0  0  0  0  0  0  0  0
   60.2660   30.5660   49.1270 C   0  0  0  0  0  0  0  0  0  0  0  0
   59.8470   30.9190   50.2630 O   0  0  0  0  0  0  0  0  0  0  0  0
   59.8350   29.2640   48.5550 C   0  0  0  0  0  0  0  0  0  0  0  0
   58.5110   29.0910   48.1140 C   0  0  0  0  0  0  0  0  0  0  0  0
   58.0970   27.8730   47.5680 C   0  0  0  0  0  0  0  0  0  0  0  0
   59.0000   26.8070   47.4480 C   0  0  0  0  0  0  0  0  0  0  0  0
   58.5440   25.4880   46.8940 C   0  0  0  0  0  0  0  0  0  0  0  0
   57.1040   25.3580   47.0940 N   0  0  0  0  0  0  0  0  0  0  0  0
   56.2550   25.8250   45.6520 S   0  0  0  0  0  0  0  0  0  0  0  0
   56.1390   24.4550   44.5210 C   0  0  0  0  0  0  0  0  0  0  0  0
   54.8740   26.3080   46.0000 O   0  0  0  0  0  0  0  0  0  0  0  0
   57.0090   26.9410   44.9850 O   0  0  0  0  0  0  0  0  0  0  0  0
   60.3140   26.9640   47.9120 C   0  0  0  0  0  0  0  0  0  0  0  0
   60.7300   28.1810   48.4590 C   0  0  0  0  0  0  0  0  0  0  0  0
   56.6678   32.8083   46.1401 H   0  0  0  0  0  0  0  0  0  0  0  0
   57.3172   33.4292   44.5846 H   0  0  0  0  0  0  0  0  0  0  0  0
   55.9893   32.2195   44.5846 H   0  0  0  0  0  0  0  0  0  0  0  0
   56.6647   30.9133   42.5427 H   0  0  0  0  0  0  0  0  0  0  0  0
   57.0409   29.1452   42.6449 H   0  0  0  0  0  0  0  0  0  0  0  0
   54.9068   30.7426   44.0883 H   0  0  0  0  0  0  0  0  0  0  0  0
   54.7668   29.1989   43.1717 H   0  0  0  0  0  0  0  0  0  0  0  0
   55.1560   28.1680   44.8890 H   0  0  0  0  0  0  0  0  0  0  0  0
   60.7319   30.1098   46.2291 H   0  0  0  0  0  0  0  0  0  0  0  0
   59.1876   33.4150   46.4788 H   0  0  0  0  0  0  0  0  0  0  0  0
   58.7110   32.2624   47.7968 H   0  0  0  0  0  0  0  0  0  0  0  0
   61.4696   33.7327   45.8628 H   0  0  0  0  0  0  0  0  0  0  0  0
   63.8468   33.6833   46.5942 H   0  0  0  0  0  0  0  0  0  0  0  0
   64.5411   32.2426   48.5065 H   0  0  0  0  0  0  0  0  0  0  0  0
   62.8630   30.8188   49.6700 H   0  0  0  0  0  0  0  0  0  0  0  0
   57.7949   29.9216   48.1995 H   0  0  0  0  0  0  0  0  0  0  0  0
   57.0573   27.7499   47.2306 H   0  0  0  0  0  0  0  0  0  0  0  0
   58.7722   25.4413   45.8190 H   0  0  0  0  0  0  0  0  0  0  0  0
   59.0653   24.6688   47.4109 H   0  0  0  0  0  0  0  0  0  0  0  0
   56.0595   23.5163   45.0890 H   0  0  0  0  0  0  0  0  0  0  0  0
   55.2480   24.5769   43.8876 H   0  0  0  0  0  0  0  0  0  0  0  0
   57.0378   24.4253   43.8876 H   0  0  0  0  0  0  0  0  0  0  0  0
   61.0215   26.1244   47.8450 H   0  0  0  0  0  0  0  0  0  0  0  0
   61.7640   28.2937   48.8171 H   0  0  0  0  0  0  0  0  0  0  0  0
  1  2  1  0
  2  3  2  0
  3  4  1  0
  4  5  1  0
  5  6  1  0
  3  7  1  0
  7  8  1  0
  8  9  2  0
  9 10  1  0
 10 11  1  0
 11 12  2  0
 12 13  1  0
 13 14  2  0
 14 15  1  0
 15 16  2  0
 16 17  1  0
 17 18  2  0
 17 19  1  0
 19 20  2  0
 20 21  1  0
 21 22  2  0
 22 23  1  0
 23 24  1  0
 24 25  1  0
 25 26  1  0
 25 27  2  0
 25 28  2  0
 22 29  1  0
 29 30  2  0
  9  2  1  0
 16 11  1  0
 30 19  1  0
  1 31  1  0
  1 32  1  0
  1 33  1  0
  4 34  1  0
  4 35  1  0
  5 36  1  0
  5 37  1  0
  6 38  1  0
  8 39  1  0
 10 40  1  0
 10 41  1  0
 12 42  1  0
 13 43  1  0
 14 44  1  0
 15 45  1  0
 20 46  1  0
 21 47  1  0
 23 48  1  0
 23 49  1  0
 26 50  1  0
 26 51  1  0
 26 52  1  0
 29 53  1  0
 30 54  1  0
M  CHG  2   9   1  24  -1
M  END
>  <UniqueID>  (19) 
17

>  <SMILES>  (19) 
Cc1c(CCO)sc[n+]1Cc1ccccc1C(=O)c1ccc(C[N-]S(C)(=O)=O)cc1

>  <Energy>  (19) 
82.05760443719419

>  <Genealogy>  (19) 
Cc1c(CCO)sc[n+]1Cc1ccccc1C(=O)c1ccc(C[N-]S(C)(=O)=O)cc1 (protonated)
Cc1c(CCO)sc[n+]1Cc1ccccc1C(=O)c1ccc(C[N-]S(C)(=O)=O)cc1 (3D coordinates assigned)
Cc1c(CCO)sc[n+]1Cc1ccccc1C(=O)c1ccc(C[N-]S(C)(=O)=O)cc1 (optimized conformer: 82.05760443719419 kcal/mol)

>  <smiles>  (19) 
Cc1c(CCO)sc[n+]1Cc1ccccc1C(=O)c1ccc(CNS(C)(=O)=O)cc1

>  <score_type>  (19) 
oracle

>  <origin>  (19) 
adg

>  <m_score__min__energy>  (19) 
-10.470000000000001

>  <m_primary>  (19) 
energy

$$$$
19:0
     RDKit          3D

 54 56  0  0  0  0  0  0  0  0999 V2000
   56.6510   33.7540   45.1780 O   0  0  0  0  0  0  0  0  0  0  0  0
   57.7420   33.1690   45.4170 C   0  0  0  0  0  0  0  0  0  0  0  0
   57.7600   31.6840   45.6110 C   0  0  0  0  0  0  0  0  0  0  0  0
   56.7720   31.0540   44.7440 N   0  0  0  0  0  0  0  0  0  0  0  0
   56.4310   29.6600   44.7170 C   0  0  0  0  0  0  0  0  0  0  0  0
   55.2230   29.3380   44.8670 O   0  0  0  0  0  0  0  0  0  0  0  0
   57.4510   28.5940   44.4030 C   0  0  0  0  0  0  0  0  0  0  0  0
   57.4450   27.4970   45.4360 C   0  0  0  0  0  0  0  0  0  0  0  0
   56.2850   26.7360   45.6540 C   0  0  0  0  0  0  0  0  0  0  0  0
   56.2870   25.7010   46.5940 C   0  0  0  0  0  0  0  0  0  0  0  0
   57.4560   25.3980   47.3130 C   0  0  0  0  0  0  0  0  0  0  0  0
   57.4920   24.3560   48.2990 N   0  0  0  0  0  0  0  0  0  0  0  0
   56.8530   23.0800   48.1960 C   0  0  0  0  0  0  0  0  0  0  0  0
   55.7970   22.8430   48.8410 O   0  0  0  0  0  0  0  0  0  0  0  0
   57.3710   22.1180   47.2710 N   0  0  0  0  0  0  0  0  0  0  0  0
   57.2020   22.1320   45.8460 C   0  0  0  0  0  0  0  0  0  0  0  0
   58.1580   21.4880   45.0490 C   0  0  0  0  0  0  0  0  0  0  0  0
   58.0220   21.4630   43.6580 C   0  0  0  0  0  0  0  0  0  0  0  0
   56.9170   22.0700   43.0540 C   0  0  0  0  0  0  0  0  0  0  0  0
   55.9450   22.6940   43.8400 C   0  0  0  0  0  0  0  0  0  0  0  0
   54.8630   23.2630   43.2530 F   0  0  0  0  0  0  0  0  0  0  0  0
   56.0800   22.7210   45.2320 C   0  0  0  0  0  0  0  0  0  0  0  0
   58.6070   26.1680   47.1050 C   0  0  0  0  0  0  0  0  0  0  0  0
   58.6070   27.2020   46.1650 C   0  0  0  0  0  0  0  0  0  0  0  0
   58.9570   33.9180   45.5140 N   0  0  0  0  0  0  0  0  0  0  0  0
   59.2320   34.8830   46.5740 C   0  0  0  0  0  0  0  0  0  0  0  0
   59.6380   34.1790   47.8730 C   0  0  0  0  0  0  0  0  0  0  0  0
   61.1200   33.9080   47.9150 C   0  0  0  0  0  0  0  0  0  0  0  0
   61.8140   33.5640   46.7440 C   0  0  0  0  0  0  0  0  0  0  0  0
   63.1930   33.3300   46.7860 C   0  0  0  0  0  0  0  0  0  0  0  0
   63.8850   33.4380   47.9950 C   0  0  0  0  0  0  0  0  0  0  0  0
   63.2030   33.7890   49.1640 C   0  0  0  0  0  0  0  0  0  0  0  0
   63.8920   33.8970   50.3650 O   0  0  0  0  0  0  0  0  0  0  0  0
   61.8260   34.0310   49.1230 C   0  0  0  0  0  0  0  0  0  0  0  0
   58.7598   31.2969   45.3648 H   0  0  0  0  0  0  0  0  0  0  0  0
   57.5178   31.4547   46.6592 H   0  0  0  0  0  0  0  0  0  0  0  0
   57.2209   28.1589   43.4193 H   0  0  0  0  0  0  0  0  0  0  0  0
   58.4470   29.0609   44.4037 H   0  0  0  0  0  0  0  0  0  0  0  0
   55.3709   26.9552   45.0827 H   0  0  0  0  0  0  0  0  0  0  0  0
   55.3693   25.1211   46.7717 H   0  0  0  0  0  0  0  0  0  0  0  0
   59.0222   20.9984   45.5217 H   0  0  0  0  0  0  0  0  0  0  0  0
   58.7838   20.9662   43.0392 H   0  0  0  0  0  0  0  0  0  0  0  0
   56.8127   22.0563   41.9590 H   0  0  0  0  0  0  0  0  0  0  0  0
   55.3075   23.2037   45.8487 H   0  0  0  0  0  0  0  0  0  0  0  0
   59.5173   25.9575   47.6855 H   0  0  0  0  0  0  0  0  0  0  0  0
   59.5226   27.7876   45.9957 H   0  0  0  0  0  0  0  0  0  0  0  0
   60.0504   35.5444   46.2535 H   0  0  0  0  0  0  0  0  0  0  0  0
   58.3164   35.4624   46.7635 H   0  0  0  0  0  0  0  0  0  0  0  0
   59.3674   34.8189   48.7259 H   0  0  0  0  0  0  0  0  0  0  0  0
   59.1096   33.2155   47.9229 H   0  0  0  0  0  0  0  0  0  0  0  0
   61.2721   33.4782   45.7906 H   0  0  0  0  0  0  0  0  0  0  0  0
   63.7328   33.0607   45.8662 H   0  0  0  0  0  0  0  0  0  0  0  0
   64.9677   33.2466   48.0272 H   0  0  0  0  0  0  0  0  0  0  0  0
   61.2934   34.3191   50.0413 H   0  0  0  0  0  0  0  0  0  0  0  0
  1  2  2  0
  2  3  1  0
  3  4  1  0
  4  5  1  0
  5  6  2  0
  5  7  1  0
  7  8  1  0
  8  9  2  0
  9 10  1  0
 10 11  2  0
 11 12  1  0
 12 13  1  0
 13 14  2  0
 13 15  1  0
 15 16  1  0
 16 17  2  0
 17 18  1  0
 18 19  2  0
 19 20  1  0
 20 21  1  0
 20 22  2  0
 11 23  1  0
 23 24  2  0
  2 25  1  0
 25 26  1  0
 26 27  1  0
 27 28  1  0
 28 29  2  0
 29 30  1  0
 30 31  2  0
 31 32  1  0
 32 33  1  0
 32 34  2  0
 24  8  1  0
 34 28  1  0
 22 16  1  0
  3 35  1  0
  3 36  1  0
  7 37  1  0
  7 38  1  0
  9 39  1  0
 10 40  1  0
 17 41  1  0
 18 42  1  0
 19 43  1  0
 22 44  1  0
 23 45  1  0
 24 46  1  0
 26 47  1  0
 26 48  1  0
 27 49  1  0
 27 50  1  0
 29 51  1  0
 30 52  1  0
 31 53  1  0
 34 54  1  0
M  CHG  5   4  -1  12  -1  15  -1  25  -1  33  -1
M  END
>  <UniqueID>  (20) 
18

>  <SMILES>  (20) 
O=C(C[N-]C(=O)Cc1ccc([N-]C(=O)[N-]c2cccc(F)c2)cc1)[N-]CCc1cccc([O-])c1

>  <Energy>  (20) 
50.79852617388574

>  <Genealogy>  (20) 
O=C(C[N-]C(=O)Cc1ccc([N-]C(=O)[N-]c2cccc(F)c2)cc1)[N-]CCc1cccc([O-])c1 (protonated)
O=C(C[N-]C(=O)Cc1ccc([N-]C(=O)[N-]c2cccc(F)c2)cc1)[N-]CCc1cccc([O-])c1 (3D coordinates assigned)
O=C(C[N-]C(=O)Cc1ccc([N-]C(=O)[N-]c2cccc(F)c2)cc1)[N-]CCc1cccc([O-])c1 (optimized conformer: 50.79852617388574 kcal/mol)

>  <smiles>  (20) 
O=C(CNC(=O)Cc1ccc(NC(=O)Nc2cccc(F)c2)cc1)NCCc1cccc(O)c1

>  <score_type>  (20) 
oracle

>  <origin>  (20) 
adg

>  <m_score__min__energy>  (20) 
-17.859999999999999

>  <m_primary>  (20) 
energy

$$$$
20:0
     RDKit          3D

 27 28  0  0  0  0  0  0  0  0999 V2000
   56.5430   22.9550   43.6560 C   0  0  0  0  0  0  0  0  0  0  0  0
   56.3440   23.2660   45.1340 C   0  0  0  0  0  0  0  0  0  0  0  0
   56.3190   24.7440   45.3630 C   0  0  0  0  0  0  0  0  0  0  0  0
   55.3070   25.3840   45.9940 N   0  0  0  0  0  0  0  0  0  0  0  0
   55.5220   26.6900   46.1360 N   0  0  0  0  0  0  0  0  0  0  0  0
   56.7100   27.0860   45.6280 C   0  0  0  0  0  0  0  0  0  0  0  0
   57.1380   28.3090   45.6480 N   0  0  0  0  0  0  0  0  0  0  0  0
   56.6270   29.5100   44.5070 S   0  0  0  0  0  0  0  0  0  0  0  0
   56.8650   28.9980   43.1130 O   0  0  0  0  0  0  0  0  0  0  0  0
   55.1580   29.7680   44.6830 O   0  0  0  0  0  0  0  0  0  0  0  0
   57.5100   31.0100   44.7840 C   0  0  0  0  0  0  0  0  0  0  0  0
   58.0980   31.2690   46.0320 C   0  0  0  0  0  0  0  0  0  0  0  0
   58.7870   32.4650   46.2510 C   0  0  0  0  0  0  0  0  0  0  0  0
   58.8940   33.4100   45.2260 C   0  0  0  0  0  0  0  0  0  0  0  0
   59.5620   34.5700   45.4410 F   0  0  0  0  0  0  0  0  0  0  0  0
   58.3100   33.1590   43.9810 C   0  0  0  0  0  0  0  0  0  0  0  0
   57.6200   31.9620   43.7570 C   0  0  0  0  0  0  0  0  0  0  0  0
   57.0590   31.7350   42.5430 F   0  0  0  0  0  0  0  0  0  0  0  0
   57.5710   25.8030   44.9660 S   0  0  0  0  0  0  0  0  0  0  0  0
   57.1332   22.0326   43.5516 H   0  0  0  0  0  0  0  0  0  0  0  0
   55.5632   22.8198   43.1746 H   0  0  0  0  0  0  0  0  0  0  0  0
   57.0763   23.7880   43.1746 H   0  0  0  0  0  0  0  0  0  0  0  0
   55.3904   22.8322   45.4694 H   0  0  0  0  0  0  0  0  0  0  0  0
   57.1802   22.8334   45.7028 H   0  0  0  0  0  0  0  0  0  0  0  0
   58.0162   30.5278   46.8407 H   0  0  0  0  0  0  0  0  0  0  0  0
   59.2457   32.6632   47.2310 H   0  0  0  0  0  0  0  0  0  0  0  0
   58.3929   33.9037   43.1757 H   0  0  0  0  0  0  0  0  0  0  0  0
  1  2  1  0
  2  3  1  0
  3  4  2  0
  4  5  1  0
  5  6  1  0
  6  7  2  3
  7  8  1  0
  8  9  2  0
  8 10  2  0
  8 11  1  0
 11 12  2  0
 12 13  1  0
 13 14  2  0
 14 15  1  0
 14 16  1  0
 16 17  2  0
 17 18  1  0
  6 19  1  0
 19  3  1  0
 17 11  1  0
  1 20  1  0
  1 21  1  0
  1 22  1  0
  2 23  1  0
  2 24  1  0
 12 25  1  0
 13 26  1  0
 16 27  1  0
M  CHG  1   5  -1
M  END
>  <UniqueID>  (21) 
19

>  <SMILES>  (21) 
CCc1n[n-]c(=NS(=O)(=O)c2ccc(F)cc2F)s1

>  <Energy>  (21) 
60.71183160380839

>  <Genealogy>  (21) 
CCc1n[n-]c(=NS(=O)(=O)c2ccc(F)cc2F)s1 (protonated)
CCc1n[n-]c(=NS(=O)(=O)c2ccc(F)cc2F)s1 (3D coordinates assigned)
CCc1n[n-]c(=NS(=O)(=O)c2ccc(F)cc2F)s1 (optimized conformer: 60.71183160380839 kcal/mol)

>  <smiles>  (21) 
CCc1n[nH]c(=NS(=O)(=O)c2ccc(F)cc2F)s1

>  <score_type>  (21) 
oracle

>  <origin>  (21) 
adg

>  <m_score__min__energy>  (21) 
-9.0600000000000005

>  <m_primary>  (21) 
energy

$$$$
21:0
     RDKit          3D

 47 50  0  0  0  0  0  0  0  0999 V2000
   56.5050   23.4270   43.0590 C   0  0  0  0  0  0  0  0  0  0  0  0
   57.0770   22.1780   43.6970 C   0  0  0  0  0  0  0  0  0  0  0  0
   57.8800   22.5440   44.9410 C   0  0  0  0  0  0  0  0  0  0  0  0
   57.0140   22.3030   46.0790 N   0  0  0  0  0  0  0  0  0  0  0  0
   57.3830   23.1930   47.1450 C   0  0  0  0  0  0  0  0  0  0  0  0
   57.2850   24.6240   46.7520 C   0  0  0  0  0  0  0  0  0  0  0  0
   58.3650   25.4810   46.7640 C   0  0  0  0  0  0  0  0  0  0  0  0
   58.2040   26.7990   46.3880 C   0  0  0  0  0  0  0  0  0  0  0  0
   56.9500   27.2280   46.0070 C   0  0  0  0  0  0  0  0  0  0  0  0
   55.8680   26.3790   45.9930 C   0  0  0  0  0  0  0  0  0  0  0  0
   56.0120   25.0570   46.3660 C   0  0  0  0  0  0  0  0  0  0  0  0
   54.9250   24.1650   46.3630 O   0  0  0  0  0  0  0  0  0  0  0  0
   53.8980   24.4000   45.4200 C   0  0  0  0  0  0  0  0  0  0  0  0
   56.9960   28.6520   45.6480 C   0  0  0  0  0  0  0  0  0  0  0  0
   56.0010   29.3470   45.2540 O   0  0  0  0  0  0  0  0  0  0  0  0
   58.3750   29.0630   45.8390 C   0  0  0  0  0  0  0  0  0  0  0  0
   59.2270   30.1560   45.7400 C   0  0  0  0  0  0  0  0  0  0  0  0
   58.8610   31.5010   45.3120 C   0  0  0  0  0  0  0  0  0  0  0  0
   58.1520   31.7640   44.1590 C   0  0  0  0  0  0  0  0  0  0  0  0
   57.8380   33.0810   43.8150 C   0  0  0  0  0  0  0  0  0  0  0  0
   58.2250   34.1500   44.6120 C   0  0  0  0  0  0  0  0  0  0  0  0
   58.9340   33.8660   45.7590 C   0  0  0  0  0  0  0  0  0  0  0  0
   59.3120   34.9160   46.5370 F   0  0  0  0  0  0  0  0  0  0  0  0
   59.2530   32.5670   46.1150 C   0  0  0  0  0  0  0  0  0  0  0  0
   60.4360   29.6810   46.1230 N   0  0  0  0  0  0  0  0  0  0  0  0
   60.3440   28.3840   46.4390 N   0  0  0  0  0  0  0  0  0  0  0  0
   59.0790   27.9590   46.2760 C   0  0  0  0  0  0  0  0  0  0  0  0
   56.1846   24.1265   43.8452 H   0  0  0  0  0  0  0  0  0  0  0  0
   57.2741   23.9047   42.4343 H   0  0  0  0  0  0  0  0  0  0  0  0
   55.6409   23.1568   42.4343 H   0  0  0  0  0  0  0  0  0  0  0  0
   56.2543   21.5050   43.9803 H   0  0  0  0  0  0  0  0  0  0  0  0
   57.7397   21.6772   42.9759 H   0  0  0  0  0  0  0  0  0  0  0  0
   58.7806   21.9161   45.0097 H   0  0  0  0  0  0  0  0  0  0  0  0
   58.2076   23.5935   44.9071 H   0  0  0  0  0  0  0  0  0  0  0  0
   56.0080   22.4160   45.8390 H   0  0  0  0  0  0  0  0  0  0  0  0
   56.7143   23.0155   48.0002 H   0  0  0  0  0  0  0  0  0  0  0  0
   58.4326   22.9884   47.4030 H   0  0  0  0  0  0  0  0  0  0  0  0
   59.3549   25.1142   47.0732 H   0  0  0  0  0  0  0  0  0  0  0  0
   54.8820   26.7552   45.6828 H   0  0  0  0  0  0  0  0  0  0  0  0
   52.9574   24.6152   45.9482 H   0  0  0  0  0  0  0  0  0  0  0  0
   54.1691   25.2593   44.7891 H   0  0  0  0  0  0  0  0  0  0  0  0
   53.7685   23.5083   44.7891 H   0  0  0  0  0  0  0  0  0  0  0  0
   57.8332   30.9357   43.5092 H   0  0  0  0  0  0  0  0  0  0  0  0
   57.2716   33.2754   42.8923 H   0  0  0  0  0  0  0  0  0  0  0  0
   57.9749   35.1855   44.3379 H   0  0  0  0  0  0  0  0  0  0  0  0
   59.8198   32.3766   47.0383 H   0  0  0  0  0  0  0  0  0  0  0  0
   61.1080   27.7460   46.7690 H   0  0  0  0  0  0  0  0  0  0  0  0
  1  2  1  0
  2  3  1  0
  3  4  1  0
  4  5  1  0
  5  6  1  0
  6  7  2  0
  7  8  1  0
  8  9  2  0
  9 10  1  0
 10 11  2  0
 11 12  1  0
 12 13  1  0
  9 14  1  0
 14 15  2  0
 14 16  1  0
 16 17  1  0
 17 18  1  0
 18 19  2  0
 19 20  1  0
 20 21  2  0
 21 22  1  0
 22 23  1  0
 22 24  2  0
 17 25  2  0
 25 26  1  0
 26 27  1  0
 11  6  1  0
 27 16  2  0
 27  8  1  0
 24 18  1  0
  1 28  1  0
  1 29  1  0
  1 30  1  0
  2 31  1  0
  2 32  1  0
  3 33  1  0
  3 34  1  0
  4 35  1  0
  5 36  1  0
  5 37  1  0
  7 38  1  0
 10 39  1  0
 13 40  1  0
 13 41  1  0
 13 42  1  0
 19 43  1  0
 20 44  1  0
 21 45  1  0
 24 46  1  0
 26 47  1  0
M  END
>  <smiles>  (22) 
CCCNCc1cc2c(cc1OC)C(=O)c1c(-c3cccc(F)c3)n[nH]c1-2

>  <score_type>  (22) 
oracle

>  <origin>  (22) 
adg

>  <m_score__min__energy>  (22) 
-7.6100000000000003

>  <m_primary>  (22) 
energy

$$$$
22:0
     RDKit          3D

 41 42  0  0  0  0  0  0  0  0999 V2000
   53.4960   22.5530   45.7040 N   0  0  0  0  0  0  0  0  0  0  0  0
   54.4360   23.8190   44.9940 S   0  0  0  0  0  0  0  0  0  0  0  0
   54.0160   25.1400   45.5730 O   0  0  0  0  0  0  0  0  0  0  0  0
   54.2040   23.8350   43.5100 O   0  0  0  0  0  0  0  0  0  0  0  0
   56.1740   23.5400   45.3120 C   0  0  0  0  0  0  0  0  0  0  0  0
   56.7100   24.4520   46.4210 C   0  0  0  0  0  0  0  0  0  0  0  0
   56.8030   25.8480   45.9660 N   0  0  0  0  0  0  0  0  0  0  0  0
   57.4250   26.7080   46.9810 C   0  0  0  0  0  0  0  0  0  0  0  0
   57.6990   28.0630   46.3850 C   0  0  0  0  0  0  0  0  0  0  0  0
   58.9370   28.6850   46.6230 C   0  0  0  0  0  0  0  0  0  0  0  0
   59.2420   29.9230   46.0370 C   0  0  0  0  0  0  0  0  0  0  0  0
   60.5070   30.5460   46.3230 N   0  0  0  0  0  0  0  0  0  0  0  0
   60.6430   31.7910   47.0280 C   0  0  0  0  0  0  0  0  0  0  0  0
   59.6690   32.5930   47.0730 O   0  0  0  0  0  0  0  0  0  0  0  0
   61.9290   32.1700   47.6610 C   0  0  0  0  0  0  0  0  0  0  0  0
   62.7470   33.1530   47.0690 C   0  0  0  0  0  0  0  0  0  0  0  0
   63.9580   33.5190   47.6640 C   0  0  0  0  0  0  0  0  0  0  0  0
   64.3650   32.9150   48.8560 C   0  0  0  0  0  0  0  0  0  0  0  0
   65.5400   33.2730   49.4310 F   0  0  0  0  0  0  0  0  0  0  0  0
   63.5580   31.9470   49.4570 C   0  0  0  0  0  0  0  0  0  0  0  0
   62.3470   31.5760   48.8670 C   0  0  0  0  0  0  0  0  0  0  0  0
   58.2820   30.5520   45.2270 C   0  0  0  0  0  0  0  0  0  0  0  0
   57.0570   29.9320   44.9730 C   0  0  0  0  0  0  0  0  0  0  0  0
   56.7650   28.6880   45.5380 C   0  0  0  0  0  0  0  0  0  0  0  0
   55.5460   28.0820   45.2530 O   0  0  0  0  0  0  0  0  0  0  0  0
   53.8420   21.6540   45.3020 H   0  0  0  0  0  0  0  0  0  0  0  0
   56.3155   22.4921   45.6150 H   0  0  0  0  0  0  0  0  0  0  0  0
   56.7282   23.7666   44.3892 H   0  0  0  0  0  0  0  0  0  0  0  0
   56.0320   24.4013   47.2857 H   0  0  0  0  0  0  0  0  0  0  0  0
   57.7180   24.1085   46.6965 H   0  0  0  0  0  0  0  0  0  0  0  0
   55.8300   26.1990   45.8080 H   0  0  0  0  0  0  0  0  0  0  0  0
   56.7449   26.8147   47.8390 H   0  0  0  0  0  0  0  0  0  0  0  0
   58.3694   26.2560   47.3183 H   0  0  0  0  0  0  0  0  0  0  0  0
   59.6749   28.1958   47.2759 H   0  0  0  0  0  0  0  0  0  0  0  0
   61.3640   30.1300   45.8930 H   0  0  0  0  0  0  0  0  0  0  0  0
   62.4306   33.6355   46.1325 H   0  0  0  0  0  0  0  0  0  0  0  0
   64.5918   34.2844   47.1924 H   0  0  0  0  0  0  0  0  0  0  0  0
   63.8766   31.4749   50.3981 H   0  0  0  0  0  0  0  0  0  0  0  0
   61.7158   30.8144   49.3482 H   0  0  0  0  0  0  0  0  0  0  0  0
   58.4966   31.5386   44.7904 H   0  0  0  0  0  0  0  0  0  0  0  0
   56.3180   30.4255   44.3247 H   0  0  0  0  0  0  0  0  0  0  0  0
  1  2  1  0
  2  3  2  0
  2  4  2  0
  2  5  1  0
  5  6  1  0
  6  7  1  0
  7  8  1  0
  8  9  1  0
  9 10  2  0
 10 11  1  0
 11 12  1  0
 12 13  1  0
 13 14  2  0
 13 15  1  0
 15 16  2  0
 16 17  1  0
 17 18  2  0
 18 19  1  0
 18 20  1  0
 20 21  2  0
 11 22  2  0
 22 23  1  0
 23 24  2  0
 24 25  1  0
 24  9  1  0
 21 15  1  0
  1 26  1  0
  5 27  1  0
  5 28  1  0
  6 29  1  0
  6 30  1  0
  7 31  1  0
  8 32  1  0
  8 33  1  0
 10 34  1  0
 12 35  1  0
 16 36  1  0
 17 37  1  0
 20 38  1  0
 21 39  1  0
 22 40  1  0
 23 41  1  0
M  CHG  2   1  -1  25  -1
M  END
>  <UniqueID>  (23) 
20

>  <SMILES>  (23) 
[NH-]S(=O)(=O)CCNCc1cc(NC(=O)c2ccc(F)cc2)ccc1[O-]

>  <Energy>  (23) 
39.766734344674276

>  <Genealogy>  (23) 
[NH-]S(=O)(=O)CCNCc1cc(NC(=O)c2ccc(F)cc2)ccc1[O-] (protonated)
[NH-]S(=O)(=O)CCNCc1cc(NC(=O)c2ccc(F)cc2)ccc1[O-] (3D coordinates assigned)
[NH-]S(=O)(=O)CCNCc1cc(NC(=O)c2ccc(F)cc2)ccc1[O-] (optimized conformer: 39.766734344674276 kcal/mol)

>  <smiles>  (23) 
NS(=O)(=O)CCNCc1cc(NC(=O)c2ccc(F)cc2)ccc1O

>  <score_type>  (23) 
oracle

>  <origin>  (23) 
adg

>  <m_score__min__energy>  (23) 
-13.380000000000001

>  <m_primary>  (23) 
energy

$$$$
23:0
     RDKit          3D

 32 33  0  0  0  0  0  0  0  0999 V2000
   58.4320   34.2760   47.2920 N   0  0  0  0  0  0  0  0  0  0  0  0
   58.4260   33.8360   45.6200 S   0  0  0  0  0  0  0  0  0  0  0  0
   57.4290   34.6840   44.8820 O   0  0  0  0  0  0  0  0  0  0  0  0
   59.7890   34.0700   45.0300 O   0  0  0  0  0  0  0  0  0  0  0  0
   57.9950   32.1360   45.4650 C   0  0  0  0  0  0  0  0  0  0  0  0
   56.9700   31.7480   44.5940 C   0  0  0  0  0  0  0  0  0  0  0  0
   56.6330   30.3980   44.4580 C   0  0  0  0  0  0  0  0  0  0  0  0
   57.3270   29.4130   45.1880 C   0  0  0  0  0  0  0  0  0  0  0  0
   57.0110   28.0120   45.0670 N   0  0  0  0  0  0  0  0  0  0  0  0
   57.2770   27.0110   46.1030 C   0  0  0  0  0  0  0  0  0  0  0  0
   56.7620   25.6540   45.6860 C   0  0  0  0  0  0  0  0  0  0  0  0
   57.6760   24.6350   45.3650 C   0  0  0  0  0  0  0  0  0  0  0  0
   57.2220   23.3680   44.9860 C   0  0  0  0  0  0  0  0  0  0  0  0
   58.4760   21.9980   44.5370 Br  0  0  0  0  0  0  0  0  0  0  0  0
   55.8510   23.1030   44.9360 C   0  0  0  0  0  0  0  0  0  0  0  0
   54.9340   24.1010   45.2720 C   0  0  0  0  0  0  0  0  0  0  0  0
   55.3810   25.3710   45.6520 C   0  0  0  0  0  0  0  0  0  0  0  0
   54.4450   26.3410   45.9960 O   0  0  0  0  0  0  0  0  0  0  0  0
   58.3540   29.8110   46.0580 C   0  0  0  0  0  0  0  0  0  0  0  0
   58.6890   31.1620   46.1930 C   0  0  0  0  0  0  0  0  0  0  0  0
   57.4480   34.5150   47.5480 H   0  0  0  0  0  0  0  0  0  0  0  0
   58.9870   35.1570   47.3720 H   0  0  0  0  0  0  0  0  0  0  0  0
   56.4272   32.5089   44.0139 H   0  0  0  0  0  0  0  0  0  0  0  0
   55.8211   30.1031   43.7769 H   0  0  0  0  0  0  0  0  0  0  0  0
   56.5250   27.6840   44.2020 H   0  0  0  0  0  0  0  0  0  0  0  0
   58.3620   26.9479   46.2727 H   0  0  0  0  0  0  0  0  0  0  0  0
   56.7608   27.3145   47.0257 H   0  0  0  0  0  0  0  0  0  0  0  0
   58.7564   24.8360   45.4124 H   0  0  0  0  0  0  0  0  0  0  0  0
   55.4940   22.1080   44.6319 H   0  0  0  0  0  0  0  0  0  0  0  0
   53.8554   23.8877   45.2377 H   0  0  0  0  0  0  0  0  0  0  0  0
   58.9003   29.0533   46.6389 H   0  0  0  0  0  0  0  0  0  0  0  0
   59.5003   31.4604   46.8733 H   0  0  0  0  0  0  0  0  0  0  0  0
  1  2  1  0
  2  3  2  0
  2  4  2  0
  2  5  1  0
  5  6  2  0
  6  7  1  0
  7  8  2  0
  8  9  1  0
  9 10  1  0
 10 11  1  0
 11 12  2  0
 12 13  1  0
 13 14  1  0
 13 15  2  0
 15 16  1  0
 16 17  2  0
 17 18  1  0
  8 19  1  0
 19 20  2  0
 20  5  1  0
 17 11  1  0
  1 21  1  0
  1 22  1  0
  6 23  1  0
  7 24  1  0
  9 25  1  0
 10 26  1  0
 10 27  1  0
 12 28  1  0
 15 29  1  0
 16 30  1  0
 19 31  1  0
 20 32  1  0
M  CHG  1  18  -1
M  END
>  <UniqueID>  (24) 
21

>  <SMILES>  (24) 
NS(=O)(=O)c1ccc(NCc2cc(Br)ccc2[O-])cc1

>  <Energy>  (24) 
31.24628787468515

>  <Genealogy>  (24) 
NS(=O)(=O)c1ccc(NCc2cc(Br)ccc2[O-])cc1 (protonated)
NS(=O)(=O)c1ccc(NCc2cc(Br)ccc2[O-])cc1 (3D coordinates assigned)
NS(=O)(=O)c1ccc(NCc2cc(Br)ccc2[O-])cc1 (optimized conformer: 31.24628787468515 kcal/mol)

>  <smiles>  (24) 
NS(=O)(=O)c1ccc(NCc2cc(Br)ccc2O)cc1

>  <score_type>  (24) 
oracle

>  <origin>  (24) 
adg

>  <m_score__min__energy>  (24) 
-11.16

>  <m_primary>  (24) 
energy

$$$$
24:0
     RDKit          3D

 63 66  0  0  0  0  0  0  0  0999 V2000
   59.9110   31.8770   51.5190 C   0  0  0  0  0  0  0  0  0  0  0  0
   59.8900   30.9060   50.3700 C   0  0  0  0  0  0  0  0  0  0  0  0
   58.6490   30.5120   49.8380 C   0  0  0  0  0  0  0  0  0  0  0  0
   58.5850   29.5750   48.8040 C   0  0  0  0  0  0  0  0  0  0  0  0
   59.7580   29.0230   48.2870 C   0  0  0  0  0  0  0  0  0  0  0  0
   60.9980   29.4180   48.7920 C   0  0  0  0  0  0  0  0  0  0  0  0
   61.0790   30.3800   49.8100 C   0  0  0  0  0  0  0  0  0  0  0  0
   62.3760   30.7670   50.2860 N   0  0  0  0  0  0  0  0  0  0  0  0
   62.8950   30.3530   51.5550 C   0  0  0  0  0  0  0  0  0  0  0  0
   62.2340   29.5710   52.2940 O   0  0  0  0  0  0  0  0  0  0  0  0
   64.1270   30.9150   52.0130 N   0  0  0  0  0  0  0  0  0  0  0  0
   64.3790   32.2880   52.3500 C   0  0  0  0  0  0  0  0  0  0  0  0
   64.4560   32.7010   53.6910 C   0  0  0  0  0  0  0  0  0  0  0  0
   64.8180   34.0130   54.0040 C   0  0  0  0  0  0  0  0  0  0  0  0
   65.1220   34.9190   52.9860 C   0  0  0  0  0  0  0  0  0  0  0  0
   65.0580   34.5190   51.6490 C   0  0  0  0  0  0  0  0  0  0  0  0
   64.6750   33.2080   51.3180 C   0  0  0  0  0  0  0  0  0  0  0  0
   64.5600   32.8090   49.9000 C   0  0  0  0  0  0  0  0  0  0  0  0
   64.8820   31.6460   49.5360 O   0  0  0  0  0  0  0  0  0  0  0  0
   64.1120   33.7660   48.9350 N   0  0  0  0  0  0  0  0  0  0  0  0
   62.8110   33.7990   48.3340 C   0  0  0  0  0  0  0  0  0  0  0  0
   61.6880   33.7730   49.1680 C   0  0  0  0  0  0  0  0  0  0  0  0
   60.4030   33.6790   48.6250 C   0  0  0  0  0  0  0  0  0  0  0  0
   60.2250   33.5950   47.2360 C   0  0  0  0  0  0  0  0  0  0  0  0
   58.8640   33.4600   46.6690 C   0  0  0  0  0  0  0  0  0  0  0  0
   57.9600   34.2470   47.0590 O   0  0  0  0  0  0  0  0  0  0  0  0
   58.5490   32.4520   45.6900 N   0  0  0  0  0  0  0  0  0  0  0  0
   59.1790   31.1220   45.7470 C   0  0  0  0  0  0  0  0  0  0  0  0
   58.1400   30.0400   45.4490 C   0  0  0  0  0  0  0  0  0  0  0  0
   57.4830   30.2370   44.0580 C   0  0  0  0  0  0  0  0  0  0  0  0
   56.0720   29.7060   44.0490 C   0  0  0  0  0  0  0  0  0  0  0  0
   55.5170   29.1420   45.2350 N   0  0  0  0  0  0  0  0  0  0  0  0
   55.3890   29.7280   42.9880 O   0  0  0  0  0  0  0  0  0  0  0  0
   57.5190   31.7050   43.5640 C   0  0  0  0  0  0  0  0  0  0  0  0
   57.4790   32.7150   44.7170 C   0  0  0  0  0  0  0  0  0  0  0  0
   61.3500   33.6530   46.3970 C   0  0  0  0  0  0  0  0  0  0  0  0
   62.6350   33.7420   46.9410 C   0  0  0  0  0  0  0  0  0  0  0  0
   59.8990   31.3218   52.4685 H   0  0  0  0  0  0  0  0  0  0  0  0
   60.8226   32.4902   51.4643 H   0  0  0  0  0  0  0  0  0  0  0  0
   59.0267   32.5290   51.4643 H   0  0  0  0  0  0  0  0  0  0  0  0
   57.7211   30.9453   50.2395 H   0  0  0  0  0  0  0  0  0  0  0  0
   57.6091   29.2719   48.3968 H   0  0  0  0  0  0  0  0  0  0  0  0
   59.7053   28.2762   47.4811 H   0  0  0  0  0  0  0  0  0  0  0  0
   61.9188   28.9715   48.3886 H   0  0  0  0  0  0  0  0  0  0  0  0
   62.8550   31.5630   49.8060 H   0  0  0  0  0  0  0  0  0  0  0  0
   64.2302   31.9879   54.4975 H   0  0  0  0  0  0  0  0  0  0  0  0
   64.8638   34.3335   55.0553 H   0  0  0  0  0  0  0  0  0  0  0  0
   65.4125   35.9498   53.2373 H   0  0  0  0  0  0  0  0  0  0  0  0
   65.3086   35.2338   50.8513 H   0  0  0  0  0  0  0  0  0  0  0  0
   61.8170   33.8269   50.2591 H   0  0  0  0  0  0  0  0  0  0  0  0
   59.5271   33.6709   49.2904 H   0  0  0  0  0  0  0  0  0  0  0  0
   59.9856   31.0683   45.0010 H   0  0  0  0  0  0  0  0  0  0  0  0
   59.5918   30.9599   46.7537 H   0  0  0  0  0  0  0  0  0  0  0  0
   58.6331   29.0570   45.4735 H   0  0  0  0  0  0  0  0  0  0  0  0
   57.3501   30.1063   46.2117 H   0  0  0  0  0  0  0  0  0  0  0  0
   58.0899   29.6559   43.3481 H   0  0  0  0  0  0  0  0  0  0  0  0
   54.5340   29.3510   45.5190 H   0  0  0  0  0  0  0  0  0  0  0  0
   58.4445   31.8613   42.9904 H   0  0  0  0  0  0  0  0  0  0  0  0
   56.6254   31.8705   42.9442 H   0  0  0  0  0  0  0  0  0  0  0  0
   57.6049   33.7293   44.3103 H   0  0  0  0  0  0  0  0  0  0  0  0
   56.5104   32.6208   45.2298 H   0  0  0  0  0  0  0  0  0  0  0  0
   61.2193   33.6282   45.3051 H   0  0  0  0  0  0  0  0  0  0  0  0
   63.5111   33.7675   46.2763 H   0  0  0  0  0  0  0  0  0  0  0  0
  1  2  1  0
  2  3  2  0
  3  4  1  0
  4  5  2  0
  5  6  1  0
  6  7  2  0
  7  8  1  0
  8  9  1  0
  9 10  2  0
  9 11  1  0
 11 12  1  0
 12 13  2  0
 13 14  1  0
 14 15  2  0
 15 16  1  0
 16 17  2  0
 17 18  1  0
 18 19  2  0
 18 20  1  0
 20 21  1  0
 21 22  2  0
 22 23  1  0
 23 24  2  0
 24 25  1  0
 25 26  2  0
 25 27  1  0
 27 28  1  0
 28 29  1  0
 29 30  1  0
 30 31  1  0
 31 32  1  0
 31 33  2  0
 30 34  1  0
 34 35  1  0
 24 36  1  0
 36 37  2  0
  7  2  1  0
 17 12  1  0
 37 21  1  0
 35 27  1  0
  1 38  1  0
  1 39  1  0
  1 40  1  0
  3 41  1  0
  4 42  1  0
  5 43  1  0
  6 44  1  0
  8 45  1  0
 13 46  1  0
 14 47  1  0
 15 48  1  0
 16 49  1  0
 22 50  1  0
 23 51  1  0
 28 52  1  0
 28 53  1  0
 29 54  1  0
 29 55  1  0
 30 56  1  0
 32 57  1  0
 34 58  1  0
 34 59  1  0
 35 60  1  0
 35 61  1  0
 36 62  1  0
 37 63  1  0
M  CHG  3  11  -1  20  -1  32  -1
M  END
>  <UniqueID>  (25) 
22

>  <SMILES>  (25) 
Cc1ccccc1NC(=O)[N-]c1ccccc1C(=O)[N-]c1ccc(C(=O)N2CCC(C([NH-])=O)CC2)cc1

>  <Energy>  (25) 
90.04432596340983

>  <Genealogy>  (25) 
Cc1ccccc1NC(=O)[N-]c1ccccc1C(=O)[N-]c1ccc(C(=O)N2CCC(C([NH-])=O)CC2)cc1 (protonated)
Cc1ccccc1NC(=O)[N-]c1ccccc1C(=O)[N-]c1ccc(C(=O)N2CCC(C([NH-])=O)CC2)cc1 (3D coordinates assigned)
Cc1ccccc1NC(=O)[N-]c1ccccc1C(=O)[N-]c1ccc(C(=O)N2CCC(C([NH-])=O)CC2)cc1 (nonaromatic ring conformer: 90.04432596340983 kcal/mol)

>  <smiles>  (25) 
Cc1ccccc1NC(=O)Nc1ccccc1C(=O)Nc1ccc(C(=O)N2CCC(C(N)=O)CC2)cc1

>  <score_type>  (25) 
oracle

>  <origin>  (25) 
adg

>  <m_score__min__energy>  (25) 
-13.789999999999999

>  <m_primary>  (25) 
energy

$$$$
25:0
     RDKit          3D

 60 64  0  0  0  0  0  0  0  0999 V2000
   56.9120   22.5320   47.5410 O   0  0  0  0  0  0  0  0  0  0  0  0
   55.9120   22.7290   46.8030 C   0  0  0  0  0  0  0  0  0  0  0  0
   54.8920   21.6430   46.6460 C   0  0  0  0  0  0  0  0  0  0  0  0
   53.5380   22.2310   46.4070 C   0  0  0  0  0  0  0  0  0  0  0  0
   52.5100   22.2970   47.3180 C   0  0  0  0  0  0  0  0  0  0  0  0
   51.4690   22.9300   46.7520 N   0  0  0  0  0  0  0  0  0  0  0  0
   51.9040   23.2340   45.5110 C   0  0  0  0  0  0  0  0  0  0  0  0
   53.1680   22.8320   45.2630 N   0  0  0  0  0  0  0  0  0  0  0  0
   55.7150   23.9980   46.1570 N   0  0  0  0  0  0  0  0  0  0  0  0
   56.7060   25.0400   46.1050 C   0  0  0  0  0  0  0  0  0  0  0  0
   58.0780   24.7360   46.0800 C   0  0  0  0  0  0  0  0  0  0  0  0
   59.0290   25.7580   46.0070 C   0  0  0  0  0  0  0  0  0  0  0  0
   58.6250   27.0990   45.9480 C   0  0  0  0  0  0  0  0  0  0  0  0
   59.6490   28.1940   45.8270 C   0  0  0  0  0  0  0  0  0  0  0  0
   58.9720   29.5680   45.8210 C   0  0  0  0  0  0  0  0  0  0  0  0
   58.8280   30.0950   47.2220 C   0  0  0  0  0  0  0  0  0  0  0  0
   58.9520   29.2310   48.3210 C   0  0  0  0  0  0  0  0  0  0  0  0
   58.8360   29.7240   49.6240 C   0  0  0  0  0  0  0  0  0  0  0  0
   58.5930   31.0850   49.8470 C   0  0  0  0  0  0  0  0  0  0  0  0
   58.4860   31.5570   51.1980 N   0  0  0  0  0  0  0  0  0  0  0  0
   57.2800   31.9450   51.8700 C   0  0  0  0  0  0  0  0  0  0  0  0
   57.1450   33.1470   52.2210 O   0  0  0  0  0  0  0  0  0  0  0  0
   56.2420   30.9570   52.2470 C   0  0  0  0  0  0  0  0  0  0  0  0
   54.9090   31.2180   51.8990 C   0  0  0  0  0  0  0  0  0  0  0  0
   53.9000   30.3120   52.2150 C   0  0  0  0  0  0  0  0  0  0  0  0
   54.2030   29.1210   52.8820 C   0  0  0  0  0  0  0  0  0  0  0  0
   53.1790   28.2080   53.1880 C   0  0  0  0  0  0  0  0  0  0  0  0
   53.4740   27.0160   53.8520 C   0  0  0  0  0  0  0  0  0  0  0  0
   54.7870   26.7270   54.2200 C   0  0  0  0  0  0  0  0  0  0  0  0
   55.8170   27.6260   53.9260 C   0  0  0  0  0  0  0  0  0  0  0  0
   55.5430   28.8350   53.2490 C   0  0  0  0  0  0  0  0  0  0  0  0
   56.5670   29.7610   52.9310 C   0  0  0  0  0  0  0  0  0  0  0  0
   58.2370   29.4670   53.4400 Cl  0  0  0  0  0  0  0  0  0  0  0  0
   58.5150   31.9600   48.7500 C   0  0  0  0  0  0  0  0  0  0  0  0
   58.6240   31.4660   47.4460 C   0  0  0  0  0  0  0  0  0  0  0  0
   57.2560   27.4040   45.9350 C   0  0  0  0  0  0  0  0  0  0  0  0
   56.3020   26.3840   46.0140 C   0  0  0  0  0  0  0  0  0  0  0  0
   54.9520   26.7140   46.0110 O   0  0  0  0  0  0  0  0  0  0  0  0
   55.1674   21.0077   45.7913 H   0  0  0  0  0  0  0  0  0  0  0  0
   54.8634   21.0439   47.5681 H   0  0  0  0  0  0  0  0  0  0  0  0
   52.5358   21.8970   48.3424 H   0  0  0  0  0  0  0  0  0  0  0  0
   51.2850   23.7610   44.7699 H   0  0  0  0  0  0  0  0  0  0  0  0
   54.7680   24.1970   45.7640 H   0  0  0  0  0  0  0  0  0  0  0  0
   58.4057   23.6866   46.1181 H   0  0  0  0  0  0  0  0  0  0  0  0
   60.1003   25.5085   45.9958 H   0  0  0  0  0  0  0  0  0  0  0  0
   60.3421   28.1364   46.6792 H   0  0  0  0  0  0  0  0  0  0  0  0
   60.1962   28.0645   44.8816 H   0  0  0  0  0  0  0  0  0  0  0  0
   59.5823   30.2688   45.2324 H   0  0  0  0  0  0  0  0  0  0  0  0
   57.9710   29.4674   45.3761 H   0  0  0  0  0  0  0  0  0  0  0  0
   59.1415   28.1601   48.1562 H   0  0  0  0  0  0  0  0  0  0  0  0
   58.9362   29.0390   50.4789 H   0  0  0  0  0  0  0  0  0  0  0  0
   54.6575   32.1492   51.3703 H   0  0  0  0  0  0  0  0  0  0  0  0
   52.8588   30.5344   51.9384 H   0  0  0  0  0  0  0  0  0  0  0  0
   52.1408   28.4337   52.9030 H   0  0  0  0  0  0  0  0  0  0  0  0
   52.6689   26.3036   54.0852 H   0  0  0  0  0  0  0  0  0  0  0  0
   55.0141   25.7870   54.7443 H   0  0  0  0  0  0  0  0  0  0  0  0
   56.8490   27.3897   54.2244 H   0  0  0  0  0  0  0  0  0  0  0  0
   58.3677   33.0371   48.9175 H   0  0  0  0  0  0  0  0  0  0  0  0
   58.5495   32.1550   46.5917 H   0  0  0  0  0  0  0  0  0  0  0  0
   56.9304   28.4522   45.8622 H   0  0  0  0  0  0  0  0  0  0  0  0
  1  2  2  0
  2  3  1  0
  3  4  1  0
  4  5  2  0
  5  6  1  0
  6  7  1  0
  7  8  2  0
  2  9  1  0
  9 10  1  0
 10 11  2  0
 11 12  1  0
 12 13  2  0
 13 14  1  0
 14 15  1  0
 15 16  1  0
 16 17  2  0
 17 18  1  0
 18 19  2  0
 19 20  1  0
 20 21  1  0
 21 22  2  0
 21 23  1  0
 23 24  2  0
 24 25  1  0
 25 26  2  0
 26 27  1  0
 27 28  2  0
 28 29  1  0
 29 30  2  0
 30 31  1  0
 31 32  2  0
 32 33  1  0
 19 34  1  0
 34 35  2  0
 13 36  1  0
 36 37  2  0
 37 38  1  0
  8  4  1  0
 37 10  1  0
 35 16  1  0
 32 23  1  0
 31 26  1  0
  3 39  1  0
  3 40  1  0
  5 41  1  0
  7 42  1  0
  9 43  1  0
 11 44  1  0
 12 45  1  0
 14 46  1  0
 14 47  1  0
 15 48  1  0
 15 49  1  0
 17 50  1  0
 18 51  1  0
 24 52  1  0
 25 53  1  0
 27 54  1  0
 28 55  1  0
 29 56  1  0
 30 57  1  0
 34 58  1  0
 35 59  1  0
 36 60  1  0
M  CHG  3   6  -1  20  -1  38  -1
M  END
>  <UniqueID>  (26) 
23

>  <SMILES>  (26) 
O=C(Cc1c[n-]cn1)Nc1ccc(CCc2ccc([N-]C(=O)c3ccc4ccccc4c3Cl)cc2)cc1[O-]

>  <Energy>  (26) 
106.76486861480396

>  <Genealogy>  (26) 
O=C(Cc1c[n-]cn1)Nc1ccc(CCc2ccc([N-]C(=O)c3ccc4ccccc4c3Cl)cc2)cc1[O-] (protonated)
O=C(Cc1c[n-]cn1)Nc1ccc(CCc2ccc([N-]C(=O)c3ccc4ccccc4c3Cl)cc2)cc1[O-] (3D coordinates assigned)
O=C(Cc1c[n-]cn1)Nc1ccc(CCc2ccc([N-]C(=O)c3ccc4ccccc4c3Cl)cc2)cc1[O-] (optimized conformer: 106.76486861480396 kcal/mol)

>  <smiles>  (26) 
O=C(Cc1c[nH]cn1)Nc1ccc(CCc2ccc(NC(=O)c3ccc4ccccc4c3Cl)cc2)cc1O

>  <score_type>  (26) 
oracle

>  <origin>  (26) 
adg

>  <m_score__min__energy>  (26) 
-16.640000000000001

>  <m_primary>  (26) 
energy

$$$$
26:0
     RDKit          3D

 83 87  0  0  0  0  0  0  0  0999 V2000
   66.0360   35.1640   52.4590 C   0  0  0  0  0  0  0  0  0  0  0  0
   65.4490   33.8760   52.3200 O   0  0  0  0  0  0  0  0  0  0  0  0
   64.3920   33.6200   51.4410 C   0  0  0  0  0  0  0  0  0  0  0  0
   63.1980   33.7980   51.8100 O   0  0  0  0  0  0  0  0  0  0  0  0
   64.6790   33.1560   50.1160 N   0  0  0  0  0  0  0  0  0  0  0  0
   63.6330   32.9640   49.1020 C   0  0  2  0  0  0  0  0  0  0  0  0
   62.6930   34.1620   49.0740 C   0  0  0  0  0  0  0  0  0  0  0  0
   62.9780   35.1770   49.7670 O   0  0  0  0  0  0  0  0  0  0  0  0
   61.4690   34.1630   48.3050 N   0  0  0  0  0  0  0  0  0  0  0  0
   61.3870   33.8770   46.8770 C   0  0  0  0  0  0  0  0  0  0  0  0
   59.8920   33.9310   46.5360 C   0  0  2  0  0  0  0  0  0  0  0  0
   59.2430   32.5330   46.3690 C   0  0  0  0  0  0  0  0  0  0  0  0
   58.6330   32.6430   45.0080 C   0  0  0  0  0  0  0  0  0  0  0  0
   57.8110   31.5950   44.3610 C   0  0  0  0  0  0  0  0  0  0  0  0
   57.4070   31.7320   43.0210 C   0  0  0  0  0  0  0  0  0  0  0  0
   56.6450   30.7350   42.4110 C   0  0  0  0  0  0  0  0  0  0  0  0
   56.2970   29.5830   43.1180 C   0  0  0  0  0  0  0  0  0  0  0  0
   56.7040   29.4220   44.4530 C   0  0  0  0  0  0  0  0  0  0  0  0
   56.4620   28.2040   45.1730 N   0  0  0  0  0  0  0  0  0  0  0  0
   57.2430   27.7350   46.2760 C   0  0  0  0  0  0  0  0  0  0  0  0
   58.0310   28.5150   46.8770 O   0  0  0  0  0  0  0  0  0  0  0  0
   57.0630   26.3330   46.7630 C   0  0  0  0  0  0  0  0  0  0  0  0
   56.6230   25.4420   45.6010 C   0  0  0  0  0  0  0  0  0  0  0  0
   55.1760   25.0800   45.7190 C   0  0  0  0  0  0  0  0  0  0  0  0
   54.3330   25.9760   45.9940 O   0  0  0  0  0  0  0  0  0  0  0  0
   54.7510   23.7380   45.4490 N   0  0  0  0  0  0  0  0  0  0  0  0
   55.4870   22.7770   44.6780 C   0  0  0  0  0  0  0  0  0  0  0  0
   55.8860   23.0420   43.3530 C   0  0  0  0  0  0  0  0  0  0  0  0
   56.5940   22.0770   42.6250 C   0  0  0  0  0  0  0  0  0  0  0  0
   56.8890   20.8410   43.2040 C   0  0  0  0  0  0  0  0  0  0  0  0
   56.4780   20.5650   44.5120 C   0  0  0  0  0  0  0  0  0  0  0  0
   55.7690   21.5260   45.2410 C   0  0  0  0  0  0  0  0  0  0  0  0
   57.4510   30.4340   45.0710 C   0  0  0  0  0  0  0  0  0  0  0  0
   58.8950   33.7710   44.4440 N   0  0  0  0  0  0  0  0  0  0  0  0
   59.6620   34.5440   45.2760 O   0  0  0  0  0  0  0  0  0  0  0  0
   59.2550   34.7570   47.6610 C   0  0  0  0  0  0  0  0  0  0  0  0
   60.1950   34.6170   48.8570 C   0  0  1  0  0  0  0  0  0  0  0  0
   59.6580   33.6310   49.8600 C   0  0  0  0  0  0  0  0  0  0  0  0
   60.1420   33.6260   51.2010 N   0  0  0  0  0  0  0  0  0  0  0  0
   58.8170   32.7660   49.4950 O   0  0  0  0  0  0  0  0  0  0  0  0
   62.8880   31.6170   49.3350 C   0  0  0  0  0  0  0  0  0  0  0  0
   62.2730   31.4930   50.7600 C   0  0  0  0  0  0  0  0  0  0  0  0
   60.9650   30.6810   50.7980 C   0  0  0  0  0  0  0  0  0  0  0  0
   61.0240   29.4870   49.8420 C   0  0  0  0  0  0  0  0  0  0  0  0
   61.2400   29.9200   48.3770 C   0  0  0  0  0  0  0  0  0  0  0  0
   61.8450   31.3300   48.2330 C   0  0  0  0  0  0  0  0  0  0  0  0
   66.1453   35.4038   53.5270 H   0  0  0  0  0  0  0  0  0  0  0  0
   67.0256   35.1697   51.9788 H   0  0  0  0  0  0  0  0  0  0  0  0
   65.3911   35.9146   51.9788 H   0  0  0  0  0  0  0  0  0  0  0  0
   65.6820   32.9890   49.8720 H   0  0  0  0  0  0  0  0  0  0  0  0
   64.0980   32.9010   48.1071 H   0  0  0  0  0  0  0  0  0  0  0  0
   61.9408   34.6328   46.3007 H   0  0  0  0  0  0  0  0  0  0  0  0
   61.8281   32.9002   46.6294 H   0  0  0  0  0  0  0  0  0  0  0  0
   59.9975   31.7335   46.4069 H   0  0  0  0  0  0  0  0  0  0  0  0
   58.5242   32.2767   47.1613 H   0  0  0  0  0  0  0  0  0  0  0  0
   57.6928   32.6287   42.4515 H   0  0  0  0  0  0  0  0  0  0  0  0
   56.3170   30.8574   41.3682 H   0  0  0  0  0  0  0  0  0  0  0  0
   55.7019   28.7982   42.6281 H   0  0  0  0  0  0  0  0  0  0  0  0
   58.0149   25.9612   47.1700 H   0  0  0  0  0  0  0  0  0  0  0  0
   56.2951   26.3143   47.5504 H   0  0  0  0  0  0  0  0  0  0  0  0
   56.7829   25.9800   44.6550 H   0  0  0  0  0  0  0  0  0  0  0  0
   57.2180   24.5171   45.6246 H   0  0  0  0  0  0  0  0  0  0  0  0
   55.6410   24.0088   42.8891 H   0  0  0  0  0  0  0  0  0  0  0  0
   56.9179   22.2931   41.5962 H   0  0  0  0  0  0  0  0  0  0  0  0
   57.4449   20.0842   42.6311 H   0  0  0  0  0  0  0  0  0  0  0  0
   56.7123   19.5918   44.9679 H   0  0  0  0  0  0  0  0  0  0  0  0
   55.4310   21.2976   46.2626 H   0  0  0  0  0  0  0  0  0  0  0  0
   57.7589   30.3200   46.1208 H   0  0  0  0  0  0  0  0  0  0  0  0
   59.1694   35.8120   47.3615 H   0  0  0  0  0  0  0  0  0  0  0  0
   58.2397   34.4064   47.8983 H   0  0  0  0  0  0  0  0  0  0  0  0
   60.3039   35.5697   49.3960 H   0  0  0  0  0  0  0  0  0  0  0  0
   61.0800   34.0250   51.4320 H   0  0  0  0  0  0  0  0  0  0  0  0
   63.6592   30.8356   49.2673 H   0  0  0  0  0  0  0  0  0  0  0  0
   63.0074   31.0003   51.4141 H   0  0  0  0  0  0  0  0  0  0  0  0
   62.0304   32.5117   51.0966 H   0  0  0  0  0  0  0  0  0  0  0  0
   60.8014   30.3128   51.8216 H   0  0  0  0  0  0  0  0  0  0  0  0
   60.1397   31.3370   50.4839 H   0  0  0  0  0  0  0  0  0  0  0  0
   61.8553   28.8329   50.1438 H   0  0  0  0  0  0  0  0  0  0  0  0
   60.0589   28.9623   49.8990 H   0  0  0  0  0  0  0  0  0  0  0  0
   61.9194   29.1995   47.8980 H   0  0  0  0  0  0  0  0  0  0  0  0
   60.2499   29.9435   47.8983 H   0  0  0  0  0  0  0  0  0  0  0  0
   62.3328   31.4104   47.2503 H   0  0  0  0  0  0  0  0  0  0  0  0
   61.0319   32.0645   48.3296 H   0  0  0  0  0  0  0  0  0  0  0  0
  1  2  1  0
  2  3  1  0
  3  4  2  0
  3  5  1  0
  5  6  1  0
  6  7  1  0
  7  8  2  0
  7  9  1  0
  9 10  1  0
 10 11  1  0
 11 12  1  0
 12 13  1  0
 13 14  1  0
 14 15  2  0
 15 16  1  0
 16 17  2  0
 17 18  1  0
 18 19  1  0
 19 20  1  0
 20 21  2  0
 20 22  1  0
 22 23  1  0
 23 24  1  0
 24 25  2  0
 24 26  1  0
 26 27  1  0
 27 28  2  0
 28 29  1  0
 29 30  2  0
 30 31  1  0
 31 32  2  0
 18 33  2  0
 13 34  2  0
 34 35  1  0
 11 36  1  0
 36 37  1  0
 37 38  1  0
 38 39  1  0
 38 40  2  0
  6 41  1  0
 41 42  1  0
 42 43  1  0
 43 44  1  0
 44 45  1  0
 45 46  1  0
 37  9  1  0
 46 41  1  0
 11 35  1  6
 33 14  1  0
 32 27  1  0
  1 47  1  0
  1 48  1  0
  1 49  1  0
  5 50  1  0
  6 51  1  6
 10 52  1  0
 10 53  1  0
 12 54  1  0
 12 55  1  0
 15 56  1  0
 16 57  1  0
 17 58  1  0
 22 59  1  0
 22 60  1  0
 23 61  1  0
 23 62  1  0
 28 63  1  0
 29 64  1  0
 30 65  1  0
 31 66  1  0
 32 67  1  0
 33 68  1  0
 36 69  1  0
 36 70  1  0
 37 71  1  1
 39 72  1  0
 41 73  1  0
 42 74  1  0
 42 75  1  0
 43 76  1  0
 43 77  1  0
 44 78  1  0
 44 79  1  0
 45 80  1  0
 45 81  1  0
 46 82  1  0
 46 83  1  0
M  CHG  3  19  -1  26  -1  39  -1
M  END
>  <UniqueID>  (27) 
24

>  <SMILES>  (27) 
COC(=O)N[C@H](C(=O)N1C[C@@]2(CC(c3cccc([N-]C(=O)CCC(=O)[N-]c4ccccc4)c3)=NO2)CC1C([NH-])=O)C1CCCCC1

>  <Energy>  (27) 
107.09944704378431

>  <Genealogy>  (27) 
COC(=O)NC(C(=O)N1CC2(CC(c3cccc([N-]C(=O)CCC(=O)[N-]c4ccccc4)c3)=NO2)CC1C([NH-])=O)C1CCCCC1 (protonated)
COC(=O)N[C@H](C(=O)N1C[C@@]2(CC(c3cccc([N-]C(=O)CCC(=O)[N-]c4ccccc4)c3)=NO2)CC1C([NH-])=O)C1CCCCC1 (chirality)
COC(=O)N[C@H](C(=O)N1C[C@@]2(CC(c3cccc([N-]C(=O)CCC(=O)[N-]c4ccccc4)c3)=NO2)CC1C([NH-])=O)C1CCCCC1 (3D coordinates assigned)
COC(=O)N[C@H](C(=O)N1C[C@@]2(CC(c3cccc([N-]C(=O)CCC(=O)[N-]c4ccccc4)c3)=NO2)CC1C([NH-])=O)C1CCCCC1 (nonaromatic ring conformer: 107.09944704378431 kcal/mol)

>  <smiles>  (27) 
COC(=O)NC(C(=O)N1CC2(CC(c3cccc(NC(=O)CCC(=O)Nc4ccccc4)c3)=NO2)CC1C(N)=O)C1CCCCC1

>  <score_type>  (27) 
oracle

>  <origin>  (27) 
adg

>  <m_score__min__energy>  (27) 
-14.6

>  <m_primary>  (27) 
energy

$$$$
27:0
     RDKit          3D

 31 32  0  0  0  0  0  0  0  0999 V2000
   55.1410   29.3610   44.8680 N   0  0  0  0  0  0  0  0  0  0  0  0
   56.7040   30.0540   44.6190 S   0  0  0  0  0  0  0  0  0  0  0  0
   57.1020   29.8940   43.1780 O   0  0  0  0  0  0  0  0  0  0  0  0
   56.6620   31.5200   44.9500 O   0  0  0  0  0  0  0  0  0  0  0  0
   57.8750   29.2410   45.6510 C   0  0  0  0  0  0  0  0  0  0  0  0
   59.0860   29.8680   45.9750 C   0  0  0  0  0  0  0  0  0  0  0  0
   60.0010   29.2310   46.8170 C   0  0  0  0  0  0  0  0  0  0  0  0
   59.7160   27.9640   47.3340 C   0  0  0  0  0  0  0  0  0  0  0  0
   58.5180   27.3190   47.0030 C   0  0  0  0  0  0  0  0  0  0  0  0
   58.2450   26.0310   47.5730 N   0  0  0  0  0  0  0  0  0  0  0  0
   57.7630   24.8860   46.8610 C   0  0  0  0  0  0  0  0  0  0  0  0
   56.7760   24.2530   47.3220 O   0  0  0  0  0  0  0  0  0  0  0  0
   58.4460   24.4040   45.6930 N   0  0  0  0  0  0  0  0  0  0  0  0
   57.8660   23.4780   44.7620 C   0  0  0  0  0  0  0  0  0  0  0  0
   56.7500   23.8730   44.0070 C   0  0  0  0  0  0  0  0  0  0  0  0
   56.1550   22.9850   43.1050 C   0  0  0  0  0  0  0  0  0  0  0  0
   56.6600   21.6900   42.9620 C   0  0  0  0  0  0  0  0  0  0  0  0
   57.7530   21.2780   43.7280 C   0  0  0  0  0  0  0  0  0  0  0  0
   58.3540   22.1620   44.6320 C   0  0  0  0  0  0  0  0  0  0  0  0
   59.3730   21.7160   45.4080 F   0  0  0  0  0  0  0  0  0  0  0  0
   57.5860   27.9750   46.1790 C   0  0  0  0  0  0  0  0  0  0  0  0
   55.2400   28.6480   45.6240 H   0  0  0  0  0  0  0  0  0  0  0  0
   59.3162   30.8628   45.5658 H   0  0  0  0  0  0  0  0  0  0  0  0
   60.9482   29.7279   47.0738 H   0  0  0  0  0  0  0  0  0  0  0  0
   60.4361   27.4714   48.0039 H   0  0  0  0  0  0  0  0  0  0  0  0
   59.4590   24.6390   45.5890 H   0  0  0  0  0  0  0  0  0  0  0  0
   56.3411   24.8872   44.1257 H   0  0  0  0  0  0  0  0  0  0  0  0
   55.2889   23.3063   42.5078 H   0  0  0  0  0  0  0  0  0  0  0  0
   56.1968   20.9950   42.2462 H   0  0  0  0  0  0  0  0  0  0  0  0
   58.1430   20.2551   43.6205 H   0  0  0  0  0  0  0  0  0  0  0  0
   56.6251   27.4921   45.9476 H   0  0  0  0  0  0  0  0  0  0  0  0
  1  2  1  0
  2  3  2  0
  2  4  2  0
  2  5  1  0
  5  6  2  0
  6  7  1  0
  7  8  2  0
  8  9  1  0
  9 10  1  0
 10 11  1  0
 11 12  2  0
 11 13  1  0
 13 14  1  0
 14 15  2  0
 15 16  1  0
 16 17  2  0
 17 18  1  0
 18 19  2  0
 19 20  1  0
  9 21  2  0
 21  5  1  0
 19 14  1  0
  1 22  1  0
  6 23  1  0
  7 24  1  0
  8 25  1  0
 13 26  1  0
 15 27  1  0
 16 28  1  0
 17 29  1  0
 18 30  1  0
 21 31  1  0
M  CHG  2   1  -1  10  -1
M  END
>  <UniqueID>  (28) 
25

>  <SMILES>  (28) 
[NH-]S(=O)(=O)c1cccc([N-]C(=O)Nc2ccccc2F)c1

>  <Energy>  (28) 
39.29645406822768

>  <Genealogy>  (28) 
[NH-]S(=O)(=O)c1cccc([N-]C(=O)Nc2ccccc2F)c1 (protonated)
[NH-]S(=O)(=O)c1cccc([N-]C(=O)Nc2ccccc2F)c1 (3D coordinates assigned)
[NH-]S(=O)(=O)c1cccc([N-]C(=O)Nc2ccccc2F)c1 (optimized conformer: 39.29645406822768 kcal/mol)

>  <smiles>  (28) 
NS(=O)(=O)c1cccc(NC(=O)Nc2ccccc2F)c1

>  <score_type>  (28) 
oracle

>  <origin>  (28) 
adg

>  <m_score__min__energy>  (28) 
-11.220000000000001

>  <m_primary>  (28) 
energy

$$$$
28:0
     RDKit          3D

 48 51  0  0  0  0  0  0  0  0999 V2000
   60.4310   29.3450   48.7920 C   0  0  0  0  0  0  0  0  0  0  0  0
   59.9190   28.2570   47.9180 C   0  0  0  0  0  0  0  0  0  0  0  0
   60.0080   26.9560   48.3570 C   0  0  0  0  0  0  0  0  0  0  0  0
   59.5390   25.9460   47.5370 C   0  0  0  0  0  0  0  0  0  0  0  0
   58.9880   26.2140   46.2960 C   0  0  0  0  0  0  0  0  0  0  0  0
   58.5080   25.0970   45.4930 C   0  0  0  0  0  0  0  0  0  0  0  0
   58.9060   23.8120   45.5040 N   0  0  0  0  0  0  0  0  0  0  0  0
   58.1530   23.1440   44.6080 C   0  0  0  0  0  0  0  0  0  0  0  0
   58.1000   21.8240   44.1850 C   0  0  0  0  0  0  0  0  0  0  0  0
   57.1920   21.4150   43.2150 C   0  0  0  0  0  0  0  0  0  0  0  0
   56.3140   22.2930   42.6340 C   0  0  0  0  0  0  0  0  0  0  0  0
   56.3550   23.6100   43.0460 C   0  0  0  0  0  0  0  0  0  0  0  0
   57.2660   24.0170   44.0190 C   0  0  0  0  0  0  0  0  0  0  0  0
   57.5090   25.2210   44.5880 N   0  0  0  0  0  0  0  0  0  0  0  0
   58.9090   27.5240   45.8750 C   0  0  0  0  0  0  0  0  0  0  0  0
   59.3660   28.5510   46.6690 C   0  0  0  0  0  0  0  0  0  0  0  0
   59.2990   29.9210   46.3280 N   0  0  0  0  0  0  0  0  0  0  0  0
   58.1470   30.5860   45.8480 C   0  0  0  0  0  0  0  0  0  0  0  0
   57.0380   30.0540   45.6670 O   0  0  0  0  0  0  0  0  0  0  0  0
   58.3120   32.0260   45.5470 C   0  0  0  0  0  0  0  0  0  0  0  0
   58.0860   32.5420   44.2920 C   0  0  0  0  0  0  0  0  0  0  0  0
   58.2610   33.9160   44.1360 C   0  0  0  0  0  0  0  0  0  0  0  0
   58.6410   34.7320   45.1830 C   0  0  0  0  0  0  0  0  0  0  0  0
   58.8670   34.1990   46.4490 C   0  0  0  0  0  0  0  0  0  0  0  0
   59.2770   35.0090   47.6070 C   0  0  0  0  0  0  0  0  0  0  0  0
   58.6970   32.8200   46.6260 C   0  0  0  0  0  0  0  0  0  0  0  0
   58.9310   32.1960   47.9790 C   0  0  0  0  0  0  0  0  0  0  0  0
   60.2977   29.0616   49.8465 H   0  0  0  0  0  0  0  0  0  0  0  0
   61.4998   29.5068   48.5881 H   0  0  0  0  0  0  0  0  0  0  0  0
   59.8744   30.2717   48.5881 H   0  0  0  0  0  0  0  0  0  0  0  0
   60.4433   26.7240   49.3402 H   0  0  0  0  0  0  0  0  0  0  0  0
   59.6056   24.9029   47.8799 H   0  0  0  0  0  0  0  0  0  0  0  0
   58.7887   21.0877   44.6249 H   0  0  0  0  0  0  0  0  0  0  0  0
   57.1777   20.3595   42.9057 H   0  0  0  0  0  0  0  0  0  0  0  0
   55.6010   21.9595   41.8656 H   0  0  0  0  0  0  0  0  0  0  0  0
   55.6642   24.3428   42.6035 H   0  0  0  0  0  0  0  0  0  0  0  0
   56.9620   26.0690   44.3120 H   0  0  0  0  0  0  0  0  0  0  0  0
   58.4745   27.7519   44.8905 H   0  0  0  0  0  0  0  0  0  0  0  0
   60.2080   30.4620   46.4540 H   0  0  0  0  0  0  0  0  0  0  0  0
   57.7817   31.9008   43.4516 H   0  0  0  0  0  0  0  0  0  0  0  0
   58.0908   34.3650   43.1463 H   0  0  0  0  0  0  0  0  0  0  0  0
   58.7662   35.8119   45.0154 H   0  0  0  0  0  0  0  0  0  0  0  0
   59.0106   34.4826   48.5354 H   0  0  0  0  0  0  0  0  0  0  0  0
   60.3648   35.1693   47.5756 H   0  0  0  0  0  0  0  0  0  0  0  0
   58.7621   35.9806   47.5756 H   0  0  0  0  0  0  0  0  0  0  0  0
   58.6612   32.9154   48.7662 H   0  0  0  0  0  0  0  0  0  0  0  0
   58.3103   31.2934   48.0788 H   0  0  0  0  0  0  0  0  0  0  0  0
   59.9922   31.9241   48.0788 H   0  0  0  0  0  0  0  0  0  0  0  0
  1  2  1  0
  2  3  2  0
  3  4  1  0
  4  5  2  0
  5  6  1  0
  6  7  2  0
  7  8  1  0
  8  9  2  0
  9 10  1  0
 10 11  2  0
 11 12  1  0
 12 13  2  0
 13 14  1  0
  5 15  1  0
 15 16  2  0
 16 17  1  0
 17 18  1  0
 18 19  2  0
 18 20  1  0
 20 21  2  0
 21 22  1  0
 22 23  2  0
 23 24  1  0
 24 25  1  0
 24 26  2  0
 26 27  1  0
 16  2  1  0
 26 20  1  0
 14  6  1  0
 13  8  1  0
  1 28  1  0
  1 29  1  0
  1 30  1  0
  3 31  1  0
  4 32  1  0
  9 33  1  0
 10 34  1  0
 11 35  1  0
 12 36  1  0
 14 37  1  0
 15 38  1  0
 17 39  1  0
 21 40  1  0
 22 41  1  0
 23 42  1  0
 25 43  1  0
 25 44  1  0
 25 45  1  0
 27 46  1  0
 27 47  1  0
 27 48  1  0
M  END
>  <smiles>  (29) 
Cc1ccc(-c2nc3ccccc3[nH]2)cc1NC(=O)c1cccc(C)c1C

>  <score_type>  (29) 
oracle

>  <origin>  (29) 
adg

>  <m_score__min__energy>  (29) 
-8.4800000000000004

>  <m_primary>  (29) 
energy

$$$$
29:0
     RDKit          3D

 48 50  0  0  0  0  0  0  0  0999 V2000
   56.9270   23.8460   47.9980 C   0  0  0  0  0  0  0  0  0  0  0  0
   57.7690   23.3350   46.9690 O   0  0  0  0  0  0  0  0  0  0  0  0
   57.3910   23.1780   45.6280 C   0  0  0  0  0  0  0  0  0  0  0  0
   56.9630   21.9280   45.1330 C   0  0  0  0  0  0  0  0  0  0  0  0
   56.5410   21.7930   43.8090 C   0  0  0  0  0  0  0  0  0  0  0  0
   56.5360   22.8990   42.9610 C   0  0  0  0  0  0  0  0  0  0  0  0
   56.9620   24.1410   43.4330 C   0  0  0  0  0  0  0  0  0  0  0  0
   57.4100   24.2940   44.7520 C   0  0  0  0  0  0  0  0  0  0  0  0
   57.8460   25.6050   45.1490 N   0  0  0  0  0  0  0  0  0  0  0  0
   56.9480   26.7900   46.0460 S   0  0  0  0  0  0  0  0  0  0  0  0
   57.4270   26.8120   47.4700 O   0  0  0  0  0  0  0  0  0  0  0  0
   55.4840   26.4540   45.9920 O   0  0  0  0  0  0  0  0  0  0  0  0
   57.2000   28.3900   45.3460 C   0  0  0  0  0  0  0  0  0  0  0  0
   56.1080   29.2100   45.0340 C   0  0  0  0  0  0  0  0  0  0  0  0
   56.3070   30.4420   44.4940 N   0  0  0  0  0  0  0  0  0  0  0  0
   57.5540   30.9210   44.2270 C   0  0  0  0  0  0  0  0  0  0  0  0
   57.7090   32.2450   43.6840 N   0  0  0  0  0  0  0  0  0  0  0  0
   57.3260   33.2460   44.6910 C   0  0  0  0  0  0  0  0  0  0  0  0
   58.5210   34.1180   45.1100 C   0  0  0  0  0  0  0  0  0  0  0  0
   58.9180   33.8780   46.5430 C   0  0  0  0  0  0  0  0  0  0  0  0
   58.2670   32.8960   47.3090 C   0  0  0  0  0  0  0  0  0  0  0  0
   58.6550   32.6600   48.6300 C   0  0  0  0  0  0  0  0  0  0  0  0
   59.6980   33.3990   49.1970 C   0  0  0  0  0  0  0  0  0  0  0  0
   60.3560   34.3740   48.4400 C   0  0  0  0  0  0  0  0  0  0  0  0
   59.9700   34.6120   47.1170 C   0  0  0  0  0  0  0  0  0  0  0  0
   58.6760   30.1350   44.5310 C   0  0  0  0  0  0  0  0  0  0  0  0
   58.4970   28.8660   45.0860 C   0  0  0  0  0  0  0  0  0  0  0  0
   59.5060   28.1570   45.3520 O   0  0  0  0  0  0  0  0  0  0  0  0
   57.3507   23.5888   48.9800 H   0  0  0  0  0  0  0  0  0  0  0  0
   56.8560   24.9397   47.9043 H   0  0  0  0  0  0  0  0  0  0  0  0
   55.9240   23.4041   47.9043 H   0  0  0  0  0  0  0  0  0  0  0  0
   56.9618   21.0510   45.7969 H   0  0  0  0  0  0  0  0  0  0  0  0
   56.2120   20.8124   43.4347 H   0  0  0  0  0  0  0  0  0  0  0  0
   56.1964   22.7928   41.9201 H   0  0  0  0  0  0  0  0  0  0  0  0
   56.9460   25.0116   42.7609 H   0  0  0  0  0  0  0  0  0  0  0  0
   55.0846   28.8556   45.2267 H   0  0  0  0  0  0  0  0  0  0  0  0
   58.7030   32.3930   43.3880 H   0  0  0  0  0  0  0  0  0  0  0  0
   57.0950   32.3340   42.8410 H   0  0  0  0  0  0  0  0  0  0  0  0
   56.5427   33.8934   44.2700 H   0  0  0  0  0  0  0  0  0  0  0  0
   56.9612   32.7137   45.5818 H   0  0  0  0  0  0  0  0  0  0  0  0
   59.3770   33.8838   44.4601 H   0  0  0  0  0  0  0  0  0  0  0  0
   58.2240   35.1725   45.0112 H   0  0  0  0  0  0  0  0  0  0  0  0
   57.4479   32.3103   46.8662 H   0  0  0  0  0  0  0  0  0  0  0  0
   58.1394   31.8918   49.2250 H   0  0  0  0  0  0  0  0  0  0  0  0
   60.0009   33.2136   50.2381 H   0  0  0  0  0  0  0  0  0  0  0  0
   61.1776   34.9540   48.8856 H   0  0  0  0  0  0  0  0  0  0  0  0
   60.4920   35.3769   46.5233 H   0  0  0  0  0  0  0  0  0  0  0  0
   59.6890   30.5156   44.3336 H   0  0  0  0  0  0  0  0  0  0  0  0
  1  2  1  0
  2  3  1  0
  3  4  2  0
  4  5  1  0
  5  6  2  0
  6  7  1  0
  7  8  2  0
  8  9  1  0
  9 10  1  0
 10 11  2  0
 10 12  2  0
 10 13  1  0
 13 14  2  0
 14 15  1  0
 15 16  1  0
 16 17  1  0
 17 18  1  0
 18 19  1  0
 19 20  1  0
 20 21  2  0
 21 22  1  0
 22 23  2  0
 23 24  1  0
 24 25  2  0
 16 26  2  0
 26 27  1  0
 27 28  2  0
  8  3  1  0
 27 13  1  0
 25 20  1  0
  1 29  1  0
  1 30  1  0
  1 31  1  0
  4 32  1  0
  5 33  1  0
  6 34  1  0
  7 35  1  0
 14 36  1  0
 17 37  1  0
 17 38  1  0
 18 39  1  0
 18 40  1  0
 19 41  1  0
 19 42  1  0
 21 43  1  0
 22 44  1  0
 23 45  1  0
 24 46  1  0
 25 47  1  0
 26 48  1  0
M  CHG  3   9  -1  15  -1  17   1
M  END
>  <UniqueID>  (30) 
26

>  <SMILES>  (30) 
COc1ccccc1[N-]S(=O)(=O)c1c[n-]c([NH2+]CCc2ccccc2)cc1=O

>  <Energy>  (30) 
57.29440757187208

>  <Genealogy>  (30) 
COc1ccccc1[N-]S(=O)(=O)c1c[n-]c([NH2+]CCc2ccccc2)cc1=O (protonated)
COc1ccccc1[N-]S(=O)(=O)c1c[n-]c([NH2+]CCc2ccccc2)cc1=O (3D coordinates assigned)
COc1ccccc1[N-]S(=O)(=O)c1c[n-]c([NH2+]CCc2ccccc2)cc1=O (optimized conformer: 57.29440757187208 kcal/mol)

>  <smiles>  (30) 
COc1ccccc1NS(=O)(=O)c1c[nH]c(NCCc2ccccc2)cc1=O

>  <score_type>  (30) 
oracle

>  <origin>  (30) 
adg

>  <m_score__min__energy>  (30) 
-10.289999999999999

>  <m_primary>  (30) 
energy

$$$$
30:0
     RDKit          3D

 61 64  0  0  0  0  0  0  0  0999 V2000
   51.1720   23.9120   52.2540 C   0  0  0  0  0  0  0  0  0  0  0  0
   51.1480   22.7770   51.3920 O   0  0  0  0  0  0  0  0  0  0  0  0
   52.0040   22.5980   50.2950 C   0  0  0  0  0  0  0  0  0  0  0  0
   51.4340   22.3780   49.0370 C   0  0  0  0  0  0  0  0  0  0  0  0
   52.2440   22.1950   47.9120 C   0  0  0  0  0  0  0  0  0  0  0  0
   53.6410   22.2260   48.0320 C   0  0  0  0  0  0  0  0  0  0  0  0
   54.5150   22.0640   46.8140 C   0  0  0  0  0  0  0  0  0  0  0  0
   55.5340   23.1320   46.7650 N   0  0  0  0  0  0  0  0  0  0  0  0
   56.8210   22.8940   47.1740 C   0  0  0  0  0  0  0  0  0  0  0  0
   57.1720   21.7510   47.5730 O   0  0  0  0  0  0  0  0  0  0  0  0
   57.7410   23.8900   47.1520 N   0  0  0  0  0  0  0  0  0  0  0  0
   57.4080   25.1300   46.7260 C   0  0  0  0  0  0  0  0  0  0  0  0
   58.3080   26.0710   46.7410 N   0  0  0  0  0  0  0  0  0  0  0  0
   58.1300   27.4430   46.3520 C   0  0  0  0  0  0  0  0  0  0  0  0
   58.3940   28.4470   47.2910 C   0  0  0  0  0  0  0  0  0  0  0  0
   58.2620   29.7940   46.9450 C   0  0  0  0  0  0  0  0  0  0  0  0
   57.8730   30.1650   45.6450 C   0  0  0  0  0  0  0  0  0  0  0  0
   57.7340   31.5990   45.2950 C   0  0  0  0  0  0  0  0  0  0  0  0
   56.6250   32.0230   44.8680 O   0  0  0  0  0  0  0  0  0  0  0  0
   58.8420   32.5070   45.4160 N   0  0  0  0  0  0  0  0  0  0  0  0
   58.7290   33.9300   45.1030 C   0  0  0  0  0  0  0  0  0  0  0  0
   59.6900   34.7670   45.9570 C   0  0  0  0  0  0  0  0  0  0  0  0
   59.7740   34.2470   47.3990 C   0  0  0  0  0  0  0  0  0  0  0  0
   61.1920   33.8820   47.7460 C   0  0  0  0  0  0  0  0  0  0  0  0
   62.0950   33.5120   46.7350 C   0  0  0  0  0  0  0  0  0  0  0  0
   63.4220   33.2050   47.0540 C   0  0  0  0  0  0  0  0  0  0  0  0
   63.8580   33.2760   48.3800 C   0  0  0  0  0  0  0  0  0  0  0  0
   62.9690   33.6570   49.3890 C   0  0  0  0  0  0  0  0  0  0  0  0
   61.6420   33.9640   49.0750 C   0  0  0  0  0  0  0  0  0  0  0  0
   57.6550   29.1560   44.6900 C   0  0  0  0  0  0  0  0  0  0  0  0
   57.7880   27.8080   45.0380 C   0  0  0  0  0  0  0  0  0  0  0  0
   56.1330   25.3790   46.3350 N   0  0  0  0  0  0  0  0  0  0  0  0
   55.2010   24.3960   46.3480 C   0  0  0  0  0  0  0  0  0  0  0  0
   54.0270   24.6650   45.9720 O   0  0  0  0  0  0  0  0  0  0  0  0
   54.2160   22.4500   49.2930 C   0  0  0  0  0  0  0  0  0  0  0  0
   53.4060   22.6330   50.4170 C   0  0  0  0  0  0  0  0  0  0  0  0
   51.1649   23.5769   53.3017 H   0  0  0  0  0  0  0  0  0  0  0  0
   52.0827   24.4985   52.0628 H   0  0  0  0  0  0  0  0  0  0  0  0
   50.2869   24.5365   52.0628 H   0  0  0  0  0  0  0  0  0  0  0  0
   50.3394   22.3487   48.9317 H   0  0  0  0  0  0  0  0  0  0  0  0
   51.7831   22.0258   46.9277 H   0  0  0  0  0  0  0  0  0  0  0  0
   55.0168   21.0860   46.8556 H   0  0  0  0  0  0  0  0  0  0  0  0
   53.8869   22.1289   45.9133 H   0  0  0  0  0  0  0  0  0  0  0  0
   58.7078   28.1732   48.3091 H   0  0  0  0  0  0  0  0  0  0  0  0
   58.4641   30.5718   47.6961 H   0  0  0  0  0  0  0  0  0  0  0  0
   59.7790   32.1530   45.7140 H   0  0  0  0  0  0  0  0  0  0  0  0
   58.9681   34.0831   44.0403 H   0  0  0  0  0  0  0  0  0  0  0  0
   57.7002   34.2527   45.3211 H   0  0  0  0  0  0  0  0  0  0  0  0
   60.6925   34.7283   45.5059 H   0  0  0  0  0  0  0  0  0  0  0  0
   59.3090   35.7984   45.9878 H   0  0  0  0  0  0  0  0  0  0  0  0
   59.4230   35.0301   48.0872 H   0  0  0  0  0  0  0  0  0  0  0  0
   59.1432   33.3505   47.4912 H   0  0  0  0  0  0  0  0  0  0  0  0
   61.7573   33.4636   45.6892 H   0  0  0  0  0  0  0  0  0  0  0  0
   64.1231   32.9074   46.2603 H   0  0  0  0  0  0  0  0  0  0  0  0
   64.9011   33.0320   48.6296 H   0  0  0  0  0  0  0  0  0  0  0  0
   63.3142   33.7153   50.4318 H   0  0  0  0  0  0  0  0  0  0  0  0
   60.9474   34.2709   49.8708 H   0  0  0  0  0  0  0  0  0  0  0  0
   57.3777   29.4292   43.6612 H   0  0  0  0  0  0  0  0  0  0  0  0
   57.6241   27.0287   44.2792 H   0  0  0  0  0  0  0  0  0  0  0  0
   55.3106   22.4817   49.3969 H   0  0  0  0  0  0  0  0  0  0  0  0
   53.8659   22.8051   51.4013 H   0  0  0  0  0  0  0  0  0  0  0  0
  1  2  1  0
  2  3  1  0
  3  4  2  0
  4  5  1  0
  5  6  2  0
  6  7  1  0
  7  8  1  0
  8  9  1  0
  9 10  2  0
  9 11  1  0
 11 12  1  0
 12 13  2  3
 13 14  1  0
 14 15  2  0
 15 16  1  0
 16 17  2  0
 17 18  1  0
 18 19  2  0
 18 20  1  0
 20 21  1  0
 21 22  1  0
 22 23  1  0
 23 24  1  0
 24 25  2  0
 25 26  1  0
 26 27  2  0
 27 28  1  0
 28 29  2  0
 17 30  1  0
 30 31  2  0
 12 32  1  0
 32 33  1  0
 33 34  2  0
  6 35  1  0
 35 36  2  0
 36  3  1  0
 33  8  1  0
 31 14  1  0
 29 24  1  0
  1 37  1  0
  1 38  1  0
  1 39  1  0
  4 40  1  0
  5 41  1  0
  7 42  1  0
  7 43  1  0
 15 44  1  0
 16 45  1  0
 20 46  1  0
 21 47  1  0
 21 48  1  0
 22 49  1  0
 22 50  1  0
 23 51  1  0
 23 52  1  0
 25 53  1  0
 26 54  1  0
 27 55  1  0
 28 56  1  0
 29 57  1  0
 30 58  1  0
 31 59  1  0
 35 60  1  0
 36 61  1  0
M  CHG  2  11  -1  32  -1
M  END
>  <UniqueID>  (31) 
27

>  <SMILES>  (31) 
COc1ccc(Cn2c(=O)[n-]c(=Nc3ccc(C(=O)NCCCc4ccccc4)cc3)[n-]c2=O)cc1

>  <Energy>  (31) 
70.47387849471843

>  <Genealogy>  (31) 
COc1ccc(Cn2c(=O)[n-]c(=Nc3ccc(C(=O)NCCCc4ccccc4)cc3)[n-]c2=O)cc1 (protonated)
COc1ccc(Cn2c(=O)[n-]c(=Nc3ccc(C(=O)NCCCc4ccccc4)cc3)[n-]c2=O)cc1 (3D coordinates assigned)
COc1ccc(Cn2c(=O)[n-]c(=Nc3ccc(C(=O)NCCCc4ccccc4)cc3)[n-]c2=O)cc1 (optimized conformer: 70.47387849471843 kcal/mol)

>  <smiles>  (31) 
COc1ccc(Cn2c(=O)[nH]c(=Nc3ccc(C(=O)NCCCc4ccccc4)cc3)[nH]c2=O)cc1

>  <score_type>  (31) 
oracle

>  <origin>  (31) 
adg

>  <m_score__min__energy>  (31) 
-11.24

>  <m_primary>  (31) 
energy

$$$$
31:0
     RDKit          3D

 47 50  0  0  0  0  0  0  0  0999 V2000
   56.7900   27.2920   53.4810 O   0  0  0  0  0  0  0  0  0  0  0  0
   57.5210   28.2200   53.9190 C   0  0  0  0  0  0  0  0  0  0  0  0
   56.8900   29.4070   54.5780 C   0  0  0  0  0  0  0  0  0  0  0  0
   55.8270   29.9540   53.7210 N   0  0  0  0  0  0  0  0  0  0  0  0
   56.1370   30.3360   52.4450 C   0  0  0  0  0  0  0  0  0  0  0  0
   55.1920   30.8690   51.6310 N   0  0  0  0  0  0  0  0  0  0  0  0
   53.9170   31.0480   52.0580 C   0  0  0  0  0  0  0  0  0  0  0  0
   52.9620   31.6010   51.1960 C   0  0  0  0  0  0  0  0  0  0  0  0
   51.6490   31.7920   51.6380 C   0  0  0  0  0  0  0  0  0  0  0  0
   50.7020   32.3410   50.7820 O   0  0  0  0  0  0  0  0  0  0  0  0
   51.2880   31.4310   52.9400 C   0  0  0  0  0  0  0  0  0  0  0  0
   52.2350   30.8790   53.8060 C   0  0  0  0  0  0  0  0  0  0  0  0
   53.5590   30.6820   53.3700 C   0  0  0  0  0  0  0  0  0  0  0  0
   54.5530   30.1310   54.2000 C   0  0  0  0  0  0  0  0  0  0  0  0
   54.2680   29.8020   55.3860 O   0  0  0  0  0  0  0  0  0  0  0  0
   58.9370   28.2070   53.7020 N   0  0  0  0  0  0  0  0  0  0  0  0
   59.6130   28.3530   52.4440 C   0  0  0  0  0  0  0  0  0  0  0  0
   60.6110   27.4290   52.1100 C   0  0  0  0  0  0  0  0  0  0  0  0
   61.2800   27.5230   50.8880 C   0  0  0  0  0  0  0  0  0  0  0  0
   60.9470   28.5320   49.9810 C   0  0  0  0  0  0  0  0  0  0  0  0
   59.9310   29.4540   50.2910 C   0  0  0  0  0  0  0  0  0  0  0  0
   59.5360   30.4880   49.3790 N   0  0  0  0  0  0  0  0  0  0  0  0
   59.2150   30.2650   47.6870 S   0  0  0  0  0  0  0  0  0  0  0  0
   58.1530   29.2130   47.5340 O   0  0  0  0  0  0  0  0  0  0  0  0
   60.4760   29.7900   47.0210 O   0  0  0  0  0  0  0  0  0  0  0  0
   58.7050   31.7790   46.9310 C   0  0  0  0  0  0  0  0  0  0  0  0
   58.9520   32.9980   47.5840 C   0  0  0  0  0  0  0  0  0  0  0  0
   58.5540   34.2060   47.0080 C   0  0  0  0  0  0  0  0  0  0  0  0
   57.9130   34.2120   45.7680 C   0  0  0  0  0  0  0  0  0  0  0  0
   57.6750   33.0090   45.1000 C   0  0  0  0  0  0  0  0  0  0  0  0
   58.0690   31.7920   45.6690 C   0  0  0  0  0  0  0  0  0  0  0  0
   57.7680   30.3150   44.7610 Cl  0  0  0  0  0  0  0  0  0  0  0  0
   59.2630   29.3520   51.5180 C   0  0  0  0  0  0  0  0  0  0  0  0
   56.4587   29.1013   55.5426 H   0  0  0  0  0  0  0  0  0  0  0  0
   57.6563   30.1795   54.7392 H   0  0  0  0  0  0  0  0  0  0  0  0
   57.1649   30.2095   52.0744 H   0  0  0  0  0  0  0  0  0  0  0  0
   53.2445   31.8851   50.1715 H   0  0  0  0  0  0  0  0  0  0  0  0
   50.2541   31.5823   53.2836 H   0  0  0  0  0  0  0  0  0  0  0  0
   51.9459   30.5980   54.8295 H   0  0  0  0  0  0  0  0  0  0  0  0
   60.8693   26.6246   52.8144 H   0  0  0  0  0  0  0  0  0  0  0  0
   62.0713   26.8007   50.6388 H   0  0  0  0  0  0  0  0  0  0  0  0
   61.4807   28.6056   49.0220 H   0  0  0  0  0  0  0  0  0  0  0  0
   59.4635   33.0009   48.5578 H   0  0  0  0  0  0  0  0  0  0  0  0
   58.7458   35.1540   47.5319 H   0  0  0  0  0  0  0  0  0  0  0  0
   57.5955   35.1639   45.3173 H   0  0  0  0  0  0  0  0  0  0  0  0
   57.1747   33.0176   44.1204 H   0  0  0  0  0  0  0  0  0  0  0  0
   58.4568   30.0602   51.7597 H   0  0  0  0  0  0  0  0  0  0  0  0
  1  2  2  0
  2  3  1  0
  3  4  1  0
  4  5  1  0
  5  6  2  0
  6  7  1  0
  7  8  2  0
  8  9  1  0
  9 10  1  0
  9 11  2  0
 11 12  1  0
 12 13  2  0
 13 14  1  0
 14 15  2  0
  2 16  1  0
 16 17  1  0
 17 18  2  0
 18 19  1  0
 19 20  2  0
 20 21  1  0
 21 22  1  0
 22 23  1  0
 23 24  2  0
 23 25  2  0
 23 26  1  0
 26 27  2  0
 27 28  1  0
 28 29  2  0
 29 30  1  0
 30 31  2  0
 31 32  1  0
 21 33  2  0
 14  4  1  0
 33 17  1  0
 13  7  1  0
 31 26  1  0
  3 34  1  0
  3 35  1  0
  5 36  1  0
  8 37  1  0
 11 38  1  0
 12 39  1  0
 18 40  1  0
 19 41  1  0
 20 42  1  0
 27 43  1  0
 28 44  1  0
 29 45  1  0
 30 46  1  0
 33 47  1  0
M  CHG  3  10  -1  16  -1  22  -1
M  END
>  <UniqueID>  (32) 
28

>  <SMILES>  (32) 
O=C(Cn1cnc2cc([O-])ccc2c1=O)[N-]c1cccc([N-]S(=O)(=O)c2ccccc2Cl)c1

>  <Energy>  (32) 
65.53380436239466

>  <Genealogy>  (32) 
O=C(Cn1cnc2cc([O-])ccc2c1=O)[N-]c1cccc([N-]S(=O)(=O)c2ccccc2Cl)c1 (protonated)
O=C(Cn1cnc2cc([O-])ccc2c1=O)[N-]c1cccc([N-]S(=O)(=O)c2ccccc2Cl)c1 (3D coordinates assigned)
O=C(Cn1cnc2cc([O-])ccc2c1=O)[N-]c1cccc([N-]S(=O)(=O)c2ccccc2Cl)c1 (optimized conformer: 65.53380436239466 kcal/mol)

>  <smiles>  (32) 
O=C(Cn1cnc2cc(O)ccc2c1=O)Nc1cccc(NS(=O)(=O)c2ccccc2Cl)c1

>  <score_type>  (32) 
oracle

>  <origin>  (32) 
adg

>  <m_score__min__energy>  (32) 
-14.01

>  <m_primary>  (32) 
energy

$$$$
32:0
     RDKit          3D

 60 65  0  0  0  0  0  0  0  0999 V2000
   59.6996   35.1980   45.9977 H   0  0  0  0  0  0  0  0  0  0  0  0
   58.9800   34.4200   45.7030 C   0  0  0  0  0  0  0  0  0  0  0  0
   57.9760   34.0250   46.5900 C   0  0  0  0  0  0  0  0  0  0  0  0
   57.9042   34.4944   47.5822 H   0  0  0  0  0  0  0  0  0  0  0  0
   57.0620   33.0340   46.2190 C   0  0  0  0  0  0  0  0  0  0  0  0
   56.2639   32.7354   46.9145 H   0  0  0  0  0  0  0  0  0  0  0  0
   57.1610   32.4180   44.9580 C   0  0  0  0  0  0  0  0  0  0  0  0
   56.2300   31.4100   44.5370 N   0  0  0  0  0  0  0  0  0  0  0  0
   56.3000   30.0110   44.8400 C   0  0  0  0  0  0  0  0  0  0  0  0
   55.2340   29.3430   44.8510 O   0  0  0  0  0  0  0  0  0  0  0  0
   57.5910   29.3260   45.0840 C   0  0  0  0  0  0  0  0  0  0  0  0
   58.0380   28.3090   44.2250 C   0  0  0  0  0  0  0  0  0  0  0  0
   57.4256   28.0160   43.3595 H   0  0  0  0  0  0  0  0  0  0  0  0
   59.2560   27.6670   44.4630 C   0  0  0  0  0  0  0  0  0  0  0  0
   59.6008   26.8749   43.7821 H   0  0  0  0  0  0  0  0  0  0  0  0
   60.0360   28.0280   45.5620 C   0  0  0  0  0  0  0  0  0  0  0  0
   60.9979   27.5250   45.7399 H   0  0  0  0  0  0  0  0  0  0  0  0
   59.5980   29.0310   46.4420 C   0  0  0  0  0  0  0  0  0  0  0  0
   60.4080   29.4280   47.5640 N   0  0  0  0  0  0  0  0  0  0  0  0
   61.2850   30.5980   47.4860 C   0  0  0  0  0  0  0  0  0  0  0  0
   61.3688   30.9176   46.4368 H   0  0  0  0  0  0  0  0  0  0  0  0
   62.2748   30.3260   47.8814 H   0  0  0  0  0  0  0  0  0  0  0  0
   60.7260   31.7410   48.3120 C   0  0  0  0  0  0  0  0  0  0  0  0
   61.1750   33.0730   48.1100 C   0  0  0  0  0  0  0  0  0  0  0  0
   62.2320   33.4080   47.1230 C   0  0  0  0  0  0  0  0  0  0  0  0
   61.9060   33.8980   46.0090 O   0  0  0  0  0  0  0  0  0  0  0  0
   63.6100   33.0790   47.3520 N   0  0  0  0  0  0  0  0  0  0  0  0
   64.1370   32.7220   48.4870 C   0  0  0  0  0  0  0  0  0  0  0  0
   65.1060   33.4130   49.0660 O   0  0  0  0  0  0  0  0  0  0  0  0
   65.3660   32.7870   50.1860 C   0  0  0  0  0  0  0  0  0  0  0  0
   66.2990   33.1070   51.1700 C   0  0  0  0  0  0  0  0  0  0  0  0
   66.9580   33.9819   51.0692 H   0  0  0  0  0  0  0  0  0  0  0  0
   66.3660   32.2670   52.2990 C   0  0  0  0  0  0  0  0  0  0  0  0
   67.0881   32.4853   53.0996 H   0  0  0  0  0  0  0  0  0  0  0  0
   65.5110   31.1440   52.4110 C   0  0  0  0  0  0  0  0  0  0  0  0
   65.5736   30.4960   53.2977 H   0  0  0  0  0  0  0  0  0  0  0  0
   64.5810   30.8510   51.3950 C   0  0  0  0  0  0  0  0  0  0  0  0
   63.9095   29.9828   51.4685 H   0  0  0  0  0  0  0  0  0  0  0  0
   64.5440   31.7030   50.2930 C   0  0  0  0  0  0  0  0  0  0  0  0
   63.7470   31.6420   49.2170 N   0  0  0  0  0  0  0  0  0  0  0  0
   62.9880   30.9520   49.0350 H   0  0  0  0  0  0  0  0  0  0  0  0
   60.6170   34.1130   48.8680 C   0  0  0  0  0  0  0  0  0  0  0  0
   60.9475   35.1484   48.6983 H   0  0  0  0  0  0  0  0  0  0  0  0
   59.6490   33.8480   49.8330 C   0  0  0  0  0  0  0  0  0  0  0  0
   59.2175   34.6739   50.4175 H   0  0  0  0  0  0  0  0  0  0  0  0
   59.2250   32.5410   50.0610 C   0  0  0  0  0  0  0  0  0  0  0  0
   58.4628   32.3416   50.8287 H   0  0  0  0  0  0  0  0  0  0  0  0
   59.7600   31.4780   49.3220 C   0  0  0  0  0  0  0  0  0  0  0  0
   59.1990   30.0900   49.5600 C   0  0  0  0  0  0  0  0  0  0  0  0
   58.1813   30.0458   49.1449 H   0  0  0  0  0  0  0  0  0  0  0  0
   59.2037   29.9113   50.6454 H   0  0  0  0  0  0  0  0  0  0  0  0
   60.0410   28.9940   48.9080 C   0  0  0  0  0  0  0  0  0  0  0  0
   59.4579   28.0631   48.8507 H   0  0  0  0  0  0  0  0  0  0  0  0
   60.9467   28.8103   49.5046 H   0  0  0  0  0  0  0  0  0  0  0  0
   58.3750   29.6720   46.1980 C   0  0  0  0  0  0  0  0  0  0  0  0
   58.0250   30.4550   46.8867 H   0  0  0  0  0  0  0  0  0  0  0  0
   58.1600   32.8330   44.0680 C   0  0  0  0  0  0  0  0  0  0  0  0
   58.2291   32.3749   43.0703 H   0  0  0  0  0  0  0  0  0  0  0  0
   59.0700   33.8270   44.4420 C   0  0  0  0  0  0  0  0  0  0  0  0
   59.8577   34.1421   43.7418 H   0  0  0  0  0  0  0  0  0  0  0  0
  1  2  1  0
  2  3  2  0
  3  4  1  0
  3  5  1  0
  5  6  1  0
  5  7  2  0
  7  8  1  0
  8  9  1  0
  9 10  2  0
  9 11  1  0
 11 12  2  0
 12 13  1  0
 12 14  1  0
 14 15  1  0
 14 16  2  0
 16 17  1  0
 16 18  1  0
 18 19  1  0
 19 20  1  0
 20 21  1  0
 20 22  1  0
 20 23  1  0
 23 24  2  0
 24 25  1  0
 25 26  2  0
 25 27  1  0
 27 28  2  0
 28 29  1  0
 29 30  1  0
 30 31  2  0
 31 32  1  0
 31 33  1  0
 33 34  1  0
 33 35  2  0
 35 36  1  0
 35 37  1  0
 37 38  1  0
 37 39  2  0
 39 40  1  0
 40 41  1  0
 24 42  1  0
 42 43  1  0
 42 44  2  0
 44 45  1  0
 44 46  1  0
 46 47  1  0
 46 48  2  0
 48 49  1  0
 49 50  1  0
 49 51  1  0
 49 52  1  0
 52 53  1  0
 52 54  1  0
 18 55  2  0
 55 56  1  0
  7 57  1  0
 57 58  1  0
 57 59  2  0
 59 60  1  0
 59  2  1  0
 55 11  1  0
 52 19  1  0
 48 23  1  0
 40 28  1  0
 39 30  1  0
M  CHG  1   8  -1
M  END
>  <UniqueID>  (33) 
29

>  <SMILES>  (33) 
O=C([N-]c1ccccc1)c1cccc(N2CCc3cccc(C(=O)/N=c4\[nH]c5ccccc5o4)c3C2)c1

>  <Energy>  (33) 
132.14963924009376

>  <Genealogy>  (33) 
O=C([N-]c1ccccc1)c1cccc(N2CCc3cccc(C(=O)N=c4[nH]c5ccccc5o4)c3C2)c1 (protonated)
O=C([N-]c1ccccc1)c1cccc(N2CCc3cccc(C(=O)/N=c4\[nH]c5ccccc5o4)c3C2)c1 (cis-trans isomerization)
O=C([N-]c1ccccc1)c1cccc(N2CCc3cccc(C(=O)/N=c4\[nH]c5ccccc5o4)c3C2)c1 (3D coordinates assigned)
O=C([N-]c1ccccc1)c1cccc(N2CCc3cccc(C(=O)/N=c4\[nH]c5ccccc5o4)c3C2)c1 (nonaromatic ring conformer: 132.14963924009376 kcal/mol)

>  <smiles>  (33) 
O=C(Nc1ccccc1)c1cccc(N2CCc3cccc(C(=O)N=c4[nH]c5ccccc5o4)c3C2)c1

>  <score_type>  (33) 
oracle

>  <origin>  (33) 
adg

>  <m_score__min__energy>  (33) 
-13.06

>  <m_primary>  (33) 
energy

$$$$
33:0
     RDKit          3D

 36 38  0  0  0  0  0  0  0  0999 V2000
   55.1510   27.5180   45.4230 H   0  0  0  0  0  0  0  0  0  0  0  0
   54.9860   26.6940   45.9890 O   0  0  0  0  0  0  0  0  0  0  0  0
   55.9900   25.7790   46.3060 C   0  0  0  0  0  0  0  0  0  0  0  0
   55.6500   24.6530   46.9850 N   0  0  0  0  0  0  0  0  0  0  0  0
   56.5790   23.7190   47.3160 C   0  0  0  0  0  0  0  0  0  0  0  0
   56.1300   22.3770   48.1280 S   0  0  0  0  0  0  0  0  0  0  0  0
   57.8790   23.9060   46.9810 N   0  0  0  0  0  0  0  0  0  0  0  0
   58.2780   25.0140   46.3060 C   0  0  0  0  0  0  0  0  0  0  0  0
   59.5010   25.1650   46.0420 O   0  0  0  0  0  0  0  0  0  0  0  0
   57.3320   25.9850   45.9270 C   0  0  0  0  0  0  0  0  0  0  0  0
   57.7380   27.2100   45.1980 C   0  0  0  0  0  0  0  0  0  0  0  0
   57.9610   27.1266   44.1241 H   0  0  0  0  0  0  0  0  0  0  0  0
   57.8450   28.3810   45.7610 N   0  0  0  0  0  0  0  0  0  0  0  0
   58.7520   28.7390   46.8150 C   0  0  0  0  0  0  0  0  0  0  0  0
   58.8900   27.9420   47.9620 C   0  0  0  0  0  0  0  0  0  0  0  0
   58.2976   27.0207   48.0636 H   0  0  0  0  0  0  0  0  0  0  0  0
   59.7760   28.3140   48.9740 C   0  0  0  0  0  0  0  0  0  0  0  0
   59.8772   27.6852   49.8709 H   0  0  0  0  0  0  0  0  0  0  0  0
   60.5360   29.4820   48.8540 C   0  0  0  0  0  0  0  0  0  0  0  0
   61.6650   29.8800   50.1450 Cl  0  0  0  0  0  0  0  0  0  0  0  0
   60.4120   30.2840   47.7000 C   0  0  0  0  0  0  0  0  0  0  0  0
   61.1590   31.5510   47.5530 C   0  0  0  0  0  0  0  0  0  0  0  0
   62.3950   31.5050   47.3180 O   0  0  0  0  0  0  0  0  0  0  0  0
   60.5290   32.8380   47.6860 N   0  0  0  0  0  0  0  0  0  0  0  0
   59.5780   33.3220   46.9390 C   0  0  0  0  0  0  0  0  0  0  0  0
   58.2740   32.9750   47.1340 N   0  0  0  0  0  0  0  0  0  0  0  0
   57.2710   33.4650   46.3560 C   0  0  0  0  0  0  0  0  0  0  0  0
   56.2298   33.1669   46.5482 H   0  0  0  0  0  0  0  0  0  0  0  0
   57.5640   34.3460   45.3140 C   0  0  0  0  0  0  0  0  0  0  0  0
   56.5720   34.8400   44.5340 F   0  0  0  0  0  0  0  0  0  0  0  0
   58.8920   34.7110   45.0840 C   0  0  0  0  0  0  0  0  0  0  0  0
   59.1389   35.4026   44.2650 H   0  0  0  0  0  0  0  0  0  0  0  0
   59.9070   34.1970   45.8950 C   0  0  0  0  0  0  0  0  0  0  0  0
   60.9556   34.4768   45.7155 H   0  0  0  0  0  0  0  0  0  0  0  0
   59.5430   29.8840   46.6730 C   0  0  0  0  0  0  0  0  0  0  0  0
   59.4834   30.4763   45.7480 H   0  0  0  0  0  0  0  0  0  0  0  0
  1  2  1  0
  2  3  1  0
  3  4  1  0
  4  5  1  0
  5  6  2  0
  5  7  1  0
  7  8  1  0
  8  9  2  0
  8 10  1  0
 10 11  1  0
 11 12  1  0
 11 13  2  3
 13 14  1  0
 14 15  2  0
 15 16  1  0
 15 17  1  0
 17 18  1  0
 17 19  2  0
 19 20  1  0
 19 21  1  0
 21 22  1  0
 22 23  2  0
 22 24  1  0
 24 25  2  0
 25 26  1  0
 26 27  1  0
 27 28  1  0
 27 29  2  0
 29 30  1  0
 29 31  1  0
 31 32  1  0
 31 33  2  0
 33 34  1  0
 21 35  2  0
 35 36  1  0
 10  3  2  0
 35 14  1  0
 33 25  1  0
M  CHG  3   4  -1   7  -1  26  -1
M  END
>  <UniqueID>  (34) 
30

>  <SMILES>  (34) 
O=C(/N=c1/ccc(F)c[n-]1)c1cc(N=Cc2c(O)[n-]c(=S)[n-]c2=O)ccc1Cl

>  <Energy>  (34) 
64.07616586255676

>  <Genealogy>  (34) 
O=C(N=c1ccc(F)c[n-]1)c1cc(N=Cc2c(O)[n-]c(=S)[n-]c2=O)ccc1Cl (protonated)
O=C(/N=c1/ccc(F)c[n-]1)c1cc(N=Cc2c(O)[n-]c(=S)[n-]c2=O)ccc1Cl (cis-trans isomerization)
O=C(/N=c1/ccc(F)c[n-]1)c1cc(N=Cc2c(O)[n-]c(=S)[n-]c2=O)ccc1Cl (3D coordinates assigned)
O=C(/N=c1/ccc(F)c[n-]1)c1cc(N=Cc2c(O)[n-]c(=S)[n-]c2=O)ccc1Cl (optimized conformer: 64.07616586255676 kcal/mol)

>  <smiles>  (34) 
O=C(N=c1ccc(F)c[nH]1)c1cc(N=Cc2c(O)[nH]c(=S)[nH]c2=O)ccc1Cl

>  <score_type>  (34) 
oracle

>  <origin>  (34) 
adg

>  <m_score__min__energy>  (34) 
-13.74

>  <m_primary>  (34) 
energy

$$$$
34:0
     RDKit          3D

 57 60  0  0  0  0  0  0  0  0999 V2000
   54.6370   26.9920   54.0270 C   0  0  0  0  0  0  0  0  0  0  0  0
   54.2870   28.3680   54.1390 O   0  0  0  0  0  0  0  0  0  0  0  0
   53.6710   29.1190   53.1240 C   0  0  0  0  0  0  0  0  0  0  0  0
   52.3400   28.8790   52.7260 C   0  0  0  0  0  0  0  0  0  0  0  0
   51.7600   29.6350   51.7050 C   0  0  0  0  0  0  0  0  0  0  0  0
   52.4970   30.6340   51.0690 C   0  0  0  0  0  0  0  0  0  0  0  0
   53.8150   30.8840   51.4540 C   0  0  0  0  0  0  0  0  0  0  0  0
   54.4090   30.1380   52.4850 C   0  0  0  0  0  0  0  0  0  0  0  0
   55.8410   30.4010   52.8720 C   0  0  0  0  0  0  0  0  0  0  0  0
   56.5400   31.0700   51.7770 N   0  0  0  0  0  0  0  0  0  0  0  0
   57.9710   31.1680   51.7250 C   0  0  0  0  0  0  0  0  0  0  0  0
   58.6660   30.7550   52.6930 O   0  0  0  0  0  0  0  0  0  0  0  0
   58.6500   31.8040   50.5810 C   0  0  0  0  0  0  0  0  0  0  0  0
   59.2970   33.3930   50.6600 S   0  0  0  0  0  0  0  0  0  0  0  0
   59.7890   33.3420   49.0660 C   0  0  0  0  0  0  0  0  0  0  0  0
   60.4150   34.2020   48.2510 N   0  0  0  0  0  0  0  0  0  0  0  0
   60.5270   33.5660   47.0840 N   0  0  0  0  0  0  0  0  0  0  0  0
   59.9660   32.3310   47.1880 C   0  0  0  0  0  0  0  0  0  0  0  0
   59.9340   31.3240   46.0820 C   0  0  0  0  0  0  0  0  0  0  0  0
   60.5960   30.0120   46.5260 C   0  0  0  0  0  0  0  0  0  0  0  0
   60.4050   28.8810   45.5010 C   0  0  0  0  0  0  0  0  0  0  0  0
   59.0200   28.2640   45.5920 C   0  0  0  0  0  0  0  0  0  0  0  0
   57.9230   29.0290   45.1540 C   0  0  0  0  0  0  0  0  0  0  0  0
   56.6300   28.5340   45.2910 C   0  0  0  0  0  0  0  0  0  0  0  0
   55.6470   29.2250   44.9110 O   0  0  0  0  0  0  0  0  0  0  0  0
   56.4300   27.2750   45.8510 C   0  0  0  0  0  0  0  0  0  0  0  0
   55.1460   26.7610   45.9980 O   0  0  0  0  0  0  0  0  0  0  0  0
   57.5320   26.5250   46.2620 C   0  0  0  0  0  0  0  0  0  0  0  0
   58.8040   27.0140   46.1380 N   0  0  0  0  0  0  0  0  0  0  0  0
   59.9250   26.1490   46.5370 C   0  0  0  0  0  0  0  0  0  0  0  0
   59.4980   32.1830   48.4760 C   0  0  0  0  0  0  0  0  0  0  0  0
   58.8690   31.2430   49.2970 C   0  0  0  0  0  0  0  0  0  0  0  0
   58.5180   29.8480   48.8700 C   0  0  0  0  0  0  0  0  0  0  0  0
   54.7472   26.5587   55.0320 H   0  0  0  0  0  0  0  0  0  0  0  0
   53.8466   26.4559   53.4812 H   0  0  0  0  0  0  0  0  0  0  0  0
   55.5875   26.8987   53.4812 H   0  0  0  0  0  0  0  0  0  0  0  0
   51.7546   28.0913   53.2228 H   0  0  0  0  0  0  0  0  0  0  0  0
   50.7203   29.4423   51.4019 H   0  0  0  0  0  0  0  0  0  0  0  0
   52.0387   31.2256   50.2628 H   0  0  0  0  0  0  0  0  0  0  0  0
   54.3925   31.6707   50.9464 H   0  0  0  0  0  0  0  0  0  0  0  0
   55.8650   31.0425   53.7653 H   0  0  0  0  0  0  0  0  0  0  0  0
   56.3386   29.4437   53.0866 H   0  0  0  0  0  0  0  0  0  0  0  0
   55.9660   31.6160   51.0960 H   0  0  0  0  0  0  0  0  0  0  0  0
   58.8884   31.1253   45.8042 H   0  0  0  0  0  0  0  0  0  0  0  0
   60.4870   31.7262   45.2203 H   0  0  0  0  0  0  0  0  0  0  0  0
   61.6734   30.1882   46.6606 H   0  0  0  0  0  0  0  0  0  0  0  0
   60.1179   29.6969   47.4652 H   0  0  0  0  0  0  0  0  0  0  0  0
   60.5468   29.2896   44.4896 H   0  0  0  0  0  0  0  0  0  0  0  0
   61.1438   28.0954   45.7177 H   0  0  0  0  0  0  0  0  0  0  0  0
   58.0879   30.0187   44.7031 H   0  0  0  0  0  0  0  0  0  0  0  0
   57.3760   25.5248   46.6925 H   0  0  0  0  0  0  0  0  0  0  0  0
   59.9817   26.1052   47.6347 H   0  0  0  0  0  0  0  0  0  0  0  0
   59.7671   25.1364   46.1373 H   0  0  0  0  0  0  0  0  0  0  0  0
   60.8644   26.5585   46.1373 H   0  0  0  0  0  0  0  0  0  0  0  0
   58.3602   29.2209   49.7599 H   0  0  0  0  0  0  0  0  0  0  0  0
   57.5972   29.8694   48.2685 H   0  0  0  0  0  0  0  0  0  0  0  0
   59.3392   29.4311   48.2685 H   0  0  0  0  0  0  0  0  0  0  0  0
  1  2  1  0
  2  3  1  0
  3  4  2  0
  4  5  1  0
  5  6  2  0
  6  7  1  0
  7  8  2  0
  8  9  1  0
  9 10  1  0
 10 11  1  0
 11 12  2  0
 11 13  1  0
 13 14  1  0
 14 15  1  0
 15 16  2  0
 16 17  1  0
 17 18  1  0
 18 19  1  0
 19 20  1  0
 20 21  1  0
 21 22  1  0
 22 23  2  0
 23 24  1  0
 24 25  2  0
 24 26  1  0
 26 27  1  0
 26 28  2  0
 28 29  1  0
 29 30  1  0
 18 31  2  0
 31 32  1  0
 32 33  1  0
  8  3  1  0
 32 13  2  0
 31 15  1  0
 29 22  1  0
  1 34  1  0
  1 35  1  0
  1 36  1  0
  4 37  1  0
  5 38  1  0
  6 39  1  0
  7 40  1  0
  9 41  1  0
  9 42  1  0
 10 43  1  0
 19 44  1  0
 19 45  1  0
 20 46  1  0
 20 47  1  0
 21 48  1  0
 21 49  1  0
 23 50  1  0
 28 51  1  0
 30 52  1  0
 30 53  1  0
 30 54  1  0
 33 55  1  0
 33 56  1  0
 33 57  1  0
M  CHG  2  17  -1  27  -1
M  END
>  <UniqueID>  (35) 
31

>  <SMILES>  (35) 
COc1ccccc1CNC(=O)c1sc2n[n-]c(CCCc3cc(=O)c([O-])cn3C)c2c1C

>  <Energy>  (35) 
138.6089107149402

>  <Genealogy>  (35) 
COc1ccccc1CNC(=O)c1sc2n[n-]c(CCCc3cc(=O)c([O-])cn3C)c2c1C (protonated)
COc1ccccc1CNC(=O)c1sc2n[n-]c(CCCc3cc(=O)c([O-])cn3C)c2c1C (3D coordinates assigned)
COc1ccccc1CNC(=O)c1sc2n[n-]c(CCCc3cc(=O)c([O-])cn3C)c2c1C (optimized conformer: 138.6089107149402 kcal/mol)

>  <smiles>  (35) 
COc1ccccc1CNC(=O)c1sc2n[nH]c(CCCc3cc(=O)c(O)cn3C)c2c1C

>  <score_type>  (35) 
oracle

>  <origin>  (35) 
adg

>  <m_score__min__energy>  (35) 
-13.289999999999999

>  <m_primary>  (35) 
energy

$$$$
35:0
     RDKit          3D

 49 51  0  0  0  0  0  0  0  0999 V2000
   59.9030   23.4330   45.9210 O   0  0  0  0  0  0  0  0  0  0  0  0
   58.8500   23.2650   45.2470 C   0  0  0  0  0  0  0  0  0  0  0  0
   58.4750   21.8810   44.8100 C   0  0  0  0  0  0  0  0  0  0  0  0
   58.2010   20.9460   45.9990 C   0  0  0  0  0  0  0  0  0  0  0  0
   56.9350   20.0800   45.8280 C   0  0  0  0  0  0  0  0  0  0  0  0
   55.9370   20.6270   44.7920 C   0  0  0  0  0  0  0  0  0  0  0  0
   55.5570   22.0230   45.0810 N   0  0  0  0  0  0  0  0  0  0  0  0
   55.3240   22.3860   46.3800 C   0  0  0  0  0  0  0  0  0  0  0  0
   54.9600   23.6920   46.6970 C   0  0  0  0  0  0  0  0  0  0  0  0
   54.8350   24.6170   45.6650 C   0  0  0  0  0  0  0  0  0  0  0  0
   54.5050   25.8060   45.9130 O   0  0  0  0  0  0  0  0  0  0  0  0
   55.0680   24.2330   44.3860 N   0  0  0  0  0  0  0  0  0  0  0  0
   55.4240   22.9570   44.0840 C   0  0  0  0  0  0  0  0  0  0  0  0
   55.6250   22.6490   42.8780 O   0  0  0  0  0  0  0  0  0  0  0  0
   57.9800   24.3720   44.9580 N   0  0  0  0  0  0  0  0  0  0  0  0
   58.2880   25.7370   45.2850 C   0  0  0  0  0  0  0  0  0  0  0  0
   59.4480   26.0220   46.0180 C   0  0  0  0  0  0  0  0  0  0  0  0
   59.7550   27.3380   46.3680 C   0  0  0  0  0  0  0  0  0  0  0  0
   58.9030   28.3810   45.9990 C   0  0  0  0  0  0  0  0  0  0  0  0
   57.7320   28.1170   45.2670 C   0  0  0  0  0  0  0  0  0  0  0  0
   56.8010   29.2110   44.8980 C   0  0  0  0  0  0  0  0  0  0  0  0
   55.5600   28.9920   44.9350 O   0  0  0  0  0  0  0  0  0  0  0  0
   57.2770   30.5550   44.4870 C   0  0  0  0  0  0  0  0  0  0  0  0
   57.2980   30.9070   43.1260 C   0  0  0  0  0  0  0  0  0  0  0  0
   57.7600   32.1650   42.7280 C   0  0  0  0  0  0  0  0  0  0  0  0
   58.2160   33.0790   43.6800 C   0  0  0  0  0  0  0  0  0  0  0  0
   58.2160   32.7340   45.0340 C   0  0  0  0  0  0  0  0  0  0  0  0
   57.7550   31.4760   45.4380 C   0  0  0  0  0  0  0  0  0  0  0  0
   57.4220   26.7870   44.9310 C   0  0  0  0  0  0  0  0  0  0  0  0
   57.5681   21.9396   44.1902 H   0  0  0  0  0  0  0  0  0  0  0  0
   59.3227   21.4661   44.2450 H   0  0  0  0  0  0  0  0  0  0  0  0
   59.0656   20.2770   46.1212 H   0  0  0  0  0  0  0  0  0  0  0  0
   58.0371   21.5848   46.8794 H   0  0  0  0  0  0  0  0  0  0  0  0
   57.2449   19.0731   45.5115 H   0  0  0  0  0  0  0  0  0  0  0  0
   56.4172   20.0786   46.7985 H   0  0  0  0  0  0  0  0  0  0  0  0
   56.3991   20.5830   43.7947 H   0  0  0  0  0  0  0  0  0  0  0  0
   55.0277   20.0095   44.8341 H   0  0  0  0  0  0  0  0  0  0  0  0
   55.4253   21.6389   47.1810 H   0  0  0  0  0  0  0  0  0  0  0  0
   54.7752   23.9862   47.7407 H   0  0  0  0  0  0  0  0  0  0  0  0
   57.0170   24.1580   44.6140 H   0  0  0  0  0  0  0  0  0  0  0  0
   60.1198   25.2047   46.3190 H   0  0  0  0  0  0  0  0  0  0  0  0
   60.6715   27.5542   46.9366 H   0  0  0  0  0  0  0  0  0  0  0  0
   59.1494   29.4149   46.2826 H   0  0  0  0  0  0  0  0  0  0  0  0
   56.9489   30.1884   42.3699 H   0  0  0  0  0  0  0  0  0  0  0  0
   57.7643   32.4356   41.6618 H   0  0  0  0  0  0  0  0  0  0  0  0
   58.5749   34.0697   43.3643 H   0  0  0  0  0  0  0  0  0  0  0  0
   58.5790   33.4525   45.7837 H   0  0  0  0  0  0  0  0  0  0  0  0
   57.7663   31.2055   46.5042 H   0  0  0  0  0  0  0  0  0  0  0  0
   56.4926   26.5658   44.3857 H   0  0  0  0  0  0  0  0  0  0  0  0
  1  2  2  0
  2  3  1  0
  3  4  1  0
  4  5  1  0
  5  6  1  0
  6  7  1  0
  7  8  1  0
  8  9  2  0
  9 10  1  0
 10 11  2  0
 10 12  1  0
 12 13  1  0
 13 14  2  0
  2 15  1  0
 15 16  1  0
 16 17  2  0
 17 18  1  0
 18 19  2  0
 19 20  1  0
 20 21  1  0
 21 22  2  0
 21 23  1  0
 23 24  2  0
 24 25  1  0
 25 26  2  0
 26 27  1  0
 27 28  2  0
 20 29  2  0
 13  7  1  0
 29 16  1  0
 28 23  1  0
  3 30  1  0
  3 31  1  0
  4 32  1  0
  4 33  1  0
  5 34  1  0
  5 35  1  0
  6 36  1  0
  6 37  1  0
  8 38  1  0
  9 39  1  0
 15 40  1  0
 17 41  1  0
 18 42  1  0
 19 43  1  0
 24 44  1  0
 25 45  1  0
 26 46  1  0
 27 47  1  0
 28 48  1  0
 29 49  1  0
M  CHG  1  12  -1
M  END
>  <UniqueID>  (36) 
32

>  <SMILES>  (36) 
O=C(CCCCn1ccc(=O)[n-]c1=O)Nc1cccc(C(=O)c2ccccc2)c1

>  <Energy>  (36) 
59.012544943451125

>  <Genealogy>  (36) 
O=C(CCCCn1ccc(=O)[n-]c1=O)Nc1cccc(C(=O)c2ccccc2)c1 (protonated)
O=C(CCCCn1ccc(=O)[n-]c1=O)Nc1cccc(C(=O)c2ccccc2)c1 (3D coordinates assigned)
O=C(CCCCn1ccc(=O)[n-]c1=O)Nc1cccc(C(=O)c2ccccc2)c1 (optimized conformer: 59.012544943451125 kcal/mol)

>  <smiles>  (36) 
O=C(CCCCn1ccc(=O)[nH]c1=O)Nc1cccc(C(=O)c2ccccc2)c1

>  <score_type>  (36) 
oracle

>  <origin>  (36) 
adg

>  <m_score__min__energy>  (36) 
-12.06

>  <m_primary>  (36) 
energy

$$$$
36:0
     RDKit          3D

 38 39  0  0  0  0  0  0  0  0999 V2000
   58.4670   26.0100   45.3890 C   0  0  0  0  0  0  0  0  0  0  0  0
   59.5400   26.7840   46.1510 C   0  0  0  0  0  0  0  0  0  0  0  0
   59.0350   27.3750   47.4780 C   0  0  0  0  0  0  0  0  0  0  0  0
   59.1250   28.9140   47.5520 C   0  0  0  0  0  0  0  0  0  0  0  0
   59.7470   29.5390   46.2910 C   0  0  0  0  0  0  0  0  0  0  0  0
   58.9960   30.7510   45.8790 N   0  0  0  0  0  0  0  0  0  0  0  0
   57.9350   30.6340   44.9930 C   0  0  0  0  0  0  0  0  0  0  0  0
   57.4580   29.3020   44.4370 C   0  0  0  0  0  0  0  0  0  0  0  0
   56.1050   28.9490   44.9750 C   0  0  0  0  0  0  0  0  0  0  0  0
   55.1480   29.7610   44.8670 O   0  0  0  0  0  0  0  0  0  0  0  0
   55.9060   27.7370   45.6230 O   0  0  0  0  0  0  0  0  0  0  0  0
   57.2690   31.7770   44.5340 C   0  0  0  0  0  0  0  0  0  0  0  0
   57.6280   33.0340   44.9890 C   0  0  0  0  0  0  0  0  0  0  0  0
   57.0120   34.0450   44.5510 O   0  0  0  0  0  0  0  0  0  0  0  0
   58.6550   33.1660   45.9290 C   0  0  0  0  0  0  0  0  0  0  0  0
   59.0130   34.4360   46.4240 C   0  0  0  0  0  0  0  0  0  0  0  0
   60.0190   34.5670   47.3760 C   0  0  0  0  0  0  0  0  0  0  0  0
   60.6760   33.4390   47.8530 C   0  0  0  0  0  0  0  0  0  0  0  0
   60.3420   32.1720   47.3740 C   0  0  0  0  0  0  0  0  0  0  0  0
   59.3330   32.0000   46.3880 C   0  0  0  0  0  0  0  0  0  0  0  0
   57.7895   25.5213   46.1047 H   0  0  0  0  0  0  0  0  0  0  0  0
   57.8938   26.7039   44.7567 H   0  0  0  0  0  0  0  0  0  0  0  0
   58.9446   25.2471   44.7567 H   0  0  0  0  0  0  0  0  0  0  0  0
   60.3753   26.1019   46.3678 H   0  0  0  0  0  0  0  0  0  0  0  0
   59.8484   27.6267   45.5148 H   0  0  0  0  0  0  0  0  0  0  0  0
   57.9826   27.0830   47.6089 H   0  0  0  0  0  0  0  0  0  0  0  0
   59.6853   26.9787   48.2718 H   0  0  0  0  0  0  0  0  0  0  0  0
   58.1104   29.3191   47.6805 H   0  0  0  0  0  0  0  0  0  0  0  0
   59.7772   29.1660   48.4012 H   0  0  0  0  0  0  0  0  0  0  0  0
   60.7904   29.8157   46.5026 H   0  0  0  0  0  0  0  0  0  0  0  0
   59.7044   28.8030   45.4746 H   0  0  0  0  0  0  0  0  0  0  0  0
   57.4028   29.3690   43.3404 H   0  0  0  0  0  0  0  0  0  0  0  0
   58.1704   28.5205   44.7400 H   0  0  0  0  0  0  0  0  0  0  0  0
   56.4522   31.6749   43.8044 H   0  0  0  0  0  0  0  0  0  0  0  0
   58.4924   35.3317   46.0543 H   0  0  0  0  0  0  0  0  0  0  0  0
   60.2945   35.5636   47.7513 H   0  0  0  0  0  0  0  0  0  0  0  0
   61.4642   33.5459   48.6129 H   0  0  0  0  0  0  0  0  0  0  0  0
   60.8692   31.2900   47.7666 H   0  0  0  0  0  0  0  0  0  0  0  0
  1  2  1  0
  2  3  1  0
  3  4  1  0
  4  5  1  0
  5  6  1  0
  6  7  1  0
  7  8  1  0
  8  9  1  0
  9 10  2  0
  9 11  1  0
  7 12  2  0
 12 13  1  0
 13 14  2  0
 13 15  1  0
 15 16  2  0
 16 17  1  0
 17 18  2  0
 18 19  1  0
 19 20  2  0
 20  6  1  0
 20 15  1  0
  1 21  1  0
  1 22  1  0
  1 23  1  0
  2 24  1  0
  2 25  1  0
  3 26  1  0
  3 27  1  0
  4 28  1  0
  4 29  1  0
  5 30  1  0
  5 31  1  0
  8 32  1  0
  8 33  1  0
 12 34  1  0
 16 35  1  0
 17 36  1  0
 18 37  1  0
 19 38  1  0
M  CHG  1  11  -1
M  END
>  <UniqueID>  (37) 
33

>  <SMILES>  (37) 
CCCCCn1c(CC(=O)[O-])cc(=O)c2ccccc21

>  <Energy>  (37) 
46.13346871518689

>  <Genealogy>  (37) 
CCCCCn1c(CC(=O)[O-])cc(=O)c2ccccc21 (protonated)
CCCCCn1c(CC(=O)[O-])cc(=O)c2ccccc21 (3D coordinates assigned)
CCCCCn1c(CC(=O)[O-])cc(=O)c2ccccc21 (optimized conformer: 46.13346871518689 kcal/mol)

>  <smiles>  (37) 
CCCCCn1c(CC(=O)O)cc(=O)c2ccccc21

>  <score_type>  (37) 
oracle

>  <origin>  (37) 
adg

>  <m_score__min__energy>  (37) 
-9.6300000000000008

>  <m_primary>  (37) 
energy

$$$$
37:0
     RDKit          3D

 69 73  0  0  0  0  0  0  0  0999 V2000
   64.1470   32.8470   47.2120 O   0  0  0  0  0  0  0  0  0  0  0  0
   63.3960   32.7630   48.2260 C   0  0  0  0  0  0  0  0  0  0  0  0
   63.4400   33.8140   49.2030 N   0  0  0  0  0  0  0  0  0  0  0  0
   62.2930   34.6170   49.6190 C   0  0  0  0  0  0  0  0  0  0  0  0
   61.4500   33.8490   50.6430 C   0  0  0  0  0  0  0  0  0  0  0  0
   59.9980   33.8730   50.3180 N   0  0  0  0  0  0  0  0  0  0  0  0
   59.6390   32.8380   49.3130 C   0  0  0  0  0  0  0  0  0  0  0  0
   59.2290   33.4110   47.9690 C   0  0  0  0  0  0  0  0  0  0  0  0
   58.0440   32.9910   47.3410 C   0  0  0  0  0  0  0  0  0  0  0  0
   57.6930   33.5010   46.0870 C   0  0  0  0  0  0  0  0  0  0  0  0
   58.5080   34.4450   45.4560 C   0  0  0  0  0  0  0  0  0  0  0  0
   59.6770   34.8820   46.0810 C   0  0  0  0  0  0  0  0  0  0  0  0
   60.0370   34.3690   47.3300 C   0  0  0  0  0  0  0  0  0  0  0  0
   59.1270   33.8040   51.5200 C   0  0  0  0  0  0  0  0  0  0  0  0
   58.6420   32.4000   51.7610 C   0  0  0  0  0  0  0  0  0  0  0  0
   59.5410   31.4120   52.1980 C   0  0  0  0  0  0  0  0  0  0  0  0
   59.0900   30.1110   52.4560 C   0  0  0  0  0  0  0  0  0  0  0  0
   57.7400   29.7910   52.2850 C   0  0  0  0  0  0  0  0  0  0  0  0
   56.8380   30.7690   51.8610 C   0  0  0  0  0  0  0  0  0  0  0  0
   57.2830   32.0720   51.6060 C   0  0  0  0  0  0  0  0  0  0  0  0
   62.4730   31.6170   48.3420 C   0  0  0  0  0  0  0  0  0  0  0  0
   62.2290   31.0470   49.5980 C   0  0  0  0  0  0  0  0  0  0  0  0
   61.3850   29.9370   49.7190 C   0  0  0  0  0  0  0  0  0  0  0  0
   60.7700   29.3870   48.5790 C   0  0  0  0  0  0  0  0  0  0  0  0
   59.9140   28.2370   48.6560 N   0  0  0  0  0  0  0  0  0  0  0  0
   59.7010   27.2720   47.6160 C   0  0  0  0  0  0  0  0  0  0  0  0
   60.2600   26.1430   47.6740 O   0  0  0  0  0  0  0  0  0  0  0  0
   58.9420   27.6410   46.4010 C   0  0  0  0  0  0  0  0  0  0  0  0
   58.9150   26.7290   45.3320 C   0  0  0  0  0  0  0  0  0  0  0  0
   58.2830   27.0530   44.1330 C   0  0  0  0  0  0  0  0  0  0  0  0
   57.6570   28.2940   43.9760 C   0  0  0  0  0  0  0  0  0  0  0  0
   57.0250   28.6190   42.7630 C   0  0  0  0  0  0  0  0  0  0  0  0
   56.3890   29.8540   42.6100 C   0  0  0  0  0  0  0  0  0  0  0  0
   56.3700   30.7650   43.6650 C   0  0  0  0  0  0  0  0  0  0  0  0
   56.9970   30.4580   44.8770 C   0  0  0  0  0  0  0  0  0  0  0  0
   57.6510   29.2220   45.0480 C   0  0  0  0  0  0  0  0  0  0  0  0
   58.2770   28.8880   46.2700 C   0  0  0  0  0  0  0  0  0  0  0  0
   58.1890   29.7880   47.3400 O   0  0  0  0  0  0  0  0  0  0  0  0
   60.9620   30.0010   47.3370 C   0  0  0  0  0  0  0  0  0  0  0  0
   61.8080   31.1050   47.2150 C   0  0  0  0  0  0  0  0  0  0  0  0
   62.6507   35.5532   50.0724 H   0  0  0  0  0  0  0  0  0  0  0  0
   61.6724   34.8382   48.7381 H   0  0  0  0  0  0  0  0  0  0  0  0
   61.7892   32.8029   50.6658 H   0  0  0  0  0  0  0  0  0  0  0  0
   61.5823   34.3382   51.6193 H   0  0  0  0  0  0  0  0  0  0  0  0
   60.5105   32.1843   49.1608 H   0  0  0  0  0  0  0  0  0  0  0  0
   58.7699   32.2922   49.7091 H   0  0  0  0  0  0  0  0  0  0  0  0
   57.3904   32.2587   47.8374 H   0  0  0  0  0  0  0  0  0  0  0  0
   56.7711   33.1576   45.5949 H   0  0  0  0  0  0  0  0  0  0  0  0
   58.2288   34.8426   44.4691 H   0  0  0  0  0  0  0  0  0  0  0  0
   60.3156   35.6310   45.5899 H   0  0  0  0  0  0  0  0  0  0  0  0
   60.9596   34.7171   47.8174 H   0  0  0  0  0  0  0  0  0  0  0  0
   59.6986   34.1416   52.3971 H   0  0  0  0  0  0  0  0  0  0  0  0
   58.2528   34.4507   51.3542 H   0  0  0  0  0  0  0  0  0  0  0  0
   60.6032   31.6613   52.3380 H   0  0  0  0  0  0  0  0  0  0  0  0
   59.7989   29.3405   52.7935 H   0  0  0  0  0  0  0  0  0  0  0  0
   57.3880   28.7681   52.4846 H   0  0  0  0  0  0  0  0  0  0  0  0
   55.7760   30.5154   51.7271 H   0  0  0  0  0  0  0  0  0  0  0  0
   56.5669   32.8421   51.2832 H   0  0  0  0  0  0  0  0  0  0  0  0
   62.7032   31.4740   50.4940 H   0  0  0  0  0  0  0  0  0  0  0  0
   61.2018   29.4930   50.7086 H   0  0  0  0  0  0  0  0  0  0  0  0
   59.3987   25.7473   45.4431 H   0  0  0  0  0  0  0  0  0  0  0  0
   58.2764   26.3286   43.3052 H   0  0  0  0  0  0  0  0  0  0  0  0
   57.0311   27.8988   41.9315 H   0  0  0  0  0  0  0  0  0  0  0  0
   55.9030   30.1074   41.6563 H   0  0  0  0  0  0  0  0  0  0  0  0
   55.8587   31.7313   43.5435 H   0  0  0  0  0  0  0  0  0  0  0  0
   56.9794   31.1859   45.7015 H   0  0  0  0  0  0  0  0  0  0  0  0
   58.5780   29.6100   48.2580 H   0  0  0  0  0  0  0  0  0  0  0  0
   60.4424   29.6110   46.4494 H   0  0  0  0  0  0  0  0  0  0  0  0
   61.9546   31.5762   46.2319 H   0  0  0  0  0  0  0  0  0  0  0  0
  1  2  2  0
  2  3  1  0
  3  4  1  0
  4  5  1  0
  5  6  1  0
  6  7  1  0
  7  8  1  0
  8  9  2  0
  9 10  1  0
 10 11  2  0
 11 12  1  0
 12 13  2  0
  6 14  1  0
 14 15  1  0
 15 16  2  0
 16 17  1  0
 17 18  2  0
 18 19  1  0
 19 20  2  0
  2 21  1  0
 21 22  2  0
 22 23  1  0
 23 24  2  0
 24 25  1  0
 25 26  1  0
 26 27  2  0
 26 28  1  0
 28 29  2  0
 29 30  1  0
 30 31  2  0
 31 32  1  0
 32 33  2  0
 33 34  1  0
 34 35  2  0
 35 36  1  0
 36 37  2  0
 37 38  1  0
 24 39  1  0
 39 40  2  0
 13  8  1  0
 20 15  1  0
 40 21  1  0
 37 28  1  0
 36 31  1  0
  4 41  1  0
  4 42  1  0
  5 43  1  0
  5 44  1  0
  7 45  1  0
  7 46  1  0
  9 47  1  0
 10 48  1  0
 11 49  1  0
 12 50  1  0
 13 51  1  0
 14 52  1  0
 14 53  1  0
 16 54  1  0
 17 55  1  0
 18 56  1  0
 19 57  1  0
 20 58  1  0
 22 59  1  0
 23 60  1  0
 29 61  1  0
 30 62  1  0
 32 63  1  0
 33 64  1  0
 34 65  1  0
 35 66  1  0
 38 67  1  0
 39 68  1  0
 40 69  1  0
M  CHG  2   3  -1  25  -1
M  END
>  <UniqueID>  (38) 
34

>  <SMILES>  (38) 
O=C([N-]CCN(Cc1ccccc1)Cc1ccccc1)c1ccc([N-]C(=O)c2ccc3ccccc3c2O)cc1

>  <Energy>  (38) 
95.81617484478522

>  <Genealogy>  (38) 
O=C([N-]CCN(Cc1ccccc1)Cc1ccccc1)c1ccc([N-]C(=O)c2ccc3ccccc3c2O)cc1 (protonated)
O=C([N-]CCN(Cc1ccccc1)Cc1ccccc1)c1ccc([N-]C(=O)c2ccc3ccccc3c2O)cc1 (3D coordinates assigned)
O=C([N-]CCN(Cc1ccccc1)Cc1ccccc1)c1ccc([N-]C(=O)c2ccc3ccccc3c2O)cc1 (optimized conformer: 95.81617484478522 kcal/mol)

>  <smiles>  (38) 
O=C(NCCN(Cc1ccccc1)Cc1ccccc1)c1ccc(NC(=O)c2ccc3ccccc3c2O)cc1

>  <score_type>  (38) 
oracle

>  <origin>  (38) 
adg

>  <m_score__min__energy>  (38) 
-12.5

>  <m_primary>  (38) 
energy

$$$$
38:0
     RDKit          3D

 65 70  0  0  0  0  0  0  0  0999 V2000
   58.8440   33.3050   48.9230 O   0  0  0  0  0  0  0  0  0  0  0  0
   59.4340   32.7300   49.8780 C   0  0  0  0  0  0  0  0  0  0  0  0
   60.8150   32.3570   49.7390 N   0  0  0  0  0  0  0  0  0  0  0  0
   61.6700   32.9030   48.7220 C   0  0  0  0  0  0  0  0  0  0  0  0
   61.2270   32.9080   47.3910 C   0  0  0  0  0  0  0  0  0  0  0  0
   62.0360   33.4230   46.3770 C   0  0  0  0  0  0  0  0  0  0  0  0
   63.3010   33.9240   46.6800 C   0  0  0  0  0  0  0  0  0  0  0  0
   63.7670   33.9010   47.9960 C   0  0  0  0  0  0  0  0  0  0  0  0
   62.9640   33.3760   49.0300 C   0  0  0  0  0  0  0  0  0  0  0  0
   63.4210   33.2910   50.3570 O   0  0  0  0  0  0  0  0  0  0  0  0
   63.9740   32.1290   50.9720 C   0  0  0  0  0  0  0  0  0  0  0  0
   62.9040   31.1160   51.2290 C   0  0  0  0  0  0  0  0  0  0  0  0
   62.7580   29.8990   50.6010 C   0  0  0  0  0  0  0  0  0  0  0  0
   61.6970   29.3130   51.1810 N   0  0  0  0  0  0  0  0  0  0  0  0
   61.1160   28.0210   50.8330 C   0  0  0  0  0  0  0  0  0  0  0  0
   60.3900   28.1250   49.5270 C   0  0  0  0  0  0  0  0  0  0  0  0
   59.7360   29.3090   49.1660 C   0  0  0  0  0  0  0  0  0  0  0  0
   59.1020   29.3970   47.9210 C   0  0  0  0  0  0  0  0  0  0  0  0
   59.1220   28.2930   47.0480 C   0  0  0  0  0  0  0  0  0  0  0  0
   59.8100   27.1360   47.4430 C   0  0  0  0  0  0  0  0  0  0  0  0
   60.4240   27.0810   48.6540 N   0  0  0  0  0  0  0  0  0  0  0  0
   58.3430   28.3240   45.7440 C   0  0  1  0  0  0  0  0  0  0  0  0
   56.9670   27.6570   45.9250 C   0  0  0  0  0  0  0  0  0  0  0  0
   55.9770   28.3510   45.2130 O   0  0  0  0  0  0  0  0  0  0  0  0
   58.1460   29.7410   45.2360 C   0  0  0  0  0  0  0  0  0  0  0  0
   57.8510   29.9650   43.8790 C   0  0  0  0  0  0  0  0  0  0  0  0
   57.5620   31.2540   43.4230 C   0  0  0  0  0  0  0  0  0  0  0  0
   57.5540   32.3280   44.3150 C   0  0  0  0  0  0  0  0  0  0  0  0
   57.8440   32.1180   45.6670 C   0  0  0  0  0  0  0  0  0  0  0  0
   58.1430   30.8290   46.1320 C   0  0  0  0  0  0  0  0  0  0  0  0
   58.4940   30.6250   47.5070 N   0  0  0  0  0  0  0  0  0  0  0  0
   61.2130   30.1280   52.1050 N   0  0  0  0  0  0  0  0  0  0  0  0
   61.9350   31.2390   52.1610 N   0  0  0  0  0  0  0  0  0  0  0  0
   58.6800   32.4070   51.1140 C   0  0  0  0  0  0  0  0  0  0  0  0
   57.7220   31.3760   51.1100 C   0  0  0  0  0  0  0  0  0  0  0  0
   57.0080   31.0670   52.2730 C   0  0  0  0  0  0  0  0  0  0  0  0
   57.2370   31.7850   53.4470 C   0  0  0  0  0  0  0  0  0  0  0  0
   58.1770   32.8190   53.4590 C   0  0  0  0  0  0  0  0  0  0  0  0
   58.8930   33.1340   52.3000 C   0  0  0  0  0  0  0  0  0  0  0  0
   61.1620   31.5320   50.2770 H   0  0  0  0  0  0  0  0  0  0  0  0
   60.2344   32.5029   47.1446 H   0  0  0  0  0  0  0  0  0  0  0  0
   61.6751   33.4335   45.3379 H   0  0  0  0  0  0  0  0  0  0  0  0
   63.9333   34.3382   45.8809 H   0  0  0  0  0  0  0  0  0  0  0  0
   64.7674   34.2951   48.2280 H   0  0  0  0  0  0  0  0  0  0  0  0
   64.7334   31.6931   50.3062 H   0  0  0  0  0  0  0  0  0  0  0  0
   64.4314   32.4159   51.9304 H   0  0  0  0  0  0  0  0  0  0  0  0
   63.3813   29.4909   49.7917 H   0  0  0  0  0  0  0  0  0  0  0  0
   61.9170   27.2720   50.7467 H   0  0  0  0  0  0  0  0  0  0  0  0
   60.4079   27.7184   51.6185 H   0  0  0  0  0  0  0  0  0  0  0  0
   59.7204   30.1651   49.8565 H   0  0  0  0  0  0  0  0  0  0  0  0
   59.8527   26.2682   46.7684 H   0  0  0  0  0  0  0  0  0  0  0  0
   58.9344   27.7683   45.0014 H   0  0  0  0  0  0  0  0  0  0  0  0
   57.0171   26.6219   45.5562 H   0  0  0  0  0  0  0  0  0  0  0  0
   56.7070   27.6717   46.9937 H   0  0  0  0  0  0  0  0  0  0  0  0
   56.1220   28.1550   44.2500 H   0  0  0  0  0  0  0  0  0  0  0  0
   57.8478   29.1213   43.1732 H   0  0  0  0  0  0  0  0  0  0  0  0
   57.3403   31.4228   42.3589 H   0  0  0  0  0  0  0  0  0  0  0  0
   57.3194   33.3403   43.9541 H   0  0  0  0  0  0  0  0  0  0  0  0
   57.8376   32.9661   46.3675 H   0  0  0  0  0  0  0  0  0  0  0  0
   58.4320   31.4230   48.1780 H   0  0  0  0  0  0  0  0  0  0  0  0
   57.5333   30.8093   50.1863 H   0  0  0  0  0  0  0  0  0  0  0  0
   56.2646   30.2563   52.2616 H   0  0  0  0  0  0  0  0  0  0  0  0
   56.6785   31.5376   54.3618 H   0  0  0  0  0  0  0  0  0  0  0  0
   58.3544   33.3874   54.3839 H   0  0  0  0  0  0  0  0  0  0  0  0
   59.6262   33.9539   52.3153 H   0  0  0  0  0  0  0  0  0  0  0  0
  1  2  2  0
  2  3  1  0
  3  4  1  0
  4  5  2  0
  5  6  1  0
  6  7  2  0
  7  8  1  0
  8  9  2  0
  9 10  1  0
 10 11  1  0
 11 12  1  0
 12 13  2  0
 13 14  1  0
 14 15  1  0
 15 16  1  0
 16 17  2  0
 17 18  1  0
 18 19  2  0
 19 20  1  0
 20 21  2  0
 19 22  1  0
 22 23  1  0
 23 24  1  0
 22 25  1  0
 25 26  2  0
 26 27  1  0
 27 28  2  0
 28 29  1  0
 29 30  2  0
 30 31  1  0
 14 32  1  0
 32 33  2  0
  2 34  1  0
 34 35  2  0
 35 36  1  0
 36 37  2  0
 37 38  1  0
 38 39  2  0
  9  4  1  0
 33 12  1  0
 39 34  1  0
 21 16  1  0
 30 25  1  0
 31 18  1  0
  3 40  1  0
  5 41  1  0
  6 42  1  0
  7 43  1  0
  8 44  1  0
 11 45  1  0
 11 46  1  0
 13 47  1  0
 15 48  1  0
 15 49  1  0
 17 50  1  0
 20 51  1  0
 22 52  1  6
 23 53  1  0
 23 54  1  0
 24 55  1  0
 26 56  1  0
 27 57  1  0
 28 58  1  0
 29 59  1  0
 31 60  1  0
 35 61  1  0
 36 62  1  0
 37 63  1  0
 38 64  1  0
 39 65  1  0
M  END
>  <UniqueID>  (39) 
35

>  <SMILES>  (39) 
O=C(Nc1ccccc1OCc1cn(Cc2cc3c(cn2)[C@@H](CO)c2ccccc2N3)nn1)c1ccccc1

>  <Energy>  (39) 
115.79190059781946

>  <Genealogy>  (39) 
O=C(Nc1ccccc1OCc1cn(Cc2cc3c(cn2)[C@@H](CO)c2ccccc2N3)nn1)c1ccccc1 (chirality)
O=C(Nc1ccccc1OCc1cn(Cc2cc3c(cn2)[C@@H](CO)c2ccccc2N3)nn1)c1ccccc1 (3D coordinates assigned)
O=C(Nc1ccccc1OCc1cn(Cc2cc3c(cn2)[C@@H](CO)c2ccccc2N3)nn1)c1ccccc1 (nonaromatic ring conformer: 115.79190059781946 kcal/mol)

>  <smiles>  (39) 
O=C(Nc1ccccc1OCc1cn(Cc2cc3c(cn2)C(CO)c2ccccc2N3)nn1)c1ccccc1

>  <score_type>  (39) 
oracle

>  <origin>  (39) 
adg

>  <m_score__min__energy>  (39) 
-10.470000000000001

>  <m_primary>  (39) 
energy

$$$$
39:0
     RDKit          3D

 33 35  0  0  0  0  0  0  0  0999 V2000
   56.2920   30.1160   42.6790 C   0  0  0  0  0  0  0  0  0  0  0  0
   56.6340   30.3820   44.4040 S   0  0  0  0  0  0  0  0  0  0  0  0
   56.2620   31.7790   44.8130 O   0  0  0  0  0  0  0  0  0  0  0  0
   55.8200   29.4090   45.2100 O   0  0  0  0  0  0  0  0  0  0  0  0
   58.3130   30.0990   44.7320 N   0  0  0  0  0  0  0  0  0  0  0  0
   58.8470   29.4120   45.8730 C   0  0  0  0  0  0  0  0  0  0  0  0
   59.4680   30.1040   46.9340 C   0  0  0  0  0  0  0  0  0  0  0  0
   59.9610   29.3800   48.0200 C   0  0  0  0  0  0  0  0  0  0  0  0
   59.8480   28.0180   48.0770 C   0  0  0  0  0  0  0  0  0  0  0  0
   59.2340   27.3040   47.0500 C   0  0  0  0  0  0  0  0  0  0  0  0
   58.7360   28.0020   45.9370 C   0  0  0  0  0  0  0  0  0  0  0  0
   57.9550   27.0830   44.6070 S   0  0  0  0  0  0  0  0  0  0  0  0
   57.3240   25.8260   45.7150 C   0  0  0  0  0  0  0  0  0  0  0  0
   58.2100   24.5090   46.2810 S   0  0  0  0  0  0  0  0  0  0  0  0
   56.9160   23.9320   47.1870 C   0  0  0  0  0  0  0  0  0  0  0  0
   56.9560   22.8910   47.8950 O   0  0  0  0  0  0  0  0  0  0  0  0
   55.8160   24.7090   47.0800 N   0  0  0  0  0  0  0  0  0  0  0  0
   56.0450   25.7670   46.2590 C   0  0  0  0  0  0  0  0  0  0  0  0
   55.0660   26.7150   45.9960 O   0  0  0  0  0  0  0  0  0  0  0  0
   60.4470   27.4580   49.3090 C   0  0  0  0  0  0  0  0  0  0  0  0
   60.9210   28.6980   50.0910 C   0  0  0  0  0  0  0  0  0  0  0  0
   60.6420   29.9330   49.2140 C   0  0  0  0  0  0  0  0  0  0  0  0
   55.4275   29.4436   42.5760 H   0  0  0  0  0  0  0  0  0  0  0  0
   56.0671   31.0789   42.1971 H   0  0  0  0  0  0  0  0  0  0  0  0
   57.1699   29.6610   42.1971 H   0  0  0  0  0  0  0  0  0  0  0  0
   59.5622   31.1996   46.9055 H   0  0  0  0  0  0  0  0  0  0  0  0
   59.1405   26.2096   47.1098 H   0  0  0  0  0  0  0  0  0  0  0  0
   59.6990   26.8944   49.8860 H   0  0  0  0  0  0  0  0  0  0  0  0
   61.2643   26.7524   49.0990 H   0  0  0  0  0  0  0  0  0  0  0  0
   60.3687   28.7780   51.0389 H   0  0  0  0  0  0  0  0  0  0  0  0
   61.9934   28.6225   50.3239 H   0  0  0  0  0  0  0  0  0  0  0  0
   59.9907   30.6466   49.7399 H   0  0  0  0  0  0  0  0  0  0  0  0
   61.5579   30.4867   48.9598 H   0  0  0  0  0  0  0  0  0  0  0  0
  1  2  1  0
  2  3  2  0
  2  4  2  0
  2  5  1  0
  5  6  1  0
  6  7  2  0
  7  8  1  0
  8  9  2  0
  9 10  1  0
 10 11  2  0
 11 12  1  0
 12 13  1  0
 13 14  1  0
 14 15  1  0
 15 16  2  0
 15 17  1  0
 17 18  1  0
 18 19  1  0
  9 20  1  0
 20 21  1  0
 21 22  1  0
 11  6  1  0
 18 13  2  0
 22  8  1  0
  1 23  1  0
  1 24  1  0
  1 25  1  0
  7 26  1  0
 10 27  1  0
 20 28  1  0
 20 29  1  0
 21 30  1  0
 21 31  1  0
 22 32  1  0
 22 33  1  0
M  CHG  3   5  -1  17  -1  19  -1
M  END
>  <UniqueID>  (40) 
36

>  <SMILES>  (40) 
CS(=O)(=O)[N-]c1cc2c(cc1Sc1sc(=O)[n-]c1[O-])CCC2

>  <Energy>  (40) 
67.69022592975958

>  <Genealogy>  (40) 
CS(=O)(=O)[N-]c1cc2c(cc1Sc1sc(=O)[n-]c1[O-])CCC2 (protonated)
CS(=O)(=O)[N-]c1cc2c(cc1Sc1sc(=O)[n-]c1[O-])CCC2 (3D coordinates assigned)
CS(=O)(=O)[N-]c1cc2c(cc1Sc1sc(=O)[n-]c1[O-])CCC2 (nonaromatic ring conformer: 67.69022592975958 kcal/mol)

>  <smiles>  (40) 
CS(=O)(=O)Nc1cc2c(cc1Sc1sc(=O)[nH]c1O)CCC2

>  <score_type>  (40) 
oracle

>  <origin>  (40) 
adg

>  <m_score__min__energy>  (40) 
-15.09

>  <m_primary>  (40) 
energy

$$$$
40:0
     RDKit          3D

 67 70  0  0  0  0  0  0  0  0999 V2000
   63.2080   33.3190   47.1360 C   0  0  0  0  0  0  0  0  0  0  0  0
   61.9040   33.8920   47.1520 O   0  0  0  0  0  0  0  0  0  0  0  0
   60.7400   33.2220   46.7480 C   0  0  0  0  0  0  0  0  0  0  0  0
   59.7800   33.8170   45.9110 C   0  0  0  0  0  0  0  0  0  0  0  0
   58.6390   33.1080   45.5310 C   0  0  0  0  0  0  0  0  0  0  0  0
   58.4350   31.7890   45.9780 C   0  0  0  0  0  0  0  0  0  0  0  0
   57.3080   31.0430   45.5980 O   0  0  0  0  0  0  0  0  0  0  0  0
   57.1240   30.4530   44.3160 C   0  0  0  0  0  0  0  0  0  0  0  0
   59.3910   31.1950   46.8220 C   0  0  0  0  0  0  0  0  0  0  0  0
   59.1810   29.5270   47.3590 S   0  0  0  0  0  0  0  0  0  0  0  0
   57.7890   29.0380   47.0710 O   0  0  0  0  0  0  0  0  0  0  0  0
   60.1620   28.6440   46.6420 O   0  0  0  0  0  0  0  0  0  0  0  0
   59.4760   29.4590   49.0610 N   0  0  0  0  0  0  0  0  0  0  0  0
   58.8020   30.3550   49.9410 C   0  0  0  0  0  0  0  0  0  0  0  0
   58.8330   31.7330   49.7040 C   0  0  0  0  0  0  0  0  0  0  0  0
   58.1760   32.6070   50.5730 C   0  0  0  0  0  0  0  0  0  0  0  0
   57.5010   32.1080   51.6910 C   0  0  0  0  0  0  0  0  0  0  0  0
   57.4830   30.7270   51.9540 C   0  0  0  0  0  0  0  0  0  0  0  0
   56.7890   30.2100   53.1550 C   0  0  0  0  0  0  0  0  0  0  0  0
   57.1260   30.6340   54.2940 O   0  0  0  0  0  0  0  0  0  0  0  0
   55.7570   29.2160   53.0360 N   0  0  0  0  0  0  0  0  0  0  0  0
   55.0060   28.7260   54.1930 C   0  0  0  0  0  0  0  0  0  0  0  0
   53.4970   28.5750   53.8590 C   0  0  1  0  0  0  0  0  0  0  0  0
   52.9870   29.7040   52.9790 C   0  0  0  0  0  0  0  0  0  0  0  0
   53.3540   29.8180   51.6230 C   0  0  0  0  0  0  0  0  0  0  0  0
   52.8290   30.8410   50.8290 C   0  0  0  0  0  0  0  0  0  0  0  0
   51.9200   31.7540   51.3700 C   0  0  0  0  0  0  0  0  0  0  0  0
   51.3990   32.7690   50.5770 O   0  0  0  0  0  0  0  0  0  0  0  0
   51.5330   31.6420   52.7070 C   0  0  0  0  0  0  0  0  0  0  0  0
   52.0570   30.6210   53.5040 C   0  0  0  0  0  0  0  0  0  0  0  0
   53.1040   27.2730   53.2520 N   0  0  0  0  0  0  0  0  0  0  0  0
   51.6730   27.2130   52.8910 C   0  0  0  0  0  0  0  0  0  0  0  0
   51.2740   25.8000   52.4340 C   0  0  0  0  0  0  0  0  0  0  0  0
   52.4130   25.0820   52.0050 O   0  0  0  0  0  0  0  0  0  0  0  0
   53.2560   24.8100   53.1120 C   0  0  0  0  0  0  0  0  0  0  0  0
   53.5300   26.0600   53.9760 C   0  0  0  0  0  0  0  0  0  0  0  0
   58.1270   29.8530   51.0600 C   0  0  0  0  0  0  0  0  0  0  0  0
   60.5360   31.9130   47.1970 C   0  0  0  0  0  0  0  0  0  0  0  0
   63.5543   33.1668   48.1689 H   0  0  0  0  0  0  0  0  0  0  0  0
   63.1770   32.3516   46.6134 H   0  0  0  0  0  0  0  0  0  0  0  0
   63.8997   33.9961   46.6134 H   0  0  0  0  0  0  0  0  0  0  0  0
   59.9286   34.8466   45.5536 H   0  0  0  0  0  0  0  0  0  0  0  0
   57.8935   33.5839   44.8770 H   0  0  0  0  0  0  0  0  0  0  0  0
   56.7985   29.4092   44.4361 H   0  0  0  0  0  0  0  0  0  0  0  0
   56.3582   31.0143   43.7605 H   0  0  0  0  0  0  0  0  0  0  0  0
   58.0731   30.4795   43.7605 H   0  0  0  0  0  0  0  0  0  0  0  0
   59.3752   32.1287   48.8326 H   0  0  0  0  0  0  0  0  0  0  0  0
   58.1897   33.6894   50.3775 H   0  0  0  0  0  0  0  0  0  0  0  0
   56.9807   32.8003   52.3692 H   0  0  0  0  0  0  0  0  0  0  0  0
   55.6950   28.6660   52.1490 H   0  0  0  0  0  0  0  0  0  0  0  0
   55.4071   27.7465   54.4927 H   0  0  0  0  0  0  0  0  0  0  0  0
   55.1109   29.4543   55.0107 H   0  0  0  0  0  0  0  0  0  0  0  0
   53.0194   28.6186   54.8490 H   0  0  0  0  0  0  0  0  0  0  0  0
   54.0594   29.0958   51.1862 H   0  0  0  0  0  0  0  0  0  0  0  0
   53.1321   30.9278   49.7752 H   0  0  0  0  0  0  0  0  0  0  0  0
   50.8150   32.3582   53.1331 H   0  0  0  0  0  0  0  0  0  0  0  0
   51.7392   30.5328   54.5534 H   0  0  0  0  0  0  0  0  0  0  0  0
   51.0697   27.4903   53.7680 H   0  0  0  0  0  0  0  0  0  0  0  0
   51.4935   27.9116   52.0605 H   0  0  0  0  0  0  0  0  0  0  0  0
   50.8040   25.2666   53.2734 H   0  0  0  0  0  0  0  0  0  0  0  0
   50.5668   25.8821   51.5955 H   0  0  0  0  0  0  0  0  0  0  0  0
   52.7750   24.0464   53.7410 H   0  0  0  0  0  0  0  0  0  0  0  0
   54.2216   24.4627   52.7158 H   0  0  0  0  0  0  0  0  0  0  0  0
   52.9690   25.9819   54.9190 H   0  0  0  0  0  0  0  0  0  0  0  0
   54.6073   26.1245   54.1890 H   0  0  0  0  0  0  0  0  0  0  0  0
   58.1002   28.7683   51.2411 H   0  0  0  0  0  0  0  0  0  0  0  0
   61.2828   31.4409   47.8523 H   0  0  0  0  0  0  0  0  0  0  0  0
  1  2  1  0
  2  3  1  0
  3  4  2  0
  4  5  1  0
  5  6  2  0
  6  7  1  0
  7  8  1  0
  6  9  1  0
  9 10  1  0
 10 11  2  0
 10 12  2  0
 10 13  1  0
 13 14  1  0
 14 15  2  0
 15 16  1  0
 16 17  2  0
 17 18  1  0
 18 19  1  0
 19 20  2  0
 19 21  1  0
 21 22  1  0
 22 23  1  0
 23 24  1  0
 24 25  2  0
 25 26  1  0
 26 27  2  0
 27 28  1  0
 27 29  1  0
 29 30  2  0
 23 31  1  0
 31 32  1  0
 32 33  1  0
 33 34  1  0
 34 35  1  0
 35 36  1  0
 18 37  2  0
  9 38  2  0
 38  3  1  0
 37 14  1  0
 30 24  1  0
 36 31  1  0
  1 39  1  0
  1 40  1  0
  1 41  1  0
  4 42  1  0
  5 43  1  0
  8 44  1  0
  8 45  1  0
  8 46  1  0
 15 47  1  0
 16 48  1  0
 17 49  1  0
 21 50  1  0
 22 51  1  0
 22 52  1  0
 23 53  1  1
 25 54  1  0
 26 55  1  0
 29 56  1  0
 30 57  1  0
 32 58  1  0
 32 59  1  0
 33 60  1  0
 33 61  1  0
 35 62  1  0
 35 63  1  0
 36 64  1  0
 36 65  1  0
 37 66  1  0
 38 67  1  0
M  CHG  2  13  -1  28  -1
M  END
>  <UniqueID>  (41) 
37

>  <SMILES>  (41) 
COc1ccc(OC)c(S(=O)(=O)[N-]c2cccc(C(=O)NC[C@@H](c3ccc([O-])cc3)N3CCOCC3)c2)c1

>  <Energy>  (41) 
93.1269886214063

>  <Genealogy>  (41) 
COc1ccc(OC)c(S(=O)(=O)[N-]c2cccc(C(=O)NCC(c3ccc([O-])cc3)N3CCOCC3)c2)c1 (protonated)
COc1ccc(OC)c(S(=O)(=O)[N-]c2cccc(C(=O)NC[C@@H](c3ccc([O-])cc3)N3CCOCC3)c2)c1 (chirality)
COc1ccc(OC)c(S(=O)(=O)[N-]c2cccc(C(=O)NC[C@@H](c3ccc([O-])cc3)N3CCOCC3)c2)c1 (3D coordinates assigned)
COc1ccc(OC)c(S(=O)(=O)[N-]c2cccc(C(=O)NC[C@@H](c3ccc([O-])cc3)N3CCOCC3)c2)c1 (nonaromatic ring conformer: 93.1269886214063 kcal/mol)

>  <smiles>  (41) 
COc1ccc(OC)c(S(=O)(=O)Nc2cccc(C(=O)NCC(c3ccc(O)cc3)N3CCOCC3)c2)c1

>  <score_type>  (41) 
oracle

>  <origin>  (41) 
adg

>  <m_score__min__energy>  (41) 
-12.789999999999999

>  <m_primary>  (41) 
energy

$$$$
41:0
     RDKit          3D

 41 43  0  0  1  0  0  0  0  0999 V2000
   55.7750   30.6950   44.6500 O   0  0  0  0  0  0  0  0  0  0  0  0
   56.7020   30.5300   43.7930 C   0  0  0  0  0  0  0  0  0  0  0  0
   56.6520   29.3060   42.9850 C   0  0  0  0  0  0  0  0  0  0  0  0
   57.7790   28.0270   43.5930 S   0  0  0  0  0  0  0  0  0  0  0  0
   58.6820   28.7420   44.9630 C   0  0  0  0  0  0  0  0  0  0  0  0
   58.1120   29.0390   46.1400 N   0  0  0  0  0  0  0  0  0  0  0  0
   58.8590   29.5790   47.1390 C   0  0  0  0  0  0  0  0  0  0  0  0
   58.3060   29.8420   48.2160 O   0  0  0  0  0  0  0  0  0  0  0  0
   60.1990   29.8390   46.9900 C   0  0  0  0  0  0  0  0  0  0  0  0
   61.0680   30.4220   48.0220 C   0  0  0  0  0  0  0  0  0  0  0  0
   61.8310   31.6010   47.5420 C   0  0  0  0  0  0  0  0  0  0  0  0
   61.1160   32.6670   47.0360 C   0  0  0  0  0  0  0  0  0  0  0  0
   61.7140   33.8170   46.5580 C   0  0  0  0  0  0  0  0  0  0  0  0
   63.0850   33.9150   46.5830 C   0  0  0  0  0  0  0  0  0  0  0  0
   63.7900   32.8490   47.0890 C   0  0  0  0  0  0  0  0  0  0  0  0
   63.1930   31.7030   47.5650 C   0  0  0  0  0  0  0  0  0  0  0  0
   60.7470   29.5140   45.7450 C   0  0  0  0  0  0  0  0  0  0  0  0
   60.0010   28.9790   44.7630 N   0  0  0  0  0  0  0  0  0  0  0  0
   57.7070   31.5300   43.6810 N   0  0  0  0  0  0  0  0  0  0  0  0
   57.8820   32.3810   44.6610 C   0  0  0  0  0  0  0  0  0  0  0  0
   58.3330   33.6500   44.4830 C   0  0  0  0  0  0  0  0  0  0  0  0
   58.5290   34.5690   45.4930 C   0  0  0  0  0  0  0  0  0  0  0  0
   58.2390   34.1540   46.7860 C   0  0  0  0  0  0  0  0  0  0  0  0
   57.7810   32.8650   46.9720 C   0  0  0  0  0  0  0  0  0  0  0  0
   57.6050   31.9990   45.9420 N   0  0  0  0  0  0  0  0  0  0  0  0
   55.6256   28.9109   43.0065 H   0  0  0  0  0  0  0  0  0  0  0  0
   56.9636   29.5675   41.9630 H   0  0  0  0  0  0  0  0  0  0  0  0
   60.4426   30.7321   48.8721 H   0  0  0  0  0  0  0  0  0  0  0  0
   61.7995   29.6520   48.3083 H   0  0  0  0  0  0  0  0  0  0  0  0
   60.0184   32.5980   47.0121 H   0  0  0  0  0  0  0  0  0  0  0  0
   61.1024   34.6417   46.1634 H   0  0  0  0  0  0  0  0  0  0  0  0
   63.5991   34.8138   46.2116 H   0  0  0  0  0  0  0  0  0  0  0  0
   64.8877   32.9147   47.1150 H   0  0  0  0  0  0  0  0  0  0  0  0
   63.8059   30.8791   47.9593 H   0  0  0  0  0  0  0  0  0  0  0  0
   61.8159   29.7010   45.5647 H   0  0  0  0  0  0  0  0  0  0  0  0
   60.4460   28.7430   43.8330 H   0  0  0  0  0  0  0  0  0  0  0  0
   58.5592   33.9692   43.4549 H   0  0  0  0  0  0  0  0  0  0  0  0
   58.8980   35.5839   45.2837 H   0  0  0  0  0  0  0  0  0  0  0  0
   58.3708   34.8347   47.6400 H   0  0  0  0  0  0  0  0  0  0  0  0
   57.5501   32.5273   47.9931 H   0  0  0  0  0  0  0  0  0  0  0  0
   57.2550   31.0450   46.1750 H   0  0  0  0  0  0  0  0  0  0  0  0
  1  2  2  0
  2  3  1  0
  3  4  1  0
  4  5  1  0
  5  6  2  0
  6  7  1  0
  7  8  2  0
  7  9  1  0
  9 10  1  0
 10 11  1  0
 11 12  2  0
 12 13  1  0
 13 14  2  0
 14 15  1  0
 15 16  2  0
  9 17  2  0
 17 18  1  0
  2 19  1  0
 19 20  2  0
 20 21  1  0
 21 22  2  0
 22 23  1  0
 23 24  2  0
 24 25  1  0
 18  5  1  0
 25 20  1  0
 16 11  1  0
  3 26  1  0
  3 27  1  0
 10 28  1  0
 10 29  1  0
 12 30  1  0
 13 31  1  0
 14 32  1  0
 15 33  1  0
 16 34  1  0
 17 35  1  0
 18 36  1  0
 21 37  1  0
 22 38  1  0
 23 39  1  0
 24 40  1  0
 25 41  1  0
M  END
>  <smiles>  (42) 
O=C(CSc1nc(=O)c(Cc2ccccc2)c[nH]1)N=c1cccc[nH]1

>  <score_type>  (42) 
oracle

>  <origin>  (42) 
adg

>  <m_score__min__energy>  (42) 
-9.0099999999999998

>  <m_primary>  (42) 
energy

$$$$
42:0
     RDKit          3D

 54 56  0  0  0  0  0  0  0  0999 V2000
   55.1470   26.6600   46.0450 N   0  0  0  0  0  0  0  0  0  0  0  0
   56.6670   25.8570   46.2380 S   0  0  0  0  0  0  0  0  0  0  0  0
   56.6440   25.0340   47.4950 O   0  0  0  0  0  0  0  0  0  0  0  0
   56.8890   24.9570   45.0540 O   0  0  0  0  0  0  0  0  0  0  0  0
   57.9630   27.0430   46.3360 C   0  0  0  0  0  0  0  0  0  0  0  0
   58.6940   27.3840   45.1900 C   0  0  0  0  0  0  0  0  0  0  0  0
   59.7320   28.3160   45.2720 C   0  0  0  0  0  0  0  0  0  0  0  0
   60.0360   28.9210   46.4940 C   0  0  0  0  0  0  0  0  0  0  0  0
   59.2930   28.6150   47.6430 C   0  0  0  0  0  0  0  0  0  0  0  0
   59.6390   29.2340   48.8930 N   0  0  0  0  0  0  0  0  0  0  0  0
   60.6780   28.7600   49.7630 C   0  0  0  0  0  0  0  0  0  0  0  0
   61.1230   27.5860   49.6490 O   0  0  0  0  0  0  0  0  0  0  0  0
   61.2150   29.6500   50.8400 C   0  0  0  0  0  0  0  0  0  0  0  0
   60.2580   30.7090   51.1410 N   0  0  0  0  0  0  0  0  0  0  0  0
   60.4080   32.0620   50.6950 C   0  0  0  0  0  0  0  0  0  0  0  0
   60.9770   32.9070   51.4410 O   0  0  0  0  0  0  0  0  0  0  0  0
   59.9010   32.4690   49.3650 C   0  0  0  0  0  0  0  0  0  0  0  0
   60.7820   32.9620   48.3850 C   0  0  0  0  0  0  0  0  0  0  0  0
   60.3040   33.3470   47.1280 C   0  0  0  0  0  0  0  0  0  0  0  0
   58.9390   33.2440   46.8320 C   0  0  0  0  0  0  0  0  0  0  0  0
   58.3160   33.7490   45.2630 S   0  0  0  0  0  0  0  0  0  0  0  0
   59.1260   34.9190   44.7790 O   0  0  0  0  0  0  0  0  0  0  0  0
   56.8780   34.1740   45.3870 O   0  0  0  0  0  0  0  0  0  0  0  0
   58.4460   32.4230   44.1320 N   0  0  0  0  0  0  0  0  0  0  0  0
   58.1010   31.1320   44.7800 C   0  0  0  0  0  0  0  0  0  0  0  0
   56.6920   30.6380   44.4230 C   0  0  0  0  0  0  0  0  0  0  0  0
   56.5320   30.4640   42.9030 C   0  0  0  0  0  0  0  0  0  0  0  0
   57.3820   31.4630   42.0980 C   0  0  0  0  0  0  0  0  0  0  0  0
   57.6650   32.7290   42.9120 C   0  0  0  0  0  0  0  0  0  0  0  0
   58.0560   32.7590   47.8030 C   0  0  0  0  0  0  0  0  0  0  0  0
   58.5320   32.3720   49.0590 C   0  0  0  0  0  0  0  0  0  0  0  0
   58.2630   27.6580   47.5590 C   0  0  0  0  0  0  0  0  0  0  0  0
   55.1590   27.1130   45.1030 H   0  0  0  0  0  0  0  0  0  0  0  0
   58.4503   26.9172   44.2242 H   0  0  0  0  0  0  0  0  0  0  0  0
   60.3107   28.5737   44.3728 H   0  0  0  0  0  0  0  0  0  0  0  0
   60.8641   29.6425   46.5552 H   0  0  0  0  0  0  0  0  0  0  0  0
   59.0720   30.0520   49.2130 H   0  0  0  0  0  0  0  0  0  0  0  0
   61.3956   29.0546   51.7472 H   0  0  0  0  0  0  0  0  0  0  0  0
   62.1561   30.1035   50.4954 H   0  0  0  0  0  0  0  0  0  0  0  0
   61.8557   33.0454   48.6092 H   0  0  0  0  0  0  0  0  0  0  0  0
   61.0021   33.7317   46.3700 H   0  0  0  0  0  0  0  0  0  0  0  0
   58.8300   30.3732   44.4593 H   0  0  0  0  0  0  0  0  0  0  0  0
   58.1268   31.2932   45.8678 H   0  0  0  0  0  0  0  0  0  0  0  0
   56.5156   29.6703   44.9155 H   0  0  0  0  0  0  0  0  0  0  0  0
   55.9630   31.3867   44.7665 H   0  0  0  0  0  0  0  0  0  0  0  0
   56.8379   29.4429   42.6316 H   0  0  0  0  0  0  0  0  0  0  0  0
   55.4765   30.6516   42.6564 H   0  0  0  0  0  0  0  0  0  0  0  0
   58.3370   30.9875   41.8299 H   0  0  0  0  0  0  0  0  0  0  0  0
   56.8237   31.7470   41.1938 H   0  0  0  0  0  0  0  0  0  0  0  0
   58.2349   33.4347   42.2898 H   0  0  0  0  0  0  0  0  0  0  0  0
   56.7031   33.1668   43.2172 H   0  0  0  0  0  0  0  0  0  0  0  0
   56.9822   32.6819   47.5769 H   0  0  0  0  0  0  0  0  0  0  0  0
   57.8300   31.9885   49.8141 H   0  0  0  0  0  0  0  0  0  0  0  0
   57.6902   27.3915   48.4595 H   0  0  0  0  0  0  0  0  0  0  0  0
  1  2  1  0
  2  3  2  0
  2  4  2  0
  2  5  1  0
  5  6  2  0
  6  7  1  0
  7  8  2  0
  8  9  1  0
  9 10  1  0
 10 11  1  0
 11 12  2  0
 11 13  1  0
 13 14  1  0
 14 15  1  0
 15 16  2  0
 15 17  1  0
 17 18  2  0
 18 19  1  0
 19 20  2  0
 20 21  1  0
 21 22  2  0
 21 23  2  0
 21 24  1  0
 24 25  1  0
 25 26  1  0
 26 27  1  0
 27 28  1  0
 28 29  1  0
 20 30  1  0
 30 31  2  0
  9 32  2  0
 32  5  1  0
 31 17  1  0
 29 24  1  0
  1 33  1  0
  6 34  1  0
  7 35  1  0
  8 36  1  0
 10 37  1  0
 13 38  1  0
 13 39  1  0
 18 40  1  0
 19 41  1  0
 25 42  1  0
 25 43  1  0
 26 44  1  0
 26 45  1  0
 27 46  1  0
 27 47  1  0
 28 48  1  0
 28 49  1  0
 29 50  1  0
 29 51  1  0
 30 52  1  0
 31 53  1  0
 32 54  1  0
M  CHG  2   1  -1  14  -1
M  END
>  <UniqueID>  (43) 
38

>  <SMILES>  (43) 
[NH-]S(=O)(=O)c1cccc(NC(=O)C[N-]C(=O)c2ccc(S(=O)(=O)N3CCCCC3)cc2)c1

>  <Energy>  (43) 
60.85385367543673

>  <Genealogy>  (43) 
[NH-]S(=O)(=O)c1cccc(NC(=O)C[N-]C(=O)c2ccc(S(=O)(=O)N3CCCCC3)cc2)c1 (protonated)
[NH-]S(=O)(=O)c1cccc(NC(=O)C[N-]C(=O)c2ccc(S(=O)(=O)N3CCCCC3)cc2)c1 (3D coordinates assigned)
[NH-]S(=O)(=O)c1cccc(NC(=O)C[N-]C(=O)c2ccc(S(=O)(=O)N3CCCCC3)cc2)c1 (nonaromatic ring conformer: 60.85385367543673 kcal/mol)

>  <smiles>  (43) 
NS(=O)(=O)c1cccc(NC(=O)CNC(=O)c2ccc(S(=O)(=O)N3CCCCC3)cc2)c1

>  <score_type>  (43) 
oracle

>  <origin>  (43) 
adg

>  <m_score__min__energy>  (43) 
-15.24

>  <m_primary>  (43) 
energy

$$$$
43:0
     RDKit          3D

 45 47  0  0  0  0  0  0  0  0999 V2000
   63.1990   33.4930   47.1170 C   0  0  0  0  0  0  0  0  0  0  0  0
   61.7380   33.8150   47.2370 C   0  0  0  0  0  0  0  0  0  0  0  0
   61.1940   34.1700   48.4800 C   0  0  0  0  0  0  0  0  0  0  0  0
   59.8420   34.5100   48.5850 C   0  0  0  0  0  0  0  0  0  0  0  0
   59.0290   34.5100   47.4500 C   0  0  0  0  0  0  0  0  0  0  0  0
   59.5640   34.1730   46.1960 C   0  0  0  0  0  0  0  0  0  0  0  0
   58.7030   34.2200   44.9620 C   0  0  0  0  0  0  0  0  0  0  0  0
   57.0240   33.5850   45.3080 S   0  0  0  0  0  0  0  0  0  0  0  0
   57.4460   31.8670   45.0120 C   0  0  0  0  0  0  0  0  0  0  0  0
   58.7200   31.3880   45.3220 C   0  0  0  0  0  0  0  0  0  0  0  0
   59.0150   30.0410   45.1040 C   0  0  0  0  0  0  0  0  0  0  0  0
   58.0400   29.1890   44.5710 C   0  0  0  0  0  0  0  0  0  0  0  0
   58.3970   27.4830   44.2920 S   0  0  0  0  0  0  0  0  0  0  0  0
   58.5030   27.2410   42.8120 O   0  0  0  0  0  0  0  0  0  0  0  0
   59.7230   27.1480   44.9160 O   0  0  0  0  0  0  0  0  0  0  0  0
   57.1630   26.4430   44.9620 N   0  0  0  0  0  0  0  0  0  0  0  0
   57.1150   25.1580   44.2380 C   0  0  0  0  0  0  0  0  0  0  0  0
   56.2580   24.1210   44.9950 C   0  0  0  0  0  0  0  0  0  0  0  0
   55.4660   24.7410   45.9880 O   0  0  0  0  0  0  0  0  0  0  0  0
   56.3000   25.3000   46.9880 C   0  0  0  0  0  0  0  0  0  0  0  0
   57.3930   26.2220   46.3990 C   0  0  0  0  0  0  0  0  0  0  0  0
   56.7770   29.7130   44.2660 C   0  0  0  0  0  0  0  0  0  0  0  0
   56.5120   31.0270   44.4890 N   0  0  0  0  0  0  0  0  0  0  0  0
   60.9230   33.8360   46.0950 C   0  0  0  0  0  0  0  0  0  0  0  0
   63.6369   33.3965   48.1215 H   0  0  0  0  0  0  0  0  0  0  0  0
   63.3221   32.5462   46.5708 H   0  0  0  0  0  0  0  0  0  0  0  0
   63.7088   34.3004   46.5708 H   0  0  0  0  0  0  0  0  0  0  0  0
   61.8332   34.1809   49.3752 H   0  0  0  0  0  0  0  0  0  0  0  0
   59.4179   34.7781   49.5639 H   0  0  0  0  0  0  0  0  0  0  0  0
   57.9651   34.7750   47.5383 H   0  0  0  0  0  0  0  0  0  0  0  0
   58.6291   35.2611   44.6147 H   0  0  0  0  0  0  0  0  0  0  0  0
   59.1641   33.5871   44.1894 H   0  0  0  0  0  0  0  0  0  0  0  0
   59.4833   32.0647   45.7336 H   0  0  0  0  0  0  0  0  0  0  0  0
   60.0128   29.6492   45.3508 H   0  0  0  0  0  0  0  0  0  0  0  0
   56.2460   26.9370   44.8380 H   0  0  0  0  0  0  0  0  0  0  0  0
   56.6798   25.3239   43.2415 H   0  0  0  0  0  0  0  0  0  0  0  0
   58.1399   24.7675   44.1542 H   0  0  0  0  0  0  0  0  0  0  0  0
   55.5992   23.6082   44.2787 H   0  0  0  0  0  0  0  0  0  0  0  0
   56.9318   23.4024   45.4846 H   0  0  0  0  0  0  0  0  0  0  0  0
   55.6775   25.8874   47.6789 H   0  0  0  0  0  0  0  0  0  0  0  0
   56.8048   24.4705   47.5049 H   0  0  0  0  0  0  0  0  0  0  0  0
   57.3706   27.1895   46.9220 H   0  0  0  0  0  0  0  0  0  0  0  0
   58.3733   25.7410   46.5321 H   0  0  0  0  0  0  0  0  0  0  0  0
   55.9985   29.0596   43.8453 H   0  0  0  0  0  0  0  0  0  0  0  0
   61.3521   33.5866   45.1134 H   0  0  0  0  0  0  0  0  0  0  0  0
  1  2  1  0
  2  3  2  0
  3  4  1  0
  4  5  2  0
  5  6  1  0
  6  7  1  0
  7  8  1  0
  8  9  1  0
  9 10  2  0
 10 11  1  0
 11 12  2  0
 12 13  1  0
 13 14  2  0
 13 15  2  0
 13 16  1  0
 16 17  1  0
 17 18  1  0
 18 19  1  0
 19 20  1  0
 20 21  1  0
 12 22  1  0
 22 23  2  0
  6 24  2  0
 24  2  1  0
 23  9  1  0
 21 16  1  0
  1 25  1  0
  1 26  1  0
  1 27  1  0
  3 28  1  0
  4 29  1  0
  5 30  1  0
  7 31  1  0
  7 32  1  0
 10 33  1  0
 11 34  1  0
 16 35  1  0
 17 36  1  0
 17 37  1  0
 18 38  1  0
 18 39  1  0
 20 40  1  0
 20 41  1  0
 21 42  1  0
 21 43  1  0
 22 44  1  0
 24 45  1  0
M  CHG  1  16   1
M  END
>  <UniqueID>  (44) 
39

>  <SMILES>  (44) 
Cc1cccc(CSc2ccc(S(=O)(=O)[NH+]3CCOCC3)cn2)c1

>  <Energy>  (44) 
48.16076947313235

>  <Genealogy>  (44) 
Cc1cccc(CSc2ccc(S(=O)(=O)[NH+]3CCOCC3)cn2)c1 (protonated)
Cc1cccc(CSc2ccc(S(=O)(=O)[NH+]3CCOCC3)cn2)c1 (3D coordinates assigned)
Cc1cccc(CSc2ccc(S(=O)(=O)[NH+]3CCOCC3)cn2)c1 (nonaromatic ring conformer: 48.16076947313235 kcal/mol)

>  <smiles>  (44) 
Cc1cccc(CSc2ccc(S(=O)(=O)N3CCOCC3)cn2)c1

>  <score_type>  (44) 
oracle

>  <origin>  (44) 
adg

>  <m_score__min__energy>  (44) 
-7.4299999999999997

>  <m_primary>  (44) 
energy

$$$$
44:0
     RDKit          3D

 51 53  0  0  0  0  0  0  0  0999 V2000
   55.4720   28.9650   44.8670 N   0  0  0  0  0  0  0  0  0  0  0  0
   56.6510   30.0470   44.2150 S   0  0  0  0  0  0  0  0  0  0  0  0
   56.6930   29.9010   42.7210 O   0  0  0  0  0  0  0  0  0  0  0  0
   56.2730   31.4610   44.5510 O   0  0  0  0  0  0  0  0  0  0  0  0
   58.2310   29.6700   44.8940 C   0  0  0  0  0  0  0  0  0  0  0  0
   58.9790   28.5970   44.3900 C   0  0  0  0  0  0  0  0  0  0  0  0
   60.2430   28.3160   44.9140 C   0  0  0  0  0  0  0  0  0  0  0  0
   60.7660   29.1000   45.9450 C   0  0  0  0  0  0  0  0  0  0  0  0
   60.0210   30.1710   46.4700 C   0  0  0  0  0  0  0  0  0  0  0  0
   60.5500   31.0130   47.5080 N   0  0  0  0  0  0  0  0  0  0  0  0
   61.9140   31.4580   47.5560 C   0  0  0  0  0  0  0  0  0  0  0  0
   62.8080   30.8510   46.9070 O   0  0  0  0  0  0  0  0  0  0  0  0
   62.2900   32.6540   48.3790 C   0  0  0  0  0  0  0  0  0  0  0  0
   61.0730   33.3140   48.8930 N   0  0  0  0  0  0  0  0  0  0  0  0
   60.7160   34.5340   48.1270 C   0  0  0  0  0  0  0  0  0  0  0  0
   59.6030   34.3290   47.1180 C   0  0  0  0  0  0  0  0  0  0  0  0
   59.7310   34.8040   45.8020 C   0  0  0  0  0  0  0  0  0  0  0  0
   58.6990   34.6130   44.8780 C   0  0  0  0  0  0  0  0  0  0  0  0
   57.5370   33.9360   45.2550 C   0  0  0  0  0  0  0  0  0  0  0  0
   57.4080   33.4430   46.5550 C   0  0  0  0  0  0  0  0  0  0  0  0
   58.4370   33.6310   47.4820 C   0  0  0  0  0  0  0  0  0  0  0  0
   61.1360   33.5350   50.3560 C   0  0  0  0  0  0  0  0  0  0  0  0
   59.8350   33.1530   51.0130 C   0  0  0  0  0  0  0  0  0  0  0  0
   59.0290   32.1400   50.4680 C   0  0  0  0  0  0  0  0  0  0  0  0
   57.8140   31.8030   51.0750 C   0  0  0  0  0  0  0  0  0  0  0  0
   57.3920   32.4820   52.2210 C   0  0  0  0  0  0  0  0  0  0  0  0
   58.1800   33.5030   52.7600 C   0  0  0  0  0  0  0  0  0  0  0  0
   59.3950   33.8420   52.1550 C   0  0  0  0  0  0  0  0  0  0  0  0
   58.7610   30.4610   45.9230 C   0  0  0  0  0  0  0  0  0  0  0  0
   54.5330   29.3600   44.6320 H   0  0  0  0  0  0  0  0  0  0  0  0
   58.5698   27.9750   43.5802 H   0  0  0  0  0  0  0  0  0  0  0  0
   60.8281   27.4750   44.5136 H   0  0  0  0  0  0  0  0  0  0  0  0
   61.7652   28.8786   46.3481 H   0  0  0  0  0  0  0  0  0  0  0  0
   59.9140   31.2910   48.2880 H   0  0  0  0  0  0  0  0  0  0  0  0
   62.9154   32.3325   49.2249 H   0  0  0  0  0  0  0  0  0  0  0  0
   62.8490   33.3638   47.7515 H   0  0  0  0  0  0  0  0  0  0  0  0
   60.3972   35.3085   48.8401 H   0  0  0  0  0  0  0  0  0  0  0  0
   61.6111   34.8233   47.5569 H   0  0  0  0  0  0  0  0  0  0  0  0
   60.6481   35.3291   45.4968 H   0  0  0  0  0  0  0  0  0  0  0  0
   58.8025   34.9967   43.8523 H   0  0  0  0  0  0  0  0  0  0  0  0
   56.7240   33.7913   44.5283 H   0  0  0  0  0  0  0  0  0  0  0  0
   56.4947   32.9056   46.8501 H   0  0  0  0  0  0  0  0  0  0  0  0
   58.3346   33.2311   48.5016 H   0  0  0  0  0  0  0  0  0  0  0  0
   61.9464   32.9227   50.7783 H   0  0  0  0  0  0  0  0  0  0  0  0
   61.3244   34.6025   50.5428 H   0  0  0  0  0  0  0  0  0  0  0  0
   59.3540   31.6097   49.5608 H   0  0  0  0  0  0  0  0  0  0  0  0
   57.1905   31.0028   50.6496 H   0  0  0  0  0  0  0  0  0  0  0  0
   56.4388   32.2128   52.6995 H   0  0  0  0  0  0  0  0  0  0  0  0
   57.8448   34.0398   53.6597 H   0  0  0  0  0  0  0  0  0  0  0  0
   60.0087   34.6521   52.5758 H   0  0  0  0  0  0  0  0  0  0  0  0
   58.1845   31.3164   46.3051 H   0  0  0  0  0  0  0  0  0  0  0  0
  1  2  1  0
  2  3  2  0
  2  4  2  0
  2  5  1  0
  5  6  2  0
  6  7  1  0
  7  8  2  0
  8  9  1  0
  9 10  1  0
 10 11  1  0
 11 12  2  0
 11 13  1  0
 13 14  1  0
 14 15  1  0
 15 16  1  0
 16 17  2  0
 17 18  1  0
 18 19  2  0
 19 20  1  0
 20 21  2  0
 14 22  1  0
 22 23  1  0
 23 24  2  0
 24 25  1  0
 25 26  2  0
 26 27  1  0
 27 28  2  0
  9 29  2  0
 29  5  1  0
 21 16  1  0
 28 23  1  0
  1 30  1  0
  6 31  1  0
  7 32  1  0
  8 33  1  0
 10 34  1  0
 13 35  1  0
 13 36  1  0
 15 37  1  0
 15 38  1  0
 17 39  1  0
 18 40  1  0
 19 41  1  0
 20 42  1  0
 21 43  1  0
 22 44  1  0
 22 45  1  0
 24 46  1  0
 25 47  1  0
 26 48  1  0
 27 49  1  0
 28 50  1  0
 29 51  1  0
M  CHG  1   1  -1
M  END
>  <UniqueID>  (45) 
40

>  <SMILES>  (45) 
[NH-]S(=O)(=O)c1cccc(NC(=O)CN(Cc2ccccc2)Cc2ccccc2)c1

>  <Energy>  (45) 
58.867632212106805

>  <Genealogy>  (45) 
[NH-]S(=O)(=O)c1cccc(NC(=O)CN(Cc2ccccc2)Cc2ccccc2)c1 (protonated)
[NH-]S(=O)(=O)c1cccc(NC(=O)CN(Cc2ccccc2)Cc2ccccc2)c1 (3D coordinates assigned)
[NH-]S(=O)(=O)c1cccc(NC(=O)CN(Cc2ccccc2)Cc2ccccc2)c1 (optimized conformer: 58.867632212106805 kcal/mol)

>  <smiles>  (45) 
NS(=O)(=O)c1cccc(NC(=O)CN(Cc2ccccc2)Cc2ccccc2)c1

>  <score_type>  (45) 
oracle

>  <origin>  (45) 
adg

>  <m_score__min__energy>  (45) 
-12.09

>  <m_primary>  (45) 
energy

$$$$
45:0
     RDKit          3D

 53 56  0  0  1  0  0  0  0  0999 V2000
   55.0850   29.9210   52.5590 C   0  0  0  0  0  0  0  0  0  0  0  0
   56.3850   29.7140   51.9920 O   0  0  0  0  0  0  0  0  0  0  0  0
   57.1790   30.8330   51.7810 C   0  0  0  0  0  0  0  0  0  0  0  0
   57.0760   31.9880   52.5250 C   0  0  0  0  0  0  0  0  0  0  0  0
   57.8920   33.0960   52.2840 C   0  0  0  0  0  0  0  0  0  0  0  0
   58.8050   33.0020   51.2780 C   0  0  0  0  0  0  0  0  0  0  0  0
   59.6690   34.0310   50.9440 O   0  0  0  0  0  0  0  0  0  0  0  0
   60.7310   33.7090   50.1180 C   0  0  0  0  0  0  0  0  0  0  0  0
   60.6110   33.9120   48.7890 N   0  0  0  0  0  0  0  0  0  0  0  0
   61.6560   33.5940   47.9860 C   0  0  0  0  0  0  0  0  0  0  0  0
   61.5060   33.8010   46.7360 N   0  0  0  0  0  0  0  0  0  0  0  0
   60.2390   33.6580   46.1060 C   0  0  0  0  0  0  0  0  0  0  0  0
   59.5760   34.7500   45.5810 C   0  0  0  0  0  0  0  0  0  0  0  0
   58.3430   34.5910   44.9720 C   0  0  0  0  0  0  0  0  0  0  0  0
   57.7580   33.3490   44.8780 C   0  0  0  0  0  0  0  0  0  0  0  0
   58.3960   32.2500   45.3920 C   0  0  0  0  0  0  0  0  0  0  0  0
   57.8390   30.8950   45.3310 C   0  0  0  0  0  0  0  0  0  0  0  0
   58.7350   29.7800   45.7830 C   0  0  0  0  0  0  0  0  0  0  0  0
   56.6670   30.6640   44.9200 O   0  0  0  0  0  0  0  0  0  0  0  0
   59.6200   32.4120   45.9960 C   0  0  0  0  0  0  0  0  0  0  0  0
   62.7930   33.0850   48.4780 N   0  0  0  0  0  0  0  0  0  0  0  0
   62.9840   32.8490   49.8170 C   0  0  0  0  0  0  0  0  0  0  0  0
   64.2680   32.3600   50.2000 C   0  0  0  0  0  0  0  0  0  0  0  0
   65.3810   33.1550   49.8590 C   0  0  0  0  0  0  0  0  0  0  0  0
   66.6710   32.7300   50.1150 C   0  0  0  0  0  0  0  0  0  0  0  0
   67.6710   33.4420   49.8090 O   0  0  0  0  0  0  0  0  0  0  0  0
   66.9140   31.5470   50.6960 N   0  0  0  0  0  0  0  0  0  0  0  0
   65.8920   30.7990   51.0180 N   0  0  0  0  0  0  0  0  0  0  0  0
   64.5930   31.1670   50.7870 C   0  0  0  0  0  0  0  0  0  0  0  0
   63.7390   30.3380   51.1430 O   0  0  0  0  0  0  0  0  0  0  0  0
   61.9300   33.1750   50.6220 C   0  0  0  0  0  0  0  0  0  0  0  0
   61.9970   33.0910   52.0450 C   0  0  0  0  0  0  0  0  0  0  0  0
   62.0720   33.0190   53.1880 N   0  0  0  0  0  0  0  0  0  0  0  0
   58.9250   31.8380   50.5110 C   0  0  0  0  0  0  0  0  0  0  0  0
   58.1140   30.7550   50.7620 C   0  0  0  0  0  0  0  0  0  0  0  0
   55.1576   29.9094   53.6565 H   0  0  0  0  0  0  0  0  0  0  0  0
   54.6911   30.8932   52.2278 H   0  0  0  0  0  0  0  0  0  0  0  0
   54.4086   29.1192   52.2278 H   0  0  0  0  0  0  0  0  0  0  0  0
   56.3300   32.0392   53.3318 H   0  0  0  0  0  0  0  0  0  0  0  0
   57.8002   34.0122   52.8857 H   0  0  0  0  0  0  0  0  0  0  0  0
   60.0295   35.7500   45.6470 H   0  0  0  0  0  0  0  0  0  0  0  0
   57.8245   35.4684   44.5581 H   0  0  0  0  0  0  0  0  0  0  0  0
   56.7783   33.2381   44.3903 H   0  0  0  0  0  0  0  0  0  0  0  0
   58.7583   29.7511   46.8824 H   0  0  0  0  0  0  0  0  0  0  0  0
   58.3518   28.8231   45.3990 H   0  0  0  0  0  0  0  0  0  0  0  0
   59.7520   29.9483   45.3990 H   0  0  0  0  0  0  0  0  0  0  0  0
   60.1298   31.5282   46.4073 H   0  0  0  0  0  0  0  0  0  0  0  0
   63.5360   32.8640   47.7740 H   0  0  0  0  0  0  0  0  0  0  0  0
   65.2198   34.1321   49.3801 H   0  0  0  0  0  0  0  0  0  0  0  0
   67.8870   31.2500   50.8780 H   0  0  0  0  0  0  0  0  0  0  0  0
   66.1010   29.8770   51.4720 H   0  0  0  0  0  0  0  0  0  0  0  0
   59.6708   31.7884   49.7039 H   0  0  0  0  0  0  0  0  0  0  0  0
   58.2071   29.8386   50.1608 H   0  0  0  0  0  0  0  0  0  0  0  0
  1  2  1  0
  2  3  1  0
  3  4  2  0
  4  5  1  0
  5  6  2  0
  6  7  1  0
  7  8  1  0
  8  9  2  0
  9 10  1  0
 10 11  2  0
 11 12  1  0
 12 13  2  0
 13 14  1  0
 14 15  2  0
 15 16  1  0
 16 17  1  0
 17 18  1  0
 17 19  2  0
 16 20  2  0
 10 21  1  0
 21 22  1  0
 22 23  1  0
 23 24  2  0
 24 25  1  0
 25 26  2  0
 25 27  1  0
 27 28  1  0
 28 29  1  0
 29 30  2  0
 22 31  2  0
 31 32  1  0
 32 33  3  0
  6 34  1  0
 34 35  2  0
 35  3  1  0
 31  8  1  0
 20 12  1  0
 29 23  1  0
  1 36  1  0
  1 37  1  0
  1 38  1  0
  4 39  1  0
  5 40  1  0
 13 41  1  0
 14 42  1  0
 15 43  1  0
 18 44  1  0
 18 45  1  0
 18 46  1  0
 20 47  1  0
 21 48  1  0
 24 49  1  0
 27 50  1  0
 28 51  1  0
 34 52  1  0
 35 53  1  0
M  END
>  <smiles>  (46) 
COc1ccc(Oc2nc(=Nc3cccc(C(C)=O)c3)[nH]c(-c3cc(=O)[nH][nH]c3=O)c2C#N)cc1

>  <score_type>  (46) 
oracle

>  <origin>  (46) 
adg

>  <m_score__min__energy>  (46) 
-9.7699999999999996

>  <m_primary>  (46) 
energy

$$$$
46:0
     RDKit          3D

 62 66  0  0  0  0  0  0  0  0999 V2000
   62.2060   29.9260   50.8290 C   0  0  0  0  0  0  0  0  0  0  0  0
   61.6010   30.6250   49.7450 O   0  0  0  0  0  0  0  0  0  0  0  0
   62.2050   31.6770   49.0430 C   0  0  0  0  0  0  0  0  0  0  0  0
   62.8090   31.4780   47.7850 C   0  0  0  0  0  0  0  0  0  0  0  0
   63.3870   32.5470   47.1010 C   0  0  0  0  0  0  0  0  0  0  0  0
   63.3530   33.8290   47.6520 C   0  0  0  0  0  0  0  0  0  0  0  0
   62.7500   34.0450   48.8910 C   0  0  0  0  0  0  0  0  0  0  0  0
   62.1910   32.9720   49.6050 C   0  0  0  0  0  0  0  0  0  0  0  0
   61.6340   33.2210   50.9530 C   0  0  0  0  0  0  0  0  0  0  0  0
   62.4870   33.3800   52.0490 C   0  0  0  0  0  0  0  0  0  0  0  0
   61.9540   33.7210   53.2840 C   0  0  0  0  0  0  0  0  0  0  0  0
   60.5790   33.8880   53.4120 C   0  0  0  0  0  0  0  0  0  0  0  0
   60.1050   34.2360   54.5280 O   0  0  0  0  0  0  0  0  0  0  0  0
   59.7630   33.6810   52.3290 N   0  0  0  0  0  0  0  0  0  0  0  0
   58.2970   33.7890   52.4670 C   0  0  0  0  0  0  0  0  0  0  0  0
   57.6300   32.4040   52.5630 C   0  0  0  0  0  0  0  0  0  0  0  0
   58.6360   31.2460   52.6660 C   0  0  0  0  0  0  0  0  0  0  0  0
   58.0100   29.7170   51.8790 S   0  0  0  0  0  0  0  0  0  0  0  0
   58.4150   30.2020   50.2070 C   0  0  0  0  0  0  0  0  0  0  0  0
   58.4530   31.4850   49.8070 N   0  0  0  0  0  0  0  0  0  0  0  0
   58.7640   31.4060   48.5000 C   0  0  0  0  0  0  0  0  0  0  0  0
   59.0550   32.5970   47.6750 C   0  0  0  0  0  0  0  0  0  0  0  0
   59.2780   33.8470   48.2800 C   0  0  0  0  0  0  0  0  0  0  0  0
   59.5300   34.9800   47.4990 C   0  0  0  0  0  0  0  0  0  0  0  0
   59.5700   34.8700   46.1060 C   0  0  0  0  0  0  0  0  0  0  0  0
   59.3410   33.6310   45.4930 C   0  0  0  0  0  0  0  0  0  0  0  0
   59.0780   32.5010   46.2740 C   0  0  0  0  0  0  0  0  0  0  0  0
   58.8920   30.0750   48.1450 C   0  0  0  0  0  0  0  0  0  0  0  0
   59.1100   29.5030   46.7980 C   0  0  0  0  0  0  0  0  0  0  0  0
   58.0300   29.1270   45.9820 C   0  0  0  0  0  0  0  0  0  0  0  0
   58.2600   28.5170   44.7470 C   0  0  0  0  0  0  0  0  0  0  0  0
   59.5650   28.2660   44.3190 C   0  0  0  0  0  0  0  0  0  0  0  0
   60.6430   28.6230   45.1250 C   0  0  0  0  0  0  0  0  0  0  0  0
   60.4180   29.2380   46.3630 C   0  0  0  0  0  0  0  0  0  0  0  0
   58.6650   29.3140   49.2280 N   0  0  0  0  0  0  0  0  0  0  0  0
   60.2890   33.3740   51.1320 N   0  0  0  0  0  0  0  0  0  0  0  0
   61.8453   30.3428   51.7809 H   0  0  0  0  0  0  0  0  0  0  0  0
   61.9408   28.8600   50.7715 H   0  0  0  0  0  0  0  0  0  0  0  0
   63.2990   30.0356   50.7715 H   0  0  0  0  0  0  0  0  0  0  0  0
   62.8245   30.4723   47.3397 H   0  0  0  0  0  0  0  0  0  0  0  0
   63.8699   32.3799   46.1269 H   0  0  0  0  0  0  0  0  0  0  0  0
   63.8033   34.6719   47.1072 H   0  0  0  0  0  0  0  0  0  0  0  0
   62.7119   35.0608   49.3113 H   0  0  0  0  0  0  0  0  0  0  0  0
   63.5714   33.2360   51.9334 H   0  0  0  0  0  0  0  0  0  0  0  0
   62.6130   33.8580   54.1540 H   0  0  0  0  0  0  0  0  0  0  0  0
   58.0659   34.3599   53.3784 H   0  0  0  0  0  0  0  0  0  0  0  0
   57.9051   34.2970   51.5735 H   0  0  0  0  0  0  0  0  0  0  0  0
   56.9875   32.3878   53.4557 H   0  0  0  0  0  0  0  0  0  0  0  0
   57.0580   32.2548   51.6354 H   0  0  0  0  0  0  0  0  0  0  0  0
   59.5711   31.5434   52.1688 H   0  0  0  0  0  0  0  0  0  0  0  0
   58.8005   31.0345   53.7329 H   0  0  0  0  0  0  0  0  0  0  0  0
   59.2541   33.9345   49.3763 H   0  0  0  0  0  0  0  0  0  0  0  0
   59.6963   35.9552   47.9800 H   0  0  0  0  0  0  0  0  0  0  0  0
   59.7814   35.7569   45.4906 H   0  0  0  0  0  0  0  0  0  0  0  0
   59.3681   33.5470   44.3965 H   0  0  0  0  0  0  0  0  0  0  0  0
   58.8882   31.5323   45.7886 H   0  0  0  0  0  0  0  0  0  0  0  0
   56.9991   29.3138   46.3172 H   0  0  0  0  0  0  0  0  0  0  0  0
   57.4099   28.2333   44.1091 H   0  0  0  0  0  0  0  0  0  0  0  0
   59.7417   27.7862   43.3450 H   0  0  0  0  0  0  0  0  0  0  0  0
   61.6711   28.4220   44.7894 H   0  0  0  0  0  0  0  0  0  0  0  0
   61.2719   29.5152   46.9986 H   0  0  0  0  0  0  0  0  0  0  0  0
   59.6600   33.2330   50.3090 H   0  0  0  0  0  0  0  0  0  0  0  0
  1  2  1  0
  2  3  1  0
  3  4  2  0
  4  5  1  0
  5  6  2  0
  6  7  1  0
  7  8  2  0
  8  9  1  0
  9 10  1  0
 10 11  2  0
 11 12  1  0
 12 13  2  0
 12 14  1  0
 14 15  1  0
 15 16  1  0
 16 17  1  0
 17 18  1  0
 18 19  1  0
 19 20  2  0
 20 21  1  0
 21 22  1  0
 22 23  2  0
 23 24  1  0
 24 25  2  0
 25 26  1  0
 26 27  2  0
 21 28  2  0
 28 29  1  0
 29 30  2  0
 30 31  1  0
 31 32  2  0
 32 33  1  0
 33 34  2  0
 28 35  1  0
 14 36  1  0
  8  3  1  0
 36  9  2  0
 35 19  1  0
 27 22  1  0
 34 29  1  0
  1 37  1  0
  1 38  1  0
  1 39  1  0
  4 40  1  0
  5 41  1  0
  6 42  1  0
  7 43  1  0
 10 44  1  0
 11 45  1  0
 15 46  1  0
 15 47  1  0
 16 48  1  0
 16 49  1  0
 17 50  1  0
 17 51  1  0
 23 52  1  0
 24 53  1  0
 25 54  1  0
 26 55  1  0
 27 56  1  0
 30 57  1  0
 31 58  1  0
 32 59  1  0
 33 60  1  0
 34 61  1  0
 36 62  1  0
M  CHG  2  35  -1  36   1
M  END
>  <UniqueID>  (47) 
41

>  <SMILES>  (47) 
COc1ccccc1-c1ccc(=O)n(CCCSc2nc(-c3ccccc3)c(-c3ccccc3)[n-]2)[nH+]1

>  <Energy>  (47) 
100.83186049111004

>  <Genealogy>  (47) 
COc1ccccc1-c1ccc(=O)n(CCCSc2nc(-c3ccccc3)c(-c3ccccc3)[n-]2)[nH+]1 (protonated)
COc1ccccc1-c1ccc(=O)n(CCCSc2nc(-c3ccccc3)c(-c3ccccc3)[n-]2)[nH+]1 (3D coordinates assigned)
COc1ccccc1-c1ccc(=O)n(CCCSc2nc(-c3ccccc3)c(-c3ccccc3)[n-]2)[nH+]1 (optimized conformer: 100.83186049111004 kcal/mol)

>  <smiles>  (47) 
COc1ccccc1-c1ccc(=O)n(CCCSc2nc(-c3ccccc3)c(-c3ccccc3)[nH]2)n1

>  <score_type>  (47) 
oracle

>  <origin>  (47) 
adg

>  <m_score__min__energy>  (47) 
-8.7799999999999994

>  <m_primary>  (47) 
energy

$$$$
47:0
     RDKit          3D

 55 58  0  0  0  0  0  0  0  0999 V2000
   61.0710   30.2300   48.9280 C   0  0  0  0  0  0  0  0  0  0  0  0
   59.3610   29.7510   49.0050 S   0  0  0  0  0  0  0  0  0  0  0  0
   58.6690   30.2190   47.7560 O   0  0  0  0  0  0  0  0  0  0  0  0
   59.2700   28.2520   49.0830 O   0  0  0  0  0  0  0  0  0  0  0  0
   58.6150   30.5190   50.3830 N   0  0  0  0  0  0  0  0  0  0  0  0
   59.5180   31.4610   51.0460 C   0  0  0  0  0  0  0  0  0  0  0  0
   58.8550   32.8350   51.2070 C   0  0  0  0  0  0  0  0  0  0  0  0
   59.6730   33.9530   50.5500 C   0  0  0  0  0  0  0  0  0  0  0  0
   60.1350   33.5560   49.2150 N   0  0  0  0  0  0  0  0  0  0  0  0
   61.4170   33.5330   48.7680 C   0  0  0  0  0  0  0  0  0  0  0  0
   62.5820   33.8320   49.4810 C   0  0  0  0  0  0  0  0  0  0  0  0
   63.8130   33.7460   48.8030 C   0  0  0  0  0  0  0  0  0  0  0  0
   63.8600   33.3690   47.4440 C   0  0  0  0  0  0  0  0  0  0  0  0
   62.6780   33.0760   46.7430 C   0  0  0  0  0  0  0  0  0  0  0  0
   61.4730   33.1680   47.4380 C   0  0  0  0  0  0  0  0  0  0  0  0
   60.1730   32.9600   47.0370 C   0  0  0  0  0  0  0  0  0  0  0  0
   59.6400   32.5960   45.8050 C   0  0  0  0  0  0  0  0  0  0  0  0
   58.2390   32.4480   45.7060 C   0  0  0  0  0  0  0  0  0  0  0  0
   57.6120   32.0500   44.4780 N   0  0  0  0  0  0  0  0  0  0  0  0
   57.1150   30.7400   44.1620 C   0  0  0  0  0  0  0  0  0  0  0  0
   56.0860   30.6450   43.4430 O   0  0  0  0  0  0  0  0  0  0  0  0
   57.7480   29.5070   44.6910 C   0  0  0  0  0  0  0  0  0  0  0  0
   59.1420   29.4430   44.8470 C   0  0  0  0  0  0  0  0  0  0  0  0
   59.7430   28.2920   45.3650 C   0  0  0  0  0  0  0  0  0  0  0  0
   58.9600   27.1950   45.7300 C   0  0  0  0  0  0  0  0  0  0  0  0
   57.5700   27.2410   45.5720 C   0  0  0  0  0  0  0  0  0  0  0  0
   56.5730   25.8650   46.0300 S   0  0  0  0  0  0  0  0  0  0  0  0
   54.9060   26.3110   45.9620 N   0  0  0  0  0  0  0  0  0  0  0  0
   56.9210   25.4350   47.4280 O   0  0  0  0  0  0  0  0  0  0  0  0
   56.8220   24.7140   45.0960 O   0  0  0  0  0  0  0  0  0  0  0  0
   56.9700   28.3870   45.0330 C   0  0  0  0  0  0  0  0  0  0  0  0
   57.4230   32.7280   46.8260 C   0  0  0  0  0  0  0  0  0  0  0  0
   57.9890   33.1060   48.0570 C   0  0  0  0  0  0  0  0  0  0  0  0
   59.3810   33.2060   48.1410 C   0  0  0  0  0  0  0  0  0  0  0  0
   61.4670   30.3409   49.9482 H   0  0  0  0  0  0  0  0  0  0  0  0
   61.6444   29.4579   48.3941 H   0  0  0  0  0  0  0  0  0  0  0  0
   61.1599   31.1876   48.3941 H   0  0  0  0  0  0  0  0  0  0  0  0
   59.7805   31.0693   52.0398 H   0  0  0  0  0  0  0  0  0  0  0  0
   60.4203   31.5768   50.4276 H   0  0  0  0  0  0  0  0  0  0  0  0
   57.8588   32.8044   50.7415 H   0  0  0  0  0  0  0  0  0  0  0  0
   58.7874   33.0535   52.2830 H   0  0  0  0  0  0  0  0  0  0  0  0
   59.0454   34.8519   50.4602 H   0  0  0  0  0  0  0  0  0  0  0  0
   60.5531   34.1566   51.1777 H   0  0  0  0  0  0  0  0  0  0  0  0
   62.5381   34.1257   50.5402 H   0  0  0  0  0  0  0  0  0  0  0  0
   64.7467   33.9748   49.3376 H   0  0  0  0  0  0  0  0  0  0  0  0
   64.8299   33.3040   46.9292 H   0  0  0  0  0  0  0  0  0  0  0  0
   62.7026   32.7842   45.6827 H   0  0  0  0  0  0  0  0  0  0  0  0
   60.2903   32.4284   44.9337 H   0  0  0  0  0  0  0  0  0  0  0  0
   59.7646   30.3033   44.5600 H   0  0  0  0  0  0  0  0  0  0  0  0
   60.8356   28.2504   45.4854 H   0  0  0  0  0  0  0  0  0  0  0  0
   59.4363   26.2933   46.1423 H   0  0  0  0  0  0  0  0  0  0  0  0
   54.7700   27.0890   46.6460 H   0  0  0  0  0  0  0  0  0  0  0  0
   55.8815   28.4105   44.8762 H   0  0  0  0  0  0  0  0  0  0  0  0
   56.3297   32.6491   46.7335 H   0  0  0  0  0  0  0  0  0  0  0  0
   57.3537   33.3172   48.9298 H   0  0  0  0  0  0  0  0  0  0  0  0
  1  2  1  0
  2  3  2  0
  2  4  2  0
  2  5  1  0
  5  6  1  0
  6  7  1  0
  7  8  1  0
  8  9  1  0
  9 10  1  0
 10 11  2  0
 11 12  1  0
 12 13  2  0
 13 14  1  0
 14 15  2  0
 15 16  1  0
 16 17  2  0
 17 18  1  0
 18 19  1  0
 19 20  1  0
 20 21  2  0
 20 22  1  0
 22 23  2  0
 23 24  1  0
 24 25  2  0
 25 26  1  0
 26 27  1  0
 27 28  1  0
 27 29  2  0
 27 30  2  0
 26 31  2  0
 18 32  2  0
 32 33  1  0
 33 34  2  0
 34  9  1  0
 15 10  1  0
 34 16  1  0
 31 22  1  0
  1 35  1  0
  1 36  1  0
  1 37  1  0
  6 38  1  0
  6 39  1  0
  7 40  1  0
  7 41  1  0
  8 42  1  0
  8 43  1  0
 11 44  1  0
 12 45  1  0
 13 46  1  0
 14 47  1  0
 17 48  1  0
 23 49  1  0
 24 50  1  0
 25 51  1  0
 28 52  1  0
 31 53  1  0
 32 54  1  0
 33 55  1  0
M  CHG  3   5  -1  19  -1  28  -1
M  END
>  <UniqueID>  (48) 
42

>  <SMILES>  (48) 
CS(=O)(=O)[N-]CCCn1c2ccccc2c2cc([N-]C(=O)c3cccc(S([NH-])(=O)=O)c3)ccc21

>  <Energy>  (48) 
96.82356210660922

>  <Genealogy>  (48) 
CS(=O)(=O)[N-]CCCn1c2ccccc2c2cc([N-]C(=O)c3cccc(S([NH-])(=O)=O)c3)ccc21 (protonated)
CS(=O)(=O)[N-]CCCn1c2ccccc2c2cc([N-]C(=O)c3cccc(S([NH-])(=O)=O)c3)ccc21 (3D coordinates assigned)
CS(=O)(=O)[N-]CCCn1c2ccccc2c2cc([N-]C(=O)c3cccc(S([NH-])(=O)=O)c3)ccc21 (optimized conformer: 96.82356210660922 kcal/mol)

>  <smiles>  (48) 
CS(=O)(=O)NCCCn1c2ccccc2c2cc(NC(=O)c3cccc(S(N)(=O)=O)c3)ccc21

>  <score_type>  (48) 
oracle

>  <origin>  (48) 
adg

>  <m_score__min__energy>  (48) 
-15.25

>  <m_primary>  (48) 
energy

$$$$
48:0
     RDKit          3D

 37 40  0  0  0  0  0  0  0  0999 V2000
   63.4520   31.8310   47.5100 C   0  0  0  0  0  0  0  0  0  0  0  0
   62.3030   31.5880   48.2060 C   0  0  0  0  0  0  0  0  0  0  0  0
   61.2650   32.5170   48.2030 C   0  0  0  0  0  0  0  0  0  0  0  0
   61.3210   33.7000   47.5240 C   0  0  0  0  0  0  0  0  0  0  0  0
   60.3060   34.6710   47.4610 N   0  0  0  0  0  0  0  0  0  0  0  0
   58.8920   34.4620   47.5190 C   0  0  0  0  0  0  0  0  0  0  0  0
   58.4090   33.6440   46.4380 C   0  0  0  0  0  0  0  0  0  0  0  0
   58.3540   32.3010   46.3550 C   0  0  0  0  0  0  0  0  0  0  0  0
   57.8890   31.7050   45.2490 C   0  0  0  0  0  0  0  0  0  0  0  0
   57.7960   30.2270   45.0800 C   0  0  0  0  0  0  0  0  0  0  0  0
   57.3170   29.3360   45.9620 N   0  0  0  0  0  0  0  0  0  0  0  0
   57.3890   28.0970   45.4710 C   0  0  0  0  0  0  0  0  0  0  0  0
   57.0170   26.8910   46.0210 C   0  0  0  0  0  0  0  0  0  0  0  0
   57.2070   25.7380   45.2800 C   0  0  0  0  0  0  0  0  0  0  0  0
   57.7670   25.8350   44.0070 C   0  0  0  0  0  0  0  0  0  0  0  0
   58.1280   27.0540   43.4850 C   0  0  0  0  0  0  0  0  0  0  0  0
   57.9350   28.1950   44.2290 C   0  0  0  0  0  0  0  0  0  0  0  0
   58.1730   29.5000   44.0150 N   0  0  0  0  0  0  0  0  0  0  0  0
   57.4730   32.5240   44.2150 C   0  0  0  0  0  0  0  0  0  0  0  0
   57.7510   34.2180   44.8240 S   0  0  0  0  0  0  0  0  0  0  0  0
   62.5130   33.9290   46.8140 C   0  0  0  0  0  0  0  0  0  0  0  0
   63.5420   33.0150   46.8130 C   0  0  0  0  0  0  0  0  0  0  0  0
   64.2784   31.1050   47.5062 H   0  0  0  0  0  0  0  0  0  0  0  0
   62.1961   30.6517   48.7734 H   0  0  0  0  0  0  0  0  0  0  0  0
   60.3550   32.2859   48.7762 H   0  0  0  0  0  0  0  0  0  0  0  0
   60.6280   35.6820   47.3560 H   0  0  0  0  0  0  0  0  0  0  0  0
   58.6476   33.9681   48.4710 H   0  0  0  0  0  0  0  0  0  0  0  0
   58.4060   35.4453   47.4358 H   0  0  0  0  0  0  0  0  0  0  0  0
   58.6939   31.6880   47.2028 H   0  0  0  0  0  0  0  0  0  0  0  0
   56.5779   26.8450   47.0285 H   0  0  0  0  0  0  0  0  0  0  0  0
   56.9201   24.7583   45.6897 H   0  0  0  0  0  0  0  0  0  0  0  0
   57.9221   24.9229   43.4119 H   0  0  0  0  0  0  0  0  0  0  0  0
   58.5683   27.1170   42.4790 H   0  0  0  0  0  0  0  0  0  0  0  0
   58.6000   29.8780   43.1210 H   0  0  0  0  0  0  0  0  0  0  0  0
   57.0645   32.2196   43.2401 H   0  0  0  0  0  0  0  0  0  0  0  0
   62.6260   34.8632   46.2444 H   0  0  0  0  0  0  0  0  0  0  0  0
   64.4565   33.2353   46.2428 H   0  0  0  0  0  0  0  0  0  0  0  0
  1  2  2  0
  2  3  1  0
  3  4  2  0
  4  5  1  0
  5  6  1  0
  6  7  1  0
  7  8  2  0
  8  9  1  0
  9 10  1  0
 10 11  2  0
 11 12  1  0
 12 13  2  0
 13 14  1  0
 14 15  2  0
 15 16  1  0
 16 17  2  0
 17 18  1  0
  9 19  2  0
 19 20  1  0
  4 21  1  0
 21 22  2  0
 22  1  1  0
 20  7  1  0
 18 10  1  0
 17 12  1  0
  1 23  1  0
  2 24  1  0
  3 25  1  0
  5 26  1  0
  6 27  1  0
  6 28  1  0
  8 29  1  0
 13 30  1  0
 14 31  1  0
 15 32  1  0
 16 33  1  0
 18 34  1  0
 19 35  1  0
 21 36  1  0
 22 37  1  0
M  END
>  <smiles>  (49) 
c1ccc(NCc2cc(-c3nc4ccccc4[nH]3)cs2)cc1

>  <score_type>  (49) 
oracle

>  <origin>  (49) 
adg

>  <m_score__min__energy>  (49) 
-7.8499999999999996

>  <m_primary>  (49) 
energy

$$$$
49:0
     RDKit          3D

 47 49  0  0  0  0  0  0  0  0999 V2000
   62.4420   31.7030   47.2040 C   0  0  0  0  0  0  0  0  0  0  0  0
   61.8970   30.5410   47.8210 O   0  0  0  0  0  0  0  0  0  0  0  0
   60.7280   30.5270   48.5980 C   0  0  0  0  0  0  0  0  0  0  0  0
   60.1920   31.7020   49.1630 C   0  0  0  0  0  0  0  0  0  0  0  0
   59.0240   31.6510   49.9230 C   0  0  0  0  0  0  0  0  0  0  0  0
   58.3850   30.4300   50.1420 C   0  0  0  0  0  0  0  0  0  0  0  0
   58.9070   29.2570   49.5910 C   0  0  0  0  0  0  0  0  0  0  0  0
   60.0770   29.2980   48.8100 C   0  0  0  0  0  0  0  0  0  0  0  0
   60.6290   28.1160   48.2120 N   0  0  0  0  0  0  0  0  0  0  0  0
   60.3350   27.5700   46.5920 S   0  0  0  0  0  0  0  0  0  0  0  0
   61.1400   26.3250   46.3440 O   0  0  0  0  0  0  0  0  0  0  0  0
   60.7790   28.6220   45.6150 O   0  0  0  0  0  0  0  0  0  0  0  0
   58.6270   27.1910   46.3950 C   0  0  0  0  0  0  0  0  0  0  0  0
   58.1130   25.9490   46.7910 C   0  0  0  0  0  0  0  0  0  0  0  0
   56.7550   25.6700   46.6290 C   0  0  0  0  0  0  0  0  0  0  0  0
   55.9010   26.6210   46.0610 C   0  0  0  0  0  0  0  0  0  0  0  0
   54.5420   26.3410   45.9700 O   0  0  0  0  0  0  0  0  0  0  0  0
   56.4180   27.8560   45.6230 C   0  0  0  0  0  0  0  0  0  0  0  0
   55.5850   28.8670   45.0390 N   0  0  0  0  0  0  0  0  0  0  0  0
   56.0530   30.0580   44.3930 C   0  0  0  0  0  0  0  0  0  0  0  0
   55.4090   31.1360   44.5080 O   0  0  0  0  0  0  0  0  0  0  0  0
   57.2620   30.0360   43.5510 C   0  0  0  0  0  0  0  0  0  0  0  0
   58.3160   30.8290   43.7900 C   0  0  0  0  0  0  0  0  0  0  0  0
   58.2810   31.9910   44.7150 C   0  0  0  0  0  0  0  0  0  0  0  0
   58.3150   31.8470   46.1180 C   0  0  0  0  0  0  0  0  0  0  0  0
   58.2820   32.9770   46.9440 C   0  0  0  0  0  0  0  0  0  0  0  0
   58.2080   34.2540   46.3850 C   0  0  0  0  0  0  0  0  0  0  0  0
   58.1550   34.4060   44.9980 C   0  0  0  0  0  0  0  0  0  0  0  0
   58.1860   33.2820   44.1660 C   0  0  0  0  0  0  0  0  0  0  0  0
   57.7740   28.1410   45.8210 C   0  0  0  0  0  0  0  0  0  0  0  0
   62.7731   32.4090   47.9798 H   0  0  0  0  0  0  0  0  0  0  0  0
   63.3001   31.4174   46.5778 H   0  0  0  0  0  0  0  0  0  0  0  0
   61.6738   32.1802   46.5778 H   0  0  0  0  0  0  0  0  0  0  0  0
   60.6984   32.6654   49.0033 H   0  0  0  0  0  0  0  0  0  0  0  0
   58.6059   32.5743   50.3504 H   0  0  0  0  0  0  0  0  0  0  0  0
   57.4688   30.3909   50.7495 H   0  0  0  0  0  0  0  0  0  0  0  0
   58.4009   28.2966   49.7685 H   0  0  0  0  0  0  0  0  0  0  0  0
   58.7806   25.1930   47.2301 H   0  0  0  0  0  0  0  0  0  0  0  0
   56.3543   24.6971   46.9497 H   0  0  0  0  0  0  0  0  0  0  0  0
   57.3010   29.3446   42.6963 H   0  0  0  0  0  0  0  0  0  0  0  0
   59.2605   30.6067   43.2718 H   0  0  0  0  0  0  0  0  0  0  0  0
   58.3676   30.8431   46.5647 H   0  0  0  0  0  0  0  0  0  0  0  0
   58.3145   32.8581   48.0371 H   0  0  0  0  0  0  0  0  0  0  0  0
   58.1915   35.1400   47.0368 H   0  0  0  0  0  0  0  0  0  0  0  0
   58.0887   35.4122   44.5585 H   0  0  0  0  0  0  0  0  0  0  0  0
   58.1357   33.4089   43.0745 H   0  0  0  0  0  0  0  0  0  0  0  0
   58.1734   29.1215   45.5225 H   0  0  0  0  0  0  0  0  0  0  0  0
  1  2  1  0
  2  3  1  0
  3  4  2  0
  4  5  1  0
  5  6  2  0
  6  7  1  0
  7  8  2  0
  8  9  1  0
  9 10  1  0
 10 11  2  0
 10 12  2  0
 10 13  1  0
 13 14  2  0
 14 15  1  0
 15 16  2  0
 16 17  1  0
 16 18  1  0
 18 19  1  0
 19 20  1  0
 20 21  2  0
 20 22  1  0
 22 23  2  3
 23 24  1  0
 24 25  2  0
 25 26  1  0
 26 27  2  0
 27 28  1  0
 28 29  2  0
 18 30  2  0
  8  3  1  0
 30 13  1  0
 29 24  1  0
  1 31  1  0
  1 32  1  0
  1 33  1  0
  4 34  1  0
  5 35  1  0
  6 36  1  0
  7 37  1  0
 14 38  1  0
 15 39  1  0
 22 40  1  0
 23 41  1  0
 25 42  1  0
 26 43  1  0
 27 44  1  0
 28 45  1  0
 29 46  1  0
 30 47  1  0
M  CHG  3   9  -1  17  -1  19  -1
M  END
>  <UniqueID>  (50) 
43

>  <SMILES>  (50) 
COc1ccccc1[N-]S(=O)(=O)c1ccc([O-])c([N-]C(=O)C=Cc2ccccc2)c1

>  <Energy>  (50) 
59.856159940635735

>  <Genealogy>  (50) 
COc1ccccc1[N-]S(=O)(=O)c1ccc([O-])c([N-]C(=O)C=Cc2ccccc2)c1 (protonated)
COc1ccccc1[N-]S(=O)(=O)c1ccc([O-])c([N-]C(=O)C=Cc2ccccc2)c1 (3D coordinates assigned)
COc1ccccc1[N-]S(=O)(=O)c1ccc([O-])c([N-]C(=O)C=Cc2ccccc2)c1 (optimized conformer: 59.856159940635735 kcal/mol)

>  <smiles>  (50) 
COc1ccccc1NS(=O)(=O)c1ccc(O)c(NC(=O)C=Cc2ccccc2)c1

>  <score_type>  (50) 
oracle

>  <origin>  (50) 
adg

>  <m_score__min__energy>  (50) 
-15.74

>  <m_primary>  (50) 
energy

$$$$
50:0
     RDKit          3D

 52 55  0  0  0  0  0  0  0  0999 V2000
   56.4610   24.9600   47.4890 N   0  0  0  0  0  0  0  0  0  0  0  0
   56.0520   25.5950   45.9350 S   0  0  0  0  0  0  0  0  0  0  0  0
   56.0870   24.4900   44.9140 O   0  0  0  0  0  0  0  0  0  0  0  0
   54.6640   26.1690   45.9760 O   0  0  0  0  0  0  0  0  0  0  0  0
   57.2040   26.8500   45.4960 C   0  0  0  0  0  0  0  0  0  0  0  0
   58.5550   26.5300   45.3000 C   0  0  0  0  0  0  0  0  0  0  0  0
   59.4640   27.5240   44.9280 C   0  0  0  0  0  0  0  0  0  0  0  0
   59.0330   28.8420   44.7590 C   0  0  0  0  0  0  0  0  0  0  0  0
   57.6880   29.1760   44.9700 C   0  0  0  0  0  0  0  0  0  0  0  0
   57.1430   30.8360   44.7290 S   0  0  0  0  0  0  0  0  0  0  0  0
   57.8810   31.4310   43.5610 O   0  0  0  0  0  0  0  0  0  0  0  0
   55.6710   30.8350   44.4160 O   0  0  0  0  0  0  0  0  0  0  0  0
   57.4230   31.8160   46.1340 N   0  0  0  0  0  0  0  0  0  0  0  0
   58.4100   32.8500   46.1750 C   0  0  0  0  0  0  0  0  0  0  0  0
   59.5390   32.7260   46.9970 C   0  0  0  0  0  0  0  0  0  0  0  0
   60.4920   33.7620   47.0750 C   0  0  0  0  0  0  0  0  0  0  0  0
   61.6700   33.6790   47.9850 C   0  0  0  0  0  0  0  0  0  0  0  0
   61.6220   34.1180   49.3160 C   0  0  0  0  0  0  0  0  0  0  0  0
   62.7660   34.0460   50.1080 C   0  0  0  0  0  0  0  0  0  0  0  0
   63.9540   33.5420   49.5610 C   0  0  0  0  0  0  0  0  0  0  0  0
   65.1770   33.4720   50.3300 N   0  0  0  0  0  0  0  0  0  0  0  0
   66.1660   32.4120   50.0770 C   0  0  0  0  0  0  0  0  0  0  0  0
   67.5510   32.8400   50.5720 C   0  0  0  0  0  0  0  0  0  0  0  0
   67.4860   33.3030   51.9040 O   0  0  0  0  0  0  0  0  0  0  0  0
   66.7300   34.4940   51.9530 C   0  0  0  0  0  0  0  0  0  0  0  0
   65.2680   34.2240   51.5900 C   0  0  0  0  0  0  0  0  0  0  0  0
   63.9480   33.1350   48.2620 N   0  0  0  0  0  0  0  0  0  0  0  0
   62.8510   33.2010   47.5060 N   0  0  0  0  0  0  0  0  0  0  0  0
   60.3160   34.8980   46.2620 C   0  0  0  0  0  0  0  0  0  0  0  0
   59.2170   34.9980   45.4050 C   0  0  0  0  0  0  0  0  0  0  0  0
   58.2610   33.9770   45.3590 C   0  0  0  0  0  0  0  0  0  0  0  0
   57.1570   34.0840   44.5130 O   0  0  0  0  0  0  0  0  0  0  0  0
   56.7760   28.1770   45.3410 C   0  0  0  0  0  0  0  0  0  0  0  0
   55.5660   24.8160   48.0060 H   0  0  0  0  0  0  0  0  0  0  0  0
   58.8999   25.4948   45.4393 H   0  0  0  0  0  0  0  0  0  0  0  0
   60.5217   27.2679   44.7678 H   0  0  0  0  0  0  0  0  0  0  0  0
   59.7509   29.6198   44.4596 H   0  0  0  0  0  0  0  0  0  0  0  0
   59.6829   31.8095   47.5881 H   0  0  0  0  0  0  0  0  0  0  0  0
   60.6856   34.5173   49.7328 H   0  0  0  0  0  0  0  0  0  0  0  0
   62.7371   34.3822   51.1550 H   0  0  0  0  0  0  0  0  0  0  0  0
   65.8595   31.4974   50.6058 H   0  0  0  0  0  0  0  0  0  0  0  0
   66.2177   32.2253   48.9942 H   0  0  0  0  0  0  0  0  0  0  0  0
   68.2337   31.9790   50.5224 H   0  0  0  0  0  0  0  0  0  0  0  0
   67.9174   33.6564   49.9323 H   0  0  0  0  0  0  0  0  0  0  0  0
   66.7783   34.9104   52.9700 H   0  0  0  0  0  0  0  0  0  0  0  0
   67.1479   35.2074   51.2274 H   0  0  0  0  0  0  0  0  0  0  0  0
   64.7980   33.6393   52.3945 H   0  0  0  0  0  0  0  0  0  0  0  0
   64.7502   35.1866   51.4661 H   0  0  0  0  0  0  0  0  0  0  0  0
   61.0513   35.7152   46.3019 H   0  0  0  0  0  0  0  0  0  0  0  0
   59.1026   35.8839   44.7631 H   0  0  0  0  0  0  0  0  0  0  0  0
   56.7830   33.2790   44.0220 H   0  0  0  0  0  0  0  0  0  0  0  0
   55.7204   28.4352   45.5112 H   0  0  0  0  0  0  0  0  0  0  0  0
  1  2  1  0
  2  3  2  0
  2  4  2  0
  2  5  1  0
  5  6  2  0
  6  7  1  0
  7  8  2  0
  8  9  1  0
  9 10  1  0
 10 11  2  0
 10 12  2  0
 10 13  1  0
 13 14  1  0
 14 15  2  0
 15 16  1  0
 16 17  1  0
 17 18  2  0
 18 19  1  0
 19 20  2  0
 20 21  1  0
 21 22  1  0
 22 23  1  0
 23 24  1  0
 24 25  1  0
 25 26  1  0
 20 27  1  0
 27 28  2  0
 16 29  2  0
 29 30  1  0
 30 31  2  0
 31 32  1  0
  9 33  2  0
 33  5  1  0
 31 14  1  0
 28 17  1  0
 26 21  1  0
  1 34  1  0
  6 35  1  0
  7 36  1  0
  8 37  1  0
 15 38  1  0
 18 39  1  0
 19 40  1  0
 22 41  1  0
 22 42  1  0
 23 43  1  0
 23 44  1  0
 25 45  1  0
 25 46  1  0
 26 47  1  0
 26 48  1  0
 29 49  1  0
 30 50  1  0
 32 51  1  0
 33 52  1  0
M  CHG  2   1  -1  13  -1
M  END
>  <UniqueID>  (51) 
44

>  <SMILES>  (51) 
[NH-]S(=O)(=O)c1cccc(S(=O)(=O)[N-]c2cc(-c3ccc(N4CCOCC4)nn3)ccc2O)c1

>  <Energy>  (51) 
70.73104089918758

>  <Genealogy>  (51) 
[NH-]S(=O)(=O)c1cccc(S(=O)(=O)[N-]c2cc(-c3ccc(N4CCOCC4)nn3)ccc2O)c1 (protonated)
[NH-]S(=O)(=O)c1cccc(S(=O)(=O)[N-]c2cc(-c3ccc(N4CCOCC4)nn3)ccc2O)c1 (3D coordinates assigned)
[NH-]S(=O)(=O)c1cccc(S(=O)(=O)[N-]c2cc(-c3ccc(N4CCOCC4)nn3)ccc2O)c1 (nonaromatic ring conformer: 70.73104089918758 kcal/mol)

>  <smiles>  (51) 
NS(=O)(=O)c1cccc(S(=O)(=O)Nc2cc(-c3ccc(N4CCOCC4)nn3)ccc2O)c1

>  <score_type>  (51) 
oracle

>  <origin>  (51) 
adg

>  <m_score__min__energy>  (51) 
-14.5

>  <m_primary>  (51) 
energy

$$$$
51:0
     RDKit          3D

 41 43  0  0  0  0  0  0  0  0999 V2000
   56.2700   19.9170   43.5230 N   0  0  0  0  0  0  0  0  0  0  0  0
   56.6120   21.6090   43.4500 S   0  0  0  0  0  0  0  0  0  0  0  0
   56.0170   22.1880   42.1970 O   0  0  0  0  0  0  0  0  0  0  0  0
   58.0990   21.8200   43.4170 O   0  0  0  0  0  0  0  0  0  0  0  0
   55.9260   22.4110   44.8610 C   0  0  0  0  0  0  0  0  0  0  0  0
   54.9730   21.7540   45.6500 C   0  0  0  0  0  0  0  0  0  0  0  0
   54.4440   22.3820   46.7790 C   0  0  0  0  0  0  0  0  0  0  0  0
   54.8670   23.6680   47.1310 C   0  0  0  0  0  0  0  0  0  0  0  0
   55.8320   24.3330   46.3510 C   0  0  0  0  0  0  0  0  0  0  0  0
   56.3080   25.6440   46.6810 N   0  0  0  0  0  0  0  0  0  0  0  0
   57.9750   26.1250   46.7190 S   0  0  0  0  0  0  0  0  0  0  0  0
   58.5470   25.7950   48.0670 O   0  0  0  0  0  0  0  0  0  0  0  0
   58.7230   25.3580   45.6650 O   0  0  0  0  0  0  0  0  0  0  0  0
   58.1230   27.8620   46.4470 C   0  0  0  0  0  0  0  0  0  0  0  0
   57.4310   28.4650   45.3880 C   0  0  0  0  0  0  0  0  0  0  0  0
   57.5440   29.8390   45.1610 C   0  0  0  0  0  0  0  0  0  0  0  0
   58.3460   30.6370   45.9960 C   0  0  0  0  0  0  0  0  0  0  0  0
   58.4660   32.0970   45.7570 C   0  0  0  0  0  0  0  0  0  0  0  0
   57.4400   32.8010   45.1000 C   0  0  0  0  0  0  0  0  0  0  0  0
   57.5560   34.1760   44.8720 C   0  0  0  0  0  0  0  0  0  0  0  0
   58.6960   34.8630   45.2990 C   0  0  0  0  0  0  0  0  0  0  0  0
   59.7210   34.1760   45.9530 C   0  0  0  0  0  0  0  0  0  0  0  0
   59.6100   32.8000   46.1820 C   0  0  0  0  0  0  0  0  0  0  0  0
   59.0290   30.0280   47.0640 C   0  0  0  0  0  0  0  0  0  0  0  0
   58.9180   28.6520   47.2900 C   0  0  0  0  0  0  0  0  0  0  0  0
   59.5840   28.0980   48.3340 F   0  0  0  0  0  0  0  0  0  0  0  0
   56.3560   23.6960   45.2190 C   0  0  0  0  0  0  0  0  0  0  0  0
   56.8270   19.5270   44.3150 H   0  0  0  0  0  0  0  0  0  0  0  0
   56.6520   19.4900   42.6480 H   0  0  0  0  0  0  0  0  0  0  0  0
   54.6407   20.7409   45.3793 H   0  0  0  0  0  0  0  0  0  0  0  0
   53.6926   21.8642   47.3933 H   0  0  0  0  0  0  0  0  0  0  0  0
   54.4447   24.1607   48.0192 H   0  0  0  0  0  0  0  0  0  0  0  0
   56.7951   27.8529   44.7316 H   0  0  0  0  0  0  0  0  0  0  0  0
   57.0014   30.3001   44.3226 H   0  0  0  0  0  0  0  0  0  0  0  0
   56.5399   32.2659   44.7632 H   0  0  0  0  0  0  0  0  0  0  0  0
   56.7493   34.7174   44.3561 H   0  0  0  0  0  0  0  0  0  0  0  0
   58.7857   35.9446   45.1199 H   0  0  0  0  0  0  0  0  0  0  0  0
   60.6175   34.7177   46.2888 H   0  0  0  0  0  0  0  0  0  0  0  0
   60.4210   32.2643   46.6970 H   0  0  0  0  0  0  0  0  0  0  0  0
   59.6569   30.6399   47.7283 H   0  0  0  0  0  0  0  0  0  0  0  0
   57.1116   24.2087   44.6056 H   0  0  0  0  0  0  0  0  0  0  0  0
  1  2  1  0
  2  3  2  0
  2  4  2  0
  2  5  1  0
  5  6  2  0
  6  7  1  0
  7  8  2  0
  8  9  1  0
  9 10  1  0
 10 11  1  0
 11 12  2  0
 11 13  2  0
 11 14  1  0
 14 15  2  0
 15 16  1  0
 16 17  2  0
 17 18  1  0
 18 19  2  0
 19 20  1  0
 20 21  2  0
 21 22  1  0
 22 23  2  0
 17 24  1  0
 24 25  2  0
 25 26  1  0
  9 27  2  0
 27  5  1  0
 25 14  1  0
 23 18  1  0
  1 28  1  0
  1 29  1  0
  6 30  1  0
  7 31  1  0
  8 32  1  0
 15 33  1  0
 16 34  1  0
 19 35  1  0
 20 36  1  0
 21 37  1  0
 22 38  1  0
 23 39  1  0
 24 40  1  0
 27 41  1  0
M  CHG  1  10  -1
M  END
>  <UniqueID>  (52) 
45

>  <SMILES>  (52) 
NS(=O)(=O)c1cccc([N-]S(=O)(=O)c2ccc(-c3ccccc3)cc2F)c1

>  <Energy>  (52) 
51.25330977753934

>  <Genealogy>  (52) 
NS(=O)(=O)c1cccc([N-]S(=O)(=O)c2ccc(-c3ccccc3)cc2F)c1 (protonated)
NS(=O)(=O)c1cccc([N-]S(=O)(=O)c2ccc(-c3ccccc3)cc2F)c1 (3D coordinates assigned)
NS(=O)(=O)c1cccc([N-]S(=O)(=O)c2ccc(-c3ccccc3)cc2F)c1 (optimized conformer: 51.25330977753934 kcal/mol)

>  <smiles>  (52) 
NS(=O)(=O)c1cccc(NS(=O)(=O)c2ccc(-c3ccccc3)cc2F)c1

>  <score_type>  (52) 
oracle

>  <origin>  (52) 
adg

>  <m_score__min__energy>  (52) 
-10.529999999999999

>  <m_primary>  (52) 
energy

$$$$
52:0
     RDKit          3D

 60 63  0  0  0  0  0  0  0  0999 V2000
   54.1710   23.8300   46.7580 O   0  0  0  0  0  0  0  0  0  0  0  0
   54.3670   23.2860   45.6400 C   0  0  0  0  0  0  0  0  0  0  0  0
   53.2710   22.9950   44.8340 O   0  0  0  0  0  0  0  0  0  0  0  0
   55.7400   23.0120   45.1510 C   0  0  0  0  0  0  0  0  0  0  0  0
   56.0100   21.7280   44.6410 C   0  0  0  0  0  0  0  0  0  0  0  0
   57.2680   21.4140   44.1250 C   0  0  0  0  0  0  0  0  0  0  0  0
   58.2770   22.3730   44.1130 C   0  0  0  0  0  0  0  0  0  0  0  0
   58.0380   23.6470   44.6310 C   0  0  0  0  0  0  0  0  0  0  0  0
   56.7810   23.9810   45.1660 C   0  0  0  0  0  0  0  0  0  0  0  0
   56.5830   25.5850   45.8900 S   0  0  0  0  0  0  0  0  0  0  0  0
   55.1310   25.9760   45.8830 O   0  0  0  0  0  0  0  0  0  0  0  0
   57.0800   25.5550   47.3090 O   0  0  0  0  0  0  0  0  0  0  0  0
   57.4630   26.7320   44.9740 O   0  0  0  0  0  0  0  0  0  0  0  0
   58.2440   27.7600   45.5170 C   0  0  0  0  0  0  0  0  0  0  0  0
   57.8530   28.3040   46.7460 C   0  0  0  0  0  0  0  0  0  0  0  0
   58.5920   29.3340   47.3350 C   0  0  0  0  0  0  0  0  0  0  0  0
   59.7400   29.8320   46.7020 C   0  0  0  0  0  0  0  0  0  0  0  0
   60.4910   30.9040   47.3010 N   0  0  0  0  0  0  0  0  0  0  0  0
   61.4490   30.5820   48.3690 C   0  0  0  0  0  0  0  0  0  0  0  0
   62.0010   31.8460   48.9720 C   0  0  0  0  0  0  0  0  0  0  0  0
   61.2020   32.6500   49.8030 C   0  0  0  0  0  0  0  0  0  0  0  0
   61.7080   33.8430   50.3270 C   0  0  0  0  0  0  0  0  0  0  0  0
   63.0110   34.2450   50.0230 C   0  0  0  0  0  0  0  0  0  0  0  0
   63.8100   33.4560   49.1910 C   0  0  0  0  0  0  0  0  0  0  0  0
   63.3080   32.2620   48.6650 C   0  0  0  0  0  0  0  0  0  0  0  0
   60.4510   32.2340   46.7370 C   0  0  0  0  0  0  0  0  0  0  0  0
   61.5230   32.7900   46.3700 O   0  0  0  0  0  0  0  0  0  0  0  0
   59.1690   32.9650   46.6100 C   0  0  0  0  0  0  0  0  0  0  0  0
   58.6060   33.2200   45.4200 C   0  0  0  0  0  0  0  0  0  0  0  0
   57.8730   32.2050   44.6250 C   0  0  0  0  0  0  0  0  0  0  0  0
   58.0640   32.1730   43.2350 C   0  0  0  0  0  0  0  0  0  0  0  0
   57.4010   31.2280   42.4480 C   0  0  0  0  0  0  0  0  0  0  0  0
   56.5470   30.2920   43.0370 C   0  0  0  0  0  0  0  0  0  0  0  0
   55.8960   29.3610   42.2280 O   0  0  0  0  0  0  0  0  0  0  0  0
   56.3620   30.3020   44.4290 C   0  0  0  0  0  0  0  0  0  0  0  0
   55.5260   29.3710   45.0350 O   0  0  0  0  0  0  0  0  0  0  0  0
   57.0240   31.2490   45.2180 C   0  0  0  0  0  0  0  0  0  0  0  0
   60.1340   29.2920   45.4700 C   0  0  0  0  0  0  0  0  0  0  0  0
   59.3950   28.2610   44.8810 C   0  0  0  0  0  0  0  0  0  0  0  0
   55.2197   20.9629   44.6493 H   0  0  0  0  0  0  0  0  0  0  0  0
   57.4626   20.4071   43.7271 H   0  0  0  0  0  0  0  0  0  0  0  0
   59.2641   22.1265   43.6947 H   0  0  0  0  0  0  0  0  0  0  0  0
   58.8417   24.3980   44.6206 H   0  0  0  0  0  0  0  0  0  0  0  0
   56.9564   27.9176   47.2527 H   0  0  0  0  0  0  0  0  0  0  0  0
   58.2717   29.7557   48.2991 H   0  0  0  0  0  0  0  0  0  0  0  0
   60.9394   29.9993   49.1505 H   0  0  0  0  0  0  0  0  0  0  0  0
   62.2772   29.9965   47.9432 H   0  0  0  0  0  0  0  0  0  0  0  0
   60.1743   32.3392   50.0420 H   0  0  0  0  0  0  0  0  0  0  0  0
   61.0792   34.4663   50.9798 H   0  0  0  0  0  0  0  0  0  0  0  0
   63.4082   35.1828   50.4386 H   0  0  0  0  0  0  0  0  0  0  0  0
   64.8348   33.7748   48.9498 H   0  0  0  0  0  0  0  0  0  0  0  0
   63.9387   31.6453   48.0079 H   0  0  0  0  0  0  0  0  0  0  0  0
   58.6616   33.3104   47.5228 H   0  0  0  0  0  0  0  0  0  0  0  0
   58.6925   34.2375   45.0112 H   0  0  0  0  0  0  0  0  0  0  0  0
   58.7417   32.8983   42.7610 H   0  0  0  0  0  0  0  0  0  0  0  0
   57.5522   31.2208   41.3585 H   0  0  0  0  0  0  0  0  0  0  0  0
   55.2050   28.7180   42.5970 H   0  0  0  0  0  0  0  0  0  0  0  0
   56.8808   31.2474   46.3086 H   0  0  0  0  0  0  0  0  0  0  0  0
   61.0295   29.6813   44.9635 H   0  0  0  0  0  0  0  0  0  0  0  0
   59.7149   27.8399   43.9164 H   0  0  0  0  0  0  0  0  0  0  0  0
  1  2  2  0
  2  3  1  0
  2  4  1  0
  4  5  2  0
  5  6  1  0
  6  7  2  0
  7  8  1  0
  8  9  2  0
  9 10  1  0
 10 11  2  0
 10 12  2  0
 10 13  1  0
 13 14  1  0
 14 15  2  0
 15 16  1  0
 16 17  2  0
 17 18  1  0
 18 19  1  0
 19 20  1  0
 20 21  2  0
 21 22  1  0
 22 23  2  0
 23 24  1  0
 24 25  2  0
 18 26  1  0
 26 27  2  0
 26 28  1  0
 28 29  2  3
 29 30  1  0
 30 31  2  0
 31 32  1  0
 32 33  2  0
 33 34  1  0
 33 35  1  0
 35 36  1  0
 35 37  2  0
 17 38  1  0
 38 39  2  0
  9  4  1  0
 39 14  1  0
 25 20  1  0
 37 30  1  0
  5 40  1  0
  6 41  1  0
  7 42  1  0
  8 43  1  0
 15 44  1  0
 16 45  1  0
 19 46  1  0
 19 47  1  0
 21 48  1  0
 22 49  1  0
 23 50  1  0
 24 51  1  0
 25 52  1  0
 28 53  1  0
 29 54  1  0
 31 55  1  0
 32 56  1  0
 34 57  1  0
 37 58  1  0
 38 59  1  0
 39 60  1  0
M  CHG  2   3  -1  36  -1
M  END
>  <UniqueID>  (53) 
46

>  <SMILES>  (53) 
O=C([O-])c1ccccc1S(=O)(=O)Oc1ccc(N(Cc2ccccc2)C(=O)C=Cc2ccc(O)c([O-])c2)cc1

>  <Energy>  (53) 
78.49051061857988

>  <Genealogy>  (53) 
O=C([O-])c1ccccc1S(=O)(=O)Oc1ccc(N(Cc2ccccc2)C(=O)C=Cc2ccc(O)c([O-])c2)cc1 (protonated)
O=C([O-])c1ccccc1S(=O)(=O)Oc1ccc(N(Cc2ccccc2)C(=O)C=Cc2ccc(O)c([O-])c2)cc1 (3D coordinates assigned)
O=C([O-])c1ccccc1S(=O)(=O)Oc1ccc(N(Cc2ccccc2)C(=O)C=Cc2ccc(O)c([O-])c2)cc1 (optimized conformer: 78.49051061857988 kcal/mol)

>  <smiles>  (53) 
O=C(O)c1ccccc1S(=O)(=O)Oc1ccc(N(Cc2ccccc2)C(=O)C=Cc2ccc(O)c(O)c2)cc1

>  <score_type>  (53) 
oracle

>  <origin>  (53) 
adg

>  <m_score__min__energy>  (53) 
-15.449999999999999

>  <m_primary>  (53) 
energy

$$$$
53:0
     RDKit          3D

 37 39  0  0  0  0  0  0  0  0999 V2000
   56.7380   29.1680   42.9830 O   0  0  0  0  0  0  0  0  0  0  0  0
   56.9820   29.4620   44.1830 C   0  0  0  0  0  0  0  0  0  0  0  0
   56.5410   30.7330   44.6830 N   0  0  0  0  0  0  0  0  0  0  0  0
   57.3770   31.7680   45.2200 C   0  0  0  0  0  0  0  0  0  0  0  0
   57.3450   33.0800   44.7170 C   0  0  0  0  0  0  0  0  0  0  0  0
   58.1750   34.0640   45.2620 C   0  0  0  0  0  0  0  0  0  0  0  0
   59.0300   33.7560   46.3310 C   0  0  0  0  0  0  0  0  0  0  0  0
   59.9620   34.8010   46.8820 C   0  0  0  0  0  0  0  0  0  0  0  0
   61.2170   34.1540   47.4000 C   0  0  0  0  0  0  0  0  0  0  0  0
   61.3900   33.9390   48.7750 C   0  0  0  0  0  0  0  0  0  0  0  0
   62.5800   33.3730   49.2380 C   0  0  0  0  0  0  0  0  0  0  0  0
   63.5660   33.0430   48.3620 N   0  0  0  0  0  0  0  0  0  0  0  0
   63.4300   33.2510   47.0250 C   0  0  0  0  0  0  0  0  0  0  0  0
   62.2560   33.8150   46.5190 C   0  0  0  0  0  0  0  0  0  0  0  0
   59.0480   32.4500   46.8440 C   0  0  0  0  0  0  0  0  0  0  0  0
   58.2170   31.4670   46.2990 C   0  0  0  0  0  0  0  0  0  0  0  0
   57.6650   28.4720   45.0490 C   0  0  0  0  0  0  0  0  0  0  0  0
   56.9150   27.5000   45.7420 C   0  0  0  0  0  0  0  0  0  0  0  0
   55.5300   27.4490   45.6200 O   0  0  0  0  0  0  0  0  0  0  0  0
   57.5610   26.5570   46.5490 C   0  0  0  0  0  0  0  0  0  0  0  0
   58.9510   26.5730   46.6760 C   0  0  0  0  0  0  0  0  0  0  0  0
   59.7020   27.5390   46.0040 C   0  0  0  0  0  0  0  0  0  0  0  0
   59.0690   28.4920   45.2000 C   0  0  0  0  0  0  0  0  0  0  0  0
   59.8390   29.4670   44.5760 O   0  0  0  0  0  0  0  0  0  0  0  0
   56.6641   33.3336   43.8911 H   0  0  0  0  0  0  0  0  0  0  0  0
   58.1577   35.0842   44.8510 H   0  0  0  0  0  0  0  0  0  0  0  0
   60.2222   35.5129   46.0848 H   0  0  0  0  0  0  0  0  0  0  0  0
   59.4625   35.3291   47.7076 H   0  0  0  0  0  0  0  0  0  0  0  0
   60.5946   34.2140   49.4834 H   0  0  0  0  0  0  0  0  0  0  0  0
   62.7198   33.1938   50.3143 H   0  0  0  0  0  0  0  0  0  0  0  0
   64.2457   32.9747   46.3406 H   0  0  0  0  0  0  0  0  0  0  0  0
   62.1468   33.9920   45.4388 H   0  0  0  0  0  0  0  0  0  0  0  0
   59.7190   32.1987   47.6787 H   0  0  0  0  0  0  0  0  0  0  0  0
   58.2230   30.4509   46.7203 H   0  0  0  0  0  0  0  0  0  0  0  0
   56.9708   25.7996   47.0858 H   0  0  0  0  0  0  0  0  0  0  0  0
   59.4545   25.8245   47.3055 H   0  0  0  0  0  0  0  0  0  0  0  0
   60.7971   27.5506   46.1075 H   0  0  0  0  0  0  0  0  0  0  0  0
  1  2  2  0
  2  3  1  0
  3  4  1  0
  4  5  2  0
  5  6  1  0
  6  7  2  0
  7  8  1  0
  8  9  1  0
  9 10  2  0
 10 11  1  0
 11 12  2  0
 12 13  1  0
 13 14  2  0
  7 15  1  0
 15 16  2  0
  2 17  1  0
 17 18  2  0
 18 19  1  0
 18 20  1  0
 20 21  2  0
 21 22  1  0
 22 23  2  0
 23 24  1  0
 16  4  1  0
 23 17  1  0
 14  9  1  0
  5 25  1  0
  6 26  1  0
  8 27  1  0
  8 28  1  0
 10 29  1  0
 11 30  1  0
 13 31  1  0
 14 32  1  0
 15 33  1  0
 16 34  1  0
 20 35  1  0
 21 36  1  0
 22 37  1  0
M  CHG  3   3  -1  19  -1  24  -1
M  END
>  <UniqueID>  (54) 
47

>  <SMILES>  (54) 
O=C([N-]c1ccc(Cc2ccncc2)cc1)c1c([O-])cccc1[O-]

>  <Energy>  (54) 
48.70499518191904

>  <Genealogy>  (54) 
O=C([N-]c1ccc(Cc2ccncc2)cc1)c1c([O-])cccc1[O-] (protonated)
O=C([N-]c1ccc(Cc2ccncc2)cc1)c1c([O-])cccc1[O-] (3D coordinates assigned)
O=C([N-]c1ccc(Cc2ccncc2)cc1)c1c([O-])cccc1[O-] (optimized conformer: 48.70499518191904 kcal/mol)

>  <smiles>  (54) 
O=C(Nc1ccc(Cc2ccncc2)cc1)c1c(O)cccc1O

>  <score_type>  (54) 
oracle

>  <origin>  (54) 
adg

>  <m_score__min__energy>  (54) 
-14.51

>  <m_primary>  (54) 
energy

$$$$
54:0
     RDKit          3D

 41 44  0  0  0  0  0  0  0  0999 V2000
   57.9430   31.4240   43.0580 O   0  0  0  0  0  0  0  0  0  0  0  0
   57.7190   31.1730   44.5220 S   0  0  0  0  0  0  0  0  0  0  0  0
   56.2650   31.3960   44.8370 O   0  0  0  0  0  0  0  0  0  0  0  0
   58.1930   29.5190   44.8980 C   0  0  0  0  0  0  0  0  0  0  0  0
   59.5470   29.1600   44.9640 C   0  0  0  0  0  0  0  0  0  0  0  0
   59.9110   27.8410   45.2530 C   0  0  0  0  0  0  0  0  0  0  0  0
   58.9240   26.8750   45.4770 C   0  0  0  0  0  0  0  0  0  0  0  0
   59.2780   25.5970   45.7560 F   0  0  0  0  0  0  0  0  0  0  0  0
   57.5730   27.2290   45.4140 C   0  0  0  0  0  0  0  0  0  0  0  0
   57.2080   28.5480   45.1260 C   0  0  0  0  0  0  0  0  0  0  0  0
   58.6820   32.2930   45.4710 C   0  0  0  0  0  0  0  0  0  0  0  0
   59.7880   31.8820   46.1470 N   0  0  0  0  0  0  0  0  0  0  0  0
   60.3800   32.8910   46.8280 C   0  0  0  0  0  0  0  0  0  0  0  0
   61.6010   32.7150   47.6480 C   0  0  0  0  0  0  0  0  0  0  0  0
   61.6370   31.7870   48.7030 C   0  0  0  0  0  0  0  0  0  0  0  0
   62.7950   31.6290   49.4710 C   0  0  0  0  0  0  0  0  0  0  0  0
   63.9420   32.3950   49.2000 C   0  0  0  0  0  0  0  0  0  0  0  0
   65.1730   32.2260   50.0160 C   0  0  0  0  0  0  0  0  0  0  0  0
   65.2610   31.1970   50.9720 C   0  0  0  0  0  0  0  0  0  0  0  0
   66.4200   31.0410   51.7400 C   0  0  0  0  0  0  0  0  0  0  0  0
   67.5020   31.9070   51.5610 C   0  0  0  0  0  0  0  0  0  0  0  0
   67.4260   32.9320   50.6140 C   0  0  0  0  0  0  0  0  0  0  0  0
   66.2690   33.0930   49.8440 C   0  0  0  0  0  0  0  0  0  0  0  0
   63.9060   33.3220   48.1450 C   0  0  0  0  0  0  0  0  0  0  0  0
   62.7470   33.4810   47.3780 C   0  0  0  0  0  0  0  0  0  0  0  0
   59.5380   34.3390   46.6110 S   0  0  0  0  0  0  0  0  0  0  0  0
   58.3830   33.6440   45.6130 C   0  0  0  0  0  0  0  0  0  0  0  0
   56.9960   34.5320   44.8780 S   0  0  0  0  0  0  0  0  0  0  0  0
   60.3247   29.9178   44.7880 H   0  0  0  0  0  0  0  0  0  0  0  0
   60.9740   27.5628   45.3042 H   0  0  0  0  0  0  0  0  0  0  0  0
   56.7969   26.4699   45.5910 H   0  0  0  0  0  0  0  0  0  0  0  0
   56.1444   28.8244   45.0782 H   0  0  0  0  0  0  0  0  0  0  0  0
   60.7472   31.1801   48.9264 H   0  0  0  0  0  0  0  0  0  0  0  0
   62.8083   30.8992   50.2940 H   0  0  0  0  0  0  0  0  0  0  0  0
   64.4133   30.5111   51.1163 H   0  0  0  0  0  0  0  0  0  0  0  0
   66.4796   30.2350   52.4862 H   0  0  0  0  0  0  0  0  0  0  0  0
   68.4128   31.7820   52.1650 H   0  0  0  0  0  0  0  0  0  0  0  0
   68.2778   33.6137   50.4737 H   0  0  0  0  0  0  0  0  0  0  0  0
   66.2153   33.9015   49.1000 H   0  0  0  0  0  0  0  0  0  0  0  0
   64.7963   33.9277   47.9203 H   0  0  0  0  0  0  0  0  0  0  0  0
   62.7330   34.2122   46.5563 H   0  0  0  0  0  0  0  0  0  0  0  0
  1  2  2  0
  2  3  2  0
  2  4  1  0
  4  5  2  0
  5  6  1  0
  6  7  2  0
  7  8  1  0
  7  9  1  0
  9 10  2  0
  2 11  1  0
 11 12  1  0
 12 13  2  0
 13 14  1  0
 14 15  2  0
 15 16  1  0
 16 17  2  0
 17 18  1  0
 18 19  2  0
 19 20  1  0
 20 21  2  0
 21 22  1  0
 22 23  2  0
 17 24  1  0
 24 25  2  0
 13 26  1  0
 26 27  1  0
 27 28  1  0
 10  4  1  0
 27 11  2  0
 25 14  1  0
 23 18  1  0
  5 29  1  0
  6 30  1  0
  9 31  1  0
 10 32  1  0
 15 33  1  0
 16 34  1  0
 19 35  1  0
 20 36  1  0
 21 37  1  0
 22 38  1  0
 23 39  1  0
 24 40  1  0
 25 41  1  0
M  CHG  1  28  -1
M  END
>  <UniqueID>  (55) 
48

>  <SMILES>  (55) 
O=S(=O)(c1ccc(F)cc1)c1nc(-c2ccc(-c3ccccc3)cc2)sc1[S-]

>  <Energy>  (55) 
84.23938227532955

>  <Genealogy>  (55) 
O=S(=O)(c1ccc(F)cc1)c1nc(-c2ccc(-c3ccccc3)cc2)sc1[S-] (protonated)
O=S(=O)(c1ccc(F)cc1)c1nc(-c2ccc(-c3ccccc3)cc2)sc1[S-] (3D coordinates assigned)
O=S(=O)(c1ccc(F)cc1)c1nc(-c2ccc(-c3ccccc3)cc2)sc1[S-] (optimized conformer: 84.23938227532955 kcal/mol)

>  <smiles>  (55) 
O=S(=O)(c1ccc(F)cc1)c1nc(-c2ccc(-c3ccccc3)cc2)sc1S

>  <score_type>  (55) 
oracle

>  <origin>  (55) 
adg

>  <m_score__min__energy>  (55) 
-9.8000000000000007

>  <m_primary>  (55) 
energy

$$$$
55:0
     RDKit          3D

 42 44  0  0  0  0  0  0  0  0999 V2000
   53.7600   27.9660   54.0860 C   0  0  0  0  0  0  0  0  0  0  0  0
   54.8780   28.7480   53.4660 C   0  0  0  0  0  0  0  0  0  0  0  0
   56.2070   28.3700   53.4960 C   0  0  0  0  0  0  0  0  0  0  0  0
   56.8930   29.3520   52.8130 C   0  0  0  0  0  0  0  0  0  0  0  0
   58.3170   29.3820   52.6410 N   0  0  0  0  0  0  0  0  0  0  0  0
   58.9470   29.6290   51.3750 C   0  0  0  0  0  0  0  0  0  0  0  0
   58.2630   29.5930   50.3160 O   0  0  0  0  0  0  0  0  0  0  0  0
   60.3990   29.8940   51.3040 C   0  0  0  0  0  0  0  0  0  0  0  0
   60.9490   30.6690   50.2760 C   0  0  0  0  0  0  0  0  0  0  0  0
   62.3210   30.8960   50.2530 C   0  0  0  0  0  0  0  0  0  0  0  0
   63.1220   30.3490   51.2550 C   0  0  0  0  0  0  0  0  0  0  0  0
   64.3670   30.5520   51.2380 O   0  0  0  0  0  0  0  0  0  0  0  0
   62.5480   29.5970   52.2450 N   0  0  0  0  0  0  0  0  0  0  0  0
   63.3620   29.0120   53.3090 C   0  0  0  0  0  0  0  0  0  0  0  0
   61.2280   29.3860   52.2560 N   0  0  0  0  0  0  0  0  0  0  0  0
   55.9750   30.3210   52.4350 C   0  0  0  0  0  0  0  0  0  0  0  0
   56.2880   31.6380   51.7840 C   0  0  0  0  0  0  0  0  0  0  0  0
   54.7370   29.9350   52.8280 N   0  0  0  0  0  0  0  0  0  0  0  0
   53.5120   30.6600   52.6230 C   0  0  0  0  0  0  0  0  0  0  0  0
   52.6330   30.8860   53.6950 C   0  0  0  0  0  0  0  0  0  0  0  0
   51.4430   31.5920   53.4920 C   0  0  0  0  0  0  0  0  0  0  0  0
   51.1250   32.0790   52.2210 C   0  0  0  0  0  0  0  0  0  0  0  0
   49.9420   32.7810   52.0210 O   0  0  0  0  0  0  0  0  0  0  0  0
   51.9980   31.8600   51.1500 C   0  0  0  0  0  0  0  0  0  0  0  0
   53.1870   31.1530   51.3500 C   0  0  0  0  0  0  0  0  0  0  0  0
   53.8380   28.0206   55.1819 H   0  0  0  0  0  0  0  0  0  0  0  0
   52.7959   28.3877   53.7656 H   0  0  0  0  0  0  0  0  0  0  0  0
   53.8254   26.9157   53.7656 H   0  0  0  0  0  0  0  0  0  0  0  0
   56.6304   27.4709   53.9676 H   0  0  0  0  0  0  0  0  0  0  0  0
   58.9070   29.0550   53.4390 H   0  0  0  0  0  0  0  0  0  0  0  0
   60.3025   31.0942   49.4942 H   0  0  0  0  0  0  0  0  0  0  0  0
   62.7701   31.5014   49.4519 H   0  0  0  0  0  0  0  0  0  0  0  0
   62.9532   29.3058   54.2870 H   0  0  0  0  0  0  0  0  0  0  0  0
   63.3485   27.9157   53.2203 H   0  0  0  0  0  0  0  0  0  0  0  0
   64.3968   29.3743   53.2203 H   0  0  0  0  0  0  0  0  0  0  0  0
   56.4683   32.3968   52.5597 H   0  0  0  0  0  0  0  0  0  0  0  0
   57.1862   31.5332   51.1578 H   0  0  0  0  0  0  0  0  0  0  0  0
   55.4386   31.9485   51.1578 H   0  0  0  0  0  0  0  0  0  0  0  0
   52.8814   30.5065   54.6972 H   0  0  0  0  0  0  0  0  0  0  0  0
   50.7562   31.7643   54.3338 H   0  0  0  0  0  0  0  0  0  0  0  0
   51.7486   32.2444   50.1500 H   0  0  0  0  0  0  0  0  0  0  0  0
   53.8711   30.9823   50.5057 H   0  0  0  0  0  0  0  0  0  0  0  0
  1  2  1  0
  2  3  2  0
  3  4  1  0
  4  5  1  0
  5  6  1  0
  6  7  2  0
  6  8  1  0
  8  9  1  0
  9 10  2  0
 10 11  1  0
 11 12  2  0
 11 13  1  0
 13 14  1  0
 13 15  1  0
  4 16  2  0
 16 17  1  0
 16 18  1  0
 18 19  1  0
 19 20  2  0
 20 21  1  0
 21 22  2  0
 22 23  1  0
 22 24  1  0
 24 25  2  0
 18  2  1  0
 25 19  1  0
 15  8  2  0
  1 26  1  0
  1 27  1  0
  1 28  1  0
  3 29  1  0
  5 30  1  0
  9 31  1  0
 10 32  1  0
 14 33  1  0
 14 34  1  0
 14 35  1  0
 17 36  1  0
 17 37  1  0
 17 38  1  0
 20 39  1  0
 21 40  1  0
 24 41  1  0
 25 42  1  0
M  CHG  1  23  -1
M  END
>  <UniqueID>  (56) 
49

>  <SMILES>  (56) 
Cc1cc(NC(=O)c2ccc(=O)n(C)n2)c(C)n1-c1ccc([O-])cc1

>  <Energy>  (56) 
81.19582673579143

>  <Genealogy>  (56) 
Cc1cc(NC(=O)c2ccc(=O)n(C)n2)c(C)n1-c1ccc([O-])cc1 (protonated)
Cc1cc(NC(=O)c2ccc(=O)n(C)n2)c(C)n1-c1ccc([O-])cc1 (3D coordinates assigned)
Cc1cc(NC(=O)c2ccc(=O)n(C)n2)c(C)n1-c1ccc([O-])cc1 (optimized conformer: 81.19582673579143 kcal/mol)

>  <smiles>  (56) 
Cc1cc(NC(=O)c2ccc(=O)n(C)n2)c(C)n1-c1ccc(O)cc1

>  <score_type>  (56) 
oracle

>  <origin>  (56) 
adg

>  <m_score__min__energy>  (56) 
-9.9800000000000004

>  <m_primary>  (56) 
energy

$$$$
56:0
     RDKit          3D

 34 35  0  0  0  0  0  0  0  0999 V2000
   56.6350   30.4810   45.1970 O   0  0  0  0  0  0  0  0  0  0  0  0
   56.8460   29.3000   44.8150 C   0  0  0  0  0  0  0  0  0  0  0  0
   58.0630   29.0100   43.9730 C   0  0  0  0  0  0  0  0  0  0  0  0
   59.3550   29.5360   44.6140 C   0  0  0  0  0  0  0  0  0  0  0  0
   59.6700   28.8260   45.9060 C   0  0  0  0  0  0  0  0  0  0  0  0
   60.4730   27.6740   45.9000 C   0  0  0  0  0  0  0  0  0  0  0  0
   60.7910   27.0320   47.1000 C   0  0  0  0  0  0  0  0  0  0  0  0
   60.3180   27.5360   48.3150 C   0  0  0  0  0  0  0  0  0  0  0  0
   60.6450   26.8850   49.4990 O   0  0  0  0  0  0  0  0  0  0  0  0
   59.5220   28.6940   48.3320 C   0  0  0  0  0  0  0  0  0  0  0  0
   59.0410   29.2200   49.5290 O   0  0  0  0  0  0  0  0  0  0  0  0
   59.2030   29.3340   47.1290 C   0  0  0  0  0  0  0  0  0  0  0  0
   55.9780   28.2600   45.2860 N   0  0  0  0  0  0  0  0  0  0  0  0
   56.3790   26.9390   45.6710 C   0  0  0  0  0  0  0  0  0  0  0  0
   57.7290   26.5610   45.6600 C   0  0  0  0  0  0  0  0  0  0  0  0
   58.1010   25.2620   46.0170 C   0  0  0  0  0  0  0  0  0  0  0  0
   57.1250   24.3120   46.3720 C   0  0  0  0  0  0  0  0  0  0  0  0
   57.5030   22.9740   46.7420 N   0  0  0  0  0  0  0  0  0  0  0  0
   57.1130   22.4750   47.8180 O   0  0  0  0  0  0  0  0  0  0  0  0
   58.3010   22.2180   45.9120 O   0  0  0  0  0  0  0  0  0  0  0  0
   55.7720   24.6890   46.3510 C   0  0  0  0  0  0  0  0  0  0  0  0
   55.4000   25.9900   45.9940 C   0  0  0  0  0  0  0  0  0  0  0  0
   54.0550   26.3390   45.9730 O   0  0  0  0  0  0  0  0  0  0  0  0
   58.1511   27.9214   43.8420 H   0  0  0  0  0  0  0  0  0  0  0  0
   57.9339   29.5221   43.0081 H   0  0  0  0  0  0  0  0  0  0  0  0
   60.1881   29.3836   43.9120 H   0  0  0  0  0  0  0  0  0  0  0  0
   59.2151   30.6041   44.8368 H   0  0  0  0  0  0  0  0  0  0  0  0
   60.8530   27.2756   44.9477 H   0  0  0  0  0  0  0  0  0  0  0  0
   61.4158   26.1268   47.0883 H   0  0  0  0  0  0  0  0  0  0  0  0
   59.2520   28.7980   50.4260 H   0  0  0  0  0  0  0  0  0  0  0  0
   58.5818   30.2417   47.1416 H   0  0  0  0  0  0  0  0  0  0  0  0
   58.4992   27.2904   45.3690 H   0  0  0  0  0  0  0  0  0  0  0  0
   59.1642   24.9800   46.0206 H   0  0  0  0  0  0  0  0  0  0  0  0
   54.9976   23.9547   46.6177 H   0  0  0  0  0  0  0  0  0  0  0  0
  1  2  2  0
  2  3  1  0
  3  4  1  0
  4  5  1  0
  5  6  2  0
  6  7  1  0
  7  8  2  0
  8  9  1  0
  8 10  1  0
 10 11  1  0
 10 12  2  0
  2 13  1  0
 13 14  1  0
 14 15  2  0
 15 16  1  0
 16 17  2  0
 17 18  1  0
 18 19  2  0
 18 20  1  0
 17 21  1  0
 21 22  2  0
 22 23  1  0
 12  5  1  0
 22 14  1  0
  3 24  1  0
  3 25  1  0
  4 26  1  0
  4 27  1  0
  6 28  1  0
  7 29  1  0
 11 30  1  0
 12 31  1  0
 15 32  1  0
 16 33  1  0
 21 34  1  0
M  CHG  5   9  -1  13  -1  18   1  20  -1  23  -1
M  END
>  <UniqueID>  (57) 
50

>  <SMILES>  (57) 
O=C(CCc1ccc([O-])c(O)c1)[N-]c1ccc([N+](=O)[O-])cc1[O-]

>  <Energy>  (57) 
38.30051030220502

>  <Genealogy>  (57) 
O=C(CCc1ccc([O-])c(O)c1)[N-]c1ccc([N+](=O)[O-])cc1[O-] (protonated)
O=C(CCc1ccc([O-])c(O)c1)[N-]c1ccc([N+](=O)[O-])cc1[O-] (3D coordinates assigned)
O=C(CCc1ccc([O-])c(O)c1)[N-]c1ccc([N+](=O)[O-])cc1[O-] (optimized conformer: 38.30051030220502 kcal/mol)

>  <smiles>  (57) 
O=C(CCc1ccc(O)c(O)c1)Nc1ccc([N+](=O)[O-])cc1O

>  <score_type>  (57) 
oracle

>  <origin>  (57) 
adg

>  <m_score__min__energy>  (57) 
-13.93

>  <m_primary>  (57) 
energy

$$$$
57:0
     RDKit          3D

 40 42  0  0  0  0  0  0  0  0999 V2000
   59.2910   34.8710   46.8040 O   0  0  0  0  0  0  0  0  0  0  0  0
   59.5320   33.9180   46.0160 C   0  0  0  0  0  0  0  0  0  0  0  0
   58.8800   33.8950   44.7380 N   0  0  0  0  0  0  0  0  0  0  0  0
   58.1970   32.9150   44.2170 C   0  0  0  0  0  0  0  0  0  0  0  0
   58.1360   32.6940   42.8250 C   0  0  0  0  0  0  0  0  0  0  0  0
   57.3930   31.6220   42.3280 C   0  0  0  0  0  0  0  0  0  0  0  0
   56.7260   30.7730   43.2090 C   0  0  0  0  0  0  0  0  0  0  0  0
   56.0020   29.7280   42.7350 F   0  0  0  0  0  0  0  0  0  0  0  0
   56.8180   31.0030   44.5810 C   0  0  0  0  0  0  0  0  0  0  0  0
   57.5470   32.0520   45.0530 N   0  0  0  0  0  0  0  0  0  0  0  0
   60.6370   32.9410   46.3300 C   0  0  1  0  0  0  0  0  0  0  0  0
   62.1830   33.8590   46.5940 S   0  0  0  0  0  0  0  0  0  0  0  0
   61.9290   33.8050   48.3870 C   0  0  0  0  0  0  0  0  0  0  0  0
   61.1660   32.5320   48.7100 C   0  0  0  0  0  0  0  0  0  0  0  0
   60.3520   32.1850   47.5510 N   0  0  0  0  0  0  0  0  0  0  0  0
   59.3810   31.1160   47.5680 C   0  0  0  0  0  0  0  0  0  0  0  0
   58.1520   31.3920   47.6060 O   0  0  0  0  0  0  0  0  0  0  0  0
   59.7850   29.6650   47.5280 C   0  0  0  0  0  0  0  0  0  0  0  0
   59.1030   28.9350   46.3990 C   0  0  0  0  0  0  0  0  0  0  0  0
   57.7730   28.5010   46.5370 C   0  0  0  0  0  0  0  0  0  0  0  0
   57.1380   27.8230   45.4930 C   0  0  0  0  0  0  0  0  0  0  0  0
   55.8580   27.4010   45.6390 F   0  0  0  0  0  0  0  0  0  0  0  0
   57.8200   27.5810   44.2970 C   0  0  0  0  0  0  0  0  0  0  0  0
   59.1380   28.0190   44.1440 C   0  0  0  0  0  0  0  0  0  0  0  0
   59.7800   28.6970   45.1860 C   0  0  0  0  0  0  0  0  0  0  0  0
   61.0550   29.1250   45.0100 F   0  0  0  0  0  0  0  0  0  0  0  0
   58.6711   33.3629   42.1350 H   0  0  0  0  0  0  0  0  0  0  0  0
   57.3341   31.4478   41.2435 H   0  0  0  0  0  0  0  0  0  0  0  0
   56.3000   30.3348   45.2847 H   0  0  0  0  0  0  0  0  0  0  0  0
   57.5980   32.1960   46.0870 H   0  0  0  0  0  0  0  0  0  0  0  0
   60.7211   32.2427   45.4843 H   0  0  0  0  0  0  0  0  0  0  0  0
   62.9007   33.7998   48.9025 H   0  0  0  0  0  0  0  0  0  0  0  0
   61.3635   34.6872   48.7216 H   0  0  0  0  0  0  0  0  0  0  0  0
   61.8735   31.7179   48.9259 H   0  0  0  0  0  0  0  0  0  0  0  0
   60.5271   32.6842   49.5924 H   0  0  0  0  0  0  0  0  0  0  0  0
   60.8743   29.6005   47.3895 H   0  0  0  0  0  0  0  0  0  0  0  0
   59.4835   29.1955   48.4760 H   0  0  0  0  0  0  0  0  0  0  0  0
   57.2287   28.6963   47.4727 H   0  0  0  0  0  0  0  0  0  0  0  0
   57.3193   27.0460   43.4766 H   0  0  0  0  0  0  0  0  0  0  0  0
   59.6726   27.8302   43.2013 H   0  0  0  0  0  0  0  0  0  0  0  0
  1  2  2  0
  2  3  1  0
  3  4  2  3
  4  5  1  0
  5  6  2  0
  6  7  1  0
  7  8  1  0
  7  9  2  0
  9 10  1  0
  2 11  1  0
 11 12  1  0
 12 13  1  0
 13 14  1  0
 14 15  1  0
 15 16  1  0
 16 17  2  0
 16 18  1  0
 18 19  1  0
 19 20  2  0
 20 21  1  0
 21 22  1  0
 21 23  2  0
 23 24  1  0
 24 25  2  0
 25 26  1  0
 10  4  1  0
 15 11  1  0
 25 19  1  0
  5 27  1  0
  6 28  1  0
  9 29  1  0
 10 30  1  0
 11 31  1  6
 13 32  1  0
 13 33  1  0
 14 34  1  0
 14 35  1  0
 18 36  1  0
 18 37  1  0
 20 38  1  0
 23 39  1  0
 24 40  1  0
M  END
>  <UniqueID>  (58) 
51

>  <SMILES>  (58) 
O=C(N=c1ccc(F)c[nH]1)[C@H]1SCCN1C(=O)Cc1cc(F)ccc1F

>  <Energy>  (58) 
46.040490229378115

>  <Genealogy>  (58) 
O=C(N=c1ccc(F)c[nH]1)[C@H]1SCCN1C(=O)Cc1cc(F)ccc1F (chirality)
O=C(N=c1ccc(F)c[nH]1)[C@H]1SCCN1C(=O)Cc1cc(F)ccc1F (3D coordinates assigned)
O=C(N=c1ccc(F)c[nH]1)[C@H]1SCCN1C(=O)Cc1cc(F)ccc1F (nonaromatic ring conformer: 46.040490229378115 kcal/mol)

>  <smiles>  (58) 
O=C(N=c1ccc(F)c[nH]1)C1SCCN1C(=O)Cc1cc(F)ccc1F

>  <score_type>  (58) 
oracle

>  <origin>  (58) 
adg

>  <m_score__min__energy>  (58) 
-8.1099999999999994

>  <m_primary>  (58) 
energy

$$$$
58:0
     RDKit          3D

 54 56  0  0  0  0  0  0  0  0999 V2000
   61.0970   28.4530   50.0530 C   0  0  0  0  0  0  0  0  0  0  0  0
   60.2110   28.0300   48.9200 C   0  0  0  0  0  0  0  0  0  0  0  0
   60.5100   26.8670   48.1930 C   0  0  0  0  0  0  0  0  0  0  0  0
   59.6770   26.4550   47.1500 C   0  0  0  0  0  0  0  0  0  0  0  0
   58.5340   27.1970   46.8230 C   0  0  0  0  0  0  0  0  0  0  0  0
   57.4870   26.6640   45.5080 S   0  0  0  0  0  0  0  0  0  0  0  0
   56.0650   26.6500   45.9960 O   0  0  0  0  0  0  0  0  0  0  0  0
   57.8550   25.2650   45.0940 O   0  0  0  0  0  0  0  0  0  0  0  0
   57.6070   27.7360   44.1410 N   0  0  0  0  0  0  0  0  0  0  0  0
   57.7690   29.1330   44.5660 C   0  0  0  0  0  0  0  0  0  0  0  0
   56.4420   29.8390   44.6770 C   0  0  0  0  0  0  0  0  0  0  0  0
   55.4030   29.1520   44.8620 O   0  0  0  0  0  0  0  0  0  0  0  0
   56.3240   31.2680   44.6270 N   0  0  0  0  0  0  0  0  0  0  0  0
   57.3000   32.2140   45.0820 C   0  0  0  0  0  0  0  0  0  0  0  0
   57.5230   33.4200   44.4020 C   0  0  0  0  0  0  0  0  0  0  0  0
   58.4610   34.3360   44.8860 C   0  0  0  0  0  0  0  0  0  0  0  0
   59.1700   34.0630   46.0580 C   0  0  0  0  0  0  0  0  0  0  0  0
   58.9360   32.8710   46.7580 C   0  0  0  0  0  0  0  0  0  0  0  0
   59.8040   32.5120   48.2480 S   0  0  0  0  0  0  0  0  0  0  0  0
   60.1680   33.8000   48.9350 O   0  0  0  0  0  0  0  0  0  0  0  0
   58.9180   31.7130   49.1640 O   0  0  0  0  0  0  0  0  0  0  0  0
   61.2610   31.6160   47.9150 N   0  0  0  0  0  0  0  0  0  0  0  0
   61.2150   30.5500   46.9120 C   0  0  0  0  0  0  0  0  0  0  0  0
   62.4880   31.9000   48.6230 C   0  0  0  0  0  0  0  0  0  0  0  0
   63.3910   32.8660   48.1400 C   0  0  0  0  0  0  0  0  0  0  0  0
   64.5720   33.1440   48.8350 C   0  0  0  0  0  0  0  0  0  0  0  0
   64.8650   32.4670   50.0200 C   0  0  0  0  0  0  0  0  0  0  0  0
   63.9730   31.5120   50.5150 C   0  0  0  0  0  0  0  0  0  0  0  0
   62.7910   31.2300   49.8240 C   0  0  0  0  0  0  0  0  0  0  0  0
   57.9930   31.9560   46.2710 C   0  0  0  0  0  0  0  0  0  0  0  0
   58.2200   28.3470   47.5610 C   0  0  0  0  0  0  0  0  0  0  0  0
   59.0520   28.7590   48.6070 C   0  0  0  0  0  0  0  0  0  0  0  0
   60.6064   28.2188   51.0093 H   0  0  0  0  0  0  0  0  0  0  0  0
   62.0543   27.9148   49.9905 H   0  0  0  0  0  0  0  0  0  0  0  0
   61.2804   29.5358   49.9905 H   0  0  0  0  0  0  0  0  0  0  0  0
   61.4038   26.2777   48.4456 H   0  0  0  0  0  0  0  0  0  0  0  0
   59.9193   25.5441   46.5829 H   0  0  0  0  0  0  0  0  0  0  0  0
   56.6990   27.6670   43.6260 H   0  0  0  0  0  0  0  0  0  0  0  0
   58.2661   29.1518   45.5471 H   0  0  0  0  0  0  0  0  0  0  0  0
   58.3726   29.6543   43.8084 H   0  0  0  0  0  0  0  0  0  0  0  0
   56.9582   33.6456   43.4854 H   0  0  0  0  0  0  0  0  0  0  0  0
   58.6415   35.2750   44.3422 H   0  0  0  0  0  0  0  0  0  0  0  0
   59.9123   34.7835   46.4320 H   0  0  0  0  0  0  0  0  0  0  0  0
   61.1729   29.5734   47.4165 H   0  0  0  0  0  0  0  0  0  0  0  0
   60.3215   30.6766   46.2830 H   0  0  0  0  0  0  0  0  0  0  0  0
   62.1161   30.5992   46.2830 H   0  0  0  0  0  0  0  0  0  0  0  0
   63.1657   33.4063   47.2087 H   0  0  0  0  0  0  0  0  0  0  0  0
   65.2722   33.8984   48.4468 H   0  0  0  0  0  0  0  0  0  0  0  0
   65.7964   32.6849   50.5632 H   0  0  0  0  0  0  0  0  0  0  0  0
   64.2015   30.9808   51.4507 H   0  0  0  0  0  0  0  0  0  0  0  0
   62.0923   30.4791   50.2214 H   0  0  0  0  0  0  0  0  0  0  0  0
   57.7956   31.0277   46.8272 H   0  0  0  0  0  0  0  0  0  0  0  0
   57.3174   28.9264   47.3168 H   0  0  0  0  0  0  0  0  0  0  0  0
   58.7975   29.6582   49.1873 H   0  0  0  0  0  0  0  0  0  0  0  0
  1  2  1  0
  2  3  2  0
  3  4  1  0
  4  5  2  0
  5  6  1  0
  6  7  2  0
  6  8  2  0
  6  9  1  0
  9 10  1  0
 10 11  1  0
 11 12  2  0
 11 13  1  0
 13 14  1  0
 14 15  2  0
 15 16  1  0
 16 17  2  0
 17 18  1  0
 18 19  1  0
 19 20  2  0
 19 21  2  0
 19 22  1  0
 22 23  1  0
 22 24  1  0
 24 25  2  0
 25 26  1  0
 26 27  2  0
 27 28  1  0
 28 29  2  0
 18 30  2  0
  5 31  1  0
 31 32  2  0
 32  2  1  0
 30 14  1  0
 29 24  1  0
  1 33  1  0
  1 34  1  0
  1 35  1  0
  3 36  1  0
  4 37  1  0
  9 38  1  0
 10 39  1  0
 10 40  1  0
 15 41  1  0
 16 42  1  0
 17 43  1  0
 23 44  1  0
 23 45  1  0
 23 46  1  0
 25 47  1  0
 26 48  1  0
 27 49  1  0
 28 50  1  0
 29 51  1  0
 30 52  1  0
 31 53  1  0
 32 54  1  0
M  CHG  1  13  -1
M  END
>  <UniqueID>  (59) 
52

>  <SMILES>  (59) 
Cc1ccc(S(=O)(=O)NCC(=O)[N-]c2cccc(S(=O)(=O)N(C)c3ccccc3)c2)cc1

>  <Energy>  (59) 
62.21627284800333

>  <Genealogy>  (59) 
Cc1ccc(S(=O)(=O)NCC(=O)[N-]c2cccc(S(=O)(=O)N(C)c3ccccc3)c2)cc1 (protonated)
Cc1ccc(S(=O)(=O)NCC(=O)[N-]c2cccc(S(=O)(=O)N(C)c3ccccc3)c2)cc1 (3D coordinates assigned)
Cc1ccc(S(=O)(=O)NCC(=O)[N-]c2cccc(S(=O)(=O)N(C)c3ccccc3)c2)cc1 (optimized conformer: 62.21627284800333 kcal/mol)

>  <smiles>  (59) 
Cc1ccc(S(=O)(=O)NCC(=O)Nc2cccc(S(=O)(=O)N(C)c3ccccc3)c2)cc1

>  <score_type>  (59) 
oracle

>  <origin>  (59) 
adg

>  <m_score__min__energy>  (59) 
-11.869999999999999

>  <m_primary>  (59) 
energy

$$$$
59:0
     RDKit          3D

 39 41  0  0  0  0  0  0  0  0999 V2000
   57.7298   29.2668   45.8733 H   0  0  0  0  0  0  0  0  0  0  0  0
   56.9780   28.5340   45.5450 C   0  0  0  0  0  0  0  0  0  0  0  0
   55.9450   28.9460   44.8760 N   0  0  0  0  0  0  0  0  0  0  0  0
   56.0560   29.7290   43.6500 C   0  0  0  0  0  0  0  0  0  0  0  0
   56.5826   29.1361   42.8877 H   0  0  0  0  0  0  0  0  0  0  0  0
   55.0460   29.9858   43.2978 H   0  0  0  0  0  0  0  0  0  0  0  0
   56.8170   30.9920   43.9050 C   0  0  0  0  0  0  0  0  0  0  0  0
   56.7310   31.6930   45.0110 O   0  0  0  0  0  0  0  0  0  0  0  0
   57.5020   32.7500   44.8970 C   0  0  0  0  0  0  0  0  0  0  0  0
   57.6356   33.5228   45.6683 H   0  0  0  0  0  0  0  0  0  0  0  0
   58.1200   32.7440   43.6610 C   0  0  0  0  0  0  0  0  0  0  0  0
   58.8239   33.4934   43.2701 H   0  0  0  0  0  0  0  0  0  0  0  0
   57.6760   31.6090   43.0170 C   0  0  0  0  0  0  0  0  0  0  0  0
   57.9486   31.2667   42.0078 H   0  0  0  0  0  0  0  0  0  0  0  0
   57.1730   27.0970   45.8800 C   0  0  0  0  0  0  0  0  0  0  0  0
   56.0880   26.2170   46.1080 C   0  0  0  0  0  0  0  0  0  0  0  0
   54.7780   26.6820   46.0030 O   0  0  0  0  0  0  0  0  0  0  0  0
   56.3130   24.9010   46.4210 N   0  0  0  0  0  0  0  0  0  0  0  0
   55.1950   24.0240   46.6580 C   0  0  0  0  0  0  0  0  0  0  0  0
   55.0760   23.3450   47.8800 C   0  0  0  0  0  0  0  0  0  0  0  0
   55.8382   23.4837   48.6609 H   0  0  0  0  0  0  0  0  0  0  0  0
   53.9920   22.4930   48.1080 C   0  0  0  0  0  0  0  0  0  0  0  0
   53.9012   21.9643   49.0683 H   0  0  0  0  0  0  0  0  0  0  0  0
   53.0230   22.3120   47.1170 C   0  0  0  0  0  0  0  0  0  0  0  0
   52.1730   21.6386   47.3019 H   0  0  0  0  0  0  0  0  0  0  0  0
   53.1250   22.9800   45.8920 C   0  0  0  0  0  0  0  0  0  0  0  0
   52.1270   22.7640   44.9300 O   0  0  0  0  0  0  0  0  0  0  0  0
   51.2800   23.7830   44.4070 C   0  0  0  0  0  0  0  0  0  0  0  0
   50.8186   24.3381   45.2371 H   0  0  0  0  0  0  0  0  0  0  0  0
   51.8744   24.4730   43.7900 H   0  0  0  0  0  0  0  0  0  0  0  0
   50.4930   23.3248   43.7900 H   0  0  0  0  0  0  0  0  0  0  0  0
   54.2180   23.8400   45.6660 C   0  0  0  0  0  0  0  0  0  0  0  0
   54.3066   24.3706   44.7065 H   0  0  0  0  0  0  0  0  0  0  0  0
   57.5860   24.4090   46.5130 C   0  0  0  0  0  0  0  0  0  0  0  0
   57.8110   23.0750   46.8450 O   0  0  0  0  0  0  0  0  0  0  0  0
   58.6810   25.2400   46.2900 C   0  0  0  0  0  0  0  0  0  0  0  0
   59.7022   24.8378   46.3626 H   0  0  0  0  0  0  0  0  0  0  0  0
   58.4800   26.5810   45.9750 C   0  0  0  0  0  0  0  0  0  0  0  0
   59.4830   27.3200   45.7800 O   0  0  0  0  0  0  0  0  0  0  0  0
  1  2  1  0
  2  3  2  0
  3  4  1  0
  4  5  1  0
  4  6  1  0
  4  7  1  0
  7  8  1  0
  8  9  1  0
  9 10  1  0
  9 11  2  0
 11 12  1  0
 11 13  1  0
 13 14  1  0
  2 15  1  0
 15 16  2  0
 16 17  1  0
 16 18  1  0
 18 19  1  0
 19 20  2  0
 20 21  1  0
 20 22  1  0
 22 23  1  0
 22 24  2  0
 24 25  1  0
 24 26  1  0
 26 27  1  0
 27 28  1  0
 28 29  1  0
 28 30  1  0
 28 31  1  0
 26 32  2  0
 32 33  1  0
 18 34  1  0
 34 35  1  0
 34 36  2  0
 36 37  1  0
 36 38  1  0
 38 39  2  0
 13  7  2  0
 38 15  1  0
 32 19  1  0
M  CHG  2  17  -1  35  -1
M  END
>  <UniqueID>  (60) 
53

>  <SMILES>  (60) 
COc1cccc(-n2c([O-])cc(=O)c(/C=N/Cc3ccco3)c2[O-])c1

>  <Energy>  (60) 
76.68869957925158

>  <Genealogy>  (60) 
COc1cccc(-n2c([O-])cc(=O)c(C=NCc3ccco3)c2[O-])c1 (protonated)
COc1cccc(-n2c([O-])cc(=O)c(/C=N/Cc3ccco3)c2[O-])c1 (cis-trans isomerization)
COc1cccc(-n2c([O-])cc(=O)c(/C=N/Cc3ccco3)c2[O-])c1 (3D coordinates assigned)
COc1cccc(-n2c([O-])cc(=O)c(/C=N/Cc3ccco3)c2[O-])c1 (optimized conformer: 76.68869957925158 kcal/mol)

>  <smiles>  (60) 
COc1cccc(-n2c(O)cc(=O)c(C=NCc3ccco3)c2O)c1

>  <score_type>  (60) 
oracle

>  <origin>  (60) 
adg

>  <m_score__min__energy>  (60) 
-13.23

>  <m_primary>  (60) 
energy

$$$$
60:0
     RDKit          3D

 52 55  0  0  0  0  0  0  0  0999 V2000
   61.0420   30.3400   47.3300 O   0  0  0  0  0  0  0  0  0  0  0  0
   60.6470   29.6660   48.3220 C   0  0  0  0  0  0  0  0  0  0  0  0
   61.0660   30.0620   49.7050 C   0  0  0  0  0  0  0  0  0  0  0  0
   60.2950   31.2770   50.1770 C   0  0  0  0  0  0  0  0  0  0  0  0
   59.1850   31.0850   51.0260 C   0  0  0  0  0  0  0  0  0  0  0  0
   58.4850   32.1770   51.5430 C   0  0  0  0  0  0  0  0  0  0  0  0
   58.8930   33.4770   51.2380 C   0  0  0  0  0  0  0  0  0  0  0  0
   59.9980   33.6890   50.4100 C   0  0  0  0  0  0  0  0  0  0  0  0
   60.7020   32.6010   49.8610 C   0  0  0  0  0  0  0  0  0  0  0  0
   61.8710   32.8820   48.9970 C   0  0  0  0  0  0  0  0  0  0  0  0
   63.1750   32.8450   49.5220 C   0  0  0  0  0  0  0  0  0  0  0  0
   64.2750   33.1020   48.6920 C   0  0  0  0  0  0  0  0  0  0  0  0
   64.0790   33.3960   47.3360 C   0  0  0  0  0  0  0  0  0  0  0  0
   62.7860   33.4160   46.8040 C   0  0  0  0  0  0  0  0  0  0  0  0
   61.6870   33.1430   47.6260 C   0  0  0  0  0  0  0  0  0  0  0  0
   59.8770   28.4740   48.1340 N   0  0  0  0  0  0  0  0  0  0  0  0
   58.8280   28.3080   47.1730 C   0  0  0  0  0  0  0  0  0  0  0  0
   58.5340   29.3760   46.3130 C   0  0  0  0  0  0  0  0  0  0  0  0
   57.5140   29.2630   45.3580 C   0  0  0  0  0  0  0  0  0  0  0  0
   57.0910   30.6320   44.3320 S   0  0  0  0  0  0  0  0  0  0  0  0
   58.2470   30.9210   43.4140 O   0  0  0  0  0  0  0  0  0  0  0  0
   55.8810   30.3240   43.4880 O   0  0  0  0  0  0  0  0  0  0  0  0
   56.7690   32.0390   45.3000 N   0  0  0  0  0  0  0  0  0  0  0  0
   57.7060   33.0900   45.5700 C   0  0  0  0  0  0  0  0  0  0  0  0
   58.3470   33.8060   44.5390 C   0  0  0  0  0  0  0  0  0  0  0  0
   59.2730   34.8090   44.8490 C   0  0  0  0  0  0  0  0  0  0  0  0
   59.5560   35.1140   46.1820 C   0  0  0  0  0  0  0  0  0  0  0  0
   58.9030   34.4270   47.2110 C   0  0  0  0  0  0  0  0  0  0  0  0
   57.9840   33.4150   46.9070 C   0  0  0  0  0  0  0  0  0  0  0  0
   57.3940   32.7230   47.9140 F   0  0  0  0  0  0  0  0  0  0  0  0
   56.8050   28.0610   45.2430 C   0  0  0  0  0  0  0  0  0  0  0  0
   57.1100   26.9830   46.0750 C   0  0  0  0  0  0  0  0  0  0  0  0
   58.1200   27.0970   47.0380 C   0  0  0  0  0  0  0  0  0  0  0  0
   58.4260   25.9980   47.8290 O   0  0  0  0  0  0  0  0  0  0  0  0
   60.8749   29.2249   50.3926 H   0  0  0  0  0  0  0  0  0  0  0  0
   62.1375   30.3102   49.6897 H   0  0  0  0  0  0  0  0  0  0  0  0
   58.8674   30.0638   51.2836 H   0  0  0  0  0  0  0  0  0  0  0  0
   57.6114   32.0129   52.1911 H   0  0  0  0  0  0  0  0  0  0  0  0
   58.3433   34.3359   51.6505 H   0  0  0  0  0  0  0  0  0  0  0  0
   60.3210   34.7162   50.1850 H   0  0  0  0  0  0  0  0  0  0  0  0
   63.3321   32.6140   50.5859 H   0  0  0  0  0  0  0  0  0  0  0  0
   65.2938   33.0728   49.1058 H   0  0  0  0  0  0  0  0  0  0  0  0
   64.9427   33.6112   46.6897 H   0  0  0  0  0  0  0  0  0  0  0  0
   62.6328   33.6463   45.7394 H   0  0  0  0  0  0  0  0  0  0  0  0
   60.6736   33.1323   47.1984 H   0  0  0  0  0  0  0  0  0  0  0  0
   59.1089   30.3108   46.3885 H   0  0  0  0  0  0  0  0  0  0  0  0
   58.1190   33.5760   43.4878 H   0  0  0  0  0  0  0  0  0  0  0  0
   59.7787   35.3580   44.0410 H   0  0  0  0  0  0  0  0  0  0  0  0
   60.2926   35.8946   46.4230 H   0  0  0  0  0  0  0  0  0  0  0  0
   59.1117   34.6821   48.2604 H   0  0  0  0  0  0  0  0  0  0  0  0
   56.0048   27.9662   44.4942 H   0  0  0  0  0  0  0  0  0  0  0  0
   56.5543   26.0391   45.9738 H   0  0  0  0  0  0  0  0  0  0  0  0
  1  2  2  0
  2  3  1  0
  3  4  1  0
  4  5  2  0
  5  6  1  0
  6  7  2  0
  7  8  1  0
  8  9  2  0
  9 10  1  0
 10 11  2  0
 11 12  1  0
 12 13  2  0
 13 14  1  0
 14 15  2  0
  2 16  1  0
 16 17  1  0
 17 18  2  0
 18 19  1  0
 19 20  1  0
 20 21  2  0
 20 22  2  0
 20 23  1  0
 23 24  1  0
 24 25  2  0
 25 26  1  0
 26 27  2  0
 27 28  1  0
 28 29  2  0
 29 30  1  0
 19 31  2  0
 31 32  1  0
 32 33  2  0
 33 34  1  0
  9  4  1  0
 15 10  1  0
 33 17  1  0
 29 24  1  0
  3 35  1  0
  3 36  1  0
  5 37  1  0
  6 38  1  0
  7 39  1  0
  8 40  1  0
 11 41  1  0
 12 42  1  0
 13 43  1  0
 14 44  1  0
 15 45  1  0
 18 46  1  0
 25 47  1  0
 26 48  1  0
 27 49  1  0
 28 50  1  0
 31 51  1  0
 32 52  1  0
M  CHG  3  16  -1  23  -1  34  -1
M  END
>  <UniqueID>  (61) 
54

>  <SMILES>  (61) 
O=C(Cc1ccccc1-c1ccccc1)[N-]c1cc(S(=O)(=O)[N-]c2ccccc2F)ccc1[O-]

>  <Energy>  (61) 
71.66815606959315

>  <Genealogy>  (61) 
O=C(Cc1ccccc1-c1ccccc1)[N-]c1cc(S(=O)(=O)[N-]c2ccccc2F)ccc1[O-] (protonated)
O=C(Cc1ccccc1-c1ccccc1)[N-]c1cc(S(=O)(=O)[N-]c2ccccc2F)ccc1[O-] (3D coordinates assigned)
O=C(Cc1ccccc1-c1ccccc1)[N-]c1cc(S(=O)(=O)[N-]c2ccccc2F)ccc1[O-] (optimized conformer: 71.66815606959315 kcal/mol)

>  <smiles>  (61) 
O=C(Cc1ccccc1-c1ccccc1)Nc1cc(S(=O)(=O)Nc2ccccc2F)ccc1O

>  <score_type>  (61) 
oracle

>  <origin>  (61) 
adg

>  <m_score__min__energy>  (61) 
-15.220000000000001

>  <m_primary>  (61) 
energy

$$$$
61:0
     RDKit          3D

 37 39  0  0  0  0  0  0  0  0999 V2000
   58.1600   32.8739   42.6623 H   0  0  0  0  0  0  0  0  0  0  0  0
   58.1620   33.0000   43.7550 C   0  0  0  0  0  0  0  0  0  0  0  0
   59.0330   33.8220   44.3970 N   0  0  0  0  0  0  0  0  0  0  0  0
   58.8420   33.8120   45.7350 C   0  0  0  0  0  0  0  0  0  0  0  0
   59.5780   34.5250   46.5370 N   0  0  0  0  0  0  0  0  0  0  0  0
   60.0350   34.1730   47.8540 C   0  0  0  0  0  0  0  0  0  0  0  0
   59.4310   34.5830   48.8820 O   0  0  0  0  0  0  0  0  0  0  0  0
   61.2760   33.3810   48.0120 C   0  0  0  0  0  0  0  0  0  0  0  0
   62.4240   34.0390   48.4890 C   0  0  0  0  0  0  0  0  0  0  0  0
   62.3583   35.0932   48.7962 H   0  0  0  0  0  0  0  0  0  0  0  0
   63.6450   33.3700   48.5770 C   0  0  0  0  0  0  0  0  0  0  0  0
   64.5334   33.8955   48.9573 H   0  0  0  0  0  0  0  0  0  0  0  0
   63.7400   32.0380   48.1840 C   0  0  0  0  0  0  0  0  0  0  0  0
   64.7088   31.5193   48.2316 H   0  0  0  0  0  0  0  0  0  0  0  0
   62.6090   31.3600   47.7300 C   0  0  0  0  0  0  0  0  0  0  0  0
   62.6966   30.3112   47.4100 H   0  0  0  0  0  0  0  0  0  0  0  0
   61.3560   32.0010   47.6760 C   0  0  0  0  0  0  0  0  0  0  0  0
   60.1390   31.2060   47.2380 C   0  0  0  0  0  0  0  0  0  0  0  0
   59.7005   31.6841   46.3497 H   0  0  0  0  0  0  0  0  0  0  0  0
   59.4194   31.1904   48.0698 H   0  0  0  0  0  0  0  0  0  0  0  0
   60.4900   29.8270   46.9100 N   0  0  0  0  0  0  0  0  0  0  0  0
   59.9860   29.1370   45.7590 C   0  0  0  0  0  0  0  0  0  0  0  0
   60.6550   29.1350   44.6890 O   0  0  0  0  0  0  0  0  0  0  0  0
   58.6860   28.4310   45.8240 C   0  0  0  0  0  0  0  0  0  0  0  0
   57.5200   29.0380   45.3210 C   0  0  0  0  0  0  0  0  0  0  0  0
   57.5759   30.0420   44.8751 H   0  0  0  0  0  0  0  0  0  0  0  0
   56.2910   28.3740   45.3840 C   0  0  0  0  0  0  0  0  0  0  0  0
   55.1480   28.9870   44.8820 O   0  0  0  0  0  0  0  0  0  0  0  0
   56.2110   27.0960   45.9500 C   0  0  0  0  0  0  0  0  0  0  0  0
   54.9860   26.4400   46.0100 O   0  0  0  0  0  0  0  0  0  0  0  0
   57.3640   26.4830   46.4540 C   0  0  0  0  0  0  0  0  0  0  0  0
   57.2790   24.7370   47.2330 Br  0  0  0  0  0  0  0  0  0  0  0  0
   58.5940   27.1470   46.3910 C   0  0  0  0  0  0  0  0  0  0  0  0
   59.4970   26.6606   46.7884 H   0  0  0  0  0  0  0  0  0  0  0  0
   57.5820   32.7750   46.1790 S   0  0  0  0  0  0  0  0  0  0  0  0
   57.2760   32.3330   44.5870 C   0  0  0  0  0  0  0  0  0  0  0  0
   56.3200   31.4620   44.1830 F   0  0  0  0  0  0  0  0  0  0  0  0
  1  2  1  0
  2  3  1  0
  3  4  1  0
  4  5  2  0
  5  6  1  0
  6  7  2  0
  6  8  1  0
  8  9  2  0
  9 10  1  0
  9 11  1  0
 11 12  1  0
 11 13  2  0
 13 14  1  0
 13 15  1  0
 15 16  1  0
 15 17  2  0
 17 18  1  0
 18 19  1  0
 18 20  1  0
 18 21  1  0
 21 22  1  0
 22 23  2  0
 22 24  1  0
 24 25  2  0
 25 26  1  0
 25 27  1  0
 27 28  1  0
 27 29  2  0
 29 30  1  0
 29 31  1  0
 31 32  1  0
 31 33  2  0
 33 34  1  0
  4 35  1  0
 35 36  1  0
 36 37  1  0
 36  2  2  0
 17  8  1  0
 33 24  1  0
M  CHG  4   3  -1  21  -1  28  -1  30  -1
M  END
>  <UniqueID>  (62) 
55

>  <SMILES>  (62) 
O=C([N-]Cc1ccccc1C(=O)/N=c1/[n-]cc(F)s1)c1cc([O-])c([O-])c(Br)c1

>  <Energy>  (62) 
80.88203557058668

>  <Genealogy>  (62) 
O=C([N-]Cc1ccccc1C(=O)N=c1[n-]cc(F)s1)c1cc([O-])c([O-])c(Br)c1 (protonated)
O=C([N-]Cc1ccccc1C(=O)/N=c1/[n-]cc(F)s1)c1cc([O-])c([O-])c(Br)c1 (cis-trans isomerization)
O=C([N-]Cc1ccccc1C(=O)/N=c1/[n-]cc(F)s1)c1cc([O-])c([O-])c(Br)c1 (3D coordinates assigned)
O=C([N-]Cc1ccccc1C(=O)/N=c1/[n-]cc(F)s1)c1cc([O-])c([O-])c(Br)c1 (optimized conformer: 80.88203557058668 kcal/mol)

>  <smiles>  (62) 
O=C(NCc1ccccc1C(=O)N=c1[nH]cc(F)s1)c1cc(O)c(O)c(Br)c1

>  <score_type>  (62) 
oracle

>  <origin>  (62) 
adg

>  <m_score__min__energy>  (62) 
-17.699999999999999

>  <m_primary>  (62) 
energy

$$$$
62:0
     RDKit          3D

 46 48  0  0  0  0  0  0  0  0999 V2000
   62.4310   34.4850   48.9060 O   0  0  0  0  0  0  0  0  0  0  0  0
   62.0610   33.8050   47.9100 C   0  0  0  0  0  0  0  0  0  0  0  0
   62.7190   32.4730   47.6550 C   0  0  0  0  0  0  0  0  0  0  0  0
   61.8960   31.3970   48.0990 O   0  0  0  0  0  0  0  0  0  0  0  0
   61.6950   31.0820   49.4470 C   0  0  0  0  0  0  0  0  0  0  0  0
   62.5600   30.4130   50.0790 O   0  0  0  0  0  0  0  0  0  0  0  0
   60.4440   31.5010   50.1120 C   0  0  0  0  0  0  0  0  0  0  0  0
   60.2660   32.8300   50.5290 C   0  0  0  0  0  0  0  0  0  0  0  0
   59.1040   33.2070   51.2080 C   0  0  0  0  0  0  0  0  0  0  0  0
   58.1060   32.2660   51.4710 C   0  0  0  0  0  0  0  0  0  0  0  0
   58.2670   30.9440   51.0530 C   0  0  0  0  0  0  0  0  0  0  0  0
   57.2600   30.0180   51.3090 O   0  0  0  0  0  0  0  0  0  0  0  0
   59.4350   30.5610   50.3800 C   0  0  0  0  0  0  0  0  0  0  0  0
   61.0580   34.3470   47.0400 N   0  0  0  0  0  0  0  0  0  0  0  0
   59.9330   33.6350   46.5100 C   0  0  0  0  0  0  0  0  0  0  0  0
   59.4850   33.9230   45.2150 C   0  0  0  0  0  0  0  0  0  0  0  0
   58.3870   33.2420   44.6800 C   0  0  0  0  0  0  0  0  0  0  0  0
   57.6990   32.2910   45.4480 C   0  0  0  0  0  0  0  0  0  0  0  0
   56.5620   31.6350   44.8700 N   0  0  0  0  0  0  0  0  0  0  0  0
   56.5000   29.9750   44.3710 S   0  0  0  0  0  0  0  0  0  0  0  0
   56.5210   29.9150   42.8670 O   0  0  0  0  0  0  0  0  0  0  0  0
   55.2180   29.3570   44.8500 O   0  0  0  0  0  0  0  0  0  0  0  0
   57.8990   29.1030   44.9960 C   0  0  0  0  0  0  0  0  0  0  0  0
   59.1990   29.5840   44.7670 C   0  0  0  0  0  0  0  0  0  0  0  0
   60.3040   28.8740   45.2440 C   0  0  0  0  0  0  0  0  0  0  0  0
   60.1180   27.6880   45.9570 C   0  0  0  0  0  0  0  0  0  0  0  0
   58.8270   27.2110   46.2010 C   0  0  0  0  0  0  0  0  0  0  0  0
   57.7170   27.9180   45.7270 C   0  0  0  0  0  0  0  0  0  0  0  0
   56.4710   27.4470   45.9840 F   0  0  0  0  0  0  0  0  0  0  0  0
   58.1400   32.0160   46.7540 C   0  0  0  0  0  0  0  0  0  0  0  0
   59.2520   32.6810   47.2790 C   0  0  0  0  0  0  0  0  0  0  0  0
   62.9009   32.3636   46.5757 H   0  0  0  0  0  0  0  0  0  0  0  0
   63.6660   32.4401   48.2137 H   0  0  0  0  0  0  0  0  0  0  0  0
   61.0450   33.5781   50.3202 H   0  0  0  0  0  0  0  0  0  0  0  0
   58.9750   34.2488   51.5365 H   0  0  0  0  0  0  0  0  0  0  0  0
   57.1937   32.5665   52.0072 H   0  0  0  0  0  0  0  0  0  0  0  0
   56.3510   30.1000   50.8710 H   0  0  0  0  0  0  0  0  0  0  0  0
   59.5627   29.5166   50.0592 H   0  0  0  0  0  0  0  0  0  0  0  0
   59.9993   34.6887   44.6156 H   0  0  0  0  0  0  0  0  0  0  0  0
   58.0609   33.4533   43.6509 H   0  0  0  0  0  0  0  0  0  0  0  0
   59.3473   30.5215   44.2110 H   0  0  0  0  0  0  0  0  0  0  0  0
   61.3209   29.2497   45.0577 H   0  0  0  0  0  0  0  0  0  0  0  0
   60.9892   27.1279   46.3275 H   0  0  0  0  0  0  0  0  0  0  0  0
   58.6837   26.2784   46.7665 H   0  0  0  0  0  0  0  0  0  0  0  0
   57.6073   31.2735   47.3663 H   0  0  0  0  0  0  0  0  0  0  0  0
   59.5940   32.4547   48.2997 H   0  0  0  0  0  0  0  0  0  0  0  0
  1  2  2  0
  2  3  1  0
  3  4  1  0
  4  5  1  0
  5  6  2  0
  5  7  1  0
  7  8  2  0
  8  9  1  0
  9 10  2  0
 10 11  1  0
 11 12  1  0
 11 13  2  0
  2 14  1  0
 14 15  1  0
 15 16  2  0
 16 17  1  0
 17 18  2  0
 18 19  1  0
 19 20  1  0
 20 21  2  0
 20 22  2  0
 20 23  1  0
 23 24  2  0
 24 25  1  0
 25 26  2  0
 26 27  1  0
 27 28  2  0
 28 29  1  0
 18 30  1  0
 30 31  2  0
 13  7  1  0
 31 15  1  0
 28 23  1  0
  3 32  1  0
  3 33  1  0
  8 34  1  0
  9 35  1  0
 10 36  1  0
 12 37  1  0
 13 38  1  0
 16 39  1  0
 17 40  1  0
 24 41  1  0
 25 42  1  0
 26 43  1  0
 27 44  1  0
 30 45  1  0
 31 46  1  0
M  CHG  2  14  -1  19  -1
M  END
>  <UniqueID>  (63) 
56

>  <SMILES>  (63) 
O=C(COC(=O)c1cccc(O)c1)[N-]c1ccc([N-]S(=O)(=O)c2ccccc2F)cc1

>  <Energy>  (63) 
52.70923400695775

>  <Genealogy>  (63) 
O=C(COC(=O)c1cccc(O)c1)[N-]c1ccc([N-]S(=O)(=O)c2ccccc2F)cc1 (protonated)
O=C(COC(=O)c1cccc(O)c1)[N-]c1ccc([N-]S(=O)(=O)c2ccccc2F)cc1 (3D coordinates assigned)
O=C(COC(=O)c1cccc(O)c1)[N-]c1ccc([N-]S(=O)(=O)c2ccccc2F)cc1 (optimized conformer: 52.70923400695775 kcal/mol)

>  <smiles>  (63) 
O=C(COC(=O)c1cccc(O)c1)Nc1ccc(NS(=O)(=O)c2ccccc2F)cc1

>  <score_type>  (63) 
oracle

>  <origin>  (63) 
adg

>  <m_score__min__energy>  (63) 
-12.08

>  <m_primary>  (63) 
energy

$$$$
63:0
     RDKit          3D

 42 44  0  0  0  0  0  0  0  0999 V2000
   57.3890   25.2130   43.3550 C   0  0  0  0  0  0  0  0  0  0  0  0
   56.7760   24.3220   44.3380 N   0  0  0  0  0  0  0  0  0  0  0  0
   56.2430   24.6430   45.5580 C   0  0  0  0  0  0  0  0  0  0  0  0
   56.1740   26.0020   46.1310 C   0  0  0  0  0  0  0  0  0  0  0  0
   55.1390   26.7070   45.9840 O   0  0  0  0  0  0  0  0  0  0  0  0
   57.2920   26.5190   46.8610 N   0  0  0  0  0  0  0  0  0  0  0  0
   58.5840   25.8460   46.9460 C   0  0  0  0  0  0  0  0  0  0  0  0
   59.5480   26.4030   45.8850 C   0  0  0  0  0  0  0  0  0  0  0  0
   59.2360   27.8030   45.5060 N   0  0  1  0  0  0  0  0  0  0  0  0
   60.4270   28.6550   45.6890 C   0  0  0  0  0  0  0  0  0  0  0  0
   58.6780   27.9450   44.1350 C   0  0  0  0  0  0  0  0  0  0  0  0
   57.4110   28.7610   44.0720 C   0  0  0  0  0  0  0  0  0  0  0  0
   57.0090   29.5430   43.0060 C   0  0  0  0  0  0  0  0  0  0  0  0
   55.7990   30.0980   43.3700 C   0  0  0  0  0  0  0  0  0  0  0  0
   55.5170   29.6350   44.6400 C   0  0  0  0  0  0  0  0  0  0  0  0
   56.5020   28.8230   45.0630 N   0  0  0  0  0  0  0  0  0  0  0  0
   55.7770   23.4950   46.2190 C   0  0  0  0  0  0  0  0  0  0  0  0
   56.0610   22.4800   45.3430 C   0  0  0  0  0  0  0  0  0  0  0  0
   55.9210   20.8170   45.2420 S   0  0  0  0  0  0  0  0  0  0  0  0
   56.6590   20.7630   43.6980 C   0  0  0  0  0  0  0  0  0  0  0  0
   57.0110   22.0550   43.2820 C   0  0  0  0  0  0  0  0  0  0  0  0
   56.6470   22.9860   44.2510 C   0  0  0  0  0  0  0  0  0  0  0  0
   57.9382   26.0112   43.8758 H   0  0  0  0  0  0  0  0  0  0  0  0
   58.0850   24.6401   42.7247 H   0  0  0  0  0  0  0  0  0  0  0  0
   56.6052   25.6583   42.7247 H   0  0  0  0  0  0  0  0  0  0  0  0
   59.0124   26.0083   47.9461 H   0  0  0  0  0  0  0  0  0  0  0  0
   58.4390   24.7703   46.7676 H   0  0  0  0  0  0  0  0  0  0  0  0
   60.5716   26.3669   46.2861 H   0  0  0  0  0  0  0  0  0  0  0  0
   59.4424   25.7832   44.9824 H   0  0  0  0  0  0  0  0  0  0  0  0
   58.5100   28.1640   46.1700 H   0  0  0  0  0  0  0  0  0  0  0  0
   60.6183   28.7919   46.7636 H   0  0  0  0  0  0  0  0  0  0  0  0
   61.2978   28.1736   45.2199 H   0  0  0  0  0  0  0  0  0  0  0  0
   60.2527   29.6346   45.2199 H   0  0  0  0  0  0  0  0  0  0  0  0
   59.4348   28.4311   43.5017 H   0  0  0  0  0  0  0  0  0  0  0  0
   58.4234   26.9328   43.7876 H   0  0  0  0  0  0  0  0  0  0  0  0
   57.5457   29.6930   42.0576 H   0  0  0  0  0  0  0  0  0  0  0  0
   55.1796   30.7772   42.7658 H   0  0  0  0  0  0  0  0  0  0  0  0
   54.6187   29.8925   45.2204 H   0  0  0  0  0  0  0  0  0  0  0  0
   56.5480   28.3410   45.9870 H   0  0  0  0  0  0  0  0  0  0  0  0
   55.2974   23.4266   47.2066 H   0  0  0  0  0  0  0  0  0  0  0  0
   56.8322   19.8460   43.1157 H   0  0  0  0  0  0  0  0  0  0  0  0
   57.5032   22.2977   42.3287 H   0  0  0  0  0  0  0  0  0  0  0  0
  1  2  1  0
  2  3  1  0
  3  4  1  0
  4  5  2  0
  4  6  1  0
  6  7  1  0
  7  8  1  0
  8  9  1  0
  9 10  1  0
  9 11  1  0
 11 12  1  0
 12 13  2  0
 13 14  1  0
 14 15  2  0
 15 16  1  0
  3 17  2  0
 17 18  1  0
 18 19  1  0
 19 20  1  0
 20 21  2  0
 21 22  1  0
 22  2  1  0
 16 12  1  0
 22 18  2  0
  1 23  1  0
  1 24  1  0
  1 25  1  0
  7 26  1  0
  7 27  1  0
  8 28  1  0
  8 29  1  0
  9 30  1  1
 10 31  1  0
 10 32  1  0
 10 33  1  0
 11 34  1  0
 11 35  1  0
 13 36  1  0
 14 37  1  0
 15 38  1  0
 16 39  1  0
 17 40  1  0
 20 41  1  0
 21 42  1  0
M  CHG  2   6  -1   9   1
M  END
>  <UniqueID>  (64) 
57

>  <SMILES>  (64) 
Cn1c(C(=O)[N-]CC[N@@H+](C)Cc2ccc[nH]2)cc2sccc21

>  <Energy>  (64) 
142.43409357373267

>  <Genealogy>  (64) 
Cn1c(C(=O)[N-]CC[NH+](C)Cc2ccc[nH]2)cc2sccc21 (protonated)
Cn1c(C(=O)[N-]CC[N@@H+](C)Cc2ccc[nH]2)cc2sccc21 (chirality)
Cn1c(C(=O)[N-]CC[N@@H+](C)Cc2ccc[nH]2)cc2sccc21 (3D coordinates assigned)
Cn1c(C(=O)[N-]CC[N@@H+](C)Cc2ccc[nH]2)cc2sccc21 (optimized conformer: 142.43409357373267 kcal/mol)

>  <smiles>  (64) 
CN(CCNC(=O)c1cc2sccc2n1C)Cc1ccc[nH]1

>  <score_type>  (64) 
oracle

>  <origin>  (64) 
adg

>  <m_score__min__energy>  (64) 
-5.6799999999999997

>  <m_primary>  (64) 
energy

$$$$
64:0
     RDKit          3D

 55 57  0  0  0  0  0  0  0  0999 V2000
   60.4300   28.6500   50.2220 C   0  0  0  0  0  0  0  0  0  0  0  0
   59.5010   30.1620   50.0700 S   0  0  0  0  0  0  0  0  0  0  0  0
   58.0800   29.8910   50.4780 O   0  0  0  0  0  0  0  0  0  0  0  0
   60.0690   31.2210   50.9730 O   0  0  0  0  0  0  0  0  0  0  0  0
   59.5180   30.7110   48.4230 N   0  0  0  0  0  0  0  0  0  0  0  0
   59.7690   29.8660   47.2840 C   0  0  0  0  0  0  0  0  0  0  0  0
   60.7790   30.1540   46.3480 C   0  0  0  0  0  0  0  0  0  0  0  0
   60.9880   29.3140   45.2510 C   0  0  0  0  0  0  0  0  0  0  0  0
   60.1930   28.1810   45.0720 C   0  0  0  0  0  0  0  0  0  0  0  0
   59.1810   27.8760   45.9950 C   0  0  0  0  0  0  0  0  0  0  0  0
   58.2950   26.6750   45.7840 C   0  0  0  0  0  0  0  0  0  0  0  0
   56.8630   27.0850   45.3940 C   0  0  2  0  0  0  0  0  0  0  0  0
   56.6430   28.4930   45.7110 N   0  0  0  0  0  0  0  0  0  0  0  0
   56.1790   29.4640   44.7630 C   0  0  0  0  0  0  0  0  0  0  0  0
   55.0760   29.2850   44.1760 O   0  0  0  0  0  0  0  0  0  0  0  0
   56.9830   30.6750   44.4810 C   0  0  0  0  0  0  0  0  0  0  0  0
   57.2300   31.0790   43.1550 C   0  0  0  0  0  0  0  0  0  0  0  0
   57.9890   32.2220   42.8940 C   0  0  0  0  0  0  0  0  0  0  0  0
   58.5070   32.9790   43.9480 C   0  0  0  0  0  0  0  0  0  0  0  0
   58.2630   32.5970   45.2720 C   0  0  0  0  0  0  0  0  0  0  0  0
   58.9220   33.5520   46.5980 S   0  0  0  0  0  0  0  0  0  0  0  0
   58.9800   34.9960   46.1840 O   0  0  0  0  0  0  0  0  0  0  0  0
   58.0290   33.4390   47.8030 O   0  0  0  0  0  0  0  0  0  0  0  0
   60.5240   33.0030   46.9910 N   0  0  0  0  0  0  0  0  0  0  0  0
   60.9020   33.4350   48.3310 C   0  0  0  0  0  0  0  0  0  0  0  0
   62.3970   33.5040   48.2720 C   0  0  2  0  0  0  0  0  0  0  0  0
   62.8960   34.5940   49.0020 O   0  0  0  0  0  0  0  0  0  0  0  0
   62.6320   33.6870   46.7840 C   0  0  0  0  0  0  0  0  0  0  0  0
   61.3920   33.5930   46.1180 O   0  0  0  0  0  0  0  0  0  0  0  0
   57.5090   31.4430   45.5360 C   0  0  0  0  0  0  0  0  0  0  0  0
   55.8540   26.2590   46.1380 C   0  0  0  0  0  0  0  0  0  0  0  0
   54.6330   26.3360   45.8420 O   0  0  0  0  0  0  0  0  0  0  0  0
   56.2640   25.3680   47.1200 O   0  0  0  0  0  0  0  0  0  0  0  0
   58.9700   28.7260   47.0920 C   0  0  0  0  0  0  0  0  0  0  0  0
   60.5749   28.4141   51.2866 H   0  0  0  0  0  0  0  0  0  0  0  0
   59.8792   27.8308   49.7366 H   0  0  0  0  0  0  0  0  0  0  0  0
   61.4097   28.7712   49.7366 H   0  0  0  0  0  0  0  0  0  0  0  0
   59.2600   31.7110   48.2610 H   0  0  0  0  0  0  0  0  0  0  0  0
   61.4084   31.0464   46.4806 H   0  0  0  0  0  0  0  0  0  0  0  0
   61.7819   29.5466   44.5260 H   0  0  0  0  0  0  0  0  0  0  0  0
   60.3602   27.5252   44.2049 H   0  0  0  0  0  0  0  0  0  0  0  0
   58.7198   26.0555   44.9804 H   0  0  0  0  0  0  0  0  0  0  0  0
   58.2458   26.1149   46.7295 H   0  0  0  0  0  0  0  0  0  0  0  0
   56.7430   26.9194   44.3132 H   0  0  0  0  0  0  0  0  0  0  0  0
   56.8227   30.4908   42.3195 H   0  0  0  0  0  0  0  0  0  0  0  0
   58.1797   32.5275   41.8546 H   0  0  0  0  0  0  0  0  0  0  0  0
   59.1073   33.8763   43.7368 H   0  0  0  0  0  0  0  0  0  0  0  0
   60.4724   34.4211   48.5612 H   0  0  0  0  0  0  0  0  0  0  0  0
   60.5367   32.7574   49.1168 H   0  0  0  0  0  0  0  0  0  0  0  0
   62.8996   32.6270   48.7059 H   0  0  0  0  0  0  0  0  0  0  0  0
   62.1800   34.8490   49.6420 H   0  0  0  0  0  0  0  0  0  0  0  0
   63.0787   34.6749   46.5980 H   0  0  0  0  0  0  0  0  0  0  0  0
   63.3176   32.9107   46.4134 H   0  0  0  0  0  0  0  0  0  0  0  0
   57.3277   31.1364   46.5767 H   0  0  0  0  0  0  0  0  0  0  0  0
   58.1691   28.4969   47.8104 H   0  0  0  0  0  0  0  0  0  0  0  0
  1  2  1  0
  2  3  2  0
  2  4  2  0
  2  5  1  0
  5  6  1  0
  6  7  2  0
  7  8  1  0
  8  9  2  0
  9 10  1  0
 10 11  1  0
 11 12  1  0
 12 13  1  0
 13 14  1  0
 14 15  2  0
 14 16  1  0
 16 17  2  0
 17 18  1  0
 18 19  2  0
 19 20  1  0
 20 21  1  0
 21 22  2  0
 21 23  2  0
 21 24  1  0
 24 25  1  0
 25 26  1  0
 26 27  1  0
 26 28  1  0
 28 29  1  0
 20 30  2  0
 12 31  1  0
 31 32  2  0
 31 33  1  0
 10 34  2  0
 34  6  1  0
 30 16  1  0
 29 24  1  0
  1 35  1  0
  1 36  1  0
  1 37  1  0
  5 38  1  0
  7 39  1  0
  8 40  1  0
  9 41  1  0
 11 42  1  0
 11 43  1  0
 12 44  1  6
 17 45  1  0
 18 46  1  0
 19 47  1  0
 25 48  1  0
 25 49  1  0
 26 50  1  1
 27 51  1  0
 28 52  1  0
 28 53  1  0
 30 54  1  0
 34 55  1  0
M  CHG  2  13  -1  33  -1
M  END
>  <UniqueID>  (65) 
58

>  <SMILES>  (65) 
CS(=O)(=O)Nc1cccc(C[C@H]([N-]C(=O)c2cccc(S(=O)(=O)N3C[C@H](O)CO3)c2)C(=O)[O-])c1

>  <Energy>  (65) 
52.36312910564875

>  <Genealogy>  (65) 
CS(=O)(=O)Nc1cccc(CC([N-]C(=O)c2cccc(S(=O)(=O)N3CC(O)CO3)c2)C(=O)[O-])c1 (protonated)
CS(=O)(=O)Nc1cccc(C[C@H]([N-]C(=O)c2cccc(S(=O)(=O)N3C[C@H](O)CO3)c2)C(=O)[O-])c1 (chirality)
CS(=O)(=O)Nc1cccc(C[C@H]([N-]C(=O)c2cccc(S(=O)(=O)N3C[C@H](O)CO3)c2)C(=O)[O-])c1 (3D coordinates assigned)
CS(=O)(=O)Nc1cccc(C[C@H]([N-]C(=O)c2cccc(S(=O)(=O)N3C[C@H](O)CO3)c2)C(=O)[O-])c1 (nonaromatic ring conformer: 52.36312910564875 kcal/mol)

>  <smiles>  (65) 
CS(=O)(=O)Nc1cccc(CC(NC(=O)c2cccc(S(=O)(=O)N3CC(O)CO3)c2)C(=O)O)c1

>  <score_type>  (65) 
oracle

>  <origin>  (65) 
adg

>  <m_score__min__energy>  (65) 
-14.710000000000001

>  <m_primary>  (65) 
energy

$$$$
65:0
     RDKit          3D

 46 49  0  0  1  0  0  0  0  0999 V2000
   54.3930   26.0180   45.9720 O   0  0  0  0  0  0  0  0  0  0  0  0
   54.6460   24.7410   45.4760 C   0  0  0  0  0  0  0  0  0  0  0  0
   56.1340   24.4530   45.4350 C   0  0  0  0  0  0  0  0  0  0  0  0
   57.4830   31.7860   44.7380 N   0  0  0  0  0  0  0  0  0  0  0  0
   57.5700   30.6020   45.2180 C   0  0  0  0  0  0  0  0  0  0  0  0
   58.3520   26.6840   47.2040 N   0  0  0  0  0  0  0  0  0  0  0  0
   58.8420   27.9480   47.1680 C   0  0  0  0  0  0  0  0  0  0  0  0
   59.8560   28.2740   47.8810 N   0  0  0  0  0  0  0  0  0  0  0  0
   59.8760   29.5450   48.5210 C   0  0  0  0  0  0  0  0  0  0  0  0
   60.8850   30.4550   48.2480 C   0  0  0  0  0  0  0  0  0  0  0  0
   60.8660   31.6740   48.8910 C   0  0  0  0  0  0  0  0  0  0  0  0
   59.8860   32.0200   49.7890 C   0  0  0  0  0  0  0  0  0  0  0  0
   58.8870   31.1060   50.0520 C   0  0  0  0  0  0  0  0  0  0  0  0
   58.8730   29.8730   49.4270 C   0  0  0  0  0  0  0  0  0  0  0  0
   58.2180   28.8580   46.3450 C   0  0  0  0  0  0  0  0  0  0  0  0
   58.4900   30.1570   46.1200 N   0  0  0  0  0  0  0  0  0  0  0  0
   57.2840   26.3290   46.4570 C   0  0  0  0  0  0  0  0  0  0  0  0
   56.8380   25.1320   46.5060 N   0  0  0  0  0  0  0  0  0  0  0  0
   58.1020   32.9330   45.3500 C   0  0  0  0  0  0  0  0  0  0  0  0
   58.0690   33.0710   46.7380 C   0  0  0  0  0  0  0  0  0  0  0  0
   58.6610   34.1700   47.3370 C   0  0  0  0  0  0  0  0  0  0  0  0
   59.2690   35.0950   46.5220 C   0  0  0  0  0  0  0  0  0  0  0  0
   59.3220   34.9960   45.1510 C   0  0  0  0  0  0  0  0  0  0  0  0
   58.7310   33.8980   44.5590 C   0  0  0  0  0  0  0  0  0  0  0  0
   56.6590   27.2030   45.6460 N   0  0  0  0  0  0  0  0  0  0  0  0
   57.1170   28.4750   45.5810 C   0  0  0  0  0  0  0  0  0  0  0  0
   56.7590   29.5820   44.9090 N   0  0  0  0  0  0  0  0  0  0  0  0
   54.9630   26.2360   46.7430 H   0  0  0  0  0  0  0  0  0  0  0  0
   54.1551   24.0005   46.1246 H   0  0  0  0  0  0  0  0  0  0  0  0
   54.2515   24.6813   44.4509 H   0  0  0  0  0  0  0  0  0  0  0  0
   56.2909   23.3689   45.5355 H   0  0  0  0  0  0  0  0  0  0  0  0
   56.5295   24.8194   44.4762 H   0  0  0  0  0  0  0  0  0  0  0  0
   58.7800   25.9400   47.8090 H   0  0  0  0  0  0  0  0  0  0  0  0
   61.6842   30.2096   47.5332 H   0  0  0  0  0  0  0  0  0  0  0  0
   61.6664   32.3975   48.6768 H   0  0  0  0  0  0  0  0  0  0  0  0
   59.8975   33.0013   50.2859 H   0  0  0  0  0  0  0  0  0  0  0  0
   58.0917   31.3613   50.7678 H   0  0  0  0  0  0  0  0  0  0  0  0
   58.0706   29.1531   49.6457 H   0  0  0  0  0  0  0  0  0  0  0  0
   59.2700   30.7000   46.5670 H   0  0  0  0  0  0  0  0  0  0  0  0
   57.5733   32.3076   47.3557 H   0  0  0  0  0  0  0  0  0  0  0  0
   58.6453   34.2987   48.4293 H   0  0  0  0  0  0  0  0  0  0  0  0
   59.7422   35.9680   46.9952 H   0  0  0  0  0  0  0  0  0  0  0  0
   59.8198   35.7677   44.5454 H   0  0  0  0  0  0  0  0  0  0  0  0
   58.7552   33.7827   43.4653 H   0  0  0  0  0  0  0  0  0  0  0  0
   55.8370   26.9180   45.0760 H   0  0  0  0  0  0  0  0  0  0  0  0
   55.9570   29.6020   44.2480 H   0  0  0  0  0  0  0  0  0  0  0  0
  1  2  1  0
  2  3  1  0
  3  4  1  0
  4  5  2  0
  5  6  1  0
  6  7  1  0
  7  8  2  0
  8  9  1  0
  9 10  2  0
 10 11  1  0
 11 12  2  0
 12 13  1  0
 13 14  2  0
  7 15  1  0
 15 16  1  0
 16 17  1  0
 17 18  2  0
 18 19  1  0
 19 20  2  0
 20 21  1  0
 21 22  2  0
 22 23  1  0
 23 24  2  0
 17 25  1  0
 25 26  1  0
 26 27  1  0
 27  5  1  0
 14  9  1  0
 26 15  2  0
 24 19  1  0
  1 28  1  0
  2 29  1  0
  2 30  1  0
  3 31  1  0
  3 32  1  0
  6 33  1  0
 10 34  1  0
 11 35  1  0
 12 36  1  0
 13 37  1  0
 14 38  1  0
 16 39  1  0
 20 40  1  0
 21 41  1  0
 22 42  1  0
 23 43  1  0
 24 44  1  0
 25 45  1  0
 27 46  1  0
M  END
>  <smiles>  (66) 
OCCN=c1[nH]c(=Nc2ccccc2)c2[nH]c(=Nc3ccccc3)[nH]c2[nH]1

>  <score_type>  (66) 
oracle

>  <origin>  (66) 
adg

>  <m_score__min__energy>  (66) 
-8.9600000000000009

>  <m_primary>  (66) 
energy

$$$$
66:0
     RDKit          3D

 46 49  0  0  0  0  0  0  0  0999 V2000
   55.2150   29.6490   43.6620 C   0  0  0  0  0  0  0  0  0  0  0  0
   56.3940   29.7600   44.5730 C   0  0  0  0  0  0  0  0  0  0  0  0
   56.8060   30.9000   44.9170 O   0  0  0  0  0  0  0  0  0  0  0  0
   57.0070   28.5750   45.0990 N   0  0  0  0  0  0  0  0  0  0  0  0
   58.1120   28.6210   46.0120 C   0  0  0  0  0  0  0  0  0  0  0  0
   59.0710   29.6330   45.8570 C   0  0  0  0  0  0  0  0  0  0  0  0
   60.2270   29.6450   46.6410 C   0  0  0  0  0  0  0  0  0  0  0  0
   61.1730   30.7130   46.4850 N   0  0  0  0  0  0  0  0  0  0  0  0
   61.1960   31.9120   47.0160 C   0  0  0  0  0  0  0  0  0  0  0  0
   62.1570   32.3460   47.9840 C   0  0  0  0  0  0  0  0  0  0  0  0
   63.3980   31.7020   48.2100 C   0  0  0  0  0  0  0  0  0  0  0  0
   64.2690   32.1510   49.2050 C   0  0  0  0  0  0  0  0  0  0  0  0
   63.9530   33.2790   49.9600 C   0  0  0  0  0  0  0  0  0  0  0  0
   62.7870   33.9930   49.6870 C   0  0  0  0  0  0  0  0  0  0  0  0
   61.9120   33.5570   48.6840 C   0  0  0  0  0  0  0  0  0  0  0  0
   60.8570   34.3400   48.3540 N   0  0  0  0  0  0  0  0  0  0  0  0
   60.0070   34.0230   47.3490 C   0  0  0  0  0  0  0  0  0  0  0  0
   58.9640   34.9000   47.0290 C   0  0  0  0  0  0  0  0  0  0  0  0
   58.0720   34.5870   46.0020 C   0  0  0  0  0  0  0  0  0  0  0  0
   58.2150   33.3940   45.2930 C   0  0  0  0  0  0  0  0  0  0  0  0
   59.2470   32.5060   45.6090 C   0  0  0  0  0  0  0  0  0  0  0  0
   60.1660   32.8100   46.6380 C   0  0  0  0  0  0  0  0  0  0  0  0
   60.3980   28.6740   47.6390 C   0  0  0  0  0  0  0  0  0  0  0  0
   59.4350   27.6780   47.8190 C   0  0  0  0  0  0  0  0  0  0  0  0
   58.2770   27.6570   47.0340 C   0  0  0  0  0  0  0  0  0  0  0  0
   57.2830   26.6680   47.3200 N   0  0  0  0  0  0  0  0  0  0  0  0
   56.5320   25.6800   46.1080 S   0  0  0  0  0  0  0  0  0  0  0  0
   54.9620   26.3120   45.7570 N   0  0  0  0  0  0  0  0  0  0  0  0
   57.3520   25.6920   44.8480 O   0  0  0  0  0  0  0  0  0  0  0  0
   56.4030   24.2690   46.6070 O   0  0  0  0  0  0  0  0  0  0  0  0
   54.2961   29.5625   44.2604 H   0  0  0  0  0  0  0  0  0  0  0  0
   55.1563   30.5456   43.0274 H   0  0  0  0  0  0  0  0  0  0  0  0
   55.3246   28.7572   43.0274 H   0  0  0  0  0  0  0  0  0  0  0  0
   56.5040   27.6650   44.9800 H   0  0  0  0  0  0  0  0  0  0  0  0
   58.9110   30.4250   45.1106 H   0  0  0  0  0  0  0  0  0  0  0  0
   63.6798   30.8359   47.5931 H   0  0  0  0  0  0  0  0  0  0  0  0
   65.2090   31.6118   49.3937 H   0  0  0  0  0  0  0  0  0  0  0  0
   64.6222   33.6054   50.7697 H   0  0  0  0  0  0  0  0  0  0  0  0
   62.5535   34.9017   50.2612 H   0  0  0  0  0  0  0  0  0  0  0  0
   58.8469   35.8395   47.5890 H   0  0  0  0  0  0  0  0  0  0  0  0
   57.2562   35.2811   45.7516 H   0  0  0  0  0  0  0  0  0  0  0  0
   57.5127   33.1513   44.4820 H   0  0  0  0  0  0  0  0  0  0  0  0
   59.3445   31.5626   45.0519 H   0  0  0  0  0  0  0  0  0  0  0  0
   61.2913   28.6969   48.2805 H   0  0  0  0  0  0  0  0  0  0  0  0
   59.5886   26.9034   48.5847 H   0  0  0  0  0  0  0  0  0  0  0  0
   54.7880   27.0850   46.4370 H   0  0  0  0  0  0  0  0  0  0  0  0
  1  2  1  0
  2  3  2  0
  2  4  1  0
  4  5  1  0
  5  6  2  0
  6  7  1  0
  7  8  1  0
  8  9  2  3
  9 10  1  0
 10 11  2  0
 11 12  1  0
 12 13  2  0
 13 14  1  0
 14 15  2  0
 15 16  1  0
 16 17  1  0
 17 18  2  0
 18 19  1  0
 19 20  2  0
 20 21  1  0
 21 22  2  0
  7 23  2  0
 23 24  1  0
 24 25  2  0
 25 26  1  0
 26 27  1  0
 27 28  1  0
 27 29  2  0
 27 30  2  0
 25  5  1  0
 22  9  1  0
 15 10  1  0
 22 17  1  0
  1 31  1  0
  1 32  1  0
  1 33  1  0
  4 34  1  0
  6 35  1  0
 11 36  1  0
 12 37  1  0
 13 38  1  0
 14 39  1  0
 18 40  1  0
 19 41  1  0
 20 42  1  0
 21 43  1  0
 23 44  1  0
 24 45  1  0
 28 46  1  0
M  CHG  3  16  -1  26  -1  28  -1
M  END
>  <UniqueID>  (67) 
59

>  <SMILES>  (67) 
CC(=O)Nc1cc(N=c2c3ccccc3[n-]c3ccccc23)ccc1[N-]S([NH-])(=O)=O

>  <Energy>  (67) 
88.08877390810098

>  <Genealogy>  (67) 
CC(=O)Nc1cc(N=c2c3ccccc3[n-]c3ccccc23)ccc1[N-]S([NH-])(=O)=O (protonated)
CC(=O)Nc1cc(N=c2c3ccccc3[n-]c3ccccc23)ccc1[N-]S([NH-])(=O)=O (3D coordinates assigned)
CC(=O)Nc1cc(N=c2c3ccccc3[n-]c3ccccc23)ccc1[N-]S([NH-])(=O)=O (optimized conformer: 88.08877390810098 kcal/mol)

>  <smiles>  (67) 
CC(=O)Nc1cc(N=c2c3ccccc3[nH]c3ccccc23)ccc1NS(N)(=O)=O

>  <score_type>  (67) 
oracle

>  <origin>  (67) 
adg

>  <m_score__min__energy>  (67) 
-15.83

>  <m_primary>  (67) 
energy

$$$$
67:0
     RDKit          3D

 37 38  0  0  0  0  0  0  0  0999 V2000
   58.6600   26.3990   45.4820 C   0  0  0  0  0  0  0  0  0  0  0  0
   57.7900   26.2470   44.4810 C   0  0  0  0  0  0  0  0  0  0  0  0
   57.7790   27.1820   43.3030 C   0  0  0  0  0  0  0  0  0  0  0  0
   58.0620   28.5550   43.7190 N   0  0  0  0  0  0  0  0  0  0  0  0
   57.1710   29.2650   44.5950 C   0  0  0  0  0  0  0  0  0  0  0  0
   56.0510   28.7610   44.8840 O   0  0  0  0  0  0  0  0  0  0  0  0
   57.5380   30.5890   45.1530 C   0  0  0  0  0  0  0  0  0  0  0  0
   58.2150   30.6990   46.3810 C   0  0  0  0  0  0  0  0  0  0  0  0
   58.5450   31.9540   46.9000 C   0  0  0  0  0  0  0  0  0  0  0  0
   58.1980   33.1220   46.2050 C   0  0  0  0  0  0  0  0  0  0  0  0
   58.5100   34.4750   46.7830 C   0  0  0  0  0  0  0  0  0  0  0  0
   59.9890   35.2040   45.9960 S   0  0  0  0  0  0  0  0  0  0  0  0
   61.1700   34.2470   46.9540 C   0  0  0  0  0  0  0  0  0  0  0  0
   62.3730   33.8310   46.3700 C   0  0  0  0  0  0  0  0  0  0  0  0
   63.2980   33.0970   47.1190 C   0  0  0  0  0  0  0  0  0  0  0  0
   63.0190   32.7710   48.4500 C   0  0  0  0  0  0  0  0  0  0  0  0
   61.8140   33.1760   49.0320 C   0  0  0  0  0  0  0  0  0  0  0  0
   60.8880   33.9110   48.2840 C   0  0  0  0  0  0  0  0  0  0  0  0
   57.5110   33.0190   44.9880 C   0  0  0  0  0  0  0  0  0  0  0  0
   57.1820   31.7640   44.4670 C   0  0  0  0  0  0  0  0  0  0  0  0
   58.6474   25.7014   46.3324 H   0  0  0  0  0  0  0  0  0  0  0  0
   59.3895   27.2219   45.4564 H   0  0  0  0  0  0  0  0  0  0  0  0
   57.0655   25.4201   44.5185 H   0  0  0  0  0  0  0  0  0  0  0  0
   58.5444   26.8601   42.5815 H   0  0  0  0  0  0  0  0  0  0  0  0
   56.7797   27.1546   42.8441 H   0  0  0  0  0  0  0  0  0  0  0  0
   58.8930   29.0490   43.3240 H   0  0  0  0  0  0  0  0  0  0  0  0
   58.4869   29.7899   46.9374 H   0  0  0  0  0  0  0  0  0  0  0  0
   59.0797   32.0262   47.8586 H   0  0  0  0  0  0  0  0  0  0  0  0
   57.6508   35.1420   46.6193 H   0  0  0  0  0  0  0  0  0  0  0  0
   58.7098   34.3570   47.8583 H   0  0  0  0  0  0  0  0  0  0  0  0
   62.5904   34.0818   45.3213 H   0  0  0  0  0  0  0  0  0  0  0  0
   64.2453   32.7760   46.6612 H   0  0  0  0  0  0  0  0  0  0  0  0
   63.7480   32.1956   49.0394 H   0  0  0  0  0  0  0  0  0  0  0  0
   61.5940   32.9167   50.0781 H   0  0  0  0  0  0  0  0  0  0  0  0
   59.9379   34.2252   48.7408 H   0  0  0  0  0  0  0  0  0  0  0  0
   57.2292   33.9301   44.4399 H   0  0  0  0  0  0  0  0  0  0  0  0
   56.6400   31.6950   43.5123 H   0  0  0  0  0  0  0  0  0  0  0  0
  1  2  2  0
  2  3  1  0
  3  4  1  0
  4  5  1  0
  5  6  2  0
  5  7  1  0
  7  8  2  0
  8  9  1  0
  9 10  2  0
 10 11  1  0
 11 12  1  0
 12 13  1  0
 13 14  2  0
 14 15  1  0
 15 16  2  0
 16 17  1  0
 17 18  2  0
 10 19  1  0
 19 20  2  0
 20  7  1  0
 18 13  1  0
  1 21  1  0
  1 22  1  0
  2 23  1  0
  3 24  1  0
  3 25  1  0
  4 26  1  0
  8 27  1  0
  9 28  1  0
 11 29  1  0
 11 30  1  0
 14 31  1  0
 15 32  1  0
 16 33  1  0
 17 34  1  0
 18 35  1  0
 19 36  1  0
 20 37  1  0
M  END
>  <UniqueID>  (68) 
60

>  <SMILES>  (68) 
C=CCNC(=O)c1ccc(CSc2ccccc2)cc1

>  <Energy>  (68) 
29.7921512916289

>  <Genealogy>  (68) 
C=CCNC(=O)c1ccc(CSc2ccccc2)cc1 (3D coordinates assigned)
C=CCNC(=O)c1ccc(CSc2ccccc2)cc1 (optimized conformer: 29.7921512916289 kcal/mol)

>  <smiles>  (68) 
C=CCNC(=O)c1ccc(CSc2ccccc2)cc1

>  <score_type>  (68) 
oracle

>  <origin>  (68) 
adg

>  <m_score__min__energy>  (68) 
-7.7599999999999998

>  <m_primary>  (68) 
energy

$$$$
68:0
     RDKit          3D

 48 50  0  0  0  0  0  0  0  0999 V2000
   58.1880   31.5420   50.3120 C   0  0  0  0  0  0  0  0  0  0  0  0
   59.0920   30.3610   50.0890 C   0  0  0  0  0  0  0  0  0  0  0  0
   58.8170   29.4520   49.0520 C   0  0  0  0  0  0  0  0  0  0  0  0
   59.6590   28.3590   48.8290 C   0  0  0  0  0  0  0  0  0  0  0  0
   60.7750   28.1590   49.6420 C   0  0  0  0  0  0  0  0  0  0  0  0
   61.0620   29.0600   50.6690 C   0  0  0  0  0  0  0  0  0  0  0  0
   60.2420   30.1800   50.8830 C   0  0  0  0  0  0  0  0  0  0  0  0
   60.5270   31.0960   51.9510 N   0  0  0  0  0  0  0  0  0  0  0  0
   60.8050   32.4920   51.7900 C   0  0  0  0  0  0  0  0  0  0  0  0
   60.3230   33.3040   52.6250 O   0  0  0  0  0  0  0  0  0  0  0  0
   61.5980   32.9910   50.6040 C   0  0  0  0  0  0  0  0  0  0  0  0
   60.7760   33.8130   49.6000 C   0  0  0  0  0  0  0  0  0  0  0  0
   61.6190   34.3720   48.5370 N   0  0  0  0  0  0  0  0  0  0  0  0
   61.9600   33.2080   47.2860 S   0  0  0  0  0  0  0  0  0  0  0  0
   62.8410   32.1320   47.8540 O   0  0  0  0  0  0  0  0  0  0  0  0
   62.6920   33.8610   46.1460 O   0  0  0  0  0  0  0  0  0  0  0  0
   60.4680   32.4660   46.7130 C   0  0  0  0  0  0  0  0  0  0  0  0
   59.3580   33.2680   46.4460 C   0  0  0  0  0  0  0  0  0  0  0  0
   58.1830   32.6960   45.9600 C   0  0  0  0  0  0  0  0  0  0  0  0
   58.0910   31.3180   45.7250 C   0  0  0  0  0  0  0  0  0  0  0  0
   59.2170   30.5000   45.9860 C   0  0  0  0  0  0  0  0  0  0  0  0
   60.3960   31.0880   46.4850 C   0  0  0  0  0  0  0  0  0  0  0  0
   59.2040   29.0210   45.7340 C   0  0  0  0  0  0  0  0  0  0  0  0
   58.8190   28.7280   44.2840 C   0  0  0  0  0  0  0  0  0  0  0  0
   57.3210   28.4770   44.1490 C   0  0  0  0  0  0  0  0  0  0  0  0
   56.4190   29.5740   44.6470 C   0  0  0  0  0  0  0  0  0  0  0  0
   55.1820   29.3370   44.6540 O   0  0  0  0  0  0  0  0  0  0  0  0
   56.8550   30.8410   45.1650 N   0  0  0  0  0  0  0  0  0  0  0  0
   58.0611   31.7078   51.3920 H   0  0  0  0  0  0  0  0  0  0  0  0
   58.6340   32.4369   49.8536 H   0  0  0  0  0  0  0  0  0  0  0  0
   57.2077   31.3451   49.8536 H   0  0  0  0  0  0  0  0  0  0  0  0
   57.9344   29.6020   48.4128 H   0  0  0  0  0  0  0  0  0  0  0  0
   59.4416   27.6557   48.0116 H   0  0  0  0  0  0  0  0  0  0  0  0
   61.4292   27.2908   49.4737 H   0  0  0  0  0  0  0  0  0  0  0  0
   61.9363   28.8916   51.3150 H   0  0  0  0  0  0  0  0  0  0  0  0
   62.4179   33.6220   50.9777 H   0  0  0  0  0  0  0  0  0  0  0  0
   61.9573   32.1013   50.0661 H   0  0  0  0  0  0  0  0  0  0  0  0
   60.0142   33.1624   49.1458 H   0  0  0  0  0  0  0  0  0  0  0  0
   60.3087   34.6484   50.1420 H   0  0  0  0  0  0  0  0  0  0  0  0
   59.4099   34.3530   46.6191 H   0  0  0  0  0  0  0  0  0  0  0  0
   57.3130   33.3380   45.7576 H   0  0  0  0  0  0  0  0  0  0  0  0
   61.2705   30.4556   46.6979 H   0  0  0  0  0  0  0  0  0  0  0  0
   60.2053   28.6112   45.9325 H   0  0  0  0  0  0  0  0  0  0  0  0
   58.4639   28.5533   46.3999 H   0  0  0  0  0  0  0  0  0  0  0  0
   59.0959   29.5895   43.6586 H   0  0  0  0  0  0  0  0  0  0  0  0
   59.3536   27.8234   43.9586 H   0  0  0  0  0  0  0  0  0  0  0  0
   57.1013   28.3191   43.0828 H   0  0  0  0  0  0  0  0  0  0  0  0
   57.1083   27.6066   44.7871 H   0  0  0  0  0  0  0  0  0  0  0  0
  1  2  1  0
  2  3  2  0
  3  4  1  0
  4  5  2  0
  5  6  1  0
  6  7  2  0
  7  8  1  0
  8  9  1  0
  9 10  2  0
  9 11  1  0
 11 12  1  0
 12 13  1  0
 13 14  1  0
 14 15  2  0
 14 16  2  0
 14 17  1  0
 17 18  2  0
 18 19  1  0
 19 20  2  0
 20 21  1  0
 21 22  2  0
 21 23  1  0
 23 24  1  0
 24 25  1  0
 25 26  1  0
 26 27  2  0
 26 28  1  0
  7  2  1  0
 22 17  1  0
 28 20  1  0
  1 29  1  0
  1 30  1  0
  1 31  1  0
  3 32  1  0
  4 33  1  0
  5 34  1  0
  6 35  1  0
 11 36  1  0
 11 37  1  0
 12 38  1  0
 12 39  1  0
 18 40  1  0
 19 41  1  0
 22 42  1  0
 23 43  1  0
 23 44  1  0
 24 45  1  0
 24 46  1  0
 25 47  1  0
 25 48  1  0
M  CHG  3   8  -1  13  -1  28  -1
M  END
>  <UniqueID>  (69) 
61

>  <SMILES>  (69) 
Cc1ccccc1[N-]C(=O)CC[N-]S(=O)(=O)c1ccc2c(c1)CCCC(=O)[N-]2

>  <Energy>  (69) 
60.97764240938984

>  <Genealogy>  (69) 
Cc1ccccc1[N-]C(=O)CC[N-]S(=O)(=O)c1ccc2c(c1)CCCC(=O)[N-]2 (protonated)
Cc1ccccc1[N-]C(=O)CC[N-]S(=O)(=O)c1ccc2c(c1)CCCC(=O)[N-]2 (3D coordinates assigned)
Cc1ccccc1[N-]C(=O)CC[N-]S(=O)(=O)c1ccc2c(c1)CCCC(=O)[N-]2 (nonaromatic ring conformer: 60.97764240938984 kcal/mol)

>  <smiles>  (69) 
Cc1ccccc1NC(=O)CCNS(=O)(=O)c1ccc2c(c1)CCCC(=O)N2

>  <score_type>  (69) 
oracle

>  <origin>  (69) 
adg

>  <m_score__min__energy>  (69) 
-10.52

>  <m_primary>  (69) 
energy

$$$$
69:0
     RDKit          3D

 22 23  0  0  0  0  0  0  0  0999 V2000
   55.7427   24.6030   46.7233 H   0  0  0  0  0  0  0  0  0  0  0  0
   56.2300   25.5230   46.3680 C   0  0  0  0  0  0  0  0  0  0  0  0
   55.5250   26.6340   46.0240 N   0  0  0  0  0  0  0  0  0  0  0  0
   56.3320   27.6390   45.6230 C   0  0  0  0  0  0  0  0  0  0  0  0
   55.8580   28.7890   45.2430 N   0  0  0  0  0  0  0  0  0  0  0  0
   56.4340   29.7280   44.3220 C   0  0  0  0  0  0  0  0  0  0  0  0
   56.9580   29.2850   43.2650 O   0  0  0  0  0  0  0  0  0  0  0  0
   56.3620   31.1410   44.5520 N   0  0  0  0  0  0  0  0  0  0  0  0
   57.3880   31.9730   45.1150 C   0  0  0  0  0  0  0  0  0  0  0  0
   58.3470   31.4730   46.0170 C   0  0  0  0  0  0  0  0  0  0  0  0
   58.3352   30.4090   46.2959 H   0  0  0  0  0  0  0  0  0  0  0  0
   59.3140   32.3250   46.5590 C   0  0  0  0  0  0  0  0  0  0  0  0
   60.0679   31.9281   47.2548 H   0  0  0  0  0  0  0  0  0  0  0  0
   59.3240   33.6800   46.2180 C   0  0  0  0  0  0  0  0  0  0  0  0
   60.0899   34.3472   46.6402 H   0  0  0  0  0  0  0  0  0  0  0  0
   58.3630   34.1880   45.3420 C   0  0  0  0  0  0  0  0  0  0  0  0
   58.3679   35.2561   45.0790 H   0  0  0  0  0  0  0  0  0  0  0  0
   57.3940   33.3380   44.7990 C   0  0  0  0  0  0  0  0  0  0  0  0
   56.6309   33.7442   44.1188 H   0  0  0  0  0  0  0  0  0  0  0  0
   57.9560   27.1790   45.6750 S   0  0  0  0  0  0  0  0  0  0  0  0
   57.6100   25.6320   46.2390 C   0  0  0  0  0  0  0  0  0  0  0  0
   58.3455   24.8460   46.4655 H   0  0  0  0  0  0  0  0  0  0  0  0
  1  2  1  0
  2  3  1  0
  3  4  1  0
  4  5  2  0
  5  6  1  0
  6  7  2  0
  6  8  1  0
  8  9  1  0
  9 10  2  0
 10 11  1  0
 10 12  1  0
 12 13  1  0
 12 14  2  0
 14 15  1  0
 14 16  1  0
 16 17  1  0
 16 18  2  0
 18 19  1  0
  4 20  1  0
 20 21  1  0
 21 22  1  0
 21  2  2  0
 18  9  1  0
M  CHG  2   3  -1   8  -1
M  END
>  <UniqueID>  (70) 
62

>  <SMILES>  (70) 
O=C(/N=c1/[n-]ccs1)[N-]c1ccccc1

>  <Energy>  (70) 
59.73019887183312

>  <Genealogy>  (70) 
O=C(N=c1[n-]ccs1)[N-]c1ccccc1 (protonated)
O=C(/N=c1/[n-]ccs1)[N-]c1ccccc1 (cis-trans isomerization)
O=C(/N=c1/[n-]ccs1)[N-]c1ccccc1 (3D coordinates assigned)
O=C(/N=c1/[n-]ccs1)[N-]c1ccccc1 (optimized conformer: 59.73019887183312 kcal/mol)

>  <smiles>  (70) 
O=C(N=c1[nH]ccs1)Nc1ccccc1

>  <score_type>  (70) 
oracle

>  <origin>  (70) 
adg

>  <m_score__min__energy>  (70) 
-8.7200000000000006

>  <m_primary>  (70) 
energy

$$$$
70:0
     RDKit          3D

 50 53  0  0  0  0  0  0  0  0999 V2000
   59.7680   34.5730   49.1040 C   0  0  0  0  0  0  0  0  0  0  0  0
   59.0040   34.9400   47.9590 O   0  0  0  0  0  0  0  0  0  0  0  0
   58.7470   34.0900   46.8740 C   0  0  0  0  0  0  0  0  0  0  0  0
   58.1390   32.8300   47.0290 C   0  0  0  0  0  0  0  0  0  0  0  0
   57.9230   32.0110   45.9170 C   0  0  0  0  0  0  0  0  0  0  0  0
   58.2910   32.4440   44.6340 C   0  0  0  0  0  0  0  0  0  0  0  0
   58.0830   31.5520   43.4420 C   0  0  0  0  0  0  0  0  0  0  0  0
   57.1440   30.4410   43.7870 C   0  0  0  0  0  0  0  0  0  0  0  0
   56.1310   30.6740   44.4950 O   0  0  0  0  0  0  0  0  0  0  0  0
   57.3780   29.1240   43.2870 N   0  0  0  0  0  0  0  0  0  0  0  0
   57.9960   28.1020   44.0740 C   0  0  0  0  0  0  0  0  0  0  0  0
   58.7950   28.0340   45.2080 C   0  0  0  0  0  0  0  0  0  0  0  0
   59.3550   28.9810   46.1830 C   0  0  0  0  0  0  0  0  0  0  0  0
   58.7390   29.1410   47.4330 C   0  0  0  0  0  0  0  0  0  0  0  0
   59.2770   30.0230   48.3750 C   0  0  0  0  0  0  0  0  0  0  0  0
   60.4230   30.7680   48.0770 C   0  0  0  0  0  0  0  0  0  0  0  0
   60.9280   31.6400   49.0530 O   0  0  0  0  0  0  0  0  0  0  0  0
   62.2360   32.1460   49.1140 C   0  0  0  0  0  0  0  0  0  0  0  0
   62.7670   32.9870   48.1180 C   0  0  0  0  0  0  0  0  0  0  0  0
   64.0820   33.4500   48.2140 C   0  0  0  0  0  0  0  0  0  0  0  0
   64.8830   33.0680   49.2930 C   0  0  0  0  0  0  0  0  0  0  0  0
   64.3700   32.2170   50.2740 C   0  0  0  0  0  0  0  0  0  0  0  0
   63.0520   31.7540   50.1820 C   0  0  0  0  0  0  0  0  0  0  0  0
   60.9970   30.6590   46.7960 C   0  0  0  0  0  0  0  0  0  0  0  0
   60.4670   29.7670   45.8590 C   0  0  0  0  0  0  0  0  0  0  0  0
   58.9050   26.6660   45.0440 C   0  0  0  0  0  0  0  0  0  0  0  0
   59.4940   25.7410   45.6590 O   0  0  0  0  0  0  0  0  0  0  0  0
   58.0910   26.7300   43.9340 C   0  0  0  0  0  0  0  0  0  0  0  0
   57.6370   25.8880   43.1170 O   0  0  0  0  0  0  0  0  0  0  0  0
   58.9030   33.6970   44.4830 C   0  0  0  0  0  0  0  0  0  0  0  0
   59.1230   34.5140   45.5960 C   0  0  0  0  0  0  0  0  0  0  0  0
   59.2133   34.8395   50.0157 H   0  0  0  0  0  0  0  0  0  0  0  0
   59.9514   33.4885   49.0902 H   0  0  0  0  0  0  0  0  0  0  0  0
   60.7292   35.1077   49.0902 H   0  0  0  0  0  0  0  0  0  0  0  0
   57.8327   32.4886   48.0288 H   0  0  0  0  0  0  0  0  0  0  0  0
   57.4617   31.0211   46.0485 H   0  0  0  0  0  0  0  0  0  0  0  0
   57.6598   32.1422   42.6158 H   0  0  0  0  0  0  0  0  0  0  0  0
   59.0504   31.1241   43.1404 H   0  0  0  0  0  0  0  0  0  0  0  0
   57.3470   28.9830   42.2550 H   0  0  0  0  0  0  0  0  0  0  0  0
   57.8296   28.5706   47.6729 H   0  0  0  0  0  0  0  0  0  0  0  0
   58.7955   30.1320   49.3580 H   0  0  0  0  0  0  0  0  0  0  0  0
   62.1441   33.2811   47.2603 H   0  0  0  0  0  0  0  0  0  0  0  0
   64.4872   34.1166   47.4384 H   0  0  0  0  0  0  0  0  0  0  0  0
   65.9164   33.4371   49.3697 H   0  0  0  0  0  0  0  0  0  0  0  0
   65.0023   31.9100   51.1202 H   0  0  0  0  0  0  0  0  0  0  0  0
   62.6551   31.0780   50.9537 H   0  0  0  0  0  0  0  0  0  0  0  0
   61.8665   31.2786   46.5312 H   0  0  0  0  0  0  0  0  0  0  0  0
   60.9258   29.6825   44.8628 H   0  0  0  0  0  0  0  0  0  0  0  0
   59.2114   34.0386   43.4839 H   0  0  0  0  0  0  0  0  0  0  0  0
   59.5958   35.4985   45.4650 H   0  0  0  0  0  0  0  0  0  0  0  0
  1  2  1  0
  2  3  1  0
  3  4  2  0
  4  5  1  0
  5  6  2  0
  6  7  1  0
  7  8  1  0
  8  9  2  0
  8 10  1  0
 10 11  1  0
 11 12  2  0
 12 13  1  0
 13 14  2  0
 14 15  1  0
 15 16  2  0
 16 17  1  0
 17 18  1  0
 18 19  2  0
 19 20  1  0
 20 21  2  0
 21 22  1  0
 22 23  2  0
 16 24  1  0
 24 25  2  0
 12 26  1  0
 26 27  2  0
 26 28  1  0
 28 29  2  0
  6 30  1  0
 30 31  2  0
 31  3  1  0
 28 11  1  0
 25 13  1  0
 23 18  1  0
  1 32  1  0
  1 33  1  0
  1 34  1  0
  4 35  1  0
  5 36  1  0
  7 37  1  0
  7 38  1  0
 10 39  1  0
 14 40  1  0
 15 41  1  0
 19 42  1  0
 20 43  1  0
 21 44  1  0
 22 45  1  0
 23 46  1  0
 24 47  1  0
 25 48  1  0
 30 49  1  0
 31 50  1  0
M  END
>  <UniqueID>  (71) 
63

>  <SMILES>  (71) 
COc1ccc(CC(=O)Nc2c(-c3ccc(Oc4ccccc4)cc3)c(=O)c2=O)cc1

>  <Energy>  (71) 
52.95453028074391

>  <Genealogy>  (71) 
COc1ccc(CC(=O)Nc2c(-c3ccc(Oc4ccccc4)cc3)c(=O)c2=O)cc1 (3D coordinates assigned)
COc1ccc(CC(=O)Nc2c(-c3ccc(Oc4ccccc4)cc3)c(=O)c2=O)cc1 (optimized conformer: 52.95453028074391 kcal/mol)

>  <smiles>  (71) 
COc1ccc(CC(=O)Nc2c(-c3ccc(Oc4ccccc4)cc3)c(=O)c2=O)cc1

>  <score_type>  (71) 
oracle

>  <origin>  (71) 
adg

>  <m_score__min__energy>  (71) 
-8.8100000000000005

>  <m_primary>  (71) 
energy

$$$$
71:0
     RDKit          3D

 28 29  0  0  0  0  0  0  0  0999 V2000
   56.5276   33.9757   44.7421 H   0  0  0  0  0  0  0  0  0  0  0  0
   57.3600   33.5450   45.3180 C   0  0  0  0  0  0  0  0  0  0  0  0
   57.3950   32.3230   45.7990 O   0  0  0  0  0  0  0  0  0  0  0  0
   58.5360   32.1520   46.4260 C   0  0  0  0  0  0  0  0  0  0  0  0
   58.9090   30.9050   47.1110 C   0  0  0  0  0  0  0  0  0  0  0  0
   59.9260   30.8950   47.8570 O   0  0  0  0  0  0  0  0  0  0  0  0
   58.1470   29.7060   46.9190 N   0  0  0  0  0  0  0  0  0  0  0  0
   57.1420   29.7820   46.6430 H   0  0  0  0  0  0  0  0  0  0  0  0
   58.7050   28.3800   47.1840 C   0  0  0  0  0  0  0  0  0  0  0  0
   58.8467   28.2599   48.2682 H   0  0  0  0  0  0  0  0  0  0  0  0
   59.6665   28.2937   46.6567 H   0  0  0  0  0  0  0  0  0  0  0  0
   57.7850   27.2940   46.6840 C   0  0  0  0  0  0  0  0  0  0  0  0
   57.8300   26.1670   47.2430 O   0  0  0  0  0  0  0  0  0  0  0  0
   56.8120   27.5100   45.6490 N   0  0  0  0  0  0  0  0  0  0  0  0
   56.5880   28.6010   44.9730 C   0  0  0  0  0  0  0  0  0  0  0  0
   55.5460   29.4100   45.2360 N   0  0  0  0  0  0  0  0  0  0  0  0
   55.6170   30.3960   44.3890 O   0  0  0  0  0  0  0  0  0  0  0  0
   56.6450   30.2540   43.5840 C   0  0  0  0  0  0  0  0  0  0  0  0
   57.0260   31.2230   42.5170 C   0  0  0  0  0  0  0  0  0  0  0  0
   57.3913   32.1521   42.9789 H   0  0  0  0  0  0  0  0  0  0  0  0
   57.8198   30.7873   41.8924 H   0  0  0  0  0  0  0  0  0  0  0  0
   56.1480   31.4446   41.8924 H   0  0  0  0  0  0  0  0  0  0  0  0
   57.3170   29.0940   43.9050 C   0  0  0  0  0  0  0  0  0  0  0  0
   58.2118   28.6659   43.4296 H   0  0  0  0  0  0  0  0  0  0  0  0
   59.2880   33.3100   46.3610 C   0  0  0  0  0  0  0  0  0  0  0  0
   60.2860   33.4801   46.7911 H   0  0  0  0  0  0  0  0  0  0  0  0
   58.5260   34.2060   45.6450 C   0  0  0  0  0  0  0  0  0  0  0  0
   58.7933   35.2411   45.3858 H   0  0  0  0  0  0  0  0  0  0  0  0
  1  2  1  0
  2  3  1  0
  3  4  1  0
  4  5  1  0
  5  6  2  0
  5  7  1  0
  7  8  1  0
  7  9  1  0
  9 10  1  0
  9 11  1  0
  9 12  1  0
 12 13  2  0
 12 14  1  0
 14 15  2  0
 15 16  1  0
 16 17  1  0
 17 18  1  0
 18 19  1  0
 19 20  1  0
 19 21  1  0
 19 22  1  0
 18 23  2  0
 23 24  1  0
  4 25  2  0
 25 26  1  0
 25 27  1  0
 27 28  1  0
 27  2  2  0
 23 15  1  0
M  CHG  1  16  -1
M  END
>  <UniqueID>  (72) 
64

>  <SMILES>  (72) 
Cc1c/c(=N\C(=O)CNC(=O)c2ccco2)[n-]o1

>  <Energy>  (72) 
87.5438647177307

>  <Genealogy>  (72) 
Cc1cc(=NC(=O)CNC(=O)c2ccco2)[n-]o1 (protonated)
Cc1c/c(=N\C(=O)CNC(=O)c2ccco2)[n-]o1 (cis-trans isomerization)
Cc1c/c(=N\C(=O)CNC(=O)c2ccco2)[n-]o1 (3D coordinates assigned)
Cc1c/c(=N\C(=O)CNC(=O)c2ccco2)[n-]o1 (optimized conformer: 87.5438647177307 kcal/mol)

>  <smiles>  (72) 
Cc1cc(=NC(=O)CNC(=O)c2ccco2)[nH]o1

>  <score_type>  (72) 
oracle

>  <origin>  (72) 
adg

>  <m_score__min__energy>  (72) 
-9.1199999999999992

>  <m_primary>  (72) 
energy

$$$$
72:0
     RDKit          3D

 44 46  0  0  0  0  0  0  0  0999 V2000
   55.3420   24.4970   46.5340 O   0  0  0  0  0  0  0  0  0  0  0  0
   55.8350   25.5060   45.9640 C   0  0  0  0  0  0  0  0  0  0  0  0
   55.1410   26.7090   45.9740 O   0  0  0  0  0  0  0  0  0  0  0  0
   57.1350   25.3990   45.2340 C   0  0  0  0  0  0  0  0  0  0  0  0
   58.2660   25.4310   46.2110 C   0  0  0  0  0  0  0  0  0  0  0  0
   59.0610   24.4540   46.2760 O   0  0  0  0  0  0  0  0  0  0  0  0
   58.4340   26.5700   47.0630 N   0  0  0  0  0  0  0  0  0  0  0  0
   59.1190   27.7840   46.7220 C   0  0  0  0  0  0  0  0  0  0  0  0
   59.2200   28.1480   45.3740 C   0  0  0  0  0  0  0  0  0  0  0  0
   59.8340   29.3490   45.0100 C   0  0  0  0  0  0  0  0  0  0  0  0
   60.3240   30.2130   45.9920 C   0  0  0  0  0  0  0  0  0  0  0  0
   60.1970   29.8820   47.3520 C   0  0  0  0  0  0  0  0  0  0  0  0
   60.6740   30.8350   48.4150 C   0  0  0  0  0  0  0  0  0  0  0  0
   61.7760   31.7170   47.8990 C   0  0  0  0  0  0  0  0  0  0  0  0
   63.0050   31.2700   47.4450 C   0  0  0  0  0  0  0  0  0  0  0  0
   63.7260   32.3330   47.0420 N   0  0  0  0  0  0  0  0  0  0  0  0
   62.9300   33.3980   47.2530 C   0  0  0  0  0  0  0  0  0  0  0  0
   63.2740   34.5800   46.9830 O   0  0  0  0  0  0  0  0  0  0  0  0
   61.7310   33.0650   47.7750 N   0  0  0  0  0  0  0  0  0  0  0  0
   60.6290   33.9780   48.1050 C   0  0  0  0  0  0  0  0  0  0  0  0
   59.5460   33.9390   47.0570 C   0  0  0  0  0  0  0  0  0  0  0  0
   59.6950   34.6700   45.8640 C   0  0  0  0  0  0  0  0  0  0  0  0
   58.6860   34.6520   44.8960 C   0  0  0  0  0  0  0  0  0  0  0  0
   57.5120   33.9280   45.1200 C   0  0  0  0  0  0  0  0  0  0  0  0
   57.3420   33.2250   46.3160 C   0  0  0  0  0  0  0  0  0  0  0  0
   58.3480   33.2370   47.2850 C   0  0  0  0  0  0  0  0  0  0  0  0
   59.6090   28.6570   47.7090 C   0  0  0  0  0  0  0  0  0  0  0  0
   57.1627   24.4529   44.6735 H   0  0  0  0  0  0  0  0  0  0  0  0
   57.2319   26.2445   44.5370 H   0  0  0  0  0  0  0  0  0  0  0  0
   58.8134   27.4844   44.5966 H   0  0  0  0  0  0  0  0  0  0  0  0
   59.9318   29.6149   43.9471 H   0  0  0  0  0  0  0  0  0  0  0  0
   60.8107   31.1553   45.7001 H   0  0  0  0  0  0  0  0  0  0  0  0
   59.8314   31.4646   48.7368 H   0  0  0  0  0  0  0  0  0  0  0  0
   61.0641   30.2480   49.2596 H   0  0  0  0  0  0  0  0  0  0  0  0
   63.3369   30.2216   47.4181 H   0  0  0  0  0  0  0  0  0  0  0  0
   64.6930   32.3290   46.6460 H   0  0  0  0  0  0  0  0  0  0  0  0
   60.1993   33.6840   49.0740 H   0  0  0  0  0  0  0  0  0  0  0  0
   61.0302   35.0013   48.1486 H   0  0  0  0  0  0  0  0  0  0  0  0
   60.6087   35.2579   45.6921 H   0  0  0  0  0  0  0  0  0  0  0  0
   58.8167   35.2088   43.9564 H   0  0  0  0  0  0  0  0  0  0  0  0
   56.7217   33.9113   44.3551 H   0  0  0  0  0  0  0  0  0  0  0  0
   56.4144   32.6613   46.4945 H   0  0  0  0  0  0  0  0  0  0  0  0
   58.2030   32.6949   48.2311 H   0  0  0  0  0  0  0  0  0  0  0  0
   59.5313   28.3785   48.7703 H   0  0  0  0  0  0  0  0  0  0  0  0
  1  2  2  0
  2  3  1  0
  2  4  1  0
  4  5  1  0
  5  6  2  0
  5  7  1  0
  7  8  1  0
  8  9  2  0
  9 10  1  0
 10 11  2  0
 11 12  1  0
 12 13  1  0
 13 14  1  0
 14 15  2  0
 15 16  1  0
 16 17  1  0
 17 18  2  0
 17 19  1  0
 19 20  1  0
 20 21  1  0
 21 22  2  0
 22 23  1  0
 23 24  2  0
 24 25  1  0
 25 26  2  0
 12 27  2  0
 27  8  1  0
 19 14  1  0
 26 21  1  0
  4 28  1  0
  4 29  1  0
  9 30  1  0
 10 31  1  0
 11 32  1  0
 13 33  1  0
 13 34  1  0
 15 35  1  0
 16 36  1  0
 20 37  1  0
 20 38  1  0
 22 39  1  0
 23 40  1  0
 24 41  1  0
 25 42  1  0
 26 43  1  0
 27 44  1  0
M  CHG  2   3  -1   7  -1
M  END
>  <UniqueID>  (73) 
65

>  <SMILES>  (73) 
O=C([O-])CC(=O)[N-]c1cccc(Cc2c[nH]c(=O)n2Cc2ccccc2)c1

>  <Energy>  (73) 
75.3248600937148

>  <Genealogy>  (73) 
O=C([O-])CC(=O)[N-]c1cccc(Cc2c[nH]c(=O)n2Cc2ccccc2)c1 (protonated)
O=C([O-])CC(=O)[N-]c1cccc(Cc2c[nH]c(=O)n2Cc2ccccc2)c1 (3D coordinates assigned)
O=C([O-])CC(=O)[N-]c1cccc(Cc2c[nH]c(=O)n2Cc2ccccc2)c1 (optimized conformer: 75.3248600937148 kcal/mol)

>  <smiles>  (73) 
O=C(O)CC(=O)Nc1cccc(Cc2c[nH]c(=O)n2Cc2ccccc2)c1

>  <score_type>  (73) 
oracle

>  <origin>  (73) 
adg

>  <m_score__min__energy>  (73) 
-13.25

>  <m_primary>  (73) 
energy

$$$$
73:0
     RDKit          3D

 40 42  0  0  0  0  0  0  0  0999 V2000
   64.5020   32.5500   51.4480 N   0  0  0  0  0  0  0  0  0  0  0  0
   64.5650   32.7590   50.0390 C   0  0  0  0  0  0  0  0  0  0  0  0
   65.6870   32.7110   49.4670 O   0  0  0  0  0  0  0  0  0  0  0  0
   63.3240   33.0290   49.2620 C   0  0  0  0  0  0  0  0  0  0  0  0
   63.3750   33.8770   48.1400 C   0  0  0  0  0  0  0  0  0  0  0  0
   62.2580   34.1400   47.4160 N   0  0  0  0  0  0  0  0  0  0  0  0
   61.0510   33.6060   47.7330 C   0  0  0  0  0  0  0  0  0  0  0  0
   59.9310   33.9110   46.9520 C   0  0  0  0  0  0  0  0  0  0  0  0
   58.6750   33.3710   47.2730 C   0  0  0  0  0  0  0  0  0  0  0  0
   57.4820   33.6690   46.4090 C   0  0  0  0  0  0  0  0  0  0  0  0
   57.8850   33.6800   44.9690 C   0  0  0  0  0  0  0  0  0  0  0  0
   58.4810   34.6850   44.4950 O   0  0  0  0  0  0  0  0  0  0  0  0
   57.5750   32.5500   44.1440 N   0  0  0  0  0  0  0  0  0  0  0  0
   57.4400   31.1880   44.5760 C   0  0  0  0  0  0  0  0  0  0  0  0
   56.2400   30.5170   44.3130 C   0  0  0  0  0  0  0  0  0  0  0  0
   56.0550   29.1990   44.7400 C   0  0  0  0  0  0  0  0  0  0  0  0
   57.0660   28.5410   45.4520 C   0  0  0  0  0  0  0  0  0  0  0  0
   56.8250   26.8790   45.9820 S   0  0  0  0  0  0  0  0  0  0  0  0
   55.1360   26.5160   46.0060 N   0  0  0  0  0  0  0  0  0  0  0  0
   57.3980   26.7030   47.3610 O   0  0  0  0  0  0  0  0  0  0  0  0
   57.5220   25.9320   45.0460 O   0  0  0  0  0  0  0  0  0  0  0  0
   58.2640   29.2120   45.7320 C   0  0  0  0  0  0  0  0  0  0  0  0
   58.4470   30.5310   45.3060 C   0  0  0  0  0  0  0  0  0  0  0  0
   58.5570   32.5040   48.3690 C   0  0  0  0  0  0  0  0  0  0  0  0
   59.6720   32.1950   49.1530 C   0  0  0  0  0  0  0  0  0  0  0  0
   60.9300   32.7450   48.8460 C   0  0  0  0  0  0  0  0  0  0  0  0
   62.0770   32.4570   49.6110 C   0  0  0  0  0  0  0  0  0  0  0  0
   61.9880   31.6860   50.6080 O   0  0  0  0  0  0  0  0  0  0  0  0
   63.6600   32.1200   51.8920 H   0  0  0  0  0  0  0  0  0  0  0  0
   64.3323   34.3323   47.8463 H   0  0  0  0  0  0  0  0  0  0  0  0
   60.0347   34.5768   46.0825 H   0  0  0  0  0  0  0  0  0  0  0  0
   56.7153   32.8962   46.5671 H   0  0  0  0  0  0  0  0  0  0  0  0
   57.0775   34.6557   46.6789 H   0  0  0  0  0  0  0  0  0  0  0  0
   55.4361   31.0311   43.7658 H   0  0  0  0  0  0  0  0  0  0  0  0
   55.1129   28.6771   44.5163 H   0  0  0  0  0  0  0  0  0  0  0  0
   54.7090   27.0930   46.7650 H   0  0  0  0  0  0  0  0  0  0  0  0
   59.0626   28.6995   46.2885 H   0  0  0  0  0  0  0  0  0  0  0  0
   59.3832   31.0576   45.5429 H   0  0  0  0  0  0  0  0  0  0  0  0
   57.5791   32.0637   48.6136 H   0  0  0  0  0  0  0  0  0  0  0  0
   59.5655   31.5187   50.0140 H   0  0  0  0  0  0  0  0  0  0  0  0
  1  2  1  0
  2  3  2  0
  2  4  1  0
  4  5  2  0
  5  6  1  0
  6  7  1  0
  7  8  2  0
  8  9  1  0
  9 10  1  0
 10 11  1  0
 11 12  2  0
 11 13  1  0
 13 14  1  0
 14 15  2  0
 15 16  1  0
 16 17  2  0
 17 18  1  0
 18 19  1  0
 18 20  2  0
 18 21  2  0
 17 22  1  0
 22 23  2  0
  9 24  2  0
 24 25  1  0
 25 26  2  0
 26 27  1  0
 27 28  2  0
 27  4  1  0
 26  7  1  0
 23 14  1  0
  1 29  1  0
  5 30  1  0
  8 31  1  0
 10 32  1  0
 10 33  1  0
 15 34  1  0
 16 35  1  0
 19 36  1  0
 22 37  1  0
 23 38  1  0
 24 39  1  0
 25 40  1  0
M  CHG  4   1  -1   6  -1  13  -1  19  -1
M  END
>  <UniqueID>  (74) 
66

>  <SMILES>  (74) 
[NH-]C(=O)c1c[n-]c2cc(CC(=O)[N-]c3ccc(S([NH-])(=O)=O)cc3)ccc2c1=O

>  <Energy>  (74) 
50.866580229649315

>  <Genealogy>  (74) 
[NH-]C(=O)c1c[n-]c2cc(CC(=O)[N-]c3ccc(S([NH-])(=O)=O)cc3)ccc2c1=O (protonated)
[NH-]C(=O)c1c[n-]c2cc(CC(=O)[N-]c3ccc(S([NH-])(=O)=O)cc3)ccc2c1=O (3D coordinates assigned)
[NH-]C(=O)c1c[n-]c2cc(CC(=O)[N-]c3ccc(S([NH-])(=O)=O)cc3)ccc2c1=O (optimized conformer: 50.866580229649315 kcal/mol)

>  <smiles>  (74) 
NC(=O)c1c[nH]c2cc(CC(=O)Nc3ccc(S(N)(=O)=O)cc3)ccc2c1=O

>  <score_type>  (74) 
oracle

>  <origin>  (74) 
adg

>  <m_score__min__energy>  (74) 
-13.69

>  <m_primary>  (74) 
energy

$$$$
74:0
     RDKit          3D

 43 46  0  0  0  0  0  0  0  0999 V2000
   59.5630   30.6320   48.3930 O   0  0  0  0  0  0  0  0  0  0  0  0
   58.8940   31.3420   49.1920 C   0  0  0  0  0  0  0  0  0  0  0  0
   58.6070   32.7120   48.8640 N   0  0  0  0  0  0  0  0  0  0  0  0
   58.6700   33.2440   47.5300 C   0  0  0  0  0  0  0  0  0  0  0  0
   59.2600   34.4920   47.2660 C   0  0  0  0  0  0  0  0  0  0  0  0
   59.3350   34.9740   45.9570 C   0  0  0  0  0  0  0  0  0  0  0  0
   58.8280   34.2170   44.9000 C   0  0  0  0  0  0  0  0  0  0  0  0
   58.2380   32.9660   45.1420 C   0  0  0  0  0  0  0  0  0  0  0  0
   57.7080   32.1400   43.9960 C   0  0  0  0  0  0  0  0  0  0  0  0
   57.2880   30.7680   44.4590 C   0  0  0  0  0  0  0  0  0  0  0  0
   55.9610   30.4680   44.4500 N   0  0  0  0  0  0  0  0  0  0  0  0
   55.5000   29.2860   44.8560 N   0  0  0  0  0  0  0  0  0  0  0  0
   56.3300   28.3170   45.3140 C   0  0  0  0  0  0  0  0  0  0  0  0
   55.8490   27.2110   45.6770 O   0  0  0  0  0  0  0  0  0  0  0  0
   57.7100   28.5580   45.3770 C   0  0  0  0  0  0  0  0  0  0  0  0
   58.2060   29.7980   44.9220 C   0  0  0  0  0  0  0  0  0  0  0  0
   59.6220   30.0560   44.9690 N   0  0  0  0  0  0  0  0  0  0  0  0
   60.5750   28.9910   45.2690 C   0  0  0  0  0  0  0  0  0  0  0  0
   59.9970   28.0580   46.3310 C   0  0  0  0  0  0  0  0  0  0  0  0
   58.6600   27.4800   45.8540 C   0  0  0  0  0  0  0  0  0  0  0  0
   58.1830   32.4780   46.4590 C   0  0  0  0  0  0  0  0  0  0  0  0
   58.4520   30.7620   50.4790 C   0  0  0  0  0  0  0  0  0  0  0  0
   57.4020   31.3020   51.2400 C   0  0  0  0  0  0  0  0  0  0  0  0
   57.1550   30.6150   52.4200 C   0  0  0  0  0  0  0  0  0  0  0  0
   58.2470   29.3430   52.5200 S   0  0  0  0  0  0  0  0  0  0  0  0
   59.0400   29.6460   51.0710 C   0  0  0  0  0  0  0  0  0  0  0  0
   58.4560   33.3860   49.6490 H   0  0  0  0  0  0  0  0  0  0  0  0
   59.6647   35.0922   48.0942 H   0  0  0  0  0  0  0  0  0  0  0  0
   59.7951   35.9533   45.7588 H   0  0  0  0  0  0  0  0  0  0  0  0
   58.8909   34.6024   43.8716 H   0  0  0  0  0  0  0  0  0  0  0  0
   56.8389   32.6519   43.5570 H   0  0  0  0  0  0  0  0  0  0  0  0
   58.5089   32.0253   43.2507 H   0  0  0  0  0  0  0  0  0  0  0  0
   60.0040   31.0100   44.7970 H   0  0  0  0  0  0  0  0  0  0  0  0
   60.7809   28.4175   44.3532 H   0  0  0  0  0  0  0  0  0  0  0  0
   61.5071   29.4360   45.6474 H   0  0  0  0  0  0  0  0  0  0  0  0
   60.7036   27.2355   46.5159 H   0  0  0  0  0  0  0  0  0  0  0  0
   59.8328   28.6264   47.2583 H   0  0  0  0  0  0  0  0  0  0  0  0
   58.8508   26.7832   45.0245 H   0  0  0  0  0  0  0  0  0  0  0  0
   58.1897   26.9676   46.7062 H   0  0  0  0  0  0  0  0  0  0  0  0
   57.7533   31.4841   46.6528 H   0  0  0  0  0  0  0  0  0  0  0  0
   56.8285   32.1877   50.9292 H   0  0  0  0  0  0  0  0  0  0  0  0
   56.3795   30.8606   53.1605 H   0  0  0  0  0  0  0  0  0  0  0  0
   59.8784   29.0642   50.6603 H   0  0  0  0  0  0  0  0  0  0  0  0
  1  2  2  0
  2  3  1  0
  3  4  1  0
  4  5  2  0
  5  6  1  0
  6  7  2  0
  7  8  1  0
  8  9  1  0
  9 10  1  0
 10 11  2  0
 11 12  1  0
 12 13  1  0
 13 14  2  0
 13 15  1  0
 15 16  2  0
 16 17  1  0
 17 18  1  0
 18 19  1  0
 19 20  1  0
  8 21  2  0
  2 22  1  0
 22 23  1  0
 23 24  2  0
 24 25  1  0
 25 26  1  0
 21  4  1  0
 26 22  2  0
 16 10  1  0
 20 15  1  0
  3 27  1  0
  5 28  1  0
  6 29  1  0
  7 30  1  0
  9 31  1  0
  9 32  1  0
 17 33  1  0
 18 34  1  0
 18 35  1  0
 19 36  1  0
 19 37  1  0
 20 38  1  0
 20 39  1  0
 21 40  1  0
 23 41  1  0
 24 42  1  0
 26 43  1  0
M  CHG  1  12  -1
M  END
>  <UniqueID>  (75) 
67

>  <SMILES>  (75) 
O=C(Nc1cccc(Cc2n[n-]c(=O)c3c2NCCC3)c1)c1ccsc1

>  <Energy>  (75) 
77.66154664665758

>  <Genealogy>  (75) 
O=C(Nc1cccc(Cc2n[n-]c(=O)c3c2NCCC3)c1)c1ccsc1 (protonated)
O=C(Nc1cccc(Cc2n[n-]c(=O)c3c2NCCC3)c1)c1ccsc1 (3D coordinates assigned)
O=C(Nc1cccc(Cc2n[n-]c(=O)c3c2NCCC3)c1)c1ccsc1 (nonaromatic ring conformer: 77.66154664665758 kcal/mol)

>  <smiles>  (75) 
O=C(Nc1cccc(Cc2n[nH]c(=O)c3c2NCCC3)c1)c1ccsc1

>  <score_type>  (75) 
oracle

>  <origin>  (75) 
adg

>  <m_score__min__energy>  (75) 
-10.93

>  <m_primary>  (75) 
energy

$$$$
75:0
     RDKit          3D

 30 32  0  0  0  0  0  0  0  0999 V2000
   55.1410   29.3410   44.8870 N   0  0  0  0  0  0  0  0  0  0  0  0
   56.7130   29.3770   44.1720 S   0  0  0  0  0  0  0  0  0  0  0  0
   56.5890   29.6340   42.6970 O   0  0  0  0  0  0  0  0  0  0  0  0
   57.3920   28.0530   44.3810 O   0  0  0  0  0  0  0  0  0  0  0  0
   57.6660   30.6500   44.9100 C   0  0  0  0  0  0  0  0  0  0  0  0
   58.6940   30.4620   45.8240 C   0  0  0  0  0  0  0  0  0  0  0  0
   59.2870   31.6630   46.2310 C   0  0  0  0  0  0  0  0  0  0  0  0
   58.7210   32.7770   45.6290 C   0  0  0  0  0  0  0  0  0  0  0  0
   59.2130   34.4740   45.9120 S   0  0  0  0  0  0  0  0  0  0  0  0
   60.0280   34.0680   47.4670 C   0  0  0  0  0  0  0  0  0  0  0  0
   59.2530   34.0730   48.6340 C   0  0  0  0  0  0  0  0  0  0  0  0
   59.8300   33.7820   49.8700 C   0  0  0  0  0  0  0  0  0  0  0  0
   61.1880   33.4780   49.9590 C   0  0  0  0  0  0  0  0  0  0  0  0
   61.9840   33.4600   48.8050 C   0  0  0  0  0  0  0  0  0  0  0  0
   63.3510   33.1520   48.8980 C   0  0  0  0  0  0  0  0  0  0  0  0
   64.1460   33.1310   47.7510 C   0  0  0  0  0  0  0  0  0  0  0  0
   63.5860   33.4140   46.5040 C   0  0  0  0  0  0  0  0  0  0  0  0
   62.2270   33.7210   46.3950 C   0  0  0  0  0  0  0  0  0  0  0  0
   61.4060   33.7520   47.5410 C   0  0  0  0  0  0  0  0  0  0  0  0
   57.4900   32.2910   44.5910 S   0  0  0  0  0  0  0  0  0  0  0  0
   55.1610   28.6080   45.6300 H   0  0  0  0  0  0  0  0  0  0  0  0
   59.0093   29.4736   46.1898 H   0  0  0  0  0  0  0  0  0  0  0  0
   60.1153   31.7175   46.9528 H   0  0  0  0  0  0  0  0  0  0  0  0
   58.1801   34.3085   48.5750 H   0  0  0  0  0  0  0  0  0  0  0  0
   59.2108   33.7924   50.7791 H   0  0  0  0  0  0  0  0  0  0  0  0
   61.6361   33.2516   50.9377 H   0  0  0  0  0  0  0  0  0  0  0  0
   63.7967   32.9266   49.8781 H   0  0  0  0  0  0  0  0  0  0  0  0
   65.2166   32.8908   47.8299 H   0  0  0  0  0  0  0  0  0  0  0  0
   64.2171   33.3953   45.6033 H   0  0  0  0  0  0  0  0  0  0  0  0
   61.7945   33.9401   45.4076 H   0  0  0  0  0  0  0  0  0  0  0  0
  1  2  1  0
  2  3  2  0
  2  4  2  0
  2  5  1  0
  5  6  2  0
  6  7  1  0
  7  8  2  0
  8  9  1  0
  9 10  1  0
 10 11  2  0
 11 12  1  0
 12 13  2  0
 13 14  1  0
 14 15  2  0
 15 16  1  0
 16 17  2  0
 17 18  1  0
 18 19  2  0
  8 20  1  0
 20  5  1  0
 19 10  1  0
 19 14  1  0
  1 21  1  0
  6 22  1  0
  7 23  1  0
 11 24  1  0
 12 25  1  0
 13 26  1  0
 15 27  1  0
 16 28  1  0
 17 29  1  0
 18 30  1  0
M  CHG  1   1  -1
M  END
>  <UniqueID>  (76) 
68

>  <SMILES>  (76) 
[NH-]S(=O)(=O)c1ccc(Sc2cccc3ccccc23)s1

>  <Energy>  (76) 
58.78244432289362

>  <Genealogy>  (76) 
[NH-]S(=O)(=O)c1ccc(Sc2cccc3ccccc23)s1 (protonated)
[NH-]S(=O)(=O)c1ccc(Sc2cccc3ccccc23)s1 (3D coordinates assigned)
[NH-]S(=O)(=O)c1ccc(Sc2cccc3ccccc23)s1 (optimized conformer: 58.78244432289362 kcal/mol)

>  <smiles>  (76) 
NS(=O)(=O)c1ccc(Sc2cccc3ccccc23)s1

>  <score_type>  (76) 
oracle

>  <origin>  (76) 
adg

>  <m_score__min__energy>  (76) 
-11.42

>  <m_primary>  (76) 
energy

$$$$
76:0
     RDKit          3D

 47 49  0  0  0  0  0  0  0  0999 V2000
   55.1080   29.3480   44.5080 N   0  0  0  0  0  0  0  0  0  0  0  0
   56.7950   29.1680   44.7880 S   0  0  0  0  0  0  0  0  0  0  0  0
   57.4050   28.3690   43.6760 O   0  0  0  0  0  0  0  0  0  0  0  0
   57.0140   28.4480   46.0850 O   0  0  0  0  0  0  0  0  0  0  0  0
   57.5510   30.7480   44.8420 C   0  0  0  0  0  0  0  0  0  0  0  0
   57.3530   31.6620   43.7930 C   0  0  0  0  0  0  0  0  0  0  0  0
   57.9390   32.9160   43.8400 C   0  0  0  0  0  0  0  0  0  0  0  0
   58.7370   33.2800   44.9290 C   0  0  0  0  0  0  0  0  0  0  0  0
   58.9260   32.3920   46.0000 C   0  0  0  0  0  0  0  0  0  0  0  0
   59.8220   32.7430   47.1250 C   0  0  0  0  0  0  0  0  0  0  0  0
   59.3980   33.4850   48.0380 O   0  0  0  0  0  0  0  0  0  0  0  0
   61.1550   32.2350   47.2270 N   0  0  0  0  0  0  0  0  0  0  0  0
   61.5920   31.1740   48.1310 C   0  0  0  0  0  0  0  0  0  0  0  0
   60.8510   29.9070   47.8230 C   0  0  0  0  0  0  0  0  0  0  0  0
   60.7630   29.4340   46.5100 C   0  0  0  0  0  0  0  0  0  0  0  0
   60.0860   28.2420   46.2330 C   0  0  0  0  0  0  0  0  0  0  0  0
   59.4870   27.5050   47.2660 C   0  0  0  0  0  0  0  0  0  0  0  0
   58.7490   26.2560   46.9530 C   0  0  0  0  0  0  0  0  0  0  0  0
   57.5200   26.1840   47.2210 O   0  0  0  0  0  0  0  0  0  0  0  0
   59.3870   25.1250   46.3430 N   0  0  0  0  0  0  0  0  0  0  0  0
   58.7670   24.1910   45.4480 C   0  0  0  0  0  0  0  0  0  0  0  0
   59.1860   22.8550   45.4940 C   0  0  0  0  0  0  0  0  0  0  0  0
   58.5490   21.8850   44.7150 C   0  0  0  0  0  0  0  0  0  0  0  0
   57.4990   22.2430   43.8740 C   0  0  0  0  0  0  0  0  0  0  0  0
   57.1020   23.5810   43.7820 C   0  0  0  0  0  0  0  0  0  0  0  0
   57.7430   24.5700   44.5470 C   0  0  0  0  0  0  0  0  0  0  0  0
   57.3700   25.9420   44.3650 N   0  0  0  0  0  0  0  0  0  0  0  0
   59.6220   27.9600   48.5880 C   0  0  0  0  0  0  0  0  0  0  0  0
   60.2880   29.1560   48.8640 C   0  0  0  0  0  0  0  0  0  0  0  0
   58.3390   31.1170   45.9420 C   0  0  0  0  0  0  0  0  0  0  0  0
   54.6340   29.3490   45.4440 H   0  0  0  0  0  0  0  0  0  0  0  0
   56.7301   31.3803   42.9312 H   0  0  0  0  0  0  0  0  0  0  0  0
   57.7761   33.6282   43.0177 H   0  0  0  0  0  0  0  0  0  0  0  0
   59.2197   34.2683   44.9467 H   0  0  0  0  0  0  0  0  0  0  0  0
   62.6715   31.0062   48.0024 H   0  0  0  0  0  0  0  0  0  0  0  0
   61.3845   31.4729   49.1691 H   0  0  0  0  0  0  0  0  0  0  0  0
   61.2285   30.0022   45.6911 H   0  0  0  0  0  0  0  0  0  0  0  0
   60.0225   27.8791   45.1965 H   0  0  0  0  0  0  0  0  0  0  0  0
   60.0224   22.5673   46.1480 H   0  0  0  0  0  0  0  0  0  0  0  0
   58.8780   20.8366   44.7666 H   0  0  0  0  0  0  0  0  0  0  0  0
   56.9816   21.4737   43.2819 H   0  0  0  0  0  0  0  0  0  0  0  0
   56.2813   23.8613   43.1053 H   0  0  0  0  0  0  0  0  0  0  0  0
   57.5980   26.6660   45.0740 H   0  0  0  0  0  0  0  0  0  0  0  0
   56.9540   26.2650   43.4600 H   0  0  0  0  0  0  0  0  0  0  0  0
   59.1992   27.3687   49.4136 H   0  0  0  0  0  0  0  0  0  0  0  0
   60.3711   29.5100   49.9022 H   0  0  0  0  0  0  0  0  0  0  0  0
   58.4983   30.4038   46.7642 H   0  0  0  0  0  0  0  0  0  0  0  0
  1  2  1  0
  2  3  2  0
  2  4  2  0
  2  5  1  0
  5  6  2  0
  6  7  1  0
  7  8  2  0
  8  9  1  0
  9 10  1  0
 10 11  2  0
 10 12  1  0
 12 13  1  0
 13 14  1  0
 14 15  2  0
 15 16  1  0
 16 17  2  0
 17 18  1  0
 18 19  2  0
 18 20  1  0
 20 21  1  0
 21 22  2  0
 22 23  1  0
 23 24  2  0
 24 25  1  0
 25 26  2  0
 26 27  1  0
 17 28  1  0
 28 29  2  0
  9 30  2  0
 30  5  1  0
 29 14  1  0
 26 21  1  0
  1 31  1  0
  6 32  1  0
  7 33  1  0
  8 34  1  0
 13 35  1  0
 13 36  1  0
 15 37  1  0
 16 38  1  0
 22 39  1  0
 23 40  1  0
 24 41  1  0
 25 42  1  0
 27 43  1  0
 27 44  1  0
 28 45  1  0
 29 46  1  0
 30 47  1  0
M  CHG  3   1  -1  12  -1  20  -1
M  END
>  <UniqueID>  (77) 
69

>  <SMILES>  (77) 
[NH-]S(=O)(=O)c1cccc(C(=O)[N-]Cc2ccc(C(=O)[N-]c3ccccc3N)cc2)c1

>  <Energy>  (77) 
63.103892164559575

>  <Genealogy>  (77) 
[NH-]S(=O)(=O)c1cccc(C(=O)[N-]Cc2ccc(C(=O)[N-]c3ccccc3N)cc2)c1 (protonated)
[NH-]S(=O)(=O)c1cccc(C(=O)[N-]Cc2ccc(C(=O)[N-]c3ccccc3N)cc2)c1 (3D coordinates assigned)
[NH-]S(=O)(=O)c1cccc(C(=O)[N-]Cc2ccc(C(=O)[N-]c3ccccc3N)cc2)c1 (optimized conformer: 63.103892164559575 kcal/mol)

>  <smiles>  (77) 
Nc1ccccc1NC(=O)c1ccc(CNC(=O)c2cccc(S(N)(=O)=O)c2)cc1

>  <score_type>  (77) 
oracle

>  <origin>  (77) 
adg

>  <m_score__min__energy>  (77) 
-14.68

>  <m_primary>  (77) 
energy

$$$$
77:0
     RDKit          3D

 64 66  0  0  0  0  0  0  0  0999 V2000
   55.6380   27.0350   45.9120 O   0  0  0  0  0  0  0  0  0  0  0  0
   56.2910   27.9330   45.3140 C   0  0  0  0  0  0  0  0  0  0  0  0
   57.7390   27.6930   44.9390 C   0  0  0  0  0  0  0  0  0  0  0  0
   58.7170   27.9230   46.1050 C   0  0  0  0  0  0  0  0  0  0  0  0
   58.2160   28.9940   47.0850 C   0  0  0  0  0  0  0  0  0  0  0  0
   59.3360   29.7340   47.6650 N   0  0  0  0  0  0  0  0  0  0  0  0
   60.1470   30.6080   46.8660 C   0  0  0  0  0  0  0  0  0  0  0  0
   59.9610   30.6670   45.6200 O   0  0  0  0  0  0  0  0  0  0  0  0
   61.1980   31.4450   47.4930 C   0  0  0  0  0  0  0  0  0  0  0  0
   61.5970   32.6400   46.8670 C   0  0  0  0  0  0  0  0  0  0  0  0
   62.5980   33.4360   47.4280 C   0  0  0  0  0  0  0  0  0  0  0  0
   63.2220   33.0430   48.6110 C   0  0  0  0  0  0  0  0  0  0  0  0
   62.8360   31.8630   49.2490 C   0  0  0  0  0  0  0  0  0  0  0  0
   61.8030   31.0680   48.7170 C   0  0  0  0  0  0  0  0  0  0  0  0
   61.4150   29.8360   49.3510 N   0  0  0  0  0  0  0  0  0  0  0  0
   60.6220   29.6910   50.5350 C   0  0  0  0  0  0  0  0  0  0  0  0
   61.1430   29.9340   51.6550 O   0  0  0  0  0  0  0  0  0  0  0  0
   59.2640   29.2490   50.4570 N   0  0  0  0  0  0  0  0  0  0  0  0
   58.1250   30.0930   50.7940 C   0  0  0  0  0  0  0  0  0  0  0  0
   58.5630   31.5210   50.9980 C   0  0  0  0  0  0  0  0  0  0  0  0
   58.4160   32.1170   52.2630 C   0  0  0  0  0  0  0  0  0  0  0  0
   58.7790   33.4530   52.4610 C   0  0  0  0  0  0  0  0  0  0  0  0
   59.2840   34.2070   51.3970 C   0  0  0  0  0  0  0  0  0  0  0  0
   59.4160   33.6300   50.1310 C   0  0  0  0  0  0  0  0  0  0  0  0
   59.0430   32.2980   49.9260 C   0  0  0  0  0  0  0  0  0  0  0  0
   55.6490   29.1890   45.0660 N   0  0  0  0  0  0  0  0  0  0  0  0
   55.9220   30.0730   43.9390 C   0  0  0  0  0  0  0  0  0  0  0  0
   57.3870   30.5330   43.9690 C   0  0  0  0  0  0  0  0  0  0  0  0
   57.5500   31.9970   43.5410 C   0  0  0  0  0  0  0  0  0  0  0  0
   57.9440   32.8850   44.6960 C   0  0  0  0  0  0  0  0  0  0  0  0
   58.8750   33.9220   44.5090 C   0  0  0  0  0  0  0  0  0  0  0  0
   59.2490   34.7360   45.5830 C   0  0  0  0  0  0  0  0  0  0  0  0
   58.7010   34.5190   46.8510 C   0  0  0  0  0  0  0  0  0  0  0  0
   57.7800   33.4840   47.0470 C   0  0  0  0  0  0  0  0  0  0  0  0
   57.4040   32.6680   45.9760 C   0  0  0  0  0  0  0  0  0  0  0  0
   57.8430   26.6529   44.5963 H   0  0  0  0  0  0  0  0  0  0  0  0
   57.9955   28.4170   44.1515 H   0  0  0  0  0  0  0  0  0  0  0  0
   58.8451   26.9766   46.6508 H   0  0  0  0  0  0  0  0  0  0  0  0
   59.6689   28.2749   45.6806 H   0  0  0  0  0  0  0  0  0  0  0  0
   57.5603   29.6952   46.5481 H   0  0  0  0  0  0  0  0  0  0  0  0
   57.6641   28.4976   47.8968 H   0  0  0  0  0  0  0  0  0  0  0  0
   59.5170   29.6650   48.6930 H   0  0  0  0  0  0  0  0  0  0  0  0
   61.1163   32.9501   45.9274 H   0  0  0  0  0  0  0  0  0  0  0  0
   62.8944   34.3741   46.9359 H   0  0  0  0  0  0  0  0  0  0  0  0
   64.0205   33.6643   49.0428 H   0  0  0  0  0  0  0  0  0  0  0  0
   63.3427   31.5519   50.1744 H   0  0  0  0  0  0  0  0  0  0  0  0
   57.3914   30.0536   49.9753 H   0  0  0  0  0  0  0  0  0  0  0  0
   57.6748   29.7240   51.7273 H   0  0  0  0  0  0  0  0  0  0  0  0
   58.0134   31.5294   53.1012 H   0  0  0  0  0  0  0  0  0  0  0  0
   58.6672   33.9112   53.4547 H   0  0  0  0  0  0  0  0  0  0  0  0
   59.5775   35.2550   51.5567 H   0  0  0  0  0  0  0  0  0  0  0  0
   59.8137   34.2242   49.2951 H   0  0  0  0  0  0  0  0  0  0  0  0
   59.1249   31.8549   48.9225 H   0  0  0  0  0  0  0  0  0  0  0  0
   55.7294   29.5342   42.9995 H   0  0  0  0  0  0  0  0  0  0  0  0
   55.2674   30.9544   44.0072 H   0  0  0  0  0  0  0  0  0  0  0  0
   57.7718   30.4196   44.9932 H   0  0  0  0  0  0  0  0  0  0  0  0
   57.9481   29.9111   43.2560 H   0  0  0  0  0  0  0  0  0  0  0  0
   58.3290   32.0556   42.7666 H   0  0  0  0  0  0  0  0  0  0  0  0
   56.5803   32.3484   43.1586 H   0  0  0  0  0  0  0  0  0  0  0  0
   59.3110   34.0937   43.5138 H   0  0  0  0  0  0  0  0  0  0  0  0
   59.9752   35.5480   45.4300 H   0  0  0  0  0  0  0  0  0  0  0  0
   58.9939   35.1618   47.6942 H   0  0  0  0  0  0  0  0  0  0  0  0
   57.3512   33.3122   48.0453 H   0  0  0  0  0  0  0  0  0  0  0  0
   56.6828   31.8529   46.1353 H   0  0  0  0  0  0  0  0  0  0  0  0
  1  2  2  0
  2  3  1  0
  3  4  1  0
  4  5  1  0
  5  6  1  0
  6  7  1  0
  7  8  2  0
  7  9  1  0
  9 10  2  0
 10 11  1  0
 11 12  2  0
 12 13  1  0
 13 14  2  0
 14 15  1  0
 15 16  1  0
 16 17  2  0
 16 18  1  0
 18 19  1  0
 19 20  1  0
 20 21  2  0
 21 22  1  0
 22 23  2  0
 23 24  1  0
 24 25  2  0
  2 26  1  0
 26 27  1  0
 27 28  1  0
 28 29  1  0
 29 30  1  0
 30 31  2  0
 31 32  1  0
 32 33  2  0
 33 34  1  0
 34 35  2  0
 14  9  1  0
 25 20  1  0
 35 30  1  0
  3 36  1  0
  3 37  1  0
  4 38  1  0
  4 39  1  0
  5 40  1  0
  5 41  1  0
  6 42  1  0
 10 43  1  0
 11 44  1  0
 12 45  1  0
 13 46  1  0
 19 47  1  0
 19 48  1  0
 21 49  1  0
 22 50  1  0
 23 51  1  0
 24 52  1  0
 25 53  1  0
 27 54  1  0
 27 55  1  0
 28 56  1  0
 28 57  1  0
 29 58  1  0
 29 59  1  0
 31 60  1  0
 32 61  1  0
 33 62  1  0
 34 63  1  0
 35 64  1  0
M  CHG  3  15  -1  18  -1  26  -1
M  END
>  <UniqueID>  (78) 
70

>  <SMILES>  (78) 
O=C(CCCNC(=O)c1ccccc1[N-]C(=O)[N-]Cc1ccccc1)[N-]CCCc1ccccc1

>  <Energy>  (78) 
62.84348935351679

>  <Genealogy>  (78) 
O=C(CCCNC(=O)c1ccccc1[N-]C(=O)[N-]Cc1ccccc1)[N-]CCCc1ccccc1 (protonated)
O=C(CCCNC(=O)c1ccccc1[N-]C(=O)[N-]Cc1ccccc1)[N-]CCCc1ccccc1 (3D coordinates assigned)
O=C(CCCNC(=O)c1ccccc1[N-]C(=O)[N-]Cc1ccccc1)[N-]CCCc1ccccc1 (optimized conformer: 62.84348935351679 kcal/mol)

>  <smiles>  (78) 
O=C(CCCNC(=O)c1ccccc1NC(=O)NCc1ccccc1)NCCCc1ccccc1

>  <score_type>  (78) 
oracle

>  <origin>  (78) 
adg

>  <m_score__min__energy>  (78) 
-12.98

>  <m_primary>  (78) 
energy

$$$$
78:0
     RDKit          3D

 62 65  0  0  0  0  0  0  0  0999 V2000
   56.0140   29.7430   43.0720 C   0  0  0  0  0  0  0  0  0  0  0  0
   57.3970   30.0590   43.6330 C   0  0  0  0  0  0  0  0  0  0  0  0
   57.3090   31.0780   44.7790 C   0  0  0  0  0  0  0  0  0  0  0  0
   58.5220   32.0180   44.8150 C   0  0  0  0  0  0  0  0  0  0  0  0
   58.7720   32.5560   46.1970 C   0  0  0  0  0  0  0  0  0  0  0  0
   58.0120   33.5170   46.7580 N   0  0  0  0  0  0  0  0  0  0  0  0
   58.5370   33.7860   47.9450 N   0  0  0  0  0  0  0  0  0  0  0  0
   59.6100   32.9850   48.0890 C   0  0  0  0  0  0  0  0  0  0  0  0
   60.6450   32.9840   49.5550 S   0  0  0  0  0  0  0  0  0  0  0  0
   59.3280   33.6490   50.6290 C   0  0  0  0  0  0  0  0  0  0  0  0
   58.5020   32.5230   51.1840 C   0  0  0  0  0  0  0  0  0  0  0  0
   57.4680   32.7780   52.0980 C   0  0  0  0  0  0  0  0  0  0  0  0
   56.6960   31.7300   52.6020 C   0  0  0  0  0  0  0  0  0  0  0  0
   56.9520   30.4080   52.2060 C   0  0  0  0  0  0  0  0  0  0  0  0
   56.0970   29.2870   52.7150 C   0  0  0  0  0  0  0  0  0  0  0  0
   57.9700   30.1540   51.2750 C   0  0  0  0  0  0  0  0  0  0  0  0
   58.7430   31.2040   50.7690 C   0  0  0  0  0  0  0  0  0  0  0  0
   59.7950   32.2020   47.0060 N   0  0  0  0  0  0  0  0  0  0  0  0
   60.8890   31.2570   46.7530 C   0  0  0  0  0  0  0  0  0  0  0  0
   60.3580   29.8630   46.5610 C   0  0  0  0  0  0  0  0  0  0  0  0
   59.7170   29.1960   47.6180 C   0  0  0  0  0  0  0  0  0  0  0  0
   59.2030   27.9120   47.4320 C   0  0  0  0  0  0  0  0  0  0  0  0
   59.3200   27.2740   46.1880 C   0  0  0  0  0  0  0  0  0  0  0  0
   58.6920   25.9530   45.9660 C   0  0  0  0  0  0  0  0  0  0  0  0
   59.5300   24.8260   45.9160 C   0  0  0  0  0  0  0  0  0  0  0  0
   59.0140   23.5680   45.6030 C   0  0  0  0  0  0  0  0  0  0  0  0
   57.6560   23.4190   45.3310 C   0  0  0  0  0  0  0  0  0  0  0  0
   56.8040   24.5240   45.3880 C   0  0  0  0  0  0  0  0  0  0  0  0
   57.3000   25.7990   45.7200 C   0  0  0  0  0  0  0  0  0  0  0  0
   56.3340   26.9200   45.8380 C   0  0  0  0  0  0  0  0  0  0  0  0
   55.1030   26.7020   45.9930 O   0  0  0  0  0  0  0  0  0  0  0  0
   56.7760   28.2350   45.7340 O   0  0  0  0  0  0  0  0  0  0  0  0
   59.9710   27.9350   45.1350 C   0  0  0  0  0  0  0  0  0  0  0  0
   60.4990   29.2150   45.3240 C   0  0  0  0  0  0  0  0  0  0  0  0
   55.3098   29.5821   43.9016 H   0  0  0  0  0  0  0  0  0  0  0  0
   55.6674   30.5851   42.4549 H   0  0  0  0  0  0  0  0  0  0  0  0
   56.0676   28.8339   42.4549 H   0  0  0  0  0  0  0  0  0  0  0  0
   57.8519   29.1315   44.0110 H   0  0  0  0  0  0  0  0  0  0  0  0
   58.0104   30.4903   42.8282 H   0  0  0  0  0  0  0  0  0  0  0  0
   56.3980   31.6804   44.6479 H   0  0  0  0  0  0  0  0  0  0  0  0
   57.2872   30.5192   45.7262 H   0  0  0  0  0  0  0  0  0  0  0  0
   59.4119   31.4635   44.4826 H   0  0  0  0  0  0  0  0  0  0  0  0
   58.3145   32.8690   44.1496 H   0  0  0  0  0  0  0  0  0  0  0  0
   59.7827   34.2107   51.4583 H   0  0  0  0  0  0  0  0  0  0  0  0
   58.6815   34.3150   50.0386 H   0  0  0  0  0  0  0  0  0  0  0  0
   57.2647   33.8102   52.4192 H   0  0  0  0  0  0  0  0  0  0  0  0
   55.8834   31.9411   53.3127 H   0  0  0  0  0  0  0  0  0  0  0  0
   56.1014   29.2928   53.8150 H   0  0  0  0  0  0  0  0  0  0  0  0
   55.0669   29.4174   52.3518 H   0  0  0  0  0  0  0  0  0  0  0  0
   56.4952   28.3281   52.3518 H   0  0  0  0  0  0  0  0  0  0  0  0
   58.1614   29.1235   50.9411 H   0  0  0  0  0  0  0  0  0  0  0  0
   59.5428   30.9954   50.0431 H   0  0  0  0  0  0  0  0  0  0  0  0
   61.4290   31.5652   45.8456 H   0  0  0  0  0  0  0  0  0  0  0  0
   61.5649   31.2601   47.6209 H   0  0  0  0  0  0  0  0  0  0  0  0
   59.6197   29.6881   48.5970 H   0  0  0  0  0  0  0  0  0  0  0  0
   58.7032   27.3971   48.2657 H   0  0  0  0  0  0  0  0  0  0  0  0
   60.6041   24.9368   46.1258 H   0  0  0  0  0  0  0  0  0  0  0  0
   59.6801   22.6932   45.5710 H   0  0  0  0  0  0  0  0  0  0  0  0
   57.2538   22.4288   45.0707 H   0  0  0  0  0  0  0  0  0  0  0  0
   55.7332   24.3967   45.1710 H   0  0  0  0  0  0  0  0  0  0  0  0
   60.0661   27.4430   44.1558 H   0  0  0  0  0  0  0  0  0  0  0  0
   61.0273   29.7168   44.4999 H   0  0  0  0  0  0  0  0  0  0  0  0
  1  2  1  0
  2  3  1  0
  3  4  1  0
  4  5  1  0
  5  6  2  0
  6  7  1  0
  7  8  2  0
  8  9  1  0
  9 10  1  0
 10 11  1  0
 11 12  2  0
 12 13  1  0
 13 14  2  0
 14 15  1  0
 14 16  1  0
 16 17  2  0
  8 18  1  0
 18 19  1  0
 19 20  1  0
 20 21  2  0
 21 22  1  0
 22 23  2  0
 23 24  1  0
 24 25  2  0
 25 26  1  0
 26 27  2  0
 27 28  1  0
 28 29  2  0
 29 30  1  0
 30 31  2  0
 30 32  1  0
 23 33  1  0
 33 34  2  0
 18  5  1  0
 34 20  1  0
 17 11  1  0
 29 24  1  0
  1 35  1  0
  1 36  1  0
  1 37  1  0
  2 38  1  0
  2 39  1  0
  3 40  1  0
  3 41  1  0
  4 42  1  0
  4 43  1  0
 10 44  1  0
 10 45  1  0
 12 46  1  0
 13 47  1  0
 15 48  1  0
 15 49  1  0
 15 50  1  0
 16 51  1  0
 17 52  1  0
 19 53  1  0
 19 54  1  0
 21 55  1  0
 22 56  1  0
 25 57  1  0
 26 58  1  0
 27 59  1  0
 28 60  1  0
 33 61  1  0
 34 62  1  0
M  CHG  1  32  -1
M  END
>  <UniqueID>  (79) 
71

>  <SMILES>  (79) 
CCCCc1nnc(SCc2ccc(C)cc2)n1Cc1ccc(-c2ccccc2C(=O)[O-])cc1

>  <Energy>  (79) 
94.70444809380756

>  <Genealogy>  (79) 
CCCCc1nnc(SCc2ccc(C)cc2)n1Cc1ccc(-c2ccccc2C(=O)[O-])cc1 (protonated)
CCCCc1nnc(SCc2ccc(C)cc2)n1Cc1ccc(-c2ccccc2C(=O)[O-])cc1 (3D coordinates assigned)
CCCCc1nnc(SCc2ccc(C)cc2)n1Cc1ccc(-c2ccccc2C(=O)[O-])cc1 (optimized conformer: 94.70444809380756 kcal/mol)

>  <smiles>  (79) 
CCCCc1nnc(SCc2ccc(C)cc2)n1Cc1ccc(-c2ccccc2C(=O)O)cc1

>  <score_type>  (79) 
oracle

>  <origin>  (79) 
adg

>  <m_score__min__energy>  (79) 
-12.720000000000001

>  <m_primary>  (79) 
energy

$$$$
79:0
     RDKit          3D

 49 52  0  0  0  0  0  0  0  0999 V2000
   60.1580   34.9250   48.7330 O   0  0  0  0  0  0  0  0  0  0  0  0
   60.0480   34.2960   47.6460 C   0  0  0  0  0  0  0  0  0  0  0  0
   61.0180   33.2040   47.3290 C   0  0  0  0  0  0  0  0  0  0  0  0
   60.4840   31.8890   47.8210 C   0  0  0  0  0  0  0  0  0  0  0  0
   59.3590   31.8460   48.6610 C   0  0  0  0  0  0  0  0  0  0  0  0
   58.8950   30.6240   49.1570 C   0  0  0  0  0  0  0  0  0  0  0  0
   59.5590   29.4370   48.8300 C   0  0  0  0  0  0  0  0  0  0  0  0
   60.6840   29.4710   48.0030 C   0  0  0  0  0  0  0  0  0  0  0  0
   61.1470   30.6920   47.5010 C   0  0  0  0  0  0  0  0  0  0  0  0
   58.9880   34.5800   46.7190 N   0  0  0  0  0  0  0  0  0  0  0  0
   58.5150   33.7980   45.7960 C   0  0  0  0  0  0  0  0  0  0  0  0
   58.9250   33.8840   44.5110 N   0  0  0  0  0  0  0  0  0  0  0  0
   58.3190   32.9580   43.7230 C   0  0  0  0  0  0  0  0  0  0  0  0
   57.4260   32.1290   44.3870 C   0  0  0  0  0  0  0  0  0  0  0  0
   56.4860   30.7950   43.6550 S   0  0  0  0  0  0  0  0  0  0  0  0
   57.4760   29.5490   44.4770 C   0  0  0  0  0  0  0  0  0  0  0  0
   58.8700   29.5610   44.3380 C   0  0  0  0  0  0  0  0  0  0  0  0
   59.6480   28.6130   45.0050 C   0  0  0  0  0  0  0  0  0  0  0  0
   59.0380   27.6530   45.8170 C   0  0  0  0  0  0  0  0  0  0  0  0
   57.6400   27.6390   45.9690 C   0  0  0  0  0  0  0  0  0  0  0  0
   56.9930   26.6680   46.8040 N   0  0  0  0  0  0  0  0  0  0  0  0
   55.9130   25.8260   46.3810 C   0  0  0  0  0  0  0  0  0  0  0  0
   54.8500   26.3500   45.9600 O   0  0  0  0  0  0  0  0  0  0  0  0
   56.0220   24.3980   46.4260 N   0  0  0  0  0  0  0  0  0  0  0  0
   56.3580   23.5740   45.2990 C   0  0  0  0  0  0  0  0  0  0  0  0
   57.3940   22.6380   45.4180 C   0  0  0  0  0  0  0  0  0  0  0  0
   57.7320   21.8170   44.3340 C   0  0  0  0  0  0  0  0  0  0  0  0
   57.0470   21.9400   43.1210 C   0  0  0  0  0  0  0  0  0  0  0  0
   56.0350   22.8930   42.9860 C   0  0  0  0  0  0  0  0  0  0  0  0
   55.6890   23.7090   44.0690 C   0  0  0  0  0  0  0  0  0  0  0  0
   56.8620   28.5760   45.2780 C   0  0  0  0  0  0  0  0  0  0  0  0
   57.3800   32.5600   46.0110 S   0  0  0  0  0  0  0  0  0  0  0  0
   61.1672   33.1530   46.2404 H   0  0  0  0  0  0  0  0  0  0  0  0
   61.9766   33.4149   47.8256 H   0  0  0  0  0  0  0  0  0  0  0  0
   58.8406   32.7782   48.9298 H   0  0  0  0  0  0  0  0  0  0  0  0
   58.0067   30.5959   49.8052 H   0  0  0  0  0  0  0  0  0  0  0  0
   59.1951   28.4767   49.2242 H   0  0  0  0  0  0  0  0  0  0  0  0
   61.2061   28.5375   47.7463 H   0  0  0  0  0  0  0  0  0  0  0  0
   62.0350   30.7152   46.8522 H   0  0  0  0  0  0  0  0  0  0  0  0
   58.5201   32.8722   42.6449 H   0  0  0  0  0  0  0  0  0  0  0  0
   59.3521   30.3184   43.7025 H   0  0  0  0  0  0  0  0  0  0  0  0
   60.7421   28.6217   44.8913 H   0  0  0  0  0  0  0  0  0  0  0  0
   59.6535   26.9057   46.3391 H   0  0  0  0  0  0  0  0  0  0  0  0
   57.9441   22.5474   46.3662 H   0  0  0  0  0  0  0  0  0  0  0  0
   58.5372   21.0747   44.4373 H   0  0  0  0  0  0  0  0  0  0  0  0
   57.3049   21.2870   42.2742 H   0  0  0  0  0  0  0  0  0  0  0  0
   55.5087   23.0024   42.0263 H   0  0  0  0  0  0  0  0  0  0  0  0
   54.8914   24.4583   43.9581 H   0  0  0  0  0  0  0  0  0  0  0  0
   55.7657   28.5485   45.3639 H   0  0  0  0  0  0  0  0  0  0  0  0
  1  2  2  0
  2  3  1  0
  3  4  1  0
  4  5  2  0
  5  6  1  0
  6  7  2  0
  7  8  1  0
  8  9  2  0
  2 10  1  0
 10 11  2  3
 11 12  1  0
 12 13  1  0
 13 14  2  0
 14 15  1  0
 15 16  1  0
 16 17  2  0
 17 18  1  0
 18 19  2  0
 19 20  1  0
 20 21  1  0
 21 22  1  0
 22 23  2  0
 22 24  1  0
 24 25  1  0
 25 26  2  0
 26 27  1  0
 27 28  2  0
 28 29  1  0
 29 30  2  0
 20 31  2  0
 14 32  1  0
  9  4  1  0
 32 11  1  0
 31 16  1  0
 30 25  1  0
  3 33  1  0
  3 34  1  0
  5 35  1  0
  6 36  1  0
  7 37  1  0
  8 38  1  0
  9 39  1  0
 13 40  1  0
 17 41  1  0
 18 42  1  0
 19 43  1  0
 26 44  1  0
 27 45  1  0
 28 46  1  0
 29 47  1  0
 30 48  1  0
 31 49  1  0
M  CHG  3  12  -1  21  -1  24  -1
M  END
>  <UniqueID>  (80) 
72

>  <SMILES>  (80) 
O=C(Cc1ccccc1)N=c1[n-]cc(Sc2cccc([N-]C(=O)[N-]c3ccccc3)c2)s1

>  <Energy>  (80) 
82.50962361358445

>  <Genealogy>  (80) 
O=C(Cc1ccccc1)N=c1[n-]cc(Sc2cccc([N-]C(=O)[N-]c3ccccc3)c2)s1 (protonated)
O=C(Cc1ccccc1)N=c1[n-]cc(Sc2cccc([N-]C(=O)[N-]c3ccccc3)c2)s1 (3D coordinates assigned)
O=C(Cc1ccccc1)N=c1[n-]cc(Sc2cccc([N-]C(=O)[N-]c3ccccc3)c2)s1 (optimized conformer: 82.50962361358445 kcal/mol)

>  <smiles>  (80) 
O=C(Cc1ccccc1)N=c1[nH]cc(Sc2cccc(NC(=O)Nc3ccccc3)c2)s1

>  <score_type>  (80) 
oracle

>  <origin>  (80) 
adg

>  <m_score__min__energy>  (80) 
-14.69

>  <m_primary>  (80) 
energy

$$$$
80:0
     RDKit          3D

 41 43  0  0  0  0  0  0  0  0999 V2000
   56.2530   24.3330   46.8420 C   0  0  0  0  0  0  0  0  0  0  0  0
   56.2730   25.7400   46.3370 C   0  0  0  0  0  0  0  0  0  0  0  0
   55.1630   26.4180   45.9910 N   0  0  0  0  0  0  0  0  0  0  0  0
   55.5440   27.6030   45.6110 O   0  0  0  0  0  0  0  0  0  0  0  0
   56.8470   27.7370   45.6910 C   0  0  0  0  0  0  0  0  0  0  0  0
   57.4330   28.8580   45.3830 N   0  0  0  0  0  0  0  0  0  0  0  0
   56.8460   30.1850   44.4300 S   0  0  0  0  0  0  0  0  0  0  0  0
   55.3540   30.2940   44.5760 O   0  0  0  0  0  0  0  0  0  0  0  0
   57.2160   30.0120   42.9850 O   0  0  0  0  0  0  0  0  0  0  0  0
   57.5980   31.6720   44.9990 C   0  0  0  0  0  0  0  0  0  0  0  0
   57.4170   32.9090   44.3640 C   0  0  0  0  0  0  0  0  0  0  0  0
   58.2100   33.9240   44.8850 C   0  0  0  0  0  0  0  0  0  0  0  0
   59.1500   33.2810   46.1240 S   0  0  0  0  0  0  0  0  0  0  0  0
   58.5400   31.7190   46.0250 C   0  0  0  0  0  0  0  0  0  0  0  0
   58.9780   30.5980   46.8560 C   0  0  0  0  0  0  0  0  0  0  0  0
   58.1280   29.9380   47.5120 O   0  0  0  0  0  0  0  0  0  0  0  0
   60.3610   30.2410   46.8930 N   0  0  0  0  0  0  0  0  0  0  0  0
   61.1380   30.2060   48.1280 C   0  0  0  0  0  0  0  0  0  0  0  0
   62.0970   31.3680   48.1690 C   0  0  0  0  0  0  0  0  0  0  0  0
   62.1120   32.3190   47.1330 C   0  0  0  0  0  0  0  0  0  0  0  0
   62.9730   33.4190   47.2010 C   0  0  0  0  0  0  0  0  0  0  0  0
   63.8170   33.5820   48.3010 C   0  0  0  0  0  0  0  0  0  0  0  0
   63.8020   32.6450   49.3380 C   0  0  0  0  0  0  0  0  0  0  0  0
   62.9450   31.5410   49.2740 C   0  0  0  0  0  0  0  0  0  0  0  0
   57.3930   26.5360   46.1470 C   0  0  0  0  0  0  0  0  0  0  0  0
   58.8100   26.1390   46.4360 C   0  0  0  0  0  0  0  0  0  0  0  0
   56.2531   24.3382   47.9420 H   0  0  0  0  0  0  0  0  0  0  0  0
   55.3475   23.8255   46.4778 H   0  0  0  0  0  0  0  0  0  0  0  0
   57.1437   23.8000   46.4778 H   0  0  0  0  0  0  0  0  0  0  0  0
   56.7137   33.0614   43.5320 H   0  0  0  0  0  0  0  0  0  0  0  0
   58.2215   34.9702   44.5453 H   0  0  0  0  0  0  0  0  0  0  0  0
   60.4560   30.2665   48.9889 H   0  0  0  0  0  0  0  0  0  0  0  0
   61.7086   29.2664   48.1682 H   0  0  0  0  0  0  0  0  0  0  0  0
   61.4448   32.1973   46.2670 H   0  0  0  0  0  0  0  0  0  0  0  0
   62.9852   34.1575   46.3858 H   0  0  0  0  0  0  0  0  0  0  0  0
   64.4937   34.4477   48.3516 H   0  0  0  0  0  0  0  0  0  0  0  0
   64.4651   32.7758   50.2059 H   0  0  0  0  0  0  0  0  0  0  0  0
   62.9357   30.8061   50.0924 H   0  0  0  0  0  0  0  0  0  0  0  0
   58.9640   26.0959   47.5243 H   0  0  0  0  0  0  0  0  0  0  0  0
   59.0104   25.1501   45.9978 H   0  0  0  0  0  0  0  0  0  0  0  0
   59.4950   26.8798   45.9978 H   0  0  0  0  0  0  0  0  0  0  0  0
  1  2  1  0
  2  3  1  0
  3  4  1  0
  4  5  1  0
  5  6  2  3
  6  7  1  0
  7  8  2  0
  7  9  2  0
  7 10  1  0
 10 11  1  0
 11 12  2  0
 12 13  1  0
 13 14  1  0
 14 15  1  0
 15 16  2  0
 15 17  1  0
 17 18  1  0
 18 19  1  0
 19 20  2  0
 20 21  1  0
 21 22  2  0
 22 23  1  0
 23 24  2  0
  5 25  1  0
 25 26  1  0
 25  2  2  0
 14 10  2  0
 24 19  1  0
  1 27  1  0
  1 28  1  0
  1 29  1  0
 11 30  1  0
 12 31  1  0
 18 32  1  0
 18 33  1  0
 20 34  1  0
 21 35  1  0
 22 36  1  0
 23 37  1  0
 24 38  1  0
 26 39  1  0
 26 40  1  0
 26 41  1  0
M  CHG  2   3  -1  17  -1
M  END
>  <UniqueID>  (81) 
73

>  <SMILES>  (81) 
Cc1[n-]oc(=NS(=O)(=O)c2ccsc2C(=O)[N-]Cc2ccccc2)c1C

>  <Energy>  (81) 
108.27416435884861

>  <Genealogy>  (81) 
Cc1[n-]oc(=NS(=O)(=O)c2ccsc2C(=O)[N-]Cc2ccccc2)c1C (protonated)
Cc1[n-]oc(=NS(=O)(=O)c2ccsc2C(=O)[N-]Cc2ccccc2)c1C (3D coordinates assigned)
Cc1[n-]oc(=NS(=O)(=O)c2ccsc2C(=O)[N-]Cc2ccccc2)c1C (optimized conformer: 108.27416435884861 kcal/mol)

>  <smiles>  (81) 
Cc1[nH]oc(=NS(=O)(=O)c2ccsc2C(=O)NCc2ccccc2)c1C

>  <score_type>  (81) 
oracle

>  <origin>  (81) 
adg

>  <m_score__min__energy>  (81) 
-12.73

>  <m_primary>  (81) 
energy

$$$$
81:0
     RDKit          3D

 40 42  0  0  0  0  0  0  0  0999 V2000
   58.1370   31.6090   50.5640 C   0  0  0  0  0  0  0  0  0  0  0  0
   58.9010   30.9480   49.4230 C   0  0  0  0  0  0  0  0  0  0  0  0
   58.8780   29.4930   49.5730 N   0  0  0  0  0  0  0  0  0  0  0  0
   59.9780   28.7280   48.4630 S   0  0  0  0  0  0  0  0  0  0  0  0
   60.7300   27.6440   49.1810 O   0  0  0  0  0  0  0  0  0  0  0  0
   60.9650   29.7390   47.9470 O   0  0  0  0  0  0  0  0  0  0  0  0
   59.0780   28.0120   47.1300 C   0  0  0  0  0  0  0  0  0  0  0  0
   59.5530   26.8680   46.4740 C   0  0  0  0  0  0  0  0  0  0  0  0
   58.8380   26.3270   45.4020 C   0  0  0  0  0  0  0  0  0  0  0  0
   57.6410   26.9180   44.9850 C   0  0  0  0  0  0  0  0  0  0  0  0
   57.1440   28.0540   45.6510 C   0  0  0  0  0  0  0  0  0  0  0  0
   55.9340   28.7080   45.2410 N   0  0  0  0  0  0  0  0  0  0  0  0
   55.8100   29.7360   44.2490 C   0  0  0  0  0  0  0  0  0  0  0  0
   54.9120   29.6680   43.3670 O   0  0  0  0  0  0  0  0  0  0  0  0
   56.7110   30.9020   44.3040 C   0  0  0  0  0  0  0  0  0  0  0  0
   57.2530   31.4590   43.1320 C   0  0  0  0  0  0  0  0  0  0  0  0
   58.1040   32.5640   43.2210 C   0  0  0  0  0  0  0  0  0  0  0  0
   58.4100   33.1080   44.4730 C   0  0  0  0  0  0  0  0  0  0  0  0
   59.2600   34.2170   44.5980 C   0  0  0  0  0  0  0  0  0  0  0  0
   59.5470   34.7380   45.8650 C   0  0  0  0  0  0  0  0  0  0  0  0
   58.9880   34.1570   47.0080 C   0  0  0  0  0  0  0  0  0  0  0  0
   58.1400   33.0510   46.8920 C   0  0  0  0  0  0  0  0  0  0  0  0
   57.8470   32.5230   45.6290 C   0  0  0  0  0  0  0  0  0  0  0  0
   57.0230   31.4480   45.5120 N   0  0  0  0  0  0  0  0  0  0  0  0
   57.8800   28.6050   46.7080 C   0  0  0  0  0  0  0  0  0  0  0  0
   58.5404   31.2600   51.5260 H   0  0  0  0  0  0  0  0  0  0  0  0
   58.2472   32.7013   50.4948 H   0  0  0  0  0  0  0  0  0  0  0  0
   57.0719   31.3428   50.4948 H   0  0  0  0  0  0  0  0  0  0  0  0
   58.4326   31.2217   48.4661 H   0  0  0  0  0  0  0  0  0  0  0  0
   59.9451   31.2936   49.4437 H   0  0  0  0  0  0  0  0  0  0  0  0
   60.4900   26.3953   46.8035 H   0  0  0  0  0  0  0  0  0  0  0  0
   59.2178   25.4337   44.8846 H   0  0  0  0  0  0  0  0  0  0  0  0
   57.0867   26.4941   44.1347 H   0  0  0  0  0  0  0  0  0  0  0  0
   57.0084   31.0272   42.1503 H   0  0  0  0  0  0  0  0  0  0  0  0
   58.5322   33.0049   42.3087 H   0  0  0  0  0  0  0  0  0  0  0  0
   59.7006   34.6767   43.7010 H   0  0  0  0  0  0  0  0  0  0  0  0
   60.2143   35.6071   45.9622 H   0  0  0  0  0  0  0  0  0  0  0  0
   59.2161   34.5713   48.0011 H   0  0  0  0  0  0  0  0  0  0  0  0
   57.7032   32.5959   47.7932 H   0  0  0  0  0  0  0  0  0  0  0  0
   57.5142   29.5119   47.2117 H   0  0  0  0  0  0  0  0  0  0  0  0
  1  2  1  0
  2  3  1  0
  3  4  1  0
  4  5  2  0
  4  6  2  0
  4  7  1  0
  7  8  2  0
  8  9  1  0
  9 10  2  0
 10 11  1  0
 11 12  1  0
 12 13  1  0
 13 14  2  0
 13 15  1  0
 15 16  2  0
 16 17  1  0
 17 18  2  0
 18 19  1  0
 19 20  2  0
 20 21  1  0
 21 22  2  0
 22 23  1  0
 23 24  2  0
 11 25  2  0
 25  7  1  0
 24 15  1  0
 23 18  1  0
  1 26  1  0
  1 27  1  0
  1 28  1  0
  2 29  1  0
  2 30  1  0
  8 31  1  0
  9 32  1  0
 10 33  1  0
 16 34  1  0
 17 35  1  0
 19 36  1  0
 20 37  1  0
 21 38  1  0
 22 39  1  0
 25 40  1  0
M  CHG  2   3  -1  12  -1
M  END
>  <UniqueID>  (82) 
74

>  <SMILES>  (82) 
CC[N-]S(=O)(=O)c1cccc([N-]C(=O)c2ccc3ccccc3n2)c1

>  <Energy>  (82) 
46.15785683805782

>  <Genealogy>  (82) 
CC[N-]S(=O)(=O)c1cccc([N-]C(=O)c2ccc3ccccc3n2)c1 (protonated)
CC[N-]S(=O)(=O)c1cccc([N-]C(=O)c2ccc3ccccc3n2)c1 (3D coordinates assigned)
CC[N-]S(=O)(=O)c1cccc([N-]C(=O)c2ccc3ccccc3n2)c1 (optimized conformer: 46.15785683805782 kcal/mol)

>  <smiles>  (82) 
CCNS(=O)(=O)c1cccc(NC(=O)c2ccc3ccccc3n2)c1

>  <score_type>  (82) 
oracle

>  <origin>  (82) 
adg

>  <m_score__min__energy>  (82) 
-12.470000000000001

>  <m_primary>  (82) 
energy

$$$$
82:0
     RDKit          3D

 45 47  0  0  0  0  0  0  0  0999 V2000
   60.8720   29.8830   49.4920 C   0  0  0  0  0  0  0  0  0  0  0  0
   59.7160   29.7600   48.6710 O   0  0  0  0  0  0  0  0  0  0  0  0
   59.7140   29.1970   47.3860 C   0  0  0  0  0  0  0  0  0  0  0  0
   60.7720   29.5050   46.5250 C   0  0  0  0  0  0  0  0  0  0  0  0
   60.8140   28.9730   45.2340 C   0  0  0  0  0  0  0  0  0  0  0  0
   59.7990   28.1220   44.7930 C   0  0  0  0  0  0  0  0  0  0  0  0
   58.7370   27.7850   45.6480 C   0  0  0  0  0  0  0  0  0  0  0  0
   57.6520   26.8450   45.1820 C   0  0  0  0  0  0  0  0  0  0  0  0
   56.2790   27.3070   45.6070 C   0  0  0  0  0  0  0  0  0  0  0  0
   55.5630   26.5310   46.2930 O   0  0  0  0  0  0  0  0  0  0  0  0
   55.7360   28.5790   45.2210 N   0  0  0  0  0  0  0  0  0  0  0  0
   56.4600   29.6490   44.6020 C   0  0  0  0  0  0  0  0  0  0  0  0
   56.3100   29.8680   43.2290 C   0  0  0  0  0  0  0  0  0  0  0  0
   57.0100   30.8990   42.6010 C   0  0  0  0  0  0  0  0  0  0  0  0
   57.8570   31.7250   43.3430 C   0  0  0  0  0  0  0  0  0  0  0  0
   58.0080   31.5320   44.7280 C   0  0  0  0  0  0  0  0  0  0  0  0
   58.9130   32.4180   45.5000 C   0  0  0  0  0  0  0  0  0  0  0  0
   59.2930   33.5020   44.9810 O   0  0  0  0  0  0  0  0  0  0  0  0
   59.3540   32.0580   46.8230 N   0  0  0  0  0  0  0  0  0  0  0  0
   60.3320   32.8010   47.5710 C   0  0  0  0  0  0  0  0  0  0  0  0
   61.6750   32.7760   47.1720 C   0  0  0  0  0  0  0  0  0  0  0  0
   62.6290   33.5130   47.8750 C   0  0  0  0  0  0  0  0  0  0  0  0
   62.2280   34.2880   48.9640 C   0  0  0  0  0  0  0  0  0  0  0  0
   60.9180   34.3270   49.3250 N   0  0  0  0  0  0  0  0  0  0  0  0
   59.9710   33.6140   48.6590 C   0  0  0  0  0  0  0  0  0  0  0  0
   57.2790   30.5050   45.3560 C   0  0  0  0  0  0  0  0  0  0  0  0
   58.6900   28.3380   46.9390 C   0  0  0  0  0  0  0  0  0  0  0  0
   60.5749   29.8514   50.5507 H   0  0  0  0  0  0  0  0  0  0  0  0
   61.5623   29.0532   49.2800 H   0  0  0  0  0  0  0  0  0  0  0  0
   61.3723   30.8394   49.2800 H   0  0  0  0  0  0  0  0  0  0  0  0
   61.5775   30.1715   46.8670 H   0  0  0  0  0  0  0  0  0  0  0  0
   61.6487   29.2252   44.5634 H   0  0  0  0  0  0  0  0  0  0  0  0
   59.8311   27.7139   43.7720 H   0  0  0  0  0  0  0  0  0  0  0  0
   57.6820   26.7852   44.0840 H   0  0  0  0  0  0  0  0  0  0  0  0
   57.8356   25.8621   45.6405 H   0  0  0  0  0  0  0  0  0  0  0  0
   55.6377   29.2252   42.6418 H   0  0  0  0  0  0  0  0  0  0  0  0
   56.8944   31.0614   41.5192 H   0  0  0  0  0  0  0  0  0  0  0  0
   58.4100   32.5324   42.8407 H   0  0  0  0  0  0  0  0  0  0  0  0
   58.9200   31.2380   47.3000 H   0  0  0  0  0  0  0  0  0  0  0  0
   61.9780   32.1740   46.3026 H   0  0  0  0  0  0  0  0  0  0  0  0
   63.6865   33.4833   47.5737 H   0  0  0  0  0  0  0  0  0  0  0  0
   62.9720   34.8674   49.5304 H   0  0  0  0  0  0  0  0  0  0  0  0
   58.9184   33.6737   48.9729 H   0  0  0  0  0  0  0  0  0  0  0  0
   57.3513   30.3718   46.4455 H   0  0  0  0  0  0  0  0  0  0  0  0
   57.8481   28.0988   47.6053 H   0  0  0  0  0  0  0  0  0  0  0  0
  1  2  1  0
  2  3  1  0
  3  4  2  0
  4  5  1  0
  5  6  2  0
  6  7  1  0
  7  8  1  0
  8  9  1  0
  9 10  2  0
  9 11  1  0
 11 12  1  0
 12 13  2  0
 13 14  1  0
 14 15  2  0
 15 16  1  0
 16 17  1  0
 17 18  2  0
 17 19  1  0
 19 20  1  0
 20 21  2  0
 21 22  1  0
 22 23  2  0
 23 24  1  0
 24 25  2  0
 16 26  2  0
  7 27  2  0
 27  3  1  0
 26 12  1  0
 25 20  1  0
  1 28  1  0
  1 29  1  0
  1 30  1  0
  4 31  1  0
  5 32  1  0
  6 33  1  0
  8 34  1  0
  8 35  1  0
 13 36  1  0
 14 37  1  0
 15 38  1  0
 19 39  1  0
 21 40  1  0
 22 41  1  0
 23 42  1  0
 25 43  1  0
 26 44  1  0
 27 45  1  0
M  CHG  1  11  -1
M  END
>  <UniqueID>  (83) 
75

>  <SMILES>  (83) 
COc1cccc(CC(=O)[N-]c2cccc(C(=O)Nc3cccnc3)c2)c1

>  <Energy>  (83) 
56.73743989998658

>  <Genealogy>  (83) 
COc1cccc(CC(=O)[N-]c2cccc(C(=O)Nc3cccnc3)c2)c1 (protonated)
COc1cccc(CC(=O)[N-]c2cccc(C(=O)Nc3cccnc3)c2)c1 (3D coordinates assigned)
COc1cccc(CC(=O)[N-]c2cccc(C(=O)Nc3cccnc3)c2)c1 (optimized conformer: 56.73743989998658 kcal/mol)

>  <smiles>  (83) 
COc1cccc(CC(=O)Nc2cccc(C(=O)Nc3cccnc3)c2)c1

>  <score_type>  (83) 
oracle

>  <origin>  (83) 
adg

>  <m_score__min__energy>  (83) 
-9.9600000000000009

>  <m_primary>  (83) 
energy

$$$$
83:0
     RDKit          3D

 50 53  0  0  0  0  0  0  0  0999 V2000
   54.0160   26.1880   46.3760 H   0  0  0  0  0  0  0  0  0  0  0  0
   54.9460   25.9420   45.9660 N   0  0  0  0  0  0  0  0  0  0  0  0
   55.9450   26.7620   46.0120 C   0  0  0  0  0  0  0  0  0  0  0  0
   55.9060   27.9220   45.3070 N   0  0  0  0  0  0  0  0  0  0  0  0
   56.9560   28.7840   45.3430 C   0  0  0  0  0  0  0  0  0  0  0  0
   56.9300   29.9110   44.6910 N   0  0  0  0  0  0  0  0  0  0  0  0
   57.6720   31.1040   44.9980 C   0  0  0  0  0  0  0  0  0  0  0  0
   58.8900   31.0670   45.7010 C   0  0  0  0  0  0  0  0  0  0  0  0
   59.3158   30.1005   46.0086 H   0  0  0  0  0  0  0  0  0  0  0  0
   59.5610   32.2530   46.0100 C   0  0  0  0  0  0  0  0  0  0  0  0
   60.5301   32.2141   46.5290 H   0  0  0  0  0  0  0  0  0  0  0  0
   59.0040   33.4960   45.6610 C   0  0  0  0  0  0  0  0  0  0  0  0
   59.6690   34.7330   45.9600 N   0  0  0  0  0  0  0  0  0  0  0  0
   59.9130   35.2360   47.1380 C   0  0  0  0  0  0  0  0  0  0  0  0
   59.7111   36.3061   47.2930 H   0  0  0  0  0  0  0  0  0  0  0  0
   60.4440   34.4590   48.2790 C   0  0  0  0  0  0  0  0  0  0  0  0
   59.5920   34.1890   49.3600 C   0  0  0  0  0  0  0  0  0  0  0  0
   58.5523   34.5476   49.3384 H   0  0  0  0  0  0  0  0  0  0  0  0
   60.0540   33.4680   50.4640 C   0  0  0  0  0  0  0  0  0  0  0  0
   58.9870   33.1590   51.8210 Cl  0  0  0  0  0  0  0  0  0  0  0  0
   61.3670   32.9950   50.4880 C   0  0  0  0  0  0  0  0  0  0  0  0
   61.7337   32.4377   51.3626 H   0  0  0  0  0  0  0  0  0  0  0  0
   62.2170   33.2280   49.4030 C   0  0  0  0  0  0  0  0  0  0  0  0
   63.2488   32.8473   49.4256 H   0  0  0  0  0  0  0  0  0  0  0  0
   61.7610   33.9470   48.2810 C   0  0  0  0  0  0  0  0  0  0  0  0
   62.5770   34.1560   47.1570 O   0  0  0  0  0  0  0  0  0  0  0  0
   63.6450   33.3010   46.7630 C   0  0  0  0  0  0  0  0  0  0  0  0
   64.1441   32.9014   47.6581 H   0  0  0  0  0  0  0  0  0  0  0  0
   63.2467   32.4693   46.1632 H   0  0  0  0  0  0  0  0  0  0  0  0
   64.3693   33.8716   46.1632 H   0  0  0  0  0  0  0  0  0  0  0  0
   57.7940   33.5300   44.9580 C   0  0  0  0  0  0  0  0  0  0  0  0
   57.3692   34.4960   44.6475 H   0  0  0  0  0  0  0  0  0  0  0  0
   57.1220   32.3440   44.6480 C   0  0  0  0  0  0  0  0  0  0  0  0
   56.1548   32.3847   44.1257 H   0  0  0  0  0  0  0  0  0  0  0  0
   58.0360   28.4870   46.1060 N   0  0  0  0  0  0  0  0  0  0  0  0
   58.0830   27.3340   46.8260 C   0  0  0  0  0  0  0  0  0  0  0  0
   59.1280   27.0280   47.5410 N   0  0  0  0  0  0  0  0  0  0  0  0
   59.8300   27.8860   48.4570 C   0  0  0  0  0  0  0  0  0  0  0  0
   59.9360   29.2500   48.1530 C   0  0  0  0  0  0  0  0  0  0  0  0
   59.4633   29.6452   47.2417 H   0  0  0  0  0  0  0  0  0  0  0  0
   60.6390   30.1120   49.0010 C   0  0  0  0  0  0  0  0  0  0  0  0
   60.7046   31.1840   48.7631 H   0  0  0  0  0  0  0  0  0  0  0  0
   61.2580   29.6130   50.1500 C   0  0  0  0  0  0  0  0  0  0  0  0
   61.8018   30.2936   50.8216 H   0  0  0  0  0  0  0  0  0  0  0  0
   61.1860   28.2480   50.4460 C   0  0  0  0  0  0  0  0  0  0  0  0
   61.6817   27.8536   51.3453 H   0  0  0  0  0  0  0  0  0  0  0  0
   60.4840   27.3840   49.5990 C   0  0  0  0  0  0  0  0  0  0  0  0
   60.4426   26.3084   49.8257 H   0  0  0  0  0  0  0  0  0  0  0  0
   57.0360   26.4660   46.7660 N   0  0  0  0  0  0  0  0  0  0  0  0
   57.0690   25.5710   47.3080 H   0  0  0  0  0  0  0  0  0  0  0  0
  1  2  1  0
  2  3  2  0
  3  4  1  0
  4  5  1  0
  5  6  2  0
  6  7  1  0
  7  8  2  0
  8  9  1  0
  8 10  1  0
 10 11  1  0
 10 12  2  0
 12 13  1  0
 13 14  2  3
 14 15  1  0
 14 16  1  0
 16 17  2  0
 17 18  1  0
 17 19  1  0
 19 20  1  0
 19 21  2  0
 21 22  1  0
 21 23  1  0
 23 24  1  0
 23 25  2  0
 25 26  1  0
 26 27  1  0
 27 28  1  0
 27 29  1  0
 27 30  1  0
 12 31  1  0
 31 32  1  0
 31 33  2  0
 33 34  1  0
  5 35  1  0
 35 36  1  0
 36 37  2  3
 37 38  1  0
 38 39  2  0
 39 40  1  0
 39 41  1  0
 41 42  1  0
 41 43  2  0
 43 44  1  0
 43 45  1  0
 45 46  1  0
 45 47  2  0
 47 48  1  0
 36 49  1  0
 49 50  1  0
 49  3  1  0
 33  7  1  0
 47 38  1  0
 25 16  1  0
M  CHG  2   4  -1  35  -1
M  END
>  <UniqueID>  (84) 
76

>  <SMILES>  (84) 
[H]/N=c1\[n-]/c(=N\c2ccc(N=Cc3cc(Cl)ccc3OC)cc2)[n-]c(=Nc2ccccc2)[nH]1

>  <Energy>  (84) 
78.54805134033056

>  <Genealogy>  (84) 
COc1ccc(Cl)cc1C=Nc1ccc(N=c2[n-]c(=N)[nH]c(=Nc3ccccc3)[n-]2)cc1 (protonated)
[H]/N=c1\[n-]/c(=N\c2ccc(N=Cc3cc(Cl)ccc3OC)cc2)[n-]c(=Nc2ccccc2)[nH]1 (cis-trans isomerization)
[H]/N=c1\[n-]/c(=N\c2ccc(N=Cc3cc(Cl)ccc3OC)cc2)[n-]c(=Nc2ccccc2)[nH]1 (3D coordinates assigned)
[H]/N=c1\[n-]/c(=N\c2ccc(N=Cc3cc(Cl)ccc3OC)cc2)[n-]c(=Nc2ccccc2)[nH]1 (optimized conformer: 78.54805134033056 kcal/mol)

>  <smiles>  (84) 
COc1ccc(Cl)cc1C=Nc1ccc(N=c2[nH]c(=N)[nH]c(=Nc3ccccc3)[nH]2)cc1

>  <score_type>  (84) 
oracle

>  <origin>  (84) 
adg

>  <m_score__min__energy>  (84) 
-12.17

>  <m_primary>  (84) 
energy

$$$$
84:0
     RDKit          3D

 37 38  0  0  0  0  0  0  0  0999 V2000
   61.9890   33.8330   47.6260 C   0  0  0  0  0  0  0  0  0  0  0  0
   60.7350   34.3690   47.2210 O   0  0  0  0  0  0  0  0  0  0  0  0
   59.7190   33.6310   46.5990 C   0  0  0  0  0  0  0  0  0  0  0  0
   58.5760   34.3110   46.1600 C   0  0  0  0  0  0  0  0  0  0  0  0
   57.5330   33.6180   45.5390 C   0  0  0  0  0  0  0  0  0  0  0  0
   57.6270   32.2320   45.3340 C   0  0  0  0  0  0  0  0  0  0  0  0
   56.5620   31.4880   44.7290 N   0  0  0  0  0  0  0  0  0  0  0  0
   56.6490   30.6990   43.5350 C   0  0  0  0  0  0  0  0  0  0  0  0
   56.6680   31.2840   42.4180 O   0  0  0  0  0  0  0  0  0  0  0  0
   56.6930   29.1990   43.5810 C   0  0  0  0  0  0  0  0  0  0  0  0
   56.2760   28.7340   44.9020 N   0  0  0  0  0  0  0  0  0  0  0  0
   57.6630   28.1950   45.8000 S   0  0  0  0  0  0  0  0  0  0  0  0
   57.8170   29.0630   47.0160 O   0  0  0  0  0  0  0  0  0  0  0  0
   58.8980   28.3580   44.9600 O   0  0  0  0  0  0  0  0  0  0  0  0
   57.4120   26.5150   46.3330 C   0  0  0  0  0  0  0  0  0  0  0  0
   58.4670   25.6440   46.7050 C   0  0  0  0  0  0  0  0  0  0  0  0
   59.9100   26.0600   46.6950 C   0  0  0  0  0  0  0  0  0  0  0  0
   58.1780   24.3700   47.0860 N   0  0  0  0  0  0  0  0  0  0  0  0
   56.9030   23.9050   47.1050 C   0  0  0  0  0  0  0  0  0  0  0  0
   56.6710   22.7190   47.4580 O   0  0  0  0  0  0  0  0  0  0  0  0
   55.8800   24.7130   46.7370 N   0  0  0  0  0  0  0  0  0  0  0  0
   56.1030   25.9960   46.3500 C   0  0  0  0  0  0  0  0  0  0  0  0
   55.1220   26.7100   46.0050 O   0  0  0  0  0  0  0  0  0  0  0  0
   58.7640   31.5490   45.7840 C   0  0  0  0  0  0  0  0  0  0  0  0
   59.8090   32.2380   46.4050 C   0  0  0  0  0  0  0  0  0  0  0  0
   62.0407   33.8109   48.7246 H   0  0  0  0  0  0  0  0  0  0  0  0
   62.0949   32.8110   47.2333 H   0  0  0  0  0  0  0  0  0  0  0  0
   62.8010   34.4627   47.2333 H   0  0  0  0  0  0  0  0  0  0  0  0
   58.4985   35.3986   46.3050 H   0  0  0  0  0  0  0  0  0  0  0  0
   56.6347   34.1607   45.2095 H   0  0  0  0  0  0  0  0  0  0  0  0
   56.0142   28.7898   42.8183 H   0  0  0  0  0  0  0  0  0  0  0  0
   57.7200   28.8586   43.3826 H   0  0  0  0  0  0  0  0  0  0  0  0
   60.2689   26.1635   47.7296 H   0  0  0  0  0  0  0  0  0  0  0  0
   60.5078   25.2976   46.1740 H   0  0  0  0  0  0  0  0  0  0  0  0
   60.0102   27.0236   46.1740 H   0  0  0  0  0  0  0  0  0  0  0  0
   58.8350   30.4598   45.6472 H   0  0  0  0  0  0  0  0  0  0  0  0
   60.7026   31.6927   46.7427 H   0  0  0  0  0  0  0  0  0  0  0  0
  1  2  1  0
  2  3  1  0
  3  4  2  0
  4  5  1  0
  5  6  2  0
  6  7  1  0
  7  8  1  0
  8  9  2  0
  8 10  1  0
 10 11  1  0
 11 12  1  0
 12 13  2  0
 12 14  2  0
 12 15  1  0
 15 16  2  0
 16 17  1  0
 16 18  1  0
 18 19  1  0
 19 20  2  0
 19 21  1  0
 21 22  1  0
 22 23  2  0
  6 24  1  0
 24 25  2  0
 25  3  1  0
 22 15  1  0
  1 26  1  0
  1 27  1  0
  1 28  1  0
  4 29  1  0
  5 30  1  0
 10 31  1  0
 10 32  1  0
 17 33  1  0
 17 34  1  0
 17 35  1  0
 24 36  1  0
 25 37  1  0
M  CHG  4   7  -1  11  -1  18  -1  21  -1
M  END
>  <UniqueID>  (85) 
77

>  <SMILES>  (85) 
COc1ccc([N-]C(=O)C[N-]S(=O)(=O)c2c(C)[n-]c(=O)[n-]c2=O)cc1

>  <Energy>  (85) 
42.994198661231835

>  <Genealogy>  (85) 
COc1ccc([N-]C(=O)C[N-]S(=O)(=O)c2c(C)[n-]c(=O)[n-]c2=O)cc1 (protonated)
COc1ccc([N-]C(=O)C[N-]S(=O)(=O)c2c(C)[n-]c(=O)[n-]c2=O)cc1 (3D coordinates assigned)
COc1ccc([N-]C(=O)C[N-]S(=O)(=O)c2c(C)[n-]c(=O)[n-]c2=O)cc1 (optimized conformer: 42.994198661231835 kcal/mol)

>  <smiles>  (85) 
COc1ccc(NC(=O)CNS(=O)(=O)c2c(C)[nH]c(=O)[nH]c2=O)cc1

>  <score_type>  (85) 
oracle

>  <origin>  (85) 
adg

>  <m_score__min__energy>  (85) 
-14.52

>  <m_primary>  (85) 
energy

$$$$
85:0
     RDKit          3D

 35 37  0  0  0  0  0  0  0  0999 V2000
   63.0890   33.8290   46.0280 O   0  0  0  0  0  0  0  0  0  0  0  0
   62.8560   33.1550   47.0650 C   0  0  0  0  0  0  0  0  0  0  0  0
   63.8660   32.7270   48.0300 C   0  0  0  0  0  0  0  0  0  0  0  0
   63.2500   32.0410   48.9880 C   0  0  0  0  0  0  0  0  0  0  0  0
   61.8250   32.0060   48.6690 C   0  0  0  0  0  0  0  0  0  0  0  0
   60.9480   31.4350   49.3710 O   0  0  0  0  0  0  0  0  0  0  0  0
   61.5620   32.7070   47.4560 N   0  0  0  0  0  0  0  0  0  0  0  0
   60.3140   32.9230   46.7750 C   0  0  0  0  0  0  0  0  0  0  0  0
   60.3040   33.5820   45.6990 O   0  0  0  0  0  0  0  0  0  0  0  0
   59.0260   32.3730   47.3330 C   0  0  0  0  0  0  0  0  0  0  0  0
   58.6400   31.0560   46.7080 C   0  0  0  0  0  0  0  0  0  0  0  0
   59.2880   29.8720   47.0950 C   0  0  0  0  0  0  0  0  0  0  0  0
   58.9570   28.6570   46.4880 C   0  0  0  0  0  0  0  0  0  0  0  0
   57.9760   28.6090   45.4850 C   0  0  0  0  0  0  0  0  0  0  0  0
   57.6530   27.3050   44.8040 C   0  0  0  0  0  0  0  0  0  0  0  0
   57.3200   26.2210   45.7930 C   0  0  0  0  0  0  0  0  0  0  0  0
   58.3890   25.0470   46.3740 S   0  0  0  0  0  0  0  0  0  0  0  0
   57.1970   24.2650   47.2570 C   0  0  0  0  0  0  0  0  0  0  0  0
   57.3920   23.2450   47.9670 O   0  0  0  0  0  0  0  0  0  0  0  0
   55.9870   24.8450   47.1200 N   0  0  0  0  0  0  0  0  0  0  0  0
   56.0470   25.9250   46.2970 C   0  0  0  0  0  0  0  0  0  0  0  0
   54.9000   26.6540   45.9890 O   0  0  0  0  0  0  0  0  0  0  0  0
   57.3440   29.7980   45.0830 C   0  0  0  0  0  0  0  0  0  0  0  0
   57.6750   31.0120   45.6900 C   0  0  0  0  0  0  0  0  0  0  0  0
   64.9446   32.9353   47.9739 H   0  0  0  0  0  0  0  0  0  0  0  0
   63.7286   31.5813   49.8653 H   0  0  0  0  0  0  0  0  0  0  0  0
   59.1451   32.2274   48.4168 H   0  0  0  0  0  0  0  0  0  0  0  0
   58.2286   33.0961   47.1066 H   0  0  0  0  0  0  0  0  0  0  0  0
   60.0591   29.9006   47.8789 H   0  0  0  0  0  0  0  0  0  0  0  0
   59.4680   27.7335   46.7980 H   0  0  0  0  0  0  0  0  0  0  0  0
   56.7904   27.4559   44.1384 H   0  0  0  0  0  0  0  0  0  0  0  0
   58.5411   26.9878   44.2378 H   0  0  0  0  0  0  0  0  0  0  0  0
   54.7630   27.0870   45.0850 H   0  0  0  0  0  0  0  0  0  0  0  0
   56.5853   29.7728   44.2869 H   0  0  0  0  0  0  0  0  0  0  0  0
   57.1766   31.9383   45.3683 H   0  0  0  0  0  0  0  0  0  0  0  0
  1  2  2  0
  2  3  1  0
  3  4  2  0
  4  5  1  0
  5  6  2  0
  5  7  1  0
  7  8  1  0
  8  9  2  0
  8 10  1  0
 10 11  1  0
 11 12  2  0
 12 13  1  0
 13 14  2  0
 14 15  1  0
 15 16  1  0
 16 17  1  0
 17 18  1  0
 18 19  2  0
 18 20  1  0
 20 21  1  0
 21 22  1  0
 14 23  1  0
 23 24  2  0
  7  2  1  0
 24 11  1  0
 21 16  2  0
  3 25  1  0
  4 26  1  0
 10 27  1  0
 10 28  1  0
 12 29  1  0
 13 30  1  0
 15 31  1  0
 15 32  1  0
 22 33  1  0
 23 34  1  0
 24 35  1  0
M  CHG  1  20  -1
M  END
>  <UniqueID>  (86) 
78

>  <SMILES>  (86) 
O=C1C=CC(=O)N1C(=O)Cc1ccc(Cc2sc(=O)[n-]c2O)cc1

>  <Energy>  (86) 
94.93754753066183

>  <Genealogy>  (86) 
O=C1C=CC(=O)N1C(=O)Cc1ccc(Cc2sc(=O)[n-]c2O)cc1 (protonated)
O=C1C=CC(=O)N1C(=O)Cc1ccc(Cc2sc(=O)[n-]c2O)cc1 (3D coordinates assigned)
O=C1C=CC(=O)N1C(=O)Cc1ccc(Cc2sc(=O)[n-]c2O)cc1 (nonaromatic ring conformer: 94.93754753066183 kcal/mol)

>  <smiles>  (86) 
O=C1C=CC(=O)N1C(=O)Cc1ccc(Cc2sc(=O)[nH]c2O)cc1

>  <score_type>  (86) 
oracle

>  <origin>  (86) 
adg

>  <m_score__min__energy>  (86) 
-11.210000000000001

>  <m_primary>  (86) 
energy

$$$$
86:0
     RDKit          3D

 69 75  0  0  0  0  0  0  0  0999 V2000
   57.5710   30.1090   46.5690 H   0  0  0  0  0  0  0  0  0  0  0  0
   57.8380   29.1510   46.5810 O   0  0  0  0  0  0  0  0  0  0  0  0
   59.2370   29.0610   46.7250 C   0  0  0  0  0  0  0  0  0  0  0  0
   59.9850   29.5780   45.4920 C   0  0  0  0  0  0  0  0  0  0  0  0
   60.8506   30.1763   45.8124 H   0  0  0  0  0  0  0  0  0  0  0  0
   60.3314   28.7256   44.8891 H   0  0  0  0  0  0  0  0  0  0  0  0
   59.3100   30.2033   44.8891 H   0  0  0  0  0  0  0  0  0  0  0  0
   59.7590   29.5690   48.0390 C   0  0  0  0  0  0  0  0  0  0  0  0
   60.5839   30.2871   47.9209 H   0  0  0  0  0  0  0  0  0  0  0  0
   59.0616   30.1352   48.6739 H   0  0  0  0  0  0  0  0  0  0  0  0
   60.2120   28.2540   48.5360 N   0  0  0  0  0  0  0  0  0  0  0  0
   60.8520   27.7130   49.6950 C   0  0  0  0  0  0  0  0  0  0  0  0
   61.0970   26.4790   49.7380 O   0  0  0  0  0  0  0  0  0  0  0  0
   61.1940   28.5890   50.8370 C   0  0  0  0  0  0  0  0  0  0  0  0
   61.5840   29.8650   50.5660 N   0  0  0  0  0  0  0  0  0  0  0  0
   61.8930   30.7710   51.5330 C   0  0  0  0  0  0  0  0  0  0  0  0
   62.2750   32.1090   51.1520 N   0  0  0  0  0  0  0  0  0  0  0  0
   61.3910   32.9800   50.3750 C   0  0  0  0  0  0  0  0  0  0  0  0
   61.3534   33.9732   50.8462 H   0  0  0  0  0  0  0  0  0  0  0  0
   60.3838   32.5385   50.3492 H   0  0  0  0  0  0  0  0  0  0  0  0
   61.9080   33.1180   48.9550 C   0  0  0  0  0  0  0  0  0  0  0  0
   61.0750   33.6120   47.9170 C   0  0  0  0  0  0  0  0  0  0  0  0
   59.6400   33.9100   48.1240 C   0  0  0  0  0  0  0  0  0  0  0  0
   59.3150   34.8740   48.8680 O   0  0  0  0  0  0  0  0  0  0  0  0
   58.6040   33.0490   47.6290 N   0  0  0  0  0  0  0  0  0  0  0  0
   58.3550   32.7460   46.3870 C   0  0  0  0  0  0  0  0  0  0  0  0
   57.5920   31.6760   46.0570 N   0  0  0  0  0  0  0  0  0  0  0  0
   57.4500   31.5770   44.7110 C   0  0  0  0  0  0  0  0  0  0  0  0
   56.7290   30.5680   44.0670 C   0  0  0  0  0  0  0  0  0  0  0  0
   56.2229   29.7827   44.6476 H   0  0  0  0  0  0  0  0  0  0  0  0
   56.6630   30.5760   42.6630 C   0  0  0  0  0  0  0  0  0  0  0  0
   56.1019   29.7885   42.1386 H   0  0  0  0  0  0  0  0  0  0  0  0
   57.3100   31.5850   41.9220 C   0  0  0  0  0  0  0  0  0  0  0  0
   57.2513   31.5806   40.8236 H   0  0  0  0  0  0  0  0  0  0  0  0
   58.0300   32.5970   42.5800 C   0  0  0  0  0  0  0  0  0  0  0  0
   58.5376   33.3910   42.0126 H   0  0  0  0  0  0  0  0  0  0  0  0
   58.0820   32.5650   43.9720 C   0  0  0  0  0  0  0  0  0  0  0  0
   58.8600   33.6220   45.0170 S   0  0  0  0  0  0  0  0  0  0  0  0
   61.6180   33.8400   46.6430 C   0  0  0  0  0  0  0  0  0  0  0  0
   60.9722   34.2194   45.8374 H   0  0  0  0  0  0  0  0  0  0  0  0
   62.9640   33.5920   46.3860 C   0  0  0  0  0  0  0  0  0  0  0  0
   63.3728   33.7683   45.3801 H   0  0  0  0  0  0  0  0  0  0  0  0
   63.7930   33.1210   47.4010 C   0  0  0  0  0  0  0  0  0  0  0  0
   64.8535   32.9203   47.1889 H   0  0  0  0  0  0  0  0  0  0  0  0
   63.2890   32.9000   48.6910 C   0  0  0  0  0  0  0  0  0  0  0  0
   64.2330   32.3420   49.7400 C   0  0  0  0  0  0  0  0  0  0  0  0
   65.1899   32.8806   49.6750 H   0  0  0  0  0  0  0  0  0  0  0  0
   64.3574   31.2678   49.5384 H   0  0  0  0  0  0  0  0  0  0  0  0
   63.6860   32.4860   51.1590 C   0  0  0  0  0  0  0  0  0  0  0  0
   63.7898   33.5290   51.4926 H   0  0  0  0  0  0  0  0  0  0  0  0
   64.2465   31.8359   51.8469 H   0  0  0  0  0  0  0  0  0  0  0  0
   61.7880   30.3940   52.8800 C   0  0  0  0  0  0  0  0  0  0  0  0
   62.0132   31.1180   53.6769 H   0  0  0  0  0  0  0  0  0  0  0  0
   61.3970   29.0980   53.2010 C   0  0  0  0  0  0  0  0  0  0  0  0
   61.3160   28.7986   54.2564 H   0  0  0  0  0  0  0  0  0  0  0  0
   61.1050   28.1690   52.1900 C   0  0  0  0  0  0  0  0  0  0  0  0
   60.7680   26.7820   52.5810 C   0  0  0  0  0  0  0  0  0  0  0  0
   59.5370   26.4940   53.1900 C   0  0  0  0  0  0  0  0  0  0  0  0
   58.8090   27.3003   53.3631 H   0  0  0  0  0  0  0  0  0  0  0  0
   59.2410   25.2210   53.5670 N   0  0  0  0  0  0  0  0  0  0  0  0
   60.1170   24.1990   53.3800 C   0  0  0  0  0  0  0  0  0  0  0  0
   59.8489   23.1809   53.6987 H   0  0  0  0  0  0  0  0  0  0  0  0
   61.3570   24.4390   52.7840 C   0  0  0  0  0  0  0  0  0  0  0  0
   62.0672   23.6140   52.6260 H   0  0  0  0  0  0  0  0  0  0  0  0
   61.6850   25.7380   52.3910 C   0  0  0  0  0  0  0  0  0  0  0  0
   62.6635   25.9427   51.9320 H   0  0  0  0  0  0  0  0  0  0  0  0
   59.7160   27.7350   47.2450 C   0  0  0  0  0  0  0  0  0  0  0  0
   60.5138   27.2977   46.6267 H   0  0  0  0  0  0  0  0  0  0  0  0
   58.9861   26.9127   47.2786 H   0  0  0  0  0  0  0  0  0  0  0  0
  1  2  1  0
  2  3  1  0
  3  4  1  0
  4  5  1  0
  4  6  1  0
  4  7  1  0
  3  8  1  0
  8  9  1  0
  8 10  1  0
  8 11  1  0
 11 12  1  0
 12 13  2  0
 12 14  1  0
 14 15  2  0
 15 16  1  0
 16 17  1  0
 17 18  1  0
 18 19  1  0
 18 20  1  0
 18 21  1  0
 21 22  2  0
 22 23  1  0
 23 24  2  0
 23 25  1  0
 25 26  2  0
 26 27  1  0
 27 28  1  0
 28 29  2  0
 29 30  1  0
 29 31  1  0
 31 32  1  0
 31 33  2  0
 33 34  1  0
 33 35  1  0
 35 36  1  0
 35 37  2  0
 37 38  1  0
 22 39  1  0
 39 40  1  0
 39 41  2  0
 41 42  1  0
 41 43  1  0
 43 44  1  0
 43 45  2  0
 45 46  1  0
 46 47  1  0
 46 48  1  0
 46 49  1  0
 49 50  1  0
 49 51  1  0
 16 52  2  0
 52 53  1  0
 52 54  1  0
 54 55  1  0
 54 56  2  0
 56 57  1  0
 57 58  2  0
 58 59  1  0
 58 60  1  0
 60 61  2  0
 61 62  1  0
 61 63  1  0
 63 64  1  0
 63 65  2  0
 65 66  1  0
 11 67  1  0
 67 68  1  0
 67 69  1  0
 67  3  1  0
 56 14  1  0
 65 57  1  0
 49 17  1  0
 45 21  1  0
 38 26  1  0
 37 28  1  0
M  CHG  1  27  -1
M  END
>  <UniqueID>  (87) 
79

>  <SMILES>  (87) 
CC1(O)CN(C(=O)c2nc(N3CCc4cccc(C(=O)/N=c5/[n-]c6ccccc6s5)c4C3)ccc2-c2cccnc2)C1

>  <Energy>  (87) 
188.66923730810706

>  <Genealogy>  (87) 
CC1(O)CN(C(=O)c2nc(N3CCc4cccc(C(=O)N=c5[n-]c6ccccc6s5)c4C3)ccc2-c2cccnc2)C1 (protonated)
CC1(O)CN(C(=O)c2nc(N3CCc4cccc(C(=O)/N=c5/[n-]c6ccccc6s5)c4C3)ccc2-c2cccnc2)C1 (cis-trans isomerization)
CC1(O)CN(C(=O)c2nc(N3CCc4cccc(C(=O)/N=c5/[n-]c6ccccc6s5)c4C3)ccc2-c2cccnc2)C1 (3D coordinates assigned)
CC1(O)CN(C(=O)c2nc(N3CCc4cccc(C(=O)/N=c5/[n-]c6ccccc6s5)c4C3)ccc2-c2cccnc2)C1 (nonaromatic ring conformer: 188.66923730810706 kcal/mol)

>  <smiles>  (87) 
CC1(O)CN(C(=O)c2nc(N3CCc4cccc(C(=O)N=c5[nH]c6ccccc6s5)c4C3)ccc2-c2cccnc2)C1

>  <score_type>  (87) 
oracle

>  <origin>  (87) 
adg

>  <m_score__min__energy>  (87) 
-12.039999999999999

>  <m_primary>  (87) 
energy

$$$$
87:0
     RDKit          3D

 48 51  0  0  0  0  0  0  0  0999 V2000
   58.9770   28.6720   48.7740 H   0  0  0  0  0  0  0  0  0  0  0  0
   59.7480   29.0530   49.3050 O   0  0  0  0  0  0  0  0  0  0  0  0
   60.6510   29.9920   48.7950 C   0  0  0  0  0  0  0  0  0  0  0  0
   61.0750   29.9540   47.4440 C   0  0  0  0  0  0  0  0  0  0  0  0
   60.4830   29.0330   46.4500 C   0  0  0  0  0  0  0  0  0  0  0  0
   61.0180   28.9000   45.3150 O   0  0  0  0  0  0  0  0  0  0  0  0
   59.2890   28.3060   46.7840 N   0  0  0  0  0  0  0  0  0  0  0  0
   58.1100   28.7940   46.8600 N   0  0  0  0  0  0  0  0  0  0  0  0
   57.5240   29.7050   45.9210 C   0  0  0  0  0  0  0  0  0  0  0  0
   56.3260   29.5560   45.2330 C   0  0  0  0  0  0  0  0  0  0  0  0
   55.5340   28.4140   45.2440 O   0  0  0  0  0  0  0  0  0  0  0  0
   55.9780   30.6870   44.5730 N   0  0  0  0  0  0  0  0  0  0  0  0
   56.9590   31.5610   44.8830 C   0  0  0  0  0  0  0  0  0  0  0  0
   57.0480   32.8900   44.4710 C   0  0  0  0  0  0  0  0  0  0  0  0
   56.2924   33.3276   43.8020 H   0  0  0  0  0  0  0  0  0  0  0  0
   58.1340   33.6550   44.9370 C   0  0  0  0  0  0  0  0  0  0  0  0
   58.2347   34.7054   44.6263 H   0  0  0  0  0  0  0  0  0  0  0  0
   59.0960   33.0840   45.8010 C   0  0  0  0  0  0  0  0  0  0  0  0
   60.5580   34.1400   46.4260 Br  0  0  0  0  0  0  0  0  0  0  0  0
   58.9810   31.7400   46.2030 C   0  0  0  0  0  0  0  0  0  0  0  0
   59.7198   31.2829   46.8777 H   0  0  0  0  0  0  0  0  0  0  0  0
   57.8990   31.0080   45.7170 C   0  0  0  0  0  0  0  0  0  0  0  0
   62.0730   30.8400   47.0150 C   0  0  0  0  0  0  0  0  0  0  0  0
   62.4419   30.7836   45.9802 H   0  0  0  0  0  0  0  0  0  0  0  0
   62.6030   31.7910   47.8840 C   0  0  0  0  0  0  0  0  0  0  0  0
   63.3896   32.4735   47.5299 H   0  0  0  0  0  0  0  0  0  0  0  0
   62.1450   31.8870   49.2030 C   0  0  0  0  0  0  0  0  0  0  0  0
   62.7160   32.9660   50.0900 C   0  0  0  0  0  0  0  0  0  0  0  0
   62.5696   32.6894   51.1445 H   0  0  0  0  0  0  0  0  0  0  0  0
   63.7912   33.0775   49.8860 H   0  0  0  0  0  0  0  0  0  0  0  0
   62.2035   33.9177   49.8860 H   0  0  0  0  0  0  0  0  0  0  0  0
   61.1780   30.9640   49.6730 C   0  0  0  0  0  0  0  0  0  0  0  0
   60.7180   30.9830   51.0840 C   0  0  0  0  0  0  0  0  0  0  0  0
   61.2690   30.2070   51.9110 O   0  0  0  0  0  0  0  0  0  0  0  0
   59.6720   31.9330   51.5440 C   0  0  0  0  0  0  0  0  0  0  0  0
   60.0540   33.2430   51.8890 C   0  0  0  0  0  0  0  0  0  0  0  0
   61.1083   33.5438   51.7993 H   0  0  0  0  0  0  0  0  0  0  0  0
   59.1090   34.1650   52.3440 C   0  0  0  0  0  0  0  0  0  0  0  0
   59.4208   35.1869   52.6058 H   0  0  0  0  0  0  0  0  0  0  0  0
   57.7720   33.7930   52.4670 C   0  0  0  0  0  0  0  0  0  0  0  0
   57.0308   34.5195   52.8315 H   0  0  0  0  0  0  0  0  0  0  0  0
   57.3720   32.4990   52.1280 C   0  0  0  0  0  0  0  0  0  0  0  0
   56.3159   32.2103   52.2344 H   0  0  0  0  0  0  0  0  0  0  0  0
   58.3050   31.5610   51.6520 C   0  0  0  0  0  0  0  0  0  0  0  0
   57.8200   30.1870   51.2720 C   0  0  0  0  0  0  0  0  0  0  0  0
   57.6148   29.6056   52.1830 H   0  0  0  0  0  0  0  0  0  0  0  0
   56.8985   30.2748   50.6777 H   0  0  0  0  0  0  0  0  0  0  0  0
   58.5924   29.6769   50.6777 H   0  0  0  0  0  0  0  0  0  0  0  0
  1  2  1  0
  2  3  1  0
  3  4  2  0
  4  5  1  0
  5  6  2  0
  5  7  1  0
  7  8  2  0
  8  9  1  0
  9 10  2  0
 10 11  1  0
 10 12  1  0
 12 13  1  0
 13 14  2  0
 14 15  1  0
 14 16  1  0
 16 17  1  0
 16 18  2  0
 18 19  1  0
 18 20  1  0
 20 21  1  0
 20 22  2  0
  4 23  1  0
 23 24  1  0
 23 25  2  0
 25 26  1  0
 25 27  1  0
 27 28  1  0
 28 29  1  0
 28 30  1  0
 28 31  1  0
 27 32  2  0
 32 33  1  0
 33 34  2  0
 33 35  1  0
 35 36  2  0
 36 37  1  0
 36 38  1  0
 38 39  1  0
 38 40  2  0
 40 41  1  0
 40 42  1  0
 42 43  1  0
 42 44  2  0
 44 45  1  0
 45 46  1  0
 45 47  1  0
 45 48  1  0
 32  3  1  0
 44 35  1  0
 22  9  1  0
 22 13  1  0
M  CHG  2  11  -1  12  -1
M  END
>  <UniqueID>  (88) 
80

>  <SMILES>  (88) 
Cc1ccccc1C(=O)c1c(C)ccc(C(=O)/N=N\c2c([O-])[n-]c3ccc(Br)cc23)c1O

>  <Energy>  (88) 
115.27174416420715

>  <Genealogy>  (88) 
Cc1ccccc1C(=O)c1c(C)ccc(C(=O)N=Nc2c([O-])[n-]c3ccc(Br)cc23)c1O (protonated)
Cc1ccccc1C(=O)c1c(C)ccc(C(=O)/N=N\c2c([O-])[n-]c3ccc(Br)cc23)c1O (cis-trans isomerization)
Cc1ccccc1C(=O)c1c(C)ccc(C(=O)/N=N\c2c([O-])[n-]c3ccc(Br)cc23)c1O (3D coordinates assigned)
Cc1ccccc1C(=O)c1c(C)ccc(C(=O)/N=N\c2c([O-])[n-]c3ccc(Br)cc23)c1O (optimized conformer: 115.27174416420715 kcal/mol)

>  <smiles>  (88) 
Cc1ccccc1C(=O)c1c(C)ccc(C(=O)N=Nc2c(O)[nH]c3ccc(Br)cc23)c1O

>  <score_type>  (88) 
oracle

>  <origin>  (88) 
adg

>  <m_score__min__energy>  (88) 
-14.57

>  <m_primary>  (88) 
energy

$$$$
88:0
     RDKit          3D

 53 55  0  0  0  0  0  0  0  0999 V2000
   63.3340   33.4270   47.1080 C   0  0  0  0  0  0  0  0  0  0  0  0
   62.9280   31.9620   47.2400 C   0  0  0  0  0  0  0  0  0  0  0  0
   61.4930   31.8310   47.7580 C   0  0  0  0  0  0  0  0  0  0  0  0
   60.5810   31.6610   46.6740 O   0  0  0  0  0  0  0  0  0  0  0  0
   59.7020   32.6380   46.1710 C   0  0  0  0  0  0  0  0  0  0  0  0
   59.9680   34.0180   46.3060 C   0  0  0  0  0  0  0  0  0  0  0  0
   59.0580   34.9650   45.8350 C   0  0  0  0  0  0  0  0  0  0  0  0
   57.8750   34.5550   45.2240 C   0  0  0  0  0  0  0  0  0  0  0  0
   57.6000   33.1960   45.0720 C   0  0  0  0  0  0  0  0  0  0  0  0
   58.5130   32.2260   45.5250 C   0  0  0  0  0  0  0  0  0  0  0  0
   58.1930   30.7910   45.3390 C   0  0  0  0  0  0  0  0  0  0  0  0
   57.0180   30.4540   45.0280 O   0  0  0  0  0  0  0  0  0  0  0  0
   59.2190   29.7910   45.4420 N   0  0  0  0  0  0  0  0  0  0  0  0
   58.9630   28.4040   45.7260 C   0  0  0  0  0  0  0  0  0  0  0  0
   58.2100   27.6030   44.8490 C   0  0  0  0  0  0  0  0  0  0  0  0
   57.9490   26.2650   45.1610 C   0  0  0  0  0  0  0  0  0  0  0  0
   58.4340   25.7080   46.3570 C   0  0  0  0  0  0  0  0  0  0  0  0
   58.1580   24.3510   46.7330 N   0  0  0  0  0  0  0  0  0  0  0  0
   56.9680   23.8630   47.3670 C   0  0  0  0  0  0  0  0  0  0  0  0
   57.0300   22.9550   48.2360 O   0  0  0  0  0  0  0  0  0  0  0  0
   55.6980   24.4390   47.0510 N   0  0  0  0  0  0  0  0  0  0  0  0
   54.7700   23.8610   46.0840 C   0  0  0  0  0  0  0  0  0  0  0  0
   55.5210   23.0950   45.0280 C   0  0  0  0  0  0  0  0  0  0  0  0
   55.8500   21.7460   45.2390 C   0  0  0  0  0  0  0  0  0  0  0  0
   56.5680   21.0370   44.2720 C   0  0  0  0  0  0  0  0  0  0  0  0
   56.9630   21.6690   43.0890 C   0  0  0  0  0  0  0  0  0  0  0  0
   56.6400   23.0110   42.8720 C   0  0  0  0  0  0  0  0  0  0  0  0
   55.9220   23.7240   43.8370 C   0  0  0  0  0  0  0  0  0  0  0  0
   59.1450   26.5190   47.2490 C   0  0  0  0  0  0  0  0  0  0  0  0
   59.4070   27.8560   46.9370 C   0  0  0  0  0  0  0  0  0  0  0  0
   63.4555   33.8655   48.1095 H   0  0  0  0  0  0  0  0  0  0  0  0
   64.2851   33.4959   46.5597 H   0  0  0  0  0  0  0  0  0  0  0  0
   62.5541   33.9757   46.5597 H   0  0  0  0  0  0  0  0  0  0  0  0
   62.9993   31.4794   46.2541 H   0  0  0  0  0  0  0  0  0  0  0  0
   63.6041   31.4760   47.9588 H   0  0  0  0  0  0  0  0  0  0  0  0
   61.4278   30.9590   48.4253 H   0  0  0  0  0  0  0  0  0  0  0  0
   61.2280   32.7486   48.3036 H   0  0  0  0  0  0  0  0  0  0  0  0
   60.9004   34.3493   46.7865 H   0  0  0  0  0  0  0  0  0  0  0  0
   59.2751   36.0376   45.9463 H   0  0  0  0  0  0  0  0  0  0  0  0
   57.1564   35.3045   44.8607 H   0  0  0  0  0  0  0  0  0  0  0  0
   56.6612   32.8799   44.5938 H   0  0  0  0  0  0  0  0  0  0  0  0
   60.2000   30.0750   45.2180 H   0  0  0  0  0  0  0  0  0  0  0  0
   57.8241   28.0314   43.9122 H   0  0  0  0  0  0  0  0  0  0  0  0
   57.3615   25.6456   44.4673 H   0  0  0  0  0  0  0  0  0  0  0  0
   54.0815   23.1795   46.6052 H   0  0  0  0  0  0  0  0  0  0  0  0
   54.2058   24.6730   45.6019 H   0  0  0  0  0  0  0  0  0  0  0  0
   55.5414   21.2456   46.1687 H   0  0  0  0  0  0  0  0  0  0  0  0
   56.8227   19.9804   44.4418 H   0  0  0  0  0  0  0  0  0  0  0  0
   57.5282   21.1096   42.3290 H   0  0  0  0  0  0  0  0  0  0  0  0
   56.9510   23.5072   41.9408 H   0  0  0  0  0  0  0  0  0  0  0  0
   55.6702   24.7806   43.6634 H   0  0  0  0  0  0  0  0  0  0  0  0
   59.5002   26.1011   48.2025 H   0  0  0  0  0  0  0  0  0  0  0  0
   59.9659   28.4829   47.6474 H   0  0  0  0  0  0  0  0  0  0  0  0
  1  2  1  0
  2  3  1  0
  3  4  1  0
  4  5  1  0
  5  6  2  0
  6  7  1  0
  7  8  2  0
  8  9  1  0
  9 10  2  0
 10 11  1  0
 11 12  2  0
 11 13  1  0
 13 14  1  0
 14 15  2  0
 15 16  1  0
 16 17  2  0
 17 18  1  0
 18 19  1  0
 19 20  2  0
 19 21  1  0
 21 22  1  0
 22 23  1  0
 23 24  2  0
 24 25  1  0
 25 26  2  0
 26 27  1  0
 27 28  2  0
 17 29  1  0
 29 30  2  0
 10  5  1  0
 30 14  1  0
 28 23  1  0
  1 31  1  0
  1 32  1  0
  1 33  1  0
  2 34  1  0
  2 35  1  0
  3 36  1  0
  3 37  1  0
  6 38  1  0
  7 39  1  0
  8 40  1  0
  9 41  1  0
 13 42  1  0
 15 43  1  0
 16 44  1  0
 22 45  1  0
 22 46  1  0
 24 47  1  0
 25 48  1  0
 26 49  1  0
 27 50  1  0
 28 51  1  0
 29 52  1  0
 30 53  1  0
M  CHG  2  18  -1  21  -1
M  END
>  <UniqueID>  (89) 
81

>  <SMILES>  (89) 
CCCOc1ccccc1C(=O)Nc1ccc([N-]C(=O)[N-]Cc2ccccc2)cc1

>  <Energy>  (89) 
58.31429195016079

>  <Genealogy>  (89) 
CCCOc1ccccc1C(=O)Nc1ccc([N-]C(=O)[N-]Cc2ccccc2)cc1 (protonated)
CCCOc1ccccc1C(=O)Nc1ccc([N-]C(=O)[N-]Cc2ccccc2)cc1 (3D coordinates assigned)
CCCOc1ccccc1C(=O)Nc1ccc([N-]C(=O)[N-]Cc2ccccc2)cc1 (optimized conformer: 58.31429195016079 kcal/mol)

>  <smiles>  (89) 
CCCOc1ccccc1C(=O)Nc1ccc(NC(=O)NCc2ccccc2)cc1

>  <score_type>  (89) 
oracle

>  <origin>  (89) 
adg

>  <m_score__min__energy>  (89) 
-12.02

>  <m_primary>  (89) 
energy

$$$$
89:0
     RDKit          3D

 49 51  0  0  0  0  0  0  0  0999 V2000
   57.0250   33.5260   45.9940 C   0  0  0  0  0  0  0  0  0  0  0  0
   57.3630   32.1950   45.4080 C   0  0  0  0  0  0  0  0  0  0  0  0
   56.6190   31.5700   44.4750 N   0  0  0  0  0  0  0  0  0  0  0  0
   57.2190   30.4250   44.1810 N   0  0  0  0  0  0  0  0  0  0  0  0
   56.6760   29.4570   43.2360 C   0  0  0  0  0  0  0  0  0  0  0  0
   58.3390   30.2860   44.9270 C   0  0  0  0  0  0  0  0  0  0  0  0
   59.2330   29.0820   44.9200 C   0  0  0  0  0  0  0  0  0  0  0  0
   58.4710   31.4260   45.7020 C   0  0  0  0  0  0  0  0  0  0  0  0
   59.4870   31.7380   46.6610 N   0  0  0  0  0  0  0  0  0  0  0  0
   60.1000   33.3480   46.8680 S   0  0  0  0  0  0  0  0  0  0  0  0
   60.2530   33.9730   45.5100 O   0  0  0  0  0  0  0  0  0  0  0  0
   59.1440   34.1580   47.6950 O   0  0  0  0  0  0  0  0  0  0  0  0
   61.6570   33.2860   47.7120 C   0  0  0  0  0  0  0  0  0  0  0  0
   62.8320   33.4510   46.9620 C   0  0  0  0  0  0  0  0  0  0  0  0
   64.0810   33.4450   47.5860 C   0  0  0  0  0  0  0  0  0  0  0  0
   64.1740   33.2670   48.9650 C   0  0  0  0  0  0  0  0  0  0  0  0
   63.0180   33.0800   49.7250 C   0  0  0  0  0  0  0  0  0  0  0  0
   61.7550   33.0730   49.1110 C   0  0  0  0  0  0  0  0  0  0  0  0
   60.5700   32.8200   49.9540 C   0  0  0  0  0  0  0  0  0  0  0  0
   60.1250   33.8190   50.8350 C   0  0  0  0  0  0  0  0  0  0  0  0
   59.0030   33.6050   51.6360 C   0  0  0  0  0  0  0  0  0  0  0  0
   58.3200   32.3890   51.5700 C   0  0  0  0  0  0  0  0  0  0  0  0
   58.7620   31.3820   50.7080 C   0  0  0  0  0  0  0  0  0  0  0  0
   59.8970   31.5830   49.8970 C   0  0  0  0  0  0  0  0  0  0  0  0
   60.3850   30.5870   49.0340 O   0  0  0  0  0  0  0  0  0  0  0  0
   59.8590   29.2680   48.9190 C   0  0  0  0  0  0  0  0  0  0  0  0
   58.6270   29.2830   48.1380 N   0  0  0  0  0  0  0  0  0  0  0  0
   57.0422   33.4583   47.0918 H   0  0  0  0  0  0  0  0  0  0  0  0
   57.7624   34.2712   45.6610 H   0  0  0  0  0  0  0  0  0  0  0  0
   56.0214   33.8291   45.6610 H   0  0  0  0  0  0  0  0  0  0  0  0
   56.2105   28.6271   43.7879 H   0  0  0  0  0  0  0  0  0  0  0  0
   55.9206   29.9461   42.6035 H   0  0  0  0  0  0  0  0  0  0  0  0
   57.4872   29.0673   42.6035 H   0  0  0  0  0  0  0  0  0  0  0  0
   59.4545   28.7837   45.9554 H   0  0  0  0  0  0  0  0  0  0  0  0
   58.7291   28.2541   44.3997 H   0  0  0  0  0  0  0  0  0  0  0  0
   60.1712   29.3250   44.3997 H   0  0  0  0  0  0  0  0  0  0  0  0
   59.6830   31.0480   47.4200 H   0  0  0  0  0  0  0  0  0  0  0  0
   62.7682   33.5863   45.8722 H   0  0  0  0  0  0  0  0  0  0  0  0
   64.9939   33.5811   46.9876 H   0  0  0  0  0  0  0  0  0  0  0  0
   65.1588   33.2738   49.4550 H   0  0  0  0  0  0  0  0  0  0  0  0
   63.0970   32.9371   50.8128 H   0  0  0  0  0  0  0  0  0  0  0  0
   60.6643   34.7759   50.8938 H   0  0  0  0  0  0  0  0  0  0  0  0
   58.6565   34.3942   52.3195 H   0  0  0  0  0  0  0  0  0  0  0  0
   57.4321   32.2234   52.1979 H   0  0  0  0  0  0  0  0  0  0  0  0
   58.2203   30.4257   50.6621 H   0  0  0  0  0  0  0  0  0  0  0  0
   60.5981   28.6244   48.4194 H   0  0  0  0  0  0  0  0  0  0  0  0
   59.6415   28.8795   49.9249 H   0  0  0  0  0  0  0  0  0  0  0  0
   58.8450   28.9030   47.1880 H   0  0  0  0  0  0  0  0  0  0  0  0
   58.3460   30.2820   48.0060 H   0  0  0  0  0  0  0  0  0  0  0  0
  1  2  1  0
  2  3  2  0
  3  4  1  0
  4  5  1  0
  4  6  1  0
  6  7  1  0
  6  8  2  0
  8  9  1  0
  9 10  1  0
 10 11  2  0
 10 12  2  0
 10 13  1  0
 13 14  2  0
 14 15  1  0
 15 16  2  0
 16 17  1  0
 17 18  2  0
 18 19  1  0
 19 20  2  0
 20 21  1  0
 21 22  2  0
 22 23  1  0
 23 24  2  0
 24 25  1  0
 25 26  1  0
 26 27  1  0
  8  2  1  0
 18 13  1  0
 24 19  1  0
  1 28  1  0
  1 29  1  0
  1 30  1  0
  5 31  1  0
  5 32  1  0
  5 33  1  0
  7 34  1  0
  7 35  1  0
  7 36  1  0
  9 37  1  0
 14 38  1  0
 15 39  1  0
 16 40  1  0
 17 41  1  0
 20 42  1  0
 21 43  1  0
 22 44  1  0
 23 45  1  0
 26 46  1  0
 26 47  1  0
 27 48  1  0
 27 49  1  0
M  END
>  <UniqueID>  (90) 
82

>  <SMILES>  (90) 
Cc1nn(C)c(C)c1NS(=O)(=O)c1ccccc1-c1ccccc1OCN

>  <Energy>  (90) 
92.44736975045103

>  <Genealogy>  (90) 
Cc1nn(C)c(C)c1NS(=O)(=O)c1ccccc1-c1ccccc1OCN (3D coordinates assigned)
Cc1nn(C)c(C)c1NS(=O)(=O)c1ccccc1-c1ccccc1OCN (optimized conformer: 92.44736975045103 kcal/mol)

>  <smiles>  (90) 
Cc1nn(C)c(C)c1NS(=O)(=O)c1ccccc1-c1ccccc1OCN

>  <score_type>  (90) 
oracle

>  <origin>  (90) 
adg

>  <m_score__min__energy>  (90) 
-8.6500000000000004

>  <m_primary>  (90) 
energy

$$$$
90:0
     RDKit          3D

 29 30  0  0  0  0  0  0  0  0999 V2000
   54.7680   26.3150   45.9980 N   0  0  0  0  0  0  0  0  0  0  0  0
   56.3180   25.5670   46.1570 S   0  0  0  0  0  0  0  0  0  0  0  0
   56.4420   24.9460   47.5200 O   0  0  0  0  0  0  0  0  0  0  0  0
   56.4520   24.4860   45.1220 O   0  0  0  0  0  0  0  0  0  0  0  0
   57.5810   26.7780   45.9380 C   0  0  0  0  0  0  0  0  0  0  0  0
   57.2510   28.1430   45.9010 C   0  0  0  0  0  0  0  0  0  0  0  0
   58.2550   29.1140   45.7310 C   0  0  0  0  0  0  0  0  0  0  0  0
   57.9570   30.5170   45.7110 N   0  0  0  0  0  0  0  0  0  0  0  0
   57.0830   31.1860   44.7930 C   0  0  0  0  0  0  0  0  0  0  0  0
   55.9420   30.7200   44.5300 O   0  0  0  0  0  0  0  0  0  0  0  0
   57.5360   32.4510   44.1390 C   0  0  0  0  0  0  0  0  0  0  0  0
   58.1240   33.3680   45.1630 C   0  0  0  0  0  0  0  0  0  0  0  0
   57.8570   33.3430   46.5250 C   0  0  0  0  0  0  0  0  0  0  0  0
   58.6170   34.2680   47.2510 C   0  0  0  0  0  0  0  0  0  0  0  0
   59.4900   35.0100   46.4670 C   0  0  0  0  0  0  0  0  0  0  0  0
   59.3190   34.5120   44.8690 S   0  0  0  0  0  0  0  0  0  0  0  0
   59.5920   28.7100   45.6420 C   0  0  0  0  0  0  0  0  0  0  0  0
   59.9250   27.3530   45.6840 C   0  0  0  0  0  0  0  0  0  0  0  0
   58.9250   26.3880   45.8280 C   0  0  0  0  0  0  0  0  0  0  0  0
   59.2710   25.0770   45.8770 F   0  0  0  0  0  0  0  0  0  0  0  0
   54.7290   27.0900   46.6960 H   0  0  0  0  0  0  0  0  0  0  0  0
   56.2013   28.4546   46.0056 H   0  0  0  0  0  0  0  0  0  0  0  0
   58.2959   32.2173   43.3788 H   0  0  0  0  0  0  0  0  0  0  0  0
   56.6746   32.9425   43.6631 H   0  0  0  0  0  0  0  0  0  0  0  0
   57.1234   32.6657   46.9867 H   0  0  0  0  0  0  0  0  0  0  0  0
   58.5305   34.3949   48.3402 H   0  0  0  0  0  0  0  0  0  0  0  0
   60.1761   35.7900   46.8287 H   0  0  0  0  0  0  0  0  0  0  0  0
   60.3855   29.4647   45.5384 H   0  0  0  0  0  0  0  0  0  0  0  0
   60.9776   27.0440   45.6034 H   0  0  0  0  0  0  0  0  0  0  0  0
  1  2  1  0
  2  3  2  0
  2  4  2  0
  2  5  1  0
  5  6  2  0
  6  7  1  0
  7  8  1  0
  8  9  1  0
  9 10  2  0
  9 11  1  0
 11 12  1  0
 12 13  2  0
 13 14  1  0
 14 15  2  0
 15 16  1  0
  7 17  2  0
 17 18  1  0
 18 19  2  0
 19 20  1  0
 19  5  1  0
 16 12  1  0
  1 21  1  0
  6 22  1  0
 11 23  1  0
 11 24  1  0
 13 25  1  0
 14 26  1  0
 15 27  1  0
 17 28  1  0
 18 29  1  0
M  CHG  2   1  -1   8  -1
M  END
>  <UniqueID>  (91) 
83

>  <SMILES>  (91) 
[NH-]S(=O)(=O)c1cc([N-]C(=O)Cc2cccs2)ccc1F

>  <Energy>  (91) 
56.16771921315313

>  <Genealogy>  (91) 
[NH-]S(=O)(=O)c1cc([N-]C(=O)Cc2cccs2)ccc1F (protonated)
[NH-]S(=O)(=O)c1cc([N-]C(=O)Cc2cccs2)ccc1F (3D coordinates assigned)
[NH-]S(=O)(=O)c1cc([N-]C(=O)Cc2cccs2)ccc1F (optimized conformer: 56.16771921315313 kcal/mol)

>  <smiles>  (91) 
NS(=O)(=O)c1cc(NC(=O)Cc2cccs2)ccc1F

>  <score_type>  (91) 
oracle

>  <origin>  (91) 
adg

>  <m_score__min__energy>  (91) 
-12.1

>  <m_primary>  (91) 
energy

$$$$
91:0
     RDKit          3D

 51 54  0  0  0  0  0  0  0  0999 V2000
   60.5500   29.2690   45.1000 H   0  0  0  0  0  0  0  0  0  0  0  0
   59.9180   28.8800   44.4110 O   0  0  0  0  0  0  0  0  0  0  0  0
   58.6240   28.4980   44.7560 C   0  0  0  0  0  0  0  0  0  0  0  0
   58.2770   27.3640   45.4710 C   0  0  0  0  0  0  0  0  0  0  0  0
   56.9120   27.3910   45.6090 C   0  0  0  0  0  0  0  0  0  0  0  0
   56.4750   28.5370   44.9740 C   0  0  0  0  0  0  0  0  0  0  0  0
   55.1520   28.9590   44.8990 O   0  0  0  0  0  0  0  0  0  0  0  0
   57.5190   29.2060   44.4390 N   0  0  0  0  0  0  0  0  0  0  0  0
   57.4730   30.4950   43.7510 C   0  0  0  0  0  0  0  0  0  0  0  0
   56.4417   30.6975   43.4262 H   0  0  0  0  0  0  0  0  0  0  0  0
   58.1406   30.4610   42.8774 H   0  0  0  0  0  0  0  0  0  0  0  0
   57.9360   31.6110   44.6930 C   0  0  0  0  0  0  0  0  0  0  0  0
   58.8937   31.3206   45.1495 H   0  0  0  0  0  0  0  0  0  0  0  0
   57.1660   31.7564   45.4650 H   0  0  0  0  0  0  0  0  0  0  0  0
   58.1190   32.9100   43.9520 C   0  0  0  0  0  0  0  0  0  0  0  0
   57.8430   32.9650   42.7240 O   0  0  0  0  0  0  0  0  0  0  0  0
   58.5600   34.1030   44.6140 N   0  0  0  0  0  0  0  0  0  0  0  0
   59.2410   34.1760   45.8750 C   0  0  0  0  0  0  0  0  0  0  0  0
   58.5770   34.5780   47.0480 C   0  0  0  0  0  0  0  0  0  0  0  0
   57.5191   34.8764   47.0052 H   0  0  0  0  0  0  0  0  0  0  0  0
   59.2590   34.5990   48.2680 C   0  0  0  0  0  0  0  0  0  0  0  0
   58.7413   34.9287   49.1808 H   0  0  0  0  0  0  0  0  0  0  0  0
   60.5970   34.2020   48.3300 C   0  0  0  0  0  0  0  0  0  0  0  0
   61.1327   34.2273   49.2904 H   0  0  0  0  0  0  0  0  0  0  0  0
   61.2580   33.7720   47.1730 C   0  0  0  0  0  0  0  0  0  0  0  0
   62.9340   33.2390   47.2710 S   0  0  0  0  0  0  0  0  0  0  0  0
   63.7060   33.6760   46.0580 O   0  0  0  0  0  0  0  0  0  0  0  0
   63.5650   33.8400   48.4950 O   0  0  0  0  0  0  0  0  0  0  0  0
   62.9950   31.5090   47.3890 N   0  0  0  0  0  0  0  0  0  0  0  0
   61.9490   30.7420   47.4610 C   0  0  0  0  0  0  0  0  0  0  0  0
   61.4470   30.0920   46.3960 N   0  0  0  0  0  0  0  0  0  0  0  0
   60.4120   29.4290   46.8240 O   0  0  0  0  0  0  0  0  0  0  0  0
   60.2270   29.6180   48.1120 C   0  0  0  0  0  0  0  0  0  0  0  0
   59.1100   29.0250   48.9030 C   0  0  0  0  0  0  0  0  0  0  0  0
   59.3212   29.1371   49.9767 H   0  0  0  0  0  0  0  0  0  0  0  0
   58.1714   29.5436   48.6578 H   0  0  0  0  0  0  0  0  0  0  0  0
   59.0137   27.9570   48.6578 H   0  0  0  0  0  0  0  0  0  0  0  0
   61.1970   30.4730   48.5900 C   0  0  0  0  0  0  0  0  0  0  0  0
   61.3378   30.8480   49.6145 H   0  0  0  0  0  0  0  0  0  0  0  0
   60.5740   33.7550   45.9480 C   0  0  0  0  0  0  0  0  0  0  0  0
   61.0884   33.4087   45.0395 H   0  0  0  0  0  0  0  0  0  0  0  0
   56.1220   26.3600   46.3460 C   0  0  0  0  0  0  0  0  0  0  0  0
   55.3870   25.9158   45.6586 H   0  0  0  0  0  0  0  0  0  0  0  0
   55.6227   26.8524   47.1934 H   0  0  0  0  0  0  0  0  0  0  0  0
   57.0080   25.2600   46.8950 C   0  0  0  0  0  0  0  0  0  0  0  0
   56.5271   24.4323   47.4369 H   0  0  0  0  0  0  0  0  0  0  0  0
   58.3530   25.2330   46.7600 C   0  0  0  0  0  0  0  0  0  0  0  0
   58.8982   24.3837   47.1976 H   0  0  0  0  0  0  0  0  0  0  0  0
   59.1560   26.2990   46.0440 C   0  0  0  0  0  0  0  0  0  0  0  0
   59.7242   25.8289   45.2279 H   0  0  0  0  0  0  0  0  0  0  0  0
   59.8303   26.7685   46.7753 H   0  0  0  0  0  0  0  0  0  0  0  0
  1  2  1  0
  2  3  1  0
  3  4  2  0
  4  5  1  0
  5  6  2  0
  6  7  1  0
  6  8  1  0
  8  9  1  0
  9 10  1  0
  9 11  1  0
  9 12  1  0
 12 13  1  0
 12 14  1  0
 12 15  1  0
 15 16  2  0
 15 17  1  0
 17 18  1  0
 18 19  2  0
 19 20  1  0
 19 21  1  0
 21 22  1  0
 21 23  2  0
 23 24  1  0
 23 25  1  0
 25 26  1  0
 26 27  2  0
 26 28  2  0
 26 29  1  0
 29 30  2  0
 30 31  1  0
 31 32  1  0
 32 33  1  0
 33 34  1  0
 34 35  1  0
 34 36  1  0
 34 37  1  0
 33 38  2  0
 38 39  1  0
 25 40  2  0
 40 41  1  0
  5 42  1  0
 42 43  1  0
 42 44  1  0
 42 45  1  0
 45 46  1  0
 45 47  2  0
 47 48  1  0
 47 49  1  0
 49 50  1  0
 49 51  1  0
  8  3  1  0
 40 18  1  0
 49  4  1  0
 38 30  1  0
M  CHG  3   7  -1  17  -1  31  -1
M  END
>  <UniqueID>  (92) 
84

>  <SMILES>  (92) 
Cc1c/c(=N\S(=O)(=O)c2cccc([N-]C(=O)CCn3c([O-])c4c(c3O)CC=CC4)c2)[n-]o1

>  <Energy>  (92) 
120.67360763274786

>  <Genealogy>  (92) 
Cc1cc(=NS(=O)(=O)c2cccc([N-]C(=O)CCn3c([O-])c4c(c3O)CC=CC4)c2)[n-]o1 (protonated)
Cc1c/c(=N\S(=O)(=O)c2cccc([N-]C(=O)CCn3c([O-])c4c(c3O)CC=CC4)c2)[n-]o1 (cis-trans isomerization)
Cc1c/c(=N\S(=O)(=O)c2cccc([N-]C(=O)CCn3c([O-])c4c(c3O)CC=CC4)c2)[n-]o1 (3D coordinates assigned)
Cc1c/c(=N\S(=O)(=O)c2cccc([N-]C(=O)CCn3c([O-])c4c(c3O)CC=CC4)c2)[n-]o1 (nonaromatic ring conformer: 120.67360763274786 kcal/mol)

>  <smiles>  (92) 
Cc1cc(=NS(=O)(=O)c2cccc(NC(=O)CCn3c(O)c4c(c3O)CC=CC4)c2)[nH]o1

>  <score_type>  (92) 
oracle

>  <origin>  (92) 
adg

>  <m_score__min__energy>  (92) 
-15.06

>  <m_primary>  (92) 
energy

$$$$
92:0
     RDKit          3D

 47 49  0  0  0  0  0  0  0  0999 V2000
   59.2550   22.3210   44.8640 C   0  0  0  0  0  0  0  0  0  0  0  0
   58.0420   22.7820   45.6650 C   0  0  0  0  0  0  0  0  0  0  0  0
   58.3780   23.8980   46.4920 O   0  0  0  0  0  0  0  0  0  0  0  0
   58.2460   25.2460   46.1240 C   0  0  0  0  0  0  0  0  0  0  0  0
   58.0320   25.6590   44.7940 C   0  0  0  0  0  0  0  0  0  0  0  0
   57.8290   27.0110   44.5000 C   0  0  0  0  0  0  0  0  0  0  0  0
   57.8410   27.9700   45.5280 C   0  0  0  0  0  0  0  0  0  0  0  0
   57.4950   29.3310   45.2380 N   0  0  0  0  0  0  0  0  0  0  0  0
   56.2720   29.7670   44.8870 C   0  0  0  0  0  0  0  0  0  0  0  0
   55.1420   28.9650   44.8720 O   0  0  0  0  0  0  0  0  0  0  0  0
   56.3170   31.0790   44.4640 C   0  0  0  0  0  0  0  0  0  0  0  0
   57.6450   31.4530   44.5460 C   0  0  0  0  0  0  0  0  0  0  0  0
   58.3470   32.9790   43.9140 S   0  0  0  0  0  0  0  0  0  0  0  0
   57.8270   33.9950   45.3500 C   0  0  0  0  0  0  0  0  0  0  0  0
   58.8870   34.0090   46.4110 C   0  0  0  0  0  0  0  0  0  0  0  0
   59.0470   35.0420   47.1140 O   0  0  0  0  0  0  0  0  0  0  0  0
   59.6060   32.8030   46.6980 N   0  0  0  0  0  0  0  0  0  0  0  0
   60.9990   32.7430   47.0260 C   0  0  0  0  0  0  0  0  0  0  0  0
   61.7940   33.8270   46.6280 C   0  0  0  0  0  0  0  0  0  0  0  0
   63.1800   33.7950   46.7980 C   0  0  0  0  0  0  0  0  0  0  0  0
   63.7890   32.6760   47.3630 C   0  0  0  0  0  0  0  0  0  0  0  0
   63.0110   31.6040   47.8060 C   0  0  0  0  0  0  0  0  0  0  0  0
   61.6060   31.6320   47.6780 C   0  0  0  0  0  0  0  0  0  0  0  0
   60.8200   30.5400   48.3080 C   0  0  0  0  0  0  0  0  0  0  0  0
   60.5020   29.5140   47.6520 O   0  0  0  0  0  0  0  0  0  0  0  0
   60.3800   30.6640   49.6240 O   0  0  0  0  0  0  0  0  0  0  0  0
   58.3380   30.3590   45.0190 C   0  0  0  0  0  0  0  0  0  0  0  0
   59.7210   30.3040   45.2000 O   0  0  0  0  0  0  0  0  0  0  0  0
   58.0910   27.5650   46.8420 C   0  0  0  0  0  0  0  0  0  0  0  0
   58.3040   26.2140   47.1370 C   0  0  0  0  0  0  0  0  0  0  0  0
   60.0559   22.0166   45.5539 H   0  0  0  0  0  0  0  0  0  0  0  0
   58.9730   21.4674   44.2301 H   0  0  0  0  0  0  0  0  0  0  0  0
   59.6111   23.1465   44.2301 H   0  0  0  0  0  0  0  0  0  0  0  0
   57.2408   23.0752   44.9706 H   0  0  0  0  0  0  0  0  0  0  0  0
   57.7063   21.9542   46.3069 H   0  0  0  0  0  0  0  0  0  0  0  0
   58.0246   24.9150   43.9838 H   0  0  0  0  0  0  0  0  0  0  0  0
   57.6592   27.3256   43.4597 H   0  0  0  0  0  0  0  0  0  0  0  0
   55.4716   31.6989   44.1307 H   0  0  0  0  0  0  0  0  0  0  0  0
   57.6417   35.0256   45.0131 H   0  0  0  0  0  0  0  0  0  0  0  0
   56.9115   33.5579   45.7752 H   0  0  0  0  0  0  0  0  0  0  0  0
   61.3213   34.7120   46.1771 H   0  0  0  0  0  0  0  0  0  0  0  0
   63.7917   34.6542   46.4855 H   0  0  0  0  0  0  0  0  0  0  0  0
   64.8840   32.6370   47.4602 H   0  0  0  0  0  0  0  0  0  0  0  0
   63.4987   30.7285   48.2595 H   0  0  0  0  0  0  0  0  0  0  0  0
   60.1740   30.8210   45.9460 H   0  0  0  0  0  0  0  0  0  0  0  0
   58.1205   28.3123   47.6486 H   0  0  0  0  0  0  0  0  0  0  0  0
   58.5187   25.9087   48.1718 H   0  0  0  0  0  0  0  0  0  0  0  0
  1  2  1  0
  2  3  1  0
  3  4  1  0
  4  5  2  0
  5  6  1  0
  6  7  2  0
  7  8  1  0
  8  9  1  0
  9 10  1  0
  9 11  2  0
 11 12  1  0
 12 13  1  0
 13 14  1  0
 14 15  1  0
 15 16  2  0
 15 17  1  0
 17 18  1  0
 18 19  2  0
 19 20  1  0
 20 21  2  0
 21 22  1  0
 22 23  2  0
 23 24  1  0
 24 25  2  0
 24 26  1  0
 12 27  2  0
 27 28  1  0
  7 29  1  0
 29 30  2  0
 30  4  1  0
 27  8  1  0
 23 18  1  0
  1 31  1  0
  1 32  1  0
  1 33  1  0
  2 34  1  0
  2 35  1  0
  5 36  1  0
  6 37  1  0
 11 38  1  0
 14 39  1  0
 14 40  1  0
 19 41  1  0
 20 42  1  0
 21 43  1  0
 22 44  1  0
 28 45  1  0
 29 46  1  0
 30 47  1  0
M  CHG  3  10  -1  17  -1  26  -1
M  END
>  <UniqueID>  (93) 
85

>  <SMILES>  (93) 
CCOc1ccc(-n2c([O-])cc(SCC(=O)[N-]c3ccccc3C(=O)[O-])c2O)cc1

>  <Energy>  (93) 
92.31983199189729

>  <Genealogy>  (93) 
CCOc1ccc(-n2c([O-])cc(SCC(=O)[N-]c3ccccc3C(=O)[O-])c2O)cc1 (protonated)
CCOc1ccc(-n2c([O-])cc(SCC(=O)[N-]c3ccccc3C(=O)[O-])c2O)cc1 (3D coordinates assigned)
CCOc1ccc(-n2c([O-])cc(SCC(=O)[N-]c3ccccc3C(=O)[O-])c2O)cc1 (optimized conformer: 92.31983199189729 kcal/mol)

>  <smiles>  (93) 
CCOc1ccc(-n2c(O)cc(SCC(=O)Nc3ccccc3C(=O)O)c2O)cc1

>  <score_type>  (93) 
oracle

>  <origin>  (93) 
adg

>  <m_score__min__energy>  (93) 
-13.529999999999999

>  <m_primary>  (93) 
energy

$$$$
93:0
     RDKit          3D

 46 48  0  0  0  0  0  0  0  0999 V2000
   64.5950   32.9740   49.2810 C   0  0  0  0  0  0  0  0  0  0  0  0
   63.7560   33.8550   48.4530 N   0  0  0  0  0  0  0  0  0  0  0  0
   63.5520   33.2650   47.1100 C   0  0  0  0  0  0  0  0  0  0  0  0
   62.2750   33.8050   46.4560 C   0  0  0  0  0  0  0  0  0  0  0  0
   61.0810   33.4080   47.2280 N   0  0  0  0  0  0  0  0  0  0  0  0
   59.7430   34.4630   46.8380 S   0  0  0  0  0  0  0  0  0  0  0  0
   59.1210   34.9840   48.1040 O   0  0  0  0  0  0  0  0  0  0  0  0
   60.2280   35.6180   46.0070 O   0  0  0  0  0  0  0  0  0  0  0  0
   58.5400   33.5730   45.9200 C   0  0  0  0  0  0  0  0  0  0  0  0
   58.7910   32.7050   44.8810 C   0  0  0  0  0  0  0  0  0  0  0  0
   57.6050   32.2290   44.4550 N   0  0  0  0  0  0  0  0  0  0  0  0
   57.3890   31.2320   43.4110 C   0  0  0  0  0  0  0  0  0  0  0  0
   56.3570   30.2290   43.8510 C   0  0  0  0  0  0  0  0  0  0  0  0
   55.4710   29.8600   43.0360 O   0  0  0  0  0  0  0  0  0  0  0  0
   56.3240   29.7120   45.1880 N   0  0  0  0  0  0  0  0  0  0  0  0
   57.4070   29.0780   45.8850 C   0  0  0  0  0  0  0  0  0  0  0  0
   57.4710   27.6780   45.9050 C   0  0  0  0  0  0  0  0  0  0  0  0
   58.5290   27.0310   46.5500 C   0  0  0  0  0  0  0  0  0  0  0  0
   59.5390   27.7770   47.1640 C   0  0  0  0  0  0  0  0  0  0  0  0
   59.4970   29.1750   47.1250 C   0  0  0  0  0  0  0  0  0  0  0  0
   60.7780   30.1110   47.8720 Cl  0  0  0  0  0  0  0  0  0  0  0  0
   58.4390   29.8250   46.4780 C   0  0  0  0  0  0  0  0  0  0  0  0
   56.6680   32.7950   45.2440 C   0  0  0  0  0  0  0  0  0  0  0  0
   57.2150   33.6290   46.1480 N   0  0  0  0  0  0  0  0  0  0  0  0
   61.3060   33.3440   48.6920 C   0  0  0  0  0  0  0  0  0  0  0  0
   62.4930   34.2100   49.1490 C   0  0  0  0  0  0  0  0  0  0  0  0
   64.4016   33.1770   50.3447 H   0  0  0  0  0  0  0  0  0  0  0  0
   64.3549   31.9238   49.0586 H   0  0  0  0  0  0  0  0  0  0  0  0
   65.6557   33.1626   49.0586 H   0  0  0  0  0  0  0  0  0  0  0  0
   64.4141   33.5142   46.4738 H   0  0  0  0  0  0  0  0  0  0  0  0
   63.4534   32.1749   47.2195 H   0  0  0  0  0  0  0  0  0  0  0  0
   62.3282   34.9029   46.4138 H   0  0  0  0  0  0  0  0  0  0  0  0
   62.1942   33.3857   45.4423 H   0  0  0  0  0  0  0  0  0  0  0  0
   59.7796   32.4473   44.4732 H   0  0  0  0  0  0  0  0  0  0  0  0
   57.0401   31.7341   42.4966 H   0  0  0  0  0  0  0  0  0  0  0  0
   58.3362   30.7080   43.2156 H   0  0  0  0  0  0  0  0  0  0  0  0
   56.6859   27.0863   45.4114 H   0  0  0  0  0  0  0  0  0  0  0  0
   58.5668   25.9319   46.5744 H   0  0  0  0  0  0  0  0  0  0  0  0
   60.3663   27.2654   47.6775 H   0  0  0  0  0  0  0  0  0  0  0  0
   58.4156   30.9239   46.4338 H   0  0  0  0  0  0  0  0  0  0  0  0
   55.5890   32.5988   45.1589 H   0  0  0  0  0  0  0  0  0  0  0  0
   56.7180   34.1880   46.8750 H   0  0  0  0  0  0  0  0  0  0  0  0
   60.3973   33.6945   49.2033 H   0  0  0  0  0  0  0  0  0  0  0  0
   61.5392   32.2997   48.9469 H   0  0  0  0  0  0  0  0  0  0  0  0
   62.2605   35.2650   48.9420 H   0  0  0  0  0  0  0  0  0  0  0  0
   62.6422   34.0327   50.2243 H   0  0  0  0  0  0  0  0  0  0  0  0
  1  2  1  0
  2  3  1  0
  3  4  1  0
  4  5  1  0
  5  6  1  0
  6  7  2  0
  6  8  2  0
  6  9  1  0
  9 10  2  0
 10 11  1  0
 11 12  1  0
 12 13  1  0
 13 14  2  0
 13 15  1  0
 15 16  1  0
 16 17  2  0
 17 18  1  0
 18 19  2  0
 19 20  1  0
 20 21  1  0
 20 22  2  0
 11 23  1  0
 23 24  2  0
  5 25  1  0
 25 26  1  0
 26  2  1  0
 24  9  1  0
 22 16  1  0
  1 27  1  0
  1 28  1  0
  1 29  1  0
  3 30  1  0
  3 31  1  0
  4 32  1  0
  4 33  1  0
 10 34  1  0
 12 35  1  0
 12 36  1  0
 17 37  1  0
 18 38  1  0
 19 39  1  0
 22 40  1  0
 23 41  1  0
 24 42  1  0
 25 43  1  0
 25 44  1  0
 26 45  1  0
 26 46  1  0
M  CHG  2  15  -1  24   1
M  END
>  <UniqueID>  (94) 
86

>  <SMILES>  (94) 
CN1CCN(S(=O)(=O)c2cn(CC(=O)[N-]c3cccc(Cl)c3)c[nH+]2)CC1

>  <Energy>  (94) 
90.82099751134285

>  <Genealogy>  (94) 
CN1CCN(S(=O)(=O)c2cn(CC(=O)[N-]c3cccc(Cl)c3)c[nH+]2)CC1 (protonated)
CN1CCN(S(=O)(=O)c2cn(CC(=O)[N-]c3cccc(Cl)c3)c[nH+]2)CC1 (3D coordinates assigned)
CN1CCN(S(=O)(=O)c2cn(CC(=O)[N-]c3cccc(Cl)c3)c[nH+]2)CC1 (nonaromatic ring conformer: 90.82099751134285 kcal/mol)

>  <smiles>  (94) 
CN1CCN(S(=O)(=O)c2cn(CC(=O)Nc3cccc(Cl)c3)cn2)CC1

>  <score_type>  (94) 
oracle

>  <origin>  (94) 
adg

>  <m_score__min__energy>  (94) 
-8.9100000000000001

>  <m_primary>  (94) 
energy

$$$$
94:0
     RDKit          3D

 39 42  0  0  0  0  0  0  0  0999 V2000
   56.6610   33.7880   44.8900 O   0  0  0  0  0  0  0  0  0  0  0  0
   57.4560   33.0640   45.5520 C   0  0  0  0  0  0  0  0  0  0  0  0
   58.3030   33.7330   46.4370 C   0  0  0  0  0  0  0  0  0  0  0  0
   59.3090   33.2410   47.2800 C   0  0  0  0  0  0  0  0  0  0  0  0
   60.0710   34.2620   48.1010 C   0  0  0  0  0  0  0  0  0  0  0  0
   61.5230   33.8780   48.1990 C   0  0  0  0  0  0  0  0  0  0  0  0
   62.3180   33.8190   47.0450 C   0  0  0  0  0  0  0  0  0  0  0  0
   63.6540   33.4250   47.1500 C   0  0  0  0  0  0  0  0  0  0  0  0
   64.1820   33.0900   48.3960 C   0  0  0  0  0  0  0  0  0  0  0  0
   63.3630   33.1490   49.5240 C   0  0  0  0  0  0  0  0  0  0  0  0
   62.0610   33.5340   49.4080 N   0  0  0  0  0  0  0  0  0  0  0  0
   59.7290   31.9140   47.3820 C   0  0  0  0  0  0  0  0  0  0  0  0
   59.2070   30.7870   46.7700 C   0  0  0  0  0  0  0  0  0  0  0  0
   58.1220   30.7020   45.9000 C   0  0  0  0  0  0  0  0  0  0  0  0
   57.6550   29.5040   45.3610 C   0  0  0  0  0  0  0  0  0  0  0  0
   58.0650   28.1150   45.6590 C   0  0  0  0  0  0  0  0  0  0  0  0
   59.4220   27.7550   45.6950 C   0  0  0  0  0  0  0  0  0  0  0  0
   59.7780   26.4410   46.0070 C   0  0  0  0  0  0  0  0  0  0  0  0
   58.8170   25.5210   46.2860 N   0  0  0  0  0  0  0  0  0  0  0  0
   57.4960   25.8440   46.2750 C   0  0  0  0  0  0  0  0  0  0  0  0
   57.0970   27.1480   45.9690 C   0  0  0  0  0  0  0  0  0  0  0  0
   56.6670   29.8680   44.4750 C   0  0  0  0  0  0  0  0  0  0  0  0
   56.5330   31.2020   44.4950 N   0  0  0  0  0  0  0  0  0  0  0  0
   57.4060   31.7170   45.3540 N   0  0  0  0  0  0  0  0  0  0  0  0
   58.1575   34.8225   46.4798 H   0  0  0  0  0  0  0  0  0  0  0  0
   59.9885   35.2481   47.6205 H   0  0  0  0  0  0  0  0  0  0  0  0
   59.6422   34.2979   49.1133 H   0  0  0  0  0  0  0  0  0  0  0  0
   61.8927   34.0810   46.0649 H   0  0  0  0  0  0  0  0  0  0  0  0
   64.2877   33.3792   46.2521 H   0  0  0  0  0  0  0  0  0  0  0  0
   65.2340   32.7822   48.4889 H   0  0  0  0  0  0  0  0  0  0  0  0
   63.7699   32.8837   50.5109 H   0  0  0  0  0  0  0  0  0  0  0  0
   61.4720   33.5640   50.2690 H   0  0  0  0  0  0  0  0  0  0  0  0
   60.5938   31.7394   48.0390 H   0  0  0  0  0  0  0  0  0  0  0  0
   59.7134   29.8379   46.9999 H   0  0  0  0  0  0  0  0  0  0  0  0
   60.1992   28.5028   45.4789 H   0  0  0  0  0  0  0  0  0  0  0  0
   60.8386   26.1499   46.0270 H   0  0  0  0  0  0  0  0  0  0  0  0
   56.7410   25.0784   46.5071 H   0  0  0  0  0  0  0  0  0  0  0  0
   56.0298   27.4147   45.9712 H   0  0  0  0  0  0  0  0  0  0  0  0
   56.0818   29.1764   43.8512 H   0  0  0  0  0  0  0  0  0  0  0  0
  1  2  2  0
  2  3  1  0
  3  4  2  0
  4  5  1  0
  5  6  1  0
  6  7  2  0
  7  8  1  0
  8  9  2  0
  9 10  1  0
 10 11  2  0
  4 12  1  0
 12 13  2  0
 13 14  1  0
 14 15  2  0
 15 16  1  0
 16 17  2  0
 17 18  1  0
 18 19  2  0
 19 20  1  0
 20 21  2  0
 15 22  1  0
 22 23  2  0
 23 24  1  0
 24  2  1  0
 11  6  1  0
 24 14  1  0
 21 16  1  0
  3 25  1  0
  5 26  1  0
  5 27  1  0
  7 28  1  0
  8 29  1  0
  9 30  1  0
 10 31  1  0
 11 32  1  0
 12 33  1  0
 13 34  1  0
 17 35  1  0
 18 36  1  0
 20 37  1  0
 21 38  1  0
 22 39  1  0
M  CHG  1  11   1
M  END
>  <UniqueID>  (95) 
87

>  <SMILES>  (95) 
O=c1cc(Cc2cccc[nH+]2)ccc2c(-c3ccncc3)cnn12

>  <Energy>  (95) 
98.70063219380896

>  <Genealogy>  (95) 
O=c1cc(Cc2cccc[nH+]2)ccc2c(-c3ccncc3)cnn12 (protonated)
O=c1cc(Cc2cccc[nH+]2)ccc2c(-c3ccncc3)cnn12 (3D coordinates assigned)
O=c1cc(Cc2cccc[nH+]2)ccc2c(-c3ccncc3)cnn12 (optimized conformer: 98.70063219380896 kcal/mol)

>  <smiles>  (95) 
O=c1cc(Cc2ccccn2)ccc2c(-c3ccncc3)cnn12

>  <score_type>  (95) 
oracle

>  <origin>  (95) 
adg

>  <m_score__min__energy>  (95) 
-6.9199999999999999

>  <m_primary>  (95) 
energy

$$$$
95:0
     RDKit          3D

 43 46  0  0  0  0  0  0  0  0999 V2000
   55.1540   26.6780   45.9990 O   0  0  0  0  0  0  0  0  0  0  0  0
   56.4120   26.7230   46.0280 C   0  0  0  0  0  0  0  0  0  0  0  0
   57.1180   25.5280   46.0900 O   0  0  0  0  0  0  0  0  0  0  0  0
   57.1360   28.0240   45.9900 C   0  0  0  0  0  0  0  0  0  0  0  0
   58.3270   28.1660   46.7100 C   0  0  0  0  0  0  0  0  0  0  0  0
   59.0410   29.3370   46.7190 N   0  0  0  0  0  0  0  0  0  0  0  0
   60.2780   29.3450   47.5340 C   0  0  0  0  0  0  0  0  0  0  0  0
   60.1970   30.3050   48.7020 C   0  0  0  0  0  0  0  0  0  0  0  0
   58.9420   30.5930   49.2650 C   0  0  0  0  0  0  0  0  0  0  0  0
   58.8380   31.4370   50.3730 C   0  0  0  0  0  0  0  0  0  0  0  0
   59.9900   31.9940   50.9600 C   0  0  0  0  0  0  0  0  0  0  0  0
   59.8790   32.8630   52.1620 C   0  0  0  0  0  0  0  0  0  0  0  0
   58.9000   33.8700   52.2280 C   0  0  0  0  0  0  0  0  0  0  0  0
   58.8240   34.6840   53.3600 C   0  0  0  0  0  0  0  0  0  0  0  0
   59.7080   34.4910   54.4190 C   0  0  0  0  0  0  0  0  0  0  0  0
   60.6630   33.4800   54.3320 C   0  0  0  0  0  0  0  0  0  0  0  0
   60.7330   32.6970   53.2200 N   0  0  0  0  0  0  0  0  0  0  0  0
   61.2480   31.6900   50.4050 C   0  0  0  0  0  0  0  0  0  0  0  0
   61.3520   30.8540   49.2920 C   0  0  0  0  0  0  0  0  0  0  0  0
   58.6050   30.4290   45.9800 C   0  0  0  0  0  0  0  0  0  0  0  0
   59.3220   31.6640   45.9150 C   0  0  0  0  0  0  0  0  0  0  0  0
   60.5010   31.8690   46.5510 F   0  0  0  0  0  0  0  0  0  0  0  0
   58.8340   32.7320   45.1600 C   0  0  0  0  0  0  0  0  0  0  0  0
   57.6410   32.6180   44.4560 C   0  0  0  0  0  0  0  0  0  0  0  0
   56.9230   31.4270   44.4920 C   0  0  0  0  0  0  0  0  0  0  0  0
   57.3900   30.3270   45.2400 C   0  0  0  0  0  0  0  0  0  0  0  0
   56.6620   29.1230   45.2550 C   0  0  0  0  0  0  0  0  0  0  0  0
   55.5810   29.0340   44.6050 O   0  0  0  0  0  0  0  0  0  0  0  0
   58.7036   27.3095   47.2885 H   0  0  0  0  0  0  0  0  0  0  0  0
   60.4509   28.3306   47.9226 H   0  0  0  0  0  0  0  0  0  0  0  0
   61.1029   29.6761   46.8860 H   0  0  0  0  0  0  0  0  0  0  0  0
   58.0342   30.1501   48.8295 H   0  0  0  0  0  0  0  0  0  0  0  0
   57.8471   31.6686   50.7907 H   0  0  0  0  0  0  0  0  0  0  0  0
   58.1985   34.0156   51.3933 H   0  0  0  0  0  0  0  0  0  0  0  0
   58.0652   35.4785   53.4155 H   0  0  0  0  0  0  0  0  0  0  0  0
   59.6529   35.1291   55.3133 H   0  0  0  0  0  0  0  0  0  0  0  0
   61.3627   33.3138   55.1643 H   0  0  0  0  0  0  0  0  0  0  0  0
   61.4850   31.9740   53.1820 H   0  0  0  0  0  0  0  0  0  0  0  0
   62.1580   32.1157   50.8531 H   0  0  0  0  0  0  0  0  0  0  0  0
   62.3424   30.6225   48.8730 H   0  0  0  0  0  0  0  0  0  0  0  0
   59.4000   33.6744   45.1218 H   0  0  0  0  0  0  0  0  0  0  0  0
   57.2645   33.4696   43.8703 H   0  0  0  0  0  0  0  0  0  0  0  0
   55.9807   31.3426   43.9308 H   0  0  0  0  0  0  0  0  0  0  0  0
  1  2  2  0
  2  3  1  0
  2  4  1  0
  4  5  2  0
  5  6  1  0
  6  7  1  0
  7  8  1  0
  8  9  2  0
  9 10  1  0
 10 11  2  0
 11 12  1  0
 12 13  2  0
 13 14  1  0
 14 15  2  0
 15 16  1  0
 16 17  2  0
 11 18  1  0
 18 19  2  0
  6 20  1  0
 20 21  2  0
 21 22  1  0
 21 23  1  0
 23 24  2  0
 24 25  1  0
 25 26  2  0
 26 27  1  0
 27 28  2  0
 27  4  1  0
 19  8  1  0
 26 20  1  0
 17 12  1  0
  5 29  1  0
  7 30  1  0
  7 31  1  0
  9 32  1  0
 10 33  1  0
 13 34  1  0
 14 35  1  0
 15 36  1  0
 16 37  1  0
 17 38  1  0
 18 39  1  0
 19 40  1  0
 23 41  1  0
 24 42  1  0
 25 43  1  0
M  CHG  2   3  -1  17   1
M  END
>  <UniqueID>  (96) 
88

>  <SMILES>  (96) 
O=C([O-])c1cn(Cc2ccc(-c3cccc[nH+]3)cc2)c2c(F)cccc2c1=O

>  <Energy>  (96) 
69.94532584163346

>  <Genealogy>  (96) 
O=C([O-])c1cn(Cc2ccc(-c3cccc[nH+]3)cc2)c2c(F)cccc2c1=O (protonated)
O=C([O-])c1cn(Cc2ccc(-c3cccc[nH+]3)cc2)c2c(F)cccc2c1=O (3D coordinates assigned)
O=C([O-])c1cn(Cc2ccc(-c3cccc[nH+]3)cc2)c2c(F)cccc2c1=O (optimized conformer: 69.94532584163346 kcal/mol)

>  <smiles>  (96) 
O=C(O)c1cn(Cc2ccc(-c3ccccn3)cc2)c2c(F)cccc2c1=O

>  <score_type>  (96) 
oracle

>  <origin>  (96) 
adg

>  <m_score__min__energy>  (96) 
-8.9299999999999997

>  <m_primary>  (96) 
energy

$$$$
