0:0
     RDKit          3D

 57 60  0  0  0  0  0  0  0  0999 V2000
   56.6090   30.3610   42.8350 C   0  0  0  0  0  0  0  0  0  0  0  0
   56.9720   31.6680   43.2680 O   0  0  0  0  0  0  0  0  0  0  0  0
   57.7440   31.9390   44.4080 C   0  0  0  0  0  0  0  0  0  0  0  0
   58.4740   30.9400   45.0810 C   0  0  0  0  0  0  0  0  0  0  0  0
   59.2280   31.2600   46.2130 C   0  0  0  0  0  0  0  0  0  0  0  0
   59.2540   32.5770   46.6940 C   0  0  0  0  0  0  0  0  0  0  0  0
   60.0600   32.9220   47.8820 C   0  0  0  0  0  0  0  0  0  0  0  0
   61.2950   33.5530   47.6840 C   0  0  0  0  0  0  0  0  0  0  0  0
   62.0880   33.9120   48.7710 C   0  0  0  0  0  0  0  0  0  0  0  0
   61.6530   33.6580   50.0700 C   0  0  0  0  0  0  0  0  0  0  0  0
   62.4490   34.0090   51.1130 F   0  0  0  0  0  0  0  0  0  0  0  0
   60.4070   33.0480   50.2980 C   0  0  0  0  0  0  0  0  0  0  0  0
   59.6090   32.6470   49.1990 C   0  0  0  0  0  0  0  0  0  0  0  0
   58.2250   32.0570   49.4320 C   0  0  0  0  0  0  0  0  0  0  0  0
   58.0420   31.4950   50.7880 N   0  0  1  0  0  0  0  0  0  0  0  0
   58.6570   30.1840   50.9380 C   0  0  0  0  0  0  0  0  0  0  0  0
   59.3860   29.7340   50.0630 O   0  0  0  0  0  0  0  0  0  0  0  0
   58.4170   29.3580   52.1770 C   0  0  0  0  0  0  0  0  0  0  0  0
   57.3010   29.9670   53.0310 C   0  0  0  0  0  0  0  0  0  0  0  0
   56.0280   29.9220   52.2880 N   0  0  0  0  0  0  0  0  0  0  0  0
   55.1460   31.0770   52.5460 C   0  0  1  0  0  0  0  0  0  0  0  0
   55.8150   32.2900   52.3030 O   0  0  0  0  0  0  0  0  0  0  0  0
   53.8900   30.9880   51.7220 C   0  0  0  0  0  0  0  0  0  0  0  0
   53.3310   29.8250   51.2160 C   0  0  0  0  0  0  0  0  0  0  0  0
   52.1530   30.1950   50.6100 C   0  0  0  0  0  0  0  0  0  0  0  0
   52.0570   31.5570   50.7850 C   0  0  0  0  0  0  0  0  0  0  0  0
   51.0060   32.3390   50.3270 O   0  0  0  0  0  0  0  0  0  0  0  0
   53.1050   32.0550   51.4660 N   0  0  0  0  0  0  0  0  0  0  0  0
   58.4950   32.4340   51.8300 C   0  0  0  0  0  0  0  0  0  0  0  0
   59.9900   32.7540   51.7160 C   0  0  0  0  0  0  0  0  0  0  0  0
   58.5350   33.5740   46.0210 C   0  0  0  0  0  0  0  0  0  0  0  0
   57.7830   33.2540   44.8870 C   0  0  0  0  0  0  0  0  0  0  0  0
   56.4311   29.7206   43.7115 H   0  0  0  0  0  0  0  0  0  0  0  0
   55.6923   30.4167   42.2295 H   0  0  0  0  0  0  0  0  0  0  0  0
   57.4231   29.9360   42.2295 H   0  0  0  0  0  0  0  0  0  0  0  0
   58.4504   29.9034   44.7138 H   0  0  0  0  0  0  0  0  0  0  0  0
   59.8029   30.4765   46.7284 H   0  0  0  0  0  0  0  0  0  0  0  0
   61.6410   33.7666   46.6619 H   0  0  0  0  0  0  0  0  0  0  0  0
   63.0607   34.3975   48.6035 H   0  0  0  0  0  0  0  0  0  0  0  0
   57.4785   32.8507   49.2807 H   0  0  0  0  0  0  0  0  0  0  0  0
   58.1036   31.2276   48.7197 H   0  0  0  0  0  0  0  0  0  0  0  0
   57.0090   31.3810   50.9180 H   0  0  0  0  0  0  0  0  0  0  0  0
   58.1283   28.3389   51.8803 H   0  0  0  0  0  0  0  0  0  0  0  0
   59.3428   29.3371   52.7707 H   0  0  0  0  0  0  0  0  0  0  0  0
   57.2003   29.3939   53.9645 H   0  0  0  0  0  0  0  0  0  0  0  0
   57.5500   31.0125   53.2654 H   0  0  0  0  0  0  0  0  0  0  0  0
   55.5090   29.0540   52.5600 H   0  0  0  0  0  0  0  0  0  0  0  0
   54.8628   31.0523   53.6086 H   0  0  0  0  0  0  0  0  0  0  0  0
   55.1980   32.8540   51.7670 H   0  0  0  0  0  0  0  0  0  0  0  0
   53.7465   28.8089   51.2852 H   0  0  0  0  0  0  0  0  0  0  0  0
   51.4369   29.5392   50.0932 H   0  0  0  0  0  0  0  0  0  0  0  0
   57.9248   33.3699   51.7347 H   0  0  0  0  0  0  0  0  0  0  0  0
   58.3267   31.9582   52.8074 H   0  0  0  0  0  0  0  0  0  0  0  0
   60.2118   33.6329   52.3391 H   0  0  0  0  0  0  0  0  0  0  0  0
   60.5495   31.8693   52.0541 H   0  0  0  0  0  0  0  0  0  0  0  0
   58.5625   34.6113   46.3861 H   0  0  0  0  0  0  0  0  0  0  0  0
   57.2176   34.0413   44.3670 H   0  0  0  0  0  0  0  0  0  0  0  0
  1  2  1  0
  2  3  1  0
  3  4  2  0
  4  5  1  0
  5  6  2  0
  6  7  1  0
  7  8  2  0
  8  9  1  0
  9 10  2  0
 10 11  1  0
 10 12  1  0
 12 13  2  0
 13 14  1  0
 14 15  1  0
 15 16  1  0
 16 17  2  0
 16 18  1  0
 18 19  1  0
 19 20  1  0
 20 21  1  0
 21 22  1  0
 21 23  1  0
 23 24  2  0
 24 25  1  0
 25 26  2  0
 26 27  1  0
 26 28  1  0
 15 29  1  0
 29 30  1  0
  6 31  1  0
 31 32  2  0
 32  3  1  0
 13  7  1  0
 28 23  1  0
 30 12  1  0
  1 33  1  0
  1 34  1  0
  1 35  1  0
  4 36  1  0
  5 37  1  0
  8 38  1  0
  9 39  1  0
 14 40  1  0
 14 41  1  0
 15 42  1  1
 18 43  1  0
 18 44  1  0
 19 45  1  0
 19 46  1  0
 20 47  1  0
 21 48  1  1
 22 49  1  0
 24 50  1  0
 25 51  1  0
 29 52  1  0
 29 53  1  0
 30 54  1  0
 30 55  1  0
 31 56  1  0
 32 57  1  0
M  CHG  3  15   1  27  -1  28  -1
M  END
>  <UniqueID>  (1) 
1

>  <SMILES>  (1) 
COc1ccc(-c2ccc(F)c3c2C[N@@H+](C(=O)CCN[C@@H](O)c2ccc([O-])[n-]2)CC3)cc1

>  <Energy>  (1) 
97.77522837585651

>  <Genealogy>  (1) 
COc1ccc(-c2ccc(F)c3c2C[NH+](C(=O)CCNC(O)c2ccc([O-])[n-]2)CC3)cc1 (protonated)
COc1ccc(-c2ccc(F)c3c2C[N@@H+](C(=O)CCN[C@@H](O)c2ccc([O-])[n-]2)CC3)cc1 (chirality)
COc1ccc(-c2ccc(F)c3c2C[N@@H+](C(=O)CCN[C@@H](O)c2ccc([O-])[n-]2)CC3)cc1 (3D coordinates assigned)
COc1ccc(-c2ccc(F)c3c2C[N@@H+](C(=O)CCN[C@@H](O)c2ccc([O-])[n-]2)CC3)cc1 (nonaromatic ring conformer: 97.77522837585651 kcal/mol)

>  <smiles>  (1) 
COc1ccc(-c2ccc(F)c3c2CN(C(=O)CCNC(O)c2ccc(O)[nH]2)CC3)cc1

>  <score_type>  (1) 
oracle

>  <origin>  (1) 
adg

>  <m_score__min__energy>  (1) 
-12.970000000000001

>  <m_primary>  (1) 
energy

$$$$
1:0
     RDKit          3D

 60 63  0  0  0  0  0  0  0  0999 V2000
   56.3890   29.8570   44.9940 O   0  0  0  0  0  0  0  0  0  0  0  0
   56.7640   28.6550   45.0840 C   0  0  0  0  0  0  0  0  0  0  0  0
   58.1410   28.2770   44.6410 C   0  0  0  0  0  0  0  0  0  0  0  0
   59.2930   29.6860   44.8050 S   0  0  0  0  0  0  0  0  0  0  0  0
   59.6970   29.3580   46.5270 C   0  0  0  0  0  0  0  0  0  0  0  0
   59.2690   28.2700   47.1950 N   0  0  0  0  0  0  0  0  0  0  0  0
   59.7250   28.3760   48.4350 N   0  0  0  0  0  0  0  0  0  0  0  0
   60.4250   29.5280   48.5050 C   0  0  0  0  0  0  0  0  0  0  0  0
   61.0170   30.0470   49.7870 C   0  0  0  0  0  0  0  0  0  0  0  0
   60.3000   31.3330   50.2230 C   0  0  0  0  0  0  0  0  0  0  0  0
   58.8360   31.3110   49.8630 C   0  0  0  0  0  0  0  0  0  0  0  0
   58.1550   30.2880   50.1380 O   0  0  0  0  0  0  0  0  0  0  0  0
   58.1660   32.4650   49.3390 N   0  0  0  0  0  0  0  0  0  0  0  0
   58.4050   33.0560   48.0560 C   0  0  0  0  0  0  0  0  0  0  0  0
   57.9230   32.4100   46.9070 C   0  0  0  0  0  0  0  0  0  0  0  0
   58.1550   32.9590   45.6410 C   0  0  0  0  0  0  0  0  0  0  0  0
   58.8660   34.1570   45.5160 C   0  0  0  0  0  0  0  0  0  0  0  0
   59.3690   34.7940   46.6560 C   0  0  0  0  0  0  0  0  0  0  0  0
   59.1420   34.2450   47.9240 C   0  0  0  0  0  0  0  0  0  0  0  0
   59.6950   34.8380   49.0120 F   0  0  0  0  0  0  0  0  0  0  0  0
   60.4340   30.1660   47.3140 N   0  0  0  0  0  0  0  0  0  0  0  0
   60.9890   31.4810   46.9780 C   0  0  0  0  0  0  0  0  0  0  0  0
   62.5060   31.4850   47.1630 C   0  0  0  0  0  0  0  0  0  0  0  0
   62.8890   32.3690   48.3180 C   0  0  0  0  0  0  0  0  0  0  0  0
   63.9090   31.9780   49.2010 C   0  0  0  0  0  0  0  0  0  0  0  0
   64.2950   32.8230   50.2450 C   0  0  0  0  0  0  0  0  0  0  0  0
   63.6780   34.0680   50.4050 C   0  0  0  0  0  0  0  0  0  0  0  0
   62.6700   34.4690   49.5220 C   0  0  0  0  0  0  0  0  0  0  0  0
   62.2780   33.6250   48.4790 C   0  0  0  0  0  0  0  0  0  0  0  0
   55.8980   27.6430   45.6140 N   0  0  0  0  0  0  0  0  0  0  0  0
   56.2590   26.3220   46.0430 C   0  0  0  0  0  0  0  0  0  0  0  0
   55.4650   25.2450   45.6190 C   0  0  0  0  0  0  0  0  0  0  0  0
   55.7540   23.9440   46.0400 C   0  0  0  0  0  0  0  0  0  0  0  0
   56.8300   23.7100   46.9020 C   0  0  0  0  0  0  0  0  0  0  0  0
   57.6150   24.7780   47.3480 C   0  0  0  0  0  0  0  0  0  0  0  0
   57.3320   26.0790   46.9250 C   0  0  0  0  0  0  0  0  0  0  0  0
   58.5020   27.4434   45.2612 H   0  0  0  0  0  0  0  0  0  0  0  0
   58.0991   27.9806   43.5825 H   0  0  0  0  0  0  0  0  0  0  0  0
   60.9056   29.2852   50.5727 H   0  0  0  0  0  0  0  0  0  0  0  0
   62.0822   30.2686   49.6252 H   0  0  0  0  0  0  0  0  0  0  0  0
   60.3964   31.4415   51.3134 H   0  0  0  0  0  0  0  0  0  0  0  0
   60.7674   32.1786   49.6971 H   0  0  0  0  0  0  0  0  0  0  0  0
   57.3611   31.4691   47.0020 H   0  0  0  0  0  0  0  0  0  0  0  0
   57.7778   32.4478   44.7430 H   0  0  0  0  0  0  0  0  0  0  0  0
   59.0298   34.5984   44.5218 H   0  0  0  0  0  0  0  0  0  0  0  0
   59.9432   35.7269   46.5559 H   0  0  0  0  0  0  0  0  0  0  0  0
   60.7515   31.7171   45.9302 H   0  0  0  0  0  0  0  0  0  0  0  0
   60.5472   32.2348   47.6462 H   0  0  0  0  0  0  0  0  0  0  0  0
   62.8500   30.4592   47.3616 H   0  0  0  0  0  0  0  0  0  0  0  0
   62.9771   31.8698   46.2465 H   0  0  0  0  0  0  0  0  0  0  0  0
   64.4049   31.0048   49.0705 H   0  0  0  0  0  0  0  0  0  0  0  0
   65.0855   32.5084   50.9422 H   0  0  0  0  0  0  0  0  0  0  0  0
   63.9857   34.7324   51.2259 H   0  0  0  0  0  0  0  0  0  0  0  0
   62.1858   35.4486   49.6484 H   0  0  0  0  0  0  0  0  0  0  0  0
   61.4891   33.9444   47.7821 H   0  0  0  0  0  0  0  0  0  0  0  0
   54.6099   25.4261   44.9512 H   0  0  0  0  0  0  0  0  0  0  0  0
   55.1347   23.1037   45.6931 H   0  0  0  0  0  0  0  0  0  0  0  0
   57.0591   22.6852   47.2295 H   0  0  0  0  0  0  0  0  0  0  0  0
   58.4561   24.5935   48.0325 H   0  0  0  0  0  0  0  0  0  0  0  0
   57.9487   26.9172   47.2814 H   0  0  0  0  0  0  0  0  0  0  0  0
  1  2  2  0
  2  3  1  0
  3  4  1  0
  4  5  1  0
  5  6  2  0
  6  7  1  0
  7  8  2  0
  8  9  1  0
  9 10  1  0
 10 11  1  0
 11 12  2  0
 11 13  1  0
 13 14  1  0
 14 15  2  0
 15 16  1  0
 16 17  2  0
 17 18  1  0
 18 19  2  0
 19 20  1  0
  8 21  1  0
 21 22  1  0
 22 23  1  0
 23 24  1  0
 24 25  2  0
 25 26  1  0
 26 27  2  0
 27 28  1  0
 28 29  2  0
  2 30  1  0
 30 31  1  0
 31 32  2  0
 32 33  1  0
 33 34  2  0
 34 35  1  0
 35 36  2  0
 21  5  1  0
 29 24  1  0
 36 31  1  0
 19 14  1  0
  3 37  1  0
  3 38  1  0
  9 39  1  0
  9 40  1  0
 10 41  1  0
 10 42  1  0
 15 43  1  0
 16 44  1  0
 17 45  1  0
 18 46  1  0
 22 47  1  0
 22 48  1  0
 23 49  1  0
 23 50  1  0
 25 51  1  0
 26 52  1  0
 27 53  1  0
 28 54  1  0
 29 55  1  0
 32 56  1  0
 33 57  1  0
 34 58  1  0
 35 59  1  0
 36 60  1  0
M  CHG  2  13  -1  30  -1
M  END
>  <UniqueID>  (2) 
2

>  <SMILES>  (2) 
O=C(CSc1nnc(CCC(=O)[N-]c2ccccc2F)n1CCc1ccccc1)[N-]c1ccccc1

>  <Energy>  (2) 
94.74727419669583

>  <Genealogy>  (2) 
O=C(CSc1nnc(CCC(=O)[N-]c2ccccc2F)n1CCc1ccccc1)[N-]c1ccccc1 (protonated)
O=C(CSc1nnc(CCC(=O)[N-]c2ccccc2F)n1CCc1ccccc1)[N-]c1ccccc1 (3D coordinates assigned)
O=C(CSc1nnc(CCC(=O)[N-]c2ccccc2F)n1CCc1ccccc1)[N-]c1ccccc1 (optimized conformer: 94.74727419669583 kcal/mol)

>  <smiles>  (2) 
O=C(CSc1nnc(CCC(=O)Nc2ccccc2F)n1CCc1ccccc1)Nc1ccccc1

>  <score_type>  (2) 
oracle

>  <origin>  (2) 
adg

>  <m_score__min__energy>  (2) 
-13.02

>  <m_primary>  (2) 
energy

$$$$
2:0
     RDKit          3D

 44 46  0  0  0  0  0  0  0  0999 V2000
   53.7670   29.7080   54.0910 O   0  0  0  0  0  0  0  0  0  0  0  0
   54.0590   29.9080   52.8790 C   0  0  0  0  0  0  0  0  0  0  0  0
   55.3190   29.5450   52.3860 O   0  0  0  0  0  0  0  0  0  0  0  0
   56.5240   30.2600   52.6660 C   0  0  2  0  0  0  0  0  0  0  0  0
   57.0950   30.7860   51.3320 C   0  0  0  0  0  0  0  0  0  0  0  0
   58.4490   31.5330   51.5010 C   0  0  1  0  0  0  0  0  0  0  0  0
   58.9760   31.8690   50.2100 O   0  0  0  0  0  0  0  0  0  0  0  0
   60.2980   32.2680   49.9840 C   0  0  0  0  0  0  0  0  0  0  0  0
   61.2690   31.3360   49.5920 C   0  0  0  0  0  0  0  0  0  0  0  0
   62.5860   31.7480   49.3620 C   0  0  0  0  0  0  0  0  0  0  0  0
   62.9350   33.0950   49.5150 C   0  0  0  0  0  0  0  0  0  0  0  0
   64.2430   33.5040   49.2880 O   0  0  0  0  0  0  0  0  0  0  0  0
   61.9650   34.0290   49.8920 C   0  0  0  0  0  0  0  0  0  0  0  0
   60.6470   33.6180   50.1200 C   0  0  0  0  0  0  0  0  0  0  0  0
   58.2850   32.8040   52.3220 C   0  0  0  0  0  0  0  0  0  0  0  0
   59.2640   33.2900   52.9490 O   0  0  0  0  0  0  0  0  0  0  0  0
   57.0810   33.5010   52.3120 O   0  0  0  0  0  0  0  0  0  0  0  0
   59.4660   30.5770   52.1700 C   0  0  0  0  0  0  0  0  0  0  0  0
   58.9030   29.9730   53.4260 C   0  0  0  0  0  0  0  0  0  0  0  0
   59.5810   29.9300   54.4420 O   0  0  0  0  0  0  0  0  0  0  0  0
   57.5360   29.3310   53.3770 C   0  0  1  0  0  0  0  0  0  0  0  0
   57.0900   28.9860   54.6640 O   0  0  0  0  0  0  0  0  0  0  0  0
   53.0730   30.5400   51.9750 C   0  0  0  0  0  0  0  0  0  0  0  0
   52.8840   30.0560   50.6670 C   0  0  0  0  0  0  0  0  0  0  0  0
   51.9510   30.6590   49.8170 C   0  0  0  0  0  0  0  0  0  0  0  0
   51.1980   31.7490   50.2610 C   0  0  0  0  0  0  0  0  0  0  0  0
   50.2710   32.3420   49.4110 O   0  0  0  0  0  0  0  0  0  0  0  0
   51.3770   32.2380   51.5600 C   0  0  0  0  0  0  0  0  0  0  0  0
   50.6300   33.3210   52.0070 O   0  0  0  0  0  0  0  0  0  0  0  0
   52.3090   31.6370   52.4120 C   0  0  0  0  0  0  0  0  0  0  0  0
   56.3221   31.1085   53.3363 H   0  0  0  0  0  0  0  0  0  0  0  0
   57.2481   29.9321   50.6556 H   0  0  0  0  0  0  0  0  0  0  0  0
   56.3704   31.5074   50.9264 H   0  0  0  0  0  0  0  0  0  0  0  0
   60.9948   30.2783   49.4650 H   0  0  0  0  0  0  0  0  0  0  0  0
   63.3474   31.0134   49.0609 H   0  0  0  0  0  0  0  0  0  0  0  0
   62.2384   35.0880   50.0095 H   0  0  0  0  0  0  0  0  0  0  0  0
   59.8835   34.3562   50.4065 H   0  0  0  0  0  0  0  0  0  0  0  0
   59.7165   29.7702   51.4655 H   0  0  0  0  0  0  0  0  0  0  0  0
   60.3637   31.1550   52.4348 H   0  0  0  0  0  0  0  0  0  0  0  0
   57.6158   28.4013   52.7944 H   0  0  0  0  0  0  0  0  0  0  0  0
   56.1010   29.0810   54.6750 H   0  0  0  0  0  0  0  0  0  0  0  0
   53.4736   29.1983   50.3110 H   0  0  0  0  0  0  0  0  0  0  0  0
   51.8097   30.2740   48.7963 H   0  0  0  0  0  0  0  0  0  0  0  0
   52.4456   32.0253   53.4321 H   0  0  0  0  0  0  0  0  0  0  0  0
  1  2  2  0
  2  3  1  0
  3  4  1  0
  4  5  1  0
  5  6  1  0
  6  7  1  6
  7  8  1  0
  8  9  2  0
  9 10  1  0
 10 11  2  0
 11 12  1  0
 11 13  1  0
 13 14  2  0
  6 15  1  0
 15 16  2  0
 15 17  1  0
  6 18  1  0
 18 19  1  0
 19 20  2  0
 19 21  1  0
 21 22  1  0
  2 23  1  0
 23 24  2  0
 24 25  1  0
 25 26  2  0
 26 27  1  0
 26 28  1  0
 28 29  1  0
 28 30  2  0
 21  4  1  0
 30 23  1  0
 14  8  1  0
  4 31  1  1
  5 32  1  0
  5 33  1  0
  9 34  1  0
 10 35  1  0
 13 36  1  0
 14 37  1  0
 18 38  1  0
 18 39  1  0
 21 40  1  6
 22 41  1  0
 24 42  1  0
 25 43  1  0
 30 44  1  0
M  CHG  4  12  -1  17  -1  27  -1  29  -1
M  END
>  <UniqueID>  (3) 
3

>  <SMILES>  (3) 
O=C(O[C@@H]1C[C@@](Oc2ccc([O-])cc2)(C(=O)[O-])CC(=O)C1O)c1ccc([O-])c([O-])c1

>  <Energy>  (3) 
55.743620207464005

>  <Genealogy>  (3) 
O=C(OC1CC(Oc2ccc([O-])cc2)(C(=O)[O-])CC(=O)C1O)c1ccc([O-])c([O-])c1 (protonated)
O=C(O[C@@H]1C[C@@](Oc2ccc([O-])cc2)(C(=O)[O-])CC(=O)C1O)c1ccc([O-])c([O-])c1 (chirality)
O=C(O[C@@H]1C[C@@](Oc2ccc([O-])cc2)(C(=O)[O-])CC(=O)C1O)c1ccc([O-])c([O-])c1 (3D coordinates assigned)
O=C(O[C@@H]1C[C@@](Oc2ccc([O-])cc2)(C(=O)[O-])CC(=O)C1O)c1ccc([O-])c([O-])c1 (nonaromatic ring conformer: 55.743620207464005 kcal/mol)

>  <smiles>  (3) 
O=C(OC1CC(Oc2ccc(O)cc2)(C(=O)O)CC(=O)C1O)c1ccc(O)c(O)c1

>  <score_type>  (3) 
oracle

>  <origin>  (3) 
adg

>  <m_score__min__energy>  (3) 
-17.02

>  <m_primary>  (3) 
energy

$$$$
3:0
     RDKit          3D

 23 24  0  0  0  0  0  0  0  0999 V2000
   55.0720   29.9160   44.0650 N   0  0  0  0  0  0  0  0  0  0  0  0
   56.6940   30.4930   44.2000 S   0  0  0  0  0  0  0  0  0  0  0  0
   57.1880   30.9170   42.8450 O   0  0  0  0  0  0  0  0  0  0  0  0
   56.7320   31.6820   45.1190 O   0  0  0  0  0  0  0  0  0  0  0  0
   57.7220   29.2140   44.8410 C   0  0  0  0  0  0  0  0  0  0  0  0
   59.1150   29.3440   44.8070 C   0  0  0  0  0  0  0  0  0  0  0  0
   59.9270   28.3210   45.2990 C   0  0  0  0  0  0  0  0  0  0  0  0
   59.3540   27.1610   45.8290 C   0  0  0  0  0  0  0  0  0  0  0  0
   57.9560   27.0160   45.8750 C   0  0  0  0  0  0  0  0  0  0  0  0
   57.3210   25.7920   46.4200 C   0  0  0  0  0  0  0  0  0  0  0  0
   58.0190   24.7440   46.9000 N   0  0  0  0  0  0  0  0  0  0  0  0
   57.0640   23.8660   47.2710 C   0  0  0  0  0  0  0  0  0  0  0  0
   57.3340   22.7450   47.7790 O   0  0  0  0  0  0  0  0  0  0  0  0
   55.8000   24.2800   47.0530 N   0  0  0  0  0  0  0  0  0  0  0  0
   55.9730   25.4960   46.5100 C   0  0  0  0  0  0  0  0  0  0  0  0
   54.9240   26.3000   46.0810 O   0  0  0  0  0  0  0  0  0  0  0  0
   57.1470   28.0480   45.3640 C   0  0  0  0  0  0  0  0  0  0  0  0
   54.8160   29.5050   44.9900 H   0  0  0  0  0  0  0  0  0  0  0  0
   59.5711   30.2547   44.3915 H   0  0  0  0  0  0  0  0  0  0  0  0
   61.0214   28.4277   45.2697 H   0  0  0  0  0  0  0  0  0  0  0  0
   60.0002   26.3575   46.2121 H   0  0  0  0  0  0  0  0  0  0  0  0
   54.2580   26.6790   46.7460 H   0  0  0  0  0  0  0  0  0  0  0  0
   56.0525   27.9383   45.3752 H   0  0  0  0  0  0  0  0  0  0  0  0
  1  2  1  0
  2  3  2  0
  2  4  2  0
  2  5  1  0
  5  6  2  0
  6  7  1  0
  7  8  2  0
  8  9  1  0
  9 10  1  0
 10 11  1  0
 11 12  1  0
 12 13  2  0
 12 14  1  0
 14 15  1  0
 15 16  1  0
  9 17  2  0
 17  5  1  0
 15 10  2  0
  1 18  1  0
  6 19  1  0
  7 20  1  0
  8 21  1  0
 16 22  1  0
 17 23  1  0
M  CHG  3   1  -1  11  -1  14  -1
M  END
>  <UniqueID>  (4) 
4

>  <SMILES>  (4) 
[NH-]S(=O)(=O)c1cccc(-c2[n-]c(=O)[n-]c2O)c1

>  <Energy>  (4) 
55.10853393086378

>  <Genealogy>  (4) 
[NH-]S(=O)(=O)c1cccc(-c2[n-]c(=O)[n-]c2O)c1 (protonated)
[NH-]S(=O)(=O)c1cccc(-c2[n-]c(=O)[n-]c2O)c1 (3D coordinates assigned)
[NH-]S(=O)(=O)c1cccc(-c2[n-]c(=O)[n-]c2O)c1 (optimized conformer: 55.10853393086378 kcal/mol)

>  <smiles>  (4) 
NS(=O)(=O)c1cccc(-c2[nH]c(=O)[nH]c2O)c1

>  <score_type>  (4) 
oracle

>  <origin>  (4) 
adg

>  <m_score__min__energy>  (4) 
-13.789999999999999

>  <m_primary>  (4) 
energy

$$$$
4:0
     RDKit          3D

 58 61  0  0  0  0  0  0  0  0999 V2000
   60.5293   29.0656   51.3552 H   0  0  0  0  0  0  0  0  0  0  0  0
   59.5200   29.4700   51.5220 C   0  0  0  0  0  0  0  0  0  0  0  0
   59.0580   29.7210   52.8180 C   0  0  0  0  0  0  0  0  0  0  0  0
   59.9360   29.4590   54.0000 C   0  0  0  0  0  0  0  0  0  0  0  0
   59.3658   29.6291   54.9252 H   0  0  0  0  0  0  0  0  0  0  0  0
   60.2872   28.4169   53.9721 H   0  0  0  0  0  0  0  0  0  0  0  0
   60.8008   30.1382   53.9721 H   0  0  0  0  0  0  0  0  0  0  0  0
   57.8120   30.2320   53.0010 N   0  0  0  0  0  0  0  0  0  0  0  0
   56.9950   30.4960   51.9440 C   0  0  0  0  0  0  0  0  0  0  0  0
   55.8040   30.9840   52.1240 N   0  0  0  0  0  0  0  0  0  0  0  0
   54.5560   30.2540   51.9110 C   0  0  0  0  0  0  0  0  0  0  0  0
   54.7243   29.4614   51.1671 H   0  0  0  0  0  0  0  0  0  0  0  0
   54.2345   29.8185   52.8686 H   0  0  0  0  0  0  0  0  0  0  0  0
   53.4570   31.1920   51.4050 C   0  0  0  0  0  0  0  0  0  0  0  0
   53.8803   32.1952   51.2487 H   0  0  0  0  0  0  0  0  0  0  0  0
   53.0594   30.7978   50.4581 H   0  0  0  0  0  0  0  0  0  0  0  0
   52.3350   31.2770   52.4090 C   0  0  0  0  0  0  0  0  0  0  0  0
   52.4700   30.6410   53.6560 C   0  0  0  0  0  0  0  0  0  0  0  0
   53.3761   30.0581   53.8780 H   0  0  0  0  0  0  0  0  0  0  0  0
   51.4590   30.7460   54.6140 C   0  0  0  0  0  0  0  0  0  0  0  0
   51.5679   30.2395   55.5844 H   0  0  0  0  0  0  0  0  0  0  0  0
   50.3110   31.4920   54.3430 C   0  0  0  0  0  0  0  0  0  0  0  0
   49.5156   31.5714   55.0987 H   0  0  0  0  0  0  0  0  0  0  0  0
   50.1720   32.1380   53.1120 C   0  0  0  0  0  0  0  0  0  0  0  0
   49.2667   32.7263   52.9015 H   0  0  0  0  0  0  0  0  0  0  0  0
   51.1790   32.0400   52.1460 C   0  0  0  0  0  0  0  0  0  0  0  0
   51.0270   32.7030   50.9340 O   0  0  0  0  0  0  0  0  0  0  0  0
   57.4330   30.2540   50.6830 N   0  0  0  0  0  0  0  0  0  0  0  0
   58.6710   29.7440   50.4380 C   0  0  0  0  0  0  0  0  0  0  0  0
   59.1000   29.5150   49.0350 C   0  0  0  0  0  0  0  0  0  0  0  0
   60.2640   30.1160   48.5200 C   0  0  0  0  0  0  0  0  0  0  0  0
   60.8602   30.7872   49.1557 H   0  0  0  0  0  0  0  0  0  0  0  0
   60.6660   29.8650   47.2070 C   0  0  0  0  0  0  0  0  0  0  0  0
   61.5798   30.3350   46.8146 H   0  0  0  0  0  0  0  0  0  0  0  0
   59.9130   29.0200   46.3900 C   0  0  0  0  0  0  0  0  0  0  0  0
   60.2400   28.8219   45.3586 H   0  0  0  0  0  0  0  0  0  0  0  0
   58.7450   28.4240   46.8760 C   0  0  0  0  0  0  0  0  0  0  0  0
   58.0170   27.5350   46.0160 N   0  0  0  0  0  0  0  0  0  0  0  0
   56.5940   27.5100   45.8330 C   0  0  0  0  0  0  0  0  0  0  0  0
   55.9130   26.5450   46.2680 O   0  0  0  0  0  0  0  0  0  0  0  0
   55.9180   28.6280   45.2490 N   0  0  0  0  0  0  0  0  0  0  0  0
   56.5380   29.6890   44.5070 C   0  0  0  0  0  0  0  0  0  0  0  0
   56.3350   29.8430   43.1240 C   0  0  0  0  0  0  0  0  0  0  0  0
   55.7048   29.1247   42.5791 H   0  0  0  0  0  0  0  0  0  0  0  0
   56.9310   30.9050   42.4400 C   0  0  0  0  0  0  0  0  0  0  0  0
   56.7793   31.0149   41.3561 H   0  0  0  0  0  0  0  0  0  0  0  0
   57.7190   31.8270   43.1310 C   0  0  0  0  0  0  0  0  0  0  0  0
   58.1940   32.6556   42.5853 H   0  0  0  0  0  0  0  0  0  0  0  0
   57.9100   31.7060   44.5130 C   0  0  0  0  0  0  0  0  0  0  0  0
   58.6970   32.6680   45.1630 O   0  0  0  0  0  0  0  0  0  0  0  0
   58.4890   33.1080   46.4990 C   0  0  0  0  0  0  0  0  0  0  0  0
   58.8518   32.3405   47.1985 H   0  0  0  0  0  0  0  0  0  0  0  0
   59.0391   34.0458   46.6660 H   0  0  0  0  0  0  0  0  0  0  0  0
   57.4151   33.2781   46.6660 H   0  0  0  0  0  0  0  0  0  0  0  0
   57.3080   30.6340   45.1990 C   0  0  0  0  0  0  0  0  0  0  0  0
   57.4430   30.5373   46.2864 H   0  0  0  0  0  0  0  0  0  0  0  0
   58.3540   28.6560   48.2070 C   0  0  0  0  0  0  0  0  0  0  0  0
   57.4559   28.1609   48.6047 H   0  0  0  0  0  0  0  0  0  0  0  0
  1  2  1  0
  2  3  1  0
  3  4  1  0
  4  5  1  0
  4  6  1  0
  4  7  1  0
  3  8  2  0
  8  9  1  0
  9 10  2  0
 10 11  1  0
 11 12  1  0
 11 13  1  0
 11 14  1  0
 14 15  1  0
 14 16  1  0
 14 17  1  0
 17 18  2  0
 18 19  1  0
 18 20  1  0
 20 21  1  0
 20 22  2  0
 22 23  1  0
 22 24  1  0
 24 25  1  0
 24 26  2  0
 26 27  1  0
  9 28  1  0
 28 29  1  0
 29 30  1  0
 30 31  2  0
 31 32  1  0
 31 33  1  0
 33 34  1  0
 33 35  2  0
 35 36  1  0
 35 37  1  0
 37 38  1  0
 38 39  1  0
 39 40  2  0
 39 41  1  0
 41 42  1  0
 42 43  2  0
 43 44  1  0
 43 45  1  0
 45 46  1  0
 45 47  2  0
 47 48  1  0
 47 49  1  0
 49 50  1  0
 50 51  1  0
 51 52  1  0
 51 53  1  0
 51 54  1  0
 49 55  2  0
 55 56  1  0
 37 57  2  0
 57 58  1  0
 29  2  2  0
 57 30  1  0
 26 17  1  0
 55 42  1  0
M  CHG  4  27  -1  28  -1  38  -1  41  -1
M  END
>  <UniqueID>  (5) 
5

>  <SMILES>  (5) 
COc1cccc([N-]C(=O)[N-]c2cccc(-c3cc(C)n/c(=N\CCc4ccccc4[O-])[n-]3)c2)c1

>  <Energy>  (5) 
69.85544244700829

>  <Genealogy>  (5) 
COc1cccc([N-]C(=O)[N-]c2cccc(-c3cc(C)nc(=NCCc4ccccc4[O-])[n-]3)c2)c1 (protonated)
COc1cccc([N-]C(=O)[N-]c2cccc(-c3cc(C)n/c(=N\CCc4ccccc4[O-])[n-]3)c2)c1 (cis-trans isomerization)
COc1cccc([N-]C(=O)[N-]c2cccc(-c3cc(C)n/c(=N\CCc4ccccc4[O-])[n-]3)c2)c1 (3D coordinates assigned)
COc1cccc([N-]C(=O)[N-]c2cccc(-c3cc(C)n/c(=N\CCc4ccccc4[O-])[n-]3)c2)c1 (optimized conformer: 69.85544244700829 kcal/mol)

>  <smiles>  (5) 
COc1cccc(NC(=O)Nc2cccc(-c3cc(C)nc(=NCCc4ccccc4O)[nH]3)c2)c1

>  <score_type>  (5) 
oracle

>  <origin>  (5) 
adg

>  <m_score__min__energy>  (5) 
-17.940000000000001

>  <m_primary>  (5) 
energy

$$$$
5:0
     RDKit          3D

 60 63  0  0  0  0  0  0  0  0999 V2000
   60.5640   28.6856   44.0413 H   0  0  0  0  0  0  0  0  0  0  0  0
   59.5570   28.6070   44.4770 C   0  0  0  0  0  0  0  0  0  0  0  0
   58.6850   29.6440   44.3640 N   0  0  0  0  0  0  0  0  0  0  0  0
   57.4330   29.5950   44.9010 C   0  0  0  0  0  0  0  0  0  0  0  0
   56.6110   30.5950   44.7730 N   0  0  0  0  0  0  0  0  0  0  0  0
   57.0270   31.9870   44.6470 C   0  0  0  0  0  0  0  0  0  0  0  0
   57.4775   32.1474   43.6564 H   0  0  0  0  0  0  0  0  0  0  0  0
   56.1524   32.6443   44.7611 H   0  0  0  0  0  0  0  0  0  0  0  0
   58.0350   32.3030   45.7130 C   0  0  0  0  0  0  0  0  0  0  0  0
   57.7320   33.2400   46.7120 C   0  0  0  0  0  0  0  0  0  0  0  0
   56.7667   33.7674   46.7024 H   0  0  0  0  0  0  0  0  0  0  0  0
   58.6630   33.4980   47.7170 C   0  0  0  0  0  0  0  0  0  0  0  0
   58.4339   34.2342   48.5015 H   0  0  0  0  0  0  0  0  0  0  0  0
   59.8910   32.8210   47.7300 C   0  0  0  0  0  0  0  0  0  0  0  0
   60.8560   33.0660   48.7720 N   0  0  0  0  0  0  0  0  0  0  0  0
   61.3590   31.9790   49.6170 C   0  0  0  0  0  0  0  0  0  0  0  0
   61.0616   32.1620   50.6601 H   0  0  0  0  0  0  0  0  0  0  0  0
   60.9344   31.0263   49.2675 H   0  0  0  0  0  0  0  0  0  0  0  0
   62.8930   31.9070   49.5310 C   0  0  0  0  0  0  0  0  0  0  0  0
   63.2725   31.4768   50.4696 H   0  0  0  0  0  0  0  0  0  0  0  0
   63.1345   31.2883   48.6542 H   0  0  0  0  0  0  0  0  0  0  0  0
   63.5480   33.2250   49.3220 N   0  0  0  0  0  0  0  0  0  0  0  0
   64.0280   33.3860   47.9390 C   0  0  0  0  0  0  0  0  0  0  0  0
   65.0708   33.7358   47.9512 H   0  0  0  0  0  0  0  0  0  0  0  0
   63.9715   32.4197   47.4164 H   0  0  0  0  0  0  0  0  0  0  0  0
   63.4002   34.1228   47.4164 H   0  0  0  0  0  0  0  0  0  0  0  0
   62.7150   34.3690   49.7510 C   0  0  0  0  0  0  0  0  0  0  0  0
   62.5107   34.2764   50.8279 H   0  0  0  0  0  0  0  0  0  0  0  0
   63.2669   35.2947   49.5309 H   0  0  0  0  0  0  0  0  0  0  0  0
   61.3770   34.4190   48.9930 C   0  0  0  0  0  0  0  0  0  0  0  0
   60.6488   34.9945   49.5833 H   0  0  0  0  0  0  0  0  0  0  0  0
   61.5411   34.8988   48.0169 H   0  0  0  0  0  0  0  0  0  0  0  0
   60.1450   31.8710   46.7280 C   0  0  0  0  0  0  0  0  0  0  0  0
   61.0941   31.3149   46.7296 H   0  0  0  0  0  0  0  0  0  0  0  0
   59.2230   31.6340   45.7540 N   0  0  0  0  0  0  0  0  0  0  0  0
   59.4390   30.9170   45.0250 H   0  0  0  0  0  0  0  0  0  0  0  0
   57.0170   28.4470   45.5840 C   0  0  0  0  0  0  0  0  0  0  0  0
   56.0156   28.4040   46.0371 H   0  0  0  0  0  0  0  0  0  0  0  0
   57.8910   27.3460   45.6870 C   0  0  0  0  0  0  0  0  0  0  0  0
   57.5240   26.1600   46.3410 O   0  0  0  0  0  0  0  0  0  0  0  0
   57.2930   24.9390   45.6920 C   0  0  0  0  0  0  0  0  0  0  0  0
   55.9770   24.6010   45.3220 C   0  0  0  0  0  0  0  0  0  0  0  0
   54.8440   25.5410   45.6200 C   0  0  0  0  0  0  0  0  0  0  0  0
   54.7258   25.6391   46.7092 H   0  0  0  0  0  0  0  0  0  0  0  0
   55.0617   26.5274   45.1845 H   0  0  0  0  0  0  0  0  0  0  0  0
   53.9148   25.1449   45.1845 H   0  0  0  0  0  0  0  0  0  0  0  0
   55.7320   23.4080   44.6280 C   0  0  0  0  0  0  0  0  0  0  0  0
   54.7066   23.1529   44.3223 H   0  0  0  0  0  0  0  0  0  0  0  0
   56.7840   22.5420   44.3230 C   0  0  0  0  0  0  0  0  0  0  0  0
   56.5240   21.3170   43.6170 C   0  0  0  0  0  0  0  0  0  0  0  0
   56.3140   20.3300   43.0500 N   0  0  0  0  0  0  0  0  0  0  0  0
   58.0860   22.8590   44.7200 C   0  0  0  0  0  0  0  0  0  0  0  0
   58.9119   22.1745   44.4766 H   0  0  0  0  0  0  0  0  0  0  0  0
   58.3490   24.0420   45.4260 C   0  0  0  0  0  0  0  0  0  0  0  0
   59.7570   24.3380   45.8620 C   0  0  0  0  0  0  0  0  0  0  0  0
   59.8061   24.3483   46.9609 H   0  0  0  0  0  0  0  0  0  0  0  0
   60.4323   23.5622   45.4721 H   0  0  0  0  0  0  0  0  0  0  0  0
   60.0628   25.3201   45.4721 H   0  0  0  0  0  0  0  0  0  0  0  0
   59.1750   27.4420   45.1460 C   0  0  0  0  0  0  0  0  0  0  0  0
   59.8814   26.6048   45.2462 H   0  0  0  0  0  0  0  0  0  0  0  0
  1  2  1  0
  2  3  1  0
  3  4  1  0
  4  5  2  0
  5  6  1  0
  6  7  1  0
  6  8  1  0
  6  9  1  0
  9 10  2  0
 10 11  1  0
 10 12  1  0
 12 13  1  0
 12 14  2  0
 14 15  1  0
 15 16  1  0
 16 17  1  0
 16 18  1  0
 16 19  1  0
 19 20  1  0
 19 21  1  0
 19 22  1  0
 22 23  1  0
 23 24  1  0
 23 25  1  0
 23 26  1  0
 22 27  1  0
 27 28  1  0
 27 29  1  0
 27 30  1  0
 30 31  1  0
 30 32  1  0
 14 33  1  0
 33 34  1  0
 33 35  2  0
 35 36  1  0
  4 37  1  0
 37 38  1  0
 37 39  2  0
 39 40  1  0
 40 41  1  0
 41 42  2  0
 42 43  1  0
 43 44  1  0
 43 45  1  0
 43 46  1  0
 42 47  1  0
 47 48  1  0
 47 49  2  0
 49 50  1  0
 50 51  3  0
 49 52  1  0
 52 53  1  0
 52 54  2  0
 54 55  1  0
 55 56  1  0
 55 57  1  0
 55 58  1  0
 39 59  1  0
 59 60  1  0
 59  2  2  0
 35  9  1  0
 54 41  1  0
 30 15  1  0
M  CHG  2   3  -1  35   1
M  END
>  <UniqueID>  (6) 
6

>  <SMILES>  (6) 
Cc1cc(C#N)cc(C)c1Oc1cc[n-]/c(=N\Cc2ccc(N3CCN(C)CC3)c[nH+]2)c1

>  <Energy>  (6) 
80.42823048390073

>  <Genealogy>  (6) 
Cc1cc(C#N)cc(C)c1Oc1cc[n-]c(=NCc2ccc(N3CCN(C)CC3)c[nH+]2)c1 (protonated)
Cc1cc(C#N)cc(C)c1Oc1cc[n-]/c(=N\Cc2ccc(N3CCN(C)CC3)c[nH+]2)c1 (cis-trans isomerization)
Cc1cc(C#N)cc(C)c1Oc1cc[n-]/c(=N\Cc2ccc(N3CCN(C)CC3)c[nH+]2)c1 (3D coordinates assigned)
Cc1cc(C#N)cc(C)c1Oc1cc[n-]/c(=N\Cc2ccc(N3CCN(C)CC3)c[nH+]2)c1 (nonaromatic ring conformer: 80.42823048390073 kcal/mol)

>  <smiles>  (6) 
Cc1cc(C#N)cc(C)c1Oc1cc[nH]c(=NCc2ccc(N3CCN(C)CC3)cn2)c1

>  <score_type>  (6) 
oracle

>  <origin>  (6) 
adg

>  <m_score__min__energy>  (6) 
-7.9699999999999998

>  <m_primary>  (6) 
energy

$$$$
6:0
     RDKit          3D

 57 60  0  0  0  0  0  0  0  0999 V2000
   61.3190   30.1380   46.2290 O   0  0  0  0  0  0  0  0  0  0  0  0
   60.4330   29.3710   45.7640 C   0  0  0  0  0  0  0  0  0  0  0  0
   60.6650   27.8910   45.7860 C   0  0  0  0  0  0  0  0  0  0  0  0
   59.3650   27.1680   46.0090 C   0  0  0  0  0  0  0  0  0  0  0  0
   58.4960   26.9310   44.9330 C   0  0  0  0  0  0  0  0  0  0  0  0
   57.2720   26.2840   45.1430 C   0  0  0  0  0  0  0  0  0  0  0  0
   56.9040   25.8620   46.4330 C   0  0  0  0  0  0  0  0  0  0  0  0
   55.6530   25.2080   46.6820 N   0  0  0  0  0  0  0  0  0  0  0  0
   54.9770   24.3110   45.7930 C   0  0  0  0  0  0  0  0  0  0  0  0
   53.7140   24.3230   45.7690 O   0  0  0  0  0  0  0  0  0  0  0  0
   55.7050   23.3410   44.9400 C   0  0  0  0  0  0  0  0  0  0  0  0
   56.9040   22.7740   45.4050 C   0  0  0  0  0  0  0  0  0  0  0  0
   57.5930   21.8520   44.6180 C   0  0  0  0  0  0  0  0  0  0  0  0
   57.0800   21.5030   43.3660 C   0  0  0  0  0  0  0  0  0  0  0  0
   55.9300   22.0710   42.9140 N   0  0  0  0  0  0  0  0  0  0  0  0
   55.2400   22.9770   43.6530 C   0  0  0  0  0  0  0  0  0  0  0  0
   54.1960   23.4950   43.1650 O   0  0  0  0  0  0  0  0  0  0  0  0
   57.7570   26.1260   47.5100 C   0  0  0  0  0  0  0  0  0  0  0  0
   58.9810   26.7750   47.3020 C   0  0  0  0  0  0  0  0  0  0  0  0
   59.2520   29.9030   45.1400 N   0  0  0  0  0  0  0  0  0  0  0  0
   58.8710   31.2870   45.1860 C   0  0  0  0  0  0  0  0  0  0  0  0
   57.8520   31.7440   44.3420 C   0  0  0  0  0  0  0  0  0  0  0  0
   57.4490   33.0800   44.3810 C   0  0  0  0  0  0  0  0  0  0  0  0
   58.0470   33.9670   45.2790 C   0  0  0  0  0  0  0  0  0  0  0  0
   59.0470   33.5200   46.1470 C   0  0  0  0  0  0  0  0  0  0  0  0
   59.7550   34.6440   47.3010 S   0  0  0  0  0  0  0  0  0  0  0  0
   58.9450   34.6080   48.5670 O   0  0  0  0  0  0  0  0  0  0  0  0
   59.7360   36.0450   46.7480 O   0  0  0  0  0  0  0  0  0  0  0  0
   61.4040   34.1690   47.6250 N   0  0  0  0  0  0  0  0  0  0  0  0
   62.0800   33.8410   46.3640 C   0  0  0  0  0  0  0  0  0  0  0  0
   63.4930   33.2990   46.6530 C   0  0  0  0  0  0  0  0  0  0  0  0
   63.5820   32.3160   47.6870 O   0  0  0  0  0  0  0  0  0  0  0  0
   62.3170   31.8770   48.1370 C   0  0  0  0  0  0  0  0  0  0  0  0
   61.4480   33.0580   48.6080 C   0  0  0  0  0  0  0  0  0  0  0  0
   59.4560   32.1810   46.1010 C   0  0  0  0  0  0  0  0  0  0  0  0
   61.0964   27.5759   44.8244 H   0  0  0  0  0  0  0  0  0  0  0  0
   61.3580   27.6470   46.6046 H   0  0  0  0  0  0  0  0  0  0  0  0
   58.7775   27.2549   43.9202 H   0  0  0  0  0  0  0  0  0  0  0  0
   56.5950   26.1050   44.2947 H   0  0  0  0  0  0  0  0  0  0  0  0
   57.2995   23.0581   46.3914 H   0  0  0  0  0  0  0  0  0  0  0  0
   58.5306   21.4041   44.9790 H   0  0  0  0  0  0  0  0  0  0  0  0
   57.6084   20.7659   42.7435 H   0  0  0  0  0  0  0  0  0  0  0  0
   57.4649   25.8222   48.5261 H   0  0  0  0  0  0  0  0  0  0  0  0
   59.6448   26.9779   48.1554 H   0  0  0  0  0  0  0  0  0  0  0  0
   58.6840   29.2590   44.5430 H   0  0  0  0  0  0  0  0  0  0  0  0
   57.3660   31.0464   43.6440 H   0  0  0  0  0  0  0  0  0  0  0  0
   56.6588   33.4349   43.7030 H   0  0  0  0  0  0  0  0  0  0  0  0
   57.7301   35.0201   45.3031 H   0  0  0  0  0  0  0  0  0  0  0  0
   61.4990   33.0771   45.8265 H   0  0  0  0  0  0  0  0  0  0  0  0
   62.1590   34.7490   45.7482 H   0  0  0  0  0  0  0  0  0  0  0  0
   63.8784   32.8497   45.7259 H   0  0  0  0  0  0  0  0  0  0  0  0
   64.0770   34.1607   47.0085 H   0  0  0  0  0  0  0  0  0  0  0  0
   61.8031   31.3608   47.3127 H   0  0  0  0  0  0  0  0  0  0  0  0
   62.4688   31.1973   48.9885 H   0  0  0  0  0  0  0  0  0  0  0  0
   60.4229   32.6954   48.7744 H   0  0  0  0  0  0  0  0  0  0  0  0
   61.8973   33.4514   49.5318 H   0  0  0  0  0  0  0  0  0  0  0  0
   60.2405   31.8260   46.7855 H   0  0  0  0  0  0  0  0  0  0  0  0
  1  2  2  0
  2  3  1  0
  3  4  1  0
  4  5  2  0
  5  6  1  0
  6  7  2  0
  7  8  1  0
  8  9  1  0
  9 10  2  0
  9 11  1  0
 11 12  2  0
 12 13  1  0
 13 14  2  0
 14 15  1  0
 15 16  1  0
 16 17  2  0
  7 18  1  0
 18 19  2  0
  2 20  1  0
 20 21  1  0
 21 22  2  0
 22 23  1  0
 23 24  2  0
 24 25  1  0
 25 26  1  0
 26 27  2  0
 26 28  2  0
 26 29  1  0
 29 30  1  0
 30 31  1  0
 31 32  1  0
 32 33  1  0
 33 34  1  0
 25 35  2  0
 19  4  1  0
 35 21  1  0
 16 11  1  0
 34 29  1  0
  3 36  1  0
  3 37  1  0
  5 38  1  0
  6 39  1  0
 12 40  1  0
 13 41  1  0
 14 42  1  0
 18 43  1  0
 19 44  1  0
 20 45  1  0
 22 46  1  0
 23 47  1  0
 24 48  1  0
 30 49  1  0
 30 50  1  0
 31 51  1  0
 31 52  1  0
 33 53  1  0
 33 54  1  0
 34 55  1  0
 34 56  1  0
 35 57  1  0
M  CHG  2   8  -1  15  -1
M  END
>  <UniqueID>  (7) 
7

>  <SMILES>  (7) 
O=C(Cc1ccc([N-]C(=O)c2ccc[n-]c2=O)cc1)Nc1cccc(S(=O)(=O)N2CCOCC2)c1

>  <Energy>  (7) 
82.97496721333074

>  <Genealogy>  (7) 
O=C(Cc1ccc([N-]C(=O)c2ccc[n-]c2=O)cc1)Nc1cccc(S(=O)(=O)N2CCOCC2)c1 (protonated)
O=C(Cc1ccc([N-]C(=O)c2ccc[n-]c2=O)cc1)Nc1cccc(S(=O)(=O)N2CCOCC2)c1 (3D coordinates assigned)
O=C(Cc1ccc([N-]C(=O)c2ccc[n-]c2=O)cc1)Nc1cccc(S(=O)(=O)N2CCOCC2)c1 (nonaromatic ring conformer: 82.97496721333074 kcal/mol)

>  <smiles>  (7) 
O=C(Cc1ccc(NC(=O)c2ccc[nH]c2=O)cc1)Nc1cccc(S(=O)(=O)N2CCOCC2)c1

>  <score_type>  (7) 
oracle

>  <origin>  (7) 
adg

>  <m_score__min__energy>  (7) 
-14.710000000000001

>  <m_primary>  (7) 
energy

$$$$
7:0
     RDKit          3D

 48 50  0  0  0  0  0  0  0  0999 V2000
   58.6490   28.4930   52.9470 O   0  0  0  0  0  0  0  0  0  0  0  0
   58.2930   29.4900   52.2610 C   0  0  0  0  0  0  0  0  0  0  0  0
   57.0940   30.2770   52.6720 C   0  0  0  0  0  0  0  0  0  0  0  0
   56.0620   30.1460   51.6480 N   0  0  0  0  0  0  0  0  0  0  0  0
   54.5380   29.7760   52.3940 S   0  0  0  0  0  0  0  0  0  0  0  0
   54.3380   28.2860   52.3930 O   0  0  0  0  0  0  0  0  0  0  0  0
   54.5390   30.2560   53.8200 O   0  0  0  0  0  0  0  0  0  0  0  0
   53.2220   30.5330   51.4980 C   0  0  0  0  0  0  0  0  0  0  0  0
   52.7800   29.9630   50.2950 C   0  0  0  0  0  0  0  0  0  0  0  0
   51.7510   30.5670   49.5670 C   0  0  0  0  0  0  0  0  0  0  0  0
   51.1610   31.7470   50.0330 C   0  0  0  0  0  0  0  0  0  0  0  0
   50.1390   32.3440   49.3050 O   0  0  0  0  0  0  0  0  0  0  0  0
   51.6020   32.3240   51.2310 C   0  0  0  0  0  0  0  0  0  0  0  0
   51.0210   33.4980   51.6970 O   0  0  0  0  0  0  0  0  0  0  0  0
   52.6310   31.7180   51.9610 C   0  0  0  0  0  0  0  0  0  0  0  0
   59.0170   29.8720   51.0850 N   0  0  0  0  0  0  0  0  0  0  0  0
   59.3050   31.2090   50.6490 C   0  0  0  0  0  0  0  0  0  0  0  0
   60.0230   32.1180   51.4480 C   0  0  0  0  0  0  0  0  0  0  0  0
   60.2640   33.4160   50.9910 C   0  0  0  0  0  0  0  0  0  0  0  0
   59.7810   33.8240   49.7450 C   0  0  0  0  0  0  0  0  0  0  0  0
   59.0420   32.9350   48.9530 C   0  0  0  0  0  0  0  0  0  0  0  0
   58.3990   33.4380   47.3930 S   0  0  0  0  0  0  0  0  0  0  0  0
   58.8750   34.8340   47.1030 O   0  0  0  0  0  0  0  0  0  0  0  0
   56.8940   33.4300   47.4220 O   0  0  0  0  0  0  0  0  0  0  0  0
   58.9670   32.3450   46.1540 N   0  0  0  0  0  0  0  0  0  0  0  0
   58.9350   30.9410   46.6240 C   0  0  0  0  0  0  0  0  0  0  0  0
   57.7710   30.1470   46.0040 C   0  0  0  0  0  0  0  0  0  0  0  0
   57.8050   30.1220   44.5840 O   0  0  0  0  0  0  0  0  0  0  0  0
   58.3030   31.3210   43.9990 C   0  0  0  0  0  0  0  0  0  0  0  0
   58.2010   32.5540   44.9100 C   0  0  0  0  0  0  0  0  0  0  0  0
   58.8010   31.6340   49.4130 C   0  0  0  0  0  0  0  0  0  0  0  0
   56.7128   29.8940   53.6301 H   0  0  0  0  0  0  0  0  0  0  0  0
   57.3681   31.3359   52.7882 H   0  0  0  0  0  0  0  0  0  0  0  0
   53.2446   29.0378   49.9234 H   0  0  0  0  0  0  0  0  0  0  0  0
   51.4045   30.1140   48.6264 H   0  0  0  0  0  0  0  0  0  0  0  0
   52.9774   32.1725   52.9009 H   0  0  0  0  0  0  0  0  0  0  0  0
   60.3954   31.8058   52.4348 H   0  0  0  0  0  0  0  0  0  0  0  0
   60.8359   34.1192   51.6142 H   0  0  0  0  0  0  0  0  0  0  0  0
   59.9811   34.8441   49.3854 H   0  0  0  0  0  0  0  0  0  0  0  0
   59.8822   30.4538   46.3494 H   0  0  0  0  0  0  0  0  0  0  0  0
   58.7927   30.9530   47.7147 H   0  0  0  0  0  0  0  0  0  0  0  0
   57.8179   29.1119   46.3732 H   0  0  0  0  0  0  0  0  0  0  0  0
   56.8381   30.6491   46.3001 H   0  0  0  0  0  0  0  0  0  0  0  0
   59.3619   31.1668   43.7439 H   0  0  0  0  0  0  0  0  0  0  0  0
   57.6785   31.5263   43.1170 H   0  0  0  0  0  0  0  0  0  0  0  0
   58.6041   33.4295   44.3799 H   0  0  0  0  0  0  0  0  0  0  0  0
   57.1443   32.7185   45.1674 H   0  0  0  0  0  0  0  0  0  0  0  0
   58.2103   30.9394   48.7977 H   0  0  0  0  0  0  0  0  0  0  0  0
  1  2  2  0
  2  3  1  0
  3  4  1  0
  4  5  1  0
  5  6  2  0
  5  7  2  0
  5  8  1  0
  8  9  2  0
  9 10  1  0
 10 11  2  0
 11 12  1  0
 11 13  1  0
 13 14  1  0
 13 15  2  0
  2 16  1  0
 16 17  1  0
 17 18  2  0
 18 19  1  0
 19 20  2  0
 20 21  1  0
 21 22  1  0
 22 23  2  0
 22 24  2  0
 22 25  1  0
 25 26  1  0
 26 27  1  0
 27 28  1  0
 28 29  1  0
 29 30  1  0
 21 31  2  0
 15  8  1  0
 31 17  1  0
 30 25  1  0
  3 32  1  0
  3 33  1  0
  9 34  1  0
 10 35  1  0
 15 36  1  0
 18 37  1  0
 19 38  1  0
 20 39  1  0
 26 40  1  0
 26 41  1  0
 27 42  1  0
 27 43  1  0
 29 44  1  0
 29 45  1  0
 30 46  1  0
 30 47  1  0
 31 48  1  0
M  CHG  4   4  -1  12  -1  14  -1  16  -1
M  END
>  <UniqueID>  (8) 
8

>  <SMILES>  (8) 
O=C(C[N-]S(=O)(=O)c1ccc([O-])c([O-])c1)[N-]c1cccc(S(=O)(=O)N2CCOCC2)c1

>  <Energy>  (8) 
62.44513541411284

>  <Genealogy>  (8) 
O=C(C[N-]S(=O)(=O)c1ccc([O-])c([O-])c1)[N-]c1cccc(S(=O)(=O)N2CCOCC2)c1 (protonated)
O=C(C[N-]S(=O)(=O)c1ccc([O-])c([O-])c1)[N-]c1cccc(S(=O)(=O)N2CCOCC2)c1 (3D coordinates assigned)
O=C(C[N-]S(=O)(=O)c1ccc([O-])c([O-])c1)[N-]c1cccc(S(=O)(=O)N2CCOCC2)c1 (nonaromatic ring conformer: 62.44513541411284 kcal/mol)

>  <smiles>  (8) 
O=C(CNS(=O)(=O)c1ccc(O)c(O)c1)Nc1cccc(S(=O)(=O)N2CCOCC2)c1

>  <score_type>  (8) 
oracle

>  <origin>  (8) 
adg

>  <m_score__min__energy>  (8) 
-19.530000000000001

>  <m_primary>  (8) 
energy

$$$$
8:0
     RDKit          3D

 59 63  0  0  0  0  0  0  0  0999 V2000
   62.9290   31.3850   47.1230 C   0  0  0  0  0  0  0  0  0  0  0  0
   61.4580   31.7710   47.1730 C   0  0  0  0  0  0  0  0  0  0  0  0
   60.5480   30.7980   46.7290 C   0  0  0  0  0  0  0  0  0  0  0  0
   61.0180   29.4930   46.6210 O   0  0  0  0  0  0  0  0  0  0  0  0
   59.2470   31.0700   46.2930 C   0  0  0  0  0  0  0  0  0  0  0  0
   58.5180   32.2300   46.4880 C   0  0  0  0  0  0  0  0  0  0  0  0
   57.3470   32.1480   45.8150 N   0  0  0  0  0  0  0  0  0  0  0  0
   57.3860   30.9470   45.2230 C   0  0  0  0  0  0  0  0  0  0  0  0
   56.4550   30.5210   44.4880 O   0  0  0  0  0  0  0  0  0  0  0  0
   58.5080   30.2530   45.4900 N   0  0  0  0  0  0  0  0  0  0  0  0
   58.8290   28.9280   44.9290 C   0  0  0  0  0  0  0  0  0  0  0  0
   58.1890   27.8220   45.7340 C   0  0  0  0  0  0  0  0  0  0  0  0
   58.9560   27.0690   46.6400 C   0  0  0  0  0  0  0  0  0  0  0  0
   58.3770   26.0100   47.3410 C   0  0  0  0  0  0  0  0  0  0  0  0
   57.0360   25.6760   47.1340 C   0  0  0  0  0  0  0  0  0  0  0  0
   56.2610   26.4050   46.2150 C   0  0  0  0  0  0  0  0  0  0  0  0
   54.8880   26.0910   45.9470 N   0  0  0  0  0  0  0  0  0  0  0  0
   54.2480   24.5070   45.6250 S   0  0  0  0  0  0  0  0  0  0  0  0
   55.1260   23.7590   44.2670 C   0  0  0  0  0  0  0  0  0  0  0  0
   52.8020   24.6390   45.2410 O   0  0  0  0  0  0  0  0  0  0  0  0
   54.3460   23.6430   46.8540 O   0  0  0  0  0  0  0  0  0  0  0  0
   56.8460   27.4710   45.5190 C   0  0  0  0  0  0  0  0  0  0  0  0
   58.7570   33.2800   47.3680 C   0  0  0  0  0  0  0  0  0  0  0  0
   57.8350   34.1390   47.4710 O   0  0  0  0  0  0  0  0  0  0  0  0
   59.8760   33.4160   48.1480 N   0  0  0  0  0  0  0  0  0  0  0  0
   59.7650   34.3130   49.3330 C   0  0  0  0  0  0  0  0  0  0  0  0
   60.1200   33.5710   50.6120 C   0  0  0  0  0  0  0  0  0  0  0  0
   61.3750   33.8120   51.1960 C   0  0  0  0  0  0  0  0  0  0  0  0
   61.7460   33.1740   52.3800 C   0  0  0  0  0  0  0  0  0  0  0  0
   60.8830   32.2750   52.9990 C   0  0  0  0  0  0  0  0  0  0  0  0
   59.6310   32.0000   52.4380 C   0  0  0  0  0  0  0  0  0  0  0  0
   58.7740   31.0770   53.0570 C   0  0  0  0  0  0  0  0  0  0  0  0
   57.5250   30.7920   52.5050 C   0  0  0  0  0  0  0  0  0  0  0  0
   57.1210   31.4240   51.3330 C   0  0  0  0  0  0  0  0  0  0  0  0
   57.9650   32.3410   50.6960 C   0  0  0  0  0  0  0  0  0  0  0  0
   59.2320   32.6490   51.2370 C   0  0  0  0  0  0  0  0  0  0  0  0
   61.1370   33.0040   47.7840 C   0  0  0  0  0  0  0  0  0  0  0  0
   62.1110   33.7420   48.1050 O   0  0  0  0  0  0  0  0  0  0  0  0
   63.3164   31.2833   48.1475 H   0  0  0  0  0  0  0  0  0  0  0  0
   63.0390   30.4276   46.5927 H   0  0  0  0  0  0  0  0  0  0  0  0
   63.4950   32.1650   46.5927 H   0  0  0  0  0  0  0  0  0  0  0  0
   58.4596   28.8779   43.8941 H   0  0  0  0  0  0  0  0  0  0  0  0
   59.9203   28.7930   44.9594 H   0  0  0  0  0  0  0  0  0  0  0  0
   60.0165   27.3153   46.7971 H   0  0  0  0  0  0  0  0  0  0  0  0
   58.9793   25.4354   48.0600 H   0  0  0  0  0  0  0  0  0  0  0  0
   56.5859   24.8411   47.6911 H   0  0  0  0  0  0  0  0  0  0  0  0
   55.9084   23.0925   44.6589 H   0  0  0  0  0  0  0  0  0  0  0  0
   54.4234   23.1777   43.6518 H   0  0  0  0  0  0  0  0  0  0  0  0
   55.5883   24.5451   43.6518 H   0  0  0  0  0  0  0  0  0  0  0  0
   56.2455   28.0407   44.7945 H   0  0  0  0  0  0  0  0  0  0  0  0
   60.4525   35.1624   49.2071 H   0  0  0  0  0  0  0  0  0  0  0  0
   58.7262   34.6667   49.4093 H   0  0  0  0  0  0  0  0  0  0  0  0
   62.0733   34.5120   50.7140 H   0  0  0  0  0  0  0  0  0  0  0  0
   62.7287   33.3834   52.8278 H   0  0  0  0  0  0  0  0  0  0  0  0
   61.1861   31.7787   53.9327 H   0  0  0  0  0  0  0  0  0  0  0  0
   59.0893   30.5750   53.9836 H   0  0  0  0  0  0  0  0  0  0  0  0
   56.8592   30.0673   52.9964 H   0  0  0  0  0  0  0  0  0  0  0  0
   56.1325   31.2016   50.9046 H   0  0  0  0  0  0  0  0  0  0  0  0
   57.6378   32.8264   49.7647 H   0  0  0  0  0  0  0  0  0  0  0  0
  1  2  1  0
  2  3  2  0
  3  4  1  0
  3  5  1  0
  5  6  2  0
  6  7  1  0
  7  8  1  0
  8  9  2  0
  8 10  1  0
 10 11  1  0
 11 12  1  0
 12 13  2  0
 13 14  1  0
 14 15  2  0
 15 16  1  0
 16 17  1  0
 17 18  1  0
 18 19  1  0
 18 20  2  0
 18 21  2  0
 16 22  2  0
  6 23  1  0
 23 24  2  0
 23 25  1  0
 25 26  1  0
 26 27  1  0
 27 28  2  0
 28 29  1  0
 29 30  2  0
 30 31  1  0
 31 32  2  0
 32 33  1  0
 33 34  2  0
 34 35  1  0
 35 36  2  0
 25 37  1  0
 37 38  2  0
 37  2  1  0
 10  5  1  0
 22 12  1  0
 36 27  1  0
 36 31  1  0
  1 39  1  0
  1 40  1  0
  1 41  1  0
 11 42  1  0
 11 43  1  0
 13 44  1  0
 14 45  1  0
 15 46  1  0
 19 47  1  0
 19 48  1  0
 19 49  1  0
 22 50  1  0
 26 51  1  0
 26 52  1  0
 28 53  1  0
 29 54  1  0
 30 55  1  0
 32 56  1  0
 33 57  1  0
 34 58  1  0
 35 59  1  0
M  CHG  3   4  -1   7  -1  17  -1
M  END
>  <UniqueID>  (9) 
9

>  <SMILES>  (9) 
Cc1c([O-])c2c([n-]c(=O)n2Cc2cccc([N-]S(C)(=O)=O)c2)c(=O)n(Cc2cccc3ccccc23)c1=O

>  <Energy>  (9) 
145.20740482035674

>  <Genealogy>  (9) 
Cc1c([O-])c2c([n-]c(=O)n2Cc2cccc([N-]S(C)(=O)=O)c2)c(=O)n(Cc2cccc3ccccc23)c1=O (protonated)
Cc1c([O-])c2c([n-]c(=O)n2Cc2cccc([N-]S(C)(=O)=O)c2)c(=O)n(Cc2cccc3ccccc23)c1=O (3D coordinates assigned)
Cc1c([O-])c2c([n-]c(=O)n2Cc2cccc([N-]S(C)(=O)=O)c2)c(=O)n(Cc2cccc3ccccc23)c1=O (optimized conformer: 145.20740482035674 kcal/mol)

>  <smiles>  (9) 
Cc1c(O)c2c([nH]c(=O)n2Cc2cccc(NS(C)(=O)=O)c2)c(=O)n(Cc2cccc3ccccc23)c1=O

>  <score_type>  (9) 
oracle

>  <origin>  (9) 
adg

>  <m_score__min__energy>  (9) 
-13.609999999999999

>  <m_primary>  (9) 
energy

$$$$
9:0
     RDKit          3D

 53 56  0  0  1  0  0  0  0  0999 V2000
   57.4180   34.2150   44.8040 C   0  0  0  0  0  0  0  0  0  0  0  0
   58.3230   33.2690   44.0550 C   0  0  0  0  0  0  0  0  0  0  0  0
   57.8170   31.8950   44.2320 C   0  0  0  0  0  0  0  0  0  0  0  0
   57.0830   31.3700   43.2140 N   0  0  0  0  0  0  0  0  0  0  0  0
   56.5810   30.1240   43.2590 C   0  0  0  0  0  0  0  0  0  0  0  0
   55.8970   29.7010   42.2520 N   0  0  0  0  0  0  0  0  0  0  0  0
   56.8270   29.4000   44.3540 N   0  0  0  0  0  0  0  0  0  0  0  0
   57.5580   29.8820   45.4040 C   0  0  0  0  0  0  0  0  0  0  0  0
   57.7290   29.0940   46.3800 N   0  0  0  0  0  0  0  0  0  0  0  0
   58.8000   28.1570   46.4100 C   0  0  0  0  0  0  0  0  0  0  0  0
   59.3340   28.4080   47.8300 C   0  0  0  0  0  0  0  0  0  0  0  0
   58.8700   29.4650   48.5740 C   0  0  0  0  0  0  0  0  0  0  0  0
   59.3710   29.6570   49.8410 C   0  0  0  0  0  0  0  0  0  0  0  0
   60.3160   28.7640   50.2830 C   0  0  0  0  0  0  0  0  0  0  0  0
   60.7910   27.7020   49.5550 C   0  0  0  0  0  0  0  0  0  0  0  0
   60.2950   27.5120   48.3000 C   0  0  0  0  0  0  0  0  0  0  0  0
   60.7440   26.3840   47.4240 C   0  0  0  0  0  0  0  0  0  0  0  0
   58.0760   31.1360   45.3860 C   0  0  0  0  0  0  0  0  0  0  0  0
   58.8460   31.7890   46.4140 C   0  0  0  0  0  0  0  0  0  0  0  0
   58.1980   32.5600   47.4030 C   0  0  0  0  0  0  0  0  0  0  0  0
   58.9080   33.2590   48.3510 C   0  0  0  0  0  0  0  0  0  0  0  0
   60.2840   33.2520   48.3950 C   0  0  0  0  0  0  0  0  0  0  0  0
   60.9510   33.9600   49.3540 C   0  0  0  0  0  0  0  0  0  0  0  0
   62.3220   33.9530   49.3980 C   0  0  0  0  0  0  0  0  0  0  0  0
   62.9900   34.6840   50.3880 O   0  0  0  0  0  0  0  0  0  0  0  0
   63.0210   33.2100   48.4470 C   0  0  0  0  0  0  0  0  0  0  0  0
   62.3130   32.4970   47.4790 C   0  0  0  0  0  0  0  0  0  0  0  0
   60.9340   32.5060   47.4360 C   0  0  0  0  0  0  0  0  0  0  0  0
   60.2240   31.8070   46.4890 C   0  0  0  0  0  0  0  0  0  0  0  0
   57.5540   34.0728   45.8863 H   0  0  0  0  0  0  0  0  0  0  0  0
   57.6690   35.2519   44.5360 H   0  0  0  0  0  0  0  0  0  0  0  0
   56.3710   34.0102   44.5360 H   0  0  0  0  0  0  0  0  0  0  0  0
   58.3265   33.5278   42.9859 H   0  0  0  0  0  0  0  0  0  0  0  0
   59.3495   33.3445   44.4430 H   0  0  0  0  0  0  0  0  0  0  0  0
   56.8980   31.9590   42.3520 H   0  0  0  0  0  0  0  0  0  0  0  0
   55.5040   28.7360   42.3200 H   0  0  0  0  0  0  0  0  0  0  0  0
   56.4340   28.4320   44.3810 H   0  0  0  0  0  0  0  0  0  0  0  0
   58.4426   27.1242   46.2848 H   0  0  0  0  0  0  0  0  0  0  0  0
   59.5429   28.2764   45.6076 H   0  0  0  0  0  0  0  0  0  0  0  0
   58.1104   30.1468   48.1638 H   0  0  0  0  0  0  0  0  0  0  0  0
   59.0292   30.4901   50.4728 H   0  0  0  0  0  0  0  0  0  0  0  0
   60.7220   28.9107   51.2948 H   0  0  0  0  0  0  0  0  0  0  0  0
   61.5500   27.0239   49.9723 H   0  0  0  0  0  0  0  0  0  0  0  0
   61.0784   25.5439   48.0505 H   0  0  0  0  0  0  0  0  0  0  0  0
   59.9073   26.0575   46.7889 H   0  0  0  0  0  0  0  0  0  0  0  0
   61.5762   26.7218   46.7889 H   0  0  0  0  0  0  0  0  0  0  0  0
   57.0989   32.6028   47.4158 H   0  0  0  0  0  0  0  0  0  0  0  0
   58.3566   33.8448   49.1012 H   0  0  0  0  0  0  0  0  0  0  0  0
   60.3842   34.5404   50.0969 H   0  0  0  0  0  0  0  0  0  0  0  0
   63.5210   34.1830   51.0890 H   0  0  0  0  0  0  0  0  0  0  0  0
   64.1207   33.1863   48.4600 H   0  0  0  0  0  0  0  0  0  0  0  0
   62.8686   31.9126   46.7308 H   0  0  0  0  0  0  0  0  0  0  0  0
   60.7890   31.2262   45.7451 H   0  0  0  0  0  0  0  0  0  0  0  0
  1  2  1  0
  2  3  1  0
  3  4  1  0
  4  5  1  0
  5  6  2  3
  5  7  1  0
  7  8  1  0
  8  9  2  0
  9 10  1  0
 10 11  1  0
 11 12  2  0
 12 13  1  0
 13 14  2  0
 14 15  1  0
 15 16  2  0
 16 17  1  0
  8 18  1  0
 18 19  1  0
 19 20  2  0
 20 21  1  0
 21 22  2  0
 22 23  1  0
 23 24  2  0
 24 25  1  0
 24 26  1  0
 26 27  2  0
 27 28  1  0
 28 29  2  0
 18  3  2  0
 29 19  1  0
 16 11  1  0
 28 22  1  0
  1 30  1  0
  1 31  1  0
  1 32  1  0
  2 33  1  0
  2 34  1  0
  4 35  1  0
  6 36  1  0
  7 37  1  0
 10 38  1  0
 10 39  1  0
 12 40  1  0
 13 41  1  0
 14 42  1  0
 15 43  1  0
 17 44  1  0
 17 45  1  0
 17 46  1  0
 20 47  1  0
 21 48  1  0
 23 49  1  0
 25 50  1  0
 26 51  1  0
 27 52  1  0
 29 53  1  0
M  END
>  <smiles>  (10) 
CCc1[nH]c(=N)[nH]c(=NCc2ccccc2C)c1-c1ccc2cc(O)ccc2c1

>  <score_type>  (10) 
oracle

>  <origin>  (10) 
adg

>  <m_score__min__energy>  (10) 
-8.5600000000000005

>  <m_primary>  (10) 
energy

$$$$
10:0
     RDKit          3D

 47 50  0  0  0  0  0  0  0  0999 V2000
   55.7220   30.4480   52.4140 C   0  0  0  0  0  0  0  0  0  0  0  0
   56.9970   29.9480   52.0210 O   0  0  0  0  0  0  0  0  0  0  0  0
   57.8870   30.6270   51.1740 C   0  0  0  0  0  0  0  0  0  0  0  0
   58.1090   32.0130   51.2680 C   0  0  0  0  0  0  0  0  0  0  0  0
   59.0030   32.6440   50.3990 C   0  0  0  0  0  0  0  0  0  0  0  0
   59.7070   31.8980   49.4440 C   0  0  0  0  0  0  0  0  0  0  0  0
   60.6040   32.5810   48.4920 C   0  0  0  0  0  0  0  0  0  0  0  0
   61.9730   32.6280   48.8080 C   0  0  0  0  0  0  0  0  0  0  0  0
   62.8810   33.2480   47.9500 C   0  0  0  0  0  0  0  0  0  0  0  0
   62.4350   33.8220   46.7610 C   0  0  0  0  0  0  0  0  0  0  0  0
   61.0810   33.7770   46.4270 C   0  0  0  0  0  0  0  0  0  0  0  0
   60.1490   33.1660   47.2820 C   0  0  0  0  0  0  0  0  0  0  0  0
   58.4600   33.1000   46.7390 S   0  0  0  0  0  0  0  0  0  0  0  0
   57.5130   32.8420   47.8750 O   0  0  0  0  0  0  0  0  0  0  0  0
   58.0920   34.4240   46.1300 O   0  0  0  0  0  0  0  0  0  0  0  0
   58.2820   31.8720   45.5320 N   0  0  0  0  0  0  0  0  0  0  0  0
   58.8570   30.5770   45.6980 C   0  0  0  0  0  0  0  0  0  0  0  0
   60.2170   30.4840   46.0180 C   0  0  0  0  0  0  0  0  0  0  0  0
   60.8100   29.2390   46.2290 C   0  0  0  0  0  0  0  0  0  0  0  0
   60.0470   28.0750   46.1390 C   0  0  0  0  0  0  0  0  0  0  0  0
   58.6820   28.1440   45.8220 C   0  0  0  0  0  0  0  0  0  0  0  0
   58.0870   29.4000   45.5560 C   0  0  0  0  0  0  0  0  0  0  0  0
   56.6700   29.4150   45.1150 C   0  0  0  0  0  0  0  0  0  0  0  0
   56.1620   30.4300   44.5700 O   0  0  0  0  0  0  0  0  0  0  0  0
   55.8880   28.2280   45.2500 N   0  0  0  0  0  0  0  0  0  0  0  0
   56.4070   27.0870   45.9940 C   0  0  0  0  0  0  0  0  0  0  0  0
   57.8880   26.8660   45.6630 C   0  0  0  0  0  0  0  0  0  0  0  0
   59.4620   30.5220   49.3270 C   0  0  0  0  0  0  0  0  0  0  0  0
   58.5700   29.8910   50.1980 C   0  0  0  0  0  0  0  0  0  0  0  0
   55.6602   30.4722   53.5120 H   0  0  0  0  0  0  0  0  0  0  0  0
   55.5886   31.4650   52.0167 H   0  0  0  0  0  0  0  0  0  0  0  0
   54.9328   29.7927   52.0167 H   0  0  0  0  0  0  0  0  0  0  0  0
   57.5765   32.6025   52.0289 H   0  0  0  0  0  0  0  0  0  0  0  0
   59.1549   33.7315   50.4648 H   0  0  0  0  0  0  0  0  0  0  0  0
   62.3319   32.1709   49.7419 H   0  0  0  0  0  0  0  0  0  0  0  0
   63.9488   33.2839   48.2117 H   0  0  0  0  0  0  0  0  0  0  0  0
   63.1515   34.3113   46.0848 H   0  0  0  0  0  0  0  0  0  0  0  0
   60.7393   34.2255   45.4825 H   0  0  0  0  0  0  0  0  0  0  0  0
   60.8219   31.3988   46.1036 H   0  0  0  0  0  0  0  0  0  0  0  0
   61.8821   29.1752   46.4670 H   0  0  0  0  0  0  0  0  0  0  0  0
   60.5181   27.0972   46.3176 H   0  0  0  0  0  0  0  0  0  0  0  0
   56.3005   27.2778   47.0721 H   0  0  0  0  0  0  0  0  0  0  0  0
   55.8391   26.1878   45.7129 H   0  0  0  0  0  0  0  0  0  0  0  0
   58.2971   26.1029   46.3415 H   0  0  0  0  0  0  0  0  0  0  0  0
   57.9651   26.5366   44.6163 H   0  0  0  0  0  0  0  0  0  0  0  0
   59.9734   29.9381   48.5476 H   0  0  0  0  0  0  0  0  0  0  0  0
   58.4029   28.8068   50.1163 H   0  0  0  0  0  0  0  0  0  0  0  0
  1  2  1  0
  2  3  1  0
  3  4  2  0
  4  5  1  0
  5  6  2  0
  6  7  1  0
  7  8  2  0
  8  9  1  0
  9 10  2  0
 10 11  1  0
 11 12  2  0
 12 13  1  0
 13 14  2  0
 13 15  2  0
 13 16  1  0
 16 17  1  0
 17 18  2  0
 18 19  1  0
 19 20  2  0
 20 21  1  0
 21 22  2  0
 22 23  1  0
 23 24  2  0
 23 25  1  0
 25 26  1  0
 26 27  1  0
  6 28  1  0
 28 29  2  0
 29  3  1  0
 12  7  1  0
 22 17  1  0
 27 21  1  0
  1 30  1  0
  1 31  1  0
  1 32  1  0
  4 33  1  0
  5 34  1  0
  8 35  1  0
  9 36  1  0
 10 37  1  0
 11 38  1  0
 18 39  1  0
 19 40  1  0
 20 41  1  0
 26 42  1  0
 26 43  1  0
 27 44  1  0
 27 45  1  0
 28 46  1  0
 29 47  1  0
M  CHG  2  16  -1  25  -1
M  END
>  <UniqueID>  (11) 
10

>  <SMILES>  (11) 
COc1ccc(-c2ccccc2S(=O)(=O)[N-]c2cccc3c2C(=O)[N-]CC3)cc1

>  <Energy>  (11) 
67.7849154158227

>  <Genealogy>  (11) 
COc1ccc(-c2ccccc2S(=O)(=O)[N-]c2cccc3c2C(=O)[N-]CC3)cc1 (protonated)
COc1ccc(-c2ccccc2S(=O)(=O)[N-]c2cccc3c2C(=O)[N-]CC3)cc1 (3D coordinates assigned)
COc1ccc(-c2ccccc2S(=O)(=O)[N-]c2cccc3c2C(=O)[N-]CC3)cc1 (nonaromatic ring conformer: 67.7849154158227 kcal/mol)

>  <smiles>  (11) 
COc1ccc(-c2ccccc2S(=O)(=O)Nc2cccc3c2C(=O)NCC3)cc1

>  <score_type>  (11) 
oracle

>  <origin>  (11) 
adg

>  <m_score__min__energy>  (11) 
-12.35

>  <m_primary>  (11) 
energy

$$$$
11:0
     RDKit          3D

 55 58  0  0  0  0  0  0  0  0999 V2000
   60.9000   27.8640   50.3900 O   0  0  0  0  0  0  0  0  0  0  0  0
   61.3190   29.0540   50.3770 C   0  0  0  0  0  0  0  0  0  0  0  0
   61.9790   29.6220   51.5980 C   0  0  0  0  0  0  0  0  0  0  0  0
   60.7930   29.6130   52.9920 S   0  0  0  0  0  0  0  0  0  0  0  0
   59.3800   30.1770   52.0290 C   0  0  0  0  0  0  0  0  0  0  0  0
   58.3320   29.3790   51.7230 N   0  0  0  0  0  0  0  0  0  0  0  0
   57.4530   30.1220   51.0580 N   0  0  0  0  0  0  0  0  0  0  0  0
   57.9830   31.3620   50.9870 C   0  0  0  0  0  0  0  0  0  0  0  0
   57.4030   32.3370   50.4300 O   0  0  0  0  0  0  0  0  0  0  0  0
   59.1950   31.4400   51.5780 N   0  0  0  0  0  0  0  0  0  0  0  0
   60.0510   32.6250   51.7360 C   0  0  0  0  0  0  0  0  0  0  0  0
   60.7780   33.0040   50.4590 C   0  0  0  0  0  0  0  0  0  0  0  0
   60.0220   33.4000   49.3400 C   0  0  0  0  0  0  0  0  0  0  0  0
   60.6480   33.6390   48.1050 C   0  0  0  0  0  0  0  0  0  0  0  0
   62.0270   33.4790   47.9760 C   0  0  0  0  0  0  0  0  0  0  0  0
   62.7870   33.0600   49.0760 C   0  0  0  0  0  0  0  0  0  0  0  0
   62.1660   32.8070   50.3060 C   0  0  0  0  0  0  0  0  0  0  0  0
   61.1520   29.8770   49.2100 N   0  0  0  0  0  0  0  0  0  0  0  0
   60.1770   29.5930   48.1900 C   0  0  0  0  0  0  0  0  0  0  0  0
   59.2930   28.5030   48.3030 C   0  0  0  0  0  0  0  0  0  0  0  0
   58.2900   28.3040   47.3430 C   0  0  0  0  0  0  0  0  0  0  0  0
   58.1640   29.1900   46.2500 C   0  0  0  0  0  0  0  0  0  0  0  0
   57.0060   29.0970   45.3300 C   0  0  0  0  0  0  0  0  0  0  0  0
   56.6470   27.9740   44.8770 O   0  0  0  0  0  0  0  0  0  0  0  0
   56.3330   30.2850   44.8900 N   0  0  0  0  0  0  0  0  0  0  0  0
   56.8840   31.1550   43.8540 C   0  0  0  0  0  0  0  0  0  0  0  0
   57.4610   32.3950   44.4940 C   0  0  0  0  0  0  0  0  0  0  0  0
   57.0590   32.7830   45.7820 C   0  0  0  0  0  0  0  0  0  0  0  0
   57.6800   33.8630   46.4200 C   0  0  0  0  0  0  0  0  0  0  0  0
   58.6970   34.5710   45.7720 C   0  0  0  0  0  0  0  0  0  0  0  0
   59.1080   34.1910   44.4940 C   0  0  0  0  0  0  0  0  0  0  0  0
   58.4950   33.1090   43.8570 C   0  0  0  0  0  0  0  0  0  0  0  0
   59.1020   30.2280   46.1030 C   0  0  0  0  0  0  0  0  0  0  0  0
   60.0970   30.4290   47.0680 C   0  0  0  0  0  0  0  0  0  0  0  0
   62.8559   29.0112   51.8586 H   0  0  0  0  0  0  0  0  0  0  0  0
   62.2989   30.6547   51.3952 H   0  0  0  0  0  0  0  0  0  0  0  0
   59.4227   33.4727   52.0468 H   0  0  0  0  0  0  0  0  0  0  0  0
   60.8141   32.3823   52.4902 H   0  0  0  0  0  0  0  0  0  0  0  0
   58.9329   33.5233   49.4329 H   0  0  0  0  0  0  0  0  0  0  0  0
   60.0486   33.9531   47.2378 H   0  0  0  0  0  0  0  0  0  0  0  0
   62.5174   33.6813   47.0124 H   0  0  0  0  0  0  0  0  0  0  0  0
   63.8744   32.9293   48.9735 H   0  0  0  0  0  0  0  0  0  0  0  0
   62.7648   32.4524   51.1579 H   0  0  0  0  0  0  0  0  0  0  0  0
   61.5540   30.8390   49.2370 H   0  0  0  0  0  0  0  0  0  0  0  0
   59.3894   27.8047   49.1475 H   0  0  0  0  0  0  0  0  0  0  0  0
   57.5985   27.4543   47.4416 H   0  0  0  0  0  0  0  0  0  0  0  0
   57.6764   30.6206   43.3094 H   0  0  0  0  0  0  0  0  0  0  0  0
   56.0865   31.4411   43.1525 H   0  0  0  0  0  0  0  0  0  0  0  0
   56.2524   32.2358   46.2920 H   0  0  0  0  0  0  0  0  0  0  0  0
   57.3674   34.1555   47.4333 H   0  0  0  0  0  0  0  0  0  0  0  0
   59.1733   35.4282   46.2703 H   0  0  0  0  0  0  0  0  0  0  0  0
   59.9141   34.7428   43.9883 H   0  0  0  0  0  0  0  0  0  0  0  0
   58.8225   32.8122   42.8497 H   0  0  0  0  0  0  0  0  0  0  0  0
   59.0536   30.8868   45.2235 H   0  0  0  0  0  0  0  0  0  0  0  0
   60.8204   31.2484   46.9445 H   0  0  0  0  0  0  0  0  0  0  0  0
  1  2  2  0
  2  3  1  0
  3  4  1  0
  4  5  1  0
  5  6  2  0
  6  7  1  0
  7  8  1  0
  8  9  2  0
  8 10  1  0
 10 11  1  0
 11 12  1  0
 12 13  2  0
 13 14  1  0
 14 15  2  0
 15 16  1  0
 16 17  2  0
  2 18  1  0
 18 19  1  0
 19 20  2  0
 20 21  1  0
 21 22  2  0
 22 23  1  0
 23 24  2  0
 23 25  1  0
 25 26  1  0
 26 27  1  0
 27 28  2  0
 28 29  1  0
 29 30  2  0
 30 31  1  0
 31 32  2  0
 22 33  1  0
 33 34  2  0
 10  5  1  0
 17 12  1  0
 34 19  1  0
 32 27  1  0
  3 35  1  0
  3 36  1  0
 11 37  1  0
 11 38  1  0
 13 39  1  0
 14 40  1  0
 15 41  1  0
 16 42  1  0
 17 43  1  0
 18 44  1  0
 20 45  1  0
 21 46  1  0
 26 47  1  0
 26 48  1  0
 28 49  1  0
 29 50  1  0
 30 51  1  0
 31 52  1  0
 32 53  1  0
 33 54  1  0
 34 55  1  0
M  CHG  2   7  -1  25  -1
M  END
>  <UniqueID>  (12) 
11

>  <SMILES>  (12) 
O=C(CSc1n[n-]c(=O)n1Cc1ccccc1)Nc1ccc(C(=O)[N-]Cc2ccccc2)cc1

>  <Energy>  (12) 
92.22483221324104

>  <Genealogy>  (12) 
O=C(CSc1n[n-]c(=O)n1Cc1ccccc1)Nc1ccc(C(=O)[N-]Cc2ccccc2)cc1 (protonated)
O=C(CSc1n[n-]c(=O)n1Cc1ccccc1)Nc1ccc(C(=O)[N-]Cc2ccccc2)cc1 (3D coordinates assigned)
O=C(CSc1n[n-]c(=O)n1Cc1ccccc1)Nc1ccc(C(=O)[N-]Cc2ccccc2)cc1 (optimized conformer: 92.22483221324104 kcal/mol)

>  <smiles>  (12) 
O=C(CSc1n[nH]c(=O)n1Cc1ccccc1)Nc1ccc(C(=O)NCc2ccccc2)cc1

>  <score_type>  (12) 
oracle

>  <origin>  (12) 
adg

>  <m_score__min__energy>  (12) 
-11.460000000000001

>  <m_primary>  (12) 
energy

$$$$
12:0
     RDKit          3D

 50 52  0  0  0  0  0  0  0  0999 V2000
   57.7280   21.4260   43.6830 C   0  0  0  0  0  0  0  0  0  0  0  0
   56.3280   21.9920   42.6570 S   0  0  0  0  0  0  0  0  0  0  0  0
   56.2620   23.6860   43.3410 C   0  0  0  0  0  0  0  0  0  0  0  0
   57.0770   23.7760   44.6370 C   0  0  0  0  0  0  0  0  0  0  0  0
   56.9630   25.1480   45.3370 C   0  0  2  0  0  0  0  0  0  0  0  0
   57.8820   25.2480   46.4760 N   0  0  0  0  0  0  0  0  0  0  0  0
   59.2570   25.6520   46.4250 C   0  0  0  0  0  0  0  0  0  0  0  0
   60.1150   24.8290   46.0160 O   0  0  0  0  0  0  0  0  0  0  0  0
   59.6860   27.0070   46.8030 C   0  0  0  0  0  0  0  0  0  0  0  0
   60.2180   27.8670   45.8310 C   0  0  0  0  0  0  0  0  0  0  0  0
   60.5510   29.1830   46.1630 C   0  0  0  0  0  0  0  0  0  0  0  0
   60.3720   29.6490   47.4760 C   0  0  0  0  0  0  0  0  0  0  0  0
   60.6220   31.0200   47.8210 N   0  0  0  0  0  0  0  0  0  0  0  0
   59.3800   32.2310   47.7750 S   0  0  0  0  0  0  0  0  0  0  0  0
   58.2470   31.8100   48.6660 O   0  0  0  0  0  0  0  0  0  0  0  0
   59.9480   33.5260   48.2830 O   0  0  0  0  0  0  0  0  0  0  0  0
   58.7570   32.4280   46.1290 C   0  0  0  0  0  0  0  0  0  0  0  0
   59.0110   33.6190   45.4320 C   0  0  0  0  0  0  0  0  0  0  0  0
   58.5580   33.7830   44.1190 C   0  0  0  0  0  0  0  0  0  0  0  0
   57.8410   32.7650   43.4880 C   0  0  0  0  0  0  0  0  0  0  0  0
   57.5740   31.5710   44.1690 C   0  0  0  0  0  0  0  0  0  0  0  0
   56.8620   30.5330   43.5540 C   0  0  0  0  0  0  0  0  0  0  0  0
   56.6080   29.3540   44.2550 C   0  0  0  0  0  0  0  0  0  0  0  0
   57.0650   29.2250   45.5680 C   0  0  0  0  0  0  0  0  0  0  0  0
   57.7500   30.2400   46.1550 N   0  0  0  0  0  0  0  0  0  0  0  0
   58.0240   31.4020   45.5000 C   0  0  0  0  0  0  0  0  0  0  0  0
   59.9080   28.7650   48.4610 C   0  0  0  0  0  0  0  0  0  0  0  0
   59.5590   27.4540   48.1260 C   0  0  0  0  0  0  0  0  0  0  0  0
   55.5510   25.4070   45.7880 C   0  0  0  0  0  0  0  0  0  0  0  0
   54.7560   24.4530   46.0100 O   0  0  0  0  0  0  0  0  0  0  0  0
   55.1250   26.7130   46.0040 O   0  0  0  0  0  0  0  0  0  0  0  0
   57.4688   21.5308   44.7469 H   0  0  0  0  0  0  0  0  0  0  0  0
   57.9427   20.3704   43.4601 H   0  0  0  0  0  0  0  0  0  0  0  0
   58.6160   22.0358   43.4601 H   0  0  0  0  0  0  0  0  0  0  0  0
   56.6757   24.3900   42.6040 H   0  0  0  0  0  0  0  0  0  0  0  0
   55.2146   23.9390   43.5620 H   0  0  0  0  0  0  0  0  0  0  0  0
   56.7185   23.0001   45.3294 H   0  0  0  0  0  0  0  0  0  0  0  0
   58.1341   23.6350   44.3673 H   0  0  0  0  0  0  0  0  0  0  0  0
   57.2446   25.9146   44.6001 H   0  0  0  0  0  0  0  0  0  0  0  0
   60.3736   27.5044   44.8042 H   0  0  0  0  0  0  0  0  0  0  0  0
   60.9549   29.8567   45.3930 H   0  0  0  0  0  0  0  0  0  0  0  0
   61.5000   31.2590   48.3360 H   0  0  0  0  0  0  0  0  0  0  0  0
   59.5705   34.4296   45.9218 H   0  0  0  0  0  0  0  0  0  0  0  0
   58.7678   34.7191   43.5807 H   0  0  0  0  0  0  0  0  0  0  0  0
   57.4858   32.9008   42.4558 H   0  0  0  0  0  0  0  0  0  0  0  0
   56.5039   30.6475   42.5202 H   0  0  0  0  0  0  0  0  0  0  0  0
   56.0526   28.5332   43.7776 H   0  0  0  0  0  0  0  0  0  0  0  0
   56.8697   28.2988   46.1284 H   0  0  0  0  0  0  0  0  0  0  0  0
   59.8183   29.1056   49.5031 H   0  0  0  0  0  0  0  0  0  0  0  0
   59.1837   26.7709   48.9022 H   0  0  0  0  0  0  0  0  0  0  0  0
  1  2  1  0
  2  3  1  0
  3  4  1  0
  4  5  1  0
  5  6  1  0
  6  7  1  0
  7  8  2  0
  7  9  1  0
  9 10  2  0
 10 11  1  0
 11 12  2  0
 12 13  1  0
 13 14  1  0
 14 15  2  0
 14 16  2  0
 14 17  1  0
 17 18  2  0
 18 19  1  0
 19 20  2  0
 20 21  1  0
 21 22  2  0
 22 23  1  0
 23 24  2  0
 24 25  1  0
 25 26  2  0
 12 27  1  0
 27 28  2  0
  5 29  1  0
 29 30  2  0
 29 31  1  0
 28  9  1  0
 26 17  1  0
 26 21  1  0
  1 32  1  0
  1 33  1  0
  1 34  1  0
  3 35  1  0
  3 36  1  0
  4 37  1  0
  4 38  1  0
  5 39  1  6
 10 40  1  0
 11 41  1  0
 13 42  1  0
 18 43  1  0
 19 44  1  0
 20 45  1  0
 22 46  1  0
 23 47  1  0
 24 48  1  0
 27 49  1  0
 28 50  1  0
M  CHG  2   6  -1  31  -1
M  END
>  <UniqueID>  (13) 
12

>  <SMILES>  (13) 
CSCC[C@H]([N-]C(=O)c1ccc(NS(=O)(=O)c2cccc3cccnc23)cc1)C(=O)[O-]

>  <Energy>  (13) 
51.36504710556649

>  <Genealogy>  (13) 
CSCCC([N-]C(=O)c1ccc(NS(=O)(=O)c2cccc3cccnc23)cc1)C(=O)[O-] (protonated)
CSCC[C@H]([N-]C(=O)c1ccc(NS(=O)(=O)c2cccc3cccnc23)cc1)C(=O)[O-] (chirality)
CSCC[C@H]([N-]C(=O)c1ccc(NS(=O)(=O)c2cccc3cccnc23)cc1)C(=O)[O-] (3D coordinates assigned)
CSCC[C@H]([N-]C(=O)c1ccc(NS(=O)(=O)c2cccc3cccnc23)cc1)C(=O)[O-] (optimized conformer: 51.36504710556649 kcal/mol)

>  <smiles>  (13) 
CSCCC(NC(=O)c1ccc(NS(=O)(=O)c2cccc3cccnc23)cc1)C(=O)O

>  <score_type>  (13) 
oracle

>  <origin>  (13) 
adg

>  <m_score__min__energy>  (13) 
-14.66

>  <m_primary>  (13) 
energy

$$$$
13:0
     RDKit          3D

 37 39  0  0  0  0  0  0  0  0999 V2000
   54.2700   26.7130   46.7710 H   0  0  0  0  0  0  0  0  0  0  0  0
   54.8980   26.3380   46.0710 O   0  0  0  0  0  0  0  0  0  0  0  0
   56.0170   25.5690   46.3910 C   0  0  0  0  0  0  0  0  0  0  0  0
   55.8730   24.5580   47.2870 N   0  0  0  0  0  0  0  0  0  0  0  0
   56.9110   23.7460   47.6110 C   0  0  0  0  0  0  0  0  0  0  0  0
   56.7470   22.8200   48.4450 O   0  0  0  0  0  0  0  0  0  0  0  0
   58.1230   23.9300   47.0300 N   0  0  0  0  0  0  0  0  0  0  0  0
   58.3280   24.9270   46.1320 C   0  0  0  0  0  0  0  0  0  0  0  0
   59.4680   25.0670   45.6150 O   0  0  0  0  0  0  0  0  0  0  0  0
   57.2770   25.7980   45.7980 C   0  0  0  0  0  0  0  0  0  0  0  0
   57.5050   26.8920   44.8280 C   0  0  0  0  0  0  0  0  0  0  0  0
   57.2173   26.7314   43.7785 H   0  0  0  0  0  0  0  0  0  0  0  0
   58.0480   28.0740   45.1710 C   0  0  0  0  0  0  0  0  0  0  0  0
   59.2650   28.2590   45.8190 C   0  0  0  0  0  0  0  0  0  0  0  0
   59.9560   27.4734   46.1587 H   0  0  0  0  0  0  0  0  0  0  0  0
   59.4350   29.6240   45.9520 C   0  0  0  0  0  0  0  0  0  0  0  0
   60.6010   30.2850   46.6190 C   0  0  0  0  0  0  0  0  0  0  0  0
   60.4846   30.2190   47.7108 H   0  0  0  0  0  0  0  0  0  0  0  0
   61.5305   29.7795   46.3181 H   0  0  0  0  0  0  0  0  0  0  0  0
   60.6446   31.3422   46.3181 H   0  0  0  0  0  0  0  0  0  0  0  0
   58.3860   30.2820   45.4150 N   0  0  0  0  0  0  0  0  0  0  0  0
   58.2040   31.7080   45.4190 C   0  0  0  0  0  0  0  0  0  0  0  0
   58.0760   32.4500   44.2200 C   0  0  0  0  0  0  0  0  0  0  0  0
   58.1380   31.8390   42.8780 C   0  0  0  0  0  0  0  0  0  0  0  0
   59.0518   31.3050   42.5782 H   0  0  0  0  0  0  0  0  0  0  0  0
   57.1790   31.9090   42.0650 O   0  0  0  0  0  0  0  0  0  0  0  0
   57.8920   33.7980   44.2930 N   0  0  0  0  0  0  0  0  0  0  0  0
   57.8290   34.4620   45.4770 C   0  0  0  0  0  0  0  0  0  0  0  0
   57.6754   35.5512   45.4892 H   0  0  0  0  0  0  0  0  0  0  0  0
   57.9590   33.7630   46.6760 C   0  0  0  0  0  0  0  0  0  0  0  0
   57.9144   34.2956   47.6374 H   0  0  0  0  0  0  0  0  0  0  0  0
   58.1460   32.3830   46.6440 C   0  0  0  0  0  0  0  0  0  0  0  0
   58.2484   31.8218   47.5845 H   0  0  0  0  0  0  0  0  0  0  0  0
   57.5280   29.3500   44.9370 C   0  0  0  0  0  0  0  0  0  0  0  0
   56.3600   29.6420   44.3440 C   0  0  0  0  0  0  0  0  0  0  0  0
   56.0558   30.6912   44.2150 H   0  0  0  0  0  0  0  0  0  0  0  0
   55.7069   28.8321   43.9869 H   0  0  0  0  0  0  0  0  0  0  0  0
  1  2  1  0
  2  3  1  0
  3  4  1  0
  4  5  1  0
  5  6  2  0
  5  7  1  0
  7  8  1  0
  8  9  2  0
  8 10  1  0
 10 11  1  0
 11 12  1  0
 11 13  2  0
 13 14  1  0
 14 15  1  0
 14 16  2  0
 16 17  1  0
 17 18  1  0
 17 19  1  0
 17 20  1  0
 16 21  1  0
 21 22  1  0
 22 23  2  0
 23 24  1  0
 24 25  1  0
 24 26  2  0
 23 27  1  0
 27 28  2  0
 28 29  1  0
 28 30  1  0
 30 31  1  0
 30 32  2  0
 32 33  1  0
 21 34  1  0
 34 35  2  0
 35 36  1  0
 35 37  1  0
 10  3  2  0
 34 13  1  0
 32 22  1  0
M  CHG  2   4  -1   7  -1
M  END
>  <UniqueID>  (14) 
13

>  <SMILES>  (14) 
C=c1/c(=C/c2c(O)[n-]c(=O)[n-]c2=O)cc(C)n1-c1cccnc1C=O

>  <Energy>  (14) 
87.42265459099212

>  <Genealogy>  (14) 
C=c1c(=Cc2c(O)[n-]c(=O)[n-]c2=O)cc(C)n1-c1cccnc1C=O (protonated)
C=c1/c(=C/c2c(O)[n-]c(=O)[n-]c2=O)cc(C)n1-c1cccnc1C=O (cis-trans isomerization)
C=c1/c(=C/c2c(O)[n-]c(=O)[n-]c2=O)cc(C)n1-c1cccnc1C=O (3D coordinates assigned)
C=c1/c(=C/c2c(O)[n-]c(=O)[n-]c2=O)cc(C)n1-c1cccnc1C=O (optimized conformer: 87.42265459099212 kcal/mol)

>  <smiles>  (14) 
C=c1c(=Cc2c(O)[nH]c(=O)[nH]c2=O)cc(C)n1-c1cccnc1C=O

>  <score_type>  (14) 
oracle

>  <origin>  (14) 
adg

>  <m_score__min__energy>  (14) 
-13.07

>  <m_primary>  (14) 
energy

$$$$
14:0
     RDKit          3D

 43 45  0  0  0  0  0  0  0  0999 V2000
   60.8740   34.2590   48.8930 C   0  0  0  0  0  0  0  0  0  0  0  0
   60.6570   33.8540   47.1730 S   0  0  0  0  0  0  0  0  0  0  0  0
   61.9070   34.1650   46.3990 O   0  0  0  0  0  0  0  0  0  0  0  0
   59.5300   34.6780   46.6220 O   0  0  0  0  0  0  0  0  0  0  0  0
   60.2550   32.1750   47.0020 N   0  0  0  0  0  0  0  0  0  0  0  0
   59.3560   31.6210   46.0310 C   0  0  0  0  0  0  0  0  0  0  0  0
   58.9100   32.3520   44.9170 C   0  0  0  0  0  0  0  0  0  0  0  0
   58.0410   31.7660   43.9940 C   0  0  0  0  0  0  0  0  0  0  0  0
   57.6080   30.4500   44.1730 C   0  0  0  0  0  0  0  0  0  0  0  0
   58.0360   29.7080   45.2850 C   0  0  0  0  0  0  0  0  0  0  0  0
   57.5830   28.3080   45.4700 C   0  0  0  0  0  0  0  0  0  0  0  0
   58.5310   27.2880   45.6470 C   0  0  0  0  0  0  0  0  0  0  0  0
   58.1360   25.9500   45.8210 C   0  0  0  0  0  0  0  0  0  0  0  0
   59.1880   24.9160   45.9290 C   0  0  0  0  0  0  0  0  0  0  0  0
   60.3850   25.1970   45.6520 O   0  0  0  0  0  0  0  0  0  0  0  0
   58.8350   23.5930   46.3560 N   0  0  0  0  0  0  0  0  0  0  0  0
   58.1650   22.5910   45.5750 C   0  0  0  0  0  0  0  0  0  0  0  0
   58.3570   22.4820   44.1840 C   0  0  0  0  0  0  0  0  0  0  0  0
   57.7070   21.4780   43.4610 C   0  0  0  0  0  0  0  0  0  0  0  0
   56.8750   20.5680   44.1170 C   0  0  0  0  0  0  0  0  0  0  0  0
   56.6980   20.6530   45.5000 C   0  0  0  0  0  0  0  0  0  0  0  0
   57.3460   21.6570   46.2290 C   0  0  0  0  0  0  0  0  0  0  0  0
   57.1670   21.7260   47.6060 O   0  0  0  0  0  0  0  0  0  0  0  0
   56.7550   25.6400   45.8540 C   0  0  0  0  0  0  0  0  0  0  0  0
   56.2850   24.3500   46.1170 O   0  0  0  0  0  0  0  0  0  0  0  0
   55.8110   26.6530   45.6520 C   0  0  0  0  0  0  0  0  0  0  0  0
   54.4550   26.3430   45.6560 O   0  0  0  0  0  0  0  0  0  0  0  0
   56.2160   27.9780   45.4560 C   0  0  0  0  0  0  0  0  0  0  0  0
   55.2530   28.9580   45.2300 O   0  0  0  0  0  0  0  0  0  0  0  0
   58.9170   30.3020   46.2070 C   0  0  0  0  0  0  0  0  0  0  0  0
   60.4455   33.4592   49.5149 H   0  0  0  0  0  0  0  0  0  0  0  0
   61.9470   34.3598   49.1134 H   0  0  0  0  0  0  0  0  0  0  0  0
   60.3636   35.2082   49.1134 H   0  0  0  0  0  0  0  0  0  0  0  0
   59.2464   33.3891   44.7714 H   0  0  0  0  0  0  0  0  0  0  0  0
   57.6963   32.3427   43.1230 H   0  0  0  0  0  0  0  0  0  0  0  0
   56.9282   29.9929   43.4388 H   0  0  0  0  0  0  0  0  0  0  0  0
   59.6017   27.5400   45.6496 H   0  0  0  0  0  0  0  0  0  0  0  0
   59.0206   23.1893   43.6650 H   0  0  0  0  0  0  0  0  0  0  0  0
   57.8510   21.4043   42.3730 H   0  0  0  0  0  0  0  0  0  0  0  0
   56.3587   19.7837   43.5441 H   0  0  0  0  0  0  0  0  0  0  0  0
   56.0490   19.9305   46.0165 H   0  0  0  0  0  0  0  0  0  0  0  0
   56.7250   23.7170   46.7720 H   0  0  0  0  0  0  0  0  0  0  0  0
   59.2652   29.7244   47.0760 H   0  0  0  0  0  0  0  0  0  0  0  0
  1  2  1  0
  2  3  2  0
  2  4  2  0
  2  5  1  0
  5  6  1  0
  6  7  2  0
  7  8  1  0
  8  9  2  0
  9 10  1  0
 10 11  1  0
 11 12  2  0
 12 13  1  0
 13 14  1  0
 14 15  2  0
 14 16  1  0
 16 17  1  0
 17 18  2  0
 18 19  1  0
 19 20  2  0
 20 21  1  0
 21 22  2  0
 22 23  1  0
 13 24  2  0
 24 25  1  0
 24 26  1  0
 26 27  1  0
 26 28  2  0
 28 29  1  0
 10 30  2  0
 30  6  1  0
 28 11  1  0
 22 17  1  0
  1 31  1  0
  1 32  1  0
  1 33  1  0
  7 34  1  0
  8 35  1  0
  9 36  1  0
 12 37  1  0
 18 38  1  0
 19 39  1  0
 20 40  1  0
 21 41  1  0
 25 42  1  0
 30 43  1  0
M  CHG  5   5  -1  16  -1  23  -1  27  -1  29  -1
M  END
>  <UniqueID>  (15) 
14

>  <SMILES>  (15) 
CS(=O)(=O)[N-]c1cccc(-c2cc(C(=O)[N-]c3ccccc3[O-])c(O)c([O-])c2[O-])c1

>  <Energy>  (15) 
61.753979744993096

>  <Genealogy>  (15) 
CS(=O)(=O)[N-]c1cccc(-c2cc(C(=O)[N-]c3ccccc3[O-])c(O)c([O-])c2[O-])c1 (protonated)
CS(=O)(=O)[N-]c1cccc(-c2cc(C(=O)[N-]c3ccccc3[O-])c(O)c([O-])c2[O-])c1 (3D coordinates assigned)
CS(=O)(=O)[N-]c1cccc(-c2cc(C(=O)[N-]c3ccccc3[O-])c(O)c([O-])c2[O-])c1 (optimized conformer: 61.753979744993096 kcal/mol)

>  <smiles>  (15) 
CS(=O)(=O)Nc1cccc(-c2cc(C(=O)Nc3ccccc3O)c(O)c(O)c2O)c1

>  <score_type>  (15) 
oracle

>  <origin>  (15) 
adg

>  <m_score__min__energy>  (15) 
-18.210000000000001

>  <m_primary>  (15) 
energy

$$$$
15:0
     RDKit          3D

 38 39  0  0  0  0  0  0  0  0999 V2000
   63.2400   33.8410   46.4660 C   0  0  0  0  0  0  0  0  0  0  0  0
   63.1440   32.7380   47.5110 C   0  0  0  0  0  0  0  0  0  0  0  0
   61.7110   33.0410   48.5950 S   0  0  0  0  0  0  0  0  0  0  0  0
   60.9170   31.4790   48.2120 C   0  0  0  0  0  0  0  0  0  0  0  0
   61.1520   30.8560   46.9850 C   0  0  0  0  0  0  0  0  0  0  0  0
   60.4780   29.6790   46.6630 C   0  0  0  0  0  0  0  0  0  0  0  0
   59.5740   29.1240   47.5800 C   0  0  0  0  0  0  0  0  0  0  0  0
   58.9350   28.0400   47.2410 N   0  0  0  0  0  0  0  0  0  0  0  0
   58.0790   27.8640   46.1030 C   0  0  0  0  0  0  0  0  0  0  0  0
   56.9090   27.4320   46.2820 O   0  0  0  0  0  0  0  0  0  0  0  0
   58.5030   28.2380   44.7060 C   0  0  0  0  0  0  0  0  0  0  0  0
   57.4620   28.9730   43.9820 N   0  0  0  0  0  0  0  0  0  0  0  0
   56.7610   30.1240   44.4680 C   0  0  0  0  0  0  0  0  0  0  0  0
   55.5040   30.0850   44.5510 O   0  0  0  0  0  0  0  0  0  0  0  0
   57.4580   31.3800   44.8110 C   0  0  0  0  0  0  0  0  0  0  0  0
   57.7590   31.6440   46.1560 C   0  0  0  0  0  0  0  0  0  0  0  0
   58.4190   32.8220   46.5160 C   0  0  0  0  0  0  0  0  0  0  0  0
   58.7930   33.7410   45.5320 C   0  0  0  0  0  0  0  0  0  0  0  0
   59.6300   35.2160   45.9860 Cl  0  0  0  0  0  0  0  0  0  0  0  0
   58.5220   33.4750   44.1880 C   0  0  0  0  0  0  0  0  0  0  0  0
   57.8610   32.2950   43.8170 C   0  0  0  0  0  0  0  0  0  0  0  0
   57.6210   31.9700   42.1020 Cl  0  0  0  0  0  0  0  0  0  0  0  0
   59.3630   29.7490   48.7810 N   0  0  0  0  0  0  0  0  0  0  0  0
   60.0060   30.9040   49.1060 C   0  0  0  0  0  0  0  0  0  0  0  0
   63.3248   34.8158   46.9685 H   0  0  0  0  0  0  0  0  0  0  0  0
   64.1270   33.6742   45.8372 H   0  0  0  0  0  0  0  0  0  0  0  0
   62.3375   33.8299   45.8372 H   0  0  0  0  0  0  0  0  0  0  0  0
   63.0230   31.7673   47.0079 H   0  0  0  0  0  0  0  0  0  0  0  0
   64.0626   32.7288   48.1160 H   0  0  0  0  0  0  0  0  0  0  0  0
   61.8679   31.2932   46.2734 H   0  0  0  0  0  0  0  0  0  0  0  0
   60.6544   29.1882   45.6945 H   0  0  0  0  0  0  0  0  0  0  0  0
   59.4024   28.8683   44.7671 H   0  0  0  0  0  0  0  0  0  0  0  0
   58.6991   27.3062   44.1552 H   0  0  0  0  0  0  0  0  0  0  0  0
   57.4735   30.9187   46.9322 H   0  0  0  0  0  0  0  0  0  0  0  0
   58.6440   33.0257   47.5733 H   0  0  0  0  0  0  0  0  0  0  0  0
   58.8289   34.1955   43.4156 H   0  0  0  0  0  0  0  0  0  0  0  0
   58.6720   29.3800   49.4720 H   0  0  0  0  0  0  0  0  0  0  0  0
   59.8091   31.3871   50.0744 H   0  0  0  0  0  0  0  0  0  0  0  0
  1  2  1  0
  2  3  1  0
  3  4  1  0
  4  5  1  0
  5  6  2  0
  6  7  1  0
  7  8  2  3
  8  9  1  0
  9 10  2  0
  9 11  1  0
 11 12  1  0
 12 13  1  0
 13 14  2  0
 13 15  1  0
 15 16  2  0
 16 17  1  0
 17 18  2  0
 18 19  1  0
 18 20  1  0
 20 21  2  0
 21 22  1  0
  7 23  1  0
 23 24  1  0
 24  4  2  0
 21 15  1  0
  1 25  1  0
  1 26  1  0
  1 27  1  0
  2 28  1  0
  2 29  1  0
  5 30  1  0
  6 31  1  0
 11 32  1  0
 11 33  1  0
 16 34  1  0
 17 35  1  0
 20 36  1  0
 23 37  1  0
 24 38  1  0
M  CHG  1  12  -1
M  END
>  <UniqueID>  (16) 
15

>  <SMILES>  (16) 
CCSc1ccc(=NC(=O)C[N-]C(=O)c2ccc(Cl)cc2Cl)[nH]c1

>  <Energy>  (16) 
45.73090055479342

>  <Genealogy>  (16) 
CCSc1ccc(=NC(=O)C[N-]C(=O)c2ccc(Cl)cc2Cl)[nH]c1 (protonated)
CCSc1ccc(=NC(=O)C[N-]C(=O)c2ccc(Cl)cc2Cl)[nH]c1 (3D coordinates assigned)
CCSc1ccc(=NC(=O)C[N-]C(=O)c2ccc(Cl)cc2Cl)[nH]c1 (optimized conformer: 45.73090055479342 kcal/mol)

>  <smiles>  (16) 
CCSc1ccc(=NC(=O)CNC(=O)c2ccc(Cl)cc2Cl)[nH]c1

>  <score_type>  (16) 
oracle

>  <origin>  (16) 
adg

>  <m_score__min__energy>  (16) 
-9.3900000000000006

>  <m_primary>  (16) 
energy

$$$$
16:0
     RDKit          3D

 38 40  0  0  0  0  0  0  0  0999 V2000
   63.3120   33.0010   51.5610 H   0  0  0  0  0  0  0  0  0  0  0  0
   62.8760   32.4870   50.7630 N   0  0  0  0  0  0  0  0  0  0  0  0
   62.9630   33.5290   49.3880 S   0  0  0  0  0  0  0  0  0  0  0  0
   62.7300   34.9490   49.8210 O   0  0  0  0  0  0  0  0  0  0  0  0
   64.3300   33.4330   48.7690 O   0  0  0  0  0  0  0  0  0  0  0  0
   61.7410   33.0550   48.2120 C   0  0  0  0  0  0  0  0  0  0  0  0
   60.7530   33.9660   47.8160 C   0  0  0  0  0  0  0  0  0  0  0  0
   60.7453   34.9829   48.2352 H   0  0  0  0  0  0  0  0  0  0  0  0
   59.7770   33.5870   46.8900 C   0  0  0  0  0  0  0  0  0  0  0  0
   59.0170   34.3145   46.5689 H   0  0  0  0  0  0  0  0  0  0  0  0
   59.7600   32.2870   46.3680 C   0  0  0  0  0  0  0  0  0  0  0  0
   58.7560   31.9500   45.3960 N   0  0  0  0  0  0  0  0  0  0  0  0
   58.1510   30.8060   45.2700 C   0  0  0  0  0  0  0  0  0  0  0  0
   56.8110   30.6580   45.1650 N   0  0  0  0  0  0  0  0  0  0  0  0
   56.4710   29.3530   45.0040 C   0  0  0  0  0  0  0  0  0  0  0  0
   55.1460   28.9530   44.8850 O   0  0  0  0  0  0  0  0  0  0  0  0
   57.5400   28.4590   44.9630 C   0  0  0  0  0  0  0  0  0  0  0  0
   57.4470   26.9680   44.8310 C   0  0  0  0  0  0  0  0  0  0  0  0
   58.4122   26.5785   44.4752 H   0  0  0  0  0  0  0  0  0  0  0  0
   56.6455   26.7312   44.1158 H   0  0  0  0  0  0  0  0  0  0  0  0
   57.1140   26.3240   46.1500 C   0  0  0  0  0  0  0  0  0  0  0  0
   55.9280   25.9620   46.3710 O   0  0  0  0  0  0  0  0  0  0  0  0
   58.1330   25.9470   47.0870 N   0  0  0  0  0  0  0  0  0  0  0  0
   58.8950   26.7470   47.7730 C   0  0  0  0  0  0  0  0  0  0  0  0
   60.0850   26.3450   48.2710 N   0  0  0  0  0  0  0  0  0  0  0  0
   60.6890   27.3280   48.9910 C   0  0  0  0  0  0  0  0  0  0  0  0
   61.6756   27.1987   49.4599 H   0  0  0  0  0  0  0  0  0  0  0  0
   59.9620   28.5090   49.0880 C   0  0  0  0  0  0  0  0  0  0  0  0
   60.4180   29.7630   49.7540 C   0  0  0  0  0  0  0  0  0  0  0  0
   60.3718   29.6360   50.8457 H   0  0  0  0  0  0  0  0  0  0  0  0
   61.4533   29.9820   49.4538 H   0  0  0  0  0  0  0  0  0  0  0  0
   59.7652   30.5959   49.4538 H   0  0  0  0  0  0  0  0  0  0  0  0
   58.5310   28.3330   48.2220 S   0  0  0  0  0  0  0  0  0  0  0  0
   58.9630   29.3390   45.1480 S   0  0  0  0  0  0  0  0  0  0  0  0
   60.7670   31.3810   46.7500 C   0  0  0  0  0  0  0  0  0  0  0  0
   60.7859   30.3692   46.3187 H   0  0  0  0  0  0  0  0  0  0  0  0
   61.7440   31.7620   47.6760 C   0  0  0  0  0  0  0  0  0  0  0  0
   62.5173   31.0429   47.9840 H   0  0  0  0  0  0  0  0  0  0  0  0
  1  2  1  0
  2  3  1  0
  3  4  2  0
  3  5  2  0
  3  6  1  0
  6  7  2  0
  7  8  1  0
  7  9  1  0
  9 10  1  0
  9 11  2  0
 11 12  1  0
 12 13  2  3
 13 14  1  0
 14 15  1  0
 15 16  1  0
 15 17  2  0
 17 18  1  0
 18 19  1  0
 18 20  1  0
 18 21  1  0
 21 22  2  0
 21 23  1  0
 23 24  2  0
 24 25  1  0
 25 26  1  0
 26 27  1  0
 26 28  2  0
 28 29  1  0
 29 30  1  0
 29 31  1  0
 29 32  1  0
 28 33  1  0
 17 34  1  0
 11 35  1  0
 35 36  1  0
 35 37  2  0
 37 38  1  0
 37  6  1  0
 34 13  1  0
 33 24  1  0
M  CHG  4   2  -1  14  -1  16  -1  25  -1
M  END
>  <UniqueID>  (17) 
16

>  <SMILES>  (17) 
Cc1c[n-]/c(=N/C(=O)Cc2sc(=Nc3ccc(S([NH-])(=O)=O)cc3)[n-]c2[O-])s1

>  <Energy>  (17) 
110.97724160249787

>  <Genealogy>  (17) 
Cc1c[n-]c(=NC(=O)Cc2sc(=Nc3ccc(S([NH-])(=O)=O)cc3)[n-]c2[O-])s1 (protonated)
Cc1c[n-]/c(=N/C(=O)Cc2sc(=Nc3ccc(S([NH-])(=O)=O)cc3)[n-]c2[O-])s1 (cis-trans isomerization)
Cc1c[n-]/c(=N/C(=O)Cc2sc(=Nc3ccc(S([NH-])(=O)=O)cc3)[n-]c2[O-])s1 (3D coordinates assigned)
Cc1c[n-]/c(=N/C(=O)Cc2sc(=Nc3ccc(S([NH-])(=O)=O)cc3)[n-]c2[O-])s1 (optimized conformer: 110.97724160249787 kcal/mol)

>  <smiles>  (17) 
Cc1c[nH]c(=NC(=O)Cc2sc(=Nc3ccc(S(N)(=O)=O)cc3)[nH]c2O)s1

>  <score_type>  (17) 
oracle

>  <origin>  (17) 
adg

>  <m_score__min__energy>  (17) 
-15.15

>  <m_primary>  (17) 
energy

$$$$
17:0
     RDKit          3D

 54 58  0  0  0  0  0  0  0  0999 V2000
   57.7730   27.4720   42.5980 C   0  0  0  0  0  0  0  0  0  0  0  0
   57.5740   28.0020   43.9040 O   0  0  0  0  0  0  0  0  0  0  0  0
   57.7870   27.2890   45.0950 C   0  0  0  0  0  0  0  0  0  0  0  0
   57.4270   25.9310   45.2220 C   0  0  0  0  0  0  0  0  0  0  0  0
   57.6350   25.2540   46.4250 C   0  0  0  0  0  0  0  0  0  0  0  0
   58.2040   25.9160   47.5130 C   0  0  0  0  0  0  0  0  0  0  0  0
   58.5680   27.2590   47.4020 C   0  0  0  0  0  0  0  0  0  0  0  0
   58.3650   27.9540   46.1980 C   0  0  0  0  0  0  0  0  0  0  0  0
   58.7820   29.3730   46.0980 C   0  0  0  0  0  0  0  0  0  0  0  0
   60.1040   29.7300   46.3890 C   0  0  0  0  0  0  0  0  0  0  0  0
   60.4820   31.0330   46.3730 N   0  0  0  0  0  0  0  0  0  0  0  0
   59.6210   32.0400   46.0670 C   0  0  0  0  0  0  0  0  0  0  0  0
   60.0490   33.3870   46.1170 C   0  0  0  0  0  0  0  0  0  0  0  0
   61.4330   33.7500   46.6330 C   0  0  0  0  0  0  0  0  0  0  0  0
   61.5120   33.9200   48.1060 N   0  0  0  0  0  0  0  0  0  0  0  0
   60.3400   34.5150   48.7730 C   0  0  0  0  0  0  0  0  0  0  0  0
   59.2470   33.4900   49.1480 C   0  0  0  0  0  0  0  0  0  0  0  0
   59.7530   32.0890   49.3770 C   0  0  0  0  0  0  0  0  0  0  0  0
   58.8320   31.0790   49.6980 C   0  0  0  0  0  0  0  0  0  0  0  0
   59.2610   29.7640   49.8940 C   0  0  0  0  0  0  0  0  0  0  0  0
   60.6160   29.4470   49.7860 C   0  0  0  0  0  0  0  0  0  0  0  0
   61.5430   30.4430   49.4710 C   0  0  0  0  0  0  0  0  0  0  0  0
   61.1160   31.7610   49.2340 C   0  0  0  0  0  0  0  0  0  0  0  0
   62.1220   32.8150   48.8640 C   0  0  0  0  0  0  0  0  0  0  0  0
   59.1690   34.4000   45.6800 C   0  0  0  0  0  0  0  0  0  0  0  0
   59.5890   35.7310   45.6420 O   0  0  0  0  0  0  0  0  0  0  0  0
   57.8610   34.0800   45.2950 C   0  0  0  0  0  0  0  0  0  0  0  0
   57.4150   32.7600   45.3300 C   0  0  0  0  0  0  0  0  0  0  0  0
   58.2880   31.7280   45.7090 C   0  0  0  0  0  0  0  0  0  0  0  0
   57.8690   30.3830   45.7420 C   0  0  0  0  0  0  0  0  0  0  0  0
   56.6810   30.0790   45.4410 O   0  0  0  0  0  0  0  0  0  0  0  0
   58.1587   26.4447   42.6741 H   0  0  0  0  0  0  0  0  0  0  0  0
   56.8162   27.4652   42.0553 H   0  0  0  0  0  0  0  0  0  0  0  0
   58.4979   28.0966   42.0553 H   0  0  0  0  0  0  0  0  0  0  0  0
   56.9795   25.4021   44.3676 H   0  0  0  0  0  0  0  0  0  0  0  0
   57.3494   24.1956   46.5152 H   0  0  0  0  0  0  0  0  0  0  0  0
   58.3660   25.3792   48.4594 H   0  0  0  0  0  0  0  0  0  0  0  0
   59.0167   27.7765   48.2627 H   0  0  0  0  0  0  0  0  0  0  0  0
   60.8404   28.9498   46.6320 H   0  0  0  0  0  0  0  0  0  0  0  0
   62.1299   32.9507   46.3408 H   0  0  0  0  0  0  0  0  0  0  0  0
   61.6884   34.7239   46.1899 H   0  0  0  0  0  0  0  0  0  0  0  0
   60.6802   35.0113   49.6939 H   0  0  0  0  0  0  0  0  0  0  0  0
   59.8875   35.2175   48.0576 H   0  0  0  0  0  0  0  0  0  0  0  0
   58.7571   33.8331   50.0712 H   0  0  0  0  0  0  0  0  0  0  0  0
   58.5612   33.4374   48.2896 H   0  0  0  0  0  0  0  0  0  0  0  0
   57.7644   31.3251   49.7959 H   0  0  0  0  0  0  0  0  0  0  0  0
   58.5302   28.9776   50.1337 H   0  0  0  0  0  0  0  0  0  0  0  0
   60.9537   28.4129   49.9490 H   0  0  0  0  0  0  0  0  0  0  0  0
   62.6128   30.1947   49.4081 H   0  0  0  0  0  0  0  0  0  0  0  0
   62.5670   33.2197   49.7850 H   0  0  0  0  0  0  0  0  0  0  0  0
   62.8849   32.3461   48.2251 H   0  0  0  0  0  0  0  0  0  0  0  0
   59.6790   36.2840   46.4860 H   0  0  0  0  0  0  0  0  0  0  0  0
   57.1800   34.8771   44.9622 H   0  0  0  0  0  0  0  0  0  0  0  0
   56.3748   32.5259   45.0596 H   0  0  0  0  0  0  0  0  0  0  0  0
  1  2  1  0
  2  3  1  0
  3  4  2  0
  4  5  1  0
  5  6  2  0
  6  7  1  0
  7  8  2  0
  8  9  1  0
  9 10  2  0
 10 11  1  0
 11 12  1  0
 12 13  2  0
 13 14  1  0
 14 15  1  0
 15 16  1  0
 16 17  1  0
 17 18  1  0
 18 19  2  0
 19 20  1  0
 20 21  2  0
 21 22  1  0
 22 23  2  0
 23 24  1  0
 13 25  1  0
 25 26  1  0
 25 27  2  0
 27 28  1  0
 28 29  2  0
 29 30  1  0
 30 31  2  0
  8  3  1  0
 30  9  1  0
 29 12  1  0
 24 15  1  0
 23 18  1  0
  1 32  1  0
  1 33  1  0
  1 34  1  0
  4 35  1  0
  5 36  1  0
  6 37  1  0
  7 38  1  0
 10 39  1  0
 14 40  1  0
 14 41  1  0
 16 42  1  0
 16 43  1  0
 17 44  1  0
 17 45  1  0
 19 46  1  0
 20 47  1  0
 21 48  1  0
 22 49  1  0
 24 50  1  0
 24 51  1  0
 26 52  1  0
 27 53  1  0
 28 54  1  0
M  CHG  1  11  -1
M  END
>  <UniqueID>  (18) 
17

>  <SMILES>  (18) 
COc1ccccc1-c1c[n-]c2c(CN3CCc4ccccc4C3)c(O)ccc2c1=O

>  <Energy>  (18) 
81.29363192950555

>  <Genealogy>  (18) 
COc1ccccc1-c1c[n-]c2c(CN3CCc4ccccc4C3)c(O)ccc2c1=O (protonated)
COc1ccccc1-c1c[n-]c2c(CN3CCc4ccccc4C3)c(O)ccc2c1=O (3D coordinates assigned)
COc1ccccc1-c1c[n-]c2c(CN3CCc4ccccc4C3)c(O)ccc2c1=O (nonaromatic ring conformer: 81.29363192950555 kcal/mol)

>  <smiles>  (18) 
COc1ccccc1-c1c[nH]c2c(CN3CCc4ccccc4C3)c(O)ccc2c1=O

>  <score_type>  (18) 
oracle

>  <origin>  (18) 
adg

>  <m_score__min__energy>  (18) 
-9.0600000000000005

>  <m_primary>  (18) 
energy

$$$$
18:0
     RDKit          3D

 44 46  0  0  0  0  0  0  0  0999 V2000
   56.9770   27.5830   45.5770 C   0  0  0  0  0  0  0  0  0  0  0  0
   57.3190   28.9990   45.3020 C   0  0  0  0  0  0  0  0  0  0  0  0
   58.5690   29.4970   45.5730 C   0  0  0  0  0  0  0  0  0  0  0  0
   59.6950   28.7040   46.1130 C   0  0  0  0  0  0  0  0  0  0  0  0
   59.7260   28.8570   47.5780 C   0  0  0  0  0  0  0  0  0  0  0  0
   60.6290   28.0470   48.2700 C   0  0  0  0  0  0  0  0  0  0  0  0
   60.7620   28.0970   49.6310 C   0  0  0  0  0  0  0  0  0  0  0  0
   59.9720   28.9840   50.3230 C   0  0  0  0  0  0  0  0  0  0  0  0
   59.0670   29.8040   49.6850 C   0  0  0  0  0  0  0  0  0  0  0  0
   58.9660   29.7180   48.3150 C   0  0  0  0  0  0  0  0  0  0  0  0
   58.7730   30.8030   45.3020 N   0  0  0  0  0  0  0  0  0  0  0  0
   57.8150   31.6020   44.7910 C   0  0  0  0  0  0  0  0  0  0  0  0
   58.1460   33.3400   44.4560 S   0  0  0  0  0  0  0  0  0  0  0  0
   58.3130   34.1780   46.0580 C   0  0  0  0  0  0  0  0  0  0  0  0
   58.8410   33.2710   47.1350 C   0  0  0  0  0  0  0  0  0  0  0  0
   60.3040   33.1420   47.1340 C   0  0  0  0  0  0  0  0  0  0  0  0
   61.1040   33.9830   46.3700 C   0  0  0  0  0  0  0  0  0  0  0  0
   62.4940   33.8370   46.3870 C   0  0  0  0  0  0  0  0  0  0  0  0
   63.1270   32.8810   47.1390 C   0  0  0  0  0  0  0  0  0  0  0  0
   62.3340   32.0460   47.8970 C   0  0  0  0  0  0  0  0  0  0  0  0
   60.9630   32.1890   47.8810 C   0  0  0  0  0  0  0  0  0  0  0  0
   56.5900   31.0900   44.5320 N   0  0  0  0  0  0  0  0  0  0  0  0
   56.3030   29.7900   44.7740 C   0  0  0  0  0  0  0  0  0  0  0  0
   55.1650   29.3270   44.5300 O   0  0  0  0  0  0  0  0  0  0  0  0
   56.9376   27.4198   46.6641 H   0  0  0  0  0  0  0  0  0  0  0  0
   55.9968   27.3501   45.1355 H   0  0  0  0  0  0  0  0  0  0  0  0
   57.7429   26.9284   45.1355 H   0  0  0  0  0  0  0  0  0  0  0  0
   59.5571   27.6436   45.8552 H   0  0  0  0  0  0  0  0  0  0  0  0
   60.6423   29.0588   45.6807 H   0  0  0  0  0  0  0  0  0  0  0  0
   61.2553   27.3441   47.7010 H   0  0  0  0  0  0  0  0  0  0  0  0
   61.4788   27.4476   50.1550 H   0  0  0  0  0  0  0  0  0  0  0  0
   60.0650   29.0408   51.4176 H   0  0  0  0  0  0  0  0  0  0  0  0
   58.4425   30.5079   50.2547 H   0  0  0  0  0  0  0  0  0  0  0  0
   58.2461   30.3672   47.7951 H   0  0  0  0  0  0  0  0  0  0  0  0
   59.7110   31.2070   45.4980 H   0  0  0  0  0  0  0  0  0  0  0  0
   59.0044   35.0256   45.9414 H   0  0  0  0  0  0  0  0  0  0  0  0
   57.3104   34.5103   46.3653 H   0  0  0  0  0  0  0  0  0  0  0  0
   58.5285   33.6718   48.1105 H   0  0  0  0  0  0  0  0  0  0  0  0
   58.4300   32.2692   46.9414 H   0  0  0  0  0  0  0  0  0  0  0  0
   60.6422   34.7657   45.7502 H   0  0  0  0  0  0  0  0  0  0  0  0
   63.1041   34.5158   45.7729 H   0  0  0  0  0  0  0  0  0  0  0  0
   64.2227   32.7843   47.1375 H   0  0  0  0  0  0  0  0  0  0  0  0
   62.7966   31.2634   48.5163 H   0  0  0  0  0  0  0  0  0  0  0  0
   60.3618   31.5051   48.4982 H   0  0  0  0  0  0  0  0  0  0  0  0
  1  2  1  0
  2  3  2  0
  3  4  1  0
  4  5  1  0
  5  6  2  0
  6  7  1  0
  7  8  2  0
  8  9  1  0
  9 10  2  0
  3 11  1  0
 11 12  1  0
 12 13  1  0
 13 14  1  0
 14 15  1  0
 15 16  1  0
 16 17  2  0
 17 18  1  0
 18 19  2  0
 19 20  1  0
 20 21  2  0
 12 22  2  0
 22 23  1  0
 23 24  2  0
 23  2  1  0
 10  5  1  0
 21 16  1  0
  1 25  1  0
  1 26  1  0
  1 27  1  0
  4 28  1  0
  4 29  1  0
  6 30  1  0
  7 31  1  0
  8 32  1  0
  9 33  1  0
 10 34  1  0
 11 35  1  0
 14 36  1  0
 14 37  1  0
 15 38  1  0
 15 39  1  0
 17 40  1  0
 18 41  1  0
 19 42  1  0
 20 43  1  0
 21 44  1  0
M  END
>  <smiles>  (19) 
Cc1c(Cc2ccccc2)[nH]c(SCCc2ccccc2)nc1=O

>  <score_type>  (19) 
oracle

>  <origin>  (19) 
adg

>  <m_score__min__energy>  (19) 
-8.6099999999999994

>  <m_primary>  (19) 
energy

$$$$
19:0
     RDKit          3D

 34 36  0  0  0  0  0  0  0  0999 V2000
   57.6710   29.3580   46.2630 H   0  0  0  0  0  0  0  0  0  0  0  0
   57.7210   30.3330   46.5290 O   0  0  0  0  0  0  0  0  0  0  0  0
   58.0000   31.3320   45.5980 C   0  0  0  0  0  0  0  0  0  0  0  0
   58.5120   32.5760   45.9070 C   0  0  0  0  0  0  0  0  0  0  0  0
   58.6100   33.2660   44.7250 C   0  0  0  0  0  0  0  0  0  0  0  0
   58.1550   32.4190   43.7360 C   0  0  0  0  0  0  0  0  0  0  0  0
   58.0680   32.7360   42.3850 O   0  0  0  0  0  0  0  0  0  0  0  0
   57.7920   31.2280   44.2640 N   0  0  0  0  0  0  0  0  0  0  0  0
   57.2180   30.0920   43.5400 C   0  0  0  0  0  0  0  0  0  0  0  0
   57.9309   29.2546   43.5629 H   0  0  0  0  0  0  0  0  0  0  0  0
   57.0191   30.4034   42.5039 H   0  0  0  0  0  0  0  0  0  0  0  0
   55.9180   29.6490   44.1640 C   0  0  0  0  0  0  0  0  0  0  0  0
   54.8330   30.1020   43.7110 O   0  0  0  0  0  0  0  0  0  0  0  0
   55.8600   28.7290   45.2680 N   0  0  0  0  0  0  0  0  0  0  0  0
   56.6500   27.7260   45.5320 C   0  0  0  0  0  0  0  0  0  0  0  0
   58.0060   27.8440   45.4350 N   0  0  0  0  0  0  0  0  0  0  0  0
   58.8430   26.8040   45.6920 C   0  0  0  0  0  0  0  0  0  0  0  0
   59.9313   26.9405   45.6089 H   0  0  0  0  0  0  0  0  0  0  0  0
   58.3220   25.5640   46.0610 C   0  0  0  0  0  0  0  0  0  0  0  0
   58.9939   24.7191   46.2725 H   0  0  0  0  0  0  0  0  0  0  0  0
   56.9380   25.4070   46.1590 C   0  0  0  0  0  0  0  0  0  0  0  0
   56.5127   24.4337   46.4450 H   0  0  0  0  0  0  0  0  0  0  0  0
   56.0940   26.4890   45.8930 C   0  0  0  0  0  0  0  0  0  0  0  0
   54.7150   26.3310   45.9920 O   0  0  0  0  0  0  0  0  0  0  0  0
   59.0910   34.6770   44.6140 C   0  0  0  0  0  0  0  0  0  0  0  0
   58.2805   35.2988   44.2060 H   0  0  0  0  0  0  0  0  0  0  0  0
   59.9689   34.6887   43.9513 H   0  0  0  0  0  0  0  0  0  0  0  0
   59.5080   35.2350   45.9600 C   0  0  0  0  0  0  0  0  0  0  0  0
   59.9151   36.2564   45.9909 H   0  0  0  0  0  0  0  0  0  0  0  0
   59.4110   34.5560   47.1250 C   0  0  0  0  0  0  0  0  0  0  0  0
   59.7428   35.0596   48.0449 H   0  0  0  0  0  0  0  0  0  0  0  0
   58.8730   33.1430   47.2420 C   0  0  0  0  0  0  0  0  0  0  0  0
   57.9760   33.1548   47.8786 H   0  0  0  0  0  0  0  0  0  0  0  0
   59.6599   32.5120   47.6809 H   0  0  0  0  0  0  0  0  0  0  0  0
  1  2  1  0
  2  3  1  0
  3  4  2  0
  4  5  1  0
  5  6  2  0
  6  7  1  0
  6  8  1  0
  8  9  1  0
  9 10  1  0
  9 11  1  0
  9 12  1  0
 12 13  2  0
 12 14  1  0
 14 15  2  0
 15 16  1  0
 16 17  1  0
 17 18  1  0
 17 19  2  0
 19 20  1  0
 19 21  1  0
 21 22  1  0
 21 23  2  0
 23 24  1  0
  5 25  1  0
 25 26  1  0
 25 27  1  0
 25 28  1  0
 28 29  1  0
 28 30  2  0
 30 31  1  0
 30 32  1  0
 32 33  1  0
 32 34  1  0
  8  3  1  0
 23 15  1  0
 32  4  1  0
M  CHG  3   7  -1  16  -1  24  -1
M  END
>  <UniqueID>  (20) 
18

>  <SMILES>  (20) 
O=C(Cn1c([O-])c2c(c1O)CC=CC2)/N=c1\[n-]cccc1[O-]

>  <Energy>  (20) 
73.31136002536279

>  <Genealogy>  (20) 
O=C(Cn1c([O-])c2c(c1O)CC=CC2)N=c1[n-]cccc1[O-] (protonated)
O=C(Cn1c([O-])c2c(c1O)CC=CC2)/N=c1\[n-]cccc1[O-] (cis-trans isomerization)
O=C(Cn1c([O-])c2c(c1O)CC=CC2)/N=c1\[n-]cccc1[O-] (3D coordinates assigned)
O=C(Cn1c([O-])c2c(c1O)CC=CC2)/N=c1\[n-]cccc1[O-] (nonaromatic ring conformer: 73.31136002536279 kcal/mol)

>  <smiles>  (20) 
O=C(Cn1c(O)c2c(c1O)CC=CC2)N=c1[nH]cccc1O

>  <score_type>  (20) 
oracle

>  <origin>  (20) 
adg

>  <m_score__min__energy>  (20) 
-13.34

>  <m_primary>  (20) 
energy

$$$$
20:0
     RDKit          3D

 63 64  0  0  0  0  0  0  0  0999 V2000
   55.1490   27.4770   45.3680 H   0  0  0  0  0  0  0  0  0  0  0  0
   55.0050   26.6830   45.9800 O   0  0  0  0  0  0  0  0  0  0  0  0
   56.0680   25.8560   46.3270 C   0  0  0  0  0  0  0  0  0  0  0  0
   55.9310   24.7170   47.0270 N   0  0  0  0  0  0  0  0  0  0  0  0
   57.1900   24.2340   47.0590 C   0  0  0  0  0  0  0  0  0  0  0  0
   57.4870   23.1510   47.6290 O   0  0  0  0  0  0  0  0  0  0  0  0
   58.1060   24.9960   46.4210 N   0  0  0  0  0  0  0  0  0  0  0  0
   57.3880   26.0430   45.9780 C   0  0  0  0  0  0  0  0  0  0  0  0
   57.9560   27.1160   45.1420 C   0  0  0  0  0  0  0  0  0  0  0  0
   58.4661   26.8291   44.2106 H   0  0  0  0  0  0  0  0  0  0  0  0
   57.8890   28.4260   45.4480 C   0  0  0  0  0  0  0  0  0  0  0  0
   58.4720   29.0460   46.5440 C   0  0  0  0  0  0  0  0  0  0  0  0
   59.0442   28.5580   47.3468 H   0  0  0  0  0  0  0  0  0  0  0  0
   58.1950   30.3930   46.4320 C   0  0  0  0  0  0  0  0  0  0  0  0
   58.6560   31.4360   47.4060 C   0  0  0  0  0  0  0  0  0  0  0  0
   58.4964   31.0749   48.4327 H   0  0  0  0  0  0  0  0  0  0  0  0
   59.7263   31.6360   47.2498 H   0  0  0  0  0  0  0  0  0  0  0  0
   58.0834   32.3621   47.2498 H   0  0  0  0  0  0  0  0  0  0  0  0
   57.4560   30.6370   45.3260 N   0  0  0  0  0  0  0  0  0  0  0  0
   57.0140   31.9610   44.8640 C   0  0  0  0  0  0  0  0  0  0  0  0
   56.4476   31.8481   43.9278 H   0  0  0  0  0  0  0  0  0  0  0  0
   56.3774   32.4154   45.6375 H   0  0  0  0  0  0  0  0  0  0  0  0
   58.2220   32.8690   44.6170 C   0  0  0  0  0  0  0  0  0  0  0  0
   59.1346   32.3502   44.9457 H   0  0  0  0  0  0  0  0  0  0  0  0
   58.2733   33.0978   43.5423 H   0  0  0  0  0  0  0  0  0  0  0  0
   58.0890   34.1870   45.3900 C   0  0  0  0  0  0  0  0  0  0  0  0
   57.3590   34.8255   44.8710 H   0  0  0  0  0  0  0  0  0  0  0  0
   57.7644   33.9381   46.4111 H   0  0  0  0  0  0  0  0  0  0  0  0
   59.4190   34.9550   45.5040 C   0  0  0  0  0  0  0  0  0  0  0  0
   60.0008   34.7655   44.5899 H   0  0  0  0  0  0  0  0  0  0  0  0
   59.1499   36.0126   45.6423 H   0  0  0  0  0  0  0  0  0  0  0  0
   60.2940   34.5750   46.7130 C   0  0  0  0  0  0  0  0  0  0  0  0
   60.7997   35.4810   47.0784 H   0  0  0  0  0  0  0  0  0  0  0  0
   59.6312   34.1393   47.4752 H   0  0  0  0  0  0  0  0  0  0  0  0
   61.3610   33.5210   46.3740 C   0  0  0  0  0  0  0  0  0  0  0  0
   61.1935   32.6350   47.0040 H   0  0  0  0  0  0  0  0  0  0  0  0
   61.2654   33.2825   45.3044 H   0  0  0  0  0  0  0  0  0  0  0  0
   62.7910   34.0300   46.6110 C   0  0  0  0  0  0  0  0  0  0  0  0
   63.1845   34.4259   45.6631 H   0  0  0  0  0  0  0  0  0  0  0  0
   62.7409   34.8062   47.3888 H   0  0  0  0  0  0  0  0  0  0  0  0
   63.7410   32.9300   47.1160 C   0  0  0  0  0  0  0  0  0  0  0  0
   63.4656   31.9778   46.6391 H   0  0  0  0  0  0  0  0  0  0  0  0
   64.7682   33.2257   46.8563 H   0  0  0  0  0  0  0  0  0  0  0  0
   63.6710   32.7570   48.6480 C   0  0  0  0  0  0  0  0  0  0  0  0
   64.6930   32.6094   49.0272 H   0  0  0  0  0  0  0  0  0  0  0  0
   63.1988   33.6650   49.0513 H   0  0  0  0  0  0  0  0  0  0  0  0
   62.8080   31.5640   49.1010 C   0  0  0  0  0  0  0  0  0  0  0  0
   62.7931   30.8243   48.2870 H   0  0  0  0  0  0  0  0  0  0  0  0
   63.2672   31.1843   50.0256 H   0  0  0  0  0  0  0  0  0  0  0  0
   61.3540   31.9150   49.4540 C   0  0  0  0  0  0  0  0  0  0  0  0
   60.7275   31.7566   48.5639 H   0  0  0  0  0  0  0  0  0  0  0  0
   61.0478   31.2654   50.2872 H   0  0  0  0  0  0  0  0  0  0  0  0
   61.1920   33.3730   49.9170 C   0  0  0  0  0  0  0  0  0  0  0  0
   61.6434   33.4817   50.9142 H   0  0  0  0  0  0  0  0  0  0  0  0
   61.6921   34.0215   49.1826 H   0  0  0  0  0  0  0  0  0  0  0  0
   59.7200   33.7880   49.9920 C   0  0  0  0  0  0  0  0  0  0  0  0
   59.6309   34.8449   49.7004 H   0  0  0  0  0  0  0  0  0  0  0  0
   59.1440   33.1449   49.3104 H   0  0  0  0  0  0  0  0  0  0  0  0
   59.0690   33.5840   51.6400 Cl  0  0  0  0  0  0  0  0  0  0  0  0
   57.2810   29.4420   44.7020 C   0  0  0  0  0  0  0  0  0  0  0  0
   56.6220   29.2860   43.5420 C   0  0  0  0  0  0  0  0  0  0  0  0
   56.1807   30.1588   43.0384 H   0  0  0  0  0  0  0  0  0  0  0  0
   56.5236   28.2855   43.0956 H   0  0  0  0  0  0  0  0  0  0  0  0
  1  2  1  0
  2  3  1  0
  3  4  1  0
  4  5  1  0
  5  6  2  0
  5  7  1  0
  7  8  1  0
  8  9  1  0
  9 10  1  0
  9 11  2  0
 11 12  1  0
 12 13  1  0
 12 14  2  0
 14 15  1  0
 15 16  1  0
 15 17  1  0
 15 18  1  0
 14 19  1  0
 19 20  1  0
 20 21  1  0
 20 22  1  0
 20 23  1  0
 23 24  1  0
 23 25  1  0
 23 26  1  0
 26 27  1  0
 26 28  1  0
 26 29  1  0
 29 30  1  0
 29 31  1  0
 29 32  1  0
 32 33  1  0
 32 34  1  0
 32 35  1  0
 35 36  1  0
 35 37  1  0
 35 38  1  0
 38 39  1  0
 38 40  1  0
 38 41  1  0
 41 42  1  0
 41 43  1  0
 41 44  1  0
 44 45  1  0
 44 46  1  0
 44 47  1  0
 47 48  1  0
 47 49  1  0
 47 50  1  0
 50 51  1  0
 50 52  1  0
 50 53  1  0
 53 54  1  0
 53 55  1  0
 53 56  1  0
 56 57  1  0
 56 58  1  0
 56 59  1  0
 19 60  1  0
 60 61  2  0
 61 62  1  0
 61 63  1  0
  8  3  2  0
 60 11  1  0
M  CHG  2   4  -1   7  -1
M  END
>  <UniqueID>  (21) 
19

>  <SMILES>  (21) 
C=c1/c(=C/c2[n-]c(=O)[n-]c2O)cc(C)n1CCCCCCCCCCCCCCl

>  <Energy>  (21) 
107.2977711597186

>  <Genealogy>  (21) 
C=c1c(=Cc2[n-]c(=O)[n-]c2O)cc(C)n1CCCCCCCCCCCCCCl (protonated)
C=c1/c(=C/c2[n-]c(=O)[n-]c2O)cc(C)n1CCCCCCCCCCCCCCl (cis-trans isomerization)
C=c1/c(=C/c2[n-]c(=O)[n-]c2O)cc(C)n1CCCCCCCCCCCCCCl (3D coordinates assigned)
C=c1/c(=C/c2[n-]c(=O)[n-]c2O)cc(C)n1CCCCCCCCCCCCCCl (optimized conformer: 107.2977711597186 kcal/mol)

>  <smiles>  (21) 
C=c1c(=Cc2[nH]c(=O)[nH]c2O)cc(C)n1CCCCCCCCCCCCCCl

>  <score_type>  (21) 
oracle

>  <origin>  (21) 
adg

>  <m_score__min__energy>  (21) 
-12.77

>  <m_primary>  (21) 
energy

$$$$
21:0
     RDKit          3D

 42 44  0  0  0  0  0  0  0  0999 V2000
   64.0750   32.8620   47.3020 N   0  0  0  0  0  0  0  0  0  0  0  0
   62.8330   33.4630   47.6760 C   0  0  0  0  0  0  0  0  0  0  0  0
   62.7420   34.0510   48.7870 O   0  0  0  0  0  0  0  0  0  0  0  0
   61.6330   33.4100   46.7630 C   0  0  0  0  0  0  0  0  0  0  0  0
   60.8930   32.0570   46.8870 C   0  0  0  0  0  0  0  0  0  0  0  0
   59.4310   32.1480   46.4110 C   0  0  0  0  0  0  0  0  0  0  0  0
   59.2810   33.2370   45.4270 N   0  0  0  0  0  0  0  0  0  0  0  0
   58.0240   33.1530   44.6520 C   0  0  0  0  0  0  0  0  0  0  0  0
   57.5190   31.7470   44.4860 C   0  0  0  0  0  0  0  0  0  0  0  0
   56.2900   31.3430   44.8640 N   0  0  0  0  0  0  0  0  0  0  0  0
   56.2680   30.0700   44.6130 O   0  0  0  0  0  0  0  0  0  0  0  0
   57.4190   29.7010   44.1060 C   0  0  0  0  0  0  0  0  0  0  0  0
   57.7690   28.2940   43.7540 C   0  0  0  0  0  0  0  0  0  0  0  0
   58.1260   27.5280   45.0030 C   0  0  0  0  0  0  0  0  0  0  0  0
   57.1500   26.7170   45.6110 C   0  0  0  0  0  0  0  0  0  0  0  0
   57.4370   26.0260   46.7910 C   0  0  0  0  0  0  0  0  0  0  0  0
   58.6950   26.1440   47.3820 C   0  0  0  0  0  0  0  0  0  0  0  0
   59.6690   26.9560   46.7980 C   0  0  0  0  0  0  0  0  0  0  0  0
   59.3930   27.6540   45.6150 C   0  0  0  0  0  0  0  0  0  0  0  0
   60.6570   28.6800   44.9410 Cl  0  0  0  0  0  0  0  0  0  0  0  0
   58.2710   30.7380   43.9990 N   0  0  0  0  0  0  0  0  0  0  0  0
   59.4820   34.5690   46.0450 C   0  0  0  0  0  0  0  0  0  0  0  0
   60.6790   34.5880   47.0220 C   0  0  0  0  0  0  0  0  0  0  0  0
   64.8940   32.9070   47.9470 H   0  0  0  0  0  0  0  0  0  0  0  0
   64.1870   32.3790   46.3830 H   0  0  0  0  0  0  0  0  0  0  0  0
   62.0001   33.4988   45.7299 H   0  0  0  0  0  0  0  0  0  0  0  0
   61.4186   31.3084   46.2760 H   0  0  0  0  0  0  0  0  0  0  0  0
   60.8852   31.7724   47.9495 H   0  0  0  0  0  0  0  0  0  0  0  0
   59.1409   31.1948   45.9448 H   0  0  0  0  0  0  0  0  0  0  0  0
   58.7846   32.3555   47.2765 H   0  0  0  0  0  0  0  0  0  0  0  0
   57.2536   33.7413   45.1720 H   0  0  0  0  0  0  0  0  0  0  0  0
   58.2358   33.5434   43.6456 H   0  0  0  0  0  0  0  0  0  0  0  0
   56.9077   27.8148   43.2655 H   0  0  0  0  0  0  0  0  0  0  0  0
   58.6304   28.2946   43.0699 H   0  0  0  0  0  0  0  0  0  0  0  0
   56.1536   26.6263   45.1539 H   0  0  0  0  0  0  0  0  0  0  0  0
   56.6700   25.3882   47.2545 H   0  0  0  0  0  0  0  0  0  0  0  0
   58.9199   25.5966   48.3093 H   0  0  0  0  0  0  0  0  0  0  0  0
   60.6586   27.0483   47.2693 H   0  0  0  0  0  0  0  0  0  0  0  0
   59.6643   35.3048   45.2479 H   0  0  0  0  0  0  0  0  0  0  0  0
   58.5758   34.8139   46.6185 H   0  0  0  0  0  0  0  0  0  0  0  0
   61.2311   35.5307   46.8934 H   0  0  0  0  0  0  0  0  0  0  0  0
   60.2906   34.5001   48.0474 H   0  0  0  0  0  0  0  0  0  0  0  0
  1  2  1  0
  2  3  2  0
  2  4  1  0
  4  5  1  0
  5  6  1  0
  6  7  1  0
  7  8  1  0
  8  9  1  0
  9 10  2  0
 10 11  1  0
 11 12  1  0
 12 13  1  0
 13 14  1  0
 14 15  2  0
 15 16  1  0
 16 17  2  0
 17 18  1  0
 18 19  2  0
 19 20  1  0
 12 21  2  0
  7 22  1  0
 22 23  1  0
 23  4  1  0
 21  9  1  0
 19 14  1  0
  1 24  1  0
  1 25  1  0
  4 26  1  0
  5 27  1  0
  5 28  1  0
  6 29  1  0
  6 30  1  0
  8 31  1  0
  8 32  1  0
 13 33  1  0
 13 34  1  0
 15 35  1  0
 16 36  1  0
 17 37  1  0
 18 38  1  0
 22 39  1  0
 22 40  1  0
 23 41  1  0
 23 42  1  0
M  END
>  <UniqueID>  (22) 
20

>  <SMILES>  (22) 
NC(=O)C1CCN(Cc2noc(Cc3ccccc3Cl)n2)CC1

>  <Energy>  (22) 
79.85398590222385

>  <Genealogy>  (22) 
NC(=O)C1CCN(Cc2noc(Cc3ccccc3Cl)n2)CC1 (3D coordinates assigned)
NC(=O)C1CCN(Cc2noc(Cc3ccccc3Cl)n2)CC1 (nonaromatic ring conformer: 79.85398590222385 kcal/mol)

>  <smiles>  (22) 
NC(=O)C1CCN(Cc2noc(Cc3ccccc3Cl)n2)CC1

>  <score_type>  (22) 
oracle

>  <origin>  (22) 
adg

>  <m_score__min__energy>  (22) 
-8.9000000000000004

>  <m_primary>  (22) 
energy

$$$$
22:0
     RDKit          3D

 43 45  0  0  0  0  0  0  0  0999 V2000
   55.6740   28.6730   45.1980 O   0  0  0  0  0  0  0  0  0  0  0  0
   56.8840   28.3470   45.3360 C   0  0  0  0  0  0  0  0  0  0  0  0
   57.9210   28.8520   44.3790 C   0  0  0  0  0  0  0  0  0  0  0  0
   59.0510   29.3880   45.0730 O   0  0  0  0  0  0  0  0  0  0  0  0
   59.1540   30.6940   45.5830 C   0  0  0  0  0  0  0  0  0  0  0  0
   60.0690   31.0480   46.5950 C   0  0  0  0  0  0  0  0  0  0  0  0
   60.1150   32.3620   47.0740 C   0  0  0  0  0  0  0  0  0  0  0  0
   59.2550   33.3310   46.5500 C   0  0  0  0  0  0  0  0  0  0  0  0
   59.3000   34.9750   47.1680 Cl  0  0  0  0  0  0  0  0  0  0  0  0
   58.3500   32.9870   45.5420 C   0  0  0  0  0  0  0  0  0  0  0  0
   58.3030   31.6760   45.0610 C   0  0  0  0  0  0  0  0  0  0  0  0
   57.2700   27.4110   46.3470 N   0  0  0  0  0  0  0  0  0  0  0  0
   57.1090   25.9870   46.2690 C   0  0  0  0  0  0  0  0  0  0  0  0
   58.2150   25.1190   46.3760 C   0  0  0  0  0  0  0  0  0  0  0  0
   59.5000   25.6170   46.5600 O   0  0  0  0  0  0  0  0  0  0  0  0
   58.0360   23.7380   46.2580 C   0  0  0  0  0  0  0  0  0  0  0  0
   56.7690   23.2120   46.0070 C   0  0  0  0  0  0  0  0  0  0  0  0
   55.6630   24.0590   45.8750 C   0  0  0  0  0  0  0  0  0  0  0  0
   54.3690   23.4900   45.6230 N   0  0  0  0  0  0  0  0  0  0  0  0
   53.6660   23.7630   44.3670 C   0  0  0  0  0  0  0  0  0  0  0  0
   52.1550   23.7490   44.6160 C   0  0  0  0  0  0  0  0  0  0  0  0
   51.7630   22.5580   45.2750 O   0  0  0  0  0  0  0  0  0  0  0  0
   52.3350   22.5140   46.5690 C   0  0  0  0  0  0  0  0  0  0  0  0
   53.8620   22.4230   46.4860 C   0  0  0  0  0  0  0  0  0  0  0  0
   55.8330   25.4520   45.9920 C   0  0  0  0  0  0  0  0  0  0  0  0
   54.7280   26.2890   45.8270 O   0  0  0  0  0  0  0  0  0  0  0  0
   58.2540   28.0209   43.7400 H   0  0  0  0  0  0  0  0  0  0  0  0
   57.4734   29.6534   43.7729 H   0  0  0  0  0  0  0  0  0  0  0  0
   60.7489   30.2891   47.0095 H   0  0  0  0  0  0  0  0  0  0  0  0
   60.8299   32.6329   47.8650 H   0  0  0  0  0  0  0  0  0  0  0  0
   57.6741   33.7491   45.1269 H   0  0  0  0  0  0  0  0  0  0  0  0
   57.5909   31.4128   44.2649 H   0  0  0  0  0  0  0  0  0  0  0  0
   58.8981   23.0630   46.3635 H   0  0  0  0  0  0  0  0  0  0  0  0
   56.6382   22.1239   45.9121 H   0  0  0  0  0  0  0  0  0  0  0  0
   53.9659   24.7503   43.9857 H   0  0  0  0  0  0  0  0  0  0  0  0
   53.9234   22.9912   43.6267 H   0  0  0  0  0  0  0  0  0  0  0  0
   51.8849   24.6125   45.2416 H   0  0  0  0  0  0  0  0  0  0  0  0
   51.6382   23.8009   43.6463 H   0  0  0  0  0  0  0  0  0  0  0  0
   52.0574   23.4263   47.1172 H   0  0  0  0  0  0  0  0  0  0  0  0
   51.9566   21.6231   47.0916 H   0  0  0  0  0  0  0  0  0  0  0  0
   54.2909   22.5313   47.4931 H   0  0  0  0  0  0  0  0  0  0  0  0
   54.1485   21.4467   46.0680 H   0  0  0  0  0  0  0  0  0  0  0  0
   54.7680   27.2880   45.9980 H   0  0  0  0  0  0  0  0  0  0  0  0
  1  2  2  0
  2  3  1  0
  3  4  1  0
  4  5  1  0
  5  6  2  0
  6  7  1  0
  7  8  2  0
  8  9  1  0
  8 10  1  0
 10 11  2  0
  2 12  1  0
 12 13  1  0
 13 14  2  0
 14 15  1  0
 14 16  1  0
 16 17  2  0
 17 18  1  0
 18 19  1  0
 19 20  1  0
 20 21  1  0
 21 22  1  0
 22 23  1  0
 23 24  1  0
 18 25  2  0
 25 26  1  0
 11  5  1  0
 25 13  1  0
 24 19  1  0
  3 27  1  0
  3 28  1  0
  6 29  1  0
  7 30  1  0
 10 31  1  0
 11 32  1  0
 16 33  1  0
 17 34  1  0
 20 35  1  0
 20 36  1  0
 21 37  1  0
 21 38  1  0
 23 39  1  0
 23 40  1  0
 24 41  1  0
 24 42  1  0
 26 43  1  0
M  CHG  2  12  -1  15  -1
M  END
>  <UniqueID>  (23) 
21

>  <SMILES>  (23) 
O=C(COc1ccc(Cl)cc1)[N-]c1c([O-])ccc(N2CCOCC2)c1O

>  <Energy>  (23) 
57.66504616513143

>  <Genealogy>  (23) 
O=C(COc1ccc(Cl)cc1)[N-]c1c([O-])ccc(N2CCOCC2)c1O (protonated)
O=C(COc1ccc(Cl)cc1)[N-]c1c([O-])ccc(N2CCOCC2)c1O (3D coordinates assigned)
O=C(COc1ccc(Cl)cc1)[N-]c1c([O-])ccc(N2CCOCC2)c1O (nonaromatic ring conformer: 57.66504616513143 kcal/mol)

>  <smiles>  (23) 
O=C(COc1ccc(Cl)cc1)Nc1c(O)ccc(N2CCOCC2)c1O

>  <score_type>  (23) 
oracle

>  <origin>  (23) 
adg

>  <m_score__min__energy>  (23) 
-11.460000000000001

>  <m_primary>  (23) 
energy

$$$$
23:0
     RDKit          3D

 43 45  0  0  0  0  0  0  0  0999 V2000
   60.3085   27.9277   47.7852 H   0  0  0  0  0  0  0  0  0  0  0  0
   59.8370   28.8880   48.0410 C   0  0  0  0  0  0  0  0  0  0  0  0
   59.3490   29.1000   49.3310 C   0  0  0  0  0  0  0  0  0  0  0  0
   59.4387   28.3053   50.0862 H   0  0  0  0  0  0  0  0  0  0  0  0
   58.7440   30.3210   49.6720 C   0  0  0  0  0  0  0  0  0  0  0  0
   58.2070   30.5400   51.0390 C   0  0  0  0  0  0  0  0  0  0  0  0
   56.9480   30.1330   51.3410 N   0  0  0  0  0  0  0  0  0  0  0  0
   56.3970   30.3010   52.5690 C   0  0  0  0  0  0  0  0  0  0  0  0
   55.1740   29.8760   52.7490 N   0  0  0  0  0  0  0  0  0  0  0  0
   53.9410   30.5490   52.4610 C   0  0  0  0  0  0  0  0  0  0  0  0
   53.7190   31.0600   51.1760 C   0  0  0  0  0  0  0  0  0  0  0  0
   54.4666   30.8991   50.3853 H   0  0  0  0  0  0  0  0  0  0  0  0
   52.5500   31.7740   50.8950 C   0  0  0  0  0  0  0  0  0  0  0  0
   52.3708   32.1556   49.8790 H   0  0  0  0  0  0  0  0  0  0  0  0
   51.6080   32.0040   51.9030 C   0  0  0  0  0  0  0  0  0  0  0  0
   50.4470   32.7130   51.6230 O   0  0  0  0  0  0  0  0  0  0  0  0
   51.8400   31.5240   53.1970 C   0  0  0  0  0  0  0  0  0  0  0  0
   51.1024   31.7080   53.9920 H   0  0  0  0  0  0  0  0  0  0  0  0
   53.0100   30.8100   53.4800 C   0  0  0  0  0  0  0  0  0  0  0  0
   53.2009   30.4524   54.5026 H   0  0  0  0  0  0  0  0  0  0  0  0
   57.1900   30.8910   53.5870 C   0  0  0  0  0  0  0  0  0  0  0  0
   56.7660   30.9750   54.7730 O   0  0  0  0  0  0  0  0  0  0  0  0
   58.4500   31.3390   53.2870 N   0  0  0  0  0  0  0  0  0  0  0  0
   59.2810   31.9600   54.3280 C   0  0  0  0  0  0  0  0  0  0  0  0
   58.8999   31.6752   55.3198 H   0  0  0  0  0  0  0  0  0  0  0  0
   60.3202   31.6154   54.2217 H   0  0  0  0  0  0  0  0  0  0  0  0
   59.2449   33.0543   54.2217 H   0  0  0  0  0  0  0  0  0  0  0  0
   58.9670   31.1650   52.0350 C   0  0  0  0  0  0  0  0  0  0  0  0
   59.9841   31.5171   51.8083 H   0  0  0  0  0  0  0  0  0  0  0  0
   58.6300   31.3270   48.6880 C   0  0  0  0  0  0  0  0  0  0  0  0
   58.0680   32.5230   49.0030 F   0  0  0  0  0  0  0  0  0  0  0  0
   59.1310   31.1200   47.3880 C   0  0  0  0  0  0  0  0  0  0  0  0
   59.0030   32.1670   46.4060 N   0  0  0  0  0  0  0  0  0  0  0  0
   59.8040   32.8160   46.2440 H   0  0  0  0  0  0  0  0  0  0  0  0
   57.6390   32.3530   45.3470 S   0  0  0  0  0  0  0  0  0  0  0  0
   56.9630   31.0270   45.1390 O   0  0  0  0  0  0  0  0  0  0  0  0
   56.6600   33.3010   45.9790 O   0  0  0  0  0  0  0  0  0  0  0  0
   58.1590   33.0380   43.7880 C   0  0  0  0  0  0  0  0  0  0  0  0
   58.8152   33.9023   43.9679 H   0  0  0  0  0  0  0  0  0  0  0  0
   58.7069   32.2744   43.2165 H   0  0  0  0  0  0  0  0  0  0  0  0
   57.2762   33.3605   43.2165 H   0  0  0  0  0  0  0  0  0  0  0  0
   59.7300   29.8870   47.0750 C   0  0  0  0  0  0  0  0  0  0  0  0
   60.1169   29.7096   46.0607 H   0  0  0  0  0  0  0  0  0  0  0  0
  1  2  1  0
  2  3  2  0
  3  4  1  0
  3  5  1  0
  5  6  1  0
  6  7  1  0
  7  8  1  0
  8  9  2  0
  9 10  1  0
 10 11  2  0
 11 12  1  0
 11 13  1  0
 13 14  1  0
 13 15  2  0
 15 16  1  0
 15 17  1  0
 17 18  1  0
 17 19  2  0
 19 20  1  0
  8 21  1  0
 21 22  2  0
 21 23  1  0
 23 24  1  0
 24 25  1  0
 24 26  1  0
 24 27  1  0
 23 28  1  0
 28 29  1  0
  5 30  2  0
 30 31  1  0
 30 32  1  0
 32 33  1  0
 33 34  1  0
 33 35  1  0
 35 36  2  0
 35 37  2  0
 35 38  1  0
 38 39  1  0
 38 40  1  0
 38 41  1  0
 32 42  2  0
 42 43  1  0
 42  2  1  0
 28  6  2  0
 19 10  1  0
M  CHG  2   7  -1  16  -1
M  END
>  <UniqueID>  (24) 
22

>  <SMILES>  (24) 
Cn1cc(-c2cccc(NS(C)(=O)=O)c2F)[n-]/c(=N/c2ccc([O-])cc2)c1=O

>  <Energy>  (24) 
66.24158064337286

>  <Genealogy>  (24) 
Cn1cc(-c2cccc(NS(C)(=O)=O)c2F)[n-]c(=Nc2ccc([O-])cc2)c1=O (protonated)
Cn1cc(-c2cccc(NS(C)(=O)=O)c2F)[n-]/c(=N/c2ccc([O-])cc2)c1=O (cis-trans isomerization)
Cn1cc(-c2cccc(NS(C)(=O)=O)c2F)[n-]/c(=N/c2ccc([O-])cc2)c1=O (3D coordinates assigned)
Cn1cc(-c2cccc(NS(C)(=O)=O)c2F)[n-]/c(=N/c2ccc([O-])cc2)c1=O (optimized conformer: 66.24158064337286 kcal/mol)

>  <smiles>  (24) 
Cn1cc(-c2cccc(NS(C)(=O)=O)c2F)[nH]c(=Nc2ccc(O)cc2)c1=O

>  <score_type>  (24) 
oracle

>  <origin>  (24) 
adg

>  <m_score__min__energy>  (24) 
-13.130000000000001

>  <m_primary>  (24) 
energy

$$$$
24:0
     RDKit          3D

 52 55  0  0  0  0  0  0  0  0999 V2000
   58.5940   32.3280   51.0380 O   0  0  0  0  0  0  0  0  0  0  0  0
   58.8770   31.1060   51.1630 C   0  0  0  0  0  0  0  0  0  0  0  0
   59.7890   30.4620   50.1550 C   0  0  0  0  0  0  0  0  0  0  0  0
   59.1660   30.5040   48.7860 C   0  0  0  0  0  0  0  0  0  0  0  0
   58.7570   31.7290   48.2320 C   0  0  0  0  0  0  0  0  0  0  0  0
   58.1700   31.7700   46.9640 C   0  0  0  0  0  0  0  0  0  0  0  0
   57.9790   30.5830   46.2350 C   0  0  0  0  0  0  0  0  0  0  0  0
   57.4010   30.5980   44.9230 N   0  0  0  0  0  0  0  0  0  0  0  0
   56.3550   29.7290   44.4700 C   0  0  0  0  0  0  0  0  0  0  0  0
   55.8160   29.9530   43.3570 O   0  0  0  0  0  0  0  0  0  0  0  0
   55.9060   28.6130   45.2510 N   0  0  0  0  0  0  0  0  0  0  0  0
   56.6050   27.3700   45.4110 C   0  0  0  0  0  0  0  0  0  0  0  0
   56.0870   26.4070   46.2850 C   0  0  0  0  0  0  0  0  0  0  0  0
   56.7390   25.1810   46.4560 C   0  0  0  0  0  0  0  0  0  0  0  0
   57.9210   24.9160   45.7630 C   0  0  0  0  0  0  0  0  0  0  0  0
   58.4590   25.8820   44.9090 C   0  0  0  0  0  0  0  0  0  0  0  0
   57.8130   27.1110   44.7440 C   0  0  0  0  0  0  0  0  0  0  0  0
   58.3450   29.3570   46.8040 C   0  0  0  0  0  0  0  0  0  0  0  0
   58.9470   29.3170   48.0660 C   0  0  0  0  0  0  0  0  0  0  0  0
   58.2290   30.3490   52.1940 N   0  0  0  0  0  0  0  0  0  0  0  0
   56.8180   30.1310   52.2990 C   0  0  0  0  0  0  0  0  0  0  0  0
   56.3440   29.0430   53.0410 C   0  0  0  0  0  0  0  0  0  0  0  0
   54.9700   28.8310   53.1810 C   0  0  0  0  0  0  0  0  0  0  0  0
   54.0530   29.6840   52.5490 C   0  0  0  0  0  0  0  0  0  0  0  0
   52.5750   29.5070   52.7590 C   0  0  0  0  0  0  0  0  0  0  0  0
   51.8280   30.6220   52.0920 C   0  0  0  0  0  0  0  0  0  0  0  0
   51.6500   30.7870   50.7360 C   0  0  0  0  0  0  0  0  0  0  0  0
   51.0120   32.0050   50.5980 C   0  0  0  0  0  0  0  0  0  0  0  0
   50.6420   32.5650   49.3830 O   0  0  0  0  0  0  0  0  0  0  0  0
   50.7940   32.6070   51.7850 N   0  0  0  0  0  0  0  0  0  0  0  0
   51.3060   31.7520   52.6920 C   0  0  0  0  0  0  0  0  0  0  0  0
   51.3110   32.0050   54.0570 O   0  0  0  0  0  0  0  0  0  0  0  0
   54.5310   30.7540   51.7750 C   0  0  0  0  0  0  0  0  0  0  0  0
   55.9060   30.9680   51.6400 C   0  0  0  0  0  0  0  0  0  0  0  0
   60.7468   31.0025   50.1346 H   0  0  0  0  0  0  0  0  0  0  0  0
   59.9547   29.4128   50.4409 H   0  0  0  0  0  0  0  0  0  0  0  0
   58.8995   32.6606   48.7992 H   0  0  0  0  0  0  0  0  0  0  0  0
   57.8567   32.7334   46.5354 H   0  0  0  0  0  0  0  0  0  0  0  0
   55.1611   26.6156   46.8411 H   0  0  0  0  0  0  0  0  0  0  0  0
   56.3198   24.4256   47.1370 H   0  0  0  0  0  0  0  0  0  0  0  0
   58.4283   23.9481   45.8890 H   0  0  0  0  0  0  0  0  0  0  0  0
   59.3927   25.6753   44.3653 H   0  0  0  0  0  0  0  0  0  0  0  0
   58.2528   27.8777   44.0892 H   0  0  0  0  0  0  0  0  0  0  0  0
   58.1583   28.4215   46.2563 H   0  0  0  0  0  0  0  0  0  0  0  0
   59.2505   28.3516   48.4971 H   0  0  0  0  0  0  0  0  0  0  0  0
   57.0560   28.3520   53.5159 H   0  0  0  0  0  0  0  0  0  0  0  0
   54.6054   27.9907   53.7901 H   0  0  0  0  0  0  0  0  0  0  0  0
   52.2578   28.5461   52.3276 H   0  0  0  0  0  0  0  0  0  0  0  0
   52.3583   29.5200   53.8374 H   0  0  0  0  0  0  0  0  0  0  0  0
   51.9513   30.0967   49.9343 H   0  0  0  0  0  0  0  0  0  0  0  0
   53.8203   31.4268   51.2727 H   0  0  0  0  0  0  0  0  0  0  0  0
   56.2735   31.7953   51.0151 H   0  0  0  0  0  0  0  0  0  0  0  0
  1  2  2  0
  2  3  1  0
  3  4  1  0
  4  5  2  0
  5  6  1  0
  6  7  2  0
  7  8  1  0
  8  9  1  0
  9 10  2  0
  9 11  1  0
 11 12  1  0
 12 13  2  0
 13 14  1  0
 14 15  2  0
 15 16  1  0
 16 17  2  0
  7 18  1  0
 18 19  2  0
  2 20  1  0
 20 21  1  0
 21 22  2  0
 22 23  1  0
 23 24  2  0
 24 25  1  0
 25 26  1  0
 26 27  1  0
 27 28  2  0
 28 29  1  0
 28 30  1  0
 30 31  1  0
 31 32  1  0
 24 33  1  0
 33 34  2  0
 19  4  1  0
 34 21  1  0
 17 12  1  0
 31 26  2  0
  3 35  1  0
  3 36  1  0
  5 37  1  0
  6 38  1  0
 13 39  1  0
 14 40  1  0
 15 41  1  0
 16 42  1  0
 17 43  1  0
 18 44  1  0
 19 45  1  0
 22 46  1  0
 23 47  1  0
 25 48  1  0
 25 49  1  0
 27 50  1  0
 33 51  1  0
 34 52  1  0
M  CHG  6   8  -1  11  -1  20  -1  29  -1  30  -1  32  -1
M  END
>  <UniqueID>  (25) 
23

>  <SMILES>  (25) 
O=C(Cc1ccc([N-]C(=O)[N-]c2ccccc2)cc1)[N-]c1ccc(Cc2cc([O-])[n-]c2[O-])cc1

>  <Energy>  (25) 
91.49410127769917

>  <Genealogy>  (25) 
O=C(Cc1ccc([N-]C(=O)[N-]c2ccccc2)cc1)[N-]c1ccc(Cc2cc([O-])[n-]c2[O-])cc1 (protonated)
O=C(Cc1ccc([N-]C(=O)[N-]c2ccccc2)cc1)[N-]c1ccc(Cc2cc([O-])[n-]c2[O-])cc1 (3D coordinates assigned)
O=C(Cc1ccc([N-]C(=O)[N-]c2ccccc2)cc1)[N-]c1ccc(Cc2cc([O-])[n-]c2[O-])cc1 (optimized conformer: 91.49410127769917 kcal/mol)

>  <smiles>  (25) 
O=C(Cc1ccc(NC(=O)Nc2ccccc2)cc1)Nc1ccc(Cc2cc(O)[nH]c2O)cc1

>  <score_type>  (25) 
oracle

>  <origin>  (25) 
adg

>  <m_score__min__energy>  (25) 
-22.109999999999999

>  <m_primary>  (25) 
energy

$$$$
25:0
     RDKit          3D

 68 69  0  0  0  0  0  0  0  0999 V2000
   58.4070   32.2580   49.6140 C   0  0  0  0  0  0  0  0  0  0  0  0
   58.9370   31.2430   48.6120 C   0  0  0  0  0  0  0  0  0  0  0  0
   59.3360   29.9370   49.0500 C   0  0  0  0  0  0  0  0  0  0  0  0
   59.3350   29.4340   50.5080 C   0  0  2  0  0  0  0  0  0  0  0  0
   58.1200   29.6970   51.1570 O   0  0  0  0  0  0  0  0  0  0  0  0
   60.4820   29.9200   51.3240 N   0  0  0  0  0  0  0  0  0  0  0  0
   61.7120   30.1020   50.5370 C   0  0  0  0  0  0  0  0  0  0  0  0
   60.1920   31.1240   52.1160 C   0  0  0  0  0  0  0  0  0  0  0  0
   59.7350   29.0080   48.0810 C   0  0  0  0  0  0  0  0  0  0  0  0
   59.7550   29.3280   46.7310 C   0  0  0  0  0  0  0  0  0  0  0  0
   60.1830   28.2880   45.7160 C   0  0  0  0  0  0  0  0  0  0  0  0
   60.2930   26.9230   46.3460 C   0  0  0  0  0  0  0  0  0  0  0  0
   61.4050   26.3310   46.3310 O   0  0  0  0  0  0  0  0  0  0  0  0
   59.1610   26.2300   46.8900 N   0  0  0  0  0  0  0  0  0  0  0  0
   57.7890   26.7260   46.9750 C   0  0  0  0  0  0  0  0  0  0  0  0
   57.1120   26.7050   45.6050 C   0  0  0  0  0  0  0  0  0  0  0  0
   55.9210   27.5510   45.6280 N   0  0  0  0  0  0  0  0  0  0  0  0
   56.1980   28.9860   44.6890 S   0  0  0  0  0  0  0  0  0  0  0  0
   57.4060   28.6310   43.4330 C   0  0  0  0  0  0  0  0  0  0  0  0
   56.7110   30.0920   45.5670 O   0  0  0  0  0  0  0  0  0  0  0  0
   54.9200   29.4170   44.0280 O   0  0  0  0  0  0  0  0  0  0  0  0
   59.3150   30.5910   46.3310 C   0  0  0  0  0  0  0  0  0  0  0  0
   59.2780   30.8520   45.0970 O   0  0  0  0  0  0  0  0  0  0  0  0
   58.9170   31.5320   47.2520 N   0  0  0  0  0  0  0  0  0  0  0  0
   58.4690   32.8540   46.7430 C   0  0  0  0  0  0  0  0  0  0  0  0
   59.4470   33.9820   47.1290 C   0  0  0  0  0  0  0  0  0  0  0  0
   60.7910   33.9280   46.3820 C   0  0  0  0  0  0  0  0  0  0  0  0
   61.9530   34.0810   47.2880 N   0  0  0  0  0  0  0  0  0  0  0  0
   63.1420   33.3600   46.7690 C   0  0  0  0  0  0  0  0  0  0  0  0
   63.3360   32.0010   47.4650 C   0  0  0  0  0  0  0  0  0  0  0  0
   63.5020   32.0960   48.8730 O   0  0  0  0  0  0  0  0  0  0  0  0
   62.8730   33.2350   49.4470 C   0  0  0  0  0  0  0  0  0  0  0  0
   61.6220   33.6940   48.6800 C   0  0  0  0  0  0  0  0  0  0  0  0
   58.5954   31.8972   50.6359 H   0  0  0  0  0  0  0  0  0  0  0  0
   58.9174   33.2210   49.4652 H   0  0  0  0  0  0  0  0  0  0  0  0
   57.3251   32.3896   49.4652 H   0  0  0  0  0  0  0  0  0  0  0  0
   59.4589   28.3443   50.4231 H   0  0  0  0  0  0  0  0  0  0  0  0
   57.4140   29.6960   50.4590 H   0  0  0  0  0  0  0  0  0  0  0  0
   62.5672   30.2285   51.2172 H   0  0  0  0  0  0  0  0  0  0  0  0
   61.8756   29.2183   49.9027 H   0  0  0  0  0  0  0  0  0  0  0  0
   61.6127   30.9952   49.9027 H   0  0  0  0  0  0  0  0  0  0  0  0
   60.2505   30.8811   53.1872 H   0  0  0  0  0  0  0  0  0  0  0  0
   60.9274   31.9062   51.8767 H   0  0  0  0  0  0  0  0  0  0  0  0
   59.1811   31.4856   51.8767 H   0  0  0  0  0  0  0  0  0  0  0  0
   60.0401   27.9998   48.3979 H   0  0  0  0  0  0  0  0  0  0  0  0
   59.4397   28.2503   44.9060 H   0  0  0  0  0  0  0  0  0  0  0  0
   61.1710   28.5707   45.3236 H   0  0  0  0  0  0  0  0  0  0  0  0
   57.2188   26.0894   47.6676 H   0  0  0  0  0  0  0  0  0  0  0  0
   57.8140   27.7644   47.3371 H   0  0  0  0  0  0  0  0  0  0  0  0
   57.8129   27.0818   44.8456 H   0  0  0  0  0  0  0  0  0  0  0  0
   56.8197   25.6732   45.3603 H   0  0  0  0  0  0  0  0  0  0  0  0
   58.3578   28.3513   43.9083 H   0  0  0  0  0  0  0  0  0  0  0  0
   57.0505   27.7994   42.8069 H   0  0  0  0  0  0  0  0  0  0  0  0
   57.5569   29.5228   42.8069 H   0  0  0  0  0  0  0  0  0  0  0  0
   58.3963   32.8065   45.6464 H   0  0  0  0  0  0  0  0  0  0  0  0
   57.4927   33.0802   47.1965 H   0  0  0  0  0  0  0  0  0  0  0  0
   58.9669   34.9467   46.9079 H   0  0  0  0  0  0  0  0  0  0  0  0
   59.6720   33.8560   48.1983 H   0  0  0  0  0  0  0  0  0  0  0  0
   60.8699   32.9584   45.8685 H   0  0  0  0  0  0  0  0  0  0  0  0
   60.8106   34.7667   45.6706 H   0  0  0  0  0  0  0  0  0  0  0  0
   63.0132   33.1919   45.6896 H   0  0  0  0  0  0  0  0  0  0  0  0
   64.0303   33.9768   46.9702 H   0  0  0  0  0  0  0  0  0  0  0  0
   62.4527   31.3778   47.2612 H   0  0  0  0  0  0  0  0  0  0  0  0
   64.2617   31.5641   47.0622 H   0  0  0  0  0  0  0  0  0  0  0  0
   62.5788   32.9882   50.4778 H   0  0  0  0  0  0  0  0  0  0  0  0
   63.5988   34.0607   49.4077 H   0  0  0  0  0  0  0  0  0  0  0  0
   60.8929   32.8706   48.6588 H   0  0  0  0  0  0  0  0  0  0  0  0
   61.2039   34.5723   49.1935 H   0  0  0  0  0  0  0  0  0  0  0  0
  1  2  1  0
  2  3  2  0
  3  4  1  0
  4  5  1  0
  4  6  1  0
  6  7  1  0
  6  8  1  0
  3  9  1  0
  9 10  2  0
 10 11  1  0
 11 12  1  0
 12 13  2  0
 12 14  1  0
 14 15  1  0
 15 16  1  0
 16 17  1  0
 17 18  1  0
 18 19  1  0
 18 20  2  0
 18 21  2  0
 10 22  1  0
 22 23  2  0
 22 24  1  0
 24 25  1  0
 25 26  1  0
 26 27  1  0
 27 28  1  0
 28 29  1  0
 29 30  1  0
 30 31  1  0
 31 32  1  0
 32 33  1  0
 24  2  1  0
 33 28  1  0
  1 34  1  0
  1 35  1  0
  1 36  1  0
  4 37  1  6
  5 38  1  0
  7 39  1  0
  7 40  1  0
  7 41  1  0
  8 42  1  0
  8 43  1  0
  8 44  1  0
  9 45  1  0
 11 46  1  0
 11 47  1  0
 15 48  1  0
 15 49  1  0
 16 50  1  0
 16 51  1  0
 19 52  1  0
 19 53  1  0
 19 54  1  0
 25 55  1  0
 25 56  1  0
 26 57  1  0
 26 58  1  0
 27 59  1  0
 27 60  1  0
 29 61  1  0
 29 62  1  0
 30 63  1  0
 30 64  1  0
 32 65  1  0
 32 66  1  0
 33 67  1  0
 33 68  1  0
M  CHG  2  14  -1  17  -1
M  END
>  <UniqueID>  (26) 
24

>  <SMILES>  (26) 
Cc1c([C@H](O)N(C)C)cc(CC(=O)[N-]CC[N-]S(C)(=O)=O)c(=O)n1CCCN1CCOCC1

>  <Energy>  (26) 
85.06030251172852

>  <Genealogy>  (26) 
Cc1c(C(O)N(C)C)cc(CC(=O)[N-]CC[N-]S(C)(=O)=O)c(=O)n1CCCN1CCOCC1 (protonated)
Cc1c([C@H](O)N(C)C)cc(CC(=O)[N-]CC[N-]S(C)(=O)=O)c(=O)n1CCCN1CCOCC1 (chirality)
Cc1c([C@H](O)N(C)C)cc(CC(=O)[N-]CC[N-]S(C)(=O)=O)c(=O)n1CCCN1CCOCC1 (3D coordinates assigned)
Cc1c([C@H](O)N(C)C)cc(CC(=O)[N-]CC[N-]S(C)(=O)=O)c(=O)n1CCCN1CCOCC1 (nonaromatic ring conformer: 85.06030251172852 kcal/mol)

>  <smiles>  (26) 
Cc1c(C(O)N(C)C)cc(CC(=O)NCCNS(C)(=O)=O)c(=O)n1CCCN1CCOCC1

>  <score_type>  (26) 
oracle

>  <origin>  (26) 
adg

>  <m_score__min__energy>  (26) 
-12.49

>  <m_primary>  (26) 
energy

$$$$
26:0
     RDKit          3D

 43 45  0  0  0  0  0  0  0  0999 V2000
   57.8380   27.8860   43.6280 C   0  0  0  0  0  0  0  0  0  0  0  0
   58.0530   28.1400   45.0570 N   0  0  0  0  0  0  0  0  0  0  0  0
   57.8650   27.1990   46.0380 C   0  0  0  0  0  0  0  0  0  0  0  0
   57.4710   25.7690   45.7230 C   0  0  0  0  0  0  0  0  0  0  0  0
   55.9930   25.5050   45.8560 C   0  0  0  0  0  0  0  0  0  0  0  0
   55.2120   26.4820   46.0060 O   0  0  0  0  0  0  0  0  0  0  0  0
   55.4330   24.1920   45.7130 N   0  0  0  0  0  0  0  0  0  0  0  0
   54.8960   23.3600   46.7530 C   0  0  0  0  0  0  0  0  0  0  0  0
   55.6840   23.0110   47.8640 C   0  0  0  0  0  0  0  0  0  0  0  0
   55.1490   22.2550   48.9060 C   0  0  0  0  0  0  0  0  0  0  0  0
   53.8150   21.8530   48.8630 C   0  0  0  0  0  0  0  0  0  0  0  0
   53.0090   22.2150   47.7820 C   0  0  0  0  0  0  0  0  0  0  0  0
   53.5320   22.9790   46.7220 C   0  0  0  0  0  0  0  0  0  0  0  0
   52.6550   23.3390   45.5790 C   0  0  0  0  0  0  0  0  0  0  0  0
   52.7980   24.5930   44.9070 N   0  0  0  0  0  0  0  0  0  0  0  0
   51.7640   22.5370   45.1910 O   0  0  0  0  0  0  0  0  0  0  0  0
   58.1310   27.6600   47.3330 C   0  0  0  0  0  0  0  0  0  0  0  0
   58.5690   29.2790   47.2440 S   0  0  0  0  0  0  0  0  0  0  0  0
   58.4090   29.3470   45.5670 C   0  0  0  0  0  0  0  0  0  0  0  0
   58.6550   30.3890   44.8220 N   0  0  0  0  0  0  0  0  0  0  0  0
   58.5290   31.7660   45.2070 C   0  0  0  0  0  0  0  0  0  0  0  0
   57.6030   32.5750   44.5350 C   0  0  0  0  0  0  0  0  0  0  0  0
   57.4270   33.9100   44.9110 C   0  0  0  0  0  0  0  0  0  0  0  0
   58.1590   34.4390   45.9770 C   0  0  0  0  0  0  0  0  0  0  0  0
   59.0600   33.6310   46.6770 C   0  0  0  0  0  0  0  0  0  0  0  0
   59.9540   34.2870   48.0360 Cl  0  0  0  0  0  0  0  0  0  0  0  0
   59.2370   32.2940   46.3020 C   0  0  0  0  0  0  0  0  0  0  0  0
   57.1317   27.0516   43.5061 H   0  0  0  0  0  0  0  0  0  0  0  0
   57.4250   28.7883   43.1533 H   0  0  0  0  0  0  0  0  0  0  0  0
   58.7961   27.6277   43.1533 H   0  0  0  0  0  0  0  0  0  0  0  0
   57.7721   25.5455   44.6889 H   0  0  0  0  0  0  0  0  0  0  0  0
   57.9799   25.1261   46.4563 H   0  0  0  0  0  0  0  0  0  0  0  0
   56.7333   23.3378   47.9115 H   0  0  0  0  0  0  0  0  0  0  0  0
   55.7800   21.9756   49.7626 H   0  0  0  0  0  0  0  0  0  0  0  0
   53.3966   21.2496   49.6821 H   0  0  0  0  0  0  0  0  0  0  0  0
   51.9553   21.9001   47.7586 H   0  0  0  0  0  0  0  0  0  0  0  0
   52.1410   24.8510   44.1380 H   0  0  0  0  0  0  0  0  0  0  0  0
   53.5920   25.2360   45.1180 H   0  0  0  0  0  0  0  0  0  0  0  0
   58.0643   27.0623   48.2540 H   0  0  0  0  0  0  0  0  0  0  0  0
   57.0113   32.1574   43.7071 H   0  0  0  0  0  0  0  0  0  0  0  0
   56.7116   34.5444   44.3671 H   0  0  0  0  0  0  0  0  0  0  0  0
   58.0263   35.4921   46.2658 H   0  0  0  0  0  0  0  0  0  0  0  0
   59.9320   31.6541   46.8654 H   0  0  0  0  0  0  0  0  0  0  0  0
  1  2  1  0
  2  3  1  0
  3  4  1  0
  4  5  1  0
  5  6  2  0
  5  7  1  0
  7  8  1  0
  8  9  2  0
  9 10  1  0
 10 11  2  0
 11 12  1  0
 12 13  2  0
 13 14  1  0
 14 15  1  0
 14 16  2  0
  3 17  2  0
 17 18  1  0
 18 19  1  0
 19 20  2  3
 20 21  1  0
 21 22  2  0
 22 23  1  0
 23 24  2  0
 24 25  1  0
 25 26  1  0
 25 27  2  0
 19  2  1  0
 27 21  1  0
 13  8  1  0
  1 28  1  0
  1 29  1  0
  1 30  1  0
  4 31  1  0
  4 32  1  0
  9 33  1  0
 10 34  1  0
 11 35  1  0
 12 36  1  0
 15 37  1  0
 15 38  1  0
 17 39  1  0
 22 40  1  0
 23 41  1  0
 24 42  1  0
 27 43  1  0
M  CHG  1   7  -1
M  END
>  <UniqueID>  (27) 
25

>  <SMILES>  (27) 
Cn1c(CC(=O)[N-]c2ccccc2C(N)=O)csc1=Nc1cccc(Cl)c1

>  <Energy>  (27) 
92.26513770015846

>  <Genealogy>  (27) 
Cn1c(CC(=O)[N-]c2ccccc2C(N)=O)csc1=Nc1cccc(Cl)c1 (protonated)
Cn1c(CC(=O)[N-]c2ccccc2C(N)=O)csc1=Nc1cccc(Cl)c1 (3D coordinates assigned)
Cn1c(CC(=O)[N-]c2ccccc2C(N)=O)csc1=Nc1cccc(Cl)c1 (optimized conformer: 92.26513770015846 kcal/mol)

>  <smiles>  (27) 
Cn1c(CC(=O)Nc2ccccc2C(N)=O)csc1=Nc1cccc(Cl)c1

>  <score_type>  (27) 
oracle

>  <origin>  (27) 
adg

>  <m_score__min__energy>  (27) 
-11.890000000000001

>  <m_primary>  (27) 
energy

$$$$
27:0
     RDKit          3D

 64 68  0  0  0  0  0  0  0  0999 V2000
   66.5290   32.1640   50.6780 C   0  0  0  0  0  0  0  0  0  0  0  0
   65.5620   32.0660   51.7880 N   0  0  0  0  0  0  0  0  0  0  0  0
   65.1240   33.4000   52.2560 C   0  0  0  0  0  0  0  0  0  0  0  0
   64.2760   34.1310   51.1990 C   0  0  0  0  0  0  0  0  0  0  0  0
   63.4380   33.1780   50.4610 N   0  0  0  0  0  0  0  0  0  0  0  0
   63.1060   33.4290   49.0830 C   0  0  0  0  0  0  0  0  0  0  0  0
   64.0380   33.1500   48.0710 C   0  0  0  0  0  0  0  0  0  0  0  0
   63.7120   33.3800   46.7320 C   0  0  0  0  0  0  0  0  0  0  0  0
   62.4450   33.8590   46.3900 C   0  0  0  0  0  0  0  0  0  0  0  0
   61.4850   34.0970   47.3790 C   0  0  0  0  0  0  0  0  0  0  0  0
   60.1860   34.5660   46.9730 N   0  0  0  0  0  0  0  0  0  0  0  0
   59.2400   33.8850   46.3940 C   0  0  0  0  0  0  0  0  0  0  0  0
   59.5210   33.2030   45.2530 N   0  0  0  0  0  0  0  0  0  0  0  0
   58.5840   32.4270   44.6470 C   0  0  0  0  0  0  0  0  0  0  0  0
   57.3120   32.2990   45.2050 C   0  0  0  0  0  0  0  0  0  0  0  0
   56.3660   31.3930   44.6170 N   0  0  0  0  0  0  0  0  0  0  0  0
   56.2870   29.9740   44.8210 C   0  0  0  0  0  0  0  0  0  0  0  0
   55.1470   29.4310   44.8040 O   0  0  0  0  0  0  0  0  0  0  0  0
   57.4920   29.1150   44.9750 C   0  0  0  0  0  0  0  0  0  0  0  0
   57.5970   27.9080   44.2590 C   0  0  0  0  0  0  0  0  0  0  0  0
   58.7020   27.0740   44.4390 C   0  0  0  0  0  0  0  0  0  0  0  0
   59.7010   27.4190   45.3530 C   0  0  0  0  0  0  0  0  0  0  0  0
   59.6260   28.6220   46.0670 C   0  0  0  0  0  0  0  0  0  0  0  0
   60.5910   28.8640   47.1070 N   0  0  0  0  0  0  0  0  0  0  0  0
   60.8240   30.0990   47.8020 C   0  0  0  0  0  0  0  0  0  0  0  0
   61.8170   30.8210   47.5080 O   0  0  0  0  0  0  0  0  0  0  0  0
   59.8950   30.5320   48.8720 C   0  0  0  0  0  0  0  0  0  0  0  0
   59.3910   31.8470   48.8960 C   0  0  0  0  0  0  0  0  0  0  0  0
   58.5320   32.2550   49.9200 C   0  0  0  0  0  0  0  0  0  0  0  0
   58.1620   31.3590   50.9270 C   0  0  0  0  0  0  0  0  0  0  0  0
   57.0820   31.8720   52.2090 Cl  0  0  0  0  0  0  0  0  0  0  0  0
   58.6590   30.0520   50.9140 C   0  0  0  0  0  0  0  0  0  0  0  0
   59.5210   29.6390   49.8940 C   0  0  0  0  0  0  0  0  0  0  0  0
   58.5450   29.4880   45.8310 C   0  0  0  0  0  0  0  0  0  0  0  0
   57.0220   33.0440   46.3550 C   0  0  0  0  0  0  0  0  0  0  0  0
   57.9930   33.7970   46.9340 N   0  0  0  0  0  0  0  0  0  0  0  0
   61.8350   33.9160   48.7310 C   0  0  0  0  0  0  0  0  0  0  0  0
   63.1260   31.8980   51.1030 C   0  0  0  0  0  0  0  0  0  0  0  0
   64.4300   31.1590   51.4560 C   0  0  0  0  0  0  0  0  0  0  0  0
   67.5456   32.2670   51.0854 H   0  0  0  0  0  0  0  0  0  0  0  0
   66.4717   31.2555   50.0605 H   0  0  0  0  0  0  0  0  0  0  0  0
   66.2906   33.0426   50.0605 H   0  0  0  0  0  0  0  0  0  0  0  0
   64.5240   33.2767   53.1697 H   0  0  0  0  0  0  0  0  0  0  0  0
   66.0223   34.0047   52.4492 H   0  0  0  0  0  0  0  0  0  0  0  0
   63.6307   34.8680   51.6995 H   0  0  0  0  0  0  0  0  0  0  0  0
   64.9494   34.6349   50.4900 H   0  0  0  0  0  0  0  0  0  0  0  0
   65.0282   32.7490   48.3331 H   0  0  0  0  0  0  0  0  0  0  0  0
   64.4549   33.1834   45.9450 H   0  0  0  0  0  0  0  0  0  0  0  0
   62.2005   34.0505   45.3348 H   0  0  0  0  0  0  0  0  0  0  0  0
   58.8294   31.8985   43.7140 H   0  0  0  0  0  0  0  0  0  0  0  0
   56.8038   27.6200   43.5534 H   0  0  0  0  0  0  0  0  0  0  0  0
   58.7864   26.1427   43.8597 H   0  0  0  0  0  0  0  0  0  0  0  0
   60.5524   26.7412   45.5131 H   0  0  0  0  0  0  0  0  0  0  0  0
   59.6750   32.5564   48.1047 H   0  0  0  0  0  0  0  0  0  0  0  0
   58.1457   33.2848   49.9336 H   0  0  0  0  0  0  0  0  0  0  0  0
   58.3710   29.3474   51.7081 H   0  0  0  0  0  0  0  0  0  0  0  0
   59.9095   28.6099   49.8899 H   0  0  0  0  0  0  0  0  0  0  0  0
   58.5214   30.4718   46.3224 H   0  0  0  0  0  0  0  0  0  0  0  0
   56.0111   33.0194   46.7880 H   0  0  0  0  0  0  0  0  0  0  0  0
   61.1069   34.1580   49.5192 H   0  0  0  0  0  0  0  0  0  0  0  0
   62.5501   32.0814   52.0221 H   0  0  0  0  0  0  0  0  0  0  0  0
   62.5345   31.2799   50.4116 H   0  0  0  0  0  0  0  0  0  0  0  0
   64.2379   30.5116   52.3243 H   0  0  0  0  0  0  0  0  0  0  0  0
   64.7271   30.5884   50.5637 H   0  0  0  0  0  0  0  0  0  0  0  0
  1  2  1  0
  2  3  1  0
  3  4  1  0
  4  5  1  0
  5  6  1  0
  6  7  2  0
  7  8  1  0
  8  9  2  0
  9 10  1  0
 10 11  1  0
 11 12  2  3
 12 13  1  0
 13 14  2  0
 14 15  1  0
 15 16  1  0
 16 17  1  0
 17 18  2  0
 17 19  1  0
 19 20  2  0
 20 21  1  0
 21 22  2  0
 22 23  1  0
 23 24  1  0
 24 25  1  0
 25 26  2  0
 25 27  1  0
 27 28  2  0
 28 29  1  0
 29 30  2  0
 30 31  1  0
 30 32  1  0
 32 33  2  0
 23 34  2  0
 15 35  2  0
 35 36  1  0
 10 37  2  0
  5 38  1  0
 38 39  1  0
 39  2  1  0
 37  6  1  0
 36 12  1  0
 34 19  1  0
 33 27  1  0
  1 40  1  0
  1 41  1  0
  1 42  1  0
  3 43  1  0
  3 44  1  0
  4 45  1  0
  4 46  1  0
  7 47  1  0
  8 48  1  0
  9 49  1  0
 14 50  1  0
 20 51  1  0
 21 52  1  0
 22 53  1  0
 28 54  1  0
 29 55  1  0
 32 56  1  0
 33 57  1  0
 34 58  1  0
 35 59  1  0
 37 60  1  0
 38 61  1  0
 38 62  1  0
 39 63  1  0
 39 64  1  0
M  CHG  3  16  -1  24  -1  36  -1
M  END
>  <UniqueID>  (28) 
26

>  <SMILES>  (28) 
CN1CCN(c2cccc(N=c3ncc([N-]C(=O)c4cccc([N-]C(=O)c5ccc(Cl)cc5)c4)c[n-]3)c2)CC1

>  <Energy>  (28) 
97.82226154160863

>  <Genealogy>  (28) 
CN1CCN(c2cccc(N=c3ncc([N-]C(=O)c4cccc([N-]C(=O)c5ccc(Cl)cc5)c4)c[n-]3)c2)CC1 (protonated)
CN1CCN(c2cccc(N=c3ncc([N-]C(=O)c4cccc([N-]C(=O)c5ccc(Cl)cc5)c4)c[n-]3)c2)CC1 (3D coordinates assigned)
CN1CCN(c2cccc(N=c3ncc([N-]C(=O)c4cccc([N-]C(=O)c5ccc(Cl)cc5)c4)c[n-]3)c2)CC1 (nonaromatic ring conformer: 97.82226154160863 kcal/mol)

>  <smiles>  (28) 
CN1CCN(c2cccc(N=c3ncc(NC(=O)c4cccc(NC(=O)c5ccc(Cl)cc5)c4)c[nH]3)c2)CC1

>  <score_type>  (28) 
oracle

>  <origin>  (28) 
adg

>  <m_score__min__energy>  (28) 
-13.289999999999999

>  <m_primary>  (28) 
energy

$$$$
28:0
     RDKit          3D

 28 30  0  0  0  0  0  0  0  0999 V2000
   54.8160   29.4010   44.1850 N   0  0  0  0  0  0  0  0  0  0  0  0
   56.3780   30.1380   44.1960 S   0  0  0  0  0  0  0  0  0  0  0  0
   56.9820   30.0260   42.8250 O   0  0  0  0  0  0  0  0  0  0  0  0
   56.2470   31.5880   44.5700 O   0  0  0  0  0  0  0  0  0  0  0  0
   57.4060   29.3250   45.3600 C   0  0  0  0  0  0  0  0  0  0  0  0
   58.3530   29.9390   46.1680 C   0  0  0  0  0  0  0  0  0  0  0  0
   59.0360   29.0360   46.9910 C   0  0  0  0  0  0  0  0  0  0  0  0
   58.6200   27.7250   46.8170 C   0  0  0  0  0  0  0  0  0  0  0  0
   59.2750   26.3030   47.6800 S   0  0  0  0  0  0  0  0  0  0  0  0
   58.2240   25.1740   46.7770 C   0  0  0  0  0  0  0  0  0  0  0  0
   56.8740   25.2690   46.8900 N   0  0  0  0  0  0  0  0  0  0  0  0
   56.0470   24.4190   46.2280 C   0  0  0  0  0  0  0  0  0  0  0  0
   54.8010   24.5500   46.3670 O   0  0  0  0  0  0  0  0  0  0  0  0
   56.5910   23.4140   45.4020 C   0  0  0  0  0  0  0  0  0  0  0  0
   55.8010   22.4880   44.6800 C   0  0  0  0  0  0  0  0  0  0  0  0
   54.4120   22.5170   44.7440 O   0  0  0  0  0  0  0  0  0  0  0  0
   56.4200   21.5190   43.8820 C   0  0  0  0  0  0  0  0  0  0  0  0
   57.8120   21.4580   43.7930 C   0  0  0  0  0  0  0  0  0  0  0  0
   58.6010   22.3660   44.5000 C   0  0  0  0  0  0  0  0  0  0  0  0
   58.0010   23.3420   45.3020 C   0  0  0  0  0  0  0  0  0  0  0  0
   58.7770   24.2200   45.9890 N   0  0  0  0  0  0  0  0  0  0  0  0
   57.4090   27.6690   45.6510 S   0  0  0  0  0  0  0  0  0  0  0  0
   54.4990   29.3410   45.1780 H   0  0  0  0  0  0  0  0  0  0  0  0
   58.5465   31.0218   46.1622 H   0  0  0  0  0  0  0  0  0  0  0  0
   59.8207   29.3352   47.7015 H   0  0  0  0  0  0  0  0  0  0  0  0
   55.8051   20.8001   43.3207 H   0  0  0  0  0  0  0  0  0  0  0  0
   58.2881   20.6918   43.1636 H   0  0  0  0  0  0  0  0  0  0  0  0
   59.6973   22.3140   44.4264 H   0  0  0  0  0  0  0  0  0  0  0  0
  1  2  1  0
  2  3  2  0
  2  4  2  0
  2  5  1  0
  5  6  2  0
  6  7  1  0
  7  8  2  0
  8  9  1  0
  9 10  1  0
 10 11  2  0
 11 12  1  0
 12 13  2  0
 12 14  1  0
 14 15  2  0
 15 16  1  0
 15 17  1  0
 17 18  2  0
 18 19  1  0
 19 20  2  0
 20 21  1  0
  8 22  1  0
 22  5  1  0
 21 10  1  0
 20 14  1  0
  1 23  1  0
  6 24  1  0
  7 25  1  0
 17 26  1  0
 18 27  1  0
 19 28  1  0
M  CHG  3   1  -1  16  -1  21  -1
M  END
>  <UniqueID>  (29) 
27

>  <SMILES>  (29) 
[NH-]S(=O)(=O)c1ccc(Sc2nc(=O)c3c([O-])cccc3[n-]2)s1

>  <Energy>  (29) 
58.96169380193761

>  <Genealogy>  (29) 
[NH-]S(=O)(=O)c1ccc(Sc2nc(=O)c3c([O-])cccc3[n-]2)s1 (protonated)
[NH-]S(=O)(=O)c1ccc(Sc2nc(=O)c3c([O-])cccc3[n-]2)s1 (3D coordinates assigned)
[NH-]S(=O)(=O)c1ccc(Sc2nc(=O)c3c([O-])cccc3[n-]2)s1 (optimized conformer: 58.96169380193761 kcal/mol)

>  <smiles>  (29) 
NS(=O)(=O)c1ccc(Sc2nc(=O)c3c(O)cccc3[nH]2)s1

>  <score_type>  (29) 
oracle

>  <origin>  (29) 
adg

>  <m_score__min__energy>  (29) 
-13.539999999999999

>  <m_primary>  (29) 
energy

$$$$
29:0
     RDKit          3D

 40 42  0  0  0  0  0  0  0  0999 V2000
   59.5482   34.6182   43.3080 H   0  0  0  0  0  0  0  0  0  0  0  0
   59.0750   34.1880   44.2030 C   0  0  0  0  0  0  0  0  0  0  0  0
   59.3410   34.7180   45.4240 N   0  0  0  0  0  0  0  0  0  0  0  0
   58.7920   34.2170   46.5610 C   0  0  0  0  0  0  0  0  0  0  0  0
   59.1080   34.7960   47.8340 N   0  0  0  0  0  0  0  0  0  0  0  0
   58.8880   35.8050   47.9990 H   0  0  0  0  0  0  0  0  0  0  0  0
   59.7290   34.0080   48.9000 C   0  0  0  0  0  0  0  0  0  0  0  0
   59.6650   34.5660   49.8458 H   0  0  0  0  0  0  0  0  0  0  0  0
   59.1976   33.0488   48.9865 H   0  0  0  0  0  0  0  0  0  0  0  0
   61.1740   33.7340   48.5850 C   0  0  0  0  0  0  0  0  0  0  0  0
   62.1810   34.1200   49.4850 C   0  0  0  0  0  0  0  0  0  0  0  0
   61.9142   34.6510   50.4107 H   0  0  0  0  0  0  0  0  0  0  0  0
   63.5210   33.8320   49.2090 C   0  0  0  0  0  0  0  0  0  0  0  0
   64.3067   34.1454   49.9122 H   0  0  0  0  0  0  0  0  0  0  0  0
   63.8630   33.1460   48.0400 C   0  0  0  0  0  0  0  0  0  0  0  0
   64.9179   32.9230   47.8223 H   0  0  0  0  0  0  0  0  0  0  0  0
   62.8650   32.7430   47.1470 C   0  0  0  0  0  0  0  0  0  0  0  0
   63.1348   32.2003   46.2291 H   0  0  0  0  0  0  0  0  0  0  0  0
   61.5240   33.0300   47.4210 C   0  0  0  0  0  0  0  0  0  0  0  0
   60.7400   32.7031   46.7221 H   0  0  0  0  0  0  0  0  0  0  0  0
   57.9120   33.1330   46.4810 C   0  0  0  0  0  0  0  0  0  0  0  0
   57.4832   32.7092   47.4011 H   0  0  0  0  0  0  0  0  0  0  0  0
   57.5720   32.5820   45.2370 C   0  0  0  0  0  0  0  0  0  0  0  0
   56.6990   31.6090   45.2380 N   0  0  0  0  0  0  0  0  0  0  0  0
   56.5920   30.4880   44.3580 C   0  0  0  0  0  0  0  0  0  0  0  0
   55.5200   30.3000   43.7240 O   0  0  0  0  0  0  0  0  0  0  0  0
   57.7340   29.6630   44.1050 N   0  0  0  0  0  0  0  0  0  0  0  0
   58.4020   28.8970   45.1480 C   0  0  0  0  0  0  0  0  0  0  0  0
   59.3030   28.4205   44.7342 H   0  0  0  0  0  0  0  0  0  0  0  0
   58.6898   29.5677   45.9710 H   0  0  0  0  0  0  0  0  0  0  0  0
   57.4730   27.8470   45.6600 C   0  0  0  0  0  0  0  0  0  0  0  0
   56.1480   27.8400   45.4100 N   0  0  0  0  0  0  0  0  0  0  0  0
   55.6990   26.7100   45.9870 C   0  0  0  0  0  0  0  0  0  0  0  0
   54.3650   26.3220   45.9650 O   0  0  0  0  0  0  0  0  0  0  0  0
   56.7110   25.9950   46.5870 C   0  0  0  0  0  0  0  0  0  0  0  0
   56.6214   25.0411   47.1274 H   0  0  0  0  0  0  0  0  0  0  0  0
   57.8590   26.7240   46.3690 C   0  0  0  0  0  0  0  0  0  0  0  0
   58.8777   26.4652   46.6934 H   0  0  0  0  0  0  0  0  0  0  0  0
   58.2050   33.1000   44.0710 C   0  0  0  0  0  0  0  0  0  0  0  0
   58.1440   32.3480   42.4780 Cl  0  0  0  0  0  0  0  0  0  0  0  0
  1  2  1  0
  2  3  1  0
  3  4  1  0
  4  5  1  0
  5  6  1  0
  5  7  1  0
  7  8  1  0
  7  9  1  0
  7 10  1  0
 10 11  2  0
 11 12  1  0
 11 13  1  0
 13 14  1  0
 13 15  2  0
 15 16  1  0
 15 17  1  0
 17 18  1  0
 17 19  2  0
 19 20  1  0
  4 21  2  0
 21 22  1  0
 21 23  1  0
 23 24  2  0
 24 25  1  0
 25 26  2  0
 25 27  1  0
 27 28  1  0
 28 29  1  0
 28 30  1  0
 28 31  1  0
 31 32  1  0
 32 33  1  0
 33 34  1  0
 33 35  2  0
 35 36  1  0
 35 37  1  0
 37 38  1  0
 23 39  1  0
 39 40  1  0
 39  2  2  0
 19 10  1  0
 37 31  2  0
M  CHG  4   3  -1  27  -1  32  -1  34  -1
M  END
>  <UniqueID>  (30) 
28

>  <SMILES>  (30) 
O=C(/N=c1/cc(NCc2ccccc2)[n-]cc1Cl)[N-]Cc1ccc([O-])[n-]1

>  <Energy>  (30) 
78.03125538368123

>  <Genealogy>  (30) 
O=C(N=c1cc(NCc2ccccc2)[n-]cc1Cl)[N-]Cc1ccc([O-])[n-]1 (protonated)
O=C(/N=c1/cc(NCc2ccccc2)[n-]cc1Cl)[N-]Cc1ccc([O-])[n-]1 (cis-trans isomerization)
O=C(/N=c1/cc(NCc2ccccc2)[n-]cc1Cl)[N-]Cc1ccc([O-])[n-]1 (3D coordinates assigned)
O=C(/N=c1/cc(NCc2ccccc2)[n-]cc1Cl)[N-]Cc1ccc([O-])[n-]1 (optimized conformer: 78.03125538368123 kcal/mol)

>  <smiles>  (30) 
O=C(N=c1cc(NCc2ccccc2)[nH]cc1Cl)NCc1ccc(O)[nH]1

>  <score_type>  (30) 
oracle

>  <origin>  (30) 
adg

>  <m_score__min__energy>  (30) 
-17.059999999999999

>  <m_primary>  (30) 
energy

$$$$
30:0
     RDKit          3D

 22 23  0  0  0  0  0  0  0  0999 V2000
   56.4650   31.1570   52.1690 C   0  0  0  0  0  0  0  0  0  0  0  0
   55.8450   29.9030   52.7000 C   0  0  0  0  0  0  0  0  0  0  0  0
   56.5550   28.8160   53.0570 N   0  0  0  0  0  0  0  0  0  0  0  0
   55.6330   27.9550   53.5190 C   0  0  0  0  0  0  0  0  0  0  0  0
   55.9100   26.8110   53.9640 O   0  0  0  0  0  0  0  0  0  0  0  0
   54.4120   28.4360   53.4620 O   0  0  0  0  0  0  0  0  0  0  0  0
   54.5000   29.6430   52.9460 C   0  0  0  0  0  0  0  0  0  0  0  0
   53.3280   30.5160   52.7210 C   0  0  0  0  0  0  0  0  0  0  0  0
   53.0920   31.0300   51.4350 C   0  0  0  0  0  0  0  0  0  0  0  0
   51.9990   31.8700   51.1970 C   0  0  0  0  0  0  0  0  0  0  0  0
   51.1390   32.2160   52.2430 C   0  0  0  0  0  0  0  0  0  0  0  0
   50.0530   33.0490   52.0050 O   0  0  0  0  0  0  0  0  0  0  0  0
   51.3770   31.7260   53.5310 C   0  0  0  0  0  0  0  0  0  0  0  0
   52.4690   30.8860   53.7720 C   0  0  0  0  0  0  0  0  0  0  0  0
   56.7800   31.7942   53.0085 H   0  0  0  0  0  0  0  0  0  0  0  0
   57.3405   30.9013   51.5541 H   0  0  0  0  0  0  0  0  0  0  0  0
   55.7303   31.6974   51.5541 H   0  0  0  0  0  0  0  0  0  0  0  0
   57.5900   28.6790   53.0070 H   0  0  0  0  0  0  0  0  0  0  0  0
   53.7712   30.7702   50.6097 H   0  0  0  0  0  0  0  0  0  0  0  0
   51.8160   32.2590   50.1845 H   0  0  0  0  0  0  0  0  0  0  0  0
   50.7040   32.0018   54.3562 H   0  0  0  0  0  0  0  0  0  0  0  0
   52.6574   30.5124   54.7893 H   0  0  0  0  0  0  0  0  0  0  0  0
  1  2  1  0
  2  3  1  0
  3  4  1  0
  4  5  2  0
  4  6  1  0
  6  7  1  0
  7  8  1  0
  8  9  2  0
  9 10  1  0
 10 11  2  0
 11 12  1  0
 11 13  1  0
 13 14  2  0
  7  2  2  0
 14  8  1  0
  1 15  1  0
  1 16  1  0
  1 17  1  0
  3 18  1  0
  9 19  1  0
 10 20  1  0
 13 21  1  0
 14 22  1  0
M  CHG  1  12  -1
M  END
>  <UniqueID>  (31) 
29

>  <SMILES>  (31) 
Cc1[nH]c(=O)oc1-c1ccc([O-])cc1

>  <Energy>  (31) 
57.635807069625244

>  <Genealogy>  (31) 
Cc1[nH]c(=O)oc1-c1ccc([O-])cc1 (protonated)
Cc1[nH]c(=O)oc1-c1ccc([O-])cc1 (3D coordinates assigned)
Cc1[nH]c(=O)oc1-c1ccc([O-])cc1 (optimized conformer: 57.635807069625244 kcal/mol)

>  <smiles>  (31) 
Cc1[nH]c(=O)oc1-c1ccc(O)cc1

>  <score_type>  (31) 
oracle

>  <origin>  (31) 
adg

>  <m_score__min__energy>  (31) 
-9.1799999999999997

>  <m_primary>  (31) 
energy

$$$$
31:0
     RDKit          3D

 72 75  0  0  0  0  0  0  0  0999 V2000
   57.7930   32.7350   43.3810 C   0  0  0  0  0  0  0  0  0  0  0  0
   57.4740   33.7150   44.5070 C   0  0  0  0  0  0  0  0  0  0  0  0
   58.5410   33.6620   45.5820 C   0  0  0  0  0  0  0  0  0  0  0  0
   58.6910   32.5120   46.3780 C   0  0  0  0  0  0  0  0  0  0  0  0
   57.8720   31.4030   46.1740 O   0  0  0  0  0  0  0  0  0  0  0  0
   59.6630   32.4750   47.3890 C   0  0  0  0  0  0  0  0  0  0  0  0
   59.7730   31.3160   48.2280 N   0  0  0  0  0  0  0  0  0  0  0  0
   58.5490   30.7270   48.7970 C   0  0  0  0  0  0  0  0  0  0  0  0
   58.8600   29.4240   49.5350 C   0  0  0  0  0  0  0  0  0  0  0  0
   59.7870   28.6210   48.7330 N   0  0  0  0  0  0  0  0  0  0  0  0
   59.4110   27.3250   48.2390 C   0  0  0  0  0  0  0  0  0  0  0  0
   60.1940   26.3480   48.3970 O   0  0  0  0  0  0  0  0  0  0  0  0
   58.1790   27.1570   47.3950 C   0  0  0  0  0  0  0  0  0  0  0  0
   58.1840   28.0480   46.1740 C   0  0  0  0  0  0  0  0  0  0  0  0
   59.3360   28.7910   45.8590 C   0  0  0  0  0  0  0  0  0  0  0  0
   59.3860   29.5660   44.6980 C   0  0  0  0  0  0  0  0  0  0  0  0
   58.2940   29.6020   43.8320 C   0  0  0  0  0  0  0  0  0  0  0  0
   57.1420   28.8650   44.1250 C   0  0  0  0  0  0  0  0  0  0  0  0
   57.0720   28.0930   45.3000 C   0  0  0  0  0  0  0  0  0  0  0  0
   55.8830   27.3740   45.6510 N   0  0  0  0  0  0  0  0  0  0  0  0
   55.7260   25.6570   45.8400 S   0  0  0  0  0  0  0  0  0  0  0  0
   56.1400   25.2260   47.2220 O   0  0  0  0  0  0  0  0  0  0  0  0
   54.2990   25.2510   45.5780 O   0  0  0  0  0  0  0  0  0  0  0  0
   56.7940   24.8520   44.6430 C   0  0  0  0  0  0  0  0  0  0  0  0
   56.0230   23.8720   43.7480 C   0  0  0  0  0  0  0  0  0  0  0  0
   56.8180   22.5670   43.7300 C   0  0  0  0  0  0  0  0  0  0  0  0
   58.1530   22.8580   44.3960 C   0  0  0  0  0  0  0  0  0  0  0  0
   57.9040   24.0420   45.3150 C   0  0  0  0  0  0  0  0  0  0  0  0
   61.0480   29.2080   48.2590 C   0  0  0  0  0  0  0  0  0  0  0  0
   61.0910   30.7250   48.4950 C   0  0  0  0  0  0  0  0  0  0  0  0
   60.4760   33.5980   47.5990 C   0  0  0  0  0  0  0  0  0  0  0  0
   61.5640   33.5700   48.6010 C   0  0  0  0  0  0  0  0  0  0  0  0
   62.8790   33.5190   48.3140 C   0  0  0  0  0  0  0  0  0  0  0  0
   63.2820   33.4110   46.8670 C   0  0  0  0  0  0  0  0  0  0  0  0
   63.9320   33.4400   49.3640 C   0  0  0  0  0  0  0  0  0  0  0  0
   63.8090   34.0940   50.4350 O   0  0  0  0  0  0  0  0  0  0  0  0
   65.0900   32.6980   49.1620 O   0  0  0  0  0  0  0  0  0  0  0  0
   60.3090   34.6990   46.8160 N   0  0  0  0  0  0  0  0  0  0  0  0
   59.3710   34.7670   45.8390 C   0  0  0  0  0  0  0  0  0  0  0  0
   59.2610   35.8280   45.1670 O   0  0  0  0  0  0  0  0  0  0  0  0
   58.1064   31.7721   43.8107 H   0  0  0  0  0  0  0  0  0  0  0  0
   56.8972   32.5853   42.7604 H   0  0  0  0  0  0  0  0  0  0  0  0
   58.6053   33.1413   42.7604 H   0  0  0  0  0  0  0  0  0  0  0  0
   57.4260   34.7341   44.0958 H   0  0  0  0  0  0  0  0  0  0  0  0
   56.5079   33.4377   44.9539 H   0  0  0  0  0  0  0  0  0  0  0  0
   58.1001   31.4417   49.5025 H   0  0  0  0  0  0  0  0  0  0  0  0
   57.8513   30.5067   47.9756 H   0  0  0  0  0  0  0  0  0  0  0  0
   59.3198   29.6536   50.5076 H   0  0  0  0  0  0  0  0  0  0  0  0
   57.9289   28.8606   49.6951 H   0  0  0  0  0  0  0  0  0  0  0  0
   58.1177   26.1091   47.0660 H   0  0  0  0  0  0  0  0  0  0  0  0
   57.3126   27.4408   48.0105 H   0  0  0  0  0  0  0  0  0  0  0  0
   60.2050   28.7615   46.5327 H   0  0  0  0  0  0  0  0  0  0  0  0
   60.2893   30.1494   44.4664 H   0  0  0  0  0  0  0  0  0  0  0  0
   58.3385   30.2109   42.9170 H   0  0  0  0  0  0  0  0  0  0  0  0
   56.2865   28.8887   43.4339 H   0  0  0  0  0  0  0  0  0  0  0  0
   57.2181   25.6729   44.0461 H   0  0  0  0  0  0  0  0  0  0  0  0
   55.0174   23.6966   44.1578 H   0  0  0  0  0  0  0  0  0  0  0  0
   55.9063   24.2758   42.7315 H   0  0  0  0  0  0  0  0  0  0  0  0
   56.2786   21.7870   44.2874 H   0  0  0  0  0  0  0  0  0  0  0  0
   56.9603   22.2052   42.7010 H   0  0  0  0  0  0  0  0  0  0  0  0
   58.4904   21.9864   44.9761 H   0  0  0  0  0  0  0  0  0  0  0  0
   58.9371   23.0760   43.6560 H   0  0  0  0  0  0  0  0  0  0  0  0
   57.5811   23.6969   46.3083 H   0  0  0  0  0  0  0  0  0  0  0  0
   58.8140   24.6415   45.4652 H   0  0  0  0  0  0  0  0  0  0  0  0
   61.8845   28.7393   48.7980 H   0  0  0  0  0  0  0  0  0  0  0  0
   61.1260   29.0264   47.1769 H   0  0  0  0  0  0  0  0  0  0  0  0
   61.3733   30.9226   49.5396 H   0  0  0  0  0  0  0  0  0  0  0  0
   61.8306   31.1738   47.8156 H   0  0  0  0  0  0  0  0  0  0  0  0
   61.2768   33.5926   49.6626 H   0  0  0  0  0  0  0  0  0  0  0  0
   64.3427   33.1268   46.8020 H   0  0  0  0  0  0  0  0  0  0  0  0
   62.6664   32.6461   46.3710 H   0  0  0  0  0  0  0  0  0  0  0  0
   63.1314   34.3812   46.3710 H   0  0  0  0  0  0  0  0  0  0  0  0
  1  2  1  0
  2  3  1  0
  3  4  2  0
  4  5  1  0
  4  6  1  0
  6  7  1  0
  7  8  1  0
  8  9  1  0
  9 10  1  0
 10 11  1  0
 11 12  2  0
 11 13  1  0
 13 14  1  0
 14 15  2  0
 15 16  1  0
 16 17  2  0
 17 18  1  0
 18 19  2  0
 19 20  1  0
 20 21  1  0
 21 22  2  0
 21 23  2  0
 21 24  1  0
 24 25  1  0
 25 26  1  0
 26 27  1  0
 27 28  1  0
 10 29  1  0
 29 30  1  0
  6 31  2  0
 31 32  1  0
 32 33  2  3
 33 34  1  0
 33 35  1  0
 35 36  2  0
 35 37  1  0
 31 38  1  0
 38 39  1  0
 39 40  2  0
 39  3  1  0
 30  7  1  0
 19 14  1  0
 28 24  1  0
  1 41  1  0
  1 42  1  0
  1 43  1  0
  2 44  1  0
  2 45  1  0
  8 46  1  0
  8 47  1  0
  9 48  1  0
  9 49  1  0
 13 50  1  0
 13 51  1  0
 15 52  1  0
 16 53  1  0
 17 54  1  0
 18 55  1  0
 24 56  1  0
 25 57  1  0
 25 58  1  0
 26 59  1  0
 26 60  1  0
 27 61  1  0
 27 62  1  0
 28 63  1  0
 28 64  1  0
 29 65  1  0
 29 66  1  0
 30 67  1  0
 30 68  1  0
 32 69  1  0
 34 70  1  0
 34 71  1  0
 34 72  1  0
M  CHG  4   5  -1  20  -1  37  -1  38  -1
M  END
>  <UniqueID>  (32) 
30

>  <SMILES>  (32) 
CCc1c([O-])c(N2CCN(C(=O)Cc3ccccc3[N-]S(=O)(=O)C3CCCC3)CC2)c(C=C(C)C(=O)[O-])[n-]c1=O

>  <Energy>  (32) 
90.73282142338661

>  <Genealogy>  (32) 
CCc1c([O-])c(N2CCN(C(=O)Cc3ccccc3[N-]S(=O)(=O)C3CCCC3)CC2)c(C=C(C)C(=O)[O-])[n-]c1=O (protonated)
CCc1c([O-])c(N2CCN(C(=O)Cc3ccccc3[N-]S(=O)(=O)C3CCCC3)CC2)c(C=C(C)C(=O)[O-])[n-]c1=O (3D coordinates assigned)
CCc1c([O-])c(N2CCN(C(=O)Cc3ccccc3[N-]S(=O)(=O)C3CCCC3)CC2)c(C=C(C)C(=O)[O-])[n-]c1=O (nonaromatic ring conformer: 90.73282142338661 kcal/mol)

>  <smiles>  (32) 
CCc1c(O)c(N2CCN(C(=O)Cc3ccccc3NS(=O)(=O)C3CCCC3)CC2)c(C=C(C)C(=O)O)[nH]c1=O

>  <score_type>  (32) 
oracle

>  <origin>  (32) 
adg

>  <m_score__min__energy>  (32) 
-16.16

>  <m_primary>  (32) 
energy

$$$$
32:0
     RDKit          3D

 25 26  0  0  1  0  0  0  0  0999 V2000
   59.7750   29.1080   44.4650 O   0  0  0  0  0  0  0  0  0  0  0  0
   58.5300   29.1650   44.5300 C   0  0  0  0  0  0  0  0  0  0  0  0
   57.7130   30.2470   44.1610 N   0  0  0  0  0  0  0  0  0  0  0  0
   57.8300   31.4270   44.6310 C   0  0  0  0  0  0  0  0  0  0  0  0
   58.1140   32.5320   43.8680 C   0  0  0  0  0  0  0  0  0  0  0  0
   58.2360   33.7470   44.5020 C   0  0  0  0  0  0  0  0  0  0  0  0
   58.0730   33.7990   45.8350 N   0  0  0  0  0  0  0  0  0  0  0  0
   57.7940   32.7340   46.6000 C   0  0  0  0  0  0  0  0  0  0  0  0
   57.6750   31.5490   45.9820 N   0  0  0  0  0  0  0  0  0  0  0  0
   57.8500   27.9720   45.0480 C   0  0  0  0  0  0  0  0  0  0  0  0
   58.4830   26.7880   45.2470 C   0  0  0  0  0  0  0  0  0  0  0  0
   57.7280   25.7280   45.7240 C   0  0  0  0  0  0  0  0  0  0  0  0
   56.3800   25.8870   45.9850 C   0  0  0  0  0  0  0  0  0  0  0  0
   55.7330   24.9060   46.4150 O   0  0  0  0  0  0  0  0  0  0  0  0
   55.7930   27.0760   45.7740 N   0  0  0  0  0  0  0  0  0  0  0  0
   56.4930   28.1290   45.3110 C   0  0  0  0  0  0  0  0  0  0  0  0
   55.8170   29.3170   45.1220 O   0  0  0  0  0  0  0  0  0  0  0  0
   58.2407   32.4484   42.7785 H   0  0  0  0  0  0  0  0  0  0  0  0
   58.4626   34.6582   43.9289 H   0  0  0  0  0  0  0  0  0  0  0  0
   58.1670   34.7130   46.3140 H   0  0  0  0  0  0  0  0  0  0  0  0
   57.6679   32.8277   47.6887 H   0  0  0  0  0  0  0  0  0  0  0  0
   59.5568   26.6737   45.0372 H   0  0  0  0  0  0  0  0  0  0  0  0
   58.2055   24.7522   45.8963 H   0  0  0  0  0  0  0  0  0  0  0  0
   54.7670   27.1280   45.9890 H   0  0  0  0  0  0  0  0  0  0  0  0
   56.0620   30.1890   45.5710 H   0  0  0  0  0  0  0  0  0  0  0  0
  1  2  2  0
  2  3  1  0
  3  4  2  0
  4  5  1  0
  5  6  2  0
  6  7  1  0
  7  8  1  0
  8  9  2  0
  2 10  1  0
 10 11  1  0
 11 12  2  0
 12 13  1  0
 13 14  2  0
 13 15  1  0
 15 16  1  0
 16 17  1  0
  9  4  1  0
 16 10  2  0
  5 18  1  0
  6 19  1  0
  7 20  1  0
  8 21  1  0
 11 22  1  0
 12 23  1  0
 15 24  1  0
 17 25  1  0
M  END
>  <smiles>  (33) 
O=C(N=c1cc[nH]cn1)c1ccc(=O)[nH]c1O

>  <score_type>  (33) 
oracle

>  <origin>  (33) 
adg

>  <m_score__min__energy>  (33) 
-6.9000000000000004

>  <m_primary>  (33) 
energy

$$$$
33:0
     RDKit          3D

 41 43  0  0  0  0  0  0  0  0999 V2000
   59.5850   36.2690   47.1920 H   0  0  0  0  0  0  0  0  0  0  0  0
   59.3310   35.4070   46.6610 N   0  0  0  0  0  0  0  0  0  0  0  0
   59.2010   34.2410   47.2160 C   0  0  0  0  0  0  0  0  0  0  0  0
   58.6400   33.2310   46.5050 N   0  0  0  0  0  0  0  0  0  0  0  0
   58.4760   31.9950   47.0390 C   0  0  0  0  0  0  0  0  0  0  0  0
   58.0180   31.1915   46.4436 H   0  0  0  0  0  0  0  0  0  0  0  0
   58.8910   31.7490   48.3460 C   0  0  0  0  0  0  0  0  0  0  0  0
   58.7516   30.7512   48.7874 H   0  0  0  0  0  0  0  0  0  0  0  0
   59.4710   32.7450   49.0810 N   0  0  0  0  0  0  0  0  0  0  0  0
   59.8750   32.4640   50.4680 C   0  0  0  0  0  0  0  0  0  0  0  0
   59.7861   31.3846   50.6602 H   0  0  0  0  0  0  0  0  0  0  0  0
   60.9167   32.7876   50.6096 H   0  0  0  0  0  0  0  0  0  0  0  0
   58.9790   33.2270   51.4480 C   0  0  0  0  0  0  0  0  0  0  0  0
   59.5922   33.6027   52.2804 H   0  0  0  0  0  0  0  0  0  0  0  0
   58.5047   34.0643   50.9150 H   0  0  0  0  0  0  0  0  0  0  0  0
   57.9020   32.3290   51.9940 C   0  0  0  0  0  0  0  0  0  0  0  0
   57.0180   31.6740   51.1220 C   0  0  0  0  0  0  0  0  0  0  0  0
   57.0967   31.8372   50.0370 H   0  0  0  0  0  0  0  0  0  0  0  0
   56.0380   30.8150   51.6280 C   0  0  0  0  0  0  0  0  0  0  0  0
   55.3558   30.2975   50.9375 H   0  0  0  0  0  0  0  0  0  0  0  0
   55.9190   30.6090   53.0070 C   0  0  0  0  0  0  0  0  0  0  0  0
   54.9230   29.6940   53.4930 N   0  0  0  0  0  0  0  0  0  0  0  0
   53.6300   29.8590   53.4960 C   0  0  0  0  0  0  0  0  0  0  0  0
   53.0667   29.4804   54.3616 H   0  0  0  0  0  0  0  0  0  0  0  0
   52.8690   30.5210   52.4140 C   0  0  0  0  0  0  0  0  0  0  0  0
   52.8240   29.9840   51.1150 C   0  0  0  0  0  0  0  0  0  0  0  0
   53.3798   29.0635   50.8834 H   0  0  0  0  0  0  0  0  0  0  0  0
   52.0760   30.6150   50.1170 C   0  0  0  0  0  0  0  0  0  0  0  0
   52.0600   30.2005   49.0982 H   0  0  0  0  0  0  0  0  0  0  0  0
   51.3480   31.7720   50.4110 C   0  0  0  0  0  0  0  0  0  0  0  0
   50.6070   32.3950   49.4140 O   0  0  0  0  0  0  0  0  0  0  0  0
   51.3640   32.2960   51.7090 C   0  0  0  0  0  0  0  0  0  0  0  0
   50.6350   33.4410   52.0100 O   0  0  0  0  0  0  0  0  0  0  0  0
   52.1140   31.6660   52.7090 C   0  0  0  0  0  0  0  0  0  0  0  0
   52.1114   32.0709   53.7317 H   0  0  0  0  0  0  0  0  0  0  0  0
   56.8360   31.2260   53.8770 C   0  0  0  0  0  0  0  0  0  0  0  0
   56.7817   31.0310   54.9582 H   0  0  0  0  0  0  0  0  0  0  0  0
   57.8160   32.0860   53.3730 C   0  0  0  0  0  0  0  0  0  0  0  0
   58.5225   32.5741   54.0604 H   0  0  0  0  0  0  0  0  0  0  0  0
   59.6230   33.9990   48.5400 C   0  0  0  0  0  0  0  0  0  0  0  0
   60.1330   34.9310   49.2230 O   0  0  0  0  0  0  0  0  0  0  0  0
  1  2  1  0
  2  3  2  0
  3  4  1  0
  4  5  1  0
  5  6  1  0
  5  7  2  0
  7  8  1  0
  7  9  1  0
  9 10  1  0
 10 11  1  0
 10 12  1  0
 10 13  1  0
 13 14  1  0
 13 15  1  0
 13 16  1  0
 16 17  2  0
 17 18  1  0
 17 19  1  0
 19 20  1  0
 19 21  2  0
 21 22  1  0
 22 23  2  3
 23 24  1  0
 23 25  1  0
 25 26  2  0
 26 27  1  0
 26 28  1  0
 28 29  1  0
 28 30  2  0
 30 31  1  0
 30 32  1  0
 32 33  1  0
 32 34  2  0
 34 35  1  0
 21 36  1  0
 36 37  1  0
 36 38  2  0
 38 39  1  0
  9 40  1  0
 40 41  2  0
 40  3  1  0
 38 16  1  0
 34 25  1  0
M  CHG  3   4  -1  31  -1  33  -1
M  END
>  <UniqueID>  (34) 
31

>  <SMILES>  (34) 
[H]/N=c1/[n-]ccn(CCc2ccc(N=Cc3ccc([O-])c([O-])c3)cc2)c1=O

>  <Energy>  (34) 
57.05047770197887

>  <Genealogy>  (34) 
N=c1[n-]ccn(CCc2ccc(N=Cc3ccc([O-])c([O-])c3)cc2)c1=O (protonated)
[H]/N=c1/[n-]ccn(CCc2ccc(N=Cc3ccc([O-])c([O-])c3)cc2)c1=O (cis-trans isomerization)
[H]/N=c1/[n-]ccn(CCc2ccc(N=Cc3ccc([O-])c([O-])c3)cc2)c1=O (3D coordinates assigned)
[H]/N=c1/[n-]ccn(CCc2ccc(N=Cc3ccc([O-])c([O-])c3)cc2)c1=O (optimized conformer: 57.05047770197887 kcal/mol)

>  <smiles>  (34) 
N=c1[nH]ccn(CCc2ccc(N=Cc3ccc(O)c(O)c3)cc2)c1=O

>  <score_type>  (34) 
oracle

>  <origin>  (34) 
adg

>  <m_score__min__energy>  (34) 
-17.059999999999999

>  <m_primary>  (34) 
energy

$$$$
34:0
     RDKit          3D

 31 32  0  0  0  0  0  0  0  0999 V2000
   60.6520   32.9540   47.6040 C   0  0  0  0  0  0  0  0  0  0  0  0
   58.9030   33.1280   47.3120 S   0  0  0  0  0  0  0  0  0  0  0  0
   58.1720   32.3470   48.3680 O   0  0  0  0  0  0  0  0  0  0  0  0
   58.5390   34.5810   47.4250 O   0  0  0  0  0  0  0  0  0  0  0  0
   58.4220   32.5340   45.7170 C   0  0  0  0  0  0  0  0  0  0  0  0
   58.0300   31.1980   45.5380 C   0  0  0  0  0  0  0  0  0  0  0  0
   57.6440   30.7310   44.2680 C   0  0  0  0  0  0  0  0  0  0  0  0
   57.2600   29.3660   44.0480 N   0  0  0  0  0  0  0  0  0  0  0  0
   57.3140   28.3070   45.0120 C   0  0  0  0  0  0  0  0  0  0  0  0
   56.9790   28.5060   46.2100 O   0  0  0  0  0  0  0  0  0  0  0  0
   57.7680   26.9470   44.5880 C   0  0  0  0  0  0  0  0  0  0  0  0
   57.3430   25.9300   45.6020 C   0  0  0  0  0  0  0  0  0  0  0  0
   58.2930   24.6320   46.1080 S   0  0  0  0  0  0  0  0  0  0  0  0
   57.0780   24.0170   47.0920 C   0  0  0  0  0  0  0  0  0  0  0  0
   57.1930   22.9780   47.7940 O   0  0  0  0  0  0  0  0  0  0  0  0
   55.9510   24.7550   47.0490 N   0  0  0  0  0  0  0  0  0  0  0  0
   56.0900   25.8180   46.2140 C   0  0  0  0  0  0  0  0  0  0  0  0
   55.0390   26.7090   46.0040 O   0  0  0  0  0  0  0  0  0  0  0  0
   57.6990   31.5980   43.1730 C   0  0  0  0  0  0  0  0  0  0  0  0
   58.0930   32.9260   43.3420 C   0  0  0  0  0  0  0  0  0  0  0  0
   58.4510   33.3980   44.6090 C   0  0  0  0  0  0  0  0  0  0  0  0
   58.8440   34.7240   44.7530 O   0  0  0  0  0  0  0  0  0  0  0  0
   60.8428   32.9350   48.6872 H   0  0  0  0  0  0  0  0  0  0  0  0
   61.0076   32.0160   47.1526 H   0  0  0  0  0  0  0  0  0  0  0  0
   61.1854   33.8035   47.1526 H   0  0  0  0  0  0  0  0  0  0  0  0
   58.0245   30.5110   46.3971 H   0  0  0  0  0  0  0  0  0  0  0  0
   57.3207   26.7001   43.6139 H   0  0  0  0  0  0  0  0  0  0  0  0
   58.8649   26.9402   44.5052 H   0  0  0  0  0  0  0  0  0  0  0  0
   55.1470   27.5460   45.4480 H   0  0  0  0  0  0  0  0  0  0  0  0
   57.4300   31.2311   42.1715 H   0  0  0  0  0  0  0  0  0  0  0  0
   58.1221   33.6037   42.4761 H   0  0  0  0  0  0  0  0  0  0  0  0
  1  2  1  0
  2  3  2  0
  2  4  2  0
  2  5  1  0
  5  6  2  0
  6  7  1  0
  7  8  1  0
  8  9  1  0
  9 10  2  0
  9 11  1  0
 11 12  1  0
 12 13  1  0
 13 14  1  0
 14 15  2  0
 14 16  1  0
 16 17  1  0
 17 18  1  0
  7 19  2  0
 19 20  1  0
 20 21  2  0
 21 22  1  0
 21  5  1  0
 17 12  2  0
  1 23  1  0
  1 24  1  0
  1 25  1  0
  6 26  1  0
 11 27  1  0
 11 28  1  0
 18 29  1  0
 19 30  1  0
 20 31  1  0
M  CHG  3   8  -1  16  -1  22  -1
M  END
>  <UniqueID>  (35) 
32

>  <SMILES>  (35) 
CS(=O)(=O)c1cc([N-]C(=O)Cc2sc(=O)[n-]c2O)ccc1[O-]

>  <Energy>  (35) 
61.64036635942932

>  <Genealogy>  (35) 
CS(=O)(=O)c1cc([N-]C(=O)Cc2sc(=O)[n-]c2O)ccc1[O-] (protonated)
CS(=O)(=O)c1cc([N-]C(=O)Cc2sc(=O)[n-]c2O)ccc1[O-] (3D coordinates assigned)
CS(=O)(=O)c1cc([N-]C(=O)Cc2sc(=O)[n-]c2O)ccc1[O-] (optimized conformer: 61.64036635942932 kcal/mol)

>  <smiles>  (35) 
CS(=O)(=O)c1cc(NC(=O)Cc2sc(=O)[nH]c2O)ccc1O

>  <score_type>  (35) 
oracle

>  <origin>  (35) 
adg

>  <m_score__min__energy>  (35) 
-12.75

>  <m_primary>  (35) 
energy

$$$$
35:0
     RDKit          3D

 47 50  0  0  0  0  0  0  0  0999 V2000
   58.4900   33.5560   46.6350 C   0  0  0  0  0  0  0  0  0  0  0  0
   58.2110   33.4620   44.8790 S   0  0  0  0  0  0  0  0  0  0  0  0
   56.9060   34.1340   44.5610 O   0  0  0  0  0  0  0  0  0  0  0  0
   59.3110   34.1670   44.1340 O   0  0  0  0  0  0  0  0  0  0  0  0
   58.1220   31.8050   44.3750 N   0  0  0  0  0  0  0  0  0  0  0  0
   58.3770   30.6610   45.2010 C   0  0  0  0  0  0  0  0  0  0  0  0
   59.6200   30.5550   45.8260 C   0  0  0  0  0  0  0  0  0  0  0  0
   59.9120   29.4650   46.6450 C   0  0  0  0  0  0  0  0  0  0  0  0
   58.9650   28.4460   46.8610 C   0  0  0  0  0  0  0  0  0  0  0  0
   57.7130   28.5300   46.1910 C   0  0  0  0  0  0  0  0  0  0  0  0
   57.4250   29.6470   45.3960 C   0  0  0  0  0  0  0  0  0  0  0  0
   56.7020   27.5190   46.2990 N   0  0  0  0  0  0  0  0  0  0  0  0
   56.9560   26.1200   46.4180 C   0  0  0  0  0  0  0  0  0  0  0  0
   55.9880   25.3280   46.5640 O   0  0  0  0  0  0  0  0  0  0  0  0
   58.3630   25.6130   46.3910 C   0  0  2  0  0  0  0  0  0  0  0  0
   58.3890   24.1520   46.4060 N   0  0  0  0  0  0  0  0  0  0  0  0
   58.5560   23.2800   45.2770 C   0  0  0  0  0  0  0  0  0  0  0  0
   59.6720   22.7210   45.1180 O   0  0  0  0  0  0  0  0  0  0  0  0
   57.5030   23.0430   44.2670 C   0  0  0  0  0  0  0  0  0  0  0  0
   57.4100   21.9750   43.3900 C   0  0  0  0  0  0  0  0  0  0  0  0
   56.3060   22.2160   42.5980 C   0  0  0  0  0  0  0  0  0  0  0  0
   55.7790   23.4230   43.0100 C   0  0  0  0  0  0  0  0  0  0  0  0
   56.5160   23.9260   44.0160 N   0  0  0  0  0  0  0  0  0  0  0  0
   59.0390   26.1050   47.5790 N   0  0  0  0  0  0  0  0  0  0  0  0
   59.3050   27.3560   47.8300 C   0  0  0  0  0  0  0  0  0  0  0  0
   59.9960   27.6790   49.1060 C   0  0  0  0  0  0  0  0  0  0  0  0
   60.7740   26.7050   49.7610 C   0  0  0  0  0  0  0  0  0  0  0  0
   61.4140   27.0040   50.9670 C   0  0  0  0  0  0  0  0  0  0  0  0
   61.2820   28.2720   51.5360 C   0  0  0  0  0  0  0  0  0  0  0  0
   60.5020   29.2430   50.9030 C   0  0  0  0  0  0  0  0  0  0  0  0
   59.8600   28.9500   49.6960 C   0  0  0  0  0  0  0  0  0  0  0  0
   57.5782   33.2488   47.1681 H   0  0  0  0  0  0  0  0  0  0  0  0
   59.3189   32.8875   46.9109 H   0  0  0  0  0  0  0  0  0  0  0  0
   58.7453   34.5898   46.9109 H   0  0  0  0  0  0  0  0  0  0  0  0
   60.3764   31.3385   45.6712 H   0  0  0  0  0  0  0  0  0  0  0  0
   60.8973   29.4003   47.1297 H   0  0  0  0  0  0  0  0  0  0  0  0
   56.4382   29.7311   44.9172 H   0  0  0  0  0  0  0  0  0  0  0  0
   58.8591   25.9624   45.4735 H   0  0  0  0  0  0  0  0  0  0  0  0
   58.0830   21.1066   43.3356 H   0  0  0  0  0  0  0  0  0  0  0  0
   55.9208   21.5712   41.7943 H   0  0  0  0  0  0  0  0  0  0  0  0
   54.8878   23.9027   42.5792 H   0  0  0  0  0  0  0  0  0  0  0  0
   56.3470   24.8310   44.5070 H   0  0  0  0  0  0  0  0  0  0  0  0
   60.8787   25.7024   49.3207 H   0  0  0  0  0  0  0  0  0  0  0  0
   62.0234   26.2382   51.4692 H   0  0  0  0  0  0  0  0  0  0  0  0
   61.7918   28.5064   52.4821 H   0  0  0  0  0  0  0  0  0  0  0  0
   60.3928   30.2399   51.3551 H   0  0  0  0  0  0  0  0  0  0  0  0
   59.2446   29.7177   49.2041 H   0  0  0  0  0  0  0  0  0  0  0  0
  1  2  1  0
  2  3  2  0
  2  4  2  0
  2  5  1  0
  5  6  1  0
  6  7  2  0
  7  8  1  0
  8  9  2  0
  9 10  1  0
 10 11  2  0
 10 12  1  0
 12 13  1  0
 13 14  2  0
 13 15  1  0
 15 16  1  0
 16 17  1  0
 17 18  2  0
 17 19  1  0
 19 20  2  0
 20 21  1  0
 21 22  2  0
 22 23  1  0
 15 24  1  0
 24 25  2  0
 25 26  1  0
 26 27  2  0
 27 28  1  0
 28 29  2  0
 29 30  1  0
 30 31  2  0
 11  6  1  0
 23 19  1  0
 31 26  1  0
 25  9  1  0
  1 32  1  0
  1 33  1  0
  1 34  1  0
  7 35  1  0
  8 36  1  0
 11 37  1  0
 15 38  1  6
 20 39  1  0
 21 40  1  0
 22 41  1  0
 23 42  1  0
 27 43  1  0
 28 44  1  0
 29 45  1  0
 30 46  1  0
 31 47  1  0
M  CHG  3   5  -1  12  -1  16  -1
M  END
>  <UniqueID>  (36) 
33

>  <SMILES>  (36) 
CS(=O)(=O)[N-]c1ccc2c(c1)[N-]C(=O)[C@H]([N-]C(=O)c1ccc[nH]1)N=C2c1ccccc1

>  <Energy>  (36) 
93.40870038177684

>  <Genealogy>  (36) 
CS(=O)(=O)[N-]c1ccc2c(c1)[N-]C(=O)C([N-]C(=O)c1ccc[nH]1)N=C2c1ccccc1 (protonated)
CS(=O)(=O)[N-]c1ccc2c(c1)[N-]C(=O)[C@H]([N-]C(=O)c1ccc[nH]1)N=C2c1ccccc1 (chirality)
CS(=O)(=O)[N-]c1ccc2c(c1)[N-]C(=O)[C@H]([N-]C(=O)c1ccc[nH]1)N=C2c1ccccc1 (3D coordinates assigned)
CS(=O)(=O)[N-]c1ccc2c(c1)[N-]C(=O)[C@H]([N-]C(=O)c1ccc[nH]1)N=C2c1ccccc1 (nonaromatic ring conformer: 93.40870038177684 kcal/mol)

>  <smiles>  (36) 
CS(=O)(=O)Nc1ccc2c(c1)NC(=O)C(NC(=O)c1ccc[nH]1)N=C2c1ccccc1

>  <score_type>  (36) 
oracle

>  <origin>  (36) 
adg

>  <m_score__min__energy>  (36) 
-10.859999999999999

>  <m_primary>  (36) 
energy

$$$$
36:0
     RDKit          3D

 48 51  0  0  0  0  0  0  0  0999 V2000
   54.7630   26.3400   45.9810 O   0  0  0  0  0  0  0  0  0  0  0  0
   55.7830   25.6170   46.1460 C   0  0  0  0  0  0  0  0  0  0  0  0
   55.6270   24.1920   46.1060 N   0  0  0  0  0  0  0  0  0  0  0  0
   56.1650   23.3200   45.1000 C   0  0  0  0  0  0  0  0  0  0  0  0
   55.9180   23.6380   43.7590 C   0  0  0  0  0  0  0  0  0  0  0  0
   56.3240   22.7780   42.7380 C   0  0  0  0  0  0  0  0  0  0  0  0
   56.9920   21.5940   43.0480 C   0  0  0  0  0  0  0  0  0  0  0  0
   57.2800   21.2800   44.3770 C   0  0  0  0  0  0  0  0  0  0  0  0
   56.8970   22.1460   45.4190 C   0  0  0  0  0  0  0  0  0  0  0  0
   57.3350   21.8350   46.8000 C   0  0  0  0  0  0  0  0  0  0  0  0
   57.7630   20.6860   47.0860 O   0  0  0  0  0  0  0  0  0  0  0  0
   57.3300   22.8160   47.7830 O   0  0  0  0  0  0  0  0  0  0  0  0
   57.0950   26.2620   46.3780 C   0  0  0  0  0  0  0  0  0  0  0  0
   57.9410   25.8260   47.4120 C   0  0  0  0  0  0  0  0  0  0  0  0
   59.1850   26.4310   47.6080 C   0  0  0  0  0  0  0  0  0  0  0  0
   59.5920   27.4820   46.7860 C   0  0  0  0  0  0  0  0  0  0  0  0
   58.7460   27.9520   45.7690 C   0  0  0  0  0  0  0  0  0  0  0  0
   59.2030   29.0630   44.8580 C   0  0  0  0  0  0  0  0  0  0  0  0
   58.5610   30.3910   45.1980 C   0  0  0  0  0  0  0  0  0  0  0  0
   57.3060   30.6590   44.7460 N   0  0  0  0  0  0  0  0  0  0  0  0
   56.6810   31.8020   45.0200 N   0  0  0  0  0  0  0  0  0  0  0  0
   57.2640   32.7680   45.7680 C   0  0  0  0  0  0  0  0  0  0  0  0
   56.6290   33.8310   46.0050 O   0  0  0  0  0  0  0  0  0  0  0  0
   58.5580   32.5720   46.2760 C   0  0  0  0  0  0  0  0  0  0  0  0
   59.2090   31.3420   46.0230 C   0  0  0  0  0  0  0  0  0  0  0  0
   60.6140   31.0820   46.5400 C   0  0  0  0  0  0  0  0  0  0  0  0
   61.0170   32.0150   47.6840 C   0  0  0  0  0  0  0  0  0  0  0  0
   60.6880   33.4600   47.3280 C   0  0  0  0  0  0  0  0  0  0  0  0
   59.1770   33.6320   47.1660 C   0  0  0  0  0  0  0  0  0  0  0  0
   57.5000   27.3360   45.5670 C   0  0  0  0  0  0  0  0  0  0  0  0
   55.3989   24.5748   43.5080 H   0  0  0  0  0  0  0  0  0  0  0  0
   56.1171   23.0341   41.6884 H   0  0  0  0  0  0  0  0  0  0  0  0
   57.2925   20.9063   42.2438 H   0  0  0  0  0  0  0  0  0  0  0  0
   57.8117   20.3464   44.6128 H   0  0  0  0  0  0  0  0  0  0  0  0
   57.6222   25.0044   48.0702 H   0  0  0  0  0  0  0  0  0  0  0  0
   59.8457   26.0774   48.4132 H   0  0  0  0  0  0  0  0  0  0  0  0
   60.5791   27.9440   46.9352 H   0  0  0  0  0  0  0  0  0  0  0  0
   60.2946   29.1657   44.9467 H   0  0  0  0  0  0  0  0  0  0  0  0
   58.9041   28.7995   43.8327 H   0  0  0  0  0  0  0  0  0  0  0  0
   60.6677   30.0439   46.8999 H   0  0  0  0  0  0  0  0  0  0  0  0
   61.3084   31.2667   45.7072 H   0  0  0  0  0  0  0  0  0  0  0  0
   60.4682   31.7314   48.5942 H   0  0  0  0  0  0  0  0  0  0  0  0
   62.1001   31.9258   47.8542 H   0  0  0  0  0  0  0  0  0  0  0  0
   61.0454   34.1224   48.1302 H   0  0  0  0  0  0  0  0  0  0  0  0
   61.1828   33.7182   46.3801 H   0  0  0  0  0  0  0  0  0  0  0  0
   58.7081   33.5747   48.1594 H   0  0  0  0  0  0  0  0  0  0  0  0
   59.0036   34.6080   46.6891 H   0  0  0  0  0  0  0  0  0  0  0  0
   56.8360   27.6970   44.7678 H   0  0  0  0  0  0  0  0  0  0  0  0
  1  2  2  0
  2  3  1  0
  3  4  1  0
  4  5  2  0
  5  6  1  0
  6  7  2  0
  7  8  1  0
  8  9  2  0
  9 10  1  0
 10 11  2  0
 10 12  1  0
  2 13  1  0
 13 14  2  0
 14 15  1  0
 15 16  2  0
 16 17  1  0
 17 18  1  0
 18 19  1  0
 19 20  2  0
 20 21  1  0
 21 22  1  0
 22 23  2  0
 22 24  1  0
 24 25  2  0
 25 26  1  0
 26 27  1  0
 27 28  1  0
 28 29  1  0
 17 30  2  0
  9  4  1  0
 30 13  1  0
 25 19  1  0
 29 24  1  0
  5 31  1  0
  6 32  1  0
  7 33  1  0
  8 34  1  0
 14 35  1  0
 15 36  1  0
 16 37  1  0
 18 38  1  0
 18 39  1  0
 26 40  1  0
 26 41  1  0
 27 42  1  0
 27 43  1  0
 28 44  1  0
 28 45  1  0
 29 46  1  0
 29 47  1  0
 30 48  1  0
M  CHG  3   3  -1  12  -1  21  -1
M  END
>  <UniqueID>  (37) 
34

>  <SMILES>  (37) 
O=C([N-]c1ccccc1C(=O)[O-])c1cccc(Cc2n[n-]c(=O)c3c2CCCC3)c1

>  <Energy>  (37) 
67.58899950812341

>  <Genealogy>  (37) 
O=C([N-]c1ccccc1C(=O)[O-])c1cccc(Cc2n[n-]c(=O)c3c2CCCC3)c1 (protonated)
O=C([N-]c1ccccc1C(=O)[O-])c1cccc(Cc2n[n-]c(=O)c3c2CCCC3)c1 (3D coordinates assigned)
O=C([N-]c1ccccc1C(=O)[O-])c1cccc(Cc2n[n-]c(=O)c3c2CCCC3)c1 (nonaromatic ring conformer: 67.58899950812341 kcal/mol)

>  <smiles>  (37) 
O=C(Nc1ccccc1C(=O)O)c1cccc(Cc2n[nH]c(=O)c3c2CCCC3)c1

>  <score_type>  (37) 
oracle

>  <origin>  (37) 
adg

>  <m_score__min__energy>  (37) 
-15.98

>  <m_primary>  (37) 
energy

$$$$
37:0
     RDKit          3D

 57 61  0  0  1  0  0  0  0  0999 V2000
   58.1580   29.6430   51.6550 C   0  0  0  0  0  0  0  0  0  0  0  0
   58.2930   30.1130   50.2940 N   0  0  0  0  0  0  0  0  0  0  0  0
   58.6670   31.2940   49.9620 C   0  0  0  0  0  0  0  0  0  0  0  0
   58.6190   31.6350   48.6440 N   0  0  0  0  0  0  0  0  0  0  0  0
   59.0050   32.8770   48.2220 C   0  0  0  0  0  0  0  0  0  0  0  0
   58.9210   33.1490   46.8160 C   0  0  0  0  0  0  0  0  0  0  0  0
   59.6510   34.2420   46.3320 C   0  0  0  0  0  0  0  0  0  0  0  0
   59.6250   34.5730   44.9840 C   0  0  0  0  0  0  0  0  0  0  0  0
   58.8800   33.8360   44.0900 C   0  0  0  0  0  0  0  0  0  0  0  0
   58.1930   32.8010   44.5730 N   0  0  0  0  0  0  0  0  0  0  0  0
   58.2010   32.4570   45.8790 C   0  0  0  0  0  0  0  0  0  0  0  0
   57.4560   31.3710   46.2730 O   0  0  0  0  0  0  0  0  0  0  0  0
   57.6690   30.1370   45.6970 C   0  0  0  0  0  0  0  0  0  0  0  0
   57.2390   29.9810   44.3730 C   0  0  0  0  0  0  0  0  0  0  0  0
   57.4010   28.8010   43.7060 C   0  0  0  0  0  0  0  0  0  0  0  0
   57.9980   27.7300   44.3400 C   0  0  0  0  0  0  0  0  0  0  0  0
   58.4210   27.8880   45.6450 C   0  0  0  0  0  0  0  0  0  0  0  0
   59.0230   27.0420   46.5110 N   0  0  0  0  0  0  0  0  0  0  0  0
   59.2180   27.6960   47.6680 C   0  0  0  0  0  0  0  0  0  0  0  0
   59.7680   27.1900   48.7100 N   0  0  0  0  0  0  0  0  0  0  0  0
   60.7300   27.8530   49.5230 C   0  0  0  0  0  0  0  0  0  0  0  0
   61.5170   27.1390   50.1970 O   0  0  0  0  0  0  0  0  0  0  0  0
   60.7490   29.2720   49.5290 N   0  0  0  0  0  0  0  0  0  0  0  0
   61.6810   30.0590   50.3130 C   0  0  0  0  0  0  0  0  0  0  0  0
   62.2440   31.2120   49.5960 C   0  0  0  0  0  0  0  0  0  0  0  0
   62.9150   32.2570   50.1890 C   0  0  0  0  0  0  0  0  0  0  0  0
   63.4270   33.3170   49.4730 C   0  0  0  0  0  0  0  0  0  0  0  0
   63.2650   33.3390   48.1040 C   0  0  0  0  0  0  0  0  0  0  0  0
   62.5970   32.3090   47.4710 C   0  0  0  0  0  0  0  0  0  0  0  0
   62.0890   31.2510   48.2060 C   0  0  0  0  0  0  0  0  0  0  0  0
   58.7570   28.9590   47.5880 N   0  0  0  0  0  0  0  0  0  0  0  0
   58.2670   29.0740   46.3420 C   0  0  0  0  0  0  0  0  0  0  0  0
   59.4300   33.7210   49.2090 C   0  0  0  0  0  0  0  0  0  0  0  0
   59.4730   33.3550   50.5500 C   0  0  0  0  0  0  0  0  0  0  0  0
   59.0830   32.1200   50.9140 N   0  0  0  0  0  0  0  0  0  0  0  0
   58.3932   30.4619   52.3507 H   0  0  0  0  0  0  0  0  0  0  0  0
   57.1258   29.3027   51.8247 H   0  0  0  0  0  0  0  0  0  0  0  0
   58.8523   28.8068   51.8247 H   0  0  0  0  0  0  0  0  0  0  0  0
   60.2521   34.8453   47.0282 H   0  0  0  0  0  0  0  0  0  0  0  0
   60.2068   35.4349   44.6252 H   0  0  0  0  0  0  0  0  0  0  0  0
   58.8531   34.0914   43.0204 H   0  0  0  0  0  0  0  0  0  0  0  0
   56.7603   30.8279   43.8595 H   0  0  0  0  0  0  0  0  0  0  0  0
   57.0566   28.7039   42.6658 H   0  0  0  0  0  0  0  0  0  0  0  0
   58.1338   26.7718   43.8172 H   0  0  0  0  0  0  0  0  0  0  0  0
   59.2690   26.0610   46.2620 H   0  0  0  0  0  0  0  0  0  0  0  0
   60.0620   29.7980   48.9450 H   0  0  0  0  0  0  0  0  0  0  0  0
   61.1549   30.4301   51.2049 H   0  0  0  0  0  0  0  0  0  0  0  0
   62.5240   29.3975   50.5616 H   0  0  0  0  0  0  0  0  0  0  0  0
   63.0482   32.2455   51.2808 H   0  0  0  0  0  0  0  0  0  0  0  0
   63.9569   34.1332   49.9858 H   0  0  0  0  0  0  0  0  0  0  0  0
   63.6677   34.1768   47.5159 H   0  0  0  0  0  0  0  0  0  0  0  0
   62.4680   32.3292   46.3788 H   0  0  0  0  0  0  0  0  0  0  0  0
   61.5594   30.4347   47.6929 H   0  0  0  0  0  0  0  0  0  0  0  0
   58.7760   29.6920   48.3350 H   0  0  0  0  0  0  0  0  0  0  0  0
   59.7525   34.7351   48.9305 H   0  0  0  0  0  0  0  0  0  0  0  0
   59.8236   34.0707   51.3082 H   0  0  0  0  0  0  0  0  0  0  0  0
   59.1130   31.8440   51.9170 H   0  0  0  0  0  0  0  0  0  0  0  0
  1  2  1  0
  2  3  2  0
  3  4  1  0
  4  5  2  0
  5  6  1  0
  6  7  2  0
  7  8  1  0
  8  9  2  0
  9 10  1  0
 10 11  2  0
 11 12  1  0
 12 13  1  0
 13 14  2  0
 14 15  1  0
 15 16  2  0
 16 17  1  0
 17 18  1  0
 18 19  1  0
 19 20  2  0
 20 21  1  0
 21 22  2  0
 21 23  1  0
 23 24  1  0
 24 25  1  0
 25 26  2  0
 26 27  1  0
 27 28  2  0
 28 29  1  0
 29 30  2  0
 19 31  1  0
 31 32  1  0
  5 33  1  0
 33 34  2  0
 34 35  1  0
 35  3  1  0
 11  6  1  0
 32 13  1  0
 32 17  2  0
 30 25  1  0
  1 36  1  0
  1 37  1  0
  1 38  1  0
  7 39  1  0
  8 40  1  0
  9 41  1  0
 14 42  1  0
 15 43  1  0
 16 44  1  0
 18 45  1  0
 23 46  1  0
 24 47  1  0
 24 48  1  0
 26 49  1  0
 27 50  1  0
 28 51  1  0
 29 52  1  0
 30 53  1  0
 31 54  1  0
 33 55  1  0
 34 56  1  0
 35 57  1  0
M  END
>  <smiles>  (38) 
CN=c1nc(-c2cccnc2Oc2cccc3[nH]c(=NC(=O)NCc4ccccc4)[nH]c23)cc[nH]1

>  <score_type>  (38) 
oracle

>  <origin>  (38) 
adg

>  <m_score__min__energy>  (38) 
-9.9800000000000004

>  <m_primary>  (38) 
energy

$$$$
38:0
     RDKit          3D

 46 48  0  0  0  0  0  0  0  0999 V2000
   60.3660   28.9940   44.8450 C   0  0  0  0  0  0  0  0  0  0  0  0
   58.9290   28.6880   45.1130 C   0  0  0  0  0  0  0  0  0  0  0  0
   58.4840   27.4820   45.5270 N   0  0  0  0  0  0  0  0  0  0  0  0
   57.1640   27.5520   45.6130 N   0  0  0  0  0  0  0  0  0  0  0  0
   56.3180   26.4400   46.0290 C   0  0  0  0  0  0  0  0  0  0  0  0
   56.7550   28.7820   45.2480 C   0  0  0  0  0  0  0  0  0  0  0  0
   55.4290   29.2090   45.2150 O   0  0  0  0  0  0  0  0  0  0  0  0
   57.8530   29.5410   44.9120 C   0  0  0  0  0  0  0  0  0  0  0  0
   57.8730   30.9630   44.4300 C   0  0  0  0  0  0  0  0  0  0  0  0
   56.6650   31.6840   44.8600 N   0  0  0  0  0  0  0  0  0  0  0  0
   56.9410   33.0650   45.2940 C   0  0  0  0  0  0  0  0  0  0  0  0
   58.2550   33.1840   46.0280 C   0  0  0  0  0  0  0  0  0  0  0  0
   59.2360   34.0870   45.6020 C   0  0  0  0  0  0  0  0  0  0  0  0
   60.4390   34.1980   46.3000 C   0  0  0  0  0  0  0  0  0  0  0  0
   60.6600   33.3990   47.4360 C   0  0  0  0  0  0  0  0  0  0  0  0
   61.8900   33.4820   48.1900 N   0  0  0  0  0  0  0  0  0  0  0  0
   63.1320   32.9660   47.5990 C   0  0  0  0  0  0  0  0  0  0  0  0
   64.1120   32.5480   48.7000 C   0  0  0  0  0  0  0  0  0  0  0  0
   64.2890   33.5930   49.6360 O   0  0  0  0  0  0  0  0  0  0  0  0
   63.0750   33.8210   50.3240 C   0  0  0  0  0  0  0  0  0  0  0  0
   61.9980   34.3480   49.3710 C   0  0  0  0  0  0  0  0  0  0  0  0
   59.6930   32.5220   47.8240 N   0  0  0  0  0  0  0  0  0  0  0  0
   58.5130   32.3970   47.1580 C   0  0  0  0  0  0  0  0  0  0  0  0
   60.9008   29.1079   45.7995 H   0  0  0  0  0  0  0  0  0  0  0  0
   60.8149   28.1713   44.2691 H   0  0  0  0  0  0  0  0  0  0  0  0
   60.4407   29.9282   44.2691 H   0  0  0  0  0  0  0  0  0  0  0  0
   56.2844   26.3958   47.1276 H   0  0  0  0  0  0  0  0  0  0  0  0
   55.3008   26.5864   45.6366 H   0  0  0  0  0  0  0  0  0  0  0  0
   56.7304   25.4987   45.6366 H   0  0  0  0  0  0  0  0  0  0  0  0
   55.1500   30.0960   45.6130 H   0  0  0  0  0  0  0  0  0  0  0  0
   58.7590   31.4693   44.8406 H   0  0  0  0  0  0  0  0  0  0  0  0
   57.9053   30.9592   43.3305 H   0  0  0  0  0  0  0  0  0  0  0  0
   55.9880   31.7020   44.0620 H   0  0  0  0  0  0  0  0  0  0  0  0
   56.9713   33.7150   44.4071 H   0  0  0  0  0  0  0  0  0  0  0  0
   56.1408   33.3661   45.9861 H   0  0  0  0  0  0  0  0  0  0  0  0
   59.0579   34.7112   44.7140 H   0  0  0  0  0  0  0  0  0  0  0  0
   61.2103   34.9065   45.9636 H   0  0  0  0  0  0  0  0  0  0  0  0
   62.8995   32.0940   46.9701 H   0  0  0  0  0  0  0  0  0  0  0  0
   63.5941   33.7574   46.9906 H   0  0  0  0  0  0  0  0  0  0  0  0
   63.7160   31.6623   49.2185 H   0  0  0  0  0  0  0  0  0  0  0  0
   65.0840   32.3182   48.2391 H   0  0  0  0  0  0  0  0  0  0  0  0
   62.7306   32.8762   50.7697 H   0  0  0  0  0  0  0  0  0  0  0  0
   63.2505   34.5734   51.1070 H   0  0  0  0  0  0  0  0  0  0  0  0
   61.0306   34.3696   49.8941 H   0  0  0  0  0  0  0  0  0  0  0  0
   62.2750   35.3616   49.0456 H   0  0  0  0  0  0  0  0  0  0  0  0
   57.7595   31.6760   47.5078 H   0  0  0  0  0  0  0  0  0  0  0  0
  1  2  1  0
  2  3  2  0
  3  4  1  0
  4  5  1  0
  4  6  1  0
  6  7  1  0
  6  8  2  0
  8  9  1  0
  9 10  1  0
 10 11  1  0
 11 12  1  0
 12 13  2  0
 13 14  1  0
 14 15  2  0
 15 16  1  0
 16 17  1  0
 17 18  1  0
 18 19  1  0
 19 20  1  0
 20 21  1  0
 15 22  1  0
 22 23  2  0
  8  2  1  0
 23 12  1  0
 21 16  1  0
  1 24  1  0
  1 25  1  0
  1 26  1  0
  5 27  1  0
  5 28  1  0
  5 29  1  0
  7 30  1  0
  9 31  1  0
  9 32  1  0
 10 33  1  0
 11 34  1  0
 11 35  1  0
 13 36  1  0
 14 37  1  0
 17 38  1  0
 17 39  1  0
 18 40  1  0
 18 41  1  0
 20 42  1  0
 20 43  1  0
 21 44  1  0
 21 45  1  0
 23 46  1  0
M  END
>  <UniqueID>  (39) 
35

>  <SMILES>  (39) 
Cc1nn(C)c(O)c1CNCc1ccc(N2CCOCC2)nc1

>  <Energy>  (39) 
79.37464540092964

>  <Genealogy>  (39) 
Cc1nn(C)c(O)c1CNCc1ccc(N2CCOCC2)nc1 (3D coordinates assigned)
Cc1nn(C)c(O)c1CNCc1ccc(N2CCOCC2)nc1 (nonaromatic ring conformer: 79.37464540092964 kcal/mol)

>  <smiles>  (39) 
Cc1nn(C)c(O)c1CNCc1ccc(N2CCOCC2)nc1

>  <score_type>  (39) 
oracle

>  <origin>  (39) 
adg

>  <m_score__min__energy>  (39) 
-8.3300000000000001

>  <m_primary>  (39) 
energy

$$$$
39:0
     RDKit          3D

 53 56  0  0  0  0  0  0  0  0999 V2000
   57.0160   31.1510   42.2830 C   0  0  0  0  0  0  0  0  0  0  0  0
   57.5420   31.7760   43.5370 C   0  0  0  0  0  0  0  0  0  0  0  0
   58.1180   33.0310   43.6180 C   0  0  0  0  0  0  0  0  0  0  0  0
   58.5120   33.1840   44.9360 C   0  0  0  0  0  0  0  0  0  0  0  0
   59.1940   34.3510   45.5120 C   0  0  0  0  0  0  0  0  0  0  0  0
   59.2150   35.4370   44.8720 O   0  0  0  0  0  0  0  0  0  0  0  0
   59.8320   34.2340   46.7950 N   0  0  0  0  0  0  0  0  0  0  0  0
   60.7710   33.3960   47.1310 C   0  0  0  0  0  0  0  0  0  0  0  0
   60.4160   32.1220   47.5900 C   0  0  0  0  0  0  0  0  0  0  0  0
   61.4200   31.2020   47.9370 C   0  0  0  0  0  0  0  0  0  0  0  0
   61.1220   29.9180   48.4170 O   0  0  0  0  0  0  0  0  0  0  0  0
   60.3930   28.9380   47.7270 C   0  0  0  0  0  0  0  0  0  0  0  0
   59.7180   27.9600   48.4650 C   0  0  0  0  0  0  0  0  0  0  0  0
   58.9920   26.9570   47.8160 C   0  0  0  0  0  0  0  0  0  0  0  0
   58.9260   26.9210   46.4160 C   0  0  0  0  0  0  0  0  0  0  0  0
   58.1890   25.8670   45.7710 N   0  0  0  0  0  0  0  0  0  0  0  0
   56.7600   25.7460   45.8010 C   0  0  0  0  0  0  0  0  0  0  0  0
   56.0750   26.5030   46.5410 O   0  0  0  0  0  0  0  0  0  0  0  0
   56.1270   24.7840   44.9420 N   0  0  0  0  0  0  0  0  0  0  0  0
   56.6280   23.7100   44.3950 C   0  0  0  0  0  0  0  0  0  0  0  0
   56.0380   23.0580   43.2900 C   0  0  0  0  0  0  0  0  0  0  0  0
   56.6380   21.9080   42.7710 C   0  0  0  0  0  0  0  0  0  0  0  0
   57.8010   21.4050   43.3520 C   0  0  0  0  0  0  0  0  0  0  0  0
   58.3470   22.0580   44.4550 C   0  0  0  0  0  0  0  0  0  0  0  0
   57.7540   23.1780   44.9460 N   0  0  0  0  0  0  0  0  0  0  0  0
   59.6380   27.8780   45.6720 C   0  0  0  0  0  0  0  0  0  0  0  0
   60.3670   28.8780   46.3220 C   0  0  0  0  0  0  0  0  0  0  0  0
   62.7590   31.5910   47.8500 C   0  0  0  0  0  0  0  0  0  0  0  0
   63.0780   32.8700   47.3890 C   0  0  0  0  0  0  0  0  0  0  0  0
   62.0880   33.7340   47.0410 N   0  0  0  0  0  0  0  0  0  0  0  0
   58.1740   32.0190   45.6020 C   0  0  0  0  0  0  0  0  0  0  0  0
   57.5910   31.1630   44.7410 N   0  0  0  0  0  0  0  0  0  0  0  0
   57.1140   29.8200   45.0580 C   0  0  0  0  0  0  0  0  0  0  0  0
   56.3276   30.3330   42.5418 H   0  0  0  0  0  0  0  0  0  0  0  0
   56.4797   31.9086   41.6927 H   0  0  0  0  0  0  0  0  0  0  0  0
   57.8541   30.7520   41.6927 H   0  0  0  0  0  0  0  0  0  0  0  0
   58.2383   33.7586   42.8019 H   0  0  0  0  0  0  0  0  0  0  0  0
   59.3558   31.8423   47.6787 H   0  0  0  0  0  0  0  0  0  0  0  0
   59.7588   27.9803   49.5641 H   0  0  0  0  0  0  0  0  0  0  0  0
   58.4691   26.1911   48.4076 H   0  0  0  0  0  0  0  0  0  0  0  0
   58.7280   25.0820   45.3370 H   0  0  0  0  0  0  0  0  0  0  0  0
   55.1140   23.4522   42.8418 H   0  0  0  0  0  0  0  0  0  0  0  0
   56.1925   21.3992   41.9035 H   0  0  0  0  0  0  0  0  0  0  0  0
   58.2818   20.5034   42.9446 H   0  0  0  0  0  0  0  0  0  0  0  0
   59.2592   21.6666   44.9290 H   0  0  0  0  0  0  0  0  0  0  0  0
   59.6214   27.8397   44.5728 H   0  0  0  0  0  0  0  0  0  0  0  0
   60.9229   29.6215   45.7319 H   0  0  0  0  0  0  0  0  0  0  0  0
   63.5576   30.8936   48.1430 H   0  0  0  0  0  0  0  0  0  0  0  0
   64.1307   33.1784   47.3075 H   0  0  0  0  0  0  0  0  0  0  0  0
   58.3537   31.8225   46.6693 H   0  0  0  0  0  0  0  0  0  0  0  0
   57.0696   29.6949   46.1500 H   0  0  0  0  0  0  0  0  0  0  0  0
   56.1102   29.6772   44.6314 H   0  0  0  0  0  0  0  0  0  0  0  0
   57.8029   29.0760   44.6314 H   0  0  0  0  0  0  0  0  0  0  0  0
  1  2  1  0
  2  3  2  0
  3  4  1  0
  4  5  1  0
  5  6  2  0
  5  7  1  0
  7  8  2  3
  8  9  1  0
  9 10  2  0
 10 11  1  0
 11 12  1  0
 12 13  2  0
 13 14  1  0
 14 15  2  0
 15 16  1  0
 16 17  1  0
 17 18  2  0
 17 19  1  0
 19 20  2  3
 20 21  1  0
 21 22  2  0
 22 23  1  0
 23 24  2  0
 24 25  1  0
 15 26  1  0
 26 27  2  0
 10 28  1  0
 28 29  2  0
 29 30  1  0
  4 31  2  0
 31 32  1  0
 32 33  1  0
 32  2  1  0
 30  8  1  0
 27 12  1  0
 25 20  1  0
  1 34  1  0
  1 35  1  0
  1 36  1  0
  3 37  1  0
  9 38  1  0
 13 39  1  0
 14 40  1  0
 16 41  1  0
 21 42  1  0
 22 43  1  0
 23 44  1  0
 24 45  1  0
 26 46  1  0
 27 47  1  0
 28 48  1  0
 29 49  1  0
 31 50  1  0
 33 51  1  0
 33 52  1  0
 33 53  1  0
M  CHG  2  25  -1  30  -1
M  END
>  <UniqueID>  (40) 
36

>  <SMILES>  (40) 
Cc1cc(C(=O)N=c2cc(Oc3ccc(NC(=O)N=c4cccc[n-]4)cc3)cc[n-]2)cn1C

>  <Energy>  (40) 
102.3726631333473

>  <Genealogy>  (40) 
Cc1cc(C(=O)N=c2cc(Oc3ccc(NC(=O)N=c4cccc[n-]4)cc3)cc[n-]2)cn1C (protonated)
Cc1cc(C(=O)N=c2cc(Oc3ccc(NC(=O)N=c4cccc[n-]4)cc3)cc[n-]2)cn1C (3D coordinates assigned)
Cc1cc(C(=O)N=c2cc(Oc3ccc(NC(=O)N=c4cccc[n-]4)cc3)cc[n-]2)cn1C (optimized conformer: 102.3726631333473 kcal/mol)

>  <smiles>  (40) 
Cc1cc(C(=O)N=c2cc(Oc3ccc(NC(=O)N=c4cccc[nH]4)cc3)cc[nH]2)cn1C

>  <score_type>  (40) 
oracle

>  <origin>  (40) 
adg

>  <m_score__min__energy>  (40) 
-11.06

>  <m_primary>  (40) 
energy

$$$$
40:0
     RDKit          3D

 41 43  0  0  0  0  0  0  0  0999 V2000
   57.8929   26.1709   47.5032 H   0  0  0  0  0  0  0  0  0  0  0  0
   57.9600   26.2830   46.4110 C   0  0  0  0  0  0  0  0  0  0  0  0
   58.5580   25.3160   45.7010 C   0  0  0  0  0  0  0  0  0  0  0  0
   59.6534   25.3457   45.6054 H   0  0  0  0  0  0  0  0  0  0  0  0
   57.8280   24.2070   45.0360 C   0  0  0  0  0  0  0  0  0  0  0  0
   58.5260   23.0220   44.7540 C   0  0  0  0  0  0  0  0  0  0  0  0
   59.5895   22.9379   45.0223 H   0  0  0  0  0  0  0  0  0  0  0  0
   57.8810   21.9500   44.1360 C   0  0  0  0  0  0  0  0  0  0  0  0
   58.4404   21.0295   43.9132 H   0  0  0  0  0  0  0  0  0  0  0  0
   56.5290   22.0400   43.7990 C   0  0  0  0  0  0  0  0  0  0  0  0
   55.9020   20.9640   43.1830 O   0  0  0  0  0  0  0  0  0  0  0  0
   55.8050   23.2050   44.0860 C   0  0  0  0  0  0  0  0  0  0  0  0
   54.4450   23.2470   43.7410 O   0  0  0  0  0  0  0  0  0  0  0  0
   53.4270   23.8420   44.5410 C   0  0  0  0  0  0  0  0  0  0  0  0
   53.6677   23.7013   45.6051 H   0  0  0  0  0  0  0  0  0  0  0  0
   53.3669   24.9174   44.3178 H   0  0  0  0  0  0  0  0  0  0  0  0
   52.4605   23.3666   44.3178 H   0  0  0  0  0  0  0  0  0  0  0  0
   56.4590   24.2870   44.7100 C   0  0  0  0  0  0  0  0  0  0  0  0
   55.8956   25.2022   44.9446 H   0  0  0  0  0  0  0  0  0  0  0  0
   57.3860   27.4960   45.7850 C   0  0  0  0  0  0  0  0  0  0  0  0
   56.0000   27.6750   45.5900 C   0  0  0  0  0  0  0  0  0  0  0  0
   55.0860   26.7160   46.0050 O   0  0  0  0  0  0  0  0  0  0  0  0
   55.5390   28.8200   45.0200 N   0  0  0  0  0  0  0  0  0  0  0  0
   56.3680   29.8220   44.6280 C   0  0  0  0  0  0  0  0  0  0  0  0
   55.8760   30.8710   44.1350 O   0  0  0  0  0  0  0  0  0  0  0  0
   57.7570   29.6910   44.8030 C   0  0  0  0  0  0  0  0  0  0  0  0
   58.6700   30.7360   44.4280 N   0  0  0  0  0  0  0  0  0  0  0  0
   59.3170   30.5520   43.6270 H   0  0  0  0  0  0  0  0  0  0  0  0
   58.6870   32.0460   45.0210 C   0  0  0  0  0  0  0  0  0  0  0  0
   58.1330   33.1590   44.3580 C   0  0  0  0  0  0  0  0  0  0  0  0
   57.6585   33.0301   43.3740 H   0  0  0  0  0  0  0  0  0  0  0  0
   58.1840   34.4270   44.9460 C   0  0  0  0  0  0  0  0  0  0  0  0
   57.7402   35.2901   44.4282 H   0  0  0  0  0  0  0  0  0  0  0  0
   58.7970   34.6000   46.1890 C   0  0  0  0  0  0  0  0  0  0  0  0
   58.8319   35.5975   46.6513 H   0  0  0  0  0  0  0  0  0  0  0  0
   59.3660   33.5050   46.8450 C   0  0  0  0  0  0  0  0  0  0  0  0
   59.8523   33.6421   47.8221 H   0  0  0  0  0  0  0  0  0  0  0  0
   59.3180   32.2350   46.2610 C   0  0  0  0  0  0  0  0  0  0  0  0
   59.7775   31.3788   46.7765 H   0  0  0  0  0  0  0  0  0  0  0  0
   58.2510   28.5340   45.4160 C   0  0  0  0  0  0  0  0  0  0  0  0
   59.3296   28.4388   45.6100 H   0  0  0  0  0  0  0  0  0  0  0  0
  1  2  1  0
  2  3  2  0
  3  4  1  0
  3  5  1  0
  5  6  2  0
  6  7  1  0
  6  8  1  0
  8  9  1  0
  8 10  2  0
 10 11  1  0
 10 12  1  0
 12 13  1  0
 13 14  1  0
 14 15  1  0
 14 16  1  0
 14 17  1  0
 12 18  2  0
 18 19  1  0
  2 20  1  0
 20 21  2  0
 21 22  1  0
 21 23  1  0
 23 24  1  0
 24 25  2  0
 24 26  1  0
 26 27  1  0
 27 28  1  0
 27 29  1  0
 29 30  2  0
 30 31  1  0
 30 32  1  0
 32 33  1  0
 32 34  2  0
 34 35  1  0
 34 36  1  0
 36 37  1  0
 36 38  2  0
 38 39  1  0
 26 40  2  0
 40 41  1  0
 18  5  1  0
 40 20  1  0
 38 29  1  0
M  CHG  3  11  -1  22  -1  23  -1
M  END
>  <UniqueID>  (41) 
37

>  <SMILES>  (41) 
COc1cc(/C=C/c2cc(Nc3ccccc3)c(=O)[n-]c2[O-])ccc1[O-]

>  <Energy>  (41) 
58.64832643205607

>  <Genealogy>  (41) 
COc1cc(C=Cc2cc(Nc3ccccc3)c(=O)[n-]c2[O-])ccc1[O-] (protonated)
COc1cc(/C=C/c2cc(Nc3ccccc3)c(=O)[n-]c2[O-])ccc1[O-] (cis-trans isomerization)
COc1cc(/C=C/c2cc(Nc3ccccc3)c(=O)[n-]c2[O-])ccc1[O-] (3D coordinates assigned)
COc1cc(/C=C/c2cc(Nc3ccccc3)c(=O)[n-]c2[O-])ccc1[O-] (optimized conformer: 58.64832643205607 kcal/mol)

>  <smiles>  (41) 
COc1cc(C=Cc2cc(Nc3ccccc3)c(=O)[nH]c2O)ccc1O

>  <score_type>  (41) 
oracle

>  <origin>  (41) 
adg

>  <m_score__min__energy>  (41) 
-16.010000000000002

>  <m_primary>  (41) 
energy

$$$$
41:0
     RDKit          3D

 57 59  0  0  0  0  0  0  0  0999 V2000
   58.2980   30.7430   45.8310 H   0  0  0  0  0  0  0  0  0  0  0  0
   58.7220   29.8750   45.5250 O   0  0  0  0  0  0  0  0  0  0  0  0
   58.3280   28.6430   46.0460 C   0  0  0  0  0  0  0  0  0  0  0  0
   57.0650   28.1190   45.7330 C   0  0  0  0  0  0  0  0  0  0  0  0
   56.3942   28.6747   45.0613 H   0  0  0  0  0  0  0  0  0  0  0  0
   56.6500   26.8860   46.2730 C   0  0  0  0  0  0  0  0  0  0  0  0
   55.3980   26.3220   45.9890 O   0  0  0  0  0  0  0  0  0  0  0  0
   55.1920   24.9580   45.6330 C   0  0  0  0  0  0  0  0  0  0  0  0
   55.1003   24.3507   46.5456 H   0  0  0  0  0  0  0  0  0  0  0  0
   54.2703   24.8692   45.0393 H   0  0  0  0  0  0  0  0  0  0  0  0
   56.0464   24.6009   45.0393 H   0  0  0  0  0  0  0  0  0  0  0  0
   57.5110   26.1920   47.1320 C   0  0  0  0  0  0  0  0  0  0  0  0
   57.1930   25.2319   47.5645 H   0  0  0  0  0  0  0  0  0  0  0  0
   58.7700   26.7090   47.4440 C   0  0  0  0  0  0  0  0  0  0  0  0
   59.4347   26.1573   48.1250 H   0  0  0  0  0  0  0  0  0  0  0  0
   59.1910   27.9270   46.8940 C   0  0  0  0  0  0  0  0  0  0  0  0
   60.5240   28.4510   47.2370 C   0  0  0  0  0  0  0  0  0  0  0  0
   61.3878   27.7768   47.1407 H   0  0  0  0  0  0  0  0  0  0  0  0
   60.7430   29.7040   47.6600 C   0  0  0  0  0  0  0  0  0  0  0  0
   61.6031   30.2470   47.2413 H   0  0  0  0  0  0  0  0  0  0  0  0
   59.8810   30.4170   48.6770 C   0  0  0  0  0  0  0  0  0  0  0  0
   58.8288   30.1593   48.4858 H   0  0  0  0  0  0  0  0  0  0  0  0
   60.2117   30.0892   49.6736 H   0  0  0  0  0  0  0  0  0  0  0  0
   60.0210   31.8890   48.6290 N   0  0  0  0  0  0  0  0  0  0  0  0
   58.7720   32.6560   48.8180 C   0  0  0  0  0  0  0  0  0  0  0  0
   58.0973   32.0703   49.4597 H   0  0  0  0  0  0  0  0  0  0  0  0
   59.0486   33.6185   49.2730 H   0  0  0  0  0  0  0  0  0  0  0  0
   58.0380   32.9720   47.4960 C   0  0  0  0  0  0  0  0  0  0  0  0
   57.1676   32.3052   47.4080 H   0  0  0  0  0  0  0  0  0  0  0  0
   57.7370   34.0296   47.5263 H   0  0  0  0  0  0  0  0  0  0  0  0
   58.9000   32.7850   46.3090 N   0  0  0  0  0  0  0  0  0  0  0  0
   58.3070   33.4100   45.1100 C   0  0  0  0  0  0  0  0  0  0  0  0
   57.6017   34.1946   45.4214 H   0  0  0  0  0  0  0  0  0  0  0  0
   59.1116   33.8460   44.4997 H   0  0  0  0  0  0  0  0  0  0  0  0
   57.5780   32.3860   44.2940 C   0  0  0  0  0  0  0  0  0  0  0  0
   56.6200   31.5770   44.7770 N   0  0  0  0  0  0  0  0  0  0  0  0
   56.2870   30.8170   43.7130 C   0  0  0  0  0  0  0  0  0  0  0  0
   55.2820   29.7170   43.7840 C   0  0  0  0  0  0  0  0  0  0  0  0
   55.0683   29.4831   44.8374 H   0  0  0  0  0  0  0  0  0  0  0  0
   54.3552   30.0342   43.2835 H   0  0  0  0  0  0  0  0  0  0  0  0
   55.6814   28.8226   43.2835 H   0  0  0  0  0  0  0  0  0  0  0  0
   57.0040   31.0860   42.5990 N   0  0  0  0  0  0  0  0  0  0  0  0
   57.8170   32.0880   42.9730 C   0  0  0  0  0  0  0  0  0  0  0  0
   58.5539   32.5885   42.3276 H   0  0  0  0  0  0  0  0  0  0  0  0
   60.2430   33.3190   46.5720 C   0  0  0  0  0  0  0  0  0  0  0  0
   60.8201   33.3439   45.6359 H   0  0  0  0  0  0  0  0  0  0  0  0
   60.1655   34.3397   46.9747 H   0  0  0  0  0  0  0  0  0  0  0  0
   60.9540   32.4060   47.5950 C   0  0  1  0  0  0  0  0  0  0  0  0
   61.3482   31.5619   47.0102 H   0  0  0  0  0  0  0  0  0  0  0  0
   62.1220   33.1250   48.3010 C   0  0  0  0  0  0  0  0  0  0  0  0
   61.7364   34.0468   48.7609 H   0  0  0  0  0  0  0  0  0  0  0  0
   62.5294   32.4258   49.0461 H   0  0  0  0  0  0  0  0  0  0  0  0
   63.2720   33.4980   47.3560 C   0  0  0  0  0  0  0  0  0  0  0  0
   62.8903   34.1582   46.5633 H   0  0  0  0  0  0  0  0  0  0  0  0
   64.0548   34.0132   47.9320 H   0  0  0  0  0  0  0  0  0  0  0  0
   63.8180   32.3470   46.7750 O   0  0  0  0  0  0  0  0  0  0  0  0
   64.7830   32.3520   47.0120 H   0  0  0  0  0  0  0  0  0  0  0  0
  1  2  1  0
  2  3  1  0
  3  4  2  0
  4  5  1  0
  4  6  1  0
  6  7  1  0
  7  8  1  0
  8  9  1  0
  8 10  1  0
  8 11  1  0
  6 12  2  0
 12 13  1  0
 12 14  1  0
 14 15  1  0
 14 16  2  0
 16 17  1  0
 17 18  1  0
 17 19  2  0
 19 20  1  0
 19 21  1  0
 21 22  1  0
 21 23  1  0
 21 24  1  0
 24 25  1  0
 25 26  1  0
 25 27  1  0
 25 28  1  0
 28 29  1  0
 28 30  1  0
 28 31  1  0
 31 32  1  0
 32 33  1  0
 32 34  1  0
 32 35  1  0
 35 36  1  0
 36 37  2  0
 37 38  1  0
 38 39  1  0
 38 40  1  0
 38 41  1  0
 37 42  1  0
 42 43  1  0
 43 44  1  0
 31 45  1  0
 45 46  1  0
 45 47  1  0
 45 48  1  0
 48 49  1  6
 48 50  1  0
 50 51  1  0
 50 52  1  0
 50 53  1  0
 53 54  1  0
 53 55  1  0
 53 56  1  0
 56 57  1  0
 16  3  1  0
 48 24  1  0
 43 35  2  0
M  CHG  1  42  -1
M  END
>  <UniqueID>  (42) 
38

>  <SMILES>  (42) 
COc1ccc(/C=C\CN2CCN(Cc3c[n-]c(C)n3)C[C@H]2CCO)c(O)c1

>  <Energy>  (42) 
101.53595288674958

>  <Genealogy>  (42) 
COc1ccc(C=CCN2CCN(Cc3c[n-]c(C)n3)CC2CCO)c(O)c1 (protonated)
COc1ccc(C=CCN2CCN(Cc3c[n-]c(C)n3)C[C@H]2CCO)c(O)c1 (chirality)
COc1ccc(/C=C\CN2CCN(Cc3c[n-]c(C)n3)C[C@H]2CCO)c(O)c1 (cis-trans isomerization)
COc1ccc(/C=C\CN2CCN(Cc3c[n-]c(C)n3)C[C@H]2CCO)c(O)c1 (3D coordinates assigned)
COc1ccc(/C=C\CN2CCN(Cc3c[n-]c(C)n3)C[C@H]2CCO)c(O)c1 (nonaromatic ring conformer: 101.53595288674958 kcal/mol)

>  <smiles>  (42) 
COc1ccc(C=CCN2CCN(Cc3c[nH]c(C)n3)CC2CCO)c(O)c1

>  <score_type>  (42) 
oracle

>  <origin>  (42) 
adg

>  <m_score__min__energy>  (42) 
-11.07

>  <m_primary>  (42) 
energy

$$$$
42:0
     RDKit          3D

 57 60  0  0  0  0  0  0  0  0999 V2000
   57.4920   30.5730   43.1050 O   0  0  0  0  0  0  0  0  0  0  0  0
   56.9100   30.3400   44.1960 C   0  0  0  0  0  0  0  0  0  0  0  0
   56.5620   28.9130   44.5430 C   0  0  0  0  0  0  0  0  0  0  0  0
   57.5620   28.3080   45.4310 N   0  0  0  0  0  0  0  0  0  0  0  0
   58.7910   28.8150   45.6610 C   0  0  0  0  0  0  0  0  0  0  0  0
   59.4980   27.9870   46.5060 C   0  0  0  0  0  0  0  0  0  0  0  0
   58.6630   26.9350   46.8190 C   0  0  0  0  0  0  0  0  0  0  0  0
   57.4710   27.1640   46.1550 C   0  0  0  0  0  0  0  0  0  0  0  0
   56.2900   26.2830   46.2480 C   0  0  0  0  0  0  0  0  0  0  0  0
   55.1390   26.7280   45.9920 O   0  0  0  0  0  0  0  0  0  0  0  0
   56.4560   24.9340   46.7030 N   0  0  0  0  0  0  0  0  0  0  0  0
   56.7950   23.7960   45.8940 C   0  0  0  0  0  0  0  0  0  0  0  0
   58.1370   23.3880   45.7650 C   0  0  0  0  0  0  0  0  0  0  0  0
   58.4690   22.2700   45.0020 C   0  0  0  0  0  0  0  0  0  0  0  0
   57.4710   21.5330   44.3700 C   0  0  0  0  0  0  0  0  0  0  0  0
   56.1330   21.9050   44.5070 C   0  0  0  0  0  0  0  0  0  0  0  0
   55.7720   23.0320   45.2720 C   0  0  0  0  0  0  0  0  0  0  0  0
   54.3300   23.3820   45.3900 C   0  0  0  0  0  0  0  0  0  0  0  0
   53.4330   22.6210   44.9410 O   0  0  0  0  0  0  0  0  0  0  0  0
   53.9470   24.5680   46.0070 O   0  0  0  0  0  0  0  0  0  0  0  0
   56.6440   31.4360   45.0810 N   0  0  0  0  0  0  0  0  0  0  0  0
   57.5820   32.4440   45.4770 C   0  0  0  0  0  0  0  0  0  0  0  0
   57.9530   33.4310   44.5570 C   0  0  0  0  0  0  0  0  0  0  0  0
   58.8700   34.4210   44.9200 C   0  0  0  0  0  0  0  0  0  0  0  0
   59.4110   34.4380   46.2070 C   0  0  0  0  0  0  0  0  0  0  0  0
   59.0280   33.4690   47.1440 C   0  0  0  0  0  0  0  0  0  0  0  0
   59.6940   33.5090   48.7750 S   0  0  0  0  0  0  0  0  0  0  0  0
   59.7380   34.9290   49.2710 O   0  0  0  0  0  0  0  0  0  0  0  0
   58.8000   32.7130   49.6830 O   0  0  0  0  0  0  0  0  0  0  0  0
   61.3000   32.8220   48.7820 N   0  0  0  0  0  0  0  0  0  0  0  0
   61.3820   31.7210   47.8040 C   0  0  0  0  0  0  0  0  0  0  0  0
   62.8440   31.4490   47.4160 C   0  0  0  0  0  0  0  0  0  0  0  0
   63.5080   32.5630   46.8280 O   0  0  0  0  0  0  0  0  0  0  0  0
   62.9150   33.8140   47.1410 C   0  0  0  0  0  0  0  0  0  0  0  0
   62.3270   33.8670   48.5630 C   0  0  0  0  0  0  0  0  0  0  0  0
   58.0970   32.4850   46.7820 C   0  0  0  0  0  0  0  0  0  0  0  0
   55.5837   28.8973   45.0456 H   0  0  0  0  0  0  0  0  0  0  0  0
   56.5368   28.3309   43.6100 H   0  0  0  0  0  0  0  0  0  0  0  0
   59.1737   29.7543   45.2352 H   0  0  0  0  0  0  0  0  0  0  0  0
   60.5282   28.1362   46.8617 H   0  0  0  0  0  0  0  0  0  0  0  0
   58.8988   26.0802   47.4699 H   0  0  0  0  0  0  0  0  0  0  0  0
   58.9305   23.9572   46.2713 H   0  0  0  0  0  0  0  0  0  0  0  0
   59.5220   21.9691   44.8988 H   0  0  0  0  0  0  0  0  0  0  0  0
   57.7376   20.6561   43.7617 H   0  0  0  0  0  0  0  0  0  0  0  0
   55.3506   21.3112   44.0118 H   0  0  0  0  0  0  0  0  0  0  0  0
   57.5216   33.4275   43.5451 H   0  0  0  0  0  0  0  0  0  0  0  0
   59.1663   35.1887   44.1900 H   0  0  0  0  0  0  0  0  0  0  0  0
   60.1394   35.2136   46.4860 H   0  0  0  0  0  0  0  0  0  0  0  0
   60.9504   30.8113   48.2469 H   0  0  0  0  0  0  0  0  0  0  0  0
   60.8230   32.0070   46.9008 H   0  0  0  0  0  0  0  0  0  0  0  0
   63.3938   31.1592   48.3236 H   0  0  0  0  0  0  0  0  0  0  0  0
   62.8271   30.6536   46.6563 H   0  0  0  0  0  0  0  0  0  0  0  0
   63.6822   34.5971   47.0504 H   0  0  0  0  0  0  0  0  0  0  0  0
   62.0835   33.9671   46.4373 H   0  0  0  0  0  0  0  0  0  0  0  0
   63.1408   33.7218   49.2887 H   0  0  0  0  0  0  0  0  0  0  0  0
   61.8452   34.8472   48.6934 H   0  0  0  0  0  0  0  0  0  0  0  0
   57.7689   31.7421   47.5239 H   0  0  0  0  0  0  0  0  0  0  0  0
  1  2  2  0
  2  3  1  0
  3  4  1  0
  4  5  1  0
  5  6  2  0
  6  7  1  0
  7  8  2  0
  8  9  1  0
  9 10  2  0
  9 11  1  0
 11 12  1  0
 12 13  2  0
 13 14  1  0
 14 15  2  0
 15 16  1  0
 16 17  2  0
 17 18  1  0
 18 19  2  0
 18 20  1  0
  2 21  1  0
 21 22  1  0
 22 23  2  0
 23 24  1  0
 24 25  2  0
 25 26  1  0
 26 27  1  0
 27 28  2  0
 27 29  2  0
 27 30  1  0
 30 31  1  0
 31 32  1  0
 32 33  1  0
 33 34  1  0
 34 35  1  0
 26 36  2  0
  8  4  1  0
 17 12  1  0
 36 22  1  0
 35 30  1  0
  3 37  1  0
  3 38  1  0
  5 39  1  0
  6 40  1  0
  7 41  1  0
 13 42  1  0
 14 43  1  0
 15 44  1  0
 16 45  1  0
 23 46  1  0
 24 47  1  0
 25 48  1  0
 31 49  1  0
 31 50  1  0
 32 51  1  0
 32 52  1  0
 34 53  1  0
 34 54  1  0
 35 55  1  0
 35 56  1  0
 36 57  1  0
M  CHG  3  11  -1  20  -1  21  -1
M  END
>  <UniqueID>  (43) 
39

>  <SMILES>  (43) 
O=C(Cn1cccc1C(=O)[N-]c1ccccc1C(=O)[O-])[N-]c1cccc(S(=O)(=O)N2CCOCC2)c1

>  <Energy>  (43) 
107.7986564624515

>  <Genealogy>  (43) 
O=C(Cn1cccc1C(=O)[N-]c1ccccc1C(=O)[O-])[N-]c1cccc(S(=O)(=O)N2CCOCC2)c1 (protonated)
O=C(Cn1cccc1C(=O)[N-]c1ccccc1C(=O)[O-])[N-]c1cccc(S(=O)(=O)N2CCOCC2)c1 (3D coordinates assigned)
O=C(Cn1cccc1C(=O)[N-]c1ccccc1C(=O)[O-])[N-]c1cccc(S(=O)(=O)N2CCOCC2)c1 (nonaromatic ring conformer: 107.7986564624515 kcal/mol)

>  <smiles>  (43) 
O=C(Cn1cccc1C(=O)Nc1ccccc1C(=O)O)Nc1cccc(S(=O)(=O)N2CCOCC2)c1

>  <score_type>  (43) 
oracle

>  <origin>  (43) 
adg

>  <m_score__min__energy>  (43) 
-16.379999999999999

>  <m_primary>  (43) 
energy

$$$$
43:0
     RDKit          3D

 57 60  0  0  0  0  0  0  0  0999 V2000
   58.0810   26.7620   42.8480 O   0  0  0  0  0  0  0  0  0  0  0  0
   58.1850   27.8680   43.4510 C   0  0  0  0  0  0  0  0  0  0  0  0
   57.0540   28.8520   43.3690 C   0  0  0  0  0  0  0  0  0  0  0  0
   57.5280   30.1700   43.6380 O   0  0  0  0  0  0  0  0  0  0  0  0
   57.4220   30.7520   44.9060 C   0  0  0  0  0  0  0  0  0  0  0  0
   57.0310   30.0710   45.8950 O   0  0  0  0  0  0  0  0  0  0  0  0
   57.7980   32.1560   45.0970 C   0  0  0  0  0  0  0  0  0  0  0  0
   57.7000   32.8740   46.2780 C   0  0  0  0  0  0  0  0  0  0  0  0
   58.1420   34.2000   46.1590 C   0  0  0  0  0  0  0  0  0  0  0  0
   58.5810   34.5300   44.8820 C   0  0  0  0  0  0  0  0  0  0  0  0
   58.4270   33.1680   43.9080 S   0  0  0  0  0  0  0  0  0  0  0  0
   59.3950   28.1490   44.1640 N   0  0  0  0  0  0  0  0  0  0  0  0
   59.5160   28.5390   45.5390 C   0  0  0  0  0  0  0  0  0  0  0  0
   60.1170   29.7580   45.8920 C   0  0  0  0  0  0  0  0  0  0  0  0
   60.1210   30.1910   47.2270 C   0  0  0  0  0  0  0  0  0  0  0  0
   60.8630   31.7330   47.6720 S   0  0  0  0  0  0  0  0  0  0  0  0
   60.7900   32.6710   46.4990 O   0  0  0  0  0  0  0  0  0  0  0  0
   60.0650   32.3380   48.7920 O   0  0  0  0  0  0  0  0  0  0  0  0
   62.5340   31.5780   48.1760 N   0  0  0  0  0  0  0  0  0  0  0  0
   62.7800   32.1680   49.5010 C   0  0  0  0  0  0  0  0  0  0  0  0
   62.8810   33.7080   49.4480 C   0  0  0  0  0  0  0  0  0  0  0  0
   63.1080   34.2240   48.1460 O   0  0  0  0  0  0  0  0  0  0  0  0
   64.0640   33.4410   47.4680 C   0  0  0  0  0  0  0  0  0  0  0  0
   63.4960   32.0460   47.1530 C   0  0  0  0  0  0  0  0  0  0  0  0
   59.4930   29.4110   48.2060 C   0  0  0  0  0  0  0  0  0  0  0  0
   58.8920   28.1990   47.8620 C   0  0  0  0  0  0  0  0  0  0  0  0
   58.8920   27.7610   46.5330 C   0  0  0  0  0  0  0  0  0  0  0  0
   58.2530   26.5220   46.1950 N   0  0  0  0  0  0  0  0  0  0  0  0
   59.0980   25.3630   45.8920 C   0  0  0  0  0  0  0  0  0  0  0  0
   58.2580   24.1190   45.6490 C   0  0  0  0  0  0  0  0  0  0  0  0
   57.1620   24.4520   44.8340 O   0  0  0  0  0  0  0  0  0  0  0  0
   56.2130   25.1620   45.6030 C   0  0  0  0  0  0  0  0  0  0  0  0
   56.7840   26.4590   46.2230 C   0  0  0  0  0  0  0  0  0  0  0  0
   56.6182   28.8215   42.3595 H   0  0  0  0  0  0  0  0  0  0  0  0
   56.2912   28.5854   44.1153 H   0  0  0  0  0  0  0  0  0  0  0  0
   57.3141   32.4468   47.2154 H   0  0  0  0  0  0  0  0  0  0  0  0
   58.1413   34.9119   46.9976 H   0  0  0  0  0  0  0  0  0  0  0  0
   58.9627   35.5114   44.5640 H   0  0  0  0  0  0  0  0  0  0  0  0
   60.5885   30.3786   45.1158 H   0  0  0  0  0  0  0  0  0  0  0  0
   61.9526   31.8907   50.1707 H   0  0  0  0  0  0  0  0  0  0  0  0
   63.7417   31.7804   49.8683 H   0  0  0  0  0  0  0  0  0  0  0  0
   61.9394   34.1303   49.8288 H   0  0  0  0  0  0  0  0  0  0  0  0
   63.7492   33.9927   50.0605 H   0  0  0  0  0  0  0  0  0  0  0  0
   64.3389   33.9404   46.5272 H   0  0  0  0  0  0  0  0  0  0  0  0
   64.9494   33.3267   48.1107 H   0  0  0  0  0  0  0  0  0  0  0  0
   62.9841   32.0857   46.1802 H   0  0  0  0  0  0  0  0  0  0  0  0
   64.3384   31.3388   47.1401 H   0  0  0  0  0  0  0  0  0  0  0  0
   59.4732   29.7549   49.2507 H   0  0  0  0  0  0  0  0  0  0  0  0
   58.4156   27.5846   48.6402 H   0  0  0  0  0  0  0  0  0  0  0  0
   59.6912   25.5772   44.9907 H   0  0  0  0  0  0  0  0  0  0  0  0
   59.7557   25.1765   46.7537 H   0  0  0  0  0  0  0  0  0  0  0  0
   58.8698   23.3543   45.1481 H   0  0  0  0  0  0  0  0  0  0  0  0
   57.8968   23.7240   46.6100 H   0  0  0  0  0  0  0  0  0  0  0  0
   55.3649   25.4275   44.9548 H   0  0  0  0  0  0  0  0  0  0  0  0
   55.9074   24.5081   46.4330 H   0  0  0  0  0  0  0  0  0  0  0  0
   56.3874   27.3178   45.6617 H   0  0  0  0  0  0  0  0  0  0  0  0
   56.4783   26.4759   47.2795 H   0  0  0  0  0  0  0  0  0  0  0  0
  1  2  2  0
  2  3  1  0
  3  4  1  0
  4  5  1  0
  5  6  2  0
  5  7  1  0
  7  8  2  0
  8  9  1  0
  9 10  2  0
 10 11  1  0
  2 12  1  0
 12 13  1  0
 13 14  2  0
 14 15  1  0
 15 16  1  0
 16 17  2  0
 16 18  2  0
 16 19  1  0
 19 20  1  0
 20 21  1  0
 21 22  1  0
 22 23  1  0
 23 24  1  0
 15 25  2  0
 25 26  1  0
 26 27  2  0
 27 28  1  0
 28 29  1  0
 29 30  1  0
 30 31  1  0
 31 32  1  0
 32 33  1  0
 11  7  1  0
 27 13  1  0
 33 28  1  0
 24 19  1  0
  3 34  1  0
  3 35  1  0
  8 36  1  0
  9 37  1  0
 10 38  1  0
 14 39  1  0
 20 40  1  0
 20 41  1  0
 21 42  1  0
 21 43  1  0
 23 44  1  0
 23 45  1  0
 24 46  1  0
 24 47  1  0
 25 48  1  0
 26 49  1  0
 29 50  1  0
 29 51  1  0
 30 52  1  0
 30 53  1  0
 32 54  1  0
 32 55  1  0
 33 56  1  0
 33 57  1  0
M  CHG  1  12  -1
M  END
>  <UniqueID>  (44) 
40

>  <SMILES>  (44) 
O=C(COC(=O)c1cccs1)[N-]c1cc(S(=O)(=O)N2CCOCC2)ccc1N1CCOCC1

>  <Energy>  (44) 
103.48490809192008

>  <Genealogy>  (44) 
O=C(COC(=O)c1cccs1)[N-]c1cc(S(=O)(=O)N2CCOCC2)ccc1N1CCOCC1 (protonated)
O=C(COC(=O)c1cccs1)[N-]c1cc(S(=O)(=O)N2CCOCC2)ccc1N1CCOCC1 (3D coordinates assigned)
O=C(COC(=O)c1cccs1)[N-]c1cc(S(=O)(=O)N2CCOCC2)ccc1N1CCOCC1 (nonaromatic ring conformer: 103.48490809192008 kcal/mol)

>  <smiles>  (44) 
O=C(COC(=O)c1cccs1)Nc1cc(S(=O)(=O)N2CCOCC2)ccc1N1CCOCC1

>  <score_type>  (44) 
oracle

>  <origin>  (44) 
adg

>  <m_score__min__energy>  (44) 
-10.18

>  <m_primary>  (44) 
energy

$$$$
44:0
     RDKit          3D

 78 82  0  0  0  0  0  0  0  0999 V2000
   59.0910   31.1870   50.2840 H   0  0  0  0  0  0  0  0  0  0  0  0
   58.6460   32.0290   49.9350 O   0  0  0  0  0  0  0  0  0  0  0  0
   59.1170   32.7040   48.8090 C   0  0  0  0  0  0  0  0  0  0  0  0
   58.7200   32.2700   47.5390 C   0  0  0  0  0  0  0  0  0  0  0  0
   58.0413   31.4096   47.4445 H   0  0  0  0  0  0  0  0  0  0  0  0
   59.1810   32.9240   46.3830 C   0  0  0  0  0  0  0  0  0  0  0  0
   58.7130   32.4770   45.0230 C   0  0  0  0  0  0  0  0  0  0  0  0
   58.9925   31.4232   44.8765 H   0  0  0  0  0  0  0  0  0  0  0  0
   59.1900   33.1154   44.2648 H   0  0  0  0  0  0  0  0  0  0  0  0
   57.2180   32.6120   44.8860 C   0  0  0  0  0  0  0  0  0  0  0  0
   56.6510   33.6620   45.2960 O   0  0  0  0  0  0  0  0  0  0  0  0
   56.3990   31.5060   44.4880 N   0  0  0  0  0  0  0  0  0  0  0  0
   56.6650   30.2460   44.6690 C   0  0  0  0  0  0  0  0  0  0  0  0
   55.7580   29.3890   45.1850 N   0  0  0  0  0  0  0  0  0  0  0  0
   56.1990   28.1340   45.2490 N   0  0  0  0  0  0  0  0  0  0  0  0
   57.4590   27.9850   44.7830 C   0  0  0  0  0  0  0  0  0  0  0  0
   58.1620   26.6670   44.7090 C   0  0  0  0  0  0  0  0  0  0  0  0
   57.4515   25.8971   44.3736 H   0  0  0  0  0  0  0  0  0  0  0  0
   58.9972   26.7510   43.9981 H   0  0  0  0  0  0  0  0  0  0  0  0
   58.7190   26.2740   46.0780 C   0  0  0  0  0  0  0  0  0  0  0  0
   58.1662   26.8124   46.8619 H   0  0  0  0  0  0  0  0  0  0  0  0
   58.6039   25.1881   46.2107 H   0  0  0  0  0  0  0  0  0  0  0  0
   60.4930   26.6990   46.1930 S   0  0  0  0  0  0  0  0  0  0  0  0
   60.2330   28.4900   46.4450 C   0  0  0  0  0  0  0  0  0  0  0  0
   61.1575   28.9410   46.8348 H   0  0  0  0  0  0  0  0  0  0  0  0
   59.9674   28.9549   45.4841 H   0  0  0  0  0  0  0  0  0  0  0  0
   59.1000   28.7180   47.4420 C   0  0  0  0  0  0  0  0  0  0  0  0
   58.6569   29.7096   47.2680 H   0  0  0  0  0  0  0  0  0  0  0  0
   58.3378   27.9369   47.3043 H   0  0  0  0  0  0  0  0  0  0  0  0
   59.6220   28.6490   48.8400 C   0  0  0  0  0  0  0  0  0  0  0  0
   59.3590   29.5830   49.7840 N   0  0  0  0  0  0  0  0  0  0  0  0
   60.0100   29.3720   50.9280 N   0  0  0  0  0  0  0  0  0  0  0  0
   60.7950   28.2720   50.8920 C   0  0  0  0  0  0  0  0  0  0  0  0
   61.5700   27.8880   51.8600 N   0  0  0  0  0  0  0  0  0  0  0  0
   62.6060   28.6680   52.4750 C   0  0  0  0  0  0  0  0  0  0  0  0
   63.7560   28.6560   51.9600 O   0  0  0  0  0  0  0  0  0  0  0  0
   62.3940   29.4150   53.7640 C   0  0  0  0  0  0  0  0  0  0  0  0
   61.7005   28.8490   54.4033 H   0  0  0  0  0  0  0  0  0  0  0  0
   63.3604   29.5338   54.2759 H   0  0  0  0  0  0  0  0  0  0  0  0
   61.8140   30.7750   53.4810 C   0  0  0  0  0  0  0  0  0  0  0  0
   60.4350   30.9980   53.6040 C   0  0  0  0  0  0  0  0  0  0  0  0
   59.7791   30.1928   53.9666 H   0  0  0  0  0  0  0  0  0  0  0  0
   59.8920   32.2410   53.2670 C   0  0  0  0  0  0  0  0  0  0  0  0
   58.8092   32.4100   53.3621 H   0  0  0  0  0  0  0  0  0  0  0  0
   60.7190   33.2690   52.8100 C   0  0  0  0  0  0  0  0  0  0  0  0
   60.2831   34.2400   52.5323 H   0  0  0  0  0  0  0  0  0  0  0  0
   62.1090   33.0680   52.7030 C   0  0  0  0  0  0  0  0  0  0  0  0
   62.9960   34.0660   52.2670 O   0  0  0  0  0  0  0  0  0  0  0  0
   63.4620   34.2540   50.9280 C   0  0  0  0  0  0  0  0  0  0  0  0
   62.5992   34.2701   50.2459 H   0  0  0  0  0  0  0  0  0  0  0  0
   64.0105   35.2062   50.8786 H   0  0  0  0  0  0  0  0  0  0  0  0
   64.4100   33.1220   50.5110 C   0  0  0  0  0  0  0  0  0  0  0  0
   65.4165   33.5366   50.3524 H   0  0  0  0  0  0  0  0  0  0  0  0
   64.4243   32.3664   51.3103 H   0  0  0  0  0  0  0  0  0  0  0  0
   63.9520   32.4760   49.2630 N   0  0  0  0  0  0  0  0  0  0  0  0
   63.6940   33.4670   48.2010 C   0  0  0  0  0  0  0  0  0  0  0  0
   62.8604   34.1183   48.5025 H   0  0  0  0  0  0  0  0  0  0  0  0
   64.5966   34.0750   48.0412 H   0  0  0  0  0  0  0  0  0  0  0  0
   63.3280   32.7370   46.8900 C   0  0  0  0  0  0  0  0  0  0  0  0
   62.4518   33.2308   46.4445 H   0  0  0  0  0  0  0  0  0  0  0  0
   64.2030   32.7867   46.2252 H   0  0  0  0  0  0  0  0  0  0  0  0
   63.0220   31.3680   47.0960 O   0  0  0  0  0  0  0  0  0  0  0  0
   62.0990   31.2310   48.1580 C   0  0  0  0  0  0  0  0  0  0  0  0
   61.2180   31.8571   47.9532 H   0  0  0  0  0  0  0  0  0  0  0  0
   61.8069   30.1735   48.2373 H   0  0  0  0  0  0  0  0  0  0  0  0
   62.7330   31.6710   49.4950 C   0  0  0  0  0  0  0  0  0  0  0  0
   62.0050   32.2742   50.0573 H   0  0  0  0  0  0  0  0  0  0  0  0
   63.0096   30.7717   50.0649 H   0  0  0  0  0  0  0  0  0  0  0  0
   62.6430   31.8130   53.0230 C   0  0  0  0  0  0  0  0  0  0  0  0
   63.7236   31.6382   52.9145 H   0  0  0  0  0  0  0  0  0  0  0  0
   60.7330   27.5060   49.3950 S   0  0  0  0  0  0  0  0  0  0  0  0
   58.0900   29.4500   44.2330 S   0  0  0  0  0  0  0  0  0  0  0  0
   60.0380   34.0280   46.5160 C   0  0  0  0  0  0  0  0  0  0  0  0
   60.3987   34.5523   45.6187 H   0  0  0  0  0  0  0  0  0  0  0  0
   60.4350   34.4640   47.7830 C   0  0  0  0  0  0  0  0  0  0  0  0
   61.1110   35.3265   47.8782 H   0  0  0  0  0  0  0  0  0  0  0  0
   59.9770   33.8090   48.9300 C   0  0  0  0  0  0  0  0  0  0  0  0
   60.3780   34.2590   50.1840 O   0  0  0  0  0  0  0  0  0  0  0  0
  1  2  1  0
  2  3  1  0
  3  4  2  0
  4  5  1  0
  4  6  1  0
  6  7  1  0
  7  8  1  0
  7  9  1  0
  7 10  1  0
 10 11  2  0
 10 12  1  0
 12 13  2  3
 13 14  1  0
 14 15  1  0
 15 16  2  0
 16 17  1  0
 17 18  1  0
 17 19  1  0
 17 20  1  0
 20 21  1  0
 20 22  1  0
 20 23  1  0
 23 24  1  0
 24 25  1  0
 24 26  1  0
 24 27  1  0
 27 28  1  0
 27 29  1  0
 27 30  1  0
 30 31  2  0
 31 32  1  0
 32 33  1  0
 33 34  2  0
 34 35  1  0
 35 36  2  0
 35 37  1  0
 37 38  1  0
 37 39  1  0
 37 40  1  0
 40 41  2  0
 41 42  1  0
 41 43  1  0
 43 44  1  0
 43 45  2  0
 45 46  1  0
 45 47  1  0
 47 48  1  0
 48 49  1  0
 49 50  1  0
 49 51  1  0
 49 52  1  0
 52 53  1  0
 52 54  1  0
 52 55  1  0
 55 56  1  0
 56 57  1  0
 56 58  1  0
 56 59  1  0
 59 60  1  0
 59 61  1  0
 59 62  1  0
 62 63  1  0
 63 64  1  0
 63 65  1  0
 63 66  1  0
 66 67  1  0
 66 68  1  0
 47 69  2  0
 69 70  1  0
 33 71  1  0
 16 72  1  0
  6 73  2  0
 73 74  1  0
 73 75  1  0
 75 76  1  0
 75 77  2  0
 77 78  1  0
 77  3  1  0
 72 13  1  0
 71 30  1  0
 69 40  1  0
 66 55  1  0
M  CHG  3  14  -1  32  -1  78  -1
M  END
>  <UniqueID>  (45) 
41

>  <SMILES>  (45) 
O=C(Cc1ccc([O-])c(O)c1)N=c1[n-]nc(CCSCCc2n[n-]/c(=N\C(=O)Cc3cccc(OCCN4CCOCC4)c3)s2)s1

>  <Energy>  (45) 
161.2031441607042

>  <Genealogy>  (45) 
O=C(Cc1cccc(OCCN2CCOCC2)c1)N=c1[n-]nc(CCSCCc2n[n-]c(=NC(=O)Cc3ccc([O-])c(O)c3)s2)s1 (protonated)
O=C(Cc1ccc([O-])c(O)c1)N=c1[n-]nc(CCSCCc2n[n-]/c(=N\C(=O)Cc3cccc(OCCN4CCOCC4)c3)s2)s1 (cis-trans isomerization)
O=C(Cc1ccc([O-])c(O)c1)N=c1[n-]nc(CCSCCc2n[n-]/c(=N\C(=O)Cc3cccc(OCCN4CCOCC4)c3)s2)s1 (3D coordinates assigned)
O=C(Cc1ccc([O-])c(O)c1)N=c1[n-]nc(CCSCCc2n[n-]/c(=N\C(=O)Cc3cccc(OCCN4CCOCC4)c3)s2)s1 (nonaromatic ring conformer: 161.2031441607042 kcal/mol)

>  <smiles>  (45) 
O=C(Cc1cccc(OCCN2CCOCC2)c1)N=c1[nH]nc(CCSCCc2n[nH]c(=NC(=O)Cc3ccc(O)c(O)c3)s2)s1

>  <score_type>  (45) 
oracle

>  <origin>  (45) 
adg

>  <m_score__min__energy>  (45) 
-20.300000000000001

>  <m_primary>  (45) 
energy

$$$$
45:0
     RDKit          3D

 38 40  0  0  0  0  0  0  0  0999 V2000
   55.9894   29.9865   42.9023 H   0  0  0  0  0  0  0  0  0  0  0  0
   56.5660   30.8230   43.3240 C   0  0  0  0  0  0  0  0  0  0  0  0
   56.4640   31.1960   44.6280 N   0  0  0  0  0  0  0  0  0  0  0  0
   57.2680   32.2460   44.9060 C   0  0  0  0  0  0  0  0  0  0  0  0
   57.3620   32.8090   46.0730 N   0  0  0  0  0  0  0  0  0  0  0  0
   58.5080   32.7760   46.9380 C   0  0  0  0  0  0  0  0  0  0  0  0
   59.3100   33.7460   46.9970 O   0  0  0  0  0  0  0  0  0  0  0  0
   58.7640   31.5570   47.7670 C   0  0  0  0  0  0  0  0  0  0  0  0
   57.8713   30.9145   47.7491 H   0  0  0  0  0  0  0  0  0  0  0  0
   58.9884   31.8713   48.7970 H   0  0  0  0  0  0  0  0  0  0  0  0
   60.1890   30.6200   47.1170 S   0  0  0  0  0  0  0  0  0  0  0  0
   59.2130   29.2150   46.5870 C   0  0  0  0  0  0  0  0  0  0  0  0
   59.7450   27.9670   46.6240 N   0  0  0  0  0  0  0  0  0  0  0  0
   59.0280   26.8870   46.2220 C   0  0  0  0  0  0  0  0  0  0  0  0
   59.5720   25.7520   46.2310 O   0  0  0  0  0  0  0  0  0  0  0  0
   57.7030   27.0500   45.7760 C   0  0  0  0  0  0  0  0  0  0  0  0
   56.9020   25.9420   45.3350 N   0  0  0  0  0  0  0  0  0  0  0  0
   55.6810   25.4880   45.9360 C   0  0  0  0  0  0  0  0  0  0  0  0
   54.6990   26.2770   45.9710 O   0  0  0  0  0  0  0  0  0  0  0  0
   55.5670   24.1490   46.5640 C   0  0  0  0  0  0  0  0  0  0  0  0
   56.4210   23.7860   47.6200 C   0  0  0  0  0  0  0  0  0  0  0  0
   57.1786   24.4980   47.9792 H   0  0  0  0  0  0  0  0  0  0  0  0
   56.3140   22.5260   48.2170 C   0  0  0  0  0  0  0  0  0  0  0  0
   56.9917   22.2479   49.0376 H   0  0  0  0  0  0  0  0  0  0  0  0
   55.3480   21.6200   47.7730 C   0  0  0  0  0  0  0  0  0  0  0  0
   55.2668   20.6281   48.2416 H   0  0  0  0  0  0  0  0  0  0  0  0
   54.4850   21.9750   46.7330 C   0  0  0  0  0  0  0  0  0  0  0  0
   53.7225   21.2620   46.3862 H   0  0  0  0  0  0  0  0  0  0  0  0
   54.5870   23.2340   46.1310 C   0  0  0  0  0  0  0  0  0  0  0  0
   53.7460   23.5440   45.1110 F   0  0  0  0  0  0  0  0  0  0  0  0
   57.1850   28.3570   45.7190 C   0  0  0  0  0  0  0  0  0  0  0  0
   55.8580   28.6070   45.2480 N   0  0  0  0  0  0  0  0  0  0  0  0
   55.4730   29.5780   45.2680 H   0  0  0  0  0  0  0  0  0  0  0  0
   55.2520   27.8420   44.8790 H   0  0  0  0  0  0  0  0  0  0  0  0
   57.9480   29.4010   46.1340 N   0  0  0  0  0  0  0  0  0  0  0  0
   58.1310   32.7530   43.5600 S   0  0  0  0  0  0  0  0  0  0  0  0
   57.4530   31.5770   42.5630 C   0  0  0  0  0  0  0  0  0  0  0  0
   57.6734   31.4307   41.4953 H   0  0  0  0  0  0  0  0  0  0  0  0
  1  2  1  0
  2  3  1  0
  3  4  1  0
  4  5  2  0
  5  6  1  0
  6  7  2  0
  6  8  1  0
  8  9  1  0
  8 10  1  0
  8 11  1  0
 11 12  1  0
 12 13  2  0
 13 14  1  0
 14 15  2  0
 14 16  1  0
 16 17  1  0
 17 18  1  0
 18 19  2  0
 18 20  1  0
 20 21  2  0
 21 22  1  0
 21 23  1  0
 23 24  1  0
 23 25  2  0
 25 26  1  0
 25 27  1  0
 27 28  1  0
 27 29  2  0
 29 30  1  0
 16 31  2  0
 31 32  1  0
 32 33  1  0
 32 34  1  0
 31 35  1  0
  4 36  1  0
 36 37  1  0
 37 38  1  0
 37  2  2  0
 35 12  1  0
 29 20  1  0
M  CHG  3   3  -1  17  -1  35  -1
M  END
>  <UniqueID>  (46) 
42

>  <SMILES>  (46) 
Nc1[n-]c(SCC(=O)/N=c2\[n-]ccs2)nc(=O)c1[N-]C(=O)c1ccccc1F

>  <Energy>  (46) 
77.58901332116993

>  <Genealogy>  (46) 
Nc1[n-]c(SCC(=O)N=c2[n-]ccs2)nc(=O)c1[N-]C(=O)c1ccccc1F (protonated)
Nc1[n-]c(SCC(=O)/N=c2\[n-]ccs2)nc(=O)c1[N-]C(=O)c1ccccc1F (cis-trans isomerization)
Nc1[n-]c(SCC(=O)/N=c2\[n-]ccs2)nc(=O)c1[N-]C(=O)c1ccccc1F (3D coordinates assigned)
Nc1[n-]c(SCC(=O)/N=c2\[n-]ccs2)nc(=O)c1[N-]C(=O)c1ccccc1F (optimized conformer: 77.58901332116993 kcal/mol)

>  <smiles>  (46) 
Nc1[nH]c(SCC(=O)N=c2[nH]ccs2)nc(=O)c1NC(=O)c1ccccc1F

>  <score_type>  (46) 
oracle

>  <origin>  (46) 
adg

>  <m_score__min__energy>  (46) 
-13.25

>  <m_primary>  (46) 
energy

$$$$
46:0
     RDKit          3D

 41 43  0  0  0  0  0  0  0  0999 V2000
   57.1690   20.3050   44.8830 N   0  0  0  0  0  0  0  0  0  0  0  0
   57.2460   21.4850   43.6210 S   0  0  0  0  0  0  0  0  0  0  0  0
   55.9130   21.5690   42.9320 O   0  0  0  0  0  0  0  0  0  0  0  0
   58.2850   21.0800   42.6130 O   0  0  0  0  0  0  0  0  0  0  0  0
   57.6630   23.0510   44.3080 C   0  0  0  0  0  0  0  0  0  0  0  0
   58.5080   23.1260   45.4230 C   0  0  0  0  0  0  0  0  0  0  0  0
   58.8330   24.3670   45.9780 C   0  0  0  0  0  0  0  0  0  0  0  0
   58.3050   25.5460   45.4310 C   0  0  0  0  0  0  0  0  0  0  0  0
   58.6840   26.8860   46.0030 C   0  0  0  0  0  0  0  0  0  0  0  0
   57.7560   27.9470   45.4910 C   0  0  0  0  0  0  0  0  0  0  0  0
   58.2480   29.0750   44.8270 C   0  0  0  0  0  0  0  0  0  0  0  0
   57.3540   30.0270   44.3250 C   0  0  0  0  0  0  0  0  0  0  0  0
   57.8810   31.2660   43.6440 C   0  0  0  0  0  0  0  0  0  0  0  0
   58.0820   32.3690   44.6480 C   0  0  0  0  0  0  0  0  0  0  0  0
   58.6180   33.6040   44.2450 C   0  0  0  0  0  0  0  0  0  0  0  0
   58.8370   34.6170   45.1830 C   0  0  0  0  0  0  0  0  0  0  0  0
   58.5300   34.4030   46.5290 C   0  0  0  0  0  0  0  0  0  0  0  0
   58.0060   33.1760   46.9400 C   0  0  0  0  0  0  0  0  0  0  0  0
   57.7860   32.1590   46.0050 C   0  0  0  0  0  0  0  0  0  0  0  0
   55.9770   29.8170   44.5160 C   0  0  0  0  0  0  0  0  0  0  0  0
   55.1300   30.6510   44.1000 O   0  0  0  0  0  0  0  0  0  0  0  0
   55.5530   28.6980   45.1570 N   0  0  0  0  0  0  0  0  0  0  0  0
   56.4130   27.7910   45.6250 N   0  0  0  0  0  0  0  0  0  0  0  0
   57.4610   25.4690   44.3120 C   0  0  0  0  0  0  0  0  0  0  0  0
   57.1380   24.2270   43.7580 C   0  0  0  0  0  0  0  0  0  0  0  0
   56.8900   19.4020   44.4400 H   0  0  0  0  0  0  0  0  0  0  0  0
   58.1410   20.1780   45.2420 H   0  0  0  0  0  0  0  0  0  0  0  0
   58.9172   22.2048   45.8633 H   0  0  0  0  0  0  0  0  0  0  0  0
   59.5054   24.4194   46.8470 H   0  0  0  0  0  0  0  0  0  0  0  0
   58.6189   26.8446   47.1003 H   0  0  0  0  0  0  0  0  0  0  0  0
   59.7123   27.1296   45.6975 H   0  0  0  0  0  0  0  0  0  0  0  0
   59.3319   29.2131   44.7000 H   0  0  0  0  0  0  0  0  0  0  0  0
   58.8424   31.0342   43.1624 H   0  0  0  0  0  0  0  0  0  0  0  0
   57.1518   31.5973   42.8900 H   0  0  0  0  0  0  0  0  0  0  0  0
   58.8662   33.7742   43.1870 H   0  0  0  0  0  0  0  0  0  0  0  0
   59.2515   35.5837   44.8610 H   0  0  0  0  0  0  0  0  0  0  0  0
   58.7013   35.2019   47.2655 H   0  0  0  0  0  0  0  0  0  0  0  0
   57.7658   33.0087   48.0003 H   0  0  0  0  0  0  0  0  0  0  0  0
   57.3796   31.1911   46.3337 H   0  0  0  0  0  0  0  0  0  0  0  0
   57.0523   26.3894   43.8695 H   0  0  0  0  0  0  0  0  0  0  0  0
   56.4688   24.1731   42.8866 H   0  0  0  0  0  0  0  0  0  0  0  0
  1  2  1  0
  2  3  2  0
  2  4  2  0
  2  5  1  0
  5  6  2  0
  6  7  1  0
  7  8  2  0
  8  9  1  0
  9 10  1  0
 10 11  1  0
 11 12  2  0
 12 13  1  0
 13 14  1  0
 14 15  2  0
 15 16  1  0
 16 17  2  0
 17 18  1  0
 18 19  2  0
 12 20  1  0
 20 21  2  0
 20 22  1  0
 22 23  1  0
  8 24  1  0
 24 25  2  0
 25  5  1  0
 23 10  2  0
 19 14  1  0
  1 26  1  0
  1 27  1  0
  6 28  1  0
  7 29  1  0
  9 30  1  0
  9 31  1  0
 11 32  1  0
 13 33  1  0
 13 34  1  0
 15 35  1  0
 16 36  1  0
 17 37  1  0
 18 38  1  0
 19 39  1  0
 24 40  1  0
 25 41  1  0
M  CHG  1  22  -1
M  END
>  <UniqueID>  (47) 
43

>  <SMILES>  (47) 
NS(=O)(=O)c1ccc(Cc2cc(Cc3ccccc3)c(=O)[n-]n2)cc1

>  <Energy>  (47) 
41.3219925594511

>  <Genealogy>  (47) 
NS(=O)(=O)c1ccc(Cc2cc(Cc3ccccc3)c(=O)[n-]n2)cc1 (protonated)
NS(=O)(=O)c1ccc(Cc2cc(Cc3ccccc3)c(=O)[n-]n2)cc1 (3D coordinates assigned)
NS(=O)(=O)c1ccc(Cc2cc(Cc3ccccc3)c(=O)[n-]n2)cc1 (optimized conformer: 41.3219925594511 kcal/mol)

>  <smiles>  (47) 
NS(=O)(=O)c1ccc(Cc2cc(Cc3ccccc3)c(=O)[nH]n2)cc1

>  <score_type>  (47) 
oracle

>  <origin>  (47) 
adg

>  <m_score__min__energy>  (47) 
-12.279999999999999

>  <m_primary>  (47) 
energy

$$$$
47:0
     RDKit          3D

 51 55  0  0  0  0  0  0  0  0999 V2000
   54.9705   31.0347   43.6543 H   0  0  0  0  0  0  0  0  0  0  0  0
   55.7850   30.4580   44.1170 C   0  0  0  0  0  0  0  0  0  0  0  0
   55.6440   29.2880   44.7630 N   0  0  0  0  0  0  0  0  0  0  0  0
   56.9020   28.9630   45.1390 C   0  0  0  0  0  0  0  0  0  0  0  0
   57.2430   27.7330   45.8860 C   0  0  0  0  0  0  0  0  0  0  0  0
   56.3110   26.6820   45.9850 C   0  0  0  0  0  0  0  0  0  0  0  0
   55.3344   26.7688   45.4863 H   0  0  0  0  0  0  0  0  0  0  0  0
   56.6190   25.5290   46.7130 C   0  0  0  0  0  0  0  0  0  0  0  0
   55.8843   24.7137   46.7876 H   0  0  0  0  0  0  0  0  0  0  0  0
   57.8590   25.4110   47.3460 C   0  0  0  0  0  0  0  0  0  0  0  0
   58.0955   24.5084   47.9285 H   0  0  0  0  0  0  0  0  0  0  0  0
   58.7990   26.4400   47.2390 C   0  0  0  0  0  0  0  0  0  0  0  0
   59.7804   26.3399   47.7257 H   0  0  0  0  0  0  0  0  0  0  0  0
   58.4940   27.5970   46.5140 C   0  0  0  0  0  0  0  0  0  0  0  0
   59.2366   28.4046   46.4347 H   0  0  0  0  0  0  0  0  0  0  0  0
   57.8260   29.8700   44.7590 N   0  0  0  0  0  0  0  0  0  0  0  0
   57.1140   30.8180   44.1280 C   0  0  0  0  0  0  0  0  0  0  0  0
   57.6950   32.0470   43.5520 C   0  0  0  0  0  0  0  0  0  0  0  0
   57.7110   32.1990   42.3020 O   0  0  0  0  0  0  0  0  0  0  0  0
   58.2850   33.0560   44.3840 N   0  0  0  0  0  0  0  0  0  0  0  0
   58.5390   32.9240   45.7880 C   0  0  0  0  0  0  0  0  0  0  0  0
   59.8610   32.8320   46.2410 C   0  0  0  0  0  0  0  0  0  0  0  0
   60.6925   32.9014   45.5242 H   0  0  0  0  0  0  0  0  0  0  0  0
   60.1270   32.6520   47.6030 C   0  0  0  0  0  0  0  0  0  0  0  0
   61.1682   32.5823   47.9510 H   0  0  0  0  0  0  0  0  0  0  0  0
   59.0790   32.5600   48.5260 C   0  0  0  0  0  0  0  0  0  0  0  0
   59.3860   32.3460   49.8770 O   0  0  0  0  0  0  0  0  0  0  0  0
   58.4420   32.2330   50.9060 C   0  0  0  0  0  0  0  0  0  0  0  0
   57.3460   31.4340   50.7770 N   0  0  0  0  0  0  0  0  0  0  0  0
   56.4310   31.3140   51.7760 C   0  0  0  0  0  0  0  0  0  0  0  0
   55.4030   30.5360   51.6040 N   0  0  0  0  0  0  0  0  0  0  0  0
   54.0530   30.7640   52.0450 C   0  0  0  0  0  0  0  0  0  0  0  0
   53.5600   30.0050   53.1170 C   0  0  0  0  0  0  0  0  0  0  0  0
   54.2142   29.2735   53.6140 H   0  0  0  0  0  0  0  0  0  0  0  0
   52.2430   30.1710   53.5590 C   0  0  0  0  0  0  0  0  0  0  0  0
   51.8714   29.5843   54.4120 H   0  0  0  0  0  0  0  0  0  0  0  0
   51.4000   31.0810   52.9180 C   0  0  0  0  0  0  0  0  0  0  0  0
   50.3682   31.2188   53.2736 H   0  0  0  0  0  0  0  0  0  0  0  0
   51.8660   31.8170   51.8250 C   0  0  0  0  0  0  0  0  0  0  0  0
   51.0190   32.7050   51.1720 O   0  0  0  0  0  0  0  0  0  0  0  0
   53.1840   31.6540   51.3800 C   0  0  0  0  0  0  0  0  0  0  0  0
   53.5426   32.2220   50.5089 H   0  0  0  0  0  0  0  0  0  0  0  0
   56.6290   31.9830   52.9460 N   0  0  0  0  0  0  0  0  0  0  0  0
   57.7140   32.7820   53.1250 C   0  0  0  0  0  0  0  0  0  0  0  0
   57.8539   33.3163   54.0763 H   0  0  0  0  0  0  0  0  0  0  0  0
   58.6490   32.9230   52.1010 C   0  0  0  0  0  0  0  0  0  0  0  0
   59.5323   33.5653   52.2323 H   0  0  0  0  0  0  0  0  0  0  0  0
   57.7550   32.7280   48.0820 C   0  0  0  0  0  0  0  0  0  0  0  0
   56.9268   32.7114   48.8058 H   0  0  0  0  0  0  0  0  0  0  0  0
   57.4900   32.9160   46.7230 C   0  0  0  0  0  0  0  0  0  0  0  0
   56.4537   33.0586   46.3829 H   0  0  0  0  0  0  0  0  0  0  0  0
  1  2  1  0
  2  3  1  0
  3  4  1  0
  4  5  1  0
  5  6  2  0
  6  7  1  0
  6  8  1  0
  8  9  1  0
  8 10  2  0
 10 11  1  0
 10 12  1  0
 12 13  1  0
 12 14  2  0
 14 15  1  0
  4 16  2  0
 16 17  1  0
 17 18  1  0
 18 19  2  0
 18 20  1  0
 20 21  1  0
 21 22  2  0
 22 23  1  0
 22 24  1  0
 24 25  1  0
 24 26  2  0
 26 27  1  0
 27 28  1  0
 28 29  2  0
 29 30  1  0
 30 31  2  0
 31 32  1  0
 32 33  2  0
 33 34  1  0
 33 35  1  0
 35 36  1  0
 35 37  2  0
 37 38  1  0
 37 39  1  0
 39 40  1  0
 39 41  2  0
 41 42  1  0
 30 43  1  0
 43 44  1  0
 44 45  1  0
 44 46  2  0
 46 47  1  0
 26 48  1  0
 48 49  1  0
 48 50  2  0
 50 51  1  0
 17  2  2  0
 50 21  1  0
 14  5  1  0
 46 28  1  0
 41 32  1  0
M  CHG  4   3  -1  20  -1  40  -1  43  -1
M  END
>  <UniqueID>  (48) 
44

>  <SMILES>  (48) 
O=C([N-]c1ccc(Oc2cc[n-]/c(=N\c3cccc([O-])c3)n2)cc1)c1c[n-]c(-c2ccccc2)n1

>  <Energy>  (48) 
100.37538985702058

>  <Genealogy>  (48) 
O=C([N-]c1ccc(Oc2cc[n-]c(=Nc3cccc([O-])c3)n2)cc1)c1c[n-]c(-c2ccccc2)n1 (protonated)
O=C([N-]c1ccc(Oc2cc[n-]/c(=N\c3cccc([O-])c3)n2)cc1)c1c[n-]c(-c2ccccc2)n1 (cis-trans isomerization)
O=C([N-]c1ccc(Oc2cc[n-]/c(=N\c3cccc([O-])c3)n2)cc1)c1c[n-]c(-c2ccccc2)n1 (3D coordinates assigned)
O=C([N-]c1ccc(Oc2cc[n-]/c(=N\c3cccc([O-])c3)n2)cc1)c1c[n-]c(-c2ccccc2)n1 (optimized conformer: 100.37538985702058 kcal/mol)

>  <smiles>  (48) 
O=C(Nc1ccc(Oc2cc[nH]c(=Nc3cccc(O)c3)n2)cc1)c1c[nH]c(-c2ccccc2)n1

>  <score_type>  (48) 
oracle

>  <origin>  (48) 
adg

>  <m_score__min__energy>  (48) 
-17.609999999999999

>  <m_primary>  (48) 
energy

$$$$
48:0
     RDKit          3D

 44 46  0  0  0  0  0  0  0  0999 V2000
   58.2911   24.1103   45.9204 H   0  0  0  0  0  0  0  0  0  0  0  0
   58.4920   25.1580   45.6520 C   0  0  0  0  0  0  0  0  0  0  0  0
   59.6020   25.7000   46.0660 N   0  0  0  0  0  0  0  0  0  0  0  0
   59.7710   27.0290   46.5850 C   0  0  0  0  0  0  0  0  0  0  0  0
   60.2710   28.0270   45.7420 C   0  0  0  0  0  0  0  0  0  0  0  0
   60.5059   27.7902   44.6938 H   0  0  0  0  0  0  0  0  0  0  0  0
   60.4740   29.3240   46.2240 C   0  0  0  0  0  0  0  0  0  0  0  0
   60.8398   30.1097   45.5465 H   0  0  0  0  0  0  0  0  0  0  0  0
   60.2120   29.6270   47.5720 C   0  0  0  0  0  0  0  0  0  0  0  0
   60.3860   30.9210   48.0870 O   0  0  0  0  0  0  0  0  0  0  0  0
   61.3290   31.8540   47.6360 C   0  0  0  0  0  0  0  0  0  0  0  0
   60.9570   32.9800   46.8760 C   0  0  0  0  0  0  0  0  0  0  0  0
   59.8986   33.1490   46.6285 H   0  0  0  0  0  0  0  0  0  0  0  0
   61.9290   33.8840   46.4350 C   0  0  0  0  0  0  0  0  0  0  0  0
   61.6323   34.7697   45.8540 H   0  0  0  0  0  0  0  0  0  0  0  0
   63.2780   33.6630   46.7320 C   0  0  0  0  0  0  0  0  0  0  0  0
   64.0414   34.3764   46.3881 H   0  0  0  0  0  0  0  0  0  0  0  0
   63.6550   32.5350   47.4660 C   0  0  0  0  0  0  0  0  0  0  0  0
   64.7166   32.3571   47.6926 H   0  0  0  0  0  0  0  0  0  0  0  0
   62.6850   31.6320   47.9130 C   0  0  0  0  0  0  0  0  0  0  0  0
   62.9879   30.7427   48.4851 H   0  0  0  0  0  0  0  0  0  0  0  0
   59.7230   28.6250   48.4170 C   0  0  0  0  0  0  0  0  0  0  0  0
   59.4968   28.8588   49.4678 H   0  0  0  0  0  0  0  0  0  0  0  0
   59.5200   27.3290   47.9350 C   0  0  0  0  0  0  0  0  0  0  0  0
   59.1626   26.5411   48.6144 H   0  0  0  0  0  0  0  0  0  0  0  0
   57.4700   25.8920   44.8250 C   0  0  0  0  0  0  0  0  0  0  0  0
   56.8425   25.1614   44.2934 H   0  0  0  0  0  0  0  0  0  0  0  0
   57.9935   26.5383   44.1051 H   0  0  0  0  0  0  0  0  0  0  0  0
   56.6020   26.7440   45.6970 C   0  0  0  0  0  0  0  0  0  0  0  0
   55.6060   26.2260   46.2700 O   0  0  0  0  0  0  0  0  0  0  0  0
   57.0000   28.0950   45.9770 N   0  0  0  0  0  0  0  0  0  0  0  0
   57.0530   29.1090   45.1590 C   0  0  0  0  0  0  0  0  0  0  0  0
   57.3760   30.3290   45.6670 N   0  0  0  0  0  0  0  0  0  0  0  0
   57.4610   31.4320   44.8780 C   0  0  0  0  0  0  0  0  0  0  0  0
   57.7870   32.7600   45.4820 C   0  0  0  0  0  0  0  0  0  0  0  0
   57.7671   32.6788   46.5788 H   0  0  0  0  0  0  0  0  0  0  0  0
   58.7892   33.0751   45.1558 H   0  0  0  0  0  0  0  0  0  0  0  0
   57.0447   33.5033   45.1558 H   0  0  0  0  0  0  0  0  0  0  0  0
   57.2020   31.3210   43.5100 C   0  0  0  0  0  0  0  0  0  0  0  0
   57.2425   32.2042   42.8556 H   0  0  0  0  0  0  0  0  0  0  0  0
   56.8910   30.0640   42.9940 C   0  0  0  0  0  0  0  0  0  0  0  0
   56.6965   29.9469   41.9177 H   0  0  0  0  0  0  0  0  0  0  0  0
   56.8270   28.9830   43.8140 N   0  0  0  0  0  0  0  0  0  0  0  0
   56.6420   28.0590   43.3680 H   0  0  0  0  0  0  0  0  0  0  0  0
  1  2  1  0
  2  3  2  0
  3  4  1  0
  4  5  2  0
  5  6  1  0
  5  7  1  0
  7  8  1  0
  7  9  2  0
  9 10  1  0
 10 11  1  0
 11 12  2  0
 12 13  1  0
 12 14  1  0
 14 15  1  0
 14 16  2  0
 16 17  1  0
 16 18  1  0
 18 19  1  0
 18 20  2  0
 20 21  1  0
  9 22  1  0
 22 23  1  0
 22 24  2  0
 24 25  1  0
  2 26  1  0
 26 27  1  0
 26 28  1  0
 26 29  1  0
 29 30  2  0
 29 31  1  0
 31 32  2  0
 32 33  1  0
 33 34  2  0
 34 35  1  0
 35 36  1  0
 35 37  1  0
 35 38  1  0
 34 39  1  0
 39 40  1  0
 39 41  2  0
 41 42  1  0
 41 43  1  0
 43 44  1  0
 24  4  1  0
 43 32  1  0
 20 11  1  0
M  END
>  <UniqueID>  (49) 
45

>  <SMILES>  (49) 
Cc1cc[nH]/c(=N\C(=O)C/C=N\c2ccc(Oc3ccccc3)cc2)n1

>  <Energy>  (49) 
64.6397121922162

>  <Genealogy>  (49) 
Cc1cc[nH]/c(=N\C(=O)C/C=N\c2ccc(Oc3ccccc3)cc2)n1 (cis-trans isomerization)
Cc1cc[nH]/c(=N\C(=O)C/C=N\c2ccc(Oc3ccccc3)cc2)n1 (3D coordinates assigned)
Cc1cc[nH]/c(=N\C(=O)C/C=N\c2ccc(Oc3ccccc3)cc2)n1 (optimized conformer: 64.6397121922162 kcal/mol)

>  <smiles>  (49) 
Cc1cc[nH]c(=NC(=O)CC=Nc2ccc(Oc3ccccc3)cc2)n1

>  <score_type>  (49) 
oracle

>  <origin>  (49) 
adg

>  <m_score__min__energy>  (49) 
-8.4499999999999993

>  <m_primary>  (49) 
energy

$$$$
49:0
     RDKit          3D

 65 68  0  0  1  0  0  0  0  0999 V2000
   60.6350   29.3460   45.6430 C   0  0  0  0  0  0  0  0  0  0  0  0
   59.2200   29.1380   45.6730 N   0  0  0  0  0  0  0  0  0  0  0  0
   58.7290   28.4790   46.8540 C   0  0  0  0  0  0  0  0  0  0  0  0
   58.6520   28.6360   44.4610 C   0  0  0  0  0  0  0  0  0  0  0  0
   57.1600   28.9600   44.4770 C   0  0  0  0  0  0  0  0  0  0  0  0
   56.8630   30.2070   43.6800 C   0  0  0  0  0  0  0  0  0  0  0  0
   56.3930   31.2760   44.4970 O   0  0  0  0  0  0  0  0  0  0  0  0
   57.2600   32.1050   45.2020 C   0  0  0  0  0  0  0  0  0  0  0  0
   57.5190   33.3450   44.6760 C   0  0  0  0  0  0  0  0  0  0  0  0
   58.3960   34.1490   45.4130 C   0  0  0  0  0  0  0  0  0  0  0  0
   58.9670   33.7300   46.5930 C   0  0  0  0  0  0  0  0  0  0  0  0
   59.8580   34.5870   47.2710 N   0  0  0  0  0  0  0  0  0  0  0  0
   61.1080   34.1570   47.8050 C   0  0  0  0  0  0  0  0  0  0  0  0
   61.3390   34.2710   49.1780 C   0  0  0  0  0  0  0  0  0  0  0  0
   62.4990   33.8560   49.7630 C   0  0  0  0  0  0  0  0  0  0  0  0
   63.4690   33.3060   48.9600 C   0  0  0  0  0  0  0  0  0  0  0  0
   65.1040   32.7160   49.7460 Br  0  0  0  0  0  0  0  0  0  0  0  0
   63.3120   33.1630   47.6020 C   0  0  0  0  0  0  0  0  0  0  0  0
   62.1120   33.6000   47.0490 C   0  0  0  0  0  0  0  0  0  0  0  0
   58.6730   32.4780   47.0750 C   0  0  0  0  0  0  0  0  0  0  0  0
   59.2030   31.9090   48.2940 C   0  0  0  0  0  0  0  0  0  0  0  0
   59.9710   30.9370   48.4060 O   0  0  0  0  0  0  0  0  0  0  0  0
   58.8170   32.5150   49.5510 N   0  0  0  0  0  0  0  0  0  0  0  0
   58.2630   31.7350   50.4050 C   0  0  0  0  0  0  0  0  0  0  0  0
   57.3920   32.0050   51.4370 C   0  0  0  0  0  0  0  0  0  0  0  0
   57.0730   30.8290   52.0790 C   0  0  0  0  0  0  0  0  0  0  0  0
   56.1730   30.6300   53.2440 C   0  0  0  0  0  0  0  0  0  0  0  0
   54.8000   30.2980   52.7230 C   0  0  0  0  0  0  0  0  0  0  0  0
   54.2220   31.0830   51.7290 C   0  0  0  0  0  0  0  0  0  0  0  0
   52.9540   30.7820   51.2420 C   0  0  0  0  0  0  0  0  0  0  0  0
   52.2650   29.6890   51.7580 C   0  0  0  0  0  0  0  0  0  0  0  0
   52.8490   28.9120   52.7500 C   0  0  0  0  0  0  0  0  0  0  0  0
   54.1080   29.2080   53.2340 C   0  0  0  0  0  0  0  0  0  0  0  0
   57.7650   29.8730   51.4140 N   0  0  0  0  0  0  0  0  0  0  0  0
   58.4630   30.4040   50.4330 N   0  0  0  0  0  0  0  0  0  0  0  0
   57.8290   31.7240   46.3490 N   0  0  0  0  0  0  0  0  0  0  0  0
   61.0192   29.4025   46.6722 H   0  0  0  0  0  0  0  0  0  0  0  0
   61.1176   28.5091   45.1169 H   0  0  0  0  0  0  0  0  0  0  0  0
   60.8563   30.2863   45.1169 H   0  0  0  0  0  0  0  0  0  0  0  0
   59.1125   28.9937   47.7473 H   0  0  0  0  0  0  0  0  0  0  0  0
   57.6294   28.5064   46.8588 H   0  0  0  0  0  0  0  0  0  0  0  0
   59.0698   27.4331   46.8588 H   0  0  0  0  0  0  0  0  0  0  0  0
   59.1305   29.1178   43.5956 H   0  0  0  0  0  0  0  0  0  0  0  0
   58.8091   27.5500   44.3834 H   0  0  0  0  0  0  0  0  0  0  0  0
   56.6049   28.1157   44.0422 H   0  0  0  0  0  0  0  0  0  0  0  0
   56.8522   29.1314   45.5191 H   0  0  0  0  0  0  0  0  0  0  0  0
   57.7841   30.5293   43.1723 H   0  0  0  0  0  0  0  0  0  0  0  0
   56.0691   29.9625   42.9589 H   0  0  0  0  0  0  0  0  0  0  0  0
   57.0657   33.6863   43.7336 H   0  0  0  0  0  0  0  0  0  0  0  0
   58.6379   35.1533   45.0350 H   0  0  0  0  0  0  0  0  0  0  0  0
   59.6740   35.6210   47.4350 H   0  0  0  0  0  0  0  0  0  0  0  0
   60.5554   34.7123   49.8115 H   0  0  0  0  0  0  0  0  0  0  0  0
   62.6538   33.9587   50.8472 H   0  0  0  0  0  0  0  0  0  0  0  0
   64.1026   32.7212   46.9777 H   0  0  0  0  0  0  0  0  0  0  0  0
   61.9610   33.4956   45.9644 H   0  0  0  0  0  0  0  0  0  0  0  0
   57.0115   33.0015   51.7058 H   0  0  0  0  0  0  0  0  0  0  0  0
   56.5458   29.8030   53.8661 H   0  0  0  0  0  0  0  0  0  0  0  0
   56.1373   31.5419   53.8582 H   0  0  0  0  0  0  0  0  0  0  0  0
   54.7713   31.9467   51.3261 H   0  0  0  0  0  0  0  0  0  0  0  0
   52.5000   31.4029   50.4556 H   0  0  0  0  0  0  0  0  0  0  0  0
   51.2615   29.4412   51.3817 H   0  0  0  0  0  0  0  0  0  0  0  0
   52.3011   28.0488   53.1558 H   0  0  0  0  0  0  0  0  0  0  0  0
   54.5598   28.5843   54.0194 H   0  0  0  0  0  0  0  0  0  0  0  0
   57.7020   28.8660   51.7030 H   0  0  0  0  0  0  0  0  0  0  0  0
   59.0690   29.8180   49.7980 H   0  0  0  0  0  0  0  0  0  0  0  0
  1  2  1  0
  2  3  1  0
  2  4  1  0
  4  5  1  0
  5  6  1  0
  6  7  1  0
  7  8  1  0
  8  9  2  0
  9 10  1  0
 10 11  2  0
 11 12  1  0
 12 13  1  0
 13 14  2  0
 14 15  1  0
 15 16  2  0
 16 17  1  0
 16 18  1  0
 18 19  2  0
 11 20  1  0
 20 21  1  0
 21 22  2  0
 21 23  1  0
 23 24  2  0
 24 25  1  0
 25 26  2  0
 26 27  1  0
 27 28  1  0
 28 29  2  0
 29 30  1  0
 30 31  2  0
 31 32  1  0
 32 33  2  0
 26 34  1  0
 34 35  1  0
 20 36  2  0
 36  8  1  0
 19 13  1  0
 35 24  1  0
 33 28  1  0
  1 37  1  0
  1 38  1  0
  1 39  1  0
  3 40  1  0
  3 41  1  0
  3 42  1  0
  4 43  1  0
  4 44  1  0
  5 45  1  0
  5 46  1  0
  6 47  1  0
  6 48  1  0
  9 49  1  0
 10 50  1  0
 12 51  1  0
 14 52  1  0
 15 53  1  0
 18 54  1  0
 19 55  1  0
 25 56  1  0
 27 57  1  0
 27 58  1  0
 29 59  1  0
 30 60  1  0
 31 61  1  0
 32 62  1  0
 33 63  1  0
 34 64  1  0
 35 65  1  0
M  END
>  <smiles>  (50) 
CN(C)CCCOc1ccc(Nc2ccc(Br)cc2)c(C(=O)N=c2cc(Cc3ccccc3)[nH][nH]2)n1

>  <score_type>  (50) 
oracle

>  <origin>  (50) 
adg

>  <m_score__min__energy>  (50) 
-9.6300000000000008

>  <m_primary>  (50) 
energy

$$$$
50:0
     RDKit          3D

 50 52  0  0  0  0  0  0  0  0999 V2000
   57.0430   31.2280   42.6130 C   0  0  0  0  0  0  0  0  0  0  0  0
   56.9870   30.1410   44.0230 S   0  0  0  0  0  0  0  0  0  0  0  0
   57.3810   30.9250   45.2430 O   0  0  0  0  0  0  0  0  0  0  0  0
   55.5950   29.6060   44.2130 O   0  0  0  0  0  0  0  0  0  0  0  0
   58.1030   28.8290   43.8130 N   0  0  0  0  0  0  0  0  0  0  0  0
   57.8940   27.5190   44.3730 C   0  0  0  0  0  0  0  0  0  0  0  0
   57.8260   26.3920   43.5320 C   0  0  0  0  0  0  0  0  0  0  0  0
   57.6220   25.1170   44.0610 C   0  0  0  0  0  0  0  0  0  0  0  0
   57.4800   24.9440   45.4370 C   0  0  0  0  0  0  0  0  0  0  0  0
   57.2020   23.1970   46.1560 Br  0  0  0  0  0  0  0  0  0  0  0  0
   57.5370   26.0490   46.2880 C   0  0  0  0  0  0  0  0  0  0  0  0
   57.7370   27.3430   45.7730 C   0  0  0  0  0  0  0  0  0  0  0  0
   57.7960   28.5110   46.7330 C   0  0  0  0  0  0  0  0  0  0  0  0
   59.1580   28.6700   47.2810 N   0  0  0  0  0  0  0  0  0  0  0  0
   60.1370   29.1090   46.2520 C   0  0  0  0  0  0  0  0  0  0  0  0
   60.4770   30.6010   46.3680 C   0  0  0  0  0  0  0  0  0  0  0  0
   61.0750   30.9230   47.6880 N   0  0  0  0  0  0  0  0  0  0  0  0
   60.9610   32.3650   47.9910 C   0  0  0  0  0  0  0  0  0  0  0  0
   59.8740   33.0070   47.1630 C   0  0  0  0  0  0  0  0  0  0  0  0
   60.2140   33.6960   45.9870 C   0  0  0  0  0  0  0  0  0  0  0  0
   59.2180   34.2750   45.1950 C   0  0  0  0  0  0  0  0  0  0  0  0
   57.8760   34.1670   45.5680 C   0  0  0  0  0  0  0  0  0  0  0  0
   57.5270   33.4780   46.7320 C   0  0  0  0  0  0  0  0  0  0  0  0
   58.5180   32.8960   47.5300 C   0  0  0  0  0  0  0  0  0  0  0  0
   58.1540   32.2240   48.6500 F   0  0  0  0  0  0  0  0  0  0  0  0
   60.5330   30.0910   48.7940 C   0  0  0  0  0  0  0  0  0  0  0  0
   59.1350   29.5430   48.4780 C   0  0  0  0  0  0  0  0  0  0  0  0
   57.0968   32.2716   42.9565 H   0  0  0  0  0  0  0  0  0  0  0  0
   57.9304   30.9956   42.0059 H   0  0  0  0  0  0  0  0  0  0  0  0
   56.1365   31.0880   42.0059 H   0  0  0  0  0  0  0  0  0  0  0  0
   58.8920   28.9980   43.1530 H   0  0  0  0  0  0  0  0  0  0  0  0
   57.9350   26.5181   42.4447 H   0  0  0  0  0  0  0  0  0  0  0  0
   57.5731   24.2462   43.3906 H   0  0  0  0  0  0  0  0  0  0  0  0
   57.4243   25.9066   47.3729 H   0  0  0  0  0  0  0  0  0  0  0  0
   57.5118   29.4305   46.2004 H   0  0  0  0  0  0  0  0  0  0  0  0
   57.1012   28.3202   47.5642 H   0  0  0  0  0  0  0  0  0  0  0  0
   61.0617   28.5254   46.3722 H   0  0  0  0  0  0  0  0  0  0  0  0
   59.6823   28.9441   45.2640 H   0  0  0  0  0  0  0  0  0  0  0  0
   61.1936   30.8666   45.5769 H   0  0  0  0  0  0  0  0  0  0  0  0
   59.5452   31.1760   46.2624 H   0  0  0  0  0  0  0  0  0  0  0  0
   60.7227   32.4908   49.0575 H   0  0  0  0  0  0  0  0  0  0  0  0
   61.9182   32.8507   47.7504 H   0  0  0  0  0  0  0  0  0  0  0  0
   61.2692   33.7804   45.6878 H   0  0  0  0  0  0  0  0  0  0  0  0
   59.4913   34.8162   44.2772 H   0  0  0  0  0  0  0  0  0  0  0  0
   57.0937   34.6248   44.9447 H   0  0  0  0  0  0  0  0  0  0  0  0
   56.4694   33.3927   47.0222 H   0  0  0  0  0  0  0  0  0  0  0  0
   61.2141   29.2447   48.9668 H   0  0  0  0  0  0  0  0  0  0  0  0
   60.4511   30.7288   49.6864 H   0  0  0  0  0  0  0  0  0  0  0  0
   58.7749   28.9611   49.3392 H   0  0  0  0  0  0  0  0  0  0  0  0
   58.4661   30.3925   48.2759 H   0  0  0  0  0  0  0  0  0  0  0  0
  1  2  1  0
  2  3  2  0
  2  4  2  0
  2  5  1  0
  5  6  1  0
  6  7  2  0
  7  8  1  0
  8  9  2  0
  9 10  1  0
  9 11  1  0
 11 12  2  0
 12 13  1  0
 13 14  1  0
 14 15  1  0
 15 16  1  0
 16 17  1  0
 17 18  1  0
 18 19  1  0
 19 20  2  0
 20 21  1  0
 21 22  2  0
 22 23  1  0
 23 24  2  0
 24 25  1  0
 17 26  1  0
 26 27  1  0
 12  6  1  0
 27 14  1  0
 24 19  1  0
  1 28  1  0
  1 29  1  0
  1 30  1  0
  5 31  1  0
  7 32  1  0
  8 33  1  0
 11 34  1  0
 13 35  1  0
 13 36  1  0
 15 37  1  0
 15 38  1  0
 16 39  1  0
 16 40  1  0
 18 41  1  0
 18 42  1  0
 20 43  1  0
 21 44  1  0
 22 45  1  0
 23 46  1  0
 26 47  1  0
 26 48  1  0
 27 49  1  0
 27 50  1  0
M  END
>  <UniqueID>  (51) 
46

>  <SMILES>  (51) 
CS(=O)(=O)Nc1ccc(Br)cc1CN1CCN(Cc2ccccc2F)CC1

>  <Energy>  (51) 
64.91476401503172

>  <Genealogy>  (51) 
CS(=O)(=O)Nc1ccc(Br)cc1CN1CCN(Cc2ccccc2F)CC1 (3D coordinates assigned)
CS(=O)(=O)Nc1ccc(Br)cc1CN1CCN(Cc2ccccc2F)CC1 (nonaromatic ring conformer: 64.91476401503172 kcal/mol)

>  <smiles>  (51) 
CS(=O)(=O)Nc1ccc(Br)cc1CN1CCN(Cc2ccccc2F)CC1

>  <score_type>  (51) 
oracle

>  <origin>  (51) 
adg

>  <m_score__min__energy>  (51) 
-9.4100000000000001

>  <m_primary>  (51) 
energy

$$$$
51:0
     RDKit          3D

 46 49  0  0  1  0  0  0  0  0999 V2000
   55.2280   29.7370   43.3710 C   0  0  0  0  0  0  0  0  0  0  0  0
   56.8800   30.2380   43.6930 S   0  0  0  0  0  0  0  0  0  0  0  0
   56.9300   30.9730   45.0020 O   0  0  0  0  0  0  0  0  0  0  0  0
   57.2700   31.2680   42.6440 O   0  0  0  0  0  0  0  0  0  0  0  0
   58.0130   28.9540   43.7000 N   0  0  0  0  0  0  0  0  0  0  0  0
   58.7860   28.6420   44.8470 C   0  0  0  0  0  0  0  0  0  0  0  0
   58.9270   27.3660   45.3500 C   0  0  0  0  0  0  0  0  0  0  0  0
   59.7010   27.1550   46.4720 C   0  0  0  0  0  0  0  0  0  0  0  0
   60.3310   28.2360   47.0850 C   0  0  0  0  0  0  0  0  0  0  0  0
   60.2080   29.5240   46.6050 C   0  0  0  0  0  0  0  0  0  0  0  0
   60.8550   30.6740   47.2250 C   0  0  0  0  0  0  0  0  0  0  0  0
   60.2170   31.5130   48.1020 C   0  0  0  0  0  0  0  0  0  0  0  0
   60.8810   32.5920   48.6620 C   0  0  0  0  0  0  0  0  0  0  0  0
   60.2620   33.3310   49.4570 N   0  0  0  0  0  0  0  0  0  0  0  0
   59.6440   34.5850   49.1670 C   0  0  0  0  0  0  0  0  0  0  0  0
   59.2460   34.4500   47.6990 C   0  0  0  0  0  0  0  0  0  0  0  0
   58.1280   33.7270   47.3380 C   0  0  0  0  0  0  0  0  0  0  0  0
   57.7570   33.5990   46.0170 C   0  0  0  0  0  0  0  0  0  0  0  0
   58.5540   34.2260   45.0860 C   0  0  0  0  0  0  0  0  0  0  0  0
   59.6540   34.9400   45.4190 N   0  0  0  0  0  0  0  0  0  0  0  0
   59.9900   35.0470   46.7090 C   0  0  0  0  0  0  0  0  0  0  0  0
   62.1520   32.8360   48.3590 N   0  0  0  0  0  0  0  0  0  0  0  0
   63.0080   33.7750   48.7400 C   0  0  0  0  0  0  0  0  0  0  0  0
   64.1940   33.4700   48.0550 C   0  0  0  0  0  0  0  0  0  0  0  0
   64.0300   32.3810   47.2960 N   0  0  0  0  0  0  0  0  0  0  0  0
   62.7510   31.9920   47.4920 C   0  0  0  0  0  0  0  0  0  0  0  0
   62.1320   30.9380   46.9340 N   0  0  0  0  0  0  0  0  0  0  0  0
   59.4240   29.6900   45.4800 C   0  0  0  0  0  0  0  0  0  0  0  0
   54.7011   29.5772   44.3233 H   0  0  0  0  0  0  0  0  0  0  0  0
   54.7134   30.5195   42.7940 H   0  0  0  0  0  0  0  0  0  0  0  0
   55.2347   28.8005   42.7940 H   0  0  0  0  0  0  0  0  0  0  0  0
   58.1560   28.3690   42.8450 H   0  0  0  0  0  0  0  0  0  0  0  0
   58.4244   26.5199   44.8586 H   0  0  0  0  0  0  0  0  0  0  0  0
   59.8200   26.1404   46.8800 H   0  0  0  0  0  0  0  0  0  0  0  0
   60.9457   28.0572   47.9796 H   0  0  0  0  0  0  0  0  0  0  0  0
   59.1650   31.3269   48.3641 H   0  0  0  0  0  0  0  0  0  0  0  0
   58.7599   34.7447   49.8018 H   0  0  0  0  0  0  0  0  0  0  0  0
   60.3044   35.4441   49.3565 H   0  0  0  0  0  0  0  0  0  0  0  0
   57.5218   33.2440   48.1185 H   0  0  0  0  0  0  0  0  0  0  0  0
   56.8673   33.0238   45.7209 H   0  0  0  0  0  0  0  0  0  0  0  0
   58.2842   34.1427   44.0228 H   0  0  0  0  0  0  0  0  0  0  0  0
   60.8833   35.6267   46.9846 H   0  0  0  0  0  0  0  0  0  0  0  0
   62.8283   34.6068   49.4371 H   0  0  0  0  0  0  0  0  0  0  0  0
   65.1280   34.0460   48.1315 H   0  0  0  0  0  0  0  0  0  0  0  0
   64.7640   31.9360   46.6790 H   0  0  0  0  0  0  0  0  0  0  0  0
   59.3024   30.7034   45.0697 H   0  0  0  0  0  0  0  0  0  0  0  0
  1  2  1  0
  2  3  2  0
  2  4  2  0
  2  5  1  0
  5  6  1  0
  6  7  2  0
  7  8  1  0
  8  9  2  0
  9 10  1  0
 10 11  1  0
 11 12  2  0
 12 13  1  0
 13 14  2  0
 14 15  1  0
 15 16  1  0
 16 17  2  0
 17 18  1  0
 18 19  2  0
 19 20  1  0
 20 21  2  0
 13 22  1  0
 22 23  1  0
 23 24  2  0
 24 25  1  0
 25 26  1  0
 26 27  2  0
 10 28  2  0
 28  6  1  0
 27 11  1  0
 21 16  1  0
 26 22  1  0
  1 29  1  0
  1 30  1  0
  1 31  1  0
  5 32  1  0
  7 33  1  0
  8 34  1  0
  9 35  1  0
 12 36  1  0
 15 37  1  0
 15 38  1  0
 17 39  1  0
 18 40  1  0
 19 41  1  0
 21 42  1  0
 23 43  1  0
 24 44  1  0
 25 45  1  0
 28 46  1  0
M  END
>  <smiles>  (52) 
CS(=O)(=O)Nc1cccc(-c2cc(=NCc3cccnc3)n3cc[nH]c3n2)c1

>  <score_type>  (52) 
oracle

>  <origin>  (52) 
adg

>  <m_score__min__energy>  (52) 
-10

>  <m_primary>  (52) 
energy

$$$$
52:0
     RDKit          3D

 45 48  0  0  0  0  0  0  0  0999 V2000
   51.6676   29.8514   50.7809 H   0  0  0  0  0  0  0  0  0  0  0  0
   51.7830   30.7090   51.4600 C   0  0  0  0  0  0  0  0  0  0  0  0
   51.1060   31.9650   51.0830 C   0  0  0  0  0  0  0  0  0  0  0  0
   50.6570   32.7160   51.9860 O   0  0  0  0  0  0  0  0  0  0  0  0
   51.0270   32.3750   49.7590 O   0  0  0  0  0  0  0  0  0  0  0  0
   52.5260   30.5250   52.5590 C   0  0  0  0  0  0  0  0  0  0  0  0
   51.9954   30.2744   53.4894 H   0  0  0  0  0  0  0  0  0  0  0  0
   53.9960   30.6300   52.6270 C   0  0  0  0  0  0  0  0  0  0  0  0
   54.8730   30.8740   51.5850 C   0  0  0  0  0  0  0  0  0  0  0  0
   54.6102   31.1285   50.5476 H   0  0  0  0  0  0  0  0  0  0  0  0
   56.1470   30.7340   52.1080 C   0  0  0  0  0  0  0  0  0  0  0  0
   57.3850   30.9050   51.3200 C   0  0  0  0  0  0  0  0  0  0  0  0
   58.0260   32.3970   50.8700 S   0  0  0  0  0  0  0  0  0  0  0  0
   59.3160   31.7710   49.9970 C   0  0  0  0  0  0  0  0  0  0  0  0
   60.5080   32.7190   49.1320 S   0  0  0  0  0  0  0  0  0  0  0  0
   61.0460   33.8090   50.0170 O   0  0  0  0  0  0  0  0  0  0  0  0
   61.6450   31.8260   48.7200 O   0  0  0  0  0  0  0  0  0  0  0  0
   59.7740   33.4240   47.7310 N   0  0  0  0  0  0  0  0  0  0  0  0
   59.0580   32.7270   46.7300 C   0  0  0  0  0  0  0  0  0  0  0  0
   58.6950   31.3760   46.7300 C   0  0  0  0  0  0  0  0  0  0  0  0
   58.9602   30.7202   47.5724 H   0  0  0  0  0  0  0  0  0  0  0  0
   57.9830   30.8790   45.6260 C   0  0  0  0  0  0  0  0  0  0  0  0
   57.6842   29.8207   45.5980 H   0  0  0  0  0  0  0  0  0  0  0  0
   57.6500   31.7310   44.5540 C   0  0  0  0  0  0  0  0  0  0  0  0
   57.0912   31.3356   43.6930 H   0  0  0  0  0  0  0  0  0  0  0  0
   58.0290   33.0830   44.5810 C   0  0  0  0  0  0  0  0  0  0  0  0
   57.7736   33.7560   43.7492 H   0  0  0  0  0  0  0  0  0  0  0  0
   58.7380   33.5530   45.6890 C   0  0  0  0  0  0  0  0  0  0  0  0
   59.2470   34.9340   45.9400 C   0  0  0  0  0  0  0  0  0  0  0  0
   58.4178   35.6543   46.0011 H   0  0  0  0  0  0  0  0  0  0  0  0
   59.9025   35.3030   45.1374 H   0  0  0  0  0  0  0  0  0  0  0  0
   59.9720   34.8060   47.3030 C   0  0  0  0  0  0  0  0  0  0  0  0
   59.5351   35.5003   48.0359 H   0  0  0  0  0  0  0  0  0  0  0  0
   61.0402   35.0543   47.2181 H   0  0  0  0  0  0  0  0  0  0  0  0
   59.2550   30.3870   50.0210 C   0  0  0  0  0  0  0  0  0  0  0  0
   59.9825   29.7385   49.5109 H   0  0  0  0  0  0  0  0  0  0  0  0
   58.1710   29.8990   50.7620 C   0  0  0  0  0  0  0  0  0  0  0  0
   57.9610   28.8269   50.8907 H   0  0  0  0  0  0  0  0  0  0  0  0
   56.0720   30.4190   53.4240 N   0  0  0  0  0  0  0  0  0  0  0  0
   57.1680   30.1980   54.3640 C   0  0  0  0  0  0  0  0  0  0  0  0
   56.7889   30.2744   55.3938 H   0  0  0  0  0  0  0  0  0  0  0  0
   57.5927   29.1961   54.2031 H   0  0  0  0  0  0  0  0  0  0  0  0
   57.9478   30.9570   54.2031 H   0  0  0  0  0  0  0  0  0  0  0  0
   54.7630   30.3270   53.7350 C   0  0  0  0  0  0  0  0  0  0  0  0
   54.3656   30.0519   54.7231 H   0  0  0  0  0  0  0  0  0  0  0  0
  1  2  1  0
  2  3  1  0
  3  4  2  0
  3  5  1  0
  2  6  2  0
  6  7  1  0
  6  8  1  0
  8  9  1  0
  9 10  1  0
  9 11  2  0
 11 12  1  0
 12 13  1  0
 13 14  1  0
 14 15  1  0
 15 16  2  0
 15 17  2  0
 15 18  1  0
 18 19  1  0
 19 20  2  0
 20 21  1  0
 20 22  1  0
 22 23  1  0
 22 24  2  0
 24 25  1  0
 24 26  1  0
 26 27  1  0
 26 28  2  0
 28 29  1  0
 29 30  1  0
 29 31  1  0
 29 32  1  0
 32 33  1  0
 32 34  1  0
 14 35  2  0
 35 36  1  0
 35 37  1  0
 37 38  1  0
 11 39  1  0
 39 40  1  0
 40 41  1  0
 40 42  1  0
 40 43  1  0
 39 44  1  0
 44 45  1  0
 44  8  2  0
 37 12  2  0
 32 18  1  0
 28 19  1  0
M  CHG  1   5  -1
M  END
>  <UniqueID>  (53) 
47

>  <SMILES>  (53) 
Cn1cc(/C=C\C(=O)[O-])cc1-c1ccc(S(=O)(=O)N2CCc3ccccc32)s1

>  <Energy>  (53) 
124.77637085856385

>  <Genealogy>  (53) 
Cn1cc(C=CC(=O)[O-])cc1-c1ccc(S(=O)(=O)N2CCc3ccccc32)s1 (protonated)
Cn1cc(/C=C\C(=O)[O-])cc1-c1ccc(S(=O)(=O)N2CCc3ccccc32)s1 (cis-trans isomerization)
Cn1cc(/C=C\C(=O)[O-])cc1-c1ccc(S(=O)(=O)N2CCc3ccccc32)s1 (3D coordinates assigned)
Cn1cc(/C=C\C(=O)[O-])cc1-c1ccc(S(=O)(=O)N2CCc3ccccc32)s1 (nonaromatic ring conformer: 124.77637085856385 kcal/mol)

>  <smiles>  (53) 
Cn1cc(C=CC(=O)O)cc1-c1ccc(S(=O)(=O)N2CCc3ccccc32)s1

>  <score_type>  (53) 
oracle

>  <origin>  (53) 
adg

>  <m_score__min__energy>  (53) 
-12.56

>  <m_primary>  (53) 
energy

$$$$
53:0
     RDKit          3D

 41 44  0  0  0  0  0  0  0  0999 V2000
   54.7800   28.7300   42.6560 H   0  0  0  0  0  0  0  0  0  0  0  0
   54.7270   29.3860   43.4260 O   0  0  0  0  0  0  0  0  0  0  0  0
   55.8400   29.7070   44.2020 C   0  0  0  0  0  0  0  0  0  0  0  0
   56.5410   30.8880   43.9330 C   0  0  0  0  0  0  0  0  0  0  0  0
   56.2115   31.5440   43.1138 H   0  0  0  0  0  0  0  0  0  0  0  0
   57.6630   31.2420   44.7020 C   0  0  0  0  0  0  0  0  0  0  0  0
   58.4370   32.4900   44.3840 C   0  0  0  0  0  0  0  0  0  0  0  0
   57.7970   33.1801   43.8146 H   0  0  0  0  0  0  0  0  0  0  0  0
   59.3221   32.2231   43.7879 H   0  0  0  0  0  0  0  0  0  0  0  0
   58.8800   33.1550   45.6480 C   0  0  0  0  0  0  0  0  0  0  0  0
   60.4720   33.5540   46.0300 S   0  0  0  0  0  0  0  0  0  0  0  0
   60.0510   34.1100   47.5600 C   0  0  0  0  0  0  0  0  0  0  0  0
   60.9110   34.5930   48.4060 N   0  0  0  0  0  0  0  0  0  0  0  0
   61.8340   33.8360   49.2030 C   0  0  0  0  0  0  0  0  0  0  0  0
   63.0780   33.9980   49.0720 O   0  0  0  0  0  0  0  0  0  0  0  0
   61.3080   32.9660   50.2160 N   0  0  0  0  0  0  0  0  0  0  0  0
   60.4290   32.0020   50.1090 C   0  0  0  0  0  0  0  0  0  0  0  0
   60.6130   30.9040   49.2410 C   0  0  0  0  0  0  0  0  0  0  0  0
   61.5237   30.8347   48.6280 H   0  0  0  0  0  0  0  0  0  0  0  0
   59.6410   29.9070   49.1600 C   0  0  0  0  0  0  0  0  0  0  0  0
   59.7945   29.0472   48.4913 H   0  0  0  0  0  0  0  0  0  0  0  0
   58.5070   29.9910   49.9010 N   0  0  0  0  0  0  0  0  0  0  0  0
   58.2750   31.0370   50.7360 C   0  0  0  0  0  0  0  0  0  0  0  0
   57.0860   31.0810   51.4740 C   0  0  0  0  0  0  0  0  0  0  0  0
   56.3498   30.2694   51.3776 H   0  0  0  0  0  0  0  0  0  0  0  0
   56.8330   32.1530   52.3320 C   0  0  0  0  0  0  0  0  0  0  0  0
   55.8965   32.1848   52.9082 H   0  0  0  0  0  0  0  0  0  0  0  0
   57.7640   33.1840   52.4610 C   0  0  0  0  0  0  0  0  0  0  0  0
   57.5589   34.0259   53.1386 H   0  0  0  0  0  0  0  0  0  0  0  0
   58.9570   33.1510   51.7320 C   0  0  0  0  0  0  0  0  0  0  0  0
   59.6873   33.9664   51.8409 H   0  0  0  0  0  0  0  0  0  0  0  0
   59.2290   32.0780   50.8580 C   0  0  0  0  0  0  0  0  0  0  0  0
   58.7260   33.9900   47.8020 N   0  0  0  0  0  0  0  0  0  0  0  0
   58.0710   33.4520   46.7400 C   0  0  0  0  0  0  0  0  0  0  0  0
   56.9868   33.2660   46.7435 H   0  0  0  0  0  0  0  0  0  0  0  0
   58.0890   30.3870   45.7320 C   0  0  0  0  0  0  0  0  0  0  0  0
   58.9762   30.6468   46.3281 H   0  0  0  0  0  0  0  0  0  0  0  0
   57.3900   29.2080   46.0020 C   0  0  0  0  0  0  0  0  0  0  0  0
   57.7248   28.5466   46.8147 H   0  0  0  0  0  0  0  0  0  0  0  0
   56.2660   28.8650   45.2430 C   0  0  0  0  0  0  0  0  0  0  0  0
   55.5810   27.6890   45.5270 O   0  0  0  0  0  0  0  0  0  0  0  0
  1  2  1  0
  2  3  1  0
  3  4  2  0
  4  5  1  0
  4  6  1  0
  6  7  1  0
  7  8  1  0
  7  9  1  0
  7 10  1  0
 10 11  1  0
 11 12  1  0
 12 13  2  3
 13 14  1  0
 14 15  2  0
 14 16  1  0
 16 17  2  0
 17 18  1  0
 18 19  1  0
 18 20  2  0
 20 21  1  0
 20 22  1  0
 22 23  1  0
 23 24  2  0
 24 25  1  0
 24 26  1  0
 26 27  1  0
 26 28  2  0
 28 29  1  0
 28 30  1  0
 30 31  1  0
 30 32  2  0
 12 33  1  0
 33 34  1  0
 34 35  1  0
  6 36  2  0
 36 37  1  0
 36 38  1  0
 38 39  1  0
 38 40  2  0
 40 41  1  0
 40  3  1  0
 34 10  2  0
 32 17  1  0
 32 23  1  0
M  CHG  3  22  -1  33  -1  41  -1
M  END
>  <UniqueID>  (54) 
48

>  <SMILES>  (54) 
O=C(N=c1[n-]cc(Cc2ccc([O-])c(O)c2)s1)/N=c1\cc[n-]c2ccccc12

>  <Energy>  (54) 
88.98142979053301

>  <Genealogy>  (54) 
O=C(N=c1[n-]cc(Cc2ccc([O-])c(O)c2)s1)N=c1cc[n-]c2ccccc12 (protonated)
O=C(N=c1[n-]cc(Cc2ccc([O-])c(O)c2)s1)/N=c1\cc[n-]c2ccccc12 (cis-trans isomerization)
O=C(N=c1[n-]cc(Cc2ccc([O-])c(O)c2)s1)/N=c1\cc[n-]c2ccccc12 (3D coordinates assigned)
O=C(N=c1[n-]cc(Cc2ccc([O-])c(O)c2)s1)/N=c1\cc[n-]c2ccccc12 (optimized conformer: 88.98142979053301 kcal/mol)

>  <smiles>  (54) 
O=C(N=c1[nH]cc(Cc2ccc(O)c(O)c2)s1)N=c1cc[nH]c2ccccc12

>  <score_type>  (54) 
oracle

>  <origin>  (54) 
adg

>  <m_score__min__energy>  (54) 
-14.57

>  <m_primary>  (54) 
energy

$$$$
54:0
     RDKit          3D

 50 52  0  0  0  0  0  0  0  0999 V2000
   58.6910   27.0390   46.8160 O   0  0  0  0  0  0  0  0  0  0  0  0
   59.3020   27.9790   46.2400 C   0  0  0  0  0  0  0  0  0  0  0  0
   59.2430   28.0820   44.7350 C   0  0  0  0  0  0  0  0  0  0  0  0
   57.7980   28.0410   44.2190 C   0  0  0  0  0  0  0  0  0  0  0  0
   56.8150   28.6750   45.2170 C   0  0  0  0  0  0  0  0  0  0  0  0
   55.9290   29.6900   44.5450 C   0  0  0  0  0  0  0  0  0  0  0  0
   54.8000   29.3310   44.1200 O   0  0  0  0  0  0  0  0  0  0  0  0
   56.2900   31.0770   44.4660 N   0  0  0  0  0  0  0  0  0  0  0  0
   57.3470   31.7120   45.1960 C   0  0  0  0  0  0  0  0  0  0  0  0
   58.6290   31.1420   45.2670 C   0  0  0  0  0  0  0  0  0  0  0  0
   59.6390   31.7700   46.0000 C   0  0  0  0  0  0  0  0  0  0  0  0
   59.3880   32.9840   46.6500 C   0  0  0  0  0  0  0  0  0  0  0  0
   60.6600   33.7380   47.6070 S   0  0  0  0  0  0  0  0  0  0  0  0
   61.5570   34.5090   46.6790 O   0  0  0  0  0  0  0  0  0  0  0  0
   60.0500   34.6980   48.5920 O   0  0  0  0  0  0  0  0  0  0  0  0
   61.5780   32.4960   48.4380 N   0  0  0  0  0  0  0  0  0  0  0  0
   62.2490   33.0240   49.6510 C   0  0  0  0  0  0  0  0  0  0  0  0
   63.7290   33.3740   49.4080 C   0  0  0  0  0  0  0  0  0  0  0  0
   63.9230   33.8000   48.0780 O   0  0  0  0  0  0  0  0  0  0  0  0
   63.7440   32.7140   47.1850 C   0  0  0  0  0  0  0  0  0  0  0  0
   62.5240   31.8240   47.5270 C   0  0  0  0  0  0  0  0  0  0  0  0
   58.1190   33.5730   46.5480 C   0  0  0  0  0  0  0  0  0  0  0  0
   57.1090   32.9440   45.8140 C   0  0  0  0  0  0  0  0  0  0  0  0
   60.1120   28.8640   47.0270 N   0  0  0  0  0  0  0  0  0  0  0  0
   59.9050   29.1900   48.2680 C   0  0  0  0  0  0  0  0  0  0  0  0
   59.2860   30.3380   48.6150 N   0  0  0  0  0  0  0  0  0  0  0  0
   59.2240   30.4880   49.9650 C   0  0  0  0  0  0  0  0  0  0  0  0
   59.8080   29.4650   50.7040 C   0  0  0  0  0  0  0  0  0  0  0  0
   60.4250   28.3300   49.6250 S   0  0  0  0  0  0  0  0  0  0  0  0
   59.7056   29.0304   44.4242 H   0  0  0  0  0  0  0  0  0  0  0  0
   59.7828   27.2223   44.3112 H   0  0  0  0  0  0  0  0  0  0  0  0
   57.7441   28.5915   43.2682 H   0  0  0  0  0  0  0  0  0  0  0  0
   57.5140   26.9870   44.0834 H   0  0  0  0  0  0  0  0  0  0  0  0
   56.1868   27.8839   45.6524 H   0  0  0  0  0  0  0  0  0  0  0  0
   57.3963   29.1860   45.9987 H   0  0  0  0  0  0  0  0  0  0  0  0
   58.8384   30.1975   44.7434 H   0  0  0  0  0  0  0  0  0  0  0  0
   60.6354   31.3087   46.0666 H   0  0  0  0  0  0  0  0  0  0  0  0
   60.8790   31.7790   48.7450 H   0  0  0  0  0  0  0  0  0  0  0  0
   61.7217   33.9326   49.9773 H   0  0  0  0  0  0  0  0  0  0  0  0
   62.2159   32.2362   50.4180 H   0  0  0  0  0  0  0  0  0  0  0  0
   64.0277   34.1805   50.0938 H   0  0  0  0  0  0  0  0  0  0  0  0
   64.3410   32.4778   49.5877 H   0  0  0  0  0  0  0  0  0  0  0  0
   63.6069   33.1170   46.1707 H   0  0  0  0  0  0  0  0  0  0  0  0
   64.6388   32.0793   47.2660 H   0  0  0  0  0  0  0  0  0  0  0  0
   61.9981   31.5714   46.5945 H   0  0  0  0  0  0  0  0  0  0  0  0
   62.8972   30.9225   48.0349 H   0  0  0  0  0  0  0  0  0  0  0  0
   57.9180   34.5325   47.0469 H   0  0  0  0  0  0  0  0  0  0  0  0
   56.1219   33.4205   45.7220 H   0  0  0  0  0  0  0  0  0  0  0  0
   58.7455   31.3575   50.4393 H   0  0  0  0  0  0  0  0  0  0  0  0
   59.8580   29.4076   51.8014 H   0  0  0  0  0  0  0  0  0  0  0  0
  1  2  2  0
  2  3  1  0
  3  4  1  0
  4  5  1  0
  5  6  1  0
  6  7  2  0
  6  8  1  0
  8  9  1  0
  9 10  2  0
 10 11  1  0
 11 12  2  0
 12 13  1  0
 13 14  2  0
 13 15  2  0
 13 16  1  0
 16 17  1  0
 17 18  1  0
 18 19  1  0
 19 20  1  0
 20 21  1  0
 12 22  1  0
 22 23  2  0
  2 24  1  0
 24 25  2  3
 25 26  1  0
 26 27  1  0
 27 28  2  0
 28 29  1  0
 23  9  1  0
 29 25  1  0
 21 16  1  0
  3 30  1  0
  3 31  1  0
  4 32  1  0
  4 33  1  0
  5 34  1  0
  5 35  1  0
 10 36  1  0
 11 37  1  0
 16 38  1  0
 17 39  1  0
 17 40  1  0
 18 41  1  0
 18 42  1  0
 20 43  1  0
 20 44  1  0
 21 45  1  0
 21 46  1  0
 22 47  1  0
 23 48  1  0
 27 49  1  0
 28 50  1  0
M  CHG  3   8  -1  16   1  26  -1
M  END
>  <UniqueID>  (55) 
49

>  <SMILES>  (55) 
O=C(CCCC(=O)[N-]c1ccc(S(=O)(=O)[NH+]2CCOCC2)cc1)N=c1[n-]ccs1

>  <Energy>  (55) 
97.75426300214036

>  <Genealogy>  (55) 
O=C(CCCC(=O)[N-]c1ccc(S(=O)(=O)[NH+]2CCOCC2)cc1)N=c1[n-]ccs1 (protonated)
O=C(CCCC(=O)[N-]c1ccc(S(=O)(=O)[NH+]2CCOCC2)cc1)N=c1[n-]ccs1 (3D coordinates assigned)
O=C(CCCC(=O)[N-]c1ccc(S(=O)(=O)[NH+]2CCOCC2)cc1)N=c1[n-]ccs1 (nonaromatic ring conformer: 97.75426300214036 kcal/mol)

>  <smiles>  (55) 
O=C(CCCC(=O)Nc1ccc(S(=O)(=O)N2CCOCC2)cc1)N=c1[nH]ccs1

>  <score_type>  (55) 
oracle

>  <origin>  (55) 
adg

>  <m_score__min__energy>  (55) 
-11.470000000000001

>  <m_primary>  (55) 
energy

$$$$
55:0
     RDKit          3D

 41 43  0  0  0  0  0  0  0  0999 V2000
   58.0890   26.7180   43.6380 C   0  0  0  0  0  0  0  0  0  0  0  0
   57.2920   26.8890   44.9080 C   0  0  0  0  0  0  0  0  0  0  0  0
   56.7650   28.0330   45.2470 N   0  0  0  0  0  0  0  0  0  0  0  0
   57.3540   29.3310   45.0780 C   0  0  0  0  0  0  0  0  0  0  0  0
   56.6980   30.2790   44.2860 C   0  0  0  0  0  0  0  0  0  0  0  0
   57.2320   31.5610   44.1320 C   0  0  0  0  0  0  0  0  0  0  0  0
   58.4090   31.9250   44.7970 C   0  0  0  0  0  0  0  0  0  0  0  0
   58.9130   33.2190   44.6020 O   0  0  0  0  0  0  0  0  0  0  0  0
   58.4810   34.3720   45.2730 C   0  0  0  0  0  0  0  0  0  0  0  0
   57.4080   34.9470   44.9470 O   0  0  0  0  0  0  0  0  0  0  0  0
   59.2630   34.9190   46.3380 N   0  0  0  0  0  0  0  0  0  0  0  0
   60.3250   34.2350   47.0160 C   0  0  0  0  0  0  0  0  0  0  0  0
   61.5870   34.1850   46.4100 C   0  0  0  0  0  0  0  0  0  0  0  0
   62.6460   33.5180   47.0350 C   0  0  0  0  0  0  0  0  0  0  0  0
   62.4440   32.8800   48.2610 C   0  0  0  0  0  0  0  0  0  0  0  0
   61.1800   32.8960   48.8570 C   0  0  0  0  0  0  0  0  0  0  0  0
   60.1170   33.5620   48.2370 C   0  0  0  0  0  0  0  0  0  0  0  0
   58.8850   33.4950   48.7990 F   0  0  0  0  0  0  0  0  0  0  0  0
   59.0630   30.9760   45.6060 C   0  0  0  0  0  0  0  0  0  0  0  0
   58.5280   29.6930   45.7570 C   0  0  0  0  0  0  0  0  0  0  0  0
   57.1000   25.7340   45.8130 C   0  0  0  0  0  0  0  0  0  0  0  0
   55.8310   25.4050   46.3170 C   0  0  0  0  0  0  0  0  0  0  0  0
   54.7160   26.1750   45.9930 O   0  0  0  0  0  0  0  0  0  0  0  0
   55.6880   24.3380   47.1480 N   0  0  0  0  0  0  0  0  0  0  0  0
   56.7550   23.5840   47.5130 C   0  0  0  0  0  0  0  0  0  0  0  0
   56.5960   22.6020   48.2820 O   0  0  0  0  0  0  0  0  0  0  0  0
   57.9930   23.8920   47.0520 N   0  0  0  0  0  0  0  0  0  0  0  0
   58.1920   24.9450   46.2190 C   0  0  0  0  0  0  0  0  0  0  0  0
   59.3560   25.1960   45.8070 O   0  0  0  0  0  0  0  0  0  0  0  0
   59.1360   26.4934   43.8896 H   0  0  0  0  0  0  0  0  0  0  0  0
   57.6676   25.8898   43.0493 H   0  0  0  0  0  0  0  0  0  0  0  0
   58.0444   27.6462   43.0493 H   0  0  0  0  0  0  0  0  0  0  0  0
   55.7570   30.0140   43.7818 H   0  0  0  0  0  0  0  0  0  0  0  0
   56.7238   32.2897   43.4834 H   0  0  0  0  0  0  0  0  0  0  0  0
   61.7462   34.6730   45.4371 H   0  0  0  0  0  0  0  0  0  0  0  0
   63.6382   33.4960   46.5607 H   0  0  0  0  0  0  0  0  0  0  0  0
   63.2797   32.3650   48.7574 H   0  0  0  0  0  0  0  0  0  0  0  0
   61.0202   32.3832   49.8169 H   0  0  0  0  0  0  0  0  0  0  0  0
   59.9973   31.2447   46.1206 H   0  0  0  0  0  0  0  0  0  0  0  0
   59.0293   28.9641   46.4108 H   0  0  0  0  0  0  0  0  0  0  0  0
   54.7750   27.1850   45.9520 H   0  0  0  0  0  0  0  0  0  0  0  0
  1  2  1  0
  2  3  2  3
  3  4  1  0
  4  5  2  0
  5  6  1  0
  6  7  2  0
  7  8  1  0
  8  9  1  0
  9 10  2  0
  9 11  1  0
 11 12  1  0
 12 13  2  0
 13 14  1  0
 14 15  2  0
 15 16  1  0
 16 17  2  0
 17 18  1  0
  7 19  1  0
 19 20  2  0
  2 21  1  0
 21 22  2  0
 22 23  1  0
 22 24  1  0
 24 25  1  0
 25 26  2  0
 25 27  1  0
 27 28  1  0
 28 29  2  0
 20  4  1  0
 28 21  1  0
 17 12  1  0
  1 30  1  0
  1 31  1  0
  1 32  1  0
  5 33  1  0
  6 34  1  0
 13 35  1  0
 14 36  1  0
 15 37  1  0
 16 38  1  0
 19 39  1  0
 20 40  1  0
 23 41  1  0
M  CHG  3  11  -1  24  -1  27  -1
M  END
>  <UniqueID>  (56) 
50

>  <SMILES>  (56) 
CC(=Nc1ccc(OC(=O)[N-]c2ccccc2F)cc1)c1c(O)[n-]c(=O)[n-]c1=O

>  <Energy>  (56) 
67.69037437369767

>  <Genealogy>  (56) 
CC(=Nc1ccc(OC(=O)[N-]c2ccccc2F)cc1)c1c(O)[n-]c(=O)[n-]c1=O (protonated)
CC(=Nc1ccc(OC(=O)[N-]c2ccccc2F)cc1)c1c(O)[n-]c(=O)[n-]c1=O (3D coordinates assigned)
CC(=Nc1ccc(OC(=O)[N-]c2ccccc2F)cc1)c1c(O)[n-]c(=O)[n-]c1=O (optimized conformer: 67.69037437369767 kcal/mol)

>  <smiles>  (56) 
CC(=Nc1ccc(OC(=O)Nc2ccccc2F)cc1)c1c(O)[nH]c(=O)[nH]c1=O

>  <score_type>  (56) 
oracle

>  <origin>  (56) 
adg

>  <m_score__min__energy>  (56) 
-13.550000000000001

>  <m_primary>  (56) 
energy

$$$$
56:0
     RDKit          3D

 66 68  0  0  0  0  0  0  0  0999 V2000
   62.6390   34.2060   49.6240 C   0  0  0  0  0  0  0  0  0  0  0  0
   63.0770   33.2900   48.4830 C   0  0  0  0  0  0  0  0  0  0  0  0
   62.4260   33.6540   47.1710 C   0  0  0  0  0  0  0  0  0  0  0  0
   63.1080   34.2250   46.2790 O   0  0  0  0  0  0  0  0  0  0  0  0
   61.0580   33.3010   46.8950 N   0  0  0  0  0  0  0  0  0  0  0  0
   60.4340   32.1310   47.5300 C   0  0  0  0  0  0  0  0  0  0  0  0
   59.6030   31.3530   46.5000 C   0  0  0  0  0  0  0  0  0  0  0  0
   58.7700   32.2520   45.6830 N   0  0  0  0  0  0  0  0  0  0  0  0
   58.0650   31.7330   44.5380 C   0  0  0  0  0  0  0  0  0  0  0  0
   58.0870   32.4440   43.3280 C   0  0  0  0  0  0  0  0  0  0  0  0
   57.3940   31.9690   42.2130 C   0  0  0  0  0  0  0  0  0  0  0  0
   56.6670   30.7830   42.2950 C   0  0  0  0  0  0  0  0  0  0  0  0
   56.6390   30.0610   43.4910 C   0  0  0  0  0  0  0  0  0  0  0  0
   57.3370   30.5260   44.6210 C   0  0  0  0  0  0  0  0  0  0  0  0
   57.3570   29.7910   45.8160 O   0  0  0  0  0  0  0  0  0  0  0  0
   58.0190   28.5710   45.9940 C   0  0  0  0  0  0  0  0  0  0  0  0
   59.3000   28.4060   45.4590 C   0  0  0  0  0  0  0  0  0  0  0  0
   59.9850   27.2010   45.6300 C   0  0  0  0  0  0  0  0  0  0  0  0
   59.4060   26.1640   46.3640 C   0  0  0  0  0  0  0  0  0  0  0  0
   58.1300   26.3240   46.9280 C   0  0  0  0  0  0  0  0  0  0  0  0
   57.5590   25.2530   47.8190 C   0  0  0  0  0  0  0  0  0  0  0  0
   56.2990   24.6560   47.2340 C   0  0  0  0  0  0  0  0  0  0  0  0
   56.0040   23.4500   47.4630 O   0  0  0  0  0  0  0  0  0  0  0  0
   55.4570   25.4030   46.3500 N   0  0  0  0  0  0  0  0  0  0  0  0
   54.5580   24.8120   45.3660 C   0  0  0  0  0  0  0  0  0  0  0  0
   55.1670   23.5220   44.7930 C   0  0  0  0  0  0  0  0  0  0  0  0
   56.0810   23.7090   43.5540 C   0  0  0  0  0  0  0  0  0  0  0  0
   56.6300   22.3850   43.0120 C   0  0  0  0  0  0  0  0  0  0  0  0
   57.2200   24.7090   43.8080 C   0  0  0  0  0  0  0  0  0  0  0  0
   57.4360   27.5320   46.7340 C   0  0  0  0  0  0  0  0  0  0  0  0
   58.8100   33.7000   45.9230 C   0  0  0  0  0  0  0  0  0  0  0  0
   60.2670   34.1640   46.0020 C   0  0  0  0  0  0  0  0  0  0  0  0
   62.8681   33.7269   50.5873 H   0  0  0  0  0  0  0  0  0  0  0  0
   63.1770   35.1628   49.5532 H   0  0  0  0  0  0  0  0  0  0  0  0
   61.5565   34.3879   49.5532 H   0  0  0  0  0  0  0  0  0  0  0  0
   64.1685   33.3652   48.3687 H   0  0  0  0  0  0  0  0  0  0  0  0
   62.7682   32.2655   48.7379 H   0  0  0  0  0  0  0  0  0  0  0  0
   61.2186   31.4750   47.9349 H   0  0  0  0  0  0  0  0  0  0  0  0
   59.7746   32.4708   48.3423 H   0  0  0  0  0  0  0  0  0  0  0  0
   60.2840   30.7980   45.8381 H   0  0  0  0  0  0  0  0  0  0  0  0
   58.9368   30.6670   47.0437 H   0  0  0  0  0  0  0  0  0  0  0  0
   58.6550   33.3834   43.2577 H   0  0  0  0  0  0  0  0  0  0  0  0
   57.4219   32.5318   41.2683 H   0  0  0  0  0  0  0  0  0  0  0  0
   56.1148   30.4150   41.4177 H   0  0  0  0  0  0  0  0  0  0  0  0
   56.0676   29.1229   43.5496 H   0  0  0  0  0  0  0  0  0  0  0  0
   59.7705   29.2289   44.9009 H   0  0  0  0  0  0  0  0  0  0  0  0
   60.9825   27.0687   45.1856 H   0  0  0  0  0  0  0  0  0  0  0  0
   59.9512   25.2185   46.5009 H   0  0  0  0  0  0  0  0  0  0  0  0
   58.3070   24.4562   47.9439 H   0  0  0  0  0  0  0  0  0  0  0  0
   57.3061   25.7095   48.7873 H   0  0  0  0  0  0  0  0  0  0  0  0
   53.5973   24.5769   45.8474 H   0  0  0  0  0  0  0  0  0  0  0  0
   54.4036   25.5293   44.5464 H   0  0  0  0  0  0  0  0  0  0  0  0
   55.7637   23.0474   45.5859 H   0  0  0  0  0  0  0  0  0  0  0  0
   54.3174   22.9118   44.4526 H   0  0  0  0  0  0  0  0  0  0  0  0
   55.4306   24.1347   42.7757 H   0  0  0  0  0  0  0  0  0  0  0  0
   56.9019   21.7293   43.8524 H   0  0  0  0  0  0  0  0  0  0  0  0
   55.8615   21.8936   42.3973 H   0  0  0  0  0  0  0  0  0  0  0  0
   57.5208   22.5816   42.3973 H   0  0  0  0  0  0  0  0  0  0  0  0
   57.3629   24.8345   44.8914 H   0  0  0  0  0  0  0  0  0  0  0  0
   58.1487   24.3292   43.3572 H   0  0  0  0  0  0  0  0  0  0  0  0
   56.9636   25.6791   43.3572 H   0  0  0  0  0  0  0  0  0  0  0  0
   56.4321   27.6623   47.1644 H   0  0  0  0  0  0  0  0  0  0  0  0
   58.3029   34.2225   45.0985 H   0  0  0  0  0  0  0  0  0  0  0  0
   58.3003   33.9289   46.8705 H   0  0  0  0  0  0  0  0  0  0  0  0
   60.7070   34.1350   44.9942 H   0  0  0  0  0  0  0  0  0  0  0  0
   60.2831   35.1871   46.4057 H   0  0  0  0  0  0  0  0  0  0  0  0
  1  2  1  0
  2  3  1  0
  3  4  2  0
  3  5  1  0
  5  6  1  0
  6  7  1  0
  7  8  1  0
  8  9  1  0
  9 10  2  0
 10 11  1  0
 11 12  2  0
 12 13  1  0
 13 14  2  0
 14 15  1  0
 15 16  1  0
 16 17  2  0
 17 18  1  0
 18 19  2  0
 19 20  1  0
 20 21  1  0
 21 22  1  0
 22 23  2  0
 22 24  1  0
 24 25  1  0
 25 26  1  0
 26 27  1  0
 27 28  1  0
 27 29  1  0
 20 30  2  0
  8 31  1  0
 31 32  1  0
 32  5  1  0
 14  9  1  0
 30 16  1  0
  1 33  1  0
  1 34  1  0
  1 35  1  0
  2 36  1  0
  2 37  1  0
  6 38  1  0
  6 39  1  0
  7 40  1  0
  7 41  1  0
 10 42  1  0
 11 43  1  0
 12 44  1  0
 13 45  1  0
 17 46  1  0
 18 47  1  0
 19 48  1  0
 21 49  1  0
 21 50  1  0
 25 51  1  0
 25 52  1  0
 26 53  1  0
 26 54  1  0
 27 55  1  0
 28 56  1  0
 28 57  1  0
 28 58  1  0
 29 59  1  0
 29 60  1  0
 29 61  1  0
 30 62  1  0
 31 63  1  0
 31 64  1  0
 32 65  1  0
 32 66  1  0
M  CHG  1  24  -1
M  END
>  <UniqueID>  (57) 
51

>  <SMILES>  (57) 
CCC(=O)N1CCN(c2ccccc2Oc2cccc(CC(=O)[N-]CCC(C)C)c2)CC1

>  <Energy>  (57) 
70.92746859126392

>  <Genealogy>  (57) 
CCC(=O)N1CCN(c2ccccc2Oc2cccc(CC(=O)[N-]CCC(C)C)c2)CC1 (protonated)
CCC(=O)N1CCN(c2ccccc2Oc2cccc(CC(=O)[N-]CCC(C)C)c2)CC1 (3D coordinates assigned)
CCC(=O)N1CCN(c2ccccc2Oc2cccc(CC(=O)[N-]CCC(C)C)c2)CC1 (nonaromatic ring conformer: 70.92746859126392 kcal/mol)

>  <smiles>  (57) 
CCC(=O)N1CCN(c2ccccc2Oc2cccc(CC(=O)NCCC(C)C)c2)CC1

>  <score_type>  (57) 
oracle

>  <origin>  (57) 
adg

>  <m_score__min__energy>  (57) 
-11.18

>  <m_primary>  (57) 
energy

$$$$
57:0
     RDKit          3D

 35 36  0  0  0  0  0  0  0  0999 V2000
   50.6840   31.6620   54.2810 C   0  0  0  0  0  0  0  0  0  0  0  0
   51.7930   31.3930   53.3060 C   0  0  0  0  0  0  0  0  0  0  0  0
   52.9040   30.6210   53.6880 C   0  0  0  0  0  0  0  0  0  0  0  0
   53.9490   30.3850   52.7840 C   0  0  0  0  0  0  0  0  0  0  0  0
   55.3500   29.4330   53.2690 S   0  0  0  0  0  0  0  0  0  0  0  0
   54.9110   28.0210   53.5320 O   0  0  0  0  0  0  0  0  0  0  0  0
   55.9700   29.9960   54.5170 O   0  0  0  0  0  0  0  0  0  0  0  0
   56.5330   29.4350   52.0010 N   0  0  0  0  0  0  0  0  0  0  0  0
   57.3450   30.5570   51.6280 C   0  0  0  0  0  0  0  0  0  0  0  0
   57.3610   31.7480   52.3730 C   0  0  0  0  0  0  0  0  0  0  0  0
   58.1550   32.8320   51.9670 C   0  0  0  0  0  0  0  0  0  0  0  0
   58.1530   34.1090   52.7610 C   0  0  0  0  0  0  0  0  0  0  0  0
   58.9440   32.7200   50.8100 C   0  0  0  0  0  0  0  0  0  0  0  0
   59.7260   33.7950   50.3960 O   0  0  0  0  0  0  0  0  0  0  0  0
   58.9450   31.5260   50.0680 C   0  0  0  0  0  0  0  0  0  0  0  0
   59.7790   31.4080   48.8240 C   0  0  0  0  0  0  0  0  0  0  0  0
   58.1400   30.4540   50.4820 C   0  0  0  0  0  0  0  0  0  0  0  0
   53.8830   30.9180   51.4910 C   0  0  0  0  0  0  0  0  0  0  0  0
   52.7850   31.6910   51.1070 C   0  0  0  0  0  0  0  0  0  0  0  0
   51.7440   31.9330   52.0070 C   0  0  0  0  0  0  0  0  0  0  0  0
   50.6630   32.7120   51.6080 O   0  0  0  0  0  0  0  0  0  0  0  0
   51.0678   31.5689   55.3077 H   0  0  0  0  0  0  0  0  0  0  0  0
   50.2974   32.6800   54.1249 H   0  0  0  0  0  0  0  0  0  0  0  0
   49.8740   30.9343   54.1249 H   0  0  0  0  0  0  0  0  0  0  0  0
   52.9536   30.1994   54.7028 H   0  0  0  0  0  0  0  0  0  0  0  0
   56.7465   31.8317   53.2815 H   0  0  0  0  0  0  0  0  0  0  0  0
   58.1534   33.8728   53.8353 H   0  0  0  0  0  0  0  0  0  0  0  0
   59.0502   34.6956   52.5142 H   0  0  0  0  0  0  0  0  0  0  0  0
   57.2539   34.6928   52.5142 H   0  0  0  0  0  0  0  0  0  0  0  0
   60.8328   31.2589   49.1018 H   0  0  0  0  0  0  0  0  0  0  0  0
   59.4316   30.5501   48.2297 H   0  0  0  0  0  0  0  0  0  0  0  0
   59.6832   32.3286   48.2297 H   0  0  0  0  0  0  0  0  0  0  0  0
   58.1341   29.5216   49.8984 H   0  0  0  0  0  0  0  0  0  0  0  0
   54.6973   30.7276   50.7764 H   0  0  0  0  0  0  0  0  0  0  0  0
   52.7396   32.1112   50.0914 H   0  0  0  0  0  0  0  0  0  0  0  0
  1  2  1  0
  2  3  2  0
  3  4  1  0
  4  5  1  0
  5  6  2  0
  5  7  2  0
  5  8  1  0
  8  9  1  0
  9 10  2  0
 10 11  1  0
 11 12  1  0
 11 13  2  0
 13 14  1  0
 13 15  1  0
 15 16  1  0
 15 17  2  0
  4 18  2  0
 18 19  1  0
 19 20  2  0
 20 21  1  0
 20  2  1  0
 17  9  1  0
  1 22  1  0
  1 23  1  0
  1 24  1  0
  3 25  1  0
 10 26  1  0
 12 27  1  0
 12 28  1  0
 12 29  1  0
 16 30  1  0
 16 31  1  0
 16 32  1  0
 17 33  1  0
 18 34  1  0
 19 35  1  0
M  CHG  3   8  -1  14  -1  21  -1
M  END
>  <UniqueID>  (58) 
52

>  <SMILES>  (58) 
Cc1cc(S(=O)(=O)[N-]c2cc(C)c([O-])c(C)c2)ccc1[O-]

>  <Energy>  (58) 
37.79847219025724

>  <Genealogy>  (58) 
Cc1cc(S(=O)(=O)[N-]c2cc(C)c([O-])c(C)c2)ccc1[O-] (protonated)
Cc1cc(S(=O)(=O)[N-]c2cc(C)c([O-])c(C)c2)ccc1[O-] (3D coordinates assigned)
Cc1cc(S(=O)(=O)[N-]c2cc(C)c([O-])c(C)c2)ccc1[O-] (optimized conformer: 37.79847219025724 kcal/mol)

>  <smiles>  (58) 
Cc1cc(S(=O)(=O)Nc2cc(C)c(O)c(C)c2)ccc1O

>  <score_type>  (58) 
oracle

>  <origin>  (58) 
adg

>  <m_score__min__energy>  (58) 
-12.220000000000001

>  <m_primary>  (58) 
energy

$$$$
58:0
     RDKit          3D

 37 39  0  0  0  0  0  0  0  0999 V2000
   60.3149   26.8087   45.4761 H   0  0  0  0  0  0  0  0  0  0  0  0
   59.2210   26.7800   45.5880 C   0  0  0  0  0  0  0  0  0  0  0  0
   58.5030   27.9340   45.5480 N   0  0  0  0  0  0  0  0  0  0  0  0
   57.1450   27.9480   45.6820 C   0  0  0  0  0  0  0  0  0  0  0  0
   56.4740   29.0630   45.6360 N   0  0  0  0  0  0  0  0  0  0  0  0
   55.9340   29.7070   44.4680 C   0  0  0  0  0  0  0  0  0  0  0  0
   54.8010   29.3750   44.0240 O   0  0  0  0  0  0  0  0  0  0  0  0
   56.7190   30.7490   43.7520 C   0  0  0  0  0  0  0  0  0  0  0  0
   56.6130   30.8380   42.3500 C   0  0  0  0  0  0  0  0  0  0  0  0
   55.9503   30.1453   41.8105 H   0  0  0  0  0  0  0  0  0  0  0  0
   57.3390   31.7950   41.6360 C   0  0  0  0  0  0  0  0  0  0  0  0
   57.2406   31.8551   40.5421 H   0  0  0  0  0  0  0  0  0  0  0  0
   58.1870   32.6730   42.3070 C   0  0  0  0  0  0  0  0  0  0  0  0
   58.7668   33.4176   41.7418 H   0  0  0  0  0  0  0  0  0  0  0  0
   58.3010   32.6080   43.6960 C   0  0  0  0  0  0  0  0  0  0  0  0
   58.9809   33.2962   44.2196 H   0  0  0  0  0  0  0  0  0  0  0  0
   57.5550   31.6710   44.4330 C   0  0  0  0  0  0  0  0  0  0  0  0
   57.7000   31.6160   45.8620 N   0  0  0  0  0  0  0  0  0  0  0  0
   58.4480   32.3800   46.6100 C   0  0  0  0  0  0  0  0  0  0  0  0
   58.1320   33.7420   46.7000 C   0  0  0  0  0  0  0  0  0  0  0  0
   57.2664   34.1448   46.1537 H   0  0  0  0  0  0  0  0  0  0  0  0
   58.9190   34.5860   47.4850 C   0  0  0  0  0  0  0  0  0  0  0  0
   58.6663   35.6536   47.5650 H   0  0  0  0  0  0  0  0  0  0  0  0
   59.9950   34.0940   48.1500 N   0  0  0  0  0  0  0  0  0  0  0  0
   60.3480   32.7830   48.0700 C   0  0  0  0  0  0  0  0  0  0  0  0
   61.5380   32.2860   48.8270 C   0  0  0  0  0  0  0  0  0  0  0  0
   61.3453   32.3665   49.9070 H   0  0  0  0  0  0  0  0  0  0  0  0
   61.7259   31.2342   48.5654 H   0  0  0  0  0  0  0  0  0  0  0  0
   62.4181   32.8917   48.5654 H   0  0  0  0  0  0  0  0  0  0  0  0
   59.5800   31.8990   47.3000 C   0  0  0  0  0  0  0  0  0  0  0  0
   59.8584   30.8368   47.2343 H   0  0  0  0  0  0  0  0  0  0  0  0
   56.4610   26.7370   45.8690 C   0  0  0  0  0  0  0  0  0  0  0  0
   55.0780   26.7170   46.0140 O   0  0  0  0  0  0  0  0  0  0  0  0
   57.1810   25.5410   45.9130 C   0  0  0  0  0  0  0  0  0  0  0  0
   56.6546   24.5863   46.0593 H   0  0  0  0  0  0  0  0  0  0  0  0
   58.5700   25.5590   45.7710 C   0  0  0  0  0  0  0  0  0  0  0  0
   59.1446   24.6216   45.8030 H   0  0  0  0  0  0  0  0  0  0  0  0
  1  2  1  0
  2  3  1  0
  3  4  1  0
  4  5  2  0
  5  6  1  0
  6  7  2  0
  6  8  1  0
  8  9  2  0
  9 10  1  0
  9 11  1  0
 11 12  1  0
 11 13  2  0
 13 14  1  0
 13 15  1  0
 15 16  1  0
 15 17  2  0
 17 18  1  0
 18 19  2  3
 19 20  1  0
 20 21  1  0
 20 22  2  0
 22 23  1  0
 22 24  1  0
 24 25  1  0
 25 26  1  0
 26 27  1  0
 26 28  1  0
 26 29  1  0
 25 30  2  0
 30 31  1  0
  4 32  1  0
 32 33  1  0
 32 34  2  0
 34 35  1  0
 34 36  1  0
 36 37  1  0
 36  2  2  0
 17  8  1  0
 30 19  1  0
M  CHG  3   3  -1  24  -1  33  -1
M  END
>  <UniqueID>  (59) 
53

>  <SMILES>  (59) 
Cc1cc(=Nc2ccccc2C(=O)/N=c2\[n-]cccc2[O-])cc[n-]1

>  <Energy>  (59) 
55.737936367132434

>  <Genealogy>  (59) 
Cc1cc(=Nc2ccccc2C(=O)N=c2[n-]cccc2[O-])cc[n-]1 (protonated)
Cc1cc(=Nc2ccccc2C(=O)/N=c2\[n-]cccc2[O-])cc[n-]1 (cis-trans isomerization)
Cc1cc(=Nc2ccccc2C(=O)/N=c2\[n-]cccc2[O-])cc[n-]1 (3D coordinates assigned)
Cc1cc(=Nc2ccccc2C(=O)/N=c2\[n-]cccc2[O-])cc[n-]1 (optimized conformer: 55.737936367132434 kcal/mol)

>  <smiles>  (59) 
Cc1cc(=Nc2ccccc2C(=O)N=c2[nH]cccc2O)cc[nH]1

>  <score_type>  (59) 
oracle

>  <origin>  (59) 
adg

>  <m_score__min__energy>  (59) 
-14.029999999999999

>  <m_primary>  (59) 
energy

$$$$
59:0
     RDKit          3D

 38 40  0  0  0  0  0  0  0  0999 V2000
   59.5238   25.1623   46.0702 H   0  0  0  0  0  0  0  0  0  0  0  0
   58.4540   25.4180   46.0850 C   0  0  0  0  0  0  0  0  0  0  0  0
   58.0450   26.6490   45.6810 N   0  0  0  0  0  0  0  0  0  0  0  0
   56.7360   27.0250   45.6830 C   0  0  0  0  0  0  0  0  0  0  0  0
   56.4540   28.2370   45.2870 N   0  0  0  0  0  0  0  0  0  0  0  0
   57.1970   29.4430   45.5030 C   0  0  0  0  0  0  0  0  0  0  0  0
   56.6620   30.5460   45.2150 O   0  0  0  0  0  0  0  0  0  0  0  0
   58.5810   29.3830   45.8820 N   0  0  0  0  0  0  0  0  0  0  0  0
   59.0770   28.4730   45.7520 H   0  0  0  0  0  0  0  0  0  0  0  0
   59.3430   30.5160   46.3350 C   0  0  0  0  0  0  0  0  0  0  0  0
   60.6960   30.3480   46.6600 C   0  0  0  0  0  0  0  0  0  0  0  0
   61.1651   29.3594   46.5481 H   0  0  0  0  0  0  0  0  0  0  0  0
   61.4540   31.4260   47.1250 C   0  0  0  0  0  0  0  0  0  0  0  0
   62.5150   31.2810   47.3764 H   0  0  0  0  0  0  0  0  0  0  0  0
   60.8670   32.6950   47.2730 C   0  0  0  0  0  0  0  0  0  0  0  0
   61.6190   33.8120   47.7770 N   0  0  0  0  0  0  0  0  0  0  0  0
   61.3860   34.7630   47.4090 H   0  0  0  0  0  0  0  0  0  0  0  0
   62.6720   33.7100   48.7510 C   0  0  0  0  0  0  0  0  0  0  0  0
   62.4850   34.2620   50.0280 C   0  0  0  0  0  0  0  0  0  0  0  0
   61.5306   34.7478   50.2792 H   0  0  0  0  0  0  0  0  0  0  0  0
   63.5050   34.1980   50.9830 C   0  0  0  0  0  0  0  0  0  0  0  0
   63.3464   34.6212   51.9859 H   0  0  0  0  0  0  0  0  0  0  0  0
   64.7250   33.5970   50.6640 C   0  0  0  0  0  0  0  0  0  0  0  0
   65.5246   33.5424   51.4174 H   0  0  0  0  0  0  0  0  0  0  0  0
   64.9300   33.0650   49.3880 C   0  0  0  0  0  0  0  0  0  0  0  0
   65.8928   32.5963   49.1362 H   0  0  0  0  0  0  0  0  0  0  0  0
   63.9120   33.1280   48.4310 C   0  0  0  0  0  0  0  0  0  0  0  0
   64.0818   32.7206   47.4235 H   0  0  0  0  0  0  0  0  0  0  0  0
   59.5020   32.8520   46.9930 C   0  0  0  0  0  0  0  0  0  0  0  0
   59.0232   33.8311   47.1418 H   0  0  0  0  0  0  0  0  0  0  0  0
   58.7450   31.7730   46.5260 C   0  0  0  0  0  0  0  0  0  0  0  0
   57.6756   31.9090   46.3070 H   0  0  0  0  0  0  0  0  0  0  0  0
   55.7560   26.0760   46.0750 C   0  0  0  0  0  0  0  0  0  0  0  0
   54.3930   26.3340   45.9950 O   0  0  0  0  0  0  0  0  0  0  0  0
   56.1680   24.8120   46.5090 C   0  0  0  0  0  0  0  0  0  0  0  0
   55.4209   24.0778   46.8447 H   0  0  0  0  0  0  0  0  0  0  0  0
   57.5200   24.4790   46.5180 C   0  0  0  0  0  0  0  0  0  0  0  0
   57.8467   23.4868   46.8627 H   0  0  0  0  0  0  0  0  0  0  0  0
  1  2  1  0
  2  3  1  0
  3  4  1  0
  4  5  2  0
  5  6  1  0
  6  7  2  0
  6  8  1  0
  8  9  1  0
  8 10  1  0
 10 11  2  0
 11 12  1  0
 11 13  1  0
 13 14  1  0
 13 15  2  0
 15 16  1  0
 16 17  1  0
 16 18  1  0
 18 19  2  0
 19 20  1  0
 19 21  1  0
 21 22  1  0
 21 23  2  0
 23 24  1  0
 23 25  1  0
 25 26  1  0
 25 27  2  0
 27 28  1  0
 15 29  1  0
 29 30  1  0
 29 31  2  0
 31 32  1  0
  4 33  1  0
 33 34  1  0
 33 35  2  0
 35 36  1  0
 35 37  1  0
 37 38  1  0
 37  2  2  0
 31 10  1  0
 27 18  1  0
M  CHG  2   3  -1  34  -1
M  END
>  <UniqueID>  (60) 
54

>  <SMILES>  (60) 
O=C(/N=c1/[n-]cccc1[O-])Nc1ccc(Nc2ccccc2)cc1

>  <Energy>  (60) 
61.844070831187

>  <Genealogy>  (60) 
O=C(N=c1[n-]cccc1[O-])Nc1ccc(Nc2ccccc2)cc1 (protonated)
O=C(/N=c1/[n-]cccc1[O-])Nc1ccc(Nc2ccccc2)cc1 (cis-trans isomerization)
O=C(/N=c1/[n-]cccc1[O-])Nc1ccc(Nc2ccccc2)cc1 (3D coordinates assigned)
O=C(/N=c1/[n-]cccc1[O-])Nc1ccc(Nc2ccccc2)cc1 (optimized conformer: 61.844070831187 kcal/mol)

>  <smiles>  (60) 
O=C(N=c1[nH]cccc1O)Nc1ccc(Nc2ccccc2)cc1

>  <score_type>  (60) 
oracle

>  <origin>  (60) 
adg

>  <m_score__min__energy>  (60) 
-12.529999999999999

>  <m_primary>  (60) 
energy

$$$$
60:0
     RDKit          3D

 39 41  0  0  0  0  0  0  0  0999 V2000
   57.8860   31.8600   42.1780 O   0  0  0  0  0  0  0  0  0  0  0  0
   58.1360   32.1140   43.3870 C   0  0  0  0  0  0  0  0  0  0  0  0
   58.5060   33.4460   43.7450 N   0  0  0  0  0  0  0  0  0  0  0  0
   58.6520   33.8400   45.1100 C   0  0  0  0  0  0  0  0  0  0  0  0
   58.9830   35.0270   45.3720 O   0  0  0  0  0  0  0  0  0  0  0  0
   58.4070   32.8970   46.1720 N   0  0  0  0  0  0  0  0  0  0  0  0
   58.5980   33.2980   47.5750 C   0  0  0  0  0  0  0  0  0  0  0  0
   60.0550   33.2160   47.9500 C   0  0  0  0  0  0  0  0  0  0  0  0
   60.5700   34.0270   48.9750 C   0  0  0  0  0  0  0  0  0  0  0  0
   61.9290   33.9770   49.2990 C   0  0  0  0  0  0  0  0  0  0  0  0
   62.7850   33.1200   48.6000 C   0  0  0  0  0  0  0  0  0  0  0  0
   64.4900   33.0590   49.0070 Cl  0  0  0  0  0  0  0  0  0  0  0  0
   62.2810   32.3120   47.5760 C   0  0  0  0  0  0  0  0  0  0  0  0
   60.9220   32.3610   47.2500 C   0  0  0  0  0  0  0  0  0  0  0  0
   58.0570   31.5330   45.8520 C   0  0  0  0  0  0  0  0  0  0  0  0
   57.7980   30.7200   46.7820 O   0  0  0  0  0  0  0  0  0  0  0  0
   58.0050   31.0740   44.4390 C   0  0  0  0  0  0  0  0  0  0  0  0
   57.8230   29.7610   44.1690 C   0  0  0  0  0  0  0  0  0  0  0  0
   58.4810   28.6470   44.8840 C   0  0  0  0  0  0  0  0  0  0  0  0
   59.8860   28.6230   44.9310 C   0  0  0  0  0  0  0  0  0  0  0  0
   60.5560   27.6420   45.6610 C   0  0  0  0  0  0  0  0  0  0  0  0
   59.8350   26.6850   46.3710 C   0  0  0  0  0  0  0  0  0  0  0  0
   60.4900   25.7350   47.0820 F   0  0  0  0  0  0  0  0  0  0  0  0
   58.4390   26.7040   46.3520 C   0  0  0  0  0  0  0  0  0  0  0  0
   57.7390   27.6790   45.6150 C   0  0  0  0  0  0  0  0  0  0  0  0
   56.2520   27.6350   45.6170 C   0  0  0  0  0  0  0  0  0  0  0  0
   55.5690   28.6090   45.2030 O   0  0  0  0  0  0  0  0  0  0  0  0
   55.5870   26.4950   46.0540 O   0  0  0  0  0  0  0  0  0  0  0  0
   58.6450   34.1570   42.9910 H   0  0  0  0  0  0  0  0  0  0  0  0
   58.2471   34.3321   47.7076 H   0  0  0  0  0  0  0  0  0  0  0  0
   58.0238   32.6186   48.2221 H   0  0  0  0  0  0  0  0  0  0  0  0
   59.9007   34.7046   49.5253 H   0  0  0  0  0  0  0  0  0  0  0  0
   62.3255   34.6124   50.1046 H   0  0  0  0  0  0  0  0  0  0  0  0
   62.9540   31.6374   47.0265 H   0  0  0  0  0  0  0  0  0  0  0  0
   60.5300   31.7267   46.4413 H   0  0  0  0  0  0  0  0  0  0  0  0
   57.1314   29.5021   43.3538 H   0  0  0  0  0  0  0  0  0  0  0  0
   60.4623   29.3856   44.3866 H   0  0  0  0  0  0  0  0  0  0  0  0
   61.6557   27.6239   45.6762 H   0  0  0  0  0  0  0  0  0  0  0  0
   57.8783   25.9473   46.9203 H   0  0  0  0  0  0  0  0  0  0  0  0
  1  2  2  0
  2  3  1  0
  3  4  1  0
  4  5  2  0
  4  6  1  0
  6  7  1  0
  7  8  1  0
  8  9  2  0
  9 10  1  0
 10 11  2  0
 11 12  1  0
 11 13  1  0
 13 14  2  0
  6 15  1  0
 15 16  2  0
 15 17  1  0
 17 18  2  3
 18 19  1  0
 19 20  2  0
 20 21  1  0
 21 22  2  0
 22 23  1  0
 22 24  1  0
 24 25  2  0
 25 26  1  0
 26 27  2  0
 26 28  1  0
 17  2  1  0
 25 19  1  0
 14  8  1  0
  3 29  1  0
  7 30  1  0
  7 31  1  0
  9 32  1  0
 10 33  1  0
 13 34  1  0
 14 35  1  0
 18 36  1  0
 20 37  1  0
 21 38  1  0
 24 39  1  0
M  CHG  1  28  -1
M  END
>  <UniqueID>  (61) 
55

>  <SMILES>  (61) 
O=C1NC(=O)N(Cc2ccc(Cl)cc2)C(=O)C1=Cc1ccc(F)cc1C(=O)[O-]

>  <Energy>  (61) 
54.25793516099977

>  <Genealogy>  (61) 
O=C1NC(=O)N(Cc2ccc(Cl)cc2)C(=O)C1=Cc1ccc(F)cc1C(=O)[O-] (protonated)
O=C1NC(=O)N(Cc2ccc(Cl)cc2)C(=O)C1=Cc1ccc(F)cc1C(=O)[O-] (3D coordinates assigned)
O=C1NC(=O)N(Cc2ccc(Cl)cc2)C(=O)C1=Cc1ccc(F)cc1C(=O)[O-] (nonaromatic ring conformer: 54.25793516099977 kcal/mol)

>  <smiles>  (61) 
O=C1NC(=O)N(Cc2ccc(Cl)cc2)C(=O)C1=Cc1ccc(F)cc1C(=O)O

>  <score_type>  (61) 
oracle

>  <origin>  (61) 
adg

>  <m_score__min__energy>  (61) 
-11.73

>  <m_primary>  (61) 
energy

$$$$
61:0
     RDKit          3D

 15 15  0  0  0  0  0  0  0  0999 V2000
   58.5910   23.8630   46.3710 N   0  0  0  0  0  0  0  0  0  0  0  0
   58.0520   25.1540   46.0850 C   0  0  0  0  0  0  0  0  0  0  0  0
   58.8840   26.1930   45.6700 C   0  0  0  0  0  0  0  0  0  0  0  0
   58.3370   27.4490   45.3930 C   0  0  0  0  0  0  0  0  0  0  0  0
   59.1050   28.3730   45.0130 O   0  0  0  0  0  0  0  0  0  0  0  0
   56.9470   27.6670   45.5350 C   0  0  0  0  0  0  0  0  0  0  0  0
   56.3410   29.0000   45.2450 C   0  0  0  0  0  0  0  0  0  0  0  0
   55.1440   29.0960   44.8660 O   0  0  0  0  0  0  0  0  0  0  0  0
   57.0840   30.1660   45.3880 O   0  0  0  0  0  0  0  0  0  0  0  0
   56.1490   26.5790   45.9600 C   0  0  0  0  0  0  0  0  0  0  0  0
   54.7750   26.7140   46.1290 O   0  0  0  0  0  0  0  0  0  0  0  0
   56.7180   25.3720   46.2180 N   0  0  0  0  0  0  0  0  0  0  0  0
   57.9760   23.1100   46.7530 H   0  0  0  0  0  0  0  0  0  0  0  0
   59.6000   23.6540   46.2050 H   0  0  0  0  0  0  0  0  0  0  0  0
   59.9656   26.0250   45.5611 H   0  0  0  0  0  0  0  0  0  0  0  0
  1  2  1  0
  2  3  2  0
  3  4  1  0
  4  5  2  0
  4  6  1  0
  6  7  1  0
  7  8  2  0
  7  9  1  0
  6 10  2  0
 10 11  1  0
 10 12  1  0
 12  2  1  0
  1 13  1  0
  1 14  1  0
  3 15  1  0
M  CHG  3   9  -1  11  -1  12  -1
M  END
>  <UniqueID>  (62) 
56

>  <SMILES>  (62) 
Nc1cc(=O)c(C(=O)[O-])c([O-])[n-]1

>  <Energy>  (62) 
17.805444869924887

>  <Genealogy>  (62) 
Nc1cc(=O)c(C(=O)[O-])c([O-])[n-]1 (protonated)
Nc1cc(=O)c(C(=O)[O-])c([O-])[n-]1 (3D coordinates assigned)
Nc1cc(=O)c(C(=O)[O-])c([O-])[n-]1 (optimized conformer: 17.805444869924887 kcal/mol)

>  <smiles>  (62) 
Nc1cc(=O)c(C(=O)O)c(O)[nH]1

>  <score_type>  (62) 
oracle

>  <origin>  (62) 
adg

>  <m_score__min__energy>  (62) 
-13.83

>  <m_primary>  (62) 
energy

$$$$
62:0
     RDKit          3D

 73 77  0  0  1  0  0  0  0  0999 V2000
   59.0350   29.7270   47.9850 O   0  0  0  0  0  0  0  0  0  0  0  0
   60.1310   30.1370   48.5440 C   0  0  0  0  0  0  0  0  0  0  0  0
   60.3870   29.4460   49.7940 C   0  0  0  0  0  0  0  0  0  0  0  0
   59.5620   29.2480   50.7730 C   0  0  0  0  0  0  0  0  0  0  0  0
   58.5090   30.1250   51.2020 C   0  0  0  0  0  0  0  0  0  0  0  0
   58.8170   31.4830   51.2400 C   0  0  0  0  0  0  0  0  0  0  0  0
   57.8450   32.3420   51.6830 C   0  0  0  0  0  0  0  0  0  0  0  0
   56.5880   31.9620   52.0940 C   0  0  0  0  0  0  0  0  0  0  0  0
   56.3220   30.5960   52.0410 C   0  0  0  0  0  0  0  0  0  0  0  0
   57.2860   29.8100   51.6080 N   0  0  0  0  0  0  0  0  0  0  0  0
   60.7970   31.1120   47.8550 N   0  0  0  0  0  0  0  0  0  0  0  0
   61.4830   32.0450   48.3530 C   0  0  0  0  0  0  0  0  0  0  0  0
   62.7900   31.7340   48.6280 N   0  0  0  0  0  0  0  0  0  0  0  0
   63.6590   32.6460   49.0840 C   0  0  0  0  0  0  0  0  0  0  0  0
   64.8580   32.3560   49.3360 O   0  0  0  0  0  0  0  0  0  0  0  0
   63.2350   33.8830   49.2710 N   0  0  0  0  0  0  0  0  0  0  0  0
   61.9730   34.2280   49.0170 C   0  0  0  0  0  0  0  0  0  0  0  0
   61.0050   33.3100   48.5350 C   0  0  0  0  0  0  0  0  0  0  0  0
   59.6620   33.8090   48.4010 C   0  0  0  0  0  0  0  0  0  0  0  0
   59.0470   33.6580   47.0330 C   0  0  0  0  0  0  0  0  0  0  0  0
   59.0580   34.7040   46.1130 C   0  0  0  0  0  0  0  0  0  0  0  0
   58.5300   34.5610   44.8490 C   0  0  0  0  0  0  0  0  0  0  0  0
   57.9860   33.3440   44.5150 C   0  0  0  0  0  0  0  0  0  0  0  0
   57.9410   32.2700   45.3700 C   0  0  0  0  0  0  0  0  0  0  0  0
   57.3920   30.9750   45.0460 C   0  0  0  0  0  0  0  0  0  0  0  0
   56.2420   31.0120   44.4490 O   0  0  0  0  0  0  0  0  0  0  0  0
   57.9150   29.7210   45.2840 N   0  0  0  0  0  0  0  0  0  0  0  0
   59.3900   29.6780   45.1650 C   0  0  0  0  0  0  0  0  0  0  0  0
   60.0290   28.3790   44.9440 C   0  0  0  0  0  0  0  0  0  0  0  0
   60.1610   27.3580   46.0440 C   0  0  0  0  0  0  0  0  0  0  0  0
   58.8580   26.6760   46.3570 N   0  0  0  0  0  0  0  0  0  0  0  0
   58.9610   25.4080   45.6550 C   0  0  0  0  0  0  0  0  0  0  0  0
   57.6790   24.8240   45.2630 C   0  0  0  0  0  0  0  0  0  0  0  0
   56.7350   24.5490   46.2180 C   0  0  0  0  0  0  0  0  0  0  0  0
   55.5170   23.9990   45.9360 C   0  0  0  0  0  0  0  0  0  0  0  0
   55.2400   23.7090   44.6030 C   0  0  0  0  0  0  0  0  0  0  0  0
   56.1570   23.9670   43.6010 C   0  0  0  0  0  0  0  0  0  0  0  0
   57.3780   24.5280   43.9530 C   0  0  0  0  0  0  0  0  0  0  0  0
   57.8420   27.4980   46.0360 C   0  0  0  0  0  0  0  0  0  0  0  0
   57.0290   28.5900   45.6120 C   0  0  0  0  0  0  0  0  0  0  0  0
   58.4860   32.4490   46.6470 C   0  0  0  0  0  0  0  0  0  0  0  0
   61.4018   29.0425   49.9259 H   0  0  0  0  0  0  0  0  0  0  0  0
   59.6806   28.3096   51.3346 H   0  0  0  0  0  0  0  0  0  0  0  0
   59.8043   31.8526   50.9259 H   0  0  0  0  0  0  0  0  0  0  0  0
   58.0878   33.4145   51.7121 H   0  0  0  0  0  0  0  0  0  0  0  0
   55.8410   32.6906   52.4422 H   0  0  0  0  0  0  0  0  0  0  0  0
   55.3468   30.1902   52.3482 H   0  0  0  0  0  0  0  0  0  0  0  0
   63.1640   30.7650   48.4930 H   0  0  0  0  0  0  0  0  0  0  0  0
   63.9130   34.5890   49.6240 H   0  0  0  0  0  0  0  0  0  0  0  0
   61.6685   35.2710   49.1888 H   0  0  0  0  0  0  0  0  0  0  0  0
   59.0269   33.2700   49.1194 H   0  0  0  0  0  0  0  0  0  0  0  0
   59.7221   34.8914   48.5873 H   0  0  0  0  0  0  0  0  0  0  0  0
   59.4996   35.6687   46.4034 H   0  0  0  0  0  0  0  0  0  0  0  0
   58.5433   35.3937   44.1303 H   0  0  0  0  0  0  0  0  0  0  0  0
   57.5630   33.2233   43.5068 H   0  0  0  0  0  0  0  0  0  0  0  0
   59.6681   30.3261   44.3208 H   0  0  0  0  0  0  0  0  0  0  0  0
   59.7525   29.9952   46.1539 H   0  0  0  0  0  0  0  0  0  0  0  0
   59.4635   27.8908   44.1367 H   0  0  0  0  0  0  0  0  0  0  0  0
   61.0764   28.6636   44.7655 H   0  0  0  0  0  0  0  0  0  0  0  0
   60.8916   26.5968   45.7328 H   0  0  0  0  0  0  0  0  0  0  0  0
   60.4882   27.8858   46.9520 H   0  0  0  0  0  0  0  0  0  0  0  0
   59.5583   25.5670   44.7451 H   0  0  0  0  0  0  0  0  0  0  0  0
   59.4250   24.6995   46.3570 H   0  0  0  0  0  0  0  0  0  0  0  0
   56.9707   24.7836   47.2665 H   0  0  0  0  0  0  0  0  0  0  0  0
   54.7844   23.7935   46.7304 H   0  0  0  0  0  0  0  0  0  0  0  0
   54.2688   23.2641   44.3407 H   0  0  0  0  0  0  0  0  0  0  0  0
   55.9255   23.7338   42.5512 H   0  0  0  0  0  0  0  0  0  0  0  0
   58.1196   24.7400   43.1687 H   0  0  0  0  0  0  0  0  0  0  0  0
   57.3731   26.7789   45.3483 H   0  0  0  0  0  0  0  0  0  0  0  0
   58.1438   28.1212   46.8907 H   0  0  0  0  0  0  0  0  0  0  0  0
   56.4498   28.3002   44.7229 H   0  0  0  0  0  0  0  0  0  0  0  0
   56.3275   28.8748   46.4100 H   0  0  0  0  0  0  0  0  0  0  0  0
   58.4691   31.6121   47.3607 H   0  0  0  0  0  0  0  0  0  0  0  0
  1  2  2  0
  2  3  1  0
  3  4  2  0
  4  5  1  0
  5  6  2  0
  6  7  1  0
  7  8  2  0
  8  9  1  0
  9 10  2  0
  2 11  1  0
 11 12  2  0
 12 13  1  0
 13 14  1  0
 14 15  2  0
 14 16  1  0
 16 17  1  0
 17 18  2  0
 18 19  1  0
 19 20  1  0
 20 21  2  0
 21 22  1  0
 22 23  2  0
 23 24  1  0
 24 25  1  0
 25 26  2  0
 25 27  1  0
 27 28  1  0
 28 29  1  0
 29 30  1  0
 30 31  1  0
 31 32  1  0
 32 33  1  0
 33 34  2  0
 34 35  1  0
 35 36  2  0
 36 37  1  0
 37 38  2  0
 31 39  1  0
 39 40  1  0
 24 41  2  0
 10  5  1  0
 18 12  1  0
 41 20  1  0
 40 27  1  0
 38 33  1  0
  3 42  1  0
  4 43  1  0
  6 44  1  0
  7 45  1  0
  8 46  1  0
  9 47  1  0
 13 48  1  0
 16 49  1  0
 17 50  1  0
 19 51  1  0
 19 52  1  0
 21 53  1  0
 22 54  1  0
 23 55  1  0
 28 56  1  0
 28 57  1  0
 29 58  1  0
 29 59  1  0
 30 60  1  0
 30 61  1  0
 32 62  1  0
 32 63  1  0
 34 64  1  0
 35 65  1  0
 36 66  1  0
 37 67  1  0
 38 68  1  0
 39 69  1  0
 39 70  1  0
 40 71  1  0
 40 72  1  0
 41 73  1  0
M  END
>  <smiles>  (63) 
O=C(C=Cc1ccccn1)N=c1[nH]c(=O)[nH]cc1Cc1cccc(C(=O)N2CCCN(Cc3ccccc3)CC2)c1

>  <score_type>  (63) 
oracle

>  <origin>  (63) 
adg

>  <m_score__min__energy>  (63) 
-9.2400000000000002

>  <m_primary>  (63) 
energy

$$$$
63:0
     RDKit          3D

 59 61  0  0  0  0  0  0  0  0999 V2000
   57.7610   32.1120   41.8900 C   0  0  0  0  0  0  0  0  0  0  0  0
   57.7540   31.5730   43.2070 O   0  0  0  0  0  0  0  0  0  0  0  0
   58.1410   32.2820   44.3570 C   0  0  0  0  0  0  0  0  0  0  0  0
   57.7750   31.7730   45.6110 C   0  0  0  0  0  0  0  0  0  0  0  0
   58.1380   32.4450   46.7840 C   0  0  0  0  0  0  0  0  0  0  0  0
   58.8780   33.6340   46.7170 C   0  0  0  0  0  0  0  0  0  0  0  0
   59.2690   34.3580   47.9790 C   0  0  0  0  0  0  0  0  0  0  0  0
   60.3500   33.6460   48.7000 N   0  0  0  0  0  0  0  0  0  0  0  0
   61.4570   34.5810   48.9880 C   0  0  0  0  0  0  0  0  0  0  0  0
   62.6750   33.8340   49.4990 C   0  0  0  0  0  0  0  0  0  0  0  0
   63.1780   34.1940   50.7650 C   0  0  0  0  0  0  0  0  0  0  0  0
   64.2650   33.5220   51.3190 C   0  0  0  0  0  0  0  0  0  0  0  0
   64.8770   32.4860   50.6190 C   0  0  0  0  0  0  0  0  0  0  0  0
   64.4180   32.1350   49.3490 C   0  0  0  0  0  0  0  0  0  0  0  0
   63.3250   32.8070   48.7570 C   0  0  0  0  0  0  0  0  0  0  0  0
   62.8770   32.4190   47.3560 C   0  0  0  0  0  0  0  0  0  0  0  0
   61.6280   31.8230   47.3570 F   0  0  0  0  0  0  0  0  0  0  0  0
   62.8080   33.5480   46.5610 F   0  0  0  0  0  0  0  0  0  0  0  0
   63.7730   31.5130   46.8100 F   0  0  0  0  0  0  0  0  0  0  0  0
   59.7360   32.9870   50.2040 S   0  0  0  0  0  0  0  0  0  0  0  0
   59.3530   34.1020   51.1330 O   0  0  0  0  0  0  0  0  0  0  0  0
   60.7940   32.1470   50.8610 O   0  0  0  0  0  0  0  0  0  0  0  0
   58.2800   31.9790   49.9500 C   0  0  0  0  0  0  0  0  0  0  0  0
   58.6160   30.5190   50.0160 C   0  0  0  0  0  0  0  0  0  0  0  0
   58.1140   29.7990   50.9220 O   0  0  0  0  0  0  0  0  0  0  0  0
   59.4990   29.9580   49.0510 N   0  0  0  0  0  0  0  0  0  0  0  0
   59.2990   28.6520   48.4380 C   0  0  0  0  0  0  0  0  0  0  0  0
   59.1120   28.8070   46.9550 C   0  0  0  0  0  0  0  0  0  0  0  0
   60.1470   29.3050   46.1500 C   0  0  0  0  0  0  0  0  0  0  0  0
   59.9180   29.5070   44.7860 C   0  0  0  0  0  0  0  0  0  0  0  0
   58.7000   29.2260   44.2470 N   0  0  0  0  0  0  0  0  0  0  0  0
   57.6830   28.7370   45.0080 C   0  0  0  0  0  0  0  0  0  0  0  0
   57.8700   28.5170   46.3740 C   0  0  0  0  0  0  0  0  0  0  0  0
   59.2510   34.1420   45.4630 C   0  0  0  0  0  0  0  0  0  0  0  0
   58.8830   33.4760   44.2910 C   0  0  0  0  0  0  0  0  0  0  0  0
   57.7753   33.2106   41.9435 H   0  0  0  0  0  0  0  0  0  0  0  0
   58.6546   31.7594   41.3542 H   0  0  0  0  0  0  0  0  0  0  0  0
   56.8585   31.7827   41.3542 H   0  0  0  0  0  0  0  0  0  0  0  0
   57.1982   30.8385   45.6736 H   0  0  0  0  0  0  0  0  0  0  0  0
   57.8415   32.0387   47.7623 H   0  0  0  0  0  0  0  0  0  0  0  0
   59.6181   35.3680   47.7182 H   0  0  0  0  0  0  0  0  0  0  0  0
   58.3885   34.4060   48.6366 H   0  0  0  0  0  0  0  0  0  0  0  0
   61.7242   35.1183   48.0661 H   0  0  0  0  0  0  0  0  0  0  0  0
   61.1275   35.2892   49.7625 H   0  0  0  0  0  0  0  0  0  0  0  0
   62.7062   35.0163   51.3229 H   0  0  0  0  0  0  0  0  0  0  0  0
   64.6407   33.8106   52.3118 H   0  0  0  0  0  0  0  0  0  0  0  0
   65.7227   31.9439   51.0672 H   0  0  0  0  0  0  0  0  0  0  0  0
   64.9151   31.3219   48.7997 H   0  0  0  0  0  0  0  0  0  0  0  0
   57.5404   32.2131   50.7299 H   0  0  0  0  0  0  0  0  0  0  0  0
   57.8724   32.1990   48.9523 H   0  0  0  0  0  0  0  0  0  0  0  0
   60.1784   28.0200   48.6308 H   0  0  0  0  0  0  0  0  0  0  0  0
   58.4025   28.1827   48.8692 H   0  0  0  0  0  0  0  0  0  0  0  0
   61.1296   29.5344   46.5880 H   0  0  0  0  0  0  0  0  0  0  0  0
   60.7246   29.8943   44.1461 H   0  0  0  0  0  0  0  0  0  0  0  0
   58.5410   29.3970   43.2310 H   0  0  0  0  0  0  0  0  0  0  0  0
   56.7103   28.5143   44.5452 H   0  0  0  0  0  0  0  0  0  0  0  0
   57.0493   28.1194   46.9891 H   0  0  0  0  0  0  0  0  0  0  0  0
   59.8371   35.0709   45.4023 H   0  0  0  0  0  0  0  0  0  0  0  0
   59.1744   33.8866   43.3130 H   0  0  0  0  0  0  0  0  0  0  0  0
  1  2  1  0
  2  3  1  0
  3  4  2  0
  4  5  1  0
  5  6  2  0
  6  7  1  0
  7  8  1  0
  8  9  1  0
  9 10  1  0
 10 11  2  0
 11 12  1  0
 12 13  2  0
 13 14  1  0
 14 15  2  0
 15 16  1  0
 16 17  1  0
 16 18  1  0
 16 19  1  0
  8 20  1  0
 20 21  2  0
 20 22  2  0
 20 23  1  0
 23 24  1  0
 24 25  2  0
 24 26  1  0
 26 27  1  0
 27 28  1  0
 28 29  2  0
 29 30  1  0
 30 31  2  0
 31 32  1  0
 32 33  2  0
  6 34  1  0
 34 35  2  0
 35  3  1  0
 15 10  1  0
 33 28  1  0
  1 36  1  0
  1 37  1  0
  1 38  1  0
  4 39  1  0
  5 40  1  0
  7 41  1  0
  7 42  1  0
  9 43  1  0
  9 44  1  0
 11 45  1  0
 12 46  1  0
 13 47  1  0
 14 48  1  0
 23 49  1  0
 23 50  1  0
 27 51  1  0
 27 52  1  0
 29 53  1  0
 30 54  1  0
 31 55  1  0
 32 56  1  0
 33 57  1  0
 34 58  1  0
 35 59  1  0
M  CHG  2  26  -1  31   1
M  END
>  <UniqueID>  (64) 
57

>  <SMILES>  (64) 
COc1ccc(CN(Cc2ccccc2C(F)(F)F)S(=O)(=O)CC(=O)[N-]Cc2cc[nH+]cc2)cc1

>  <Energy>  (64) 
55.168206440108506

>  <Genealogy>  (64) 
COc1ccc(CN(Cc2ccccc2C(F)(F)F)S(=O)(=O)CC(=O)[N-]Cc2cc[nH+]cc2)cc1 (protonated)
COc1ccc(CN(Cc2ccccc2C(F)(F)F)S(=O)(=O)CC(=O)[N-]Cc2cc[nH+]cc2)cc1 (3D coordinates assigned)
COc1ccc(CN(Cc2ccccc2C(F)(F)F)S(=O)(=O)CC(=O)[N-]Cc2cc[nH+]cc2)cc1 (optimized conformer: 55.168206440108506 kcal/mol)

>  <smiles>  (64) 
COc1ccc(CN(Cc2ccccc2C(F)(F)F)S(=O)(=O)CC(=O)NCc2ccncc2)cc1

>  <score_type>  (64) 
oracle

>  <origin>  (64) 
adg

>  <m_score__min__energy>  (64) 
-9.5700000000000003

>  <m_primary>  (64) 
energy

$$$$
64:0
     RDKit          3D

 40 42  0  0  0  0  0  0  0  0999 V2000
   57.8800   33.6730   44.8680 C   0  0  0  0  0  0  0  0  0  0  0  0
   57.3030   32.7030   45.8920 C   0  0  0  0  0  0  0  0  0  0  0  0
   57.9730   31.3620   45.7900 C   0  0  0  0  0  0  0  0  0  0  0  0
   57.3700   30.1870   45.3820 C   0  0  0  0  0  0  0  0  0  0  0  0
   56.0450   30.0660   44.9650 O   0  0  0  0  0  0  0  0  0  0  0  0
   58.2500   29.1690   45.4960 N   0  0  0  0  0  0  0  0  0  0  0  0
   58.0600   27.7870   45.1480 C   0  0  0  0  0  0  0  0  0  0  0  0
   57.9670   27.4020   43.8010 C   0  0  0  0  0  0  0  0  0  0  0  0
   57.7690   26.0600   43.4630 C   0  0  0  0  0  0  0  0  0  0  0  0
   57.6530   25.0940   44.4670 C   0  0  0  0  0  0  0  0  0  0  0  0
   57.7340   25.4700   45.8100 C   0  0  0  0  0  0  0  0  0  0  0  0
   57.9340   26.8110   46.1510 C   0  0  0  0  0  0  0  0  0  0  0  0
   59.3680   29.7400   45.9940 C   0  0  0  0  0  0  0  0  0  0  0  0
   60.4310   29.1050   46.2320 O   0  0  0  0  0  0  0  0  0  0  0  0
   59.2320   31.0720   46.1960 N   0  0  0  0  0  0  0  0  0  0  0  0
   60.2560   31.9960   46.6910 C   0  0  0  0  0  0  0  0  0  0  0  0
   59.9200   32.4640   48.0830 C   0  0  0  0  0  0  0  0  0  0  0  0
   60.3550   33.7200   48.5400 C   0  0  0  0  0  0  0  0  0  0  0  0
   60.0420   34.1470   49.8340 C   0  0  0  0  0  0  0  0  0  0  0  0
   59.2890   33.3270   50.6800 C   0  0  0  0  0  0  0  0  0  0  0  0
   58.8650   33.9120   52.4480 Br  0  0  0  0  0  0  0  0  0  0  0  0
   58.8460   32.0790   50.2300 C   0  0  0  0  0  0  0  0  0  0  0  0
   59.1560   31.6500   48.9360 C   0  0  0  0  0  0  0  0  0  0  0  0
   58.3751   34.5053   45.3897 H   0  0  0  0  0  0  0  0  0  0  0  0
   58.6126   33.1478   44.2376 H   0  0  0  0  0  0  0  0  0  0  0  0
   57.0688   34.0661   44.2376 H   0  0  0  0  0  0  0  0  0  0  0  0
   57.4598   33.1090   46.9022 H   0  0  0  0  0  0  0  0  0  0  0  0
   56.2284   32.5773   45.6936 H   0  0  0  0  0  0  0  0  0  0  0  0
   55.2750   30.0950   45.6200 H   0  0  0  0  0  0  0  0  0  0  0  0
   58.0503   28.1598   43.0080 H   0  0  0  0  0  0  0  0  0  0  0  0
   57.7044   25.7637   42.4056 H   0  0  0  0  0  0  0  0  0  0  0  0
   57.4980   24.0383   44.1996 H   0  0  0  0  0  0  0  0  0  0  0  0
   57.6403   24.7102   46.5999 H   0  0  0  0  0  0  0  0  0  0  0  0
   57.9930   27.1035   47.2097 H   0  0  0  0  0  0  0  0  0  0  0  0
   61.2287   31.4826   46.7072 H   0  0  0  0  0  0  0  0  0  0  0  0
   60.2977   32.8695   46.0237 H   0  0  0  0  0  0  0  0  0  0  0  0
   60.9444   34.3700   47.8765 H   0  0  0  0  0  0  0  0  0  0  0  0
   60.3886   35.1295   50.1870 H   0  0  0  0  0  0  0  0  0  0  0  0
   58.2529   31.4342   50.8951 H   0  0  0  0  0  0  0  0  0  0  0  0
   58.8000   30.6705   48.5841 H   0  0  0  0  0  0  0  0  0  0  0  0
  1  2  1  0
  2  3  1  0
  3  4  2  0
  4  5  1  0
  4  6  1  0
  6  7  1  0
  7  8  2  0
  8  9  1  0
  9 10  2  0
 10 11  1  0
 11 12  2  0
  6 13  1  0
 13 14  2  0
 13 15  1  0
 15 16  1  0
 16 17  1  0
 17 18  2  0
 18 19  1  0
 19 20  2  0
 20 21  1  0
 20 22  1  0
 22 23  2  0
 15  3  1  0
 23 17  1  0
 12  7  1  0
  1 24  1  0
  1 25  1  0
  1 26  1  0
  2 27  1  0
  2 28  1  0
  5 29  1  0
  8 30  1  0
  9 31  1  0
 10 32  1  0
 11 33  1  0
 12 34  1  0
 16 35  1  0
 16 36  1  0
 18 37  1  0
 19 38  1  0
 22 39  1  0
 23 40  1  0
M  END
>  <UniqueID>  (65) 
58

>  <SMILES>  (65) 
CCc1c(O)n(-c2ccccc2)c(=O)n1Cc1ccc(Br)cc1

>  <Energy>  (65) 
77.2234141702065

>  <Genealogy>  (65) 
CCc1c(O)n(-c2ccccc2)c(=O)n1Cc1ccc(Br)cc1 (3D coordinates assigned)
CCc1c(O)n(-c2ccccc2)c(=O)n1Cc1ccc(Br)cc1 (optimized conformer: 77.2234141702065 kcal/mol)

>  <smiles>  (65) 
CCc1c(O)n(-c2ccccc2)c(=O)n1Cc1ccc(Br)cc1

>  <score_type>  (65) 
oracle

>  <origin>  (65) 
adg

>  <m_score__min__energy>  (65) 
-7.4199999999999999

>  <m_primary>  (65) 
energy

$$$$
65:0
     RDKit          3D

 40 42  0  0  0  0  0  0  0  0999 V2000
   57.3810   22.4280   47.4010 N   0  0  0  0  0  0  0  0  0  0  0  0
   57.8650   22.8860   45.8070 S   0  0  0  0  0  0  0  0  0  0  0  0
   56.9520   22.2440   44.8000 O   0  0  0  0  0  0  0  0  0  0  0  0
   59.2710   22.4150   45.5530 O   0  0  0  0  0  0  0  0  0  0  0  0
   57.7850   24.6370   45.6520 C   0  0  0  0  0  0  0  0  0  0  0  0
   57.6860   25.4420   46.7950 C   0  0  0  0  0  0  0  0  0  0  0  0
   57.6320   26.8340   46.6730 C   0  0  0  0  0  0  0  0  0  0  0  0
   57.6970   27.4400   45.4060 C   0  0  0  0  0  0  0  0  0  0  0  0
   57.6200   28.8680   45.2510 N   0  0  0  0  0  0  0  0  0  0  0  0
   56.4380   29.5750   44.8500 C   0  0  0  0  0  0  0  0  0  0  0  0
   55.3240   28.9830   44.8110 O   0  0  0  0  0  0  0  0  0  0  0  0
   56.5370   30.9740   44.5400 N   0  0  0  0  0  0  0  0  0  0  0  0
   57.3950   31.8110   45.0410 C   0  0  0  0  0  0  0  0  0  0  0  0
   58.2730   31.5120   46.0260 N   0  0  0  0  0  0  0  0  0  0  0  0
   59.0450   32.5420   46.3620 N   0  0  0  0  0  0  0  0  0  0  0  0
   58.7820   33.6570   45.6460 C   0  0  0  0  0  0  0  0  0  0  0  0
   59.6630   35.2010   45.8590 S   0  0  0  0  0  0  0  0  0  0  0  0
   59.9160   34.9880   47.6550 C   0  0  0  0  0  0  0  0  0  0  0  0
   61.1460   34.1670   47.9320 C   0  0  0  0  0  0  0  0  0  0  0  0
   62.0330   33.8390   46.8930 C   0  0  0  0  0  0  0  0  0  0  0  0
   63.1590   33.0520   47.1500 C   0  0  0  0  0  0  0  0  0  0  0  0
   63.4080   32.5860   48.4440 C   0  0  0  0  0  0  0  0  0  0  0  0
   64.5000   31.8230   48.6920 F   0  0  0  0  0  0  0  0  0  0  0  0
   62.5280   32.9060   49.4830 C   0  0  0  0  0  0  0  0  0  0  0  0
   61.4000   33.6920   49.2290 C   0  0  0  0  0  0  0  0  0  0  0  0
   57.5410   33.4090   44.5340 S   0  0  0  0  0  0  0  0  0  0  0  0
   57.7780   26.6280   44.2650 C   0  0  0  0  0  0  0  0  0  0  0  0
   57.8330   25.2370   44.3870 C   0  0  0  0  0  0  0  0  0  0  0  0
   57.7870   23.1330   48.0570 H   0  0  0  0  0  0  0  0  0  0  0  0
   57.6507   24.9773   47.7914 H   0  0  0  0  0  0  0  0  0  0  0  0
   57.5381   27.4585   47.5736 H   0  0  0  0  0  0  0  0  0  0  0  0
   58.4500   29.4400   45.5280 H   0  0  0  0  0  0  0  0  0  0  0  0
   60.0310   35.9773   48.1220 H   0  0  0  0  0  0  0  0  0  0  0  0
   59.0434   34.4642   48.0724 H   0  0  0  0  0  0  0  0  0  0  0  0
   61.8405   34.2031   45.8730 H   0  0  0  0  0  0  0  0  0  0  0  0
   63.8503   32.7989   46.3327 H   0  0  0  0  0  0  0  0  0  0  0  0
   62.7237   32.5388   50.5013 H   0  0  0  0  0  0  0  0  0  0  0  0
   60.7088   33.9393   50.0482 H   0  0  0  0  0  0  0  0  0  0  0  0
   57.7984   27.0897   43.2668 H   0  0  0  0  0  0  0  0  0  0  0  0
   57.9143   24.6108   43.4863 H   0  0  0  0  0  0  0  0  0  0  0  0
  1  2  1  0
  2  3  2  0
  2  4  2  0
  2  5  1  0
  5  6  2  0
  6  7  1  0
  7  8  2  0
  8  9  1  0
  9 10  1  0
 10 11  2  0
 10 12  1  0
 12 13  2  3
 13 14  1  0
 14 15  1  0
 15 16  2  0
 16 17  1  0
 17 18  1  0
 18 19  1  0
 19 20  2  0
 20 21  1  0
 21 22  2  0
 22 23  1  0
 22 24  1  0
 24 25  2  0
 16 26  1  0
  8 27  1  0
 27 28  2  0
 28  5  1  0
 26 13  1  0
 25 19  1  0
  1 29  1  0
  6 30  1  0
  7 31  1  0
  9 32  1  0
 18 33  1  0
 18 34  1  0
 20 35  1  0
 21 36  1  0
 24 37  1  0
 25 38  1  0
 27 39  1  0
 28 40  1  0
M  CHG  2   1  -1  14  -1
M  END
>  <UniqueID>  (66) 
59

>  <SMILES>  (66) 
[NH-]S(=O)(=O)c1ccc(NC(=O)N=c2[n-]nc(SCc3ccc(F)cc3)s2)cc1

>  <Energy>  (66) 
77.45473982847687

>  <Genealogy>  (66) 
[NH-]S(=O)(=O)c1ccc(NC(=O)N=c2[n-]nc(SCc3ccc(F)cc3)s2)cc1 (protonated)
[NH-]S(=O)(=O)c1ccc(NC(=O)N=c2[n-]nc(SCc3ccc(F)cc3)s2)cc1 (3D coordinates assigned)
[NH-]S(=O)(=O)c1ccc(NC(=O)N=c2[n-]nc(SCc3ccc(F)cc3)s2)cc1 (optimized conformer: 77.45473982847687 kcal/mol)

>  <smiles>  (66) 
NS(=O)(=O)c1ccc(NC(=O)N=c2[nH]nc(SCc3ccc(F)cc3)s2)cc1

>  <score_type>  (66) 
oracle

>  <origin>  (66) 
adg

>  <m_score__min__energy>  (66) 
-11.640000000000001

>  <m_primary>  (66) 
energy

$$$$
66:0
     RDKit          3D

 34 35  0  0  0  0  0  0  0  0999 V2000
   59.6614   24.7512   45.9805 H   0  0  0  0  0  0  0  0  0  0  0  0
   58.6370   25.1520   45.9810 C   0  0  0  0  0  0  0  0  0  0  0  0
   58.4330   26.4950   45.9680 N   0  0  0  0  0  0  0  0  0  0  0  0
   57.1810   27.0390   45.9700 C   0  0  0  0  0  0  0  0  0  0  0  0
   57.0020   28.3290   45.9660 N   0  0  0  0  0  0  0  0  0  0  0  0
   56.4530   29.1200   44.8980 C   0  0  0  0  0  0  0  0  0  0  0  0
   55.2080   29.2060   44.7210 O   0  0  0  0  0  0  0  0  0  0  0  0
   57.3820   29.7970   43.9370 C   0  0  0  0  0  0  0  0  0  0  0  0
   58.3870   29.8479   44.3812 H   0  0  0  0  0  0  0  0  0  0  0  0
   57.4074   29.2183   43.0019 H   0  0  0  0  0  0  0  0  0  0  0  0
   56.8980   31.2140   43.6260 C   0  0  0  0  0  0  0  0  0  0  0  0
   57.6675   31.7430   43.0446 H   0  0  0  0  0  0  0  0  0  0  0  0
   55.9656   31.1591   43.0449 H   0  0  0  0  0  0  0  0  0  0  0  0
   56.6470   31.9400   44.8740 N   0  0  0  0  0  0  0  0  0  0  0  0
   57.5490   33.4230   44.9090 S   0  0  0  0  0  0  0  0  0  0  0  0
   56.6000   34.5860   44.8400 O   0  0  0  0  0  0  0  0  0  0  0  0
   58.4790   33.4850   43.7270 O   0  0  0  0  0  0  0  0  0  0  0  0
   58.4520   33.5070   46.4180 C   0  0  0  0  0  0  0  0  0  0  0  0
   58.1810   32.6200   47.4700 C   0  0  0  0  0  0  0  0  0  0  0  0
   57.4226   31.8334   47.3433 H   0  0  0  0  0  0  0  0  0  0  0  0
   58.8740   32.7340   48.6810 C   0  0  0  0  0  0  0  0  0  0  0  0
   58.6614   32.0353   49.5036 H   0  0  0  0  0  0  0  0  0  0  0  0
   59.8360   33.7350   48.8460 C   0  0  0  0  0  0  0  0  0  0  0  0
   60.3736   33.8289   49.8011 H   0  0  0  0  0  0  0  0  0  0  0  0
   60.1150   34.6170   47.7970 C   0  0  0  0  0  0  0  0  0  0  0  0
   60.8732   35.4035   47.9259 H   0  0  0  0  0  0  0  0  0  0  0  0
   59.4290   34.4980   46.5840 C   0  0  0  0  0  0  0  0  0  0  0  0
   59.6574   35.1855   45.7563 H   0  0  0  0  0  0  0  0  0  0  0  0
   56.0640   26.1910   45.9900 C   0  0  0  0  0  0  0  0  0  0  0  0
   54.7760   26.7130   46.0030 O   0  0  0  0  0  0  0  0  0  0  0  0
   56.2540   24.8060   45.9990 C   0  0  0  0  0  0  0  0  0  0  0  0
   55.3855   24.1310   46.0092 H   0  0  0  0  0  0  0  0  0  0  0  0
   57.5470   24.2810   45.9950 C   0  0  0  0  0  0  0  0  0  0  0  0
   57.7052   23.1925   46.0028 H   0  0  0  0  0  0  0  0  0  0  0  0
  1  2  1  0
  2  3  1  0
  3  4  1  0
  4  5  2  0
  5  6  1  0
  6  7  2  0
  6  8  1  0
  8  9  1  0
  8 10  1  0
  8 11  1  0
 11 12  1  0
 11 13  1  0
 11 14  1  0
 14 15  1  0
 15 16  2  0
 15 17  2  0
 15 18  1  0
 18 19  2  0
 19 20  1  0
 19 21  1  0
 21 22  1  0
 21 23  2  0
 23 24  1  0
 23 25  1  0
 25 26  1  0
 25 27  2  0
 27 28  1  0
  4 29  1  0
 29 30  1  0
 29 31  2  0
 31 32  1  0
 31 33  1  0
 33 34  1  0
 33  2  2  0
 27 18  1  0
M  CHG  3   3  -1  14  -1  30  -1
M  END
>  <UniqueID>  (67) 
60

>  <SMILES>  (67) 
O=C(CC[N-]S(=O)(=O)c1ccccc1)/N=c1\[n-]cccc1[O-]

>  <Energy>  (67) 
31.07938982155892

>  <Genealogy>  (67) 
O=C(CC[N-]S(=O)(=O)c1ccccc1)N=c1[n-]cccc1[O-] (protonated)
O=C(CC[N-]S(=O)(=O)c1ccccc1)/N=c1\[n-]cccc1[O-] (cis-trans isomerization)
O=C(CC[N-]S(=O)(=O)c1ccccc1)/N=c1\[n-]cccc1[O-] (3D coordinates assigned)
O=C(CC[N-]S(=O)(=O)c1ccccc1)/N=c1\[n-]cccc1[O-] (optimized conformer: 31.07938982155892 kcal/mol)

>  <smiles>  (67) 
O=C(CCNS(=O)(=O)c1ccccc1)N=c1[nH]cccc1O

>  <score_type>  (67) 
oracle

>  <origin>  (67) 
adg

>  <m_score__min__energy>  (67) 
-14.699999999999999

>  <m_primary>  (67) 
energy

$$$$
67:0
     RDKit          3D

 40 42  0  0  0  0  0  0  0  0999 V2000
   63.7310   33.5280   50.0850 C   0  0  0  0  0  0  0  0  0  0  0  0
   62.9760   33.6180   48.7920 C   0  0  0  0  0  0  0  0  0  0  0  0
   63.6170   33.3300   47.5770 C   0  0  0  0  0  0  0  0  0  0  0  0
   62.9230   33.4490   46.3700 C   0  0  0  0  0  0  0  0  0  0  0  0
   61.5910   33.8710   46.3660 C   0  0  0  0  0  0  0  0  0  0  0  0
   60.9520   34.1870   47.5700 C   0  0  0  0  0  0  0  0  0  0  0  0
   59.2490   34.7480   47.5630 S   0  0  0  0  0  0  0  0  0  0  0  0
   58.6380   33.2150   46.8420 C   0  0  0  0  0  0  0  0  0  0  0  0
   58.0470   33.2600   45.5730 C   0  0  0  0  0  0  0  0  0  0  0  0
   57.5910   32.0900   44.9630 C   0  0  0  0  0  0  0  0  0  0  0  0
   57.7290   30.8570   45.6110 C   0  0  0  0  0  0  0  0  0  0  0  0
   57.1560   29.3820   44.8420 S   0  0  0  0  0  0  0  0  0  0  0  0
   55.4280   29.3590   44.8670 N   0  0  0  0  0  0  0  0  0  0  0  0
   57.6390   29.3270   43.4190 O   0  0  0  0  0  0  0  0  0  0  0  0
   57.6870   28.1850   45.5780 O   0  0  0  0  0  0  0  0  0  0  0  0
   58.3060   30.8060   46.8870 C   0  0  0  0  0  0  0  0  0  0  0  0
   58.7450   31.9790   47.5170 C   0  0  0  0  0  0  0  0  0  0  0  0
   59.3720   31.8740   48.8480 C   0  0  0  0  0  0  0  0  0  0  0  0
   58.7120   31.6070   49.9970 C   0  0  0  0  0  0  0  0  0  0  0  0
   58.5220   32.6860   51.0020 C   0  0  0  0  0  0  0  0  0  0  0  0
   59.0140   33.8320   50.8210 O   0  0  0  0  0  0  0  0  0  0  0  0
   57.7630   32.4410   52.1870 N   0  0  0  0  0  0  0  0  0  0  0  0
   57.1860   31.1630   52.4450 C   0  0  0  0  0  0  0  0  0  0  0  0
   56.5020   30.9800   53.4840 O   0  0  0  0  0  0  0  0  0  0  0  0
   57.3910   30.0880   51.5300 N   0  0  0  0  0  0  0  0  0  0  0  0
   58.1580   30.2640   50.3370 C   0  0  0  0  0  0  0  0  0  0  0  0
   58.3770   29.2590   49.6100 O   0  0  0  0  0  0  0  0  0  0  0  0
   61.6430   34.0570   48.7810 C   0  0  0  0  0  0  0  0  0  0  0  0
   63.0279   33.6118   50.9268 H   0  0  0  0  0  0  0  0  0  0  0  0
   64.2531   32.5613   50.1382 H   0  0  0  0  0  0  0  0  0  0  0  0
   64.4657   34.3449   50.1382 H   0  0  0  0  0  0  0  0  0  0  0  0
   64.6693   33.0095   47.5749 H   0  0  0  0  0  0  0  0  0  0  0  0
   63.4261   33.2101   45.4214 H   0  0  0  0  0  0  0  0  0  0  0  0
   61.0441   33.9549   45.4153 H   0  0  0  0  0  0  0  0  0  0  0  0
   57.9414   34.2238   45.0535 H   0  0  0  0  0  0  0  0  0  0  0  0
   57.1215   32.1373   43.9694 H   0  0  0  0  0  0  0  0  0  0  0  0
   55.1430   28.6920   45.6200 H   0  0  0  0  0  0  0  0  0  0  0  0
   58.4153   29.8382   47.3983 H   0  0  0  0  0  0  0  0  0  0  0  0
   60.4599   32.0245   48.9103 H   0  0  0  0  0  0  0  0  0  0  0  0
   61.1388   34.3000   49.7279 H   0  0  0  0  0  0  0  0  0  0  0  0
  1  2  1  0
  2  3  2  0
  3  4  1  0
  4  5  2  0
  5  6  1  0
  6  7  1  0
  7  8  1  0
  8  9  2  0
  9 10  1  0
 10 11  2  0
 11 12  1  0
 12 13  1  0
 12 14  2  0
 12 15  2  0
 11 16  1  0
 16 17  2  0
 17 18  1  0
 18 19  2  3
 19 20  1  0
 20 21  2  0
 20 22  1  0
 22 23  1  0
 23 24  2  0
 23 25  1  0
 25 26  1  0
 26 27  2  0
  6 28  2  0
 28  2  1  0
 17  8  1  0
 26 19  1  0
  1 29  1  0
  1 30  1  0
  1 31  1  0
  3 32  1  0
  4 33  1  0
  5 34  1  0
  9 35  1  0
 10 36  1  0
 13 37  1  0
 16 38  1  0
 18 39  1  0
 28 40  1  0
M  CHG  3  13  -1  22  -1  25  -1
M  END
>  <UniqueID>  (68) 
61

>  <SMILES>  (68) 
Cc1cccc(Sc2ccc(S([NH-])(=O)=O)cc2C=C2C(=O)[N-]C(=O)[N-]C2=O)c1

>  <Energy>  (68) 
45.305732680006656

>  <Genealogy>  (68) 
Cc1cccc(Sc2ccc(S([NH-])(=O)=O)cc2C=C2C(=O)[N-]C(=O)[N-]C2=O)c1 (protonated)
Cc1cccc(Sc2ccc(S([NH-])(=O)=O)cc2C=C2C(=O)[N-]C(=O)[N-]C2=O)c1 (3D coordinates assigned)
Cc1cccc(Sc2ccc(S([NH-])(=O)=O)cc2C=C2C(=O)[N-]C(=O)[N-]C2=O)c1 (nonaromatic ring conformer: 45.305732680006656 kcal/mol)

>  <smiles>  (68) 
Cc1cccc(Sc2ccc(S(N)(=O)=O)cc2C=C2C(=O)NC(=O)NC2=O)c1

>  <score_type>  (68) 
oracle

>  <origin>  (68) 
adg

>  <m_score__min__energy>  (68) 
-14.91

>  <m_primary>  (68) 
energy

$$$$
68:0
     RDKit          3D

 33 33  0  0  0  0  0  0  0  0999 V2000
   58.9850   36.1010   47.1200 H   0  0  0  0  0  0  0  0  0  0  0  0
   58.9370   35.1090   47.4450 N   0  0  0  0  0  0  0  0  0  0  0  0
   58.9290   34.1140   46.0310 S   0  0  0  0  0  0  0  0  0  0  0  0
   58.1900   34.8220   44.9310 O   0  0  0  0  0  0  0  0  0  0  0  0
   60.3430   33.8590   45.5890 O   0  0  0  0  0  0  0  0  0  0  0  0
   58.1100   32.5650   46.3830 C   0  0  0  0  0  0  0  0  0  0  0  0
   57.0689   32.7710   46.6722 H   0  0  0  0  0  0  0  0  0  0  0  0
   58.6572   32.0677   47.1975 H   0  0  0  0  0  0  0  0  0  0  0  0
   58.1110   31.6290   45.1700 C   0  0  0  0  0  0  0  0  0  0  0  0
   58.7712   30.7742   45.3785 H   0  0  0  0  0  0  0  0  0  0  0  0
   58.4679   32.1952   44.2971 H   0  0  0  0  0  0  0  0  0  0  0  0
   56.7690   31.1320   44.8770 N   0  0  0  0  0  0  0  0  0  0  0  0
   56.3670   29.7560   44.8420 C   0  0  0  0  0  0  0  0  0  0  0  0
   55.1350   29.4930   44.8010 O   0  0  0  0  0  0  0  0  0  0  0  0
   57.3560   28.6550   44.8430 C   0  0  0  0  0  0  0  0  0  0  0  0
   58.0249   28.5398   43.9774 H   0  0  0  0  0  0  0  0  0  0  0  0
   57.4630   27.7940   45.8640 C   0  0  0  0  0  0  0  0  0  0  0  0
   57.8102   28.1719   46.8370 H   0  0  0  0  0  0  0  0  0  0  0  0
   57.1340   26.3560   45.7390 C   0  0  0  0  0  0  0  0  0  0  0  0
   58.1580   25.4700   45.3730 C   0  0  0  0  0  0  0  0  0  0  0  0
   59.1714   25.8549   45.1862 H   0  0  0  0  0  0  0  0  0  0  0  0
   57.9020   24.1050   45.2440 C   0  0  0  0  0  0  0  0  0  0  0  0
   58.7159   23.4185   44.9678 H   0  0  0  0  0  0  0  0  0  0  0  0
   56.6170   23.6070   45.4640 C   0  0  0  0  0  0  0  0  0  0  0  0
   56.4244   22.5279   45.3720 H   0  0  0  0  0  0  0  0  0  0  0  0
   55.5670   24.4800   45.8030 C   0  0  0  0  0  0  0  0  0  0  0  0
   54.2560   24.0250   46.0150 O   0  0  0  0  0  0  0  0  0  0  0  0
   53.1530   24.3210   45.1670 C   0  0  0  0  0  0  0  0  0  0  0  0
   52.2715   24.5575   45.7811 H   0  0  0  0  0  0  0  0  0  0  0  0
   53.4000   25.1846   44.5321 H   0  0  0  0  0  0  0  0  0  0  0  0
   52.9345   23.4497   44.5321 H   0  0  0  0  0  0  0  0  0  0  0  0
   55.8260   25.8550   45.9280 C   0  0  0  0  0  0  0  0  0  0  0  0
   54.7690   26.7150   46.2070 O   0  0  0  0  0  0  0  0  0  0  0  0
  1  2  1  0
  2  3  1  0
  3  4  2  0
  3  5  2  0
  3  6  1  0
  6  7  1  0
  6  8  1  0
  6  9  1  0
  9 10  1  0
  9 11  1  0
  9 12  1  0
 12 13  1  0
 13 14  2  0
 13 15  1  0
 15 16  1  0
 15 17  2  0
 17 18  1  0
 17 19  1  0
 19 20  2  0
 20 21  1  0
 20 22  1  0
 22 23  1  0
 22 24  2  0
 24 25  1  0
 24 26  1  0
 26 27  1  0
 27 28  1  0
 28 29  1  0
 28 30  1  0
 28 31  1  0
 26 32  2  0
 32 33  1  0
 32 19  1  0
M  CHG  3   2  -1  12  -1  33  -1
M  END
>  <UniqueID>  (69) 
62

>  <SMILES>  (69) 
COc1cccc(/C=C/C(=O)[N-]CCS([NH-])(=O)=O)c1[O-]

>  <Energy>  (69) 
27.024222889888854

>  <Genealogy>  (69) 
COc1cccc(C=CC(=O)[N-]CCS([NH-])(=O)=O)c1[O-] (protonated)
COc1cccc(/C=C/C(=O)[N-]CCS([NH-])(=O)=O)c1[O-] (cis-trans isomerization)
COc1cccc(/C=C/C(=O)[N-]CCS([NH-])(=O)=O)c1[O-] (3D coordinates assigned)
COc1cccc(/C=C/C(=O)[N-]CCS([NH-])(=O)=O)c1[O-] (optimized conformer: 27.024222889888854 kcal/mol)

>  <smiles>  (69) 
COc1cccc(C=CC(=O)NCCS(N)(=O)=O)c1O

>  <score_type>  (69) 
oracle

>  <origin>  (69) 
adg

>  <m_score__min__energy>  (69) 
-13.68

>  <m_primary>  (69) 
energy

$$$$
69:0
     RDKit          3D

 41 43  0  0  0  0  0  0  0  0999 V2000
   54.6440   29.4820   43.4880 O   0  0  0  0  0  0  0  0  0  0  0  0
   55.6730   29.5980   44.2040 C   0  0  0  0  0  0  0  0  0  0  0  0
   55.8990   28.6410   45.2490 N   0  0  0  0  0  0  0  0  0  0  0  0
   57.0840   27.7920   45.3900 C   0  0  0  0  0  0  0  0  0  0  0  0
   58.0400   28.0710   44.2130 C   0  0  0  0  0  0  0  0  0  0  0  0
   59.4890   27.7370   44.5930 C   0  0  0  0  0  0  0  0  0  0  0  0
   59.9820   28.5470   45.7260 N   0  0  0  0  0  0  0  0  0  0  0  0
   58.9280   29.0240   46.6440 C   0  0  0  0  0  0  0  0  0  0  0  0
   57.7690   28.0280   46.7600 C   0  0  0  0  0  0  0  0  0  0  0  0
   56.6190   30.6950   43.9260 C   0  0  0  0  0  0  0  0  0  0  0  0
   56.8580   31.1150   42.6110 C   0  0  0  0  0  0  0  0  0  0  0  0
   57.7640   32.1450   42.3550 C   0  0  0  0  0  0  0  0  0  0  0  0
   58.4480   32.7560   43.4090 C   0  0  0  0  0  0  0  0  0  0  0  0
   58.2360   32.3360   44.7350 C   0  0  0  0  0  0  0  0  0  0  0  0
   58.9630   32.9830   45.8570 C   0  0  0  0  0  0  0  0  0  0  0  0
   58.9290   34.3800   46.0190 C   0  0  0  0  0  0  0  0  0  0  0  0
   59.6140   34.9880   47.0770 C   0  0  0  0  0  0  0  0  0  0  0  0
   60.3400   34.2070   47.9850 C   0  0  0  0  0  0  0  0  0  0  0  0
   61.0250   34.8020   49.0430 O   0  0  0  0  0  0  0  0  0  0  0  0
   60.3770   32.8190   47.8320 C   0  0  0  0  0  0  0  0  0  0  0  0
   59.6950   32.2080   46.7750 C   0  0  0  0  0  0  0  0  0  0  0  0
   57.3220   31.2940   44.9810 C   0  0  0  0  0  0  0  0  0  0  0  0
   56.7904   26.7323   45.3618 H   0  0  0  0  0  0  0  0  0  0  0  0
   57.7419   27.4536   43.3528 H   0  0  0  0  0  0  0  0  0  0  0  0
   57.9810   29.1394   43.9581 H   0  0  0  0  0  0  0  0  0  0  0  0
   59.5441   26.6739   44.8700 H   0  0  0  0  0  0  0  0  0  0  0  0
   60.1217   27.9635   43.7222 H   0  0  0  0  0  0  0  0  0  0  0  0
   60.4800   29.3850   45.3450 H   0  0  0  0  0  0  0  0  0  0  0  0
   59.3676   29.1740   47.6411 H   0  0  0  0  0  0  0  0  0  0  0  0
   58.5265   29.9645   46.2386 H   0  0  0  0  0  0  0  0  0  0  0  0
   58.1574   27.0697   47.1353 H   0  0  0  0  0  0  0  0  0  0  0  0
   57.0227   28.4458   47.4517 H   0  0  0  0  0  0  0  0  0  0  0  0
   56.3292   30.6308   41.7768 H   0  0  0  0  0  0  0  0  0  0  0  0
   57.9401   32.4766   41.3211 H   0  0  0  0  0  0  0  0  0  0  0  0
   59.1570   33.5708   43.2007 H   0  0  0  0  0  0  0  0  0  0  0  0
   58.3601   34.9986   45.3093 H   0  0  0  0  0  0  0  0  0  0  0  0
   59.5822   36.0811   47.1957 H   0  0  0  0  0  0  0  0  0  0  0  0
   61.9790   34.5470   49.2660 H   0  0  0  0  0  0  0  0  0  0  0  0
   60.9449   32.2041   48.5458 H   0  0  0  0  0  0  0  0  0  0  0  0
   59.7311   31.1146   46.6607 H   0  0  0  0  0  0  0  0  0  0  0  0
   57.1576   30.9461   46.0115 H   0  0  0  0  0  0  0  0  0  0  0  0
  1  2  2  0
  2  3  1  0
  3  4  1  0
  4  5  1  0
  5  6  1  0
  6  7  1  0
  7  8  1  0
  8  9  1  0
  2 10  1  0
 10 11  2  0
 11 12  1  0
 12 13  2  0
 13 14  1  0
 14 15  1  0
 15 16  2  0
 16 17  1  0
 17 18  2  0
 18 19  1  0
 18 20  1  0
 20 21  2  0
 14 22  2  0
  9  4  1  0
 22 10  1  0
 21 15  1  0
  4 23  1  0
  5 24  1  0
  5 25  1  0
  6 26  1  0
  6 27  1  0
  7 28  1  0
  8 29  1  0
  8 30  1  0
  9 31  1  0
  9 32  1  0
 11 33  1  0
 12 34  1  0
 13 35  1  0
 16 36  1  0
 17 37  1  0
 19 38  1  0
 20 39  1  0
 21 40  1  0
 22 41  1  0
M  CHG  1   3  -1
M  END
>  <UniqueID>  (70) 
63

>  <SMILES>  (70) 
O=C([N-]C1CCNCC1)c1cccc(-c2ccc(O)cc2)c1

>  <Energy>  (70) 
56.978894468763926

>  <Genealogy>  (70) 
O=C([N-]C1CCNCC1)c1cccc(-c2ccc(O)cc2)c1 (protonated)
O=C([N-]C1CCNCC1)c1cccc(-c2ccc(O)cc2)c1 (3D coordinates assigned)
O=C([N-]C1CCNCC1)c1cccc(-c2ccc(O)cc2)c1 (nonaromatic ring conformer: 56.978894468763926 kcal/mol)

>  <smiles>  (70) 
O=C(NC1CCNCC1)c1cccc(-c2ccc(O)cc2)c1

>  <score_type>  (70) 
oracle

>  <origin>  (70) 
adg

>  <m_score__min__energy>  (70) 
-9.6699999999999999

>  <m_primary>  (70) 
energy

$$$$
70:0
     RDKit          3D

 67 71  0  0  0  0  0  0  0  0999 V2000
   60.3107   34.0521   44.5473 H   0  0  0  0  0  0  0  0  0  0  0  0
   59.4160   34.0930   45.1860 C   0  0  0  0  0  0  0  0  0  0  0  0
   59.6020   34.5730   46.5680 C   0  0  0  0  0  0  0  0  0  0  0  0
   59.7310   35.8010   46.8260 O   0  0  0  0  0  0  0  0  0  0  0  0
   59.7010   33.6050   47.6160 N   0  0  0  0  0  0  0  0  0  0  0  0
   60.5460   33.7520   48.7960 C   0  0  0  0  0  0  0  0  0  0  0  0
   61.4679   33.1701   48.6491 H   0  0  0  0  0  0  0  0  0  0  0  0
   60.7712   34.8208   48.9257 H   0  0  0  0  0  0  0  0  0  0  0  0
   59.8500   33.2610   50.0470 C   0  0  0  0  0  0  0  0  0  0  0  0
   59.3140   34.2140   50.9320 C   0  0  0  0  0  0  0  0  0  0  0  0
   59.3916   35.2843   50.6902 H   0  0  0  0  0  0  0  0  0  0  0  0
   58.6850   33.8180   52.1130 C   0  0  0  0  0  0  0  0  0  0  0  0
   58.2717   34.5749   52.7958 H   0  0  0  0  0  0  0  0  0  0  0  0
   58.5800   32.4660   52.4280 C   0  0  0  0  0  0  0  0  0  0  0  0
   58.0934   32.1573   53.3650 H   0  0  0  0  0  0  0  0  0  0  0  0
   59.0900   31.5020   51.5590 C   0  0  0  0  0  0  0  0  0  0  0  0
   58.9827   30.4353   51.8054 H   0  0  0  0  0  0  0  0  0  0  0  0
   59.7400   31.8800   50.3710 C   0  0  0  0  0  0  0  0  0  0  0  0
   60.2850   30.8110   49.5060 C   0  0  0  0  0  0  0  0  0  0  0  0
   61.1710   30.0320   49.9520 O   0  0  0  0  0  0  0  0  0  0  0  0
   59.8210   30.6820   48.1530 N   0  0  0  0  0  0  0  0  0  0  0  0
   59.3470   31.5070   47.7210 H   0  0  0  0  0  0  0  0  0  0  0  0
   60.0930   29.5460   47.3150 C   0  0  0  0  0  0  0  0  0  0  0  0
   59.9610   28.2530   47.8440 C   0  0  0  0  0  0  0  0  0  0  0  0
   59.6313   28.1194   48.8849 H   0  0  0  0  0  0  0  0  0  0  0  0
   60.2460   27.1330   47.0560 C   0  0  0  0  0  0  0  0  0  0  0  0
   60.1274   26.1224   47.4739 H   0  0  0  0  0  0  0  0  0  0  0  0
   60.6810   27.2970   45.7390 C   0  0  0  0  0  0  0  0  0  0  0  0
   60.9024   26.4158   45.1190 H   0  0  0  0  0  0  0  0  0  0  0  0
   60.8350   28.5810   45.2090 C   0  0  0  0  0  0  0  0  0  0  0  0
   61.1819   28.7092   44.1730 H   0  0  0  0  0  0  0  0  0  0  0  0
   60.5490   29.7030   45.9930 C   0  0  0  0  0  0  0  0  0  0  0  0
   60.6809   30.7119   45.5749 H   0  0  0  0  0  0  0  0  0  0  0  0
   58.2580   33.7020   44.6360 C   0  0  0  0  0  0  0  0  0  0  0  0
   57.6185   34.4845   44.2015 H   0  0  0  0  0  0  0  0  0  0  0  0
   57.7670   32.3130   44.5630 C   0  0  0  0  0  0  0  0  0  0  0  0
   57.4290   31.7690   43.2980 C   0  0  0  0  0  0  0  0  0  0  0  0
   57.4477   32.4128   42.4063 H   0  0  0  0  0  0  0  0  0  0  0  0
   57.0700   30.4150   43.1710 C   0  0  0  0  0  0  0  0  0  0  0  0
   56.7903   29.9894   42.1960 H   0  0  0  0  0  0  0  0  0  0  0  0
   57.0810   29.6330   44.3210 C   0  0  0  0  0  0  0  0  0  0  0  0
   56.8470   28.3160   44.4160 N   0  0  0  0  0  0  0  0  0  0  0  0
   57.0530   28.0790   45.7370 C   0  0  0  0  0  0  0  0  0  0  0  0
   56.9840   26.8780   46.2290 N   0  0  0  0  0  0  0  0  0  0  0  0
   56.0390   25.8600   45.8620 C   0  0  0  0  0  0  0  0  0  0  0  0
   54.8100   26.1160   45.9640 O   0  0  0  0  0  0  0  0  0  0  0  0
   56.4740   24.4830   45.4110 C   0  0  0  0  0  0  0  0  0  0  0  0
   56.1819   23.7630   46.1896 H   0  0  0  0  0  0  0  0  0  0  0  0
   55.7580   24.0700   44.0970 C   0  0  0  0  0  0  0  0  0  0  0  0
   54.7833   23.6299   44.3544 H   0  0  0  0  0  0  0  0  0  0  0  0
   55.6553   24.9775   43.4838 H   0  0  0  0  0  0  0  0  0  0  0  0
   56.5530   23.0440   43.2630 C   0  0  0  0  0  0  0  0  0  0  0  0
   55.8450   22.4047   42.7153 H   0  0  0  0  0  0  0  0  0  0  0  0
   57.2035   23.5967   42.5692 H   0  0  0  0  0  0  0  0  0  0  0  0
   57.4390   22.1600   44.1460 C   0  0  0  0  0  0  0  0  0  0  0  0
   56.8014   21.6182   44.8600 H   0  0  0  0  0  0  0  0  0  0  0  0
   57.9839   21.4631   43.4923 H   0  0  0  0  0  0  0  0  0  0  0  0
   58.4760   22.9870   44.9320 C   0  0  0  0  0  0  0  0  0  0  0  0
   58.6869   22.4711   45.8804 H   0  0  0  0  0  0  0  0  0  0  0  0
   59.3705   23.0734   44.2976 H   0  0  0  0  0  0  0  0  0  0  0  0
   58.0030   24.4210   45.2500 C   0  0  0  0  0  0  0  0  0  0  0  0
   58.4756   24.7549   46.1855 H   0  0  0  0  0  0  0  0  0  0  0  0
   58.2907   25.0748   44.4135 H   0  0  0  0  0  0  0  0  0  0  0  0
   57.4140   29.1720   46.4630 N   0  0  0  0  0  0  0  0  0  0  0  0
   57.4170   30.1430   45.5370 C   0  0  0  0  0  0  0  0  0  0  0  0
   57.7700   31.4800   45.7070 C   0  0  0  0  0  0  0  0  0  0  0  0
   58.0419   31.8748   46.6971 H   0  0  0  0  0  0  0  0  0  0  0  0
  1  2  1  0
  2  3  1  0
  3  4  2  0
  3  5  1  0
  5  6  1  0
  6  7  1  0
  6  8  1  0
  6  9  1  0
  9 10  2  0
 10 11  1  0
 10 12  1  0
 12 13  1  0
 12 14  2  0
 14 15  1  0
 14 16  1  0
 16 17  1  0
 16 18  2  0
 18 19  1  0
 19 20  2  0
 19 21  1  0
 21 22  1  0
 21 23  1  0
 23 24  2  0
 24 25  1  0
 24 26  1  0
 26 27  1  0
 26 28  2  0
 28 29  1  0
 28 30  1  0
 30 31  1  0
 30 32  2  0
 32 33  1  0
  2 34  2  3
 34 35  1  0
 34 36  1  0
 36 37  2  0
 37 38  1  0
 37 39  1  0
 39 40  1  0
 39 41  2  0
 41 42  1  0
 42 43  1  0
 43 44  2  0
 44 45  1  0
 45 46  2  0
 45 47  1  0
 47 48  1  0
 47 49  1  0
 49 50  1  0
 49 51  1  0
 49 52  1  0
 52 53  1  0
 52 54  1  0
 52 55  1  0
 55 56  1  0
 55 57  1  0
 55 58  1  0
 58 59  1  0
 58 60  1  0
 58 61  1  0
 61 62  1  0
 61 63  1  0
 43 64  1  0
 64 65  1  0
 65 66  2  0
 66 67  1  0
 18  9  1  0
 32 23  1  0
 66 36  1  0
 65 41  1  0
 61 47  1  0
M  CHG  3   5  -1  42  -1  64  -1
M  END
>  <UniqueID>  (71) 
64

>  <SMILES>  (71) 
O=C(C=Cc1ccc2[n-]/c(=N/C(=O)C3CCCCC3)[n-]c2c1)[N-]Cc1ccccc1C(=O)Nc1ccccc1

>  <Energy>  (71) 
125.47092753421316

>  <Genealogy>  (71) 
O=C(C=Cc1ccc2[n-]c(=NC(=O)C3CCCCC3)[n-]c2c1)[N-]Cc1ccccc1C(=O)Nc1ccccc1 (protonated)
O=C(C=Cc1ccc2[n-]/c(=N/C(=O)C3CCCCC3)[n-]c2c1)[N-]Cc1ccccc1C(=O)Nc1ccccc1 (cis-trans isomerization)
O=C(C=Cc1ccc2[n-]/c(=N/C(=O)C3CCCCC3)[n-]c2c1)[N-]Cc1ccccc1C(=O)Nc1ccccc1 (3D coordinates assigned)
O=C(C=Cc1ccc2[n-]/c(=N/C(=O)C3CCCCC3)[n-]c2c1)[N-]Cc1ccccc1C(=O)Nc1ccccc1 (nonaromatic ring conformer: 125.47092753421316 kcal/mol)

>  <smiles>  (71) 
O=C(C=Cc1ccc2[nH]c(=NC(=O)C3CCCCC3)[nH]c2c1)NCc1ccccc1C(=O)Nc1ccccc1

>  <score_type>  (71) 
oracle

>  <origin>  (71) 
adg

>  <m_score__min__energy>  (71) 
-15.41

>  <m_primary>  (71) 
energy

$$$$
71:0
     RDKit          3D

 37 39  0  0  0  0  0  0  0  0999 V2000
   57.0360   32.7050   40.5120 C   0  0  0  0  0  0  0  0  0  0  0  0
   58.1770   32.3350   41.4540 C   0  0  0  0  0  0  0  0  0  0  0  0
   57.6420   31.8350   42.7640 C   0  0  0  0  0  0  0  0  0  0  0  0
   56.6560   30.8420   42.8050 C   0  0  0  0  0  0  0  0  0  0  0  0
   56.1690   30.4380   44.0480 C   0  0  0  0  0  0  0  0  0  0  0  0
   55.2840   29.5450   44.1230 O   0  0  0  0  0  0  0  0  0  0  0  0
   56.6490   31.0100   45.1830 N   0  0  0  0  0  0  0  0  0  0  0  0
   57.6020   31.9760   45.1270 C   0  0  0  0  0  0  0  0  0  0  0  0
   58.2160   32.7140   46.6390 S   0  0  0  0  0  0  0  0  0  0  0  0
   59.7910   31.7930   46.6270 C   0  0  0  0  0  0  0  0  0  0  0  0
   59.5480   30.3250   46.8020 C   0  0  0  0  0  0  0  0  0  0  0  0
   60.0600   29.7280   47.7870 O   0  0  0  0  0  0  0  0  0  0  0  0
   58.7990   29.6010   45.8130 N   0  0  0  0  0  0  0  0  0  0  0  0
   58.3930   28.2290   45.9540 C   0  0  0  0  0  0  0  0  0  0  0  0
   59.3850   27.2240   46.0780 C   0  0  0  0  0  0  0  0  0  0  0  0
   59.0230   25.8690   46.1950 C   0  0  0  0  0  0  0  0  0  0  0  0
   57.6690   25.5550   46.1700 C   0  0  0  0  0  0  0  0  0  0  0  0
   56.7130   26.5070   46.0330 C   0  0  0  0  0  0  0  0  0  0  0  0
   57.0270   27.8580   45.9140 C   0  0  0  0  0  0  0  0  0  0  0  0
   55.4670   25.9110   46.0270 O   0  0  0  0  0  0  0  0  0  0  0  0
   55.6520   24.4950   46.1730 C   0  0  0  0  0  0  0  0  0  0  0  0
   57.0720   24.3120   46.2600 O   0  0  0  0  0  0  0  0  0  0  0  0
   58.0860   32.3880   43.9260 N   0  0  0  0  0  0  0  0  0  0  0  0
   56.1524   32.9915   41.1012 H   0  0  0  0  0  0  0  0  0  0  0  0
   57.3434   33.5495   39.8777 H   0  0  0  0  0  0  0  0  0  0  0  0
   56.7893   31.8408   39.8777 H   0  0  0  0  0  0  0  0  0  0  0  0
   58.7881   31.5473   40.9892 H   0  0  0  0  0  0  0  0  0  0  0  0
   58.7870   33.2313   41.6399 H   0  0  0  0  0  0  0  0  0  0  0  0
   56.2739   30.3905   41.8776 H   0  0  0  0  0  0  0  0  0  0  0  0
   60.3010   31.9626   45.6673 H   0  0  0  0  0  0  0  0  0  0  0  0
   60.4153   32.1496   47.4595 H   0  0  0  0  0  0  0  0  0  0  0  0
   58.6200   30.0730   44.8980 H   0  0  0  0  0  0  0  0  0  0  0  0
   60.4482   27.5060   46.0828 H   0  0  0  0  0  0  0  0  0  0  0  0
   59.7863   25.0843   46.3027 H   0  0  0  0  0  0  0  0  0  0  0  0
   56.2378   28.6145   45.7926 H   0  0  0  0  0  0  0  0  0  0  0  0
   55.1590   24.1331   47.0873 H   0  0  0  0  0  0  0  0  0  0  0  0
   55.2140   23.9330   45.3349 H   0  0  0  0  0  0  0  0  0  0  0  0
  1  2  1  0
  2  3  1  0
  3  4  2  0
  4  5  1  0
  5  6  2  0
  5  7  1  0
  7  8  1  0
  8  9  1  0
  9 10  1  0
 10 11  1  0
 11 12  2  0
 11 13  1  0
 13 14  1  0
 14 15  2  0
 15 16  1  0
 16 17  2  0
 17 18  1  0
 18 19  2  0
 18 20  1  0
 20 21  1  0
 21 22  1  0
  8 23  2  0
 23  3  1  0
 19 14  1  0
 22 17  1  0
  1 24  1  0
  1 25  1  0
  1 26  1  0
  2 27  1  0
  2 28  1  0
  4 29  1  0
 10 30  1  0
 10 31  1  0
 13 32  1  0
 15 33  1  0
 16 34  1  0
 19 35  1  0
 21 36  1  0
 21 37  1  0
M  CHG  1   7  -1
M  END
>  <UniqueID>  (72) 
65

>  <SMILES>  (72) 
CCc1cc(=O)[n-]c(SCC(=O)Nc2ccc3c(c2)OCO3)n1

>  <Energy>  (72) 
62.067075335181876

>  <Genealogy>  (72) 
CCc1cc(=O)[n-]c(SCC(=O)Nc2ccc3c(c2)OCO3)n1 (protonated)
CCc1cc(=O)[n-]c(SCC(=O)Nc2ccc3c(c2)OCO3)n1 (3D coordinates assigned)
CCc1cc(=O)[n-]c(SCC(=O)Nc2ccc3c(c2)OCO3)n1 (nonaromatic ring conformer: 62.067075335181876 kcal/mol)

>  <smiles>  (72) 
CCc1cc(=O)[nH]c(SCC(=O)Nc2ccc3c(c2)OCO3)n1

>  <score_type>  (72) 
oracle

>  <origin>  (72) 
adg

>  <m_score__min__energy>  (72) 
-8.6799999999999997

>  <m_primary>  (72) 
energy

$$$$
72:0
     RDKit          3D

 62 65  0  0  0  0  0  0  0  0999 V2000
   63.4708   32.4678   50.1144 H   0  0  0  0  0  0  0  0  0  0  0  0
   62.8560   31.9160   49.3880 C   0  0  0  0  0  0  0  0  0  0  0  0
   62.0340   30.9270   49.8120 N   0  0  0  0  0  0  0  0  0  0  0  0
   61.2670   30.1990   48.9510 C   0  0  0  0  0  0  0  0  0  0  0  0
   60.4800   29.2690   49.3890 N   0  0  0  0  0  0  0  0  0  0  0  0
   59.0930   29.1180   49.0390 C   0  0  0  0  0  0  0  0  0  0  0  0
   58.1850   29.5540   49.8030 O   0  0  0  0  0  0  0  0  0  0  0  0
   58.6820   28.5290   47.7200 C   0  0  0  0  0  0  0  0  0  0  0  0
   57.5886   28.4083   47.7217 H   0  0  0  0  0  0  0  0  0  0  0  0
   59.0329   29.2220   46.9412 H   0  0  0  0  0  0  0  0  0  0  0  0
   59.4420   26.8950   47.3550 S   0  0  0  0  0  0  0  0  0  0  0  0
   57.9270   25.9870   46.9720 C   0  0  0  0  0  0  0  0  0  0  0  0
   57.5820   24.9250   47.8190 C   0  0  0  0  0  0  0  0  0  0  0  0
   58.2138   24.6946   48.6895 H   0  0  0  0  0  0  0  0  0  0  0  0
   56.4450   24.1580   47.5680 C   0  0  0  0  0  0  0  0  0  0  0  0
   56.1768   23.3331   48.2445 H   0  0  0  0  0  0  0  0  0  0  0  0
   55.6480   24.4380   46.4580 C   0  0  0  0  0  0  0  0  0  0  0  0
   54.7554   23.8276   46.2564 H   0  0  0  0  0  0  0  0  0  0  0  0
   55.9790   25.4900   45.6020 C   0  0  0  0  0  0  0  0  0  0  0  0
   55.3472   25.6994   44.7262 H   0  0  0  0  0  0  0  0  0  0  0  0
   57.1120   26.2840   45.8490 C   0  0  0  0  0  0  0  0  0  0  0  0
   57.4140   27.4210   44.9440 C   0  0  0  0  0  0  0  0  0  0  0  0
   58.2890   27.2830   44.0480 O   0  0  0  0  0  0  0  0  0  0  0  0
   56.6880   28.6590   45.0040 N   0  0  0  0  0  0  0  0  0  0  0  0
   56.9390   29.8840   44.2950 C   0  0  0  0  0  0  0  0  0  0  0  0
   56.7010   30.0200   42.9150 C   0  0  0  0  0  0  0  0  0  0  0  0
   56.2851   29.1755   42.3460 H   0  0  0  0  0  0  0  0  0  0  0  0
   56.9900   31.2220   42.2630 C   0  0  0  0  0  0  0  0  0  0  0  0
   56.8117   31.3165   41.1817 H   0  0  0  0  0  0  0  0  0  0  0  0
   57.5050   32.3040   42.9820 C   0  0  0  0  0  0  0  0  0  0  0  0
   57.7542   33.2404   42.4614 H   0  0  0  0  0  0  0  0  0  0  0  0
   57.7050   32.1980   44.3680 C   0  0  0  0  0  0  0  0  0  0  0  0
   58.3450   33.5710   45.2850 S   0  0  0  0  0  0  0  0  0  0  0  0
   57.2070   34.4960   45.6360 O   0  0  0  0  0  0  0  0  0  0  0  0
   59.3190   34.3410   44.4280 O   0  0  0  0  0  0  0  0  0  0  0  0
   59.1690   33.0520   46.7400 N   0  0  0  0  0  0  0  0  0  0  0  0
   60.2420   33.9940   47.1620 C   0  0  0  0  0  0  0  0  0  0  0  0
   61.1658   33.4202   47.3274 H   0  0  0  0  0  0  0  0  0  0  0  0
   60.3563   34.7393   46.3611 H   0  0  0  0  0  0  0  0  0  0  0  0
   59.9040   34.7580   48.4520 C   0  0  0  0  0  0  0  0  0  0  0  0
   60.7669   35.3782   48.7360 H   0  0  0  0  0  0  0  0  0  0  0  0
   59.0181   35.3813   48.2605 H   0  0  0  0  0  0  0  0  0  0  0  0
   59.5760   33.7980   49.6100 C   0  0  0  0  0  0  0  0  0  0  0  0
   60.5116   33.5426   50.1291 H   0  0  0  0  0  0  0  0  0  0  0  0
   58.8655   34.3134   50.2730 H   0  0  0  0  0  0  0  0  0  0  0  0
   58.9040   32.4940   49.1400 C   0  0  0  0  0  0  0  0  0  0  0  0
   59.6716   31.7140   49.0288 H   0  0  0  0  0  0  0  0  0  0  0  0
   58.1563   32.1960   49.8897 H   0  0  0  0  0  0  0  0  0  0  0  0
   58.1950   32.6930   47.7980 C   0  0  0  0  0  0  0  0  0  0  0  0
   57.6843   31.7600   47.5174 H   0  0  0  0  0  0  0  0  0  0  0  0
   57.4662   33.5106   47.9004 H   0  0  0  0  0  0  0  0  0  0  0  0
   57.4150   30.9890   45.0170 C   0  0  0  0  0  0  0  0  0  0  0  0
   57.5623   30.9061   46.1039 H   0  0  0  0  0  0  0  0  0  0  0  0
   61.3250   30.4750   47.5790 C   0  0  0  0  0  0  0  0  0  0  0  0
   60.7320   29.8822   46.8670 H   0  0  0  0  0  0  0  0  0  0  0  0
   62.1440   31.5110   47.1250 C   0  0  0  0  0  0  0  0  0  0  0  0
   62.1752   31.7567   46.0533 H   0  0  0  0  0  0  0  0  0  0  0  0
   62.9250   32.2370   48.0310 C   0  0  0  0  0  0  0  0  0  0  0  0
   63.7780   33.3670   47.5690 C   0  0  0  0  0  0  0  0  0  0  0  0
   64.1818   33.9020   48.4412 H   0  0  0  0  0  0  0  0  0  0  0  0
   64.6079   32.9757   46.9623 H   0  0  0  0  0  0  0  0  0  0  0  0
   63.1743   34.0579   46.9623 H   0  0  0  0  0  0  0  0  0  0  0  0
  1  2  1  0
  2  3  1  0
  3  4  1  0
  4  5  2  0
  5  6  1  0
  6  7  2  0
  6  8  1  0
  8  9  1  0
  8 10  1  0
  8 11  1  0
 11 12  1  0
 12 13  2  0
 13 14  1  0
 13 15  1  0
 15 16  1  0
 15 17  2  0
 17 18  1  0
 17 19  1  0
 19 20  1  0
 19 21  2  0
 21 22  1  0
 22 23  2  0
 22 24  1  0
 24 25  1  0
 25 26  2  0
 26 27  1  0
 26 28  1  0
 28 29  1  0
 28 30  2  0
 30 31  1  0
 30 32  1  0
 32 33  1  0
 33 34  2  0
 33 35  2  0
 33 36  1  0
 36 37  1  0
 37 38  1  0
 37 39  1  0
 37 40  1  0
 40 41  1  0
 40 42  1  0
 40 43  1  0
 43 44  1  0
 43 45  1  0
 43 46  1  0
 46 47  1  0
 46 48  1  0
 46 49  1  0
 49 50  1  0
 49 51  1  0
 32 52  2  0
 52 53  1  0
  4 54  1  0
 54 55  1  0
 54 56  2  0
 56 57  1  0
 56 58  1  0
 58 59  1  0
 59 60  1  0
 59 61  1  0
 59 62  1  0
 58  2  2  0
 21 12  1  0
 52 25  1  0
 49 36  1  0
M  CHG  2   3  -1  24  -1
M  END
>  <UniqueID>  (73) 
66

>  <SMILES>  (73) 
Cc1cc/c(=N/C(=O)CSc2ccccc2C(=O)[N-]c2cccc(S(=O)(=O)N3CCCCC3)c2)[n-]c1

>  <Energy>  (73) 
79.12923107907369

>  <Genealogy>  (73) 
Cc1ccc(=NC(=O)CSc2ccccc2C(=O)[N-]c2cccc(S(=O)(=O)N3CCCCC3)c2)[n-]c1 (protonated)
Cc1cc/c(=N/C(=O)CSc2ccccc2C(=O)[N-]c2cccc(S(=O)(=O)N3CCCCC3)c2)[n-]c1 (cis-trans isomerization)
Cc1cc/c(=N/C(=O)CSc2ccccc2C(=O)[N-]c2cccc(S(=O)(=O)N3CCCCC3)c2)[n-]c1 (3D coordinates assigned)
Cc1cc/c(=N/C(=O)CSc2ccccc2C(=O)[N-]c2cccc(S(=O)(=O)N3CCCCC3)c2)[n-]c1 (nonaromatic ring conformer: 79.12923107907369 kcal/mol)

>  <smiles>  (73) 
Cc1ccc(=NC(=O)CSc2ccccc2C(=O)Nc2cccc(S(=O)(=O)N3CCCCC3)c2)[nH]c1

>  <score_type>  (73) 
oracle

>  <origin>  (73) 
adg

>  <m_score__min__energy>  (73) 
-12.550000000000001

>  <m_primary>  (73) 
energy

$$$$
73:0
     RDKit          3D

 26 27  0  0  0  0  0  0  0  0999 V2000
   57.0510   34.1580   45.2430 C   0  0  0  0  0  0  0  0  0  0  0  0
   57.6200   32.8290   45.6430 C   0  0  0  0  0  0  0  0  0  0  0  0
   58.3020   32.6900   46.8610 C   0  0  0  0  0  0  0  0  0  0  0  0
   58.8610   31.4600   47.2170 C   0  0  0  0  0  0  0  0  0  0  0  0
   58.7550   30.3640   46.3570 C   0  0  0  0  0  0  0  0  0  0  0  0
   58.0960   30.4940   45.1240 C   0  0  0  0  0  0  0  0  0  0  0  0
   57.9610   29.3080   44.2050 C   0  0  0  0  0  0  0  0  0  0  0  0
   57.3970   28.1190   44.9510 C   0  0  0  0  0  0  0  0  0  0  0  0
   56.0270   28.0410   45.2620 C   0  0  0  0  0  0  0  0  0  0  0  0
   55.1460   29.0380   44.8590 O   0  0  0  0  0  0  0  0  0  0  0  0
   55.5490   26.9800   45.9630 N   0  0  0  0  0  0  0  0  0  0  0  0
   56.3720   25.9840   46.3770 C   0  0  0  0  0  0  0  0  0  0  0  0
   55.9040   25.0120   47.0230 O   0  0  0  0  0  0  0  0  0  0  0  0
   57.6980   26.0370   46.0970 N   0  0  0  0  0  0  0  0  0  0  0  0
   58.2280   27.0750   45.4000 C   0  0  0  0  0  0  0  0  0  0  0  0
   59.4640   27.0880   45.1620 O   0  0  0  0  0  0  0  0  0  0  0  0
   57.5310   31.7320   44.7720 C   0  0  0  0  0  0  0  0  0  0  0  0
   56.8031   34.7371   46.1448 H   0  0  0  0  0  0  0  0  0  0  0  0
   57.7920   34.7092   44.6455 H   0  0  0  0  0  0  0  0  0  0  0  0
   56.1407   34.0023   44.6455 H   0  0  0  0  0  0  0  0  0  0  0  0
   58.3969   33.5519   47.5378 H   0  0  0  0  0  0  0  0  0  0  0  0
   59.3863   31.3542   48.1776 H   0  0  0  0  0  0  0  0  0  0  0  0
   59.1894   29.3959   46.6469 H   0  0  0  0  0  0  0  0  0  0  0  0
   57.2865   29.5679   43.3758 H   0  0  0  0  0  0  0  0  0  0  0  0
   58.9560   29.0443   43.8171 H   0  0  0  0  0  0  0  0  0  0  0  0
   57.0152   31.8419   43.8067 H   0  0  0  0  0  0  0  0  0  0  0  0
  1  2  1  0
  2  3  2  0
  3  4  1  0
  4  5  2  0
  5  6  1  0
  6  7  1  0
  7  8  1  0
  8  9  2  0
  9 10  1  0
  9 11  1  0
 11 12  1  0
 12 13  2  0
 12 14  1  0
 14 15  1  0
 15 16  2  0
  6 17  2  0
 17  2  1  0
 15  8  1  0
  1 18  1  0
  1 19  1  0
  1 20  1  0
  3 21  1  0
  4 22  1  0
  5 23  1  0
  7 24  1  0
  7 25  1  0
 17 26  1  0
M  CHG  3  10  -1  11  -1  14  -1
M  END
>  <UniqueID>  (74) 
67

>  <SMILES>  (74) 
Cc1cccc(Cc2c([O-])[n-]c(=O)[n-]c2=O)c1

>  <Energy>  (74) 
27.547579809769296

>  <Genealogy>  (74) 
Cc1cccc(Cc2c([O-])[n-]c(=O)[n-]c2=O)c1 (protonated)
Cc1cccc(Cc2c([O-])[n-]c(=O)[n-]c2=O)c1 (3D coordinates assigned)
Cc1cccc(Cc2c([O-])[n-]c(=O)[n-]c2=O)c1 (optimized conformer: 27.547579809769296 kcal/mol)

>  <smiles>  (74) 
Cc1cccc(Cc2c(O)[nH]c(=O)[nH]c2=O)c1

>  <score_type>  (74) 
oracle

>  <origin>  (74) 
adg

>  <m_score__min__energy>  (74) 
-14.470000000000001

>  <m_primary>  (74) 
energy

$$$$
74:0
     RDKit          3D

 64 68  0  0  0  0  0  0  0  0999 V2000
   57.4750   26.0340   46.4170 O   0  0  0  0  0  0  0  0  0  0  0  0
   56.5810   26.8130   45.9920 C   0  0  0  0  0  0  0  0  0  0  0  0
   55.2050   26.4320   46.1400 N   0  0  0  0  0  0  0  0  0  0  0  0
   54.5980   25.2240   45.5850 C   0  0  0  0  0  0  0  0  0  0  0  0
   55.6570   24.2070   45.2510 C   0  0  0  0  0  0  0  0  0  0  0  0
   56.0360   24.0000   43.9160 C   0  0  0  0  0  0  0  0  0  0  0  0
   56.9930   23.0320   43.5980 C   0  0  0  0  0  0  0  0  0  0  0  0
   57.5810   22.2690   44.6100 C   0  0  0  0  0  0  0  0  0  0  0  0
   57.2140   22.4730   45.9420 C   0  0  0  0  0  0  0  0  0  0  0  0
   56.2540   23.4360   46.2630 C   0  0  0  0  0  0  0  0  0  0  0  0
   56.9790   28.0730   45.3380 C   0  0  0  0  0  0  0  0  0  0  0  0
   56.0100   28.9800   44.8880 C   0  0  0  0  0  0  0  0  0  0  0  0
   56.3940   30.1720   44.2680 C   0  0  0  0  0  0  0  0  0  0  0  0
   57.7530   30.4810   44.1090 C   0  0  0  0  0  0  0  0  0  0  0  0
   58.1540   31.7880   43.4820 C   0  0  0  0  0  0  0  0  0  0  0  0
   57.2010   32.8000   43.8010 O   0  0  0  0  0  0  0  0  0  0  0  0
   57.3950   33.7520   44.8090 C   0  0  0  0  0  0  0  0  0  0  0  0
   56.5220   34.6380   45.0190 O   0  0  0  0  0  0  0  0  0  0  0  0
   58.6360   33.7270   45.6160 C   0  0  0  0  0  0  0  0  0  0  0  0
   59.5050   34.8270   45.6210 C   0  0  0  0  0  0  0  0  0  0  0  0
   60.7040   34.7720   46.3280 C   0  0  0  0  0  0  0  0  0  0  0  0
   61.0410   33.6290   47.0570 C   0  0  0  0  0  0  0  0  0  0  0  0
   60.1660   32.5260   47.1270 C   0  0  0  0  0  0  0  0  0  0  0  0
   58.9710   32.5860   46.3680 C   0  0  0  0  0  0  0  0  0  0  0  0
   60.4800   31.3590   47.9550 N   0  0  0  0  0  0  0  0  0  0  0  0
   59.3880   30.4010   48.2650 C   0  0  0  0  0  0  0  0  0  0  0  0
   59.8560   29.0770   48.8240 C   0  0  0  0  0  0  0  0  0  0  0  0
   60.2270   28.9690   50.1750 C   0  0  0  0  0  0  0  0  0  0  0  0
   60.6860   27.7500   50.6860 C   0  0  0  0  0  0  0  0  0  0  0  0
   60.7770   26.6320   49.8510 C   0  0  0  0  0  0  0  0  0  0  0  0
   60.4120   26.7320   48.5060 C   0  0  0  0  0  0  0  0  0  0  0  0
   59.9540   27.9500   47.9920 C   0  0  0  0  0  0  0  0  0  0  0  0
   61.7850   31.2220   48.6520 C   0  0  0  0  0  0  0  0  0  0  0  0
   62.8930   31.8070   47.9050 N   0  0  0  0  0  0  0  0  0  0  0  0
   62.6160   33.5020   47.7790 S   0  0  0  0  0  0  0  0  0  0  0  0
   62.6410   34.1500   49.1350 O   0  0  0  0  0  0  0  0  0  0  0  0
   63.6630   34.1150   46.8920 O   0  0  0  0  0  0  0  0  0  0  0  0
   58.7230   29.5800   44.5750 C   0  0  0  0  0  0  0  0  0  0  0  0
   58.3380   28.3870   45.1930 C   0  0  0  0  0  0  0  0  0  0  0  0
   53.9046   24.7953   46.3235 H   0  0  0  0  0  0  0  0  0  0  0  0
   54.0563   25.4887   44.6649 H   0  0  0  0  0  0  0  0  0  0  0  0
   55.5784   24.6016   43.1168 H   0  0  0  0  0  0  0  0  0  0  0  0
   57.2836   22.8707   42.5494 H   0  0  0  0  0  0  0  0  0  0  0  0
   58.3333   21.5073   44.3575 H   0  0  0  0  0  0  0  0  0  0  0  0
   57.6809   21.8753   46.7387 H   0  0  0  0  0  0  0  0  0  0  0  0
   55.9641   23.5914   47.3127 H   0  0  0  0  0  0  0  0  0  0  0  0
   54.9423   28.7526   45.0235 H   0  0  0  0  0  0  0  0  0  0  0  0
   55.6272   30.8711   43.9030 H   0  0  0  0  0  0  0  0  0  0  0  0
   59.1419   32.0860   43.8632 H   0  0  0  0  0  0  0  0  0  0  0  0
   58.1947   31.6647   42.3897 H   0  0  0  0  0  0  0  0  0  0  0  0
   59.2389   35.7376   45.0642 H   0  0  0  0  0  0  0  0  0  0  0  0
   61.3887   35.6327   46.3122 H   0  0  0  0  0  0  0  0  0  0  0  0
   58.2904   31.7218   46.3667 H   0  0  0  0  0  0  0  0  0  0  0  0
   58.7198   30.8687   49.0031 H   0  0  0  0  0  0  0  0  0  0  0  0
   58.8868   30.1785   47.3114 H   0  0  0  0  0  0  0  0  0  0  0  0
   60.1562   29.8469   50.8340 H   0  0  0  0  0  0  0  0  0  0  0  0
   60.9752   27.6711   51.7444 H   0  0  0  0  0  0  0  0  0  0  0  0
   61.1361   25.6733   50.2533 H   0  0  0  0  0  0  0  0  0  0  0  0
   60.4848   25.8518   47.8503 H   0  0  0  0  0  0  0  0  0  0  0  0
   59.6696   28.0251   46.9321 H   0  0  0  0  0  0  0  0  0  0  0  0
   61.7158   31.7246   49.6280 H   0  0  0  0  0  0  0  0  0  0  0  0
   61.9906   30.1466   48.7583 H   0  0  0  0  0  0  0  0  0  0  0  0
   59.7910   29.8138   44.4533 H   0  0  0  0  0  0  0  0  0  0  0  0
   59.1039   27.6917   45.5671 H   0  0  0  0  0  0  0  0  0  0  0  0
  1  2  2  0
  2  3  1  0
  3  4  1  0
  4  5  1  0
  5  6  2  0
  6  7  1  0
  7  8  2  0
  8  9  1  0
  9 10  2  0
  2 11  1  0
 11 12  2  0
 12 13  1  0
 13 14  2  0
 14 15  1  0
 15 16  1  0
 16 17  1  0
 17 18  2  0
 17 19  1  0
 19 20  2  0
 20 21  1  0
 21 22  2  0
 22 23  1  0
 23 24  2  0
 23 25  1  0
 25 26  1  0
 26 27  1  0
 27 28  2  0
 28 29  1  0
 29 30  2  0
 30 31  1  0
 31 32  2  0
 25 33  1  0
 33 34  1  0
 34 35  1  0
 35 36  2  0
 35 37  2  0
 14 38  1  0
 38 39  2  0
 10  5  1  0
 39 11  1  0
 24 19  1  0
 32 27  1  0
 35 22  1  0
  4 40  1  0
  4 41  1  0
  6 42  1  0
  7 43  1  0
  8 44  1  0
  9 45  1  0
 10 46  1  0
 12 47  1  0
 13 48  1  0
 15 49  1  0
 15 50  1  0
 20 51  1  0
 21 52  1  0
 24 53  1  0
 26 54  1  0
 26 55  1  0
 28 56  1  0
 29 57  1  0
 30 58  1  0
 31 59  1  0
 32 60  1  0
 33 61  1  0
 33 62  1  0
 38 63  1  0
 39 64  1  0
M  CHG  2   3  -1  34  -1
M  END
>  <UniqueID>  (75) 
68

>  <SMILES>  (75) 
O=C([N-]Cc1ccccc1)c1ccc(COC(=O)c2ccc3c(c2)N(Cc2ccccc2)C[N-]S3(=O)=O)cc1

>  <Energy>  (75) 
81.4858456351557

>  <Genealogy>  (75) 
O=C([N-]Cc1ccccc1)c1ccc(COC(=O)c2ccc3c(c2)N(Cc2ccccc2)C[N-]S3(=O)=O)cc1 (protonated)
O=C([N-]Cc1ccccc1)c1ccc(COC(=O)c2ccc3c(c2)N(Cc2ccccc2)C[N-]S3(=O)=O)cc1 (3D coordinates assigned)
O=C([N-]Cc1ccccc1)c1ccc(COC(=O)c2ccc3c(c2)N(Cc2ccccc2)C[N-]S3(=O)=O)cc1 (nonaromatic ring conformer: 81.4858456351557 kcal/mol)

>  <smiles>  (75) 
O=C(NCc1ccccc1)c1ccc(COC(=O)c2ccc3c(c2)N(Cc2ccccc2)CNS3(=O)=O)cc1

>  <score_type>  (75) 
oracle

>  <origin>  (75) 
adg

>  <m_score__min__energy>  (75) 
-13.119999999999999

>  <m_primary>  (75) 
energy

$$$$
75:0
     RDKit          3D

 48 51  0  0  0  0  0  0  0  0999 V2000
   60.1340   28.1380   48.5610 O   0  0  0  0  0  0  0  0  0  0  0  0
   59.4660   29.1500   48.2110 C   0  0  0  0  0  0  0  0  0  0  0  0
   58.5360   29.0470   47.0360 C   0  0  0  0  0  0  0  0  0  0  0  0
   58.5020   30.3170   46.2090 C   0  0  0  0  0  0  0  0  0  0  0  0
   59.0730   31.4490   46.7040 N   0  0  0  0  0  0  0  0  0  0  0  0
   59.0740   32.6110   46.0490 N   0  0  0  0  0  0  0  0  0  0  0  0
   59.7100   33.7340   46.6810 C   0  0  0  0  0  0  0  0  0  0  0  0
   59.2000   34.8800   46.5490 O   0  0  0  0  0  0  0  0  0  0  0  0
   60.9760   33.5840   47.4420 C   0  0  0  0  0  0  0  0  0  0  0  0
   62.0360   32.8260   46.9110 C   0  0  0  0  0  0  0  0  0  0  0  0
   63.2250   32.6740   47.6300 C   0  0  0  0  0  0  0  0  0  0  0  0
   63.3670   33.2670   48.8880 C   0  0  0  0  0  0  0  0  0  0  0  0
   64.8600   33.0740   49.7880 Cl  0  0  0  0  0  0  0  0  0  0  0  0
   62.3150   34.0120   49.4290 C   0  0  0  0  0  0  0  0  0  0  0  0
   61.1240   34.1670   48.7140 C   0  0  0  0  0  0  0  0  0  0  0  0
   58.5190   32.7090   44.8020 C   0  0  0  0  0  0  0  0  0  0  0  0
   58.5820   33.7950   44.1600 O   0  0  0  0  0  0  0  0  0  0  0  0
   57.8890   31.5890   44.2320 C   0  0  0  0  0  0  0  0  0  0  0  0
   57.2790   31.6610   42.9640 C   0  0  0  0  0  0  0  0  0  0  0  0
   56.6490   30.5420   42.4190 C   0  0  0  0  0  0  0  0  0  0  0  0
   56.6170   29.3420   43.1270 C   0  0  0  0  0  0  0  0  0  0  0  0
   57.2200   29.2510   44.3830 C   0  0  0  0  0  0  0  0  0  0  0  0
   57.8690   30.3700   44.9500 C   0  0  0  0  0  0  0  0  0  0  0  0
   59.5250   30.3630   48.9760 N   0  0  0  0  0  0  0  0  0  0  0  0
   60.4070   30.5450   50.0950 C   0  0  0  0  0  0  0  0  0  0  0  0
   61.5500   29.7360   50.2110 C   0  0  0  0  0  0  0  0  0  0  0  0
   62.4700   29.9440   51.2400 C   0  0  0  0  0  0  0  0  0  0  0  0
   62.2660   30.9710   52.1580 C   0  0  0  0  0  0  0  0  0  0  0  0
   61.1400   31.7900   52.0560 C   0  0  0  0  0  0  0  0  0  0  0  0
   60.1930   31.5880   51.0340 C   0  0  0  0  0  0  0  0  0  0  0  0
   58.9840   32.4500   50.9980 C   0  0  0  0  0  0  0  0  0  0  0  0
   58.7750   33.2880   51.9150 O   0  0  0  0  0  0  0  0  0  0  0  0
   58.0440   32.3240   49.9820 O   0  0  0  0  0  0  0  0  0  0  0  0
   58.8684   28.2174   46.3948 H   0  0  0  0  0  0  0  0  0  0  0  0
   57.5221   28.8754   47.4265 H   0  0  0  0  0  0  0  0  0  0  0  0
   61.9283   32.3506   45.9249 H   0  0  0  0  0  0  0  0  0  0  0  0
   64.0516   32.0859   47.2046 H   0  0  0  0  0  0  0  0  0  0  0  0
   62.4248   34.4773   50.4197 H   0  0  0  0  0  0  0  0  0  0  0  0
   60.2973   34.7483   49.1484 H   0  0  0  0  0  0  0  0  0  0  0  0
   57.2996   32.6054   42.4003 H   0  0  0  0  0  0  0  0  0  0  0  0
   56.1763   30.6070   41.4279 H   0  0  0  0  0  0  0  0  0  0  0  0
   56.1151   28.4637   42.6949 H   0  0  0  0  0  0  0  0  0  0  0  0
   57.1894   28.3002   44.9353 H   0  0  0  0  0  0  0  0  0  0  0  0
   58.8700   31.1380   48.7250 H   0  0  0  0  0  0  0  0  0  0  0  0
   61.7217   28.9297   49.4827 H   0  0  0  0  0  0  0  0  0  0  0  0
   63.3555   29.2971   51.3257 H   0  0  0  0  0  0  0  0  0  0  0  0
   62.9940   31.1374   52.9657 H   0  0  0  0  0  0  0  0  0  0  0  0
   60.9910   32.6024   52.7825 H   0  0  0  0  0  0  0  0  0  0  0  0
  1  2  2  0
  2  3  1  0
  3  4  1  0
  4  5  2  0
  5  6  1  0
  6  7  1  0
  7  8  2  0
  7  9  1  0
  9 10  2  0
 10 11  1  0
 11 12  2  0
 12 13  1  0
 12 14  1  0
 14 15  2  0
  6 16  1  0
 16 17  2  0
 16 18  1  0
 18 19  2  0
 19 20  1  0
 20 21  2  0
 21 22  1  0
 22 23  2  0
  2 24  1  0
 24 25  1  0
 25 26  2  0
 26 27  1  0
 27 28  2  0
 28 29  1  0
 29 30  2  0
 30 31  1  0
 31 32  2  0
 31 33  1  0
 23  4  1  0
 30 25  1  0
 15  9  1  0
 23 18  1  0
  3 34  1  0
  3 35  1  0
 10 36  1  0
 11 37  1  0
 14 38  1  0
 15 39  1  0
 19 40  1  0
 20 41  1  0
 21 42  1  0
 22 43  1  0
 24 44  1  0
 26 45  1  0
 27 46  1  0
 28 47  1  0
 29 48  1  0
M  CHG  1  33  -1
M  END
>  <UniqueID>  (76) 
69

>  <SMILES>  (76) 
O=C(Cc1nn(C(=O)c2ccc(Cl)cc2)c(=O)c2ccccc12)Nc1ccccc1C(=O)[O-]

>  <Energy>  (76) 
74.74647779653618

>  <Genealogy>  (76) 
O=C(Cc1nn(C(=O)c2ccc(Cl)cc2)c(=O)c2ccccc12)Nc1ccccc1C(=O)[O-] (protonated)
O=C(Cc1nn(C(=O)c2ccc(Cl)cc2)c(=O)c2ccccc12)Nc1ccccc1C(=O)[O-] (3D coordinates assigned)
O=C(Cc1nn(C(=O)c2ccc(Cl)cc2)c(=O)c2ccccc12)Nc1ccccc1C(=O)[O-] (optimized conformer: 74.74647779653618 kcal/mol)

>  <smiles>  (76) 
O=C(Cc1nn(C(=O)c2ccc(Cl)cc2)c(=O)c2ccccc12)Nc1ccccc1C(=O)O

>  <score_type>  (76) 
oracle

>  <origin>  (76) 
adg

>  <m_score__min__energy>  (76) 
-13.289999999999999

>  <m_primary>  (76) 
energy

$$$$
76:0
     RDKit          3D

 41 42  0  0  0  0  0  0  0  0999 V2000
   60.8860   30.6740   48.8490 C   0  0  0  0  0  0  0  0  0  0  0  0
   61.8200   31.7890   48.4570 C   0  0  0  0  0  0  0  0  0  0  0  0
   62.8760   31.5100   47.5700 C   0  0  0  0  0  0  0  0  0  0  0  0
   63.7510   32.5190   47.1670 C   0  0  0  0  0  0  0  0  0  0  0  0
   63.5820   33.8200   47.6380 C   0  0  0  0  0  0  0  0  0  0  0  0
   62.5460   34.1140   48.5250 C   0  0  0  0  0  0  0  0  0  0  0  0
   61.6710   33.1050   48.9700 C   0  0  0  0  0  0  0  0  0  0  0  0
   60.5580   33.4760   49.9280 C   0  0  0  0  0  0  0  0  0  0  0  0
   59.3760   33.8690   49.2270 O   0  0  0  0  0  0  0  0  0  0  0  0
   59.2130   33.8320   47.8330 C   0  0  0  0  0  0  0  0  0  0  0  0
   59.4060   35.0170   47.1130 C   0  0  0  0  0  0  0  0  0  0  0  0
   59.2520   35.0360   45.7250 C   0  0  0  0  0  0  0  0  0  0  0  0
   58.9040   33.8690   45.0420 C   0  0  0  0  0  0  0  0  0  0  0  0
   58.7060   32.6700   45.7450 C   0  0  0  0  0  0  0  0  0  0  0  0
   58.3370   31.4020   45.0100 C   0  0  0  0  0  0  0  0  0  0  0  0
   56.8870   31.1430   45.0400 N   0  0  0  0  0  0  0  0  0  0  0  0
   56.3290   30.8510   43.7110 C   0  0  0  0  0  0  0  0  0  0  0  0
   55.4070   29.6310   43.7700 C   0  0  0  0  0  0  0  0  0  0  0  0
   55.1710   29.2660   45.1010 O   0  0  0  0  0  0  0  0  0  0  0  0
   58.8640   32.6560   47.1400 C   0  0  0  0  0  0  0  0  0  0  0  0
   60.8320   30.6095   49.9458 H   0  0  0  0  0  0  0  0  0  0  0  0
   59.8835   30.8759   48.4437 H   0  0  0  0  0  0  0  0  0  0  0  0
   61.2605   29.7224   48.4437 H   0  0  0  0  0  0  0  0  0  0  0  0
   63.0129   30.4866   47.1907 H   0  0  0  0  0  0  0  0  0  0  0  0
   64.5755   32.2876   46.4766 H   0  0  0  0  0  0  0  0  0  0  0  0
   64.2665   34.6161   47.3098 H   0  0  0  0  0  0  0  0  0  0  0  0
   62.4113   35.1461   48.8807 H   0  0  0  0  0  0  0  0  0  0  0  0
   60.3263   32.6069   50.5612 H   0  0  0  0  0  0  0  0  0  0  0  0
   60.8964   34.3254   50.5396 H   0  0  0  0  0  0  0  0  0  0  0  0
   59.6810   35.9400   47.6444 H   0  0  0  0  0  0  0  0  0  0  0  0
   59.4052   35.9725   45.1686 H   0  0  0  0  0  0  0  0  0  0  0  0
   58.7845   33.8891   43.9487 H   0  0  0  0  0  0  0  0  0  0  0  0
   58.6589   31.4936   43.9621 H   0  0  0  0  0  0  0  0  0  0  0  0
   58.8404   30.5624   45.5116 H   0  0  0  0  0  0  0  0  0  0  0  0
   56.6940   30.3330   45.6760 H   0  0  0  0  0  0  0  0  0  0  0  0
   55.7548   31.7214   43.3608 H   0  0  0  0  0  0  0  0  0  0  0  0
   57.1563   30.6371   43.0183 H   0  0  0  0  0  0  0  0  0  0  0  0
   54.4502   29.8751   43.2853 H   0  0  0  0  0  0  0  0  0  0  0  0
   55.8895   28.7914   43.2482 H   0  0  0  0  0  0  0  0  0  0  0  0
   55.1460   30.1080   45.6270 H   0  0  0  0  0  0  0  0  0  0  0  0
   58.7141   31.7191   47.6965 H   0  0  0  0  0  0  0  0  0  0  0  0
  1  2  1  0
  2  3  2  0
  3  4  1  0
  4  5  2  0
  5  6  1  0
  6  7  2  0
  7  8  1  0
  8  9  1  0
  9 10  1  0
 10 11  2  0
 11 12  1  0
 12 13  2  0
 13 14  1  0
 14 15  1  0
 15 16  1  0
 16 17  1  0
 17 18  1  0
 18 19  1  0
 14 20  2  0
  7  2  1  0
 20 10  1  0
  1 21  1  0
  1 22  1  0
  1 23  1  0
  3 24  1  0
  4 25  1  0
  5 26  1  0
  6 27  1  0
  8 28  1  0
  8 29  1  0
 11 30  1  0
 12 31  1  0
 13 32  1  0
 15 33  1  0
 15 34  1  0
 16 35  1  0
 17 36  1  0
 17 37  1  0
 18 38  1  0
 18 39  1  0
 19 40  1  0
 20 41  1  0
M  END
>  <UniqueID>  (77) 
70

>  <SMILES>  (77) 
Cc1ccccc1COc1cccc(CNCCO)c1

>  <Energy>  (77) 
40.36307094610677

>  <Genealogy>  (77) 
Cc1ccccc1COc1cccc(CNCCO)c1 (3D coordinates assigned)
Cc1ccccc1COc1cccc(CNCCO)c1 (optimized conformer: 40.36307094610677 kcal/mol)

>  <smiles>  (77) 
Cc1ccccc1COc1cccc(CNCCO)c1

>  <score_type>  (77) 
oracle

>  <origin>  (77) 
adg

>  <m_score__min__energy>  (77) 
-7.75

>  <m_primary>  (77) 
energy

$$$$
77:0
     RDKit          3D

 30 32  0  0  0  0  0  0  0  0999 V2000
   56.2660   29.8930   42.2960 O   0  0  0  0  0  0  0  0  0  0  0  0
   56.5950   29.3310   43.3740 C   0  0  0  0  0  0  0  0  0  0  0  0
   57.3360   30.0460   44.4390 C   0  0  0  0  0  0  0  0  0  0  0  0
   57.4210   31.4530   44.3370 C   0  0  0  0  0  0  0  0  0  0  0  0
   58.0620   32.1560   45.3510 C   0  0  0  0  0  0  0  0  0  0  0  0
   58.2760   33.5090   45.5040 C   0  0  0  0  0  0  0  0  0  0  0  0
   58.9650   33.6270   46.7080 C   0  0  0  0  0  0  0  0  0  0  0  0
   59.4180   34.8930   47.3000 C   0  0  0  0  0  0  0  0  0  0  0  0
   59.6120   34.9800   48.5410 O   0  0  0  0  0  0  0  0  0  0  0  0
   59.6350   36.0050   46.4950 O   0  0  0  0  0  0  0  0  0  0  0  0
   59.1670   32.4140   47.2730 N   0  0  0  0  0  0  0  0  0  0  0  0
   58.6100   31.5260   46.4330 C   0  0  0  0  0  0  0  0  0  0  0  0
   58.5650   30.1440   46.5750 C   0  0  0  0  0  0  0  0  0  0  0  0
   57.9340   29.3840   45.5640 C   0  0  0  0  0  0  0  0  0  0  0  0
   57.9550   27.9130   45.7010 C   0  0  0  0  0  0  0  0  0  0  0  0
   59.1840   27.2370   45.7730 C   0  0  0  0  0  0  0  0  0  0  0  0
   59.2170   25.8450   45.8880 C   0  0  0  0  0  0  0  0  0  0  0  0
   58.0250   25.1160   45.9210 C   0  0  0  0  0  0  0  0  0  0  0  0
   56.7970   25.7790   45.8360 C   0  0  0  0  0  0  0  0  0  0  0  0
   56.7570   27.1730   45.7200 C   0  0  0  0  0  0  0  0  0  0  0  0
   55.5270   27.8160   45.6210 O   0  0  0  0  0  0  0  0  0  0  0  0
   56.3237   28.2764   43.5296 H   0  0  0  0  0  0  0  0  0  0  0  0
   56.9893   31.9807   43.4738 H   0  0  0  0  0  0  0  0  0  0  0  0
   57.9697   34.3178   44.8242 H   0  0  0  0  0  0  0  0  0  0  0  0
   59.6550   32.2060   48.1740 H   0  0  0  0  0  0  0  0  0  0  0  0
   59.0099   29.6534   47.4533 H   0  0  0  0  0  0  0  0  0  0  0  0
   60.1247   27.8060   45.7387 H   0  0  0  0  0  0  0  0  0  0  0  0
   60.1826   25.3220   45.9527 H   0  0  0  0  0  0  0  0  0  0  0  0
   58.0530   24.0203   46.0139 H   0  0  0  0  0  0  0  0  0  0  0  0
   55.8599   25.2034   45.8604 H   0  0  0  0  0  0  0  0  0  0  0  0
  1  2  2  0
  2  3  1  0
  3  4  2  0
  4  5  1  0
  5  6  1  0
  6  7  2  0
  7  8  1  0
  8  9  2  0
  8 10  1  0
  7 11  1  0
 11 12  1  0
 12 13  1  0
 13 14  2  0
 14 15  1  0
 15 16  2  0
 16 17  1  0
 17 18  2  0
 18 19  1  0
 19 20  2  0
 20 21  1  0
 14  3  1  0
 20 15  1  0
 12  5  2  0
  2 22  1  0
  4 23  1  0
  6 24  1  0
 11 25  1  0
 13 26  1  0
 16 27  1  0
 17 28  1  0
 18 29  1  0
 19 30  1  0
M  CHG  2  10  -1  21  -1
M  END
>  <UniqueID>  (78) 
71

>  <SMILES>  (78) 
O=Cc1cc2cc(C(=O)[O-])[nH]c2cc1-c1ccccc1[O-]

>  <Energy>  (78) 
75.21403078791042

>  <Genealogy>  (78) 
O=Cc1cc2cc(C(=O)[O-])[nH]c2cc1-c1ccccc1[O-] (protonated)
O=Cc1cc2cc(C(=O)[O-])[nH]c2cc1-c1ccccc1[O-] (3D coordinates assigned)
O=Cc1cc2cc(C(=O)[O-])[nH]c2cc1-c1ccccc1[O-] (optimized conformer: 75.21403078791042 kcal/mol)

>  <smiles>  (78) 
O=Cc1cc2cc(C(=O)O)[nH]c2cc1-c1ccccc1O

>  <score_type>  (78) 
oracle

>  <origin>  (78) 
adg

>  <m_score__min__energy>  (78) 
-11.18

>  <m_primary>  (78) 
energy

$$$$
78:0
     RDKit          3D

 46 49  0  0  0  0  0  0  0  0999 V2000
   58.1350   26.1730   44.2150 O   0  0  0  0  0  0  0  0  0  0  0  0
   57.9970   26.6400   45.3810 C   0  0  0  0  0  0  0  0  0  0  0  0
   57.8390   25.6880   46.5390 C   0  0  0  0  0  0  0  0  0  0  0  0
   56.6100   24.9020   46.4100 N   0  0  0  0  0  0  0  0  0  0  0  0
   55.4020   25.3700   46.0080 C   0  0  0  0  0  0  0  0  0  0  0  0
   55.1410   26.6980   45.6910 O   0  0  0  0  0  0  0  0  0  0  0  0
   54.4900   24.3380   45.9560 C   0  0  0  0  0  0  0  0  0  0  0  0
   53.1410   24.3190   45.6030 C   0  0  0  0  0  0  0  0  0  0  0  0
   52.4740   23.0800   45.6390 C   0  0  0  0  0  0  0  0  0  0  0  0
   53.1620   21.9050   46.0190 C   0  0  0  0  0  0  0  0  0  0  0  0
   54.5260   21.9570   46.3670 C   0  0  0  0  0  0  0  0  0  0  0  0
   55.1580   23.1980   46.3250 C   0  0  0  0  0  0  0  0  0  0  0  0
   56.4610   23.5640   46.5910 C   0  0  0  0  0  0  0  0  0  0  0  0
   57.4760   22.6880   46.9710 O   0  0  0  0  0  0  0  0  0  0  0  0
   58.0300   28.0680   45.5790 N   0  0  0  0  0  0  0  0  0  0  0  0
   58.2730   28.6450   46.9100 C   0  0  0  0  0  0  0  0  0  0  0  0
   59.0420   29.9650   46.7960 C   0  0  0  0  0  0  0  0  0  0  0  0
   58.4130   30.8810   45.8310 N   0  0  0  0  0  0  0  0  0  0  0  0
   58.7090   32.2950   45.8900 C   0  0  0  0  0  0  0  0  0  0  0  0
   59.3580   32.8450   47.0130 C   0  0  0  0  0  0  0  0  0  0  0  0
   59.6400   34.2130   47.0690 C   0  0  0  0  0  0  0  0  0  0  0  0
   59.2760   35.0490   46.0110 C   0  0  0  0  0  0  0  0  0  0  0  0
   58.6290   34.5170   44.8940 C   0  0  0  0  0  0  0  0  0  0  0  0
   58.3440   33.1500   44.8310 C   0  0  0  0  0  0  0  0  0  0  0  0
   57.4110   30.3730   44.8840 C   0  0  0  0  0  0  0  0  0  0  0  0
   57.7560   28.9500   44.4350 C   0  0  0  0  0  0  0  0  0  0  0  0
   58.7013   25.0055   46.5635 H   0  0  0  0  0  0  0  0  0  0  0  0
   57.7838   26.2737   47.4684 H   0  0  0  0  0  0  0  0  0  0  0  0
   52.6168   25.2396   45.3069 H   0  0  0  0  0  0  0  0  0  0  0  0
   51.4090   23.0256   45.3693 H   0  0  0  0  0  0  0  0  0  0  0  0
   52.6285   20.9433   46.0431 H   0  0  0  0  0  0  0  0  0  0  0  0
   55.0732   21.0494   46.6617 H   0  0  0  0  0  0  0  0  0  0  0  0
   57.7610   22.5870   47.9360 H   0  0  0  0  0  0  0  0  0  0  0  0
   57.3082   28.8308   47.4046 H   0  0  0  0  0  0  0  0  0  0  0  0
   58.8734   27.9357   47.4986 H   0  0  0  0  0  0  0  0  0  0  0  0
   59.0665   30.4495   47.7833 H   0  0  0  0  0  0  0  0  0  0  0  0
   60.0586   29.7395   46.4416 H   0  0  0  0  0  0  0  0  0  0  0  0
   59.6448   32.1934   47.8516 H   0  0  0  0  0  0  0  0  0  0  0  0
   60.1500   34.6323   47.9488 H   0  0  0  0  0  0  0  0  0  0  0  0
   59.4988   36.1252   46.0577 H   0  0  0  0  0  0  0  0  0  0  0  0
   58.3426   35.1757   44.0609 H   0  0  0  0  0  0  0  0  0  0  0  0
   57.8314   32.7389   43.9488 H   0  0  0  0  0  0  0  0  0  0  0  0
   56.4248   30.3678   45.3713 H   0  0  0  0  0  0  0  0  0  0  0  0
   57.3991   31.0275   44.0000 H   0  0  0  0  0  0  0  0  0  0  0  0
   56.9086   28.5411   43.8651 H   0  0  0  0  0  0  0  0  0  0  0  0
   58.6633   28.9976   43.8148 H   0  0  0  0  0  0  0  0  0  0  0  0
  1  2  2  0
  2  3  1  0
  3  4  1  0
  4  5  1  0
  5  6  1  0
  5  7  2  0
  7  8  1  0
  8  9  2  0
  9 10  1  0
 10 11  2  0
 11 12  1  0
 12 13  2  0
 13 14  1  0
  2 15  1  0
 15 16  1  0
 16 17  1  0
 17 18  1  0
 18 19  1  0
 19 20  2  0
 20 21  1  0
 21 22  2  0
 22 23  1  0
 23 24  2  0
 18 25  1  0
 25 26  1  0
 13  4  1  0
 26 15  1  0
 12  7  1  0
 24 19  1  0
  3 27  1  0
  3 28  1  0
  8 29  1  0
  9 30  1  0
 10 31  1  0
 11 32  1  0
 14 33  1  0
 16 34  1  0
 16 35  1  0
 17 36  1  0
 17 37  1  0
 20 38  1  0
 21 39  1  0
 22 40  1  0
 23 41  1  0
 24 42  1  0
 25 43  1  0
 25 44  1  0
 26 45  1  0
 26 46  1  0
M  CHG  1   6  -1
M  END
>  <UniqueID>  (79) 
72

>  <SMILES>  (79) 
O=C(Cn1c([O-])c2ccccc2c1O)N1CCN(c2ccccc2)CC1

>  <Energy>  (79) 
89.68344352310511

>  <Genealogy>  (79) 
O=C(Cn1c([O-])c2ccccc2c1O)N1CCN(c2ccccc2)CC1 (protonated)
O=C(Cn1c([O-])c2ccccc2c1O)N1CCN(c2ccccc2)CC1 (3D coordinates assigned)
O=C(Cn1c([O-])c2ccccc2c1O)N1CCN(c2ccccc2)CC1 (nonaromatic ring conformer: 89.68344352310511 kcal/mol)

>  <smiles>  (79) 
O=C(Cn1c(O)c2ccccc2c1O)N1CCN(c2ccccc2)CC1

>  <score_type>  (79) 
oracle

>  <origin>  (79) 
adg

>  <m_score__min__energy>  (79) 
-10.92

>  <m_primary>  (79) 
energy

$$$$
79:0
     RDKit          3D

 54 57  0  0  1  0  0  0  0  0999 V2000
   58.1890   34.5570   44.8910 C   0  0  0  0  0  0  0  0  0  0  0  0
   57.5180   33.5510   46.2140 S   0  0  0  0  0  0  0  0  0  0  0  0
   58.4070   32.0580   46.4860 C   0  0  0  0  0  0  0  0  0  0  0  0
   58.0480   30.9370   45.7270 C   0  0  0  0  0  0  0  0  0  0  0  0
   58.7080   29.7340   45.8570 C   0  0  0  0  0  0  0  0  0  0  0  0
   58.3740   28.5410   45.0920 C   0  0  0  0  0  0  0  0  0  0  0  0
   58.1110   28.5510   43.7440 C   0  0  0  0  0  0  0  0  0  0  0  0
   57.7930   27.4050   43.0250 C   0  0  0  0  0  0  0  0  0  0  0  0
   57.7390   26.2320   43.6750 N   0  0  0  0  0  0  0  0  0  0  0  0
   57.9970   26.2270   44.9940 C   0  0  0  0  0  0  0  0  0  0  0  0
   57.9450   25.0960   45.6200 N   0  0  0  0  0  0  0  0  0  0  0  0
   57.5030   23.9050   44.9470 C   0  0  0  0  0  0  0  0  0  0  0  0
   58.3810   22.8480   44.7610 C   0  0  0  0  0  0  0  0  0  0  0  0
   57.9500   21.7050   44.1120 C   0  0  0  0  0  0  0  0  0  0  0  0
   56.6410   21.6200   43.6490 C   0  0  0  0  0  0  0  0  0  0  0  0
   56.2600   20.4560   43.0080 O   0  0  0  0  0  0  0  0  0  0  0  0
   55.7600   22.6730   43.8320 C   0  0  0  0  0  0  0  0  0  0  0  0
   56.2070   23.8100   44.4830 C   0  0  0  0  0  0  0  0  0  0  0  0
   58.3050   27.3220   45.7020 N   0  0  0  0  0  0  0  0  0  0  0  0
   59.7430   29.6710   46.7660 C   0  0  0  0  0  0  0  0  0  0  0  0
   60.0800   30.7710   47.4970 C   0  0  0  0  0  0  0  0  0  0  0  0
   59.4290   31.9990   47.3860 C   0  0  0  0  0  0  0  0  0  0  0  0
   59.9820   33.2820   48.4010 S   0  0  0  0  0  0  0  0  0  0  0  0
   59.5150   34.6190   47.8990 O   0  0  0  0  0  0  0  0  0  0  0  0
   59.3820   33.0420   49.7880 O   0  0  0  0  0  0  0  0  0  0  0  0
   61.6680   33.2130   48.5940 N   0  0  0  0  0  0  0  0  0  0  0  0
   62.2220   34.1260   49.5620 C   0  0  0  0  0  0  0  0  0  0  0  0
   63.6630   33.7940   49.7800 C   0  0  0  0  0  0  0  0  0  0  0  0
   64.4620   33.7050   48.5870 N   0  0  0  0  0  0  0  0  0  0  0  0
   63.7860   33.0260   47.5050 C   0  0  0  0  0  0  0  0  0  0  0  0
   62.3700   33.4640   47.3360 C   0  0  0  0  0  0  0  0  0  0  0  0
   58.7510   35.3996   45.3200 H   0  0  0  0  0  0  0  0  0  0  0  0
   58.8611   33.9460   44.2705 H   0  0  0  0  0  0  0  0  0  0  0  0
   57.3667   34.9427   44.2705 H   0  0  0  0  0  0  0  0  0  0  0  0
   57.2185   31.0187   45.0092 H   0  0  0  0  0  0  0  0  0  0  0  0
   58.1541   29.5109   43.2085 H   0  0  0  0  0  0  0  0  0  0  0  0
   57.5897   27.4582   41.9453 H   0  0  0  0  0  0  0  0  0  0  0  0
   57.5050   25.3550   43.1750 H   0  0  0  0  0  0  0  0  0  0  0  0
   59.4156   22.9181   45.1279 H   0  0  0  0  0  0  0  0  0  0  0  0
   58.6423   20.8634   43.9620 H   0  0  0  0  0  0  0  0  0  0  0  0
   56.7840   19.6010   43.1300 H   0  0  0  0  0  0  0  0  0  0  0  0
   54.7245   22.6070   43.4669 H   0  0  0  0  0  0  0  0  0  0  0  0
   55.5165   24.6530   44.6331 H   0  0  0  0  0  0  0  0  0  0  0  0
   60.2979   28.7309   46.9015 H   0  0  0  0  0  0  0  0  0  0  0  0
   60.9105   30.6853   48.2132 H   0  0  0  0  0  0  0  0  0  0  0  0
   62.1341   35.1568   49.1883 H   0  0  0  0  0  0  0  0  0  0  0  0
   61.6737   34.0365   50.5114 H   0  0  0  0  0  0  0  0  0  0  0  0
   64.0977   34.5739   50.4224 H   0  0  0  0  0  0  0  0  0  0  0  0
   63.6785   32.7909   50.2313 H   0  0  0  0  0  0  0  0  0  0  0  0
   65.3010   33.1070   48.8290 H   0  0  0  0  0  0  0  0  0  0  0  0
   64.3294   33.2284   46.5703 H   0  0  0  0  0  0  0  0  0  0  0  0
   63.7718   31.9532   47.7477 H   0  0  0  0  0  0  0  0  0  0  0  0
   62.3369   34.5373   47.0973 H   0  0  0  0  0  0  0  0  0  0  0  0
   61.8932   32.9096   46.5142 H   0  0  0  0  0  0  0  0  0  0  0  0
  1  2  1  0
  2  3  1  0
  3  4  2  0
  4  5  1  0
  5  6  1  0
  6  7  1  0
  7  8  2  0
  8  9  1  0
  9 10  1  0
 10 11  2  0
 11 12  1  0
 12 13  2  0
 13 14  1  0
 14 15  2  0
 15 16  1  0
 15 17  1  0
 17 18  2  0
 10 19  1  0
  5 20  2  0
 20 21  1  0
 21 22  2  0
 22 23  1  0
 23 24  2  0
 23 25  2  0
 23 26  1  0
 26 27  1  0
 27 28  1  0
 28 29  1  0
 29 30  1  0
 30 31  1  0
 22  3  1  0
 31 26  1  0
 19  6  2  0
 18 12  1  0
  1 32  1  0
  1 33  1  0
  1 34  1  0
  4 35  1  0
  7 36  1  0
  8 37  1  0
  9 38  1  0
 13 39  1  0
 14 40  1  0
 16 41  1  0
 17 42  1  0
 18 43  1  0
 20 44  1  0
 21 45  1  0
 27 46  1  0
 27 47  1  0
 28 48  1  0
 28 49  1  0
 29 50  1  0
 30 51  1  0
 30 52  1  0
 31 53  1  0
 31 54  1  0
M  END
>  <smiles>  (80) 
CSc1cc(-c2cc[nH]c(=Nc3ccc(O)cc3)n2)ccc1S(=O)(=O)N1CCNCC1

>  <score_type>  (80) 
oracle

>  <origin>  (80) 
adg

>  <m_score__min__energy>  (80) 
-9.2599999999999998

>  <m_primary>  (80) 
energy

$$$$
80:0
     RDKit          3D

 82 87  0  0  0  0  0  0  0  0999 V2000
   59.7979   29.3964   44.9467 H   0  0  0  0  0  0  0  0  0  0  0  0
   58.9380   29.9180   44.5010 C   0  0  0  0  0  0  0  0  0  0  0  0
   58.8050   31.2700   44.5310 N   0  0  0  0  0  0  0  0  0  0  0  0
   57.6630   31.6740   43.9330 C   0  0  0  0  0  0  0  0  0  0  0  0
   57.3460   32.9300   43.8290 N   0  0  0  0  0  0  0  0  0  0  0  0
   57.4700   33.9000   44.8770 C   0  0  0  0  0  0  0  0  0  0  0  0
   56.6670   34.8680   44.9020 O   0  0  0  0  0  0  0  0  0  0  0  0
   58.5580   33.8290   45.8830 C   0  0  0  0  0  0  0  0  0  0  0  0
   59.8870   34.0740   45.5040 C   0  0  0  0  0  0  0  0  0  0  0  0
   60.1209   34.3201   44.4577 H   0  0  0  0  0  0  0  0  0  0  0  0
   60.9140   34.0070   46.4480 C   0  0  0  0  0  0  0  0  0  0  0  0
   61.9513   34.2094   46.1430 H   0  0  0  0  0  0  0  0  0  0  0  0
   60.6300   33.6830   47.7830 C   0  0  0  0  0  0  0  0  0  0  0  0
   61.6950   33.6120   48.7460 N   0  0  0  0  0  0  0  0  0  0  0  0
   63.0900   33.6760   48.3110 C   0  0  0  0  0  0  0  0  0  0  0  0
   63.4834   34.6873   48.4916 H   0  0  0  0  0  0  0  0  0  0  0  0
   63.1481   33.4436   47.2374 H   0  0  0  0  0  0  0  0  0  0  0  0
   63.9240   32.6560   49.0980 C   0  0  0  0  0  0  0  0  0  0  0  0
   64.9881   32.8253   48.8767 H   0  0  0  0  0  0  0  0  0  0  0  0
   63.6001   31.6513   48.7887 H   0  0  0  0  0  0  0  0  0  0  0  0
   63.7210   32.7620   50.5620 N   0  0  0  0  0  0  0  0  0  0  0  0
   64.1970   31.9330   50.9950 H   0  0  0  0  0  0  0  0  0  0  0  0
   64.3730   33.9600   51.1280 C   0  0  0  0  0  0  0  0  0  0  0  0
   64.3449   33.9083   52.2264 H   0  0  0  0  0  0  0  0  0  0  0  0
   65.4188   34.0027   50.7896 H   0  0  0  0  0  0  0  0  0  0  0  0
   63.8410   34.8614   50.7896 H   0  0  0  0  0  0  0  0  0  0  0  0
   62.2890   32.6750   50.9330 C   0  0  0  0  0  0  0  0  0  0  0  0
   62.1938   32.8632   52.0126 H   0  0  0  0  0  0  0  0  0  0  0  0
   61.9374   31.6688   50.6611 H   0  0  0  0  0  0  0  0  0  0  0  0
   61.4160   33.6880   50.1800 C   0  0  0  0  0  0  0  0  0  0  0  0
   61.6386   34.7025   50.5422 H   0  0  0  0  0  0  0  0  0  0  0  0
   60.3553   33.4561   50.3568 H   0  0  0  0  0  0  0  0  0  0  0  0
   59.3070   33.4130   48.1600 C   0  0  0  0  0  0  0  0  0  0  0  0
   59.0786   33.1388   49.2005 H   0  0  0  0  0  0  0  0  0  0  0  0
   58.2770   33.4910   47.2180 C   0  0  0  0  0  0  0  0  0  0  0  0
   57.2402   33.2866   47.5235 H   0  0  0  0  0  0  0  0  0  0  0  0
   56.7760   30.3730   43.3220 S   0  0  0  0  0  0  0  0  0  0  0  0
   57.8990   29.2440   43.8610 C   0  0  0  0  0  0  0  0  0  0  0  0
   57.7790   27.7610   43.7010 C   0  0  0  0  0  0  0  0  0  0  0  0
   56.7982   27.5241   43.2628 H   0  0  0  0  0  0  0  0  0  0  0  0
   58.5881   27.4117   43.0427 H   0  0  0  0  0  0  0  0  0  0  0  0
   57.9060   27.0660   45.0300 C   0  0  0  0  0  0  0  0  0  0  0  0
   56.9730   26.0890   45.4030 C   0  0  0  0  0  0  0  0  0  0  0  0
   56.1458   25.8335   44.7244 H   0  0  0  0  0  0  0  0  0  0  0  0
   57.0900   25.4390   46.6330 C   0  0  0  0  0  0  0  0  0  0  0  0
   56.3595   24.6670   46.9165 H   0  0  0  0  0  0  0  0  0  0  0  0
   58.1300   25.7650   47.5040 C   0  0  0  0  0  0  0  0  0  0  0  0
   58.2258   25.2349   48.4631 H   0  0  0  0  0  0  0  0  0  0  0  0
   59.0570   26.7670   47.1640 C   0  0  0  0  0  0  0  0  0  0  0  0
   60.1700   27.1080   48.0830 C   0  0  0  0  0  0  0  0  0  0  0  0
   61.1750   26.3460   48.1570 O   0  0  0  0  0  0  0  0  0  0  0  0
   60.1180   28.2790   48.9160 N   0  0  0  0  0  0  0  0  0  0  0  0
   60.5160   28.1740   50.3240 C   0  0  0  0  0  0  0  0  0  0  0  0
   60.0679   27.2666   50.7552 H   0  0  0  0  0  0  0  0  0  0  0  0
   61.6141   28.1287   50.3692 H   0  0  0  0  0  0  0  0  0  0  0  0
   60.0500   29.3960   51.1360 C   0  0  0  0  0  0  0  0  0  0  0  0
   59.9440   29.1084   52.1924 H   0  0  0  0  0  0  0  0  0  0  0  0
   60.7977   30.1960   51.0312 H   0  0  0  0  0  0  0  0  0  0  0  0
   58.6870   29.9160   50.6110 C   0  0  0  0  0  0  0  0  0  0  0  0
   57.9506   29.0989   50.6202 H   0  0  0  0  0  0  0  0  0  0  0  0
   58.1270   30.9830   51.4970 N   0  0  0  0  0  0  0  0  0  0  0  0
   58.4390   32.3410   50.9680 C   0  0  0  0  0  0  0  0  0  0  0  0
   59.4310   32.3138   50.4934 H   0  0  0  0  0  0  0  0  0  0  0  0
   57.6495   32.6056   50.2492 H   0  0  0  0  0  0  0  0  0  0  0  0
   58.4480   33.4220   52.0650 C   0  0  0  0  0  0  0  0  0  0  0  0
   59.4558   33.4945   52.5000 H   0  0  0  0  0  0  0  0  0  0  0  0
   58.1669   34.3910   51.6268 H   0  0  0  0  0  0  0  0  0  0  0  0
   57.5250   33.0770   53.0730 O   0  0  0  0  0  0  0  0  0  0  0  0
   57.9990   31.9530   53.7930 C   0  0  0  0  0  0  0  0  0  0  0  0
   58.7658   32.2932   54.5046 H   0  0  0  0  0  0  0  0  0  0  0  0
   57.1319   31.5028   54.2984 H   0  0  0  0  0  0  0  0  0  0  0  0
   58.6190   30.8590   52.8900 C   0  0  0  0  0  0  0  0  0  0  0  0
   59.7139   30.9645   52.8962 H   0  0  0  0  0  0  0  0  0  0  0  0
   58.3264   29.8730   53.2802 H   0  0  0  0  0  0  0  0  0  0  0  0
   58.8820   30.4160   49.1480 C   0  0  0  0  0  0  0  0  0  0  0  0
   57.9119   30.3592   48.6326 H   0  0  0  0  0  0  0  0  0  0  0  0
   59.2714   31.4425   49.2158 H   0  0  0  0  0  0  0  0  0  0  0  0
   59.9110   29.6070   48.3310 C   0  0  0  0  0  0  0  0  0  0  0  0
   59.5429   29.4930   47.3007 H   0  0  0  0  0  0  0  0  0  0  0  0
   60.8690   30.1475   48.3400 H   0  0  0  0  0  0  0  0  0  0  0  0
   58.9390   27.4100   45.9170 C   0  0  0  0  0  0  0  0  0  0  0  0
   59.6626   28.1890   45.6349 H   0  0  0  0  0  0  0  0  0  0  0  0
  1  2  1  0
  2  3  1  0
  3  4  1  0
  4  5  2  0
  5  6  1  0
  6  7  2  0
  6  8  1  0
  8  9  2  0
  9 10  1  0
  9 11  1  0
 11 12  1  0
 11 13  2  0
 13 14  1  0
 14 15  1  0
 15 16  1  0
 15 17  1  0
 15 18  1  0
 18 19  1  0
 18 20  1  0
 18 21  1  0
 21 22  1  0
 21 23  1  0
 23 24  1  0
 23 25  1  0
 23 26  1  0
 21 27  1  0
 27 28  1  0
 27 29  1  0
 27 30  1  0
 30 31  1  0
 30 32  1  0
 13 33  1  0
 33 34  1  0
 33 35  2  0
 35 36  1  0
  4 37  1  0
 37 38  1  0
 38 39  1  0
 39 40  1  0
 39 41  1  0
 39 42  1  0
 42 43  2  0
 43 44  1  0
 43 45  1  0
 45 46  1  0
 45 47  2  0
 47 48  1  0
 47 49  1  0
 49 50  1  0
 50 51  2  0
 50 52  1  0
 52 53  1  0
 53 54  1  0
 53 55  1  0
 53 56  1  0
 56 57  1  0
 56 58  1  0
 56 59  1  0
 59 60  1  0
 59 61  1  0
 61 62  1  0
 62 63  1  0
 62 64  1  0
 62 65  1  0
 65 66  1  0
 65 67  1  0
 65 68  1  0
 68 69  1  0
 69 70  1  0
 69 71  1  0
 69 72  1  0
 72 73  1  0
 72 74  1  0
 59 75  1  0
 75 76  1  0
 75 77  1  0
 75 78  1  0
 78 79  1  0
 78 80  1  0
 49 81  2  0
 81 82  1  0
 38  2  2  0
 81 42  1  0
 35  8  1  0
 78 52  1  0
 30 14  1  0
 72 61  1  0
M  CHG  2   3  -1  21   1
M  END
>  <UniqueID>  (81) 
73

>  <SMILES>  (81) 
C[NH+]1CCN(c2ccc(C(=O)/N=c3/[n-]cc(Cc4cccc(C(=O)N5CCC(N6CCOCC6)CC5)c4)s3)cc2)CC1

>  <Energy>  (81) 
152.80430324707658

>  <Genealogy>  (81) 
C[NH+]1CCN(c2ccc(C(=O)N=c3[n-]cc(Cc4cccc(C(=O)N5CCC(N6CCOCC6)CC5)c4)s3)cc2)CC1 (protonated)
C[NH+]1CCN(c2ccc(C(=O)/N=c3/[n-]cc(Cc4cccc(C(=O)N5CCC(N6CCOCC6)CC5)c4)s3)cc2)CC1 (cis-trans isomerization)
C[NH+]1CCN(c2ccc(C(=O)/N=c3/[n-]cc(Cc4cccc(C(=O)N5CCC(N6CCOCC6)CC5)c4)s3)cc2)CC1 (3D coordinates assigned)
C[NH+]1CCN(c2ccc(C(=O)/N=c3/[n-]cc(Cc4cccc(C(=O)N5CCC(N6CCOCC6)CC5)c4)s3)cc2)CC1 (nonaromatic ring conformer: 152.80430324707658 kcal/mol)

>  <smiles>  (81) 
CN1CCN(c2ccc(C(=O)N=c3[nH]cc(Cc4cccc(C(=O)N5CCC(N6CCOCC6)CC5)c4)s3)cc2)CC1

>  <score_type>  (81) 
oracle

>  <origin>  (81) 
adg

>  <m_score__min__energy>  (81) 
-11.02

>  <m_primary>  (81) 
energy

$$$$
81:0
     RDKit          3D

 37 39  0  0  1  0  0  0  0  0999 V2000
   63.2910   33.6460   46.3570 C   0  0  0  0  0  0  0  0  0  0  0  0
   63.1010   32.8880   47.3950 C   0  0  0  0  0  0  0  0  0  0  0  0
   64.1570   32.7530   48.2470 N   0  0  0  0  0  0  0  0  0  0  0  0
   64.0890   31.9760   49.3570 C   0  0  0  0  0  0  0  0  0  0  0  0
   65.0910   31.8690   50.1340 O   0  0  0  0  0  0  0  0  0  0  0  0
   62.9920   31.2880   49.7010 N   0  0  0  0  0  0  0  0  0  0  0  0
   62.9680   30.4810   50.8820 C   0  0  0  0  0  0  0  0  0  0  0  0
   61.9310   31.4060   48.8710 C   0  0  0  0  0  0  0  0  0  0  0  0
   60.9030   30.7560   49.2000 O   0  0  0  0  0  0  0  0  0  0  0  0
   61.9800   32.1990   47.7250 C   0  0  0  0  0  0  0  0  0  0  0  0
   60.9170   32.2870   47.0040 C   0  0  0  0  0  0  0  0  0  0  0  0
   59.9370   33.3320   46.9150 C   0  0  0  0  0  0  0  0  0  0  0  0
   58.7680   33.3970   46.1550 C   0  0  0  0  0  0  0  0  0  0  0  0
   58.2470   32.4570   45.1880 C   0  0  0  0  0  0  0  0  0  0  0  0
   57.8410   31.1750   45.4600 C   0  0  0  0  0  0  0  0  0  0  0  0
   57.3570   30.3090   44.4930 C   0  0  0  0  0  0  0  0  0  0  0  0
   57.2610   30.7190   43.1800 C   0  0  0  0  0  0  0  0  0  0  0  0
   57.6670   32.0070   42.9010 C   0  0  0  0  0  0  0  0  0  0  0  0
   58.1500   32.8660   43.8670 C   0  0  0  0  0  0  0  0  0  0  0  0
   58.1940   34.5540   46.5150 N   0  0  0  0  0  0  0  0  0  0  0  0
   58.9100   35.1920   47.4200 N   0  0  0  0  0  0  0  0  0  0  0  0
   60.0130   34.4890   47.7200 C   0  0  0  0  0  0  0  0  0  0  0  0
   60.9320   34.7780   48.5380 O   0  0  0  0  0  0  0  0  0  0  0  0
   62.4792   33.7970   45.6302 H   0  0  0  0  0  0  0  0  0  0  0  0
   64.2636   34.1368   46.2050 H   0  0  0  0  0  0  0  0  0  0  0  0
   65.0670   33.2290   48.1020 H   0  0  0  0  0  0  0  0  0  0  0  0
   62.9873   31.1299   51.7700 H   0  0  0  0  0  0  0  0  0  0  0  0
   62.0514   29.8730   50.8921 H   0  0  0  0  0  0  0  0  0  0  0  0
   63.8469   29.8196   50.8921 H   0  0  0  0  0  0  0  0  0  0  0  0
   60.7296   31.4219   46.3509 H   0  0  0  0  0  0  0  0  0  0  0  0
   57.9029   30.8167   46.4982 H   0  0  0  0  0  0  0  0  0  0  0  0
   57.0483   29.2911   44.7735 H   0  0  0  0  0  0  0  0  0  0  0  0
   56.8792   30.0513   42.3936 H   0  0  0  0  0  0  0  0  0  0  0  0
   57.6030   32.3654   41.8630 H   0  0  0  0  0  0  0  0  0  0  0  0
   58.4605   33.8833   43.5866 H   0  0  0  0  0  0  0  0  0  0  0  0
   57.2830   34.9650   46.1570 H   0  0  0  0  0  0  0  0  0  0  0  0
   58.6840   36.1150   47.8660 H   0  0  0  0  0  0  0  0  0  0  0  0
  1  2  2  0
  2  3  1  0
  3  4  1  0
  4  5  2  0
  4  6  1  0
  6  7  1  0
  6  8  1  0
  8  9  2  0
  8 10  1  0
 10 11  2  0
 11 12  1  0
 12 13  2  0
 13 14  1  0
 14 15  2  0
 15 16  1  0
 16 17  2  0
 17 18  1  0
 18 19  2  0
 13 20  1  0
 20 21  1  0
 21 22  1  0
 22 23  2  0
 10  2  1  0
 22 12  1  0
 19 14  1  0
  1 24  1  0
  1 25  1  0
  3 26  1  0
  7 27  1  0
  7 28  1  0
  7 29  1  0
 11 30  1  0
 15 31  1  0
 16 32  1  0
 17 33  1  0
 18 34  1  0
 19 35  1  0
 20 36  1  0
 21 37  1  0
M  END
>  <smiles>  (82) 
C=c1[nH]c(=O)n(C)c(=O)c1=Cc1c(-c2ccccc2)[nH][nH]c1=O

>  <score_type>  (82) 
oracle

>  <origin>  (82) 
adg

>  <m_score__min__energy>  (82) 
-7.5700000000000003

>  <m_primary>  (82) 
energy

$$$$
82:0
     RDKit          3D

 48 51  0  0  1  0  0  0  0  0999 V2000
   59.4740   25.4630   45.6420 O   0  0  0  0  0  0  0  0  0  0  0  0
   58.7040   26.4790   45.6900 C   0  0  0  0  0  0  0  0  0  0  0  0
   58.0570   26.7670   46.9930 C   0  0  0  0  0  0  0  0  0  0  0  0
   58.9750   27.7070   47.7430 C   0  0  0  0  0  0  0  0  0  0  0  0
   60.0930   27.3990   48.4010 C   0  0  0  0  0  0  0  0  0  0  0  0
   60.7850   28.3810   49.0130 C   0  0  0  0  0  0  0  0  0  0  0  0
   60.2970   29.6380   48.9220 C   0  0  0  0  0  0  0  0  0  0  0  0
   60.8470   31.1890   49.5330 S   0  0  0  0  0  0  0  0  0  0  0  0
   59.6850   32.1490   49.6600 O   0  0  0  0  0  0  0  0  0  0  0  0
   61.3540   31.0320   50.9600 O   0  0  0  0  0  0  0  0  0  0  0  0
   62.0140   31.8660   48.5170 N   0  0  0  0  0  0  0  0  0  0  0  0
   61.5580   32.2510   47.2220 C   0  0  0  0  0  0  0  0  0  0  0  0
   62.1960   33.5400   46.7210 C   0  0  0  0  0  0  0  0  0  0  0  0
   63.5630   33.5450   46.9160 O   0  0  0  0  0  0  0  0  0  0  0  0
   63.9520   33.3350   48.2170 C   0  0  0  0  0  0  0  0  0  0  0  0
   62.8660   32.8320   49.1180 C   0  0  0  0  0  0  0  0  0  0  0  0
   58.7600   29.4520   47.9100 S   0  0  0  0  0  0  0  0  0  0  0  0
   58.5270   27.2410   44.5220 N   0  0  0  0  0  0  0  0  0  0  0  0
   57.9800   28.4170   44.6920 C   0  0  0  0  0  0  0  0  0  0  0  0
   56.6490   28.7090   44.6560 N   0  0  0  0  0  0  0  0  0  0  0  0
   56.4840   30.0120   44.8740 N   0  0  0  0  0  0  0  0  0  0  0  0
   57.6870   30.5830   45.0540 C   0  0  0  0  0  0  0  0  0  0  0  0
   58.0220   31.9770   45.3200 C   0  0  0  0  0  0  0  0  0  0  0  0
   58.1360   32.3810   46.6320 C   0  0  0  0  0  0  0  0  0  0  0  0
   58.4520   33.7000   46.9040 C   0  0  0  0  0  0  0  0  0  0  0  0
   58.6500   34.5950   45.8820 C   0  0  0  0  0  0  0  0  0  0  0  0
   58.5420   34.2140   44.5490 C   0  0  0  0  0  0  0  0  0  0  0  0
   58.2220   32.8820   44.2990 C   0  0  0  0  0  0  0  0  0  0  0  0
   58.0700   32.3370   42.6410 Cl  0  0  0  0  0  0  0  0  0  0  0  0
   58.5880   29.5930   44.9390 N   0  0  0  0  0  0  0  0  0  0  0  0
   57.0783   27.2428   46.8321 H   0  0  0  0  0  0  0  0  0  0  0  0
   57.8918   25.8409   47.5631 H   0  0  0  0  0  0  0  0  0  0  0  0
   60.4459   26.3580   48.4439 H   0  0  0  0  0  0  0  0  0  0  0  0
   61.7118   28.1672   49.5655 H   0  0  0  0  0  0  0  0  0  0  0  0
   61.7962   31.4443   46.5131 H   0  0  0  0  0  0  0  0  0  0  0  0
   60.4750   32.4290   47.2959 H   0  0  0  0  0  0  0  0  0  0  0  0
   61.9893   33.6451   45.6457 H   0  0  0  0  0  0  0  0  0  0  0  0
   61.7664   34.3778   47.2898 H   0  0  0  0  0  0  0  0  0  0  0  0
   64.7673   32.5966   48.2166 H   0  0  0  0  0  0  0  0  0  0  0  0
   64.2580   34.3144   48.6134 H   0  0  0  0  0  0  0  0  0  0  0  0
   63.3346   32.3764   50.0028 H   0  0  0  0  0  0  0  0  0  0  0  0
   62.2359   33.6980   49.3692 H   0  0  0  0  0  0  0  0  0  0  0  0
   55.9320   27.9910   44.4830 H   0  0  0  0  0  0  0  0  0  0  0  0
   57.9780   31.6648   47.4518 H   0  0  0  0  0  0  0  0  0  0  0  0
   58.5454   34.0345   47.9477 H   0  0  0  0  0  0  0  0  0  0  0  0
   58.9001   35.6386   46.1234 H   0  0  0  0  0  0  0  0  0  0  0  0
   58.7019   34.9312   43.7304 H   0  0  0  0  0  0  0  0  0  0  0  0
   59.6140   29.6820   45.0220 H   0  0  0  0  0  0  0  0  0  0  0  0
  1  2  2  0
  2  3  1  0
  3  4  1  0
  4  5  2  0
  5  6  1  0
  6  7  2  0
  7  8  1  0
  8  9  2  0
  8 10  2  0
  8 11  1  0
 11 12  1  0
 12 13  1  0
 13 14  1  0
 14 15  1  0
 15 16  1  0
  7 17  1  0
  2 18  1  0
 18 19  2  0
 19 20  1  0
 20 21  1  0
 21 22  2  0
 22 23  1  0
 23 24  2  0
 24 25  1  0
 25 26  2  0
 26 27  1  0
 27 28  2  0
 28 29  1  0
 22 30  1  0
 17  4  1  0
 30 19  1  0
 16 11  1  0
 28 23  1  0
  3 31  1  0
  3 32  1  0
  5 33  1  0
  6 34  1  0
 12 35  1  0
 12 36  1  0
 13 37  1  0
 13 38  1  0
 15 39  1  0
 15 40  1  0
 16 41  1  0
 16 42  1  0
 20 43  1  0
 24 44  1  0
 25 45  1  0
 26 46  1  0
 27 47  1  0
 30 48  1  0
M  END
>  <smiles>  (83) 
O=C(Cc1ccc(S(=O)(=O)N2CCOCC2)s1)N=c1[nH]nc(-c2ccccc2Cl)[nH]1

>  <score_type>  (83) 
oracle

>  <origin>  (83) 
adg

>  <m_score__min__energy>  (83) 
-10.91

>  <m_primary>  (83) 
energy

$$$$
83:0
     RDKit          3D

 53 56  0  0  0  0  0  0  0  0999 V2000
   55.1900   30.8350   44.1740 O   0  0  0  0  0  0  0  0  0  0  0  0
   56.0470   30.0860   44.7130 C   0  0  0  0  0  0  0  0  0  0  0  0
   57.4130   30.6430   45.0270 C   0  0  0  0  0  0  0  0  0  0  0  0
   57.4420   32.1790   45.0420 C   0  0  0  0  0  0  0  0  0  0  0  0
   58.6480   32.6880   45.7150 N   0  0  0  0  0  0  0  0  0  0  0  0
   59.3460   31.8210   46.6760 C   0  0  0  0  0  0  0  0  0  0  0  0
   60.8060   32.1840   46.8280 C   0  0  0  0  0  0  0  0  0  0  0  0
   61.7080   31.2450   47.3560 C   0  0  0  0  0  0  0  0  0  0  0  0
   63.0410   31.6000   47.5860 C   0  0  0  0  0  0  0  0  0  0  0  0
   63.4770   32.8990   47.3100 C   0  0  0  0  0  0  0  0  0  0  0  0
   62.5830   33.8450   46.7990 C   0  0  0  0  0  0  0  0  0  0  0  0
   61.2500   33.4930   46.5570 C   0  0  0  0  0  0  0  0  0  0  0  0
   60.3520   34.4570   46.0110 N   0  0  0  0  0  0  0  0  0  0  0  0
   59.0530   34.0630   45.5790 C   0  0  0  0  0  0  0  0  0  0  0  0
   58.2880   34.9180   45.0570 O   0  0  0  0  0  0  0  0  0  0  0  0
   55.7320   28.6960   44.8750 N   0  0  0  0  0  0  0  0  0  0  0  0
   56.4900   27.7360   45.6190 C   0  0  0  0  0  0  0  0  0  0  0  0
   57.8710   27.9210   45.7520 C   0  0  0  0  0  0  0  0  0  0  0  0
   58.6510   26.9930   46.4590 C   0  0  0  0  0  0  0  0  0  0  0  0
   60.3920   27.2430   46.6320 S   0  0  0  0  0  0  0  0  0  0  0  0
   61.1030   25.9390   46.3980 O   0  0  0  0  0  0  0  0  0  0  0  0
   60.8560   28.2200   45.5880 O   0  0  0  0  0  0  0  0  0  0  0  0
   60.8080   27.8470   48.2180 N   0  0  0  0  0  0  0  0  0  0  0  0
   59.9150   28.9520   48.6000 C   0  0  0  0  0  0  0  0  0  0  0  0
   60.2310   29.4270   50.0330 C   0  0  0  0  0  0  0  0  0  0  0  0
   61.3040   28.7000   50.6040 O   0  0  0  0  0  0  0  0  0  0  0  0
   60.9820   27.3230   50.6340 C   0  0  0  0  0  0  0  0  0  0  0  0
   60.7360   26.7660   49.2150 C   0  0  0  0  0  0  0  0  0  0  0  0
   58.0400   25.8670   47.0230 C   0  0  0  0  0  0  0  0  0  0  0  0
   56.6680   25.6580   46.8640 C   0  0  0  0  0  0  0  0  0  0  0  0
   55.8930   26.5780   46.1510 C   0  0  0  0  0  0  0  0  0  0  0  0
   54.5420   26.3240   45.9520 O   0  0  0  0  0  0  0  0  0  0  0  0
   57.7229   30.2762   46.0167 H   0  0  0  0  0  0  0  0  0  0  0  0
   58.0973   30.3071   44.2340 H   0  0  0  0  0  0  0  0  0  0  0  0
   57.4285   32.5471   44.0055 H   0  0  0  0  0  0  0  0  0  0  0  0
   56.5608   32.5360   45.5952 H   0  0  0  0  0  0  0  0  0  0  0  0
   58.8554   31.9139   47.6561 H   0  0  0  0  0  0  0  0  0  0  0  0
   59.2954   30.7904   46.2949 H   0  0  0  0  0  0  0  0  0  0  0  0
   61.3643   30.2265   47.5894 H   0  0  0  0  0  0  0  0  0  0  0  0
   63.7469   30.8564   47.9844 H   0  0  0  0  0  0  0  0  0  0  0  0
   64.5249   33.1775   47.4951 H   0  0  0  0  0  0  0  0  0  0  0  0
   62.9279   34.8677   46.5868 H   0  0  0  0  0  0  0  0  0  0  0  0
   58.3492   28.8016   45.2983 H   0  0  0  0  0  0  0  0  0  0  0  0
   60.0554   29.7898   47.9011 H   0  0  0  0  0  0  0  0  0  0  0  0
   58.8738   28.5991   48.5622 H   0  0  0  0  0  0  0  0  0  0  0  0
   60.4994   30.4934   50.0035 H   0  0  0  0  0  0  0  0  0  0  0  0
   59.3376   29.2609   50.6528 H   0  0  0  0  0  0  0  0  0  0  0  0
   61.8149   26.7715   51.0946 H   0  0  0  0  0  0  0  0  0  0  0  0
   60.0580   27.1983   51.2177 H   0  0  0  0  0  0  0  0  0  0  0  0
   61.5010   26.0098   48.9851 H   0  0  0  0  0  0  0  0  0  0  0  0
   59.7338   26.3141   49.1786 H   0  0  0  0  0  0  0  0  0  0  0  0
   58.6422   25.1444   47.5933 H   0  0  0  0  0  0  0  0  0  0  0  0
   56.1954   24.7662   47.3014 H   0  0  0  0  0  0  0  0  0  0  0  0
  1  2  2  0
  2  3  1  0
  3  4  1  0
  4  5  1  0
  5  6  1  0
  6  7  1  0
  7  8  2  0
  8  9  1  0
  9 10  2  0
 10 11  1  0
 11 12  2  0
 12 13  1  0
 13 14  1  0
 14 15  2  0
  2 16  1  0
 16 17  1  0
 17 18  2  0
 18 19  1  0
 19 20  1  0
 20 21  2  0
 20 22  2  0
 20 23  1  0
 23 24  1  0
 24 25  1  0
 25 26  1  0
 26 27  1  0
 27 28  1  0
 19 29  2  0
 29 30  1  0
 30 31  2  0
 31 32  1  0
 14  5  1  0
 31 17  1  0
 12  7  1  0
 28 23  1  0
  3 33  1  0
  3 34  1  0
  4 35  1  0
  4 36  1  0
  6 37  1  0
  6 38  1  0
  8 39  1  0
  9 40  1  0
 10 41  1  0
 11 42  1  0
 18 43  1  0
 24 44  1  0
 24 45  1  0
 25 46  1  0
 25 47  1  0
 27 48  1  0
 27 49  1  0
 28 50  1  0
 28 51  1  0
 29 52  1  0
 30 53  1  0
M  CHG  3  13  -1  16  -1  32  -1
M  END
>  <UniqueID>  (84) 
74

>  <SMILES>  (84) 
O=C(CCN1Cc2ccccc2[N-]C1=O)[N-]c1cc(S(=O)(=O)N2CCOCC2)ccc1[O-]

>  <Energy>  (84) 
70.2588066921398

>  <Genealogy>  (84) 
O=C(CCN1Cc2ccccc2[N-]C1=O)[N-]c1cc(S(=O)(=O)N2CCOCC2)ccc1[O-] (protonated)
O=C(CCN1Cc2ccccc2[N-]C1=O)[N-]c1cc(S(=O)(=O)N2CCOCC2)ccc1[O-] (3D coordinates assigned)
O=C(CCN1Cc2ccccc2[N-]C1=O)[N-]c1cc(S(=O)(=O)N2CCOCC2)ccc1[O-] (nonaromatic ring conformer: 70.2588066921398 kcal/mol)

>  <smiles>  (84) 
O=C(CCN1Cc2ccccc2NC1=O)Nc1cc(S(=O)(=O)N2CCOCC2)ccc1O

>  <score_type>  (84) 
oracle

>  <origin>  (84) 
adg

>  <m_score__min__energy>  (84) 
-16.370000000000001

>  <m_primary>  (84) 
energy

$$$$
84:0
     RDKit          3D

 36 38  0  0  0  0  0  0  0  0999 V2000
   55.9110   21.8640   43.0780 O   0  0  0  0  0  0  0  0  0  0  0  0
   55.6290   22.6270   44.0380 C   0  0  0  0  0  0  0  0  0  0  0  0
   54.4370   23.2520   44.1440 N   0  0  0  0  0  0  0  0  0  0  0  0
   54.5680   23.9430   45.2890 C   0  0  0  0  0  0  0  0  0  0  0  0
   53.5780   24.7620   45.8230 O   0  0  0  0  0  0  0  0  0  0  0  0
   55.8070   23.7190   45.8390 C   0  0  0  0  0  0  0  0  0  0  0  0
   56.3570   24.3330   47.0890 C   0  0  0  0  0  0  0  0  0  0  0  0
   57.0820   25.6160   46.7700 C   0  0  0  0  0  0  0  0  0  0  0  0
   58.4680   25.7010   46.9720 C   0  0  0  0  0  0  0  0  0  0  0  0
   59.1480   26.8900   46.7070 C   0  0  0  0  0  0  0  0  0  0  0  0
   58.4520   28.0080   46.2440 C   0  0  0  0  0  0  0  0  0  0  0  0
   57.0620   27.9460   46.0440 C   0  0  0  0  0  0  0  0  0  0  0  0
   56.3140   29.0760   45.5700 N   0  0  0  0  0  0  0  0  0  0  0  0
   56.4240   29.7510   43.9760 S   0  0  0  0  0  0  0  0  0  0  0  0
   55.0370   29.9830   43.4450 O   0  0  0  0  0  0  0  0  0  0  0  0
   57.1380   28.7800   43.0790 O   0  0  0  0  0  0  0  0  0  0  0  0
   57.3340   31.2570   44.0260 C   0  0  0  0  0  0  0  0  0  0  0  0
   57.7950   31.8490   42.8400 C   0  0  0  0  0  0  0  0  0  0  0  0
   58.4960   33.0580   42.8860 C   0  0  0  0  0  0  0  0  0  0  0  0
   58.7440   33.6780   44.1140 C   0  0  0  0  0  0  0  0  0  0  0  0
   58.2930   33.0890   45.2990 C   0  0  0  0  0  0  0  0  0  0  0  0
   58.6320   33.9350   46.9770 Br  0  0  0  0  0  0  0  0  0  0  0  0
   57.5900   31.8790   45.2550 C   0  0  0  0  0  0  0  0  0  0  0  0
   56.3800   26.7490   46.3150 C   0  0  0  0  0  0  0  0  0  0  0  0
   55.0010   26.6900   46.1300 O   0  0  0  0  0  0  0  0  0  0  0  0
   56.4960   22.8840   45.0410 N   0  0  0  0  0  0  0  0  0  0  0  0
   53.8220   25.5740   46.3750 H   0  0  0  0  0  0  0  0  0  0  0  0
   55.5299   24.5468   47.7819 H   0  0  0  0  0  0  0  0  0  0  0  0
   57.0647   23.6288   47.5507 H   0  0  0  0  0  0  0  0  0  0  0  0
   59.0215   24.8251   47.3414 H   0  0  0  0  0  0  0  0  0  0  0  0
   60.2354   26.9467   46.8633 H   0  0  0  0  0  0  0  0  0  0  0  0
   58.9939   28.9421   46.0346 H   0  0  0  0  0  0  0  0  0  0  0  0
   57.6046   31.3611   41.8727 H   0  0  0  0  0  0  0  0  0  0  0  0
   58.8528   33.5218   41.9546 H   0  0  0  0  0  0  0  0  0  0  0  0
   59.2943   34.6298   44.1480 H   0  0  0  0  0  0  0  0  0  0  0  0
   57.2376   31.4153   46.1882 H   0  0  0  0  0  0  0  0  0  0  0  0
  1  2  2  0
  2  3  1  0
  3  4  1  0
  4  5  1  0
  4  6  2  0
  6  7  1  0
  7  8  1  0
  8  9  2  0
  9 10  1  0
 10 11  2  0
 11 12  1  0
 12 13  1  0
 13 14  1  0
 14 15  2  0
 14 16  2  0
 14 17  1  0
 17 18  2  0
 18 19  1  0
 19 20  2  0
 20 21  1  0
 21 22  1  0
 21 23  2  0
 12 24  2  0
 24 25  1  0
  6 26  1  0
 26  2  1  0
 24  8  1  0
 23 17  1  0
  5 27  1  0
  7 28  1  0
  7 29  1  0
  9 30  1  0
 10 31  1  0
 11 32  1  0
 18 33  1  0
 19 34  1  0
 20 35  1  0
 23 36  1  0
M  CHG  4   3  -1  13  -1  25  -1  26  -1
M  END
>  <UniqueID>  (85) 
75

>  <SMILES>  (85) 
O=c1[n-]c(O)c(Cc2cccc([N-]S(=O)(=O)c3cccc(Br)c3)c2[O-])[n-]1

>  <Energy>  (85) 
69.2670886797994

>  <Genealogy>  (85) 
O=c1[n-]c(O)c(Cc2cccc([N-]S(=O)(=O)c3cccc(Br)c3)c2[O-])[n-]1 (protonated)
O=c1[n-]c(O)c(Cc2cccc([N-]S(=O)(=O)c3cccc(Br)c3)c2[O-])[n-]1 (3D coordinates assigned)
O=c1[n-]c(O)c(Cc2cccc([N-]S(=O)(=O)c3cccc(Br)c3)c2[O-])[n-]1 (optimized conformer: 69.2670886797994 kcal/mol)

>  <smiles>  (85) 
O=c1[nH]c(O)c(Cc2cccc(NS(=O)(=O)c3cccc(Br)c3)c2O)[nH]1

>  <score_type>  (85) 
oracle

>  <origin>  (85) 
adg

>  <m_score__min__energy>  (85) 
-17.550000000000001

>  <m_primary>  (85) 
energy

$$$$
85:0
     RDKit          3D

 46 49  0  0  0  0  0  0  0  0999 V2000
   62.6460   30.4980   50.1130 O   0  0  0  0  0  0  0  0  0  0  0  0
   61.8780   30.7280   49.1860 C   0  0  0  0  0  0  0  0  0  0  0  0
   60.7020   29.8080   48.9860 C   0  0  0  0  0  0  0  0  0  0  0  0
   60.7420   29.0330   47.3330 S   0  0  0  0  0  0  0  0  0  0  0  0
   59.6680   30.2560   46.5540 C   0  0  0  0  0  0  0  0  0  0  0  0
   59.9970   31.5650   46.7000 N   0  0  0  0  0  0  0  0  0  0  0  0
   59.2650   32.5500   46.1290 C   0  0  0  0  0  0  0  0  0  0  0  0
   59.6420   33.8880   46.2940 C   0  0  0  0  0  0  0  0  0  0  0  0
   58.8890   34.9060   45.7010 C   0  0  0  0  0  0  0  0  0  0  0  0
   57.7590   34.5890   44.9430 C   0  0  0  0  0  0  0  0  0  0  0  0
   57.3760   33.2550   44.7730 C   0  0  0  0  0  0  0  0  0  0  0  0
   58.1290   32.2250   45.3670 C   0  0  0  0  0  0  0  0  0  0  0  0
   57.7840   30.8680   45.2360 C   0  0  0  0  0  0  0  0  0  0  0  0
   56.7520   30.5460   44.5800 O   0  0  0  0  0  0  0  0  0  0  0  0
   58.5560   29.8980   45.8290 N   0  0  0  0  0  0  0  0  0  0  0  0
   58.1760   28.5130   45.7020 C   0  0  0  0  0  0  0  0  0  0  0  0
   57.7660   27.7780   46.8270 C   0  0  0  0  0  0  0  0  0  0  0  0
   57.4020   26.4340   46.6990 C   0  0  0  0  0  0  0  0  0  0  0  0
   57.4330   25.8180   45.4440 C   0  0  0  0  0  0  0  0  0  0  0  0
   57.8170   26.5470   44.3160 C   0  0  0  0  0  0  0  0  0  0  0  0
   58.1800   27.8910   44.4410 C   0  0  0  0  0  0  0  0  0  0  0  0
   62.1250   31.8330   48.2700 N   0  0  0  0  0  0  0  0  0  0  0  0
   62.2610   33.1190   48.9690 C   0  0  0  0  0  0  0  0  0  0  0  0
   63.1520   34.0120   48.1080 C   0  0  0  0  0  0  0  0  0  0  0  0
   63.7580   33.0940   47.0590 C   0  0  0  0  0  0  0  0  0  0  0  0
   63.3690   31.6950   47.4990 C   0  0  0  0  0  0  0  0  0  0  0  0
   60.7291   29.0195   49.7525 H   0  0  0  0  0  0  0  0  0  0  0  0
   59.7788   30.4001   49.0704 H   0  0  0  0  0  0  0  0  0  0  0  0
   60.5314   34.1387   46.8907 H   0  0  0  0  0  0  0  0  0  0  0  0
   59.1864   35.9570   45.8313 H   0  0  0  0  0  0  0  0  0  0  0  0
   57.1683   35.3921   44.4781 H   0  0  0  0  0  0  0  0  0  0  0  0
   56.4859   33.0105   44.1748 H   0  0  0  0  0  0  0  0  0  0  0  0
   57.7312   28.2625   47.8139 H   0  0  0  0  0  0  0  0  0  0  0  0
   57.0913   25.8614   47.5853 H   0  0  0  0  0  0  0  0  0  0  0  0
   57.1547   24.7584   45.3450 H   0  0  0  0  0  0  0  0  0  0  0  0
   57.8337   26.0629   43.3284 H   0  0  0  0  0  0  0  0  0  0  0  0
   58.4702   28.4649   43.5486 H   0  0  0  0  0  0  0  0  0  0  0  0
   61.3190   31.8910   47.6040 H   0  0  0  0  0  0  0  0  0  0  0  0
   61.2725   33.5845   49.0966 H   0  0  0  0  0  0  0  0  0  0  0  0
   62.7016   32.9753   49.9666 H   0  0  0  0  0  0  0  0  0  0  0  0
   62.5553   34.8020   47.6285 H   0  0  0  0  0  0  0  0  0  0  0  0
   63.9266   34.5132   48.7070 H   0  0  0  0  0  0  0  0  0  0  0  0
   63.3451   33.3164   46.0640 H   0  0  0  0  0  0  0  0  0  0  0  0
   64.8482   33.2166   46.9790 H   0  0  0  0  0  0  0  0  0  0  0  0
   63.2034   31.0525   46.6216 H   0  0  0  0  0  0  0  0  0  0  0  0
   64.1631   31.2318   48.1030 H   0  0  0  0  0  0  0  0  0  0  0  0
  1  2  2  0
  2  3  1  0
  3  4  1  0
  4  5  1  0
  5  6  2  0
  6  7  1  0
  7  8  2  0
  8  9  1  0
  9 10  2  0
 10 11  1  0
 11 12  2  0
 12 13  1  0
 13 14  2  0
 13 15  1  0
 15 16  1  0
 16 17  2  0
 17 18  1  0
 18 19  2  0
 19 20  1  0
 20 21  2  0
  2 22  1  0
 22 23  1  0
 23 24  1  0
 24 25  1  0
 25 26  1  0
 15  5  1  0
 21 16  1  0
 26 22  1  0
 12  7  1  0
  3 27  1  0
  3 28  1  0
  8 29  1  0
  9 30  1  0
 10 31  1  0
 11 32  1  0
 17 33  1  0
 18 34  1  0
 19 35  1  0
 20 36  1  0
 21 37  1  0
 22 38  1  0
 23 39  1  0
 23 40  1  0
 24 41  1  0
 24 42  1  0
 25 43  1  0
 25 44  1  0
 26 45  1  0
 26 46  1  0
M  CHG  1  22   1
M  END
>  <UniqueID>  (86) 
76

>  <SMILES>  (86) 
O=C(CSc1nc2ccccc2c(=O)n1-c1ccccc1)[NH+]1CCCC1

>  <Energy>  (86) 
62.558039732439035

>  <Genealogy>  (86) 
O=C(CSc1nc2ccccc2c(=O)n1-c1ccccc1)[NH+]1CCCC1 (protonated)
O=C(CSc1nc2ccccc2c(=O)n1-c1ccccc1)[NH+]1CCCC1 (3D coordinates assigned)
O=C(CSc1nc2ccccc2c(=O)n1-c1ccccc1)[NH+]1CCCC1 (nonaromatic ring conformer: 62.558039732439035 kcal/mol)

>  <smiles>  (86) 
O=C(CSc1nc2ccccc2c(=O)n1-c1ccccc1)N1CCCC1

>  <score_type>  (86) 
oracle

>  <origin>  (86) 
adg

>  <m_score__min__energy>  (86) 
-6.46

>  <m_primary>  (86) 
energy

$$$$
86:0
     RDKit          3D

 42 43  0  0  0  0  0  0  0  0999 V2000
   57.8010   32.8080   44.3370 C   0  0  0  0  0  0  0  0  0  0  0  0
   57.6720   31.9210   43.0990 C   0  0  0  0  0  0  0  0  0  0  0  0
   57.3290   30.4600   43.4480 C   0  0  0  0  0  0  0  0  0  0  0  0
   58.0900   29.9280   44.6710 C   0  0  0  0  0  0  0  0  0  0  0  0
   57.5250   28.6680   45.1520 N   0  0  0  0  0  0  0  0  0  0  0  0
   58.2230   27.6080   45.6180 C   0  0  0  0  0  0  0  0  0  0  0  0
   57.3470   26.6020   46.0090 C   0  0  0  0  0  0  0  0  0  0  0  0
   57.6680   25.3180   46.6630 C   0  0  0  0  0  0  0  0  0  0  0  0
   58.8310   24.8520   46.5330 O   0  0  0  0  0  0  0  0  0  0  0  0
   56.7270   24.5800   47.4580 N   0  0  0  0  0  0  0  0  0  0  0  0
   56.9230   23.2810   48.0960 C   0  0  0  0  0  0  0  0  0  0  0  0
   56.1490   22.1790   47.3610 C   0  0  0  0  0  0  0  0  0  0  0  0
   56.1030   22.4470   45.8760 C   0  0  0  0  0  0  0  0  0  0  0  0
   56.9860   21.7700   45.0170 C   0  0  0  0  0  0  0  0  0  0  0  0
   56.9650   22.0160   43.6420 C   0  0  0  0  0  0  0  0  0  0  0  0
   56.0700   22.9460   43.1110 C   0  0  0  0  0  0  0  0  0  0  0  0
   55.1960   23.6360   43.9550 C   0  0  0  0  0  0  0  0  0  0  0  0
   55.2110   23.3960   45.3370 C   0  0  0  0  0  0  0  0  0  0  0  0
   54.3490   24.1030   46.1740 O   0  0  0  0  0  0  0  0  0  0  0  0
   56.0750   27.0980   45.7830 C   0  0  0  0  0  0  0  0  0  0  0  0
   54.8730   26.4520   46.0450 O   0  0  0  0  0  0  0  0  0  0  0  0
   56.2180   28.3560   45.2540 C   0  0  0  0  0  0  0  0  0  0  0  0
   55.1770   29.1980   44.8830 O   0  0  0  0  0  0  0  0  0  0  0  0
   57.7110   32.1895   45.2422 H   0  0  0  0  0  0  0  0  0  0  0  0
   58.7812   33.3072   44.3299 H   0  0  0  0  0  0  0  0  0  0  0  0
   57.0036   33.5657   44.3299 H   0  0  0  0  0  0  0  0  0  0  0  0
   56.8756   32.3259   42.4573 H   0  0  0  0  0  0  0  0  0  0  0  0
   58.6457   31.9208   42.5873 H   0  0  0  0  0  0  0  0  0  0  0  0
   56.2504   30.3951   43.6537 H   0  0  0  0  0  0  0  0  0  0  0  0
   57.6273   29.8430   42.5876 H   0  0  0  0  0  0  0  0  0  0  0  0
   59.1417   29.7644   44.3933 H   0  0  0  0  0  0  0  0  0  0  0  0
   58.0070   30.6716   45.4773 H   0  0  0  0  0  0  0  0  0  0  0  0
   59.3198   27.5503   45.6786 H   0  0  0  0  0  0  0  0  0  0  0  0
   57.9949   23.0344   48.0857 H   0  0  0  0  0  0  0  0  0  0  0  0
   56.5483   23.3402   49.1285 H   0  0  0  0  0  0  0  0  0  0  0  0
   56.6449   21.2130   47.5368 H   0  0  0  0  0  0  0  0  0  0  0  0
   55.1184   22.1594   47.7452 H   0  0  0  0  0  0  0  0  0  0  0  0
   57.6987   21.0412   45.4305 H   0  0  0  0  0  0  0  0  0  0  0  0
   57.6549   21.4759   42.9769 H   0  0  0  0  0  0  0  0  0  0  0  0
   56.0527   23.1358   42.0276 H   0  0  0  0  0  0  0  0  0  0  0  0
   54.4934   24.3703   43.5341 H   0  0  0  0  0  0  0  0  0  0  0  0
   54.6780   24.8720   46.7460 H   0  0  0  0  0  0  0  0  0  0  0  0
  1  2  1  0
  2  3  1  0
  3  4  1  0
  4  5  1  0
  5  6  1  0
  6  7  2  0
  7  8  1  0
  8  9  2  0
  8 10  1  0
 10 11  1  0
 11 12  1  0
 12 13  1  0
 13 14  2  0
 14 15  1  0
 15 16  2  0
 16 17  1  0
 17 18  2  0
 18 19  1  0
  7 20  1  0
 20 21  1  0
 20 22  2  0
 22 23  1  0
 22  5  1  0
 18 13  1  0
  1 24  1  0
  1 25  1  0
  1 26  1  0
  2 27  1  0
  2 28  1  0
  3 29  1  0
  3 30  1  0
  4 31  1  0
  4 32  1  0
  6 33  1  0
 11 34  1  0
 11 35  1  0
 12 36  1  0
 12 37  1  0
 14 38  1  0
 15 39  1  0
 16 40  1  0
 17 41  1  0
 19 42  1  0
M  CHG  3  10  -1  21  -1  23  -1
M  END
>  <UniqueID>  (87) 
77

>  <SMILES>  (87) 
CCCCn1cc(C(=O)[N-]CCc2ccccc2O)c([O-])c1[O-]

>  <Energy>  (87) 
64.8328358186673

>  <Genealogy>  (87) 
CCCCn1cc(C(=O)[N-]CCc2ccccc2O)c([O-])c1[O-] (protonated)
CCCCn1cc(C(=O)[N-]CCc2ccccc2O)c([O-])c1[O-] (3D coordinates assigned)
CCCCn1cc(C(=O)[N-]CCc2ccccc2O)c([O-])c1[O-] (optimized conformer: 64.8328358186673 kcal/mol)

>  <smiles>  (87) 
CCCCn1cc(C(=O)NCCc2ccccc2O)c(O)c1O

>  <score_type>  (87) 
oracle

>  <origin>  (87) 
adg

>  <m_score__min__energy>  (87) 
-14.58

>  <m_primary>  (87) 
energy

$$$$
87:0
     RDKit          3D

 52 54  0  0  0  0  0  0  0  0999 V2000
   57.0590   31.1600   53.5660 C   0  0  0  0  0  0  0  0  0  0  0  0
   56.5030   30.3450   52.0850 S   0  0  0  0  0  0  0  0  0  0  0  0
   55.2780   31.0540   51.5780 O   0  0  0  0  0  0  0  0  0  0  0  0
   56.1510   28.9120   52.3740 O   0  0  0  0  0  0  0  0  0  0  0  0
   57.7340   30.4190   50.8660 N   0  0  0  0  0  0  0  0  0  0  0  0
   58.8370   31.3330   50.8440 C   0  0  0  0  0  0  0  0  0  0  0  0
   58.6580   32.7210   50.6920 C   0  0  0  0  0  0  0  0  0  0  0  0
   59.7660   33.5700   50.6550 C   0  0  0  0  0  0  0  0  0  0  0  0
   61.0640   33.0520   50.7790 C   0  0  0  0  0  0  0  0  0  0  0  0
   62.2500   33.9780   50.7280 C   0  0  0  0  0  0  0  0  0  0  0  0
   62.7280   34.1230   49.3520 N   0  0  0  0  0  0  0  0  0  0  0  0
   63.6670   33.2200   48.7390 C   0  0  0  0  0  0  0  0  0  0  0  0
   64.6540   32.2890   49.6640 S   0  0  0  0  0  0  0  0  0  0  0  0
   63.7740   33.1190   47.3090 N   0  0  0  0  0  0  0  0  0  0  0  0
   62.9200   33.8490   46.3700 C   0  0  0  0  0  0  0  0  0  0  0  0
   61.4620   33.5600   46.6220 C   0  0  0  0  0  0  0  0  0  0  0  0
   60.4960   34.5550   46.4050 C   0  0  0  0  0  0  0  0  0  0  0  0
   59.1470   34.2910   46.6530 C   0  0  0  0  0  0  0  0  0  0  0  0
   58.7500   33.0330   47.1140 C   0  0  0  0  0  0  0  0  0  0  0  0
   59.7020   32.0280   47.3480 C   0  0  0  0  0  0  0  0  0  0  0  0
   59.2640   30.7310   47.7910 N   0  0  0  0  0  0  0  0  0  0  0  0
   59.0750   29.6300   46.8950 C   0  0  0  0  0  0  0  0  0  0  0  0
   60.0760   28.9770   46.5060 O   0  0  0  0  0  0  0  0  0  0  0  0
   57.7750   29.2850   46.3900 N   0  0  0  0  0  0  0  0  0  0  0  0
   57.2340   29.7050   45.2850 C   0  0  0  0  0  0  0  0  0  0  0  0
   55.9460   29.4910   44.9350 N   0  0  0  0  0  0  0  0  0  0  0  0
   55.6560   30.0560   43.7340 C   0  0  0  0  0  0  0  0  0  0  0  0
   56.7170   30.7170   43.1210 C   0  0  0  0  0  0  0  0  0  0  0  0
   58.0620   30.5820   44.1200 S   0  0  0  0  0  0  0  0  0  0  0  0
   61.0620   32.3060   47.1100 C   0  0  0  0  0  0  0  0  0  0  0  0
   61.2410   31.6710   50.9430 C   0  0  0  0  0  0  0  0  0  0  0  0
   60.1330   30.8180   50.9770 C   0  0  0  0  0  0  0  0  0  0  0  0
   56.6871   30.6149   54.4461 H   0  0  0  0  0  0  0  0  0  0  0  0
   58.1587   31.1783   53.5837 H   0  0  0  0  0  0  0  0  0  0  0  0
   56.6748   32.1906   53.5837 H   0  0  0  0  0  0  0  0  0  0  0  0
   57.6438   33.1374   50.6022 H   0  0  0  0  0  0  0  0  0  0  0  0
   59.6201   34.6528   50.5277 H   0  0  0  0  0  0  0  0  0  0  0  0
   61.9558   34.9648   51.1150 H   0  0  0  0  0  0  0  0  0  0  0  0
   63.0583   33.5553   51.3429 H   0  0  0  0  0  0  0  0  0  0  0  0
   62.3230   34.9020   48.7890 H   0  0  0  0  0  0  0  0  0  0  0  0
   64.4970   32.4810   46.9080 H   0  0  0  0  0  0  0  0  0  0  0  0
   63.0976   34.9282   46.4878 H   0  0  0  0  0  0  0  0  0  0  0  0
   63.1681   33.5246   45.3486 H   0  0  0  0  0  0  0  0  0  0  0  0
   60.8023   35.5459   46.0384 H   0  0  0  0  0  0  0  0  0  0  0  0
   58.3948   35.0758   46.4849 H   0  0  0  0  0  0  0  0  0  0  0  0
   57.6844   32.8288   47.2948 H   0  0  0  0  0  0  0  0  0  0  0  0
   58.9890   30.5950   48.7890 H   0  0  0  0  0  0  0  0  0  0  0  0
   54.6562   29.9956   43.2792 H   0  0  0  0  0  0  0  0  0  0  0  0
   56.6813   31.2368   42.1522 H   0  0  0  0  0  0  0  0  0  0  0  0
   61.8186   31.5326   47.3085 H   0  0  0  0  0  0  0  0  0  0  0  0
   62.2549   31.2568   51.0453 H   0  0  0  0  0  0  0  0  0  0  0  0
   60.2802   29.7359   51.1090 H   0  0  0  0  0  0  0  0  0  0  0  0
  1  2  1  0
  2  3  2  0
  2  4  2  0
  2  5  1  0
  5  6  1  0
  6  7  2  0
  7  8  1  0
  8  9  2  0
  9 10  1  0
 10 11  1  0
 11 12  1  0
 12 13  2  0
 12 14  1  0
 14 15  1  0
 15 16  1  0
 16 17  2  0
 17 18  1  0
 18 19  2  0
 19 20  1  0
 20 21  1  0
 21 22  1  0
 22 23  2  0
 22 24  1  0
 24 25  2  3
 25 26  1  0
 26 27  1  0
 27 28  2  0
 28 29  1  0
 20 30  2  0
  9 31  1  0
 31 32  2  0
 32  6  1  0
 30 16  1  0
 29 25  1  0
  1 33  1  0
  1 34  1  0
  1 35  1  0
  7 36  1  0
  8 37  1  0
 10 38  1  0
 10 39  1  0
 11 40  1  0
 14 41  1  0
 15 42  1  0
 15 43  1  0
 17 44  1  0
 18 45  1  0
 19 46  1  0
 21 47  1  0
 27 48  1  0
 28 49  1  0
 30 50  1  0
 31 51  1  0
 32 52  1  0
M  CHG  2   5  -1  26  -1
M  END
>  <UniqueID>  (88) 
78

>  <SMILES>  (88) 
CS(=O)(=O)[N-]c1ccc(CNC(=S)NCc2cccc(NC(=O)N=c3[n-]ccs3)c2)cc1

>  <Energy>  (88) 
82.85809841652801

>  <Genealogy>  (88) 
CS(=O)(=O)[N-]c1ccc(CNC(=S)NCc2cccc(NC(=O)N=c3[n-]ccs3)c2)cc1 (protonated)
CS(=O)(=O)[N-]c1ccc(CNC(=S)NCc2cccc(NC(=O)N=c3[n-]ccs3)c2)cc1 (3D coordinates assigned)
CS(=O)(=O)[N-]c1ccc(CNC(=S)NCc2cccc(NC(=O)N=c3[n-]ccs3)c2)cc1 (optimized conformer: 82.85809841652801 kcal/mol)

>  <smiles>  (88) 
CS(=O)(=O)Nc1ccc(CNC(=S)NCc2cccc(NC(=O)N=c3[nH]ccs3)c2)cc1

>  <score_type>  (88) 
oracle

>  <origin>  (88) 
adg

>  <m_score__min__energy>  (88) 
-12.199999999999999

>  <m_primary>  (88) 
energy

$$$$
88:0
     RDKit          3D

 54 57  0  0  0  0  0  0  0  0999 V2000
   58.5120   30.4460   47.8900 C   0  0  0  0  0  0  0  0  0  0  0  0
   59.2630   31.7170   47.6340 C   0  0  0  0  0  0  0  0  0  0  0  0
   60.2690   32.2080   48.4450 C   0  0  0  0  0  0  0  0  0  0  0  0
   60.6960   33.3850   47.8630 C   0  0  0  0  0  0  0  0  0  0  0  0
   61.8600   34.2140   48.3290 C   0  0  0  0  0  0  0  0  0  0  0  0
   63.1380   33.8060   47.6410 C   0  0  0  0  0  0  0  0  0  0  0  0
   63.3100   34.1010   46.4280 O   0  0  0  0  0  0  0  0  0  0  0  0
   64.1380   33.0190   48.2980 N   0  0  0  0  0  0  0  0  0  0  0  0
   64.2930   32.8280   50.0140 S   0  0  0  0  0  0  0  0  0  0  0  0
   64.3470   34.1830   50.6600 O   0  0  0  0  0  0  0  0  0  0  0  0
   65.5650   32.0940   50.3280 O   0  0  0  0  0  0  0  0  0  0  0  0
   62.9070   31.9520   50.6390 C   0  0  0  0  0  0  0  0  0  0  0  0
   62.6460   30.6030   50.4600 C   0  0  0  0  0  0  0  0  0  0  0  0
   61.4460   30.1970   51.0570 C   0  0  0  0  0  0  0  0  0  0  0  0
   60.7690   31.2250   51.7010 C   0  0  0  0  0  0  0  0  0  0  0  0
   61.6610   32.6410   51.5290 S   0  0  0  0  0  0  0  0  0  0  0  0
   59.9320   33.5720   46.7190 C   0  0  0  0  0  0  0  0  0  0  0  0
   60.1250   34.6730   45.7160 C   0  0  0  0  0  0  0  0  0  0  0  0
   59.0640   32.5400   46.5760 N   0  0  0  0  0  0  0  0  0  0  0  0
   58.1450   32.3200   45.4510 C   0  0  0  0  0  0  0  0  0  0  0  0
   58.0170   30.8490   45.1490 C   0  0  0  0  0  0  0  0  0  0  0  0
   59.1510   30.0200   45.1450 C   0  0  0  0  0  0  0  0  0  0  0  0
   59.0270   28.6540   44.8780 C   0  0  0  0  0  0  0  0  0  0  0  0
   57.7700   28.0950   44.5930 C   0  0  0  0  0  0  0  0  0  0  0  0
   57.6470   26.6430   44.3380 C   0  0  0  0  0  0  0  0  0  0  0  0
   57.9660   26.1920   43.2030 O   0  0  0  0  0  0  0  0  0  0  0  0
   57.1720   25.6950   45.3660 C   0  0  0  0  0  0  0  0  0  0  0  0
   57.8200   24.5670   45.7070 N   0  0  0  0  0  0  0  0  0  0  0  0
   57.0320   23.9830   46.6320 C   0  0  0  0  0  0  0  0  0  0  0  0
   57.3220   22.8940   47.1920 O   0  0  0  0  0  0  0  0  0  0  0  0
   55.8980   24.6660   46.8980 N   0  0  0  0  0  0  0  0  0  0  0  0
   55.9950   25.7380   46.0890 C   0  0  0  0  0  0  0  0  0  0  0  0
   55.0090   26.7120   45.9920 O   0  0  0  0  0  0  0  0  0  0  0  0
   56.6350   28.9240   44.6060 C   0  0  0  0  0  0  0  0  0  0  0  0
   56.7600   30.2900   44.8750 C   0  0  0  0  0  0  0  0  0  0  0  0
   58.4184   30.2875   48.9745 H   0  0  0  0  0  0  0  0  0  0  0  0
   57.5099   30.5156   47.4417 H   0  0  0  0  0  0  0  0  0  0  0  0
   59.0564   29.6018   47.4417 H   0  0  0  0  0  0  0  0  0  0  0  0
   60.6528   31.7520   49.3695 H   0  0  0  0  0  0  0  0  0  0  0  0
   61.6568   35.2722   48.1077 H   0  0  0  0  0  0  0  0  0  0  0  0
   61.9846   34.0577   49.4107 H   0  0  0  0  0  0  0  0  0  0  0  0
   63.3110   29.9229   49.9074 H   0  0  0  0  0  0  0  0  0  0  0  0
   61.0747   29.1622   51.0195 H   0  0  0  0  0  0  0  0  0  0  0  0
   59.8113   31.1293   52.2336 H   0  0  0  0  0  0  0  0  0  0  0  0
   60.2917   35.6240   46.2430 H   0  0  0  0  0  0  0  0  0  0  0  0
   60.9970   34.4456   45.0852 H   0  0  0  0  0  0  0  0  0  0  0  0
   59.2277   34.7558   45.0852 H   0  0  0  0  0  0  0  0  0  0  0  0
   57.1547   32.7233   45.7092 H   0  0  0  0  0  0  0  0  0  0  0  0
   58.5445   32.8305   44.5623 H   0  0  0  0  0  0  0  0  0  0  0  0
   60.1424   30.4486   45.3533 H   0  0  0  0  0  0  0  0  0  0  0  0
   59.9200   28.0118   44.8911 H   0  0  0  0  0  0  0  0  0  0  0  0
   58.7330   24.2190   45.3410 H   0  0  0  0  0  0  0  0  0  0  0  0
   55.6425   28.4953   44.4033 H   0  0  0  0  0  0  0  0  0  0  0  0
   55.8662   30.9312   44.8718 H   0  0  0  0  0  0  0  0  0  0  0  0
  1  2  1  0
  2  3  2  0
  3  4  1  0
  4  5  1  0
  5  6  1  0
  6  7  2  0
  6  8  1  0
  8  9  1  0
  9 10  2  0
  9 11  2  0
  9 12  1  0
 12 13  2  0
 13 14  1  0
 14 15  2  0
 15 16  1  0
  4 17  2  0
 17 18  1  0
 17 19  1  0
 19 20  1  0
 20 21  1  0
 21 22  2  0
 22 23  1  0
 23 24  2  0
 24 25  1  0
 25 26  2  0
 25 27  1  0
 27 28  1  0
 28 29  1  0
 29 30  2  0
 29 31  1  0
 31 32  1  0
 32 33  1  0
 24 34  1  0
 34 35  2  0
 19  2  1  0
 35 21  1  0
 16 12  1  0
 32 27  2  0
  1 36  1  0
  1 37  1  0
  1 38  1  0
  3 39  1  0
  5 40  1  0
  5 41  1  0
 13 42  1  0
 14 43  1  0
 15 44  1  0
 18 45  1  0
 18 46  1  0
 18 47  1  0
 20 48  1  0
 20 49  1  0
 22 50  1  0
 23 51  1  0
 28 52  1  0
 34 53  1  0
 35 54  1  0
M  CHG  3   8  -1  31  -1  33  -1
M  END
>  <UniqueID>  (89) 
79

>  <SMILES>  (89) 
Cc1cc(CC(=O)[N-]S(=O)(=O)c2cccs2)c(C)n1Cc1ccc(C(=O)c2[nH]c(=O)[n-]c2[O-])cc1

>  <Energy>  (89) 
143.50016189180133

>  <Genealogy>  (89) 
Cc1cc(CC(=O)[N-]S(=O)(=O)c2cccs2)c(C)n1Cc1ccc(C(=O)c2[nH]c(=O)[n-]c2[O-])cc1 (protonated)
Cc1cc(CC(=O)[N-]S(=O)(=O)c2cccs2)c(C)n1Cc1ccc(C(=O)c2[nH]c(=O)[n-]c2[O-])cc1 (3D coordinates assigned)
Cc1cc(CC(=O)[N-]S(=O)(=O)c2cccs2)c(C)n1Cc1ccc(C(=O)c2[nH]c(=O)[n-]c2[O-])cc1 (optimized conformer: 143.50016189180133 kcal/mol)

>  <smiles>  (89) 
Cc1cc(CC(=O)NS(=O)(=O)c2cccs2)c(C)n1Cc1ccc(C(=O)c2[nH]c(=O)[nH]c2O)cc1

>  <score_type>  (89) 
oracle

>  <origin>  (89) 
adg

>  <m_score__min__energy>  (89) 
-17.489999999999998

>  <m_primary>  (89) 
energy

$$$$
89:0
     RDKit          3D

 66 70  0  0  0  0  0  0  0  0999 V2000
   59.4349   25.1025   45.8471 H   0  0  0  0  0  0  0  0  0  0  0  0
   58.3640   25.3530   45.8690 C   0  0  0  0  0  0  0  0  0  0  0  0
   57.9650   26.6450   45.7140 N   0  0  0  0  0  0  0  0  0  0  0  0
   56.6470   27.0000   45.7390 C   0  0  0  0  0  0  0  0  0  0  0  0
   56.2830   28.2400   45.5780 N   0  0  0  0  0  0  0  0  0  0  0  0
   57.0540   29.2810   44.9600 C   0  0  0  0  0  0  0  0  0  0  0  0
   56.5340   29.9260   44.0100 O   0  0  0  0  0  0  0  0  0  0  0  0
   58.3990   29.6720   45.4510 C   0  0  0  0  0  0  0  0  0  0  0  0
   59.5740   29.0780   44.9130 C   0  0  0  0  0  0  0  0  0  0  0  0
   59.4870   28.3360   44.1056 H   0  0  0  0  0  0  0  0  0  0  0  0
   60.8460   29.4280   45.4010 C   0  0  0  0  0  0  0  0  0  0  0  0
   61.7592   28.9828   44.9791 H   0  0  0  0  0  0  0  0  0  0  0  0
   60.9100   30.3560   46.4350 C   0  0  0  0  0  0  0  0  0  0  0  0
   62.0050   30.8170   47.0560 N   0  0  0  0  0  0  0  0  0  0  0  0
   61.4860   31.6680   47.9820 C   0  0  0  0  0  0  0  0  0  0  0  0
   62.3230   32.4270   48.9370 C   0  0  0  0  0  0  0  0  0  0  0  0
   63.6010   31.9630   49.2890 C   0  0  0  0  0  0  0  0  0  0  0  0
   63.9796   31.0256   48.8555 H   0  0  0  0  0  0  0  0  0  0  0  0
   64.3960   32.6830   50.1860 C   0  0  0  0  0  0  0  0  0  0  0  0
   65.3975   32.3119   50.4494 H   0  0  0  0  0  0  0  0  0  0  0  0
   63.9210   33.8810   50.7540 C   0  0  0  0  0  0  0  0  0  0  0  0
   64.6750   34.6470   51.6590 O   0  0  0  0  0  0  0  0  0  0  0  0
   65.1640   34.1930   52.9210 C   0  0  0  0  0  0  0  0  0  0  0  0
   65.3907   35.0632   53.5546 H   0  0  0  0  0  0  0  0  0  0  0  0
   66.0722   33.5953   52.7539 H   0  0  0  0  0  0  0  0  0  0  0  0
   64.1200   33.3170   53.6240 C   0  0  0  0  0  0  0  0  0  0  0  0
   64.5184   32.9943   54.5972 H   0  0  0  0  0  0  0  0  0  0  0  0
   63.9071   32.4468   52.9857 H   0  0  0  0  0  0  0  0  0  0  0  0
   62.8150   34.0870   53.8480 C   0  0  0  0  0  0  0  0  0  0  0  0
   62.5352   34.6102   52.9217 H   0  0  0  0  0  0  0  0  0  0  0  0
   62.9574   34.8194   54.6563 H   0  0  0  0  0  0  0  0  0  0  0  0
   61.7380   33.1420   54.2250 N   0  0  0  0  0  0  0  0  0  0  0  0
   61.9150   31.7900   53.6540 C   0  0  0  0  0  0  0  0  0  0  0  0
   61.2702   31.0880   54.2030 H   0  0  0  0  0  0  0  0  0  0  0  0
   62.9777   31.5230   53.7504 H   0  0  0  0  0  0  0  0  0  0  0  0
   61.5510   31.7290   52.1590 C   0  0  0  0  0  0  0  0  0  0  0  0
   61.5886   30.6805   51.8284 H   0  0  0  0  0  0  0  0  0  0  0  0
   62.2752   32.3496   51.6110 H   0  0  0  0  0  0  0  0  0  0  0  0
   60.2020   32.2640   51.8880 N   0  0  0  0  0  0  0  0  0  0  0  0
   59.1130   31.3260   52.2470 C   0  0  0  0  0  0  0  0  0  0  0  0
   58.4417   31.8059   52.9743 H   0  0  0  0  0  0  0  0  0  0  0  0
   59.5459   30.4164   52.6889 H   0  0  0  0  0  0  0  0  0  0  0  0
   58.3230   30.9540   50.9960 C   0  0  0  0  0  0  0  0  0  0  0  0
   57.3638   30.5023   51.2889 H   0  0  0  0  0  0  0  0  0  0  0  0
   58.1352   31.8583   50.3985 H   0  0  0  0  0  0  0  0  0  0  0  0
   58.9005   30.2332   50.3985 H   0  0  0  0  0  0  0  0  0  0  0  0
   60.0280   33.6130   52.4630 C   0  0  0  0  0  0  0  0  0  0  0  0
   58.9780   33.9167   52.3398 H   0  0  0  0  0  0  0  0  0  0  0  0
   60.7097   34.2940   51.9324 H   0  0  0  0  0  0  0  0  0  0  0  0
   60.3850   33.6640   53.9600 C   0  0  0  0  0  0  0  0  0  0  0  0
   59.6557   33.0597   54.5194 H   0  0  0  0  0  0  0  0  0  0  0  0
   60.3592   34.7164   54.2790 H   0  0  0  0  0  0  0  0  0  0  0  0
   62.6470   34.3400   50.4030 C   0  0  0  0  0  0  0  0  0  0  0  0
   62.2649   35.2733   50.8421 H   0  0  0  0  0  0  0  0  0  0  0  0
   61.8550   33.6260   49.5010 C   0  0  0  0  0  0  0  0  0  0  0  0
   60.8583   34.0047   49.2303 H   0  0  0  0  0  0  0  0  0  0  0  0
   60.1270   31.7520   47.9620 N   0  0  0  0  0  0  0  0  0  0  0  0
   59.7940   30.9130   46.9710 C   0  0  0  0  0  0  0  0  0  0  0  0
   58.5170   30.6000   46.5120 C   0  0  0  0  0  0  0  0  0  0  0  0
   57.6254   31.0613   46.9618 H   0  0  0  0  0  0  0  0  0  0  0  0
   55.6690   26.0100   45.9130 C   0  0  0  0  0  0  0  0  0  0  0  0
   54.3190   26.3390   45.9310 O   0  0  0  0  0  0  0  0  0  0  0  0
   56.0610   24.6780   46.0760 C   0  0  0  0  0  0  0  0  0  0  0  0
   55.3025   23.8944   46.2198 H   0  0  0  0  0  0  0  0  0  0  0  0
   57.4150   24.3440   46.0560 C   0  0  0  0  0  0  0  0  0  0  0  0
   57.7323   23.2988   46.1859 H   0  0  0  0  0  0  0  0  0  0  0  0
  1  2  1  0
  2  3  1  0
  3  4  1  0
  4  5  2  0
  5  6  1  0
  6  7  2  0
  6  8  1  0
  8  9  2  0
  9 10  1  0
  9 11  1  0
 11 12  1  0
 11 13  2  0
 13 14  1  0
 14 15  1  0
 15 16  1  0
 16 17  2  0
 17 18  1  0
 17 19  1  0
 19 20  1  0
 19 21  2  0
 21 22  1  0
 22 23  1  0
 23 24  1  0
 23 25  1  0
 23 26  1  0
 26 27  1  0
 26 28  1  0
 26 29  1  0
 29 30  1  0
 29 31  1  0
 29 32  1  0
 32 33  1  0
 33 34  1  0
 33 35  1  0
 33 36  1  0
 36 37  1  0
 36 38  1  0
 36 39  1  0
 39 40  1  0
 40 41  1  0
 40 42  1  0
 40 43  1  0
 43 44  1  0
 43 45  1  0
 43 46  1  0
 39 47  1  0
 47 48  1  0
 47 49  1  0
 47 50  1  0
 50 51  1  0
 50 52  1  0
 21 53  1  0
 53 54  1  0
 53 55  2  0
 55 56  1  0
 15 57  2  0
 57 58  1  0
 58 59  2  0
 59 60  1  0
  4 61  1  0
 61 62  1  0
 61 63  2  0
 63 64  1  0
 63 65  1  0
 65 66  1  0
 65  2  2  0
 59  8  1  0
 58 13  1  0
 55 16  1  0
 50 32  1  0
M  CHG  3   3  -1  14  -1  62  -1
M  END
>  <UniqueID>  (90) 
80

>  <SMILES>  (90) 
CCN1CCN(CCCOc2ccc(-c3nc4cc(C(=O)/N=c5\[n-]cccc5[O-])ccc4[n-]3)cc2)CC1

>  <Energy>  (90) 
120.00215546068041

>  <Genealogy>  (90) 
CCN1CCN(CCCOc2ccc(-c3nc4cc(C(=O)N=c5[n-]cccc5[O-])ccc4[n-]3)cc2)CC1 (protonated)
CCN1CCN(CCCOc2ccc(-c3nc4cc(C(=O)/N=c5\[n-]cccc5[O-])ccc4[n-]3)cc2)CC1 (cis-trans isomerization)
CCN1CCN(CCCOc2ccc(-c3nc4cc(C(=O)/N=c5\[n-]cccc5[O-])ccc4[n-]3)cc2)CC1 (3D coordinates assigned)
CCN1CCN(CCCOc2ccc(-c3nc4cc(C(=O)/N=c5\[n-]cccc5[O-])ccc4[n-]3)cc2)CC1 (nonaromatic ring conformer: 120.00215546068041 kcal/mol)

>  <smiles>  (90) 
CCN1CCN(CCCOc2ccc(-c3nc4cc(C(=O)N=c5[nH]cccc5O)ccc4[nH]3)cc2)CC1

>  <score_type>  (90) 
oracle

>  <origin>  (90) 
adg

>  <m_score__min__energy>  (90) 
-14.34

>  <m_primary>  (90) 
energy

$$$$
90:0
     RDKit          3D

 40 42  0  0  0  0  0  0  0  0999 V2000
   54.7390   29.7110   43.3770 O   0  0  0  0  0  0  0  0  0  0  0  0
   55.8710   29.7230   43.9340 C   0  0  0  0  0  0  0  0  0  0  0  0
   57.0570   30.2570   43.1960 C   0  0  0  0  0  0  0  0  0  0  0  0
   57.5200   31.4880   43.8260 N   0  0  0  0  0  0  0  0  0  0  0  0
   57.6190   31.7250   45.1450 C   0  0  0  0  0  0  0  0  0  0  0  0
   57.9660   33.0530   45.2650 C   0  0  0  0  0  0  0  0  0  0  0  0
   58.1340   33.8260   46.5380 C   0  0  0  0  0  0  0  0  0  0  0  0
   59.3100   34.8090   46.4600 C   0  0  0  0  0  0  0  0  0  0  0  0
   60.5440   34.2680   47.1370 C   0  0  0  0  0  0  0  0  0  0  0  0
   61.6460   33.8530   46.3710 C   0  0  0  0  0  0  0  0  0  0  0  0
   62.8010   33.3770   46.9990 C   0  0  0  0  0  0  0  0  0  0  0  0
   62.8640   33.3110   48.3930 C   0  0  0  0  0  0  0  0  0  0  0  0
   61.7730   33.7230   49.1620 C   0  0  0  0  0  0  0  0  0  0  0  0
   60.6170   34.2050   48.5390 C   0  0  0  0  0  0  0  0  0  0  0  0
   58.0520   33.5860   44.0290 N   0  0  0  0  0  0  0  0  0  0  0  0
   57.7720   32.6120   43.1750 N   0  0  0  0  0  0  0  0  0  0  0  0
   56.0450   29.1630   45.2400 N   0  0  0  0  0  0  0  0  0  0  0  0
   56.7920   27.9780   45.5510 C   0  0  0  0  0  0  0  0  0  0  0  0
   58.1900   28.0610   45.5830 C   0  0  0  0  0  0  0  0  0  0  0  0
   58.9600   26.9390   45.9010 C   0  0  0  0  0  0  0  0  0  0  0  0
   58.3370   25.7280   46.2090 C   0  0  0  0  0  0  0  0  0  0  0  0
   56.9420   25.6420   46.2150 C   0  0  0  0  0  0  0  0  0  0  0  0
   56.1650   26.7650   45.9060 C   0  0  0  0  0  0  0  0  0  0  0  0
   54.7810   26.6710   45.9950 O   0  0  0  0  0  0  0  0  0  0  0  0
   57.8651   29.5109   43.2155 H   0  0  0  0  0  0  0  0  0  0  0  0
   56.7711   30.4680   42.1550 H   0  0  0  0  0  0  0  0  0  0  0  0
   57.4563   31.0061   45.9616 H   0  0  0  0  0  0  0  0  0  0  0  0
   57.2110   34.3908   46.7355 H   0  0  0  0  0  0  0  0  0  0  0  0
   58.3415   33.1098   47.3467 H   0  0  0  0  0  0  0  0  0  0  0  0
   59.5413   35.0029   45.4022 H   0  0  0  0  0  0  0  0  0  0  0  0
   59.0154   35.7332   46.9786 H   0  0  0  0  0  0  0  0  0  0  0  0
   61.6001   33.9027   45.2731 H   0  0  0  0  0  0  0  0  0  0  0  0
   63.6614   33.0540   46.3945 H   0  0  0  0  0  0  0  0  0  0  0  0
   63.7729   32.9345   48.8852 H   0  0  0  0  0  0  0  0  0  0  0  0
   61.8230   33.6683   50.2595 H   0  0  0  0  0  0  0  0  0  0  0  0
   59.7628   34.5356   49.1481 H   0  0  0  0  0  0  0  0  0  0  0  0
   58.6854   29.0166   45.3561 H   0  0  0  0  0  0  0  0  0  0  0  0
   60.0577   27.0099   45.9087 H   0  0  0  0  0  0  0  0  0  0  0  0
   58.9439   24.8419   46.4468 H   0  0  0  0  0  0  0  0  0  0  0  0
   56.4528   24.6886   46.4634 H   0  0  0  0  0  0  0  0  0  0  0  0
  1  2  2  0
  2  3  1  0
  3  4  1  0
  4  5  1  0
  5  6  2  0
  6  7  1  0
  7  8  1  0
  8  9  1  0
  9 10  2  0
 10 11  1  0
 11 12  2  0
 12 13  1  0
 13 14  2  0
  6 15  1  0
 15 16  2  0
  2 17  1  0
 17 18  1  0
 18 19  2  0
 19 20  1  0
 20 21  2  0
 21 22  1  0
 22 23  2  0
 23 24  1  0
 16  4  1  0
 23 18  1  0
 14  9  1  0
  3 25  1  0
  3 26  1  0
  5 27  1  0
  7 28  1  0
  7 29  1  0
  8 30  1  0
  8 31  1  0
 10 32  1  0
 11 33  1  0
 12 34  1  0
 13 35  1  0
 14 36  1  0
 19 37  1  0
 20 38  1  0
 21 39  1  0
 22 40  1  0
M  CHG  2  17  -1  24  -1
M  END
>  <UniqueID>  (91) 
81

>  <SMILES>  (91) 
O=C(Cn1cc(CCc2ccccc2)nn1)[N-]c1ccccc1[O-]

>  <Energy>  (91) 
74.08090170410914

>  <Genealogy>  (91) 
O=C(Cn1cc(CCc2ccccc2)nn1)[N-]c1ccccc1[O-] (protonated)
O=C(Cn1cc(CCc2ccccc2)nn1)[N-]c1ccccc1[O-] (3D coordinates assigned)
O=C(Cn1cc(CCc2ccccc2)nn1)[N-]c1ccccc1[O-] (optimized conformer: 74.08090170410914 kcal/mol)

>  <smiles>  (91) 
O=C(Cn1cc(CCc2ccccc2)nn1)Nc1ccccc1O

>  <score_type>  (91) 
oracle

>  <origin>  (91) 
adg

>  <m_score__min__energy>  (91) 
-15.17

>  <m_primary>  (91) 
energy

$$$$
91:0
     RDKit          3D

 28 29  0  0  0  0  0  0  0  0999 V2000
   56.9970   29.0620   43.2090 O   0  0  0  0  0  0  0  0  0  0  0  0
   56.3850   29.5440   44.2000 C   0  0  0  0  0  0  0  0  0  0  0  0
   56.2580   31.0270   44.3420 C   0  0  0  0  0  0  0  0  0  0  0  0
   57.6520   31.8790   43.5250 S   0  0  0  0  0  0  0  0  0  0  0  0
   58.1180   32.8310   44.9700 C   0  0  0  0  0  0  0  0  0  0  0  0
   58.7800   34.0090   44.8250 N   0  0  0  0  0  0  0  0  0  0  0  0
   59.1260   34.7520   45.9070 C   0  0  0  0  0  0  0  0  0  0  0  0
   59.7380   35.8410   45.7500 O   0  0  0  0  0  0  0  0  0  0  0  0
   58.8020   34.3060   47.1900 C   0  0  0  0  0  0  0  0  0  0  0  0
   58.1260   33.0890   47.3210 C   0  0  0  0  0  0  0  0  0  0  0  0
   57.7790   32.5990   48.5770 O   0  0  0  0  0  0  0  0  0  0  0  0
   57.8000   32.3770   46.2100 N   0  0  0  0  0  0  0  0  0  0  0  0
   55.8980   28.6940   45.2440 N   0  0  0  0  0  0  0  0  0  0  0  0
   56.5320   27.4960   45.7130 C   0  0  0  0  0  0  0  0  0  0  0  0
   57.9220   27.5020   45.8900 C   0  0  0  0  0  0  0  0  0  0  0  0
   58.5830   26.3560   46.3440 C   0  0  0  0  0  0  0  0  0  0  0  0
   60.3270   26.3680   46.5360 Cl  0  0  0  0  0  0  0  0  0  0  0  0
   57.8540   25.2020   46.6430 C   0  0  0  0  0  0  0  0  0  0  0  0
   56.4640   25.1980   46.5050 C   0  0  0  0  0  0  0  0  0  0  0  0
   55.7960   26.3430   46.0560 C   0  0  0  0  0  0  0  0  0  0  0  0
   54.4070   26.3340   45.9890 O   0  0  0  0  0  0  0  0  0  0  0  0
   55.3148   31.3540   43.8799 H   0  0  0  0  0  0  0  0  0  0  0  0
   56.2684   31.2807   45.4123 H   0  0  0  0  0  0  0  0  0  0  0  0
   59.0722   34.8981   48.0768 H   0  0  0  0  0  0  0  0  0  0  0  0
   56.8670   32.7770   48.9800 H   0  0  0  0  0  0  0  0  0  0  0  0
   58.4970   28.4137   45.6705 H   0  0  0  0  0  0  0  0  0  0  0  0
   58.3749   24.2964   46.9872 H   0  0  0  0  0  0  0  0  0  0  0  0
   55.8919   24.2910   46.7503 H   0  0  0  0  0  0  0  0  0  0  0  0
  1  2  2  0
  2  3  1  0
  3  4  1  0
  4  5  1  0
  5  6  2  0
  6  7  1  0
  7  8  2  0
  7  9  1  0
  9 10  2  0
 10 11  1  0
 10 12  1  0
  2 13  1  0
 13 14  1  0
 14 15  2  0
 15 16  1  0
 16 17  1  0
 16 18  2  0
 18 19  1  0
 19 20  2  0
 20 21  1  0
 12  5  1  0
 20 14  1  0
  3 22  1  0
  3 23  1  0
  9 24  1  0
 11 25  1  0
 15 26  1  0
 18 27  1  0
 19 28  1  0
M  CHG  3  12  -1  13  -1  21  -1
M  END
>  <UniqueID>  (92) 
82

>  <SMILES>  (92) 
O=C(CSc1nc(=O)cc(O)[n-]1)[N-]c1cc(Cl)ccc1[O-]

>  <Energy>  (92) 
28.918145937942793

>  <Genealogy>  (92) 
O=C(CSc1nc(=O)cc(O)[n-]1)[N-]c1cc(Cl)ccc1[O-] (protonated)
O=C(CSc1nc(=O)cc(O)[n-]1)[N-]c1cc(Cl)ccc1[O-] (3D coordinates assigned)
O=C(CSc1nc(=O)cc(O)[n-]1)[N-]c1cc(Cl)ccc1[O-] (optimized conformer: 28.918145937942793 kcal/mol)

>  <smiles>  (92) 
O=C(CSc1nc(=O)cc(O)[nH]1)Nc1cc(Cl)ccc1O

>  <score_type>  (92) 
oracle

>  <origin>  (92) 
adg

>  <m_score__min__energy>  (92) 
-14.029999999999999

>  <m_primary>  (92) 
energy

$$$$
92:0
     RDKit          3D

 39 41  0  0  0  0  0  0  0  0999 V2000
   59.4090   33.7470   48.4160 C   0  0  0  0  0  0  0  0  0  0  0  0
   58.8130   33.5500   47.0520 C   0  0  0  0  0  0  0  0  0  0  0  0
   58.8680   34.5720   46.0960 C   0  0  0  0  0  0  0  0  0  0  0  0
   58.2720   34.3780   44.8490 C   0  0  0  0  0  0  0  0  0  0  0  0
   57.6340   33.2100   44.5740 N   0  0  0  0  0  0  0  0  0  0  0  0
   57.5500   32.1990   45.4850 C   0  0  0  0  0  0  0  0  0  0  0  0
   56.9240   31.0900   45.2120 N   0  0  0  0  0  0  0  0  0  0  0  0
   57.4060   29.9980   44.4090 C   0  0  0  0  0  0  0  0  0  0  0  0
   57.1650   29.9550   43.1700 O   0  0  0  0  0  0  0  0  0  0  0  0
   58.2210   28.9320   45.0390 C   0  0  0  0  0  0  0  0  0  0  0  0
   57.7440   27.6080   45.0540 C   0  0  0  0  0  0  0  0  0  0  0  0
   58.4820   26.5790   45.6550 C   0  0  0  0  0  0  0  0  0  0  0  0
   57.9100   25.2590   45.6900 N   0  0  0  0  0  0  0  0  0  0  0  0
   57.2460   24.6850   44.7310 C   0  0  0  0  0  0  0  0  0  0  0  0
   55.8020   24.3710   44.8860 C   0  0  0  0  0  0  0  0  0  0  0  0
   54.9400   25.2130   45.6280 C   0  0  0  0  0  0  0  0  0  0  0  0
   55.3990   26.3380   46.3200 O   0  0  0  0  0  0  0  0  0  0  0  0
   53.6160   24.9220   45.7020 N   0  0  0  0  0  0  0  0  0  0  0  0
   53.0930   23.8290   45.0940 C   0  0  0  0  0  0  0  0  0  0  0  0
   51.8620   23.5870   45.1870 O   0  0  0  0  0  0  0  0  0  0  0  0
   53.8960   22.9970   44.3890 N   0  0  0  0  0  0  0  0  0  0  0  0
   55.2260   23.2370   44.2670 C   0  0  0  0  0  0  0  0  0  0  0  0
   55.9260   22.4450   43.5800 O   0  0  0  0  0  0  0  0  0  0  0  0
   59.7190   26.8830   46.2540 C   0  0  0  0  0  0  0  0  0  0  0  0
   60.2060   28.1910   46.2350 C   0  0  0  0  0  0  0  0  0  0  0  0
   59.4690   29.2140   45.6320 C   0  0  0  0  0  0  0  0  0  0  0  0
   59.9950   30.5030   45.6210 O   0  0  0  0  0  0  0  0  0  0  0  0
   58.1390   32.3600   46.7460 C   0  0  0  0  0  0  0  0  0  0  0  0
   58.6600   33.4994   49.1826 H   0  0  0  0  0  0  0  0  0  0  0  0
   60.2837   33.0902   48.5323 H   0  0  0  0  0  0  0  0  0  0  0  0
   59.7199   34.7957   48.5323 H   0  0  0  0  0  0  0  0  0  0  0  0
   59.3767   35.5198   46.3261 H   0  0  0  0  0  0  0  0  0  0  0  0
   58.3187   35.1711   44.0882 H   0  0  0  0  0  0  0  0  0  0  0  0
   56.7757   27.3768   44.5862 H   0  0  0  0  0  0  0  0  0  0  0  0
   57.7598   24.4285   43.7928 H   0  0  0  0  0  0  0  0  0  0  0  0
   56.3450   26.4450   46.6550 H   0  0  0  0  0  0  0  0  0  0  0  0
   60.3038   26.0873   46.7386 H   0  0  0  0  0  0  0  0  0  0  0  0
   61.1774   28.4184   46.6982 H   0  0  0  0  0  0  0  0  0  0  0  0
   58.0727   31.5553   47.4931 H   0  0  0  0  0  0  0  0  0  0  0  0
  1  2  1  0
  2  3  1  0
  3  4  2  0
  4  5  1  0
  5  6  1  0
  6  7  2  3
  7  8  1  0
  8  9  2  0
  8 10  1  0
 10 11  2  0
 11 12  1  0
 12 13  1  0
 13 14  2  3
 14 15  1  0
 15 16  2  0
 16 17  1  0
 16 18  1  0
 18 19  1  0
 19 20  2  0
 19 21  1  0
 21 22  1  0
 22 23  2  0
 12 24  2  0
 24 25  1  0
 25 26  2  0
 26 27  1  0
  6 28  1  0
 28  2  2  0
 26 10  1  0
 22 15  1  0
  1 29  1  0
  1 30  1  0
  1 31  1  0
  3 32  1  0
  4 33  1  0
 11 34  1  0
 14 35  1  0
 17 36  1  0
 24 37  1  0
 25 38  1  0
 28 39  1  0
M  CHG  4   5  -1  18  -1  21  -1  27  -1
M  END
>  <UniqueID>  (93) 
83

>  <SMILES>  (93) 
Cc1cc[n-]c(=NC(=O)c2cc(N=Cc3c(O)[n-]c(=O)[n-]c3=O)ccc2[O-])c1

>  <Energy>  (93) 
56.90532868005452

>  <Genealogy>  (93) 
Cc1cc[n-]c(=NC(=O)c2cc(N=Cc3c(O)[n-]c(=O)[n-]c3=O)ccc2[O-])c1 (protonated)
Cc1cc[n-]c(=NC(=O)c2cc(N=Cc3c(O)[n-]c(=O)[n-]c3=O)ccc2[O-])c1 (3D coordinates assigned)
Cc1cc[n-]c(=NC(=O)c2cc(N=Cc3c(O)[n-]c(=O)[n-]c3=O)ccc2[O-])c1 (optimized conformer: 56.90532868005452 kcal/mol)

>  <smiles>  (93) 
Cc1cc[nH]c(=NC(=O)c2cc(N=Cc3c(O)[nH]c(=O)[nH]c3=O)ccc2O)c1

>  <score_type>  (93) 
oracle

>  <origin>  (93) 
adg

>  <m_score__min__energy>  (93) 
-14.33

>  <m_primary>  (93) 
energy

$$$$
93:0
     RDKit          3D

 61 64  0  0  0  0  0  0  0  0999 V2000
   52.1991   24.0861   45.8926 H   0  0  0  0  0  0  0  0  0  0  0  0
   52.7720   23.8070   44.9960 C   0  0  0  0  0  0  0  0  0  0  0  0
   52.2460   23.5616   44.0616 H   0  0  0  0  0  0  0  0  0  0  0  0
   54.1090   23.7660   45.0420 C   0  0  0  0  0  0  0  0  0  0  0  0
   54.8190   24.3180   46.1590 N   0  0  0  0  0  0  0  0  0  0  0  0
   55.7480   25.2240   46.0950 C   0  0  0  0  0  0  0  0  0  0  0  0
   55.5070   26.5510   45.9990 N   0  0  0  0  0  0  0  0  0  0  0  0
   56.6630   27.2690   46.0280 C   0  0  0  0  0  0  0  0  0  0  0  0
   56.6845   28.3661   45.9508 H   0  0  0  0  0  0  0  0  0  0  0  0
   57.8120   26.5030   46.1630 C   0  0  0  0  0  0  0  0  0  0  0  0
   59.4910   27.1210   46.2560 S   0  0  0  0  0  0  0  0  0  0  0  0
   59.0220   28.7900   45.7640 C   0  0  0  0  0  0  0  0  0  0  0  0
   58.6080   29.0150   44.4440 C   0  0  0  0  0  0  0  0  0  0  0  0
   58.5429   28.1729   43.7393 H   0  0  0  0  0  0  0  0  0  0  0  0
   58.2780   30.3030   44.0200 C   0  0  0  0  0  0  0  0  0  0  0  0
   58.0177   30.4795   42.9659 H   0  0  0  0  0  0  0  0  0  0  0  0
   58.2750   31.3710   44.9220 C   0  0  0  0  0  0  0  0  0  0  0  0
   57.9320   32.6750   44.4370 N   0  0  0  0  0  0  0  0  0  0  0  0
   57.6400   34.0720   45.4240 S   0  0  0  0  0  0  0  0  0  0  0  0
   56.6150   34.9510   44.7570 O   0  0  0  0  0  0  0  0  0  0  0  0
   57.1540   33.6620   46.7890 O   0  0  0  0  0  0  0  0  0  0  0  0
   59.1830   34.9510   45.5820 C   0  0  0  0  0  0  0  0  0  0  0  0
   59.7420   34.8687   44.6382 H   0  0  0  0  0  0  0  0  0  0  0  0
   58.9642   36.0046   45.8099 H   0  0  0  0  0  0  0  0  0  0  0  0
   60.0150   34.3830   46.6970 C   0  0  0  0  0  0  0  0  0  0  0  0
   59.6480   34.5990   48.0380 C   0  0  0  0  0  0  0  0  0  0  0  0
   58.7571   35.2005   48.2715 H   0  0  0  0  0  0  0  0  0  0  0  0
   60.4100   34.0530   49.0750 C   0  0  0  0  0  0  0  0  0  0  0  0
   60.1272   34.2392   50.1216 H   0  0  0  0  0  0  0  0  0  0  0  0
   61.5320   33.2700   48.7830 C   0  0  0  0  0  0  0  0  0  0  0  0
   62.1275   32.8355   49.5994 H   0  0  0  0  0  0  0  0  0  0  0  0
   61.8960   33.0400   47.4520 C   0  0  0  0  0  0  0  0  0  0  0  0
   62.7742   32.4186   47.2228 H   0  0  0  0  0  0  0  0  0  0  0  0
   61.1450   33.5990   46.4110 C   0  0  0  0  0  0  0  0  0  0  0  0
   61.4407   33.4238   45.3661 H   0  0  0  0  0  0  0  0  0  0  0  0
   58.6310   31.1400   46.2610 C   0  0  0  0  0  0  0  0  0  0  0  0
   58.5983   31.9675   46.9850 H   0  0  0  0  0  0  0  0  0  0  0  0
   59.0280   29.8620   46.6820 C   0  0  0  0  0  0  0  0  0  0  0  0
   59.4520   29.6720   48.0760 C   0  0  0  0  0  0  0  0  0  0  0  0
   60.3750   28.8560   48.3400 O   0  0  0  0  0  0  0  0  0  0  0  0
   58.8300   30.4220   49.1280 N   0  0  0  0  0  0  0  0  0  0  0  0
   58.0900   31.1200   48.8850 H   0  0  0  0  0  0  0  0  0  0  0  0
   59.1710   30.2350   50.5370 C   0  0  0  0  0  0  0  0  0  0  0  0
   58.5527   29.4260   50.9533 H   0  0  0  0  0  0  0  0  0  0  0  0
   60.2381   29.9781   50.6101 H   0  0  0  0  0  0  0  0  0  0  0  0
   58.9240   31.4980   51.3200 C   0  0  0  0  0  0  0  0  0  0  0  0
   57.6130   31.9410   51.5680 C   0  0  0  0  0  0  0  0  0  0  0  0
   56.7580   31.3720   51.1741 H   0  0  0  0  0  0  0  0  0  0  0  0
   57.3930   33.1030   52.3140 C   0  0  0  0  0  0  0  0  0  0  0  0
   56.3655   33.4463   52.5050 H   0  0  0  0  0  0  0  0  0  0  0  0
   58.4770   33.8300   52.8180 C   0  0  0  0  0  0  0  0  0  0  0  0
   58.3014   34.7432   53.4055 H   0  0  0  0  0  0  0  0  0  0  0  0
   59.7820   33.3960   52.5750 C   0  0  0  0  0  0  0  0  0  0  0  0
   60.6338   33.9623   52.9796 H   0  0  0  0  0  0  0  0  0  0  0  0
   60.0070   32.2410   51.8170 C   0  0  0  0  0  0  0  0  0  0  0  0
   61.0366   31.9139   51.6097 H   0  0  0  0  0  0  0  0  0  0  0  0
   57.3840   24.8780   46.2300 S   0  0  0  0  0  0  0  0  0  0  0  0
   54.8920   23.3870   43.8250 C   0  0  0  0  0  0  0  0  0  0  0  0
   55.8433   22.9265   44.1298 H   0  0  0  0  0  0  0  0  0  0  0  0
   54.3129   22.6695   43.2252 H   0  0  0  0  0  0  0  0  0  0  0  0
   55.0955   24.2863   43.2252 H   0  0  0  0  0  0  0  0  0  0  0  0
  1  2  1  0
  2  3  1  0
  2  4  2  0
  4  5  1  0
  5  6  2  0
  6  7  1  0
  7  8  1  0
  8  9  1  0
  8 10  2  0
 10 11  1  0
 11 12  1  0
 12 13  2  0
 13 14  1  0
 13 15  1  0
 15 16  1  0
 15 17  2  0
 17 18  1  0
 18 19  1  0
 19 20  2  0
 19 21  2  0
 19 22  1  0
 22 23  1  0
 22 24  1  0
 22 25  1  0
 25 26  2  0
 26 27  1  0
 26 28  1  0
 28 29  1  0
 28 30  2  0
 30 31  1  0
 30 32  1  0
 32 33  1  0
 32 34  2  0
 34 35  1  0
 17 36  1  0
 36 37  1  0
 36 38  2  0
 38 39  1  0
 39 40  2  0
 39 41  1  0
 41 42  1  0
 41 43  1  0
 43 44  1  0
 43 45  1  0
 43 46  1  0
 46 47  2  0
 47 48  1  0
 47 49  1  0
 49 50  1  0
 49 51  2  0
 51 52  1  0
 51 53  1  0
 53 54  1  0
 53 55  2  0
 55 56  1  0
 10 57  1  0
  4 58  1  0
 58 59  1  0
 58 60  1  0
 58 61  1  0
 57  6  1  0
 38 12  1  0
 55 46  1  0
 34 25  1  0
M  CHG  2   7  -1  18  -1
M  END
>  <UniqueID>  (94) 
84

>  <SMILES>  (94) 
C=C(C)/N=c1\[n-]cc(Sc2ccc([N-]S(=O)(=O)Cc3ccccc3)cc2C(=O)NCc2ccccc2)s1

>  <Energy>  (94) 
100.34801074871288

>  <Genealogy>  (94) 
C=C(C)N=c1[n-]cc(Sc2ccc([N-]S(=O)(=O)Cc3ccccc3)cc2C(=O)NCc2ccccc2)s1 (protonated)
C=C(C)/N=c1\[n-]cc(Sc2ccc([N-]S(=O)(=O)Cc3ccccc3)cc2C(=O)NCc2ccccc2)s1 (cis-trans isomerization)
C=C(C)/N=c1\[n-]cc(Sc2ccc([N-]S(=O)(=O)Cc3ccccc3)cc2C(=O)NCc2ccccc2)s1 (3D coordinates assigned)
C=C(C)/N=c1\[n-]cc(Sc2ccc([N-]S(=O)(=O)Cc3ccccc3)cc2C(=O)NCc2ccccc2)s1 (optimized conformer: 100.34801074871288 kcal/mol)

>  <smiles>  (94) 
C=C(C)N=c1[nH]cc(Sc2ccc(NS(=O)(=O)Cc3ccccc3)cc2C(=O)NCc2ccccc2)s1

>  <score_type>  (94) 
oracle

>  <origin>  (94) 
adg

>  <m_score__min__energy>  (94) 
-12.75

>  <m_primary>  (94) 
energy

$$$$
94:0
     RDKit          3D

 61 64  0  0  0  0  0  0  0  0999 V2000
   56.7210   29.6530   44.1010 C   0  0  0  0  0  0  0  0  0  0  0  0
   57.4890   30.7460   44.7980 C   0  0  0  0  0  0  0  0  0  0  0  0
   57.3170   32.0740   44.3700 C   0  0  0  0  0  0  0  0  0  0  0  0
   58.0180   33.1160   44.9800 C   0  0  0  0  0  0  0  0  0  0  0  0
   58.8940   32.8490   46.0360 C   0  0  0  0  0  0  0  0  0  0  0  0
   59.8060   34.1570   46.7850 S   0  0  0  0  0  0  0  0  0  0  0  0
   59.7410   35.3720   45.9030 O   0  0  0  0  0  0  0  0  0  0  0  0
   59.1980   34.5070   48.1140 O   0  0  0  0  0  0  0  0  0  0  0  0
   61.4660   33.7180   47.0120 N   0  0  0  0  0  0  0  0  0  0  0  0
   62.0340   33.5090   48.3100 C   0  0  0  0  0  0  0  0  0  0  0  0
   62.3270   34.6070   49.1310 C   0  0  0  0  0  0  0  0  0  0  0  0
   62.8850   34.4160   50.3920 C   0  0  0  0  0  0  0  0  0  0  0  0
   63.1430   33.1270   50.8550 C   0  0  0  0  0  0  0  0  0  0  0  0
   62.8280   32.0120   50.0660 C   0  0  0  0  0  0  0  0  0  0  0  0
   63.0950   30.6720   50.6220 C   0  0  0  0  0  0  0  0  0  0  0  0
   64.2940   30.3510   50.8610 O   0  0  0  0  0  0  0  0  0  0  0  0
   62.0220   29.7480   50.9080 N   0  0  0  0  0  0  0  0  0  0  0  0
   60.6240   30.2000   50.8100 C   0  0  0  0  0  0  0  0  0  0  0  0
   59.6560   29.0140   50.7630 C   0  0  0  0  0  0  0  0  0  0  0  0
   59.9500   28.0830   51.7820 O   0  0  0  0  0  0  0  0  0  0  0  0
   61.2020   27.4890   51.5180 C   0  0  0  0  0  0  0  0  0  0  0  0
   62.3310   28.5150   51.6490 C   0  0  0  0  0  0  0  0  0  0  0  0
   62.2550   32.1960   48.7820 C   0  0  0  0  0  0  0  0  0  0  0  0
   61.9090   31.0280   47.8890 C   0  0  0  0  0  0  0  0  0  0  0  0
   59.0780   31.5300   46.4690 C   0  0  0  0  0  0  0  0  0  0  0  0
   58.4020   30.4680   45.8460 C   0  0  0  0  0  0  0  0  0  0  0  0
   58.7310   28.8160   46.3900 S   0  0  0  0  0  0  0  0  0  0  0  0
   59.9600   28.3060   45.6940 O   0  0  0  0  0  0  0  0  0  0  0  0
   59.0070   28.8050   47.8670 O   0  0  0  0  0  0  0  0  0  0  0  0
   57.3250   27.8340   46.0930 N   0  0  0  0  0  0  0  0  0  0  0  0
   57.1940   26.4060   45.9680 C   0  0  0  0  0  0  0  0  0  0  0  0
   58.2970   25.5310   45.8980 C   0  0  0  0  0  0  0  0  0  0  0  0
   58.0980   24.1530   45.7670 C   0  0  0  0  0  0  0  0  0  0  0  0
   56.8050   23.6330   45.7110 C   0  0  0  0  0  0  0  0  0  0  0  0
   55.7050   24.4890   45.7890 C   0  0  0  0  0  0  0  0  0  0  0  0
   55.8980   25.8680   45.9180 C   0  0  0  0  0  0  0  0  0  0  0  0
   54.7900   26.7070   45.9950 O   0  0  0  0  0  0  0  0  0  0  0  0
   56.2583   28.9945   44.8508 H   0  0  0  0  0  0  0  0  0  0  0  0
   55.9371   30.0996   43.4717 H   0  0  0  0  0  0  0  0  0  0  0  0
   57.4069   29.0669   43.4717 H   0  0  0  0  0  0  0  0  0  0  0  0
   56.6227   32.2945   43.5457 H   0  0  0  0  0  0  0  0  0  0  0  0
   57.8806   34.1493   44.6288 H   0  0  0  0  0  0  0  0  0  0  0  0
   62.1145   35.6264   48.7764 H   0  0  0  0  0  0  0  0  0  0  0  0
   63.1228   35.2842   51.0242 H   0  0  0  0  0  0  0  0  0  0  0  0
   63.5970   32.9836   51.8466 H   0  0  0  0  0  0  0  0  0  0  0  0
   60.3864   30.8215   51.6859 H   0  0  0  0  0  0  0  0  0  0  0  0
   60.5107   30.7768   49.8802 H   0  0  0  0  0  0  0  0  0  0  0  0
   58.6283   29.3824   50.8974 H   0  0  0  0  0  0  0  0  0  0  0  0
   59.7606   28.5135   49.7890 H   0  0  0  0  0  0  0  0  0  0  0  0
   61.3720   26.6727   52.2354 H   0  0  0  0  0  0  0  0  0  0  0  0
   61.1972   27.1006   50.4888 H   0  0  0  0  0  0  0  0  0  0  0  0
   62.4698   28.7612   52.7121 H   0  0  0  0  0  0  0  0  0  0  0  0
   63.2481   28.0775   51.2277 H   0  0  0  0  0  0  0  0  0  0  0  0
   61.6509   30.1566   48.5086 H   0  0  0  0  0  0  0  0  0  0  0  0
   61.0509   31.2935   47.2540 H   0  0  0  0  0  0  0  0  0  0  0  0
   62.7732   30.7833   47.2540 H   0  0  0  0  0  0  0  0  0  0  0  0
   59.7600   31.3232   47.3069 H   0  0  0  0  0  0  0  0  0  0  0  0
   59.3193   25.9341   45.9467 H   0  0  0  0  0  0  0  0  0  0  0  0
   58.9639   23.4771   45.7079 H   0  0  0  0  0  0  0  0  0  0  0  0
   56.6521   22.5488   45.6054 H   0  0  0  0  0  0  0  0  0  0  0  0
   54.6853   24.0783   45.7490 H   0  0  0  0  0  0  0  0  0  0  0  0
  1  2  1  0
  2  3  2  0
  3  4  1  0
  4  5  2  0
  5  6  1  0
  6  7  2  0
  6  8  2  0
  6  9  1  0
  9 10  1  0
 10 11  2  0
 11 12  1  0
 12 13  2  0
 13 14  1  0
 14 15  1  0
 15 16  2  0
 15 17  1  0
 17 18  1  0
 18 19  1  0
 19 20  1  0
 20 21  1  0
 21 22  1  0
 14 23  2  0
 23 24  1  0
  5 25  1  0
 25 26  2  0
 26 27  1  0
 27 28  2  0
 27 29  2  0
 27 30  1  0
 30 31  1  0
 31 32  2  0
 32 33  1  0
 33 34  2  0
 34 35  1  0
 35 36  2  0
 36 37  1  0
 26  2  1  0
 36 31  1  0
 23 10  1  0
 22 17  1  0
  1 38  1  0
  1 39  1  0
  1 40  1  0
  3 41  1  0
  4 42  1  0
 11 43  1  0
 12 44  1  0
 13 45  1  0
 18 46  1  0
 18 47  1  0
 19 48  1  0
 19 49  1  0
 21 50  1  0
 21 51  1  0
 22 52  1  0
 22 53  1  0
 24 54  1  0
 24 55  1  0
 24 56  1  0
 25 57  1  0
 32 58  1  0
 33 59  1  0
 34 60  1  0
 35 61  1  0
M  CHG  3   9  -1  30  -1  37  -1
M  END
>  <UniqueID>  (95) 
85

>  <SMILES>  (95) 
Cc1ccc(S(=O)(=O)[N-]c2cccc(C(=O)N3CCOCC3)c2C)cc1S(=O)(=O)[N-]c1ccccc1[O-]

>  <Energy>  (95) 
93.29613966949643

>  <Genealogy>  (95) 
Cc1ccc(S(=O)(=O)[N-]c2cccc(C(=O)N3CCOCC3)c2C)cc1S(=O)(=O)[N-]c1ccccc1[O-] (protonated)
Cc1ccc(S(=O)(=O)[N-]c2cccc(C(=O)N3CCOCC3)c2C)cc1S(=O)(=O)[N-]c1ccccc1[O-] (3D coordinates assigned)
Cc1ccc(S(=O)(=O)[N-]c2cccc(C(=O)N3CCOCC3)c2C)cc1S(=O)(=O)[N-]c1ccccc1[O-] (nonaromatic ring conformer: 93.29613966949643 kcal/mol)

>  <smiles>  (95) 
Cc1ccc(S(=O)(=O)Nc2cccc(C(=O)N3CCOCC3)c2C)cc1S(=O)(=O)Nc1ccccc1O

>  <score_type>  (95) 
oracle

>  <origin>  (95) 
adg

>  <m_score__min__energy>  (95) 
-17.609999999999999

>  <m_primary>  (95) 
energy

$$$$
95:0
     RDKit          3D

 51 54  0  0  0  0  0  0  0  0999 V2000
   58.5120   25.6620   46.9040 O   0  0  0  0  0  0  0  0  0  0  0  0
   57.8630   26.3150   46.0450 C   0  0  0  0  0  0  0  0  0  0  0  0
   57.3520   25.5890   44.8280 C   0  0  0  0  0  0  0  0  0  0  0  0
   56.0910   24.8420   45.1300 C   0  0  0  0  0  0  0  0  0  0  0  0
   55.8340   23.2090   44.8070 S   0  0  0  0  0  0  0  0  0  0  0  0
   54.2370   23.2730   45.3300 C   0  0  0  0  0  0  0  0  0  0  0  0
   53.4530   22.2900   45.3330 O   0  0  0  0  0  0  0  0  0  0  0  0
   53.8770   24.5020   45.7530 N   0  0  0  0  0  0  0  0  0  0  0  0
   54.9100   25.3780   45.6430 C   0  0  0  0  0  0  0  0  0  0  0  0
   54.7730   26.7120   45.9980 O   0  0  0  0  0  0  0  0  0  0  0  0
   57.5470   27.6880   46.3300 N   0  0  0  0  0  0  0  0  0  0  0  0
   57.4300   28.7750   45.4010 C   0  0  0  0  0  0  0  0  0  0  0  0
   56.2090   29.0680   44.7700 C   0  0  0  0  0  0  0  0  0  0  0  0
   56.1030   30.1640   43.9100 C   0  0  0  0  0  0  0  0  0  0  0  0
   57.2230   30.9520   43.6410 C   0  0  0  0  0  0  0  0  0  0  0  0
   58.4610   30.6160   44.1940 C   0  0  0  0  0  0  0  0  0  0  0  0
   58.5750   29.5210   45.0590 C   0  0  0  0  0  0  0  0  0  0  0  0
   60.2140   29.0170   45.6060 S   0  0  0  0  0  0  0  0  0  0  0  0
   60.0250   29.6290   47.2840 C   0  0  0  0  0  0  0  0  0  0  0  0
   59.3740   28.8300   48.2320 C   0  0  0  0  0  0  0  0  0  0  0  0
   59.2710   29.2570   49.5570 C   0  0  0  0  0  0  0  0  0  0  0  0
   59.8090   30.4860   49.9420 C   0  0  0  0  0  0  0  0  0  0  0  0
   60.4910   31.2810   49.0130 C   0  0  0  0  0  0  0  0  0  0  0  0
   61.0380   32.5330   49.4470 N   0  0  0  0  0  0  0  0  0  0  0  0
   60.3970   33.8010   49.2820 C   0  0  0  0  0  0  0  0  0  0  0  0
   59.6240   34.2460   50.1730 O   0  0  0  0  0  0  0  0  0  0  0  0
   60.6110   34.5830   48.0270 C   0  0  0  0  0  0  0  0  0  0  0  0
   59.5170   34.2830   47.0370 C   0  0  0  0  0  0  0  0  0  0  0  0
   58.4220   33.4830   47.4090 C   0  0  0  0  0  0  0  0  0  0  0  0
   57.3860   33.2390   46.5000 C   0  0  0  0  0  0  0  0  0  0  0  0
   57.4300   33.7980   45.2210 C   0  0  0  0  0  0  0  0  0  0  0  0
   58.5110   34.6070   44.8470 C   0  0  0  0  0  0  0  0  0  0  0  0
   59.5490   34.8540   45.7520 C   0  0  0  0  0  0  0  0  0  0  0  0
   60.5860   30.8570   47.6720 C   0  0  0  0  0  0  0  0  0  0  0  0
   61.2120   31.6610   46.7230 O   0  0  0  0  0  0  0  0  0  0  0  0
   57.1528   26.3210   44.0314 H   0  0  0  0  0  0  0  0  0  0  0  0
   58.1164   24.8651   44.5091 H   0  0  0  0  0  0  0  0  0  0  0  0
   55.3316   28.4307   44.9543 H   0  0  0  0  0  0  0  0  0  0  0  0
   55.1361   30.4060   43.4446 H   0  0  0  0  0  0  0  0  0  0  0  0
   57.1310   31.8369   42.9941 H   0  0  0  0  0  0  0  0  0  0  0  0
   59.3506   31.2146   43.9487 H   0  0  0  0  0  0  0  0  0  0  0  0
   58.9428   27.8636   47.9319 H   0  0  0  0  0  0  0  0  0  0  0  0
   58.7644   28.6232   50.2997 H   0  0  0  0  0  0  0  0  0  0  0  0
   59.6966   30.8316   50.9802 H   0  0  0  0  0  0  0  0  0  0  0  0
   60.6040   35.6575   48.2623 H   0  0  0  0  0  0  0  0  0  0  0  0
   61.5800   34.3019   47.5887 H   0  0  0  0  0  0  0  0  0  0  0  0
   58.3795   33.0473   48.4182 H   0  0  0  0  0  0  0  0  0  0  0  0
   56.5357   32.6059   46.7936 H   0  0  0  0  0  0  0  0  0  0  0  0
   56.6160   33.6032   44.5073 H   0  0  0  0  0  0  0  0  0  0  0  0
   58.5437   35.0487   43.8401 H   0  0  0  0  0  0  0  0  0  0  0  0
   60.3922   35.4963   45.4579 H   0  0  0  0  0  0  0  0  0  0  0  0
  1  2  2  0
  2  3  1  0
  3  4  1  0
  4  5  1  0
  5  6  1  0
  6  7  2  0
  6  8  1  0
  8  9  1  0
  9 10  1  0
  2 11  1  0
 11 12  1  0
 12 13  2  0
 13 14  1  0
 14 15  2  0
 15 16  1  0
 16 17  2  0
 17 18  1  0
 18 19  1  0
 19 20  2  0
 20 21  1  0
 21 22  2  0
 22 23  1  0
 23 24  1  0
 24 25  1  0
 25 26  2  0
 25 27  1  0
 27 28  1  0
 28 29  2  0
 29 30  1  0
 30 31  2  0
 31 32  1  0
 32 33  2  0
 23 34  2  0
 34 35  1  0
  9  4  2  0
 17 12  1  0
 34 19  1  0
 33 28  1  0
  3 36  1  0
  3 37  1  0
 13 38  1  0
 14 39  1  0
 15 40  1  0
 16 41  1  0
 20 42  1  0
 21 43  1  0
 22 44  1  0
 27 45  1  0
 27 46  1  0
 29 47  1  0
 30 48  1  0
 31 49  1  0
 32 50  1  0
 33 51  1  0
M  CHG  5   8  -1  10  -1  11  -1  24  -1  35  -1
M  END
>  <UniqueID>  (96) 
86

>  <SMILES>  (96) 
O=C(Cc1sc(=O)[n-]c1[O-])[N-]c1ccccc1Sc1cccc([N-]C(=O)Cc2ccccc2)c1[O-]

>  <Energy>  (96) 
88.08344860619162

>  <Genealogy>  (96) 
O=C(Cc1sc(=O)[n-]c1[O-])[N-]c1ccccc1Sc1cccc([N-]C(=O)Cc2ccccc2)c1[O-] (protonated)
O=C(Cc1sc(=O)[n-]c1[O-])[N-]c1ccccc1Sc1cccc([N-]C(=O)Cc2ccccc2)c1[O-] (3D coordinates assigned)
O=C(Cc1sc(=O)[n-]c1[O-])[N-]c1ccccc1Sc1cccc([N-]C(=O)Cc2ccccc2)c1[O-] (optimized conformer: 88.08344860619162 kcal/mol)

>  <smiles>  (96) 
O=C(Cc1sc(=O)[nH]c1O)Nc1ccccc1Sc1cccc(NC(=O)Cc2ccccc2)c1O

>  <score_type>  (96) 
oracle

>  <origin>  (96) 
adg

>  <m_score__min__energy>  (96) 
-19.390000000000001

>  <m_primary>  (96) 
energy

$$$$
