0:0
     RDKit          3D

 48 50  0  0  0  0  0  0  0  0999 V2000
   55.3900   26.3780   46.0080 N   0  0  0  0  0  0  0  0  0  0  0  0
   56.7160   26.0800   46.4360 C   0  0  0  0  0  0  0  0  0  0  0  0
   56.8760   25.2240   47.3490 O   0  0  0  0  0  0  0  0  0  0  0  0
   57.9010   26.7640   45.8410 C   0  0  0  0  0  0  0  0  0  0  0  0
   57.8110   27.2420   44.5180 C   0  0  0  0  0  0  0  0  0  0  0  0
   58.8860   27.8960   43.9160 C   0  0  0  0  0  0  0  0  0  0  0  0
   60.0680   28.0980   44.6250 C   0  0  0  0  0  0  0  0  0  0  0  0
   60.1830   27.6320   45.9340 C   0  0  0  0  0  0  0  0  0  0  0  0
   59.1200   26.9420   46.5490 C   0  0  0  0  0  0  0  0  0  0  0  0
   59.2430   26.4860   47.9050 N   0  0  0  0  0  0  0  0  0  0  0  0
   60.0110   27.0960   48.9520 C   0  0  0  0  0  0  0  0  0  0  0  0
   60.6110   26.3780   49.7980 O   0  0  0  0  0  0  0  0  0  0  0  0
   60.0330   28.5710   49.0850 C   0  0  0  0  0  0  0  0  0  0  0  0
   58.9430   29.2520   49.6550 C   0  0  0  0  0  0  0  0  0  0  0  0
   58.9320   30.6490   49.7150 C   0  0  0  0  0  0  0  0  0  0  0  0
   60.0090   31.3890   49.2030 C   0  0  0  0  0  0  0  0  0  0  0  0
   59.9590   32.8940   49.1780 C   0  0  0  0  0  0  0  0  0  0  0  0
   60.8010   33.4320   48.1050 N   0  0  0  0  0  0  0  0  0  0  0  0
   59.8430   34.1300   46.8270 S   0  0  0  0  0  0  0  0  0  0  0  0
   58.9110   35.1650   47.3950 O   0  0  0  0  0  0  0  0  0  0  0  0
   60.7560   34.7990   45.8400 O   0  0  0  0  0  0  0  0  0  0  0  0
   58.9300   32.8740   45.9890 C   0  0  0  0  0  0  0  0  0  0  0  0
   58.5740   31.7080   46.6730 C   0  0  0  0  0  0  0  0  0  0  0  0
   57.7800   30.7410   46.0540 C   0  0  0  0  0  0  0  0  0  0  0  0
   57.3280   30.9190   44.7320 C   0  0  0  0  0  0  0  0  0  0  0  0
   56.4610   29.8880   44.1070 C   0  0  0  0  0  0  0  0  0  0  0  0
   55.6340   29.2420   44.8040 O   0  0  0  0  0  0  0  0  0  0  0  0
   56.5430   29.6130   42.7470 O   0  0  0  0  0  0  0  0  0  0  0  0
   57.7120   32.0880   44.0350 C   0  0  0  0  0  0  0  0  0  0  0  0
   57.2990   32.3040   42.7200 O   0  0  0  0  0  0  0  0  0  0  0  0
   58.5120   33.0520   44.6660 C   0  0  0  0  0  0  0  0  0  0  0  0
   61.1210   30.7110   48.6830 C   0  0  0  0  0  0  0  0  0  0  0  0
   61.1310   29.3150   48.6170 C   0  0  0  0  0  0  0  0  0  0  0  0
   55.2060   27.0860   45.2610 H   0  0  0  0  0  0  0  0  0  0  0  0
   56.8791   27.0971   43.9518 H   0  0  0  0  0  0  0  0  0  0  0  0
   58.8002   28.2530   42.8791 H   0  0  0  0  0  0  0  0  0  0  0  0
   60.9101   28.6248   44.1524 H   0  0  0  0  0  0  0  0  0  0  0  0
   61.1145   27.8051   46.4929 H   0  0  0  0  0  0  0  0  0  0  0  0
   58.0926   28.6816   50.0567 H   0  0  0  0  0  0  0  0  0  0  0  0
   58.0748   31.1706   50.1658 H   0  0  0  0  0  0  0  0  0  0  0  0
   58.9200   33.2164   49.0153 H   0  0  0  0  0  0  0  0  0  0  0  0
   60.3348   33.2722   50.1401 H   0  0  0  0  0  0  0  0  0  0  0  0
   58.9215   31.5516   47.7049 H   0  0  0  0  0  0  0  0  0  0  0  0
   57.5042   29.8297   46.6049 H   0  0  0  0  0  0  0  0  0  0  0  0
   56.9580   31.5460   42.1390 H   0  0  0  0  0  0  0  0  0  0  0  0
   58.8132   33.9556   44.1158 H   0  0  0  0  0  0  0  0  0  0  0  0
   61.9907   31.2814   48.3249 H   0  0  0  0  0  0  0  0  0  0  0  0
   62.0038   28.7944   48.1960 H   0  0  0  0  0  0  0  0  0  0  0  0
  1  2  1  0
  2  3  2  0
  2  4  1  0
  4  5  2  0
  5  6  1  0
  6  7  2  0
  7  8  1  0
  8  9  2  0
  9 10  1  0
 10 11  1  0
 11 12  2  0
 11 13  1  0
 13 14  2  0
 14 15  1  0
 15 16  2  0
 16 17  1  0
 17 18  1  0
 18 19  1  0
 19 20  2  0
 19 21  2  0
 19 22  1  0
 22 23  2  0
 23 24  1  0
 24 25  2  0
 25 26  1  0
 26 27  2  0
 26 28  1  0
 25 29  1  0
 29 30  1  0
 29 31  2  0
 16 32  1  0
 32 33  2  0
  9  4  1  0
 33 13  1  0
 31 22  1  0
  1 34  1  0
  5 35  1  0
  6 36  1  0
  7 37  1  0
  8 38  1  0
 14 39  1  0
 15 40  1  0
 17 41  1  0
 17 42  1  0
 23 43  1  0
 24 44  1  0
 30 45  1  0
 31 46  1  0
 32 47  1  0
 33 48  1  0
M  CHG  4   1  -1  10  -1  18  -1  28  -1
M  END
>  <UniqueID>  (1) 
1

>  <SMILES>  (1) 
[NH-]C(=O)c1ccccc1[N-]C(=O)c1ccc(C[N-]S(=O)(=O)c2ccc(C(=O)[O-])c(O)c2)cc1

>  <Energy>  (1) 
53.74311429293965

>  <Genealogy>  (1) 
[NH-]C(=O)c1ccccc1[N-]C(=O)c1ccc(C[N-]S(=O)(=O)c2ccc(C(=O)[O-])c(O)c2)cc1 (protonated)
[NH-]C(=O)c1ccccc1[N-]C(=O)c1ccc(C[N-]S(=O)(=O)c2ccc(C(=O)[O-])c(O)c2)cc1 (3D coordinates assigned)
[NH-]C(=O)c1ccccc1[N-]C(=O)c1ccc(C[N-]S(=O)(=O)c2ccc(C(=O)[O-])c(O)c2)cc1 (optimized conformer: 53.74311429293965 kcal/mol)

>  <smiles>  (1) 
NC(=O)c1ccccc1NC(=O)c1ccc(CNS(=O)(=O)c2ccc(C(=O)O)c(O)c2)cc1

>  <score_type>  (1) 
oracle

>  <origin>  (1) 
adg

>  <m_score__min__energy>  (1) 
-16.41

>  <m_primary>  (1) 
energy

$$$$
1:0
     RDKit          3D

 42 44  0  0  0  0  0  0  0  0999 V2000
   55.2060   29.3720   44.9690 O   0  0  0  0  0  0  0  0  0  0  0  0
   56.4300   29.6590   44.9020 C   0  0  0  0  0  0  0  0  0  0  0  0
   57.4260   28.8070   45.6440 C   0  0  0  0  0  0  0  0  0  0  0  0
   58.8650   29.1640   45.2590 C   0  0  0  0  0  0  0  0  0  0  0  0
   59.6330   29.5940   46.4260 N   0  0  0  0  0  0  0  0  0  0  0  0
   59.3480   29.3510   47.7140 C   0  0  0  0  0  0  0  0  0  0  0  0
   60.3590   29.8960   48.4750 C   0  0  0  0  0  0  0  0  0  0  0  0
   61.2750   30.4710   47.6700 N   0  0  0  0  0  0  0  0  0  0  0  0
   60.8000   30.2650   46.4240 C   0  0  0  0  0  0  0  0  0  0  0  0
   56.8260   30.8530   44.2130 N   0  0  0  0  0  0  0  0  0  0  0  0
   57.4510   31.9960   44.8110 C   0  0  0  0  0  0  0  0  0  0  0  0
   57.8120   33.0750   44.0000 C   0  0  0  0  0  0  0  0  0  0  0  0
   58.4340   34.1940   44.5560 C   0  0  0  0  0  0  0  0  0  0  0  0
   58.7210   34.2460   45.9250 C   0  0  0  0  0  0  0  0  0  0  0  0
   59.2680   35.4280   46.4310 O   0  0  0  0  0  0  0  0  0  0  0  0
   58.4210   33.1310   46.7470 C   0  0  0  0  0  0  0  0  0  0  0  0
   58.7850   33.0710   48.1800 C   0  0  0  0  0  0  0  0  0  0  0  0
   58.1420   32.3290   48.9690 O   0  0  0  0  0  0  0  0  0  0  0  0
   59.8740   33.8700   48.6600 N   0  0  0  0  0  0  0  0  0  0  0  0
   61.2650   33.7130   48.3500 C   0  0  0  0  0  0  0  0  0  0  0  0
   61.7330   33.7120   47.0230 C   0  0  0  0  0  0  0  0  0  0  0  0
   63.0900   33.5260   46.7540 C   0  0  0  0  0  0  0  0  0  0  0  0
   63.9910   33.3300   47.8010 C   0  0  0  0  0  0  0  0  0  0  0  0
   63.5350   33.3120   49.1200 C   0  0  0  0  0  0  0  0  0  0  0  0
   62.1770   33.4940   49.3970 C   0  0  0  0  0  0  0  0  0  0  0  0
   61.6320   33.4440   51.0670 Cl  0  0  0  0  0  0  0  0  0  0  0  0
   57.7790   32.0170   46.1750 C   0  0  0  0  0  0  0  0  0  0  0  0
   57.2956   28.9636   46.7250 H   0  0  0  0  0  0  0  0  0  0  0  0
   57.2476   27.7549   45.3772 H   0  0  0  0  0  0  0  0  0  0  0  0
   59.3481   28.2800   44.8173 H   0  0  0  0  0  0  0  0  0  0  0  0
   58.8369   29.9924   44.5359 H   0  0  0  0  0  0  0  0  0  0  0  0
   58.4665   28.8138   48.0940 H   0  0  0  0  0  0  0  0  0  0  0  0
   60.4110   29.8665   49.5734 H   0  0  0  0  0  0  0  0  0  0  0  0
   61.3086   30.6066   45.5104 H   0  0  0  0  0  0  0  0  0  0  0  0
   57.6054   33.0425   42.9201 H   0  0  0  0  0  0  0  0  0  0  0  0
   58.7015   35.0442   43.9114 H   0  0  0  0  0  0  0  0  0  0  0  0
   59.4640   35.5770   47.4110 H   0  0  0  0  0  0  0  0  0  0  0  0
   61.0258   33.8586   46.1933 H   0  0  0  0  0  0  0  0  0  0  0  0
   63.4497   33.5340   45.7145 H   0  0  0  0  0  0  0  0  0  0  0  0
   65.0608   33.1897   47.5870 H   0  0  0  0  0  0  0  0  0  0  0  0
   64.2464   33.1541   49.9440 H   0  0  0  0  0  0  0  0  0  0  0  0
   57.5309   31.1508   46.8060 H   0  0  0  0  0  0  0  0  0  0  0  0
  1  2  2  0
  2  3  1  0
  3  4  1  0
  4  5  1  0
  5  6  1  0
  6  7  2  0
  7  8  1  0
  8  9  2  0
  2 10  1  0
 10 11  1  0
 11 12  2  0
 12 13  1  0
 13 14  2  0
 14 15  1  0
 14 16  1  0
 16 17  1  0
 17 18  2  0
 17 19  1  0
 19 20  1  0
 20 21  2  0
 21 22  1  0
 22 23  2  0
 23 24  1  0
 24 25  2  0
 25 26  1  0
 16 27  2  0
  9  5  1  0
 27 11  1  0
 25 20  1  0
  3 28  1  0
  3 29  1  0
  4 30  1  0
  4 31  1  0
  6 32  1  0
  7 33  1  0
  9 34  1  0
 12 35  1  0
 13 36  1  0
 15 37  1  0
 21 38  1  0
 22 39  1  0
 23 40  1  0
 24 41  1  0
 27 42  1  0
M  CHG  2  10  -1  19  -1
M  END
>  <UniqueID>  (2) 
2

>  <SMILES>  (2) 
O=C(CCn1ccnc1)[N-]c1ccc(O)c(C(=O)[N-]c2ccccc2Cl)c1

>  <Energy>  (2) 
84.96232820809348

>  <Genealogy>  (2) 
O=C(CCn1ccnc1)[N-]c1ccc(O)c(C(=O)[N-]c2ccccc2Cl)c1 (protonated)
O=C(CCn1ccnc1)[N-]c1ccc(O)c(C(=O)[N-]c2ccccc2Cl)c1 (3D coordinates assigned)
O=C(CCn1ccnc1)[N-]c1ccc(O)c(C(=O)[N-]c2ccccc2Cl)c1 (optimized conformer: 84.96232820809348 kcal/mol)

>  <smiles>  (2) 
O=C(CCn1ccnc1)Nc1ccc(O)c(C(=O)Nc2ccccc2Cl)c1

>  <score_type>  (2) 
oracle

>  <origin>  (2) 
adg

>  <m_score__min__energy>  (2) 
-11.23

>  <m_primary>  (2) 
energy

$$$$
2:0
     RDKit          3D

 59 62  0  0  0  0  0  0  0  0999 V2000
   52.3330   23.6550   44.4140 C   0  0  0  0  0  0  0  0  0  0  0  0
   53.7330   23.3230   44.6510 N   0  0  0  0  0  0  0  0  0  0  0  0
   54.6390   24.2030   45.3260 C   0  0  0  0  0  0  0  0  0  0  0  0
   54.1840   25.2210   45.9100 O   0  0  0  0  0  0  0  0  0  0  0  0
   56.1030   23.9180   45.3120 C   0  0  0  0  0  0  0  0  0  0  0  0
   56.9930   25.0100   45.3740 C   0  0  0  0  0  0  0  0  0  0  0  0
   58.3770   24.8220   45.3890 C   0  0  0  0  0  0  0  0  0  0  0  0
   59.2050   25.9550   45.4060 O   0  0  0  0  0  0  0  0  0  0  0  0
   59.3040   26.8770   46.4590 C   0  0  0  0  0  0  0  0  0  0  0  0
   60.2410   26.6960   47.4900 C   0  0  0  0  0  0  0  0  0  0  0  0
   60.3020   27.5980   48.5580 C   0  0  0  0  0  0  0  0  0  0  0  0
   59.4260   28.6850   48.6210 C   0  0  0  0  0  0  0  0  0  0  0  0
   59.5000   29.5600   49.7570 N   0  0  0  0  0  0  0  0  0  0  0  0
   60.4620   30.9990   49.8750 S   0  0  0  0  0  0  0  0  0  0  0  0
   60.2410   31.6670   51.2060 O   0  0  0  0  0  0  0  0  0  0  0  0
   61.9130   30.6170   49.7840 O   0  0  0  0  0  0  0  0  0  0  0  0
   60.0710   32.0930   48.5500 C   0  0  0  0  0  0  0  0  0  0  0  0
   61.0170   32.3180   47.5400 C   0  0  0  0  0  0  0  0  0  0  0  0
   60.7260   33.1820   46.4820 C   0  0  0  0  0  0  0  0  0  0  0  0
   59.4720   33.8190   46.4080 C   0  0  0  0  0  0  0  0  0  0  0  0
   59.1620   34.7990   45.3030 C   0  0  0  0  0  0  0  0  0  0  0  0
   59.6160   36.0570   45.6420 F   0  0  0  0  0  0  0  0  0  0  0  0
   59.7870   34.3920   44.1410 F   0  0  0  0  0  0  0  0  0  0  0  0
   57.8010   34.8770   45.0730 F   0  0  0  0  0  0  0  0  0  0  0  0
   58.5320   33.6020   47.4330 C   0  0  0  0  0  0  0  0  0  0  0  0
   58.8290   32.7430   48.4950 C   0  0  0  0  0  0  0  0  0  0  0  0
   58.4910   28.8710   47.5900 C   0  0  0  0  0  0  0  0  0  0  0  0
   58.4190   27.9710   46.5150 C   0  0  0  0  0  0  0  0  0  0  0  0
   57.1710   28.2170   45.2910 S   0  0  0  0  0  0  0  0  0  0  0  0
   55.9270   27.4490   45.6310 O   0  0  0  0  0  0  0  0  0  0  0  0
   57.6860   27.7410   43.9620 O   0  0  0  0  0  0  0  0  0  0  0  0
   56.8130   29.9110   45.2080 N   0  0  0  0  0  0  0  0  0  0  0  0
   57.0890   30.6500   44.1850 C   0  0  0  0  0  0  0  0  0  0  0  0
   56.5420   30.4730   42.9640 N   0  0  0  0  0  0  0  0  0  0  0  0
   57.0180   31.3870   42.0800 C   0  0  0  0  0  0  0  0  0  0  0  0
   57.9460   32.2870   42.5970 C   0  0  0  0  0  0  0  0  0  0  0  0
   58.1710   31.9340   44.2230 S   0  0  0  0  0  0  0  0  0  0  0  0
   58.8940   23.5200   45.3300 C   0  0  0  0  0  0  0  0  0  0  0  0
   58.0350   22.4240   45.2660 C   0  0  0  0  0  0  0  0  0  0  0  0
   56.6420   22.6010   45.2350 C   0  0  0  0  0  0  0  0  0  0  0  0
   55.7720   21.3740   45.1120 C   0  0  0  0  0  0  0  0  0  0  0  0
   51.8170   23.7774   45.3777 H   0  0  0  0  0  0  0  0  0  0  0  0
   52.2702   24.5929   43.8428 H   0  0  0  0  0  0  0  0  0  0  0  0
   51.8557   22.8451   43.8428 H   0  0  0  0  0  0  0  0  0  0  0  0
   56.5885   26.0322   45.4114 H   0  0  0  0  0  0  0  0  0  0  0  0
   60.9310   25.8399   47.4575 H   0  0  0  0  0  0  0  0  0  0  0  0
   61.0458   27.4502   49.3548 H   0  0  0  0  0  0  0  0  0  0  0  0
   61.9927   31.8118   47.5811 H   0  0  0  0  0  0  0  0  0  0  0  0
   61.4800   33.3659   45.7025 H   0  0  0  0  0  0  0  0  0  0  0  0
   57.5577   34.1115   47.3981 H   0  0  0  0  0  0  0  0  0  0  0  0
   58.0869   32.5763   49.2897 H   0  0  0  0  0  0  0  0  0  0  0  0
   57.8071   29.7318   47.6251 H   0  0  0  0  0  0  0  0  0  0  0  0
   56.6933   31.4145   41.0294 H   0  0  0  0  0  0  0  0  0  0  0  0
   58.4457   33.0909   42.0367 H   0  0  0  0  0  0  0  0  0  0  0  0
   59.9827   23.3627   45.3342 H   0  0  0  0  0  0  0  0  0  0  0  0
   58.4536   21.4071   45.2394 H   0  0  0  0  0  0  0  0  0  0  0  0
   55.5117   21.0069   46.1158 H   0  0  0  0  0  0  0  0  0  0  0  0
   54.8524   21.6299   44.5653 H   0  0  0  0  0  0  0  0  0  0  0  0
   56.3177   20.5909   44.5653 H   0  0  0  0  0  0  0  0  0  0  0  0
  1  2  1  0
  2  3  1  0
  3  4  2  0
  3  5  1  0
  5  6  2  0
  6  7  1  0
  7  8  1  0
  8  9  1  0
  9 10  2  0
 10 11  1  0
 11 12  2  0
 12 13  1  0
 13 14  1  0
 14 15  2  0
 14 16  2  0
 14 17  1  0
 17 18  2  0
 18 19  1  0
 19 20  2  0
 20 21  1  0
 21 22  1  0
 21 23  1  0
 21 24  1  0
 20 25  1  0
 25 26  2  0
 12 27  1  0
 27 28  2  0
 28 29  1  0
 29 30  2  0
 29 31  2  0
 29 32  1  0
 32 33  2  3
 33 34  1  0
 34 35  1  0
 35 36  2  0
 36 37  1  0
  7 38  2  0
 38 39  1  0
 39 40  2  0
 40 41  1  0
 40  5  1  0
 28  9  1  0
 37 33  1  0
 26 17  1  0
  1 42  1  0
  1 43  1  0
  1 44  1  0
  6 45  1  0
 10 46  1  0
 11 47  1  0
 18 48  1  0
 19 49  1  0
 25 50  1  0
 26 51  1  0
 27 52  1  0
 35 53  1  0
 36 54  1  0
 38 55  1  0
 39 56  1  0
 41 57  1  0
 41 58  1  0
 41 59  1  0
M  CHG  3   2  -1  13  -1  34  -1
M  END
>  <UniqueID>  (3) 
3

>  <SMILES>  (3) 
C[N-]C(=O)c1cc(Oc2ccc([N-]S(=O)(=O)c3ccc(C(F)(F)F)cc3)cc2S(=O)(=O)N=c2[n-]ccs2)ccc1C

>  <Energy>  (3) 
110.62779279836231

>  <Genealogy>  (3) 
C[N-]C(=O)c1cc(Oc2ccc([N-]S(=O)(=O)c3ccc(C(F)(F)F)cc3)cc2S(=O)(=O)N=c2[n-]ccs2)ccc1C (protonated)
C[N-]C(=O)c1cc(Oc2ccc([N-]S(=O)(=O)c3ccc(C(F)(F)F)cc3)cc2S(=O)(=O)N=c2[n-]ccs2)ccc1C (3D coordinates assigned)
C[N-]C(=O)c1cc(Oc2ccc([N-]S(=O)(=O)c3ccc(C(F)(F)F)cc3)cc2S(=O)(=O)N=c2[n-]ccs2)ccc1C (optimized conformer: 110.62779279836231 kcal/mol)

>  <smiles>  (3) 
CNC(=O)c1cc(Oc2ccc(NS(=O)(=O)c3ccc(C(F)(F)F)cc3)cc2S(=O)(=O)N=c2[nH]ccs2)ccc1C

>  <score_type>  (3) 
oracle

>  <origin>  (3) 
adg

>  <m_score__min__energy>  (3) 
-13.69

>  <m_primary>  (3) 
energy

$$$$
3:0
     RDKit          3D

 51 54  0  0  0  0  0  0  0  0999 V2000
   55.5150   29.0180   44.8620 O   0  0  0  0  0  0  0  0  0  0  0  0
   56.6810   29.2430   45.2810 C   0  0  0  0  0  0  0  0  0  0  0  0
   57.0830   30.5990   45.5070 N   0  0  0  0  0  0  0  0  0  0  0  0
   57.7150   31.4550   44.5090 C   0  0  0  0  0  0  0  0  0  0  0  0
   57.8750   32.8370   45.0680 C   0  0  0  0  0  0  0  0  0  0  0  0
   57.0710   33.7320   44.6860 O   0  0  0  0  0  0  0  0  0  0  0  0
   58.9250   33.1720   46.0050 N   0  0  0  0  0  0  0  0  0  0  0  0
   59.1090   34.5610   46.4620 C   0  0  0  0  0  0  0  0  0  0  0  0
   59.6860   34.6050   47.8760 C   0  0  0  0  0  0  0  0  0  0  0  0
   60.9450   33.7960   47.9420 C   0  0  0  0  0  0  0  0  0  0  0  0
   62.0070   34.1960   48.7690 C   0  0  0  0  0  0  0  0  0  0  0  0
   63.1630   33.4140   48.8550 C   0  0  0  0  0  0  0  0  0  0  0  0
   64.2150   33.8170   49.6690 O   0  0  0  0  0  0  0  0  0  0  0  0
   63.2590   32.2240   48.1280 C   0  0  0  0  0  0  0  0  0  0  0  0
   62.1980   31.8130   47.3160 C   0  0  0  0  0  0  0  0  0  0  0  0
   61.0380   32.5970   47.2120 C   0  0  0  0  0  0  0  0  0  0  0  0
   59.8780   32.1080   46.3770 C   0  0  0  0  0  0  0  0  0  0  0  0
   57.5800   28.1020   45.5450 C   0  0  0  0  0  0  0  0  0  0  0  0
   58.7780   28.2860   46.2490 C   0  0  0  0  0  0  0  0  0  0  0  0
   59.6290   27.2050   46.4800 C   0  0  0  0  0  0  0  0  0  0  0  0
   59.3010   25.9360   45.9990 C   0  0  0  0  0  0  0  0  0  0  0  0
   58.1130   25.7300   45.2700 C   0  0  0  0  0  0  0  0  0  0  0  0
   57.7810   24.4180   44.7580 N   0  0  0  0  0  0  0  0  0  0  0  0
   57.0200   24.1810   43.5340 C   0  0  0  0  0  0  0  0  0  0  0  0
   56.7290   22.6680   43.4120 C   0  0  0  0  0  0  0  0  0  0  0  0
   57.8090   21.8650   44.1420 C   0  0  0  0  0  0  0  0  0  0  0  0
   58.3830   22.9460   45.4050 S   0  0  0  0  0  0  0  0  0  0  0  0
   57.7540   22.6300   46.7330 O   0  0  0  0  0  0  0  0  0  0  0  0
   59.8830   22.9500   45.4910 O   0  0  0  0  0  0  0  0  0  0  0  0
   57.2630   26.8310   45.0430 C   0  0  0  0  0  0  0  0  0  0  0  0
   58.7031   31.0476   44.2488 H   0  0  0  0  0  0  0  0  0  0  0  0
   57.0865   31.4939   43.6071 H   0  0  0  0  0  0  0  0  0  0  0  0
   59.7985   35.0759   45.7768 H   0  0  0  0  0  0  0  0  0  0  0  0
   58.1277   35.0581   46.4703 H   0  0  0  0  0  0  0  0  0  0  0  0
   59.9087   35.6478   48.1461 H   0  0  0  0  0  0  0  0  0  0  0  0
   58.9508   34.1860   48.5788 H   0  0  0  0  0  0  0  0  0  0  0  0
   61.9294   35.1265   49.3505 H   0  0  0  0  0  0  0  0  0  0  0  0
   64.1698   31.6108   48.1949 H   0  0  0  0  0  0  0  0  0  0  0  0
   62.2724   30.8697   46.7551 H   0  0  0  0  0  0  0  0  0  0  0  0
   60.2778   31.6617   45.4545 H   0  0  0  0  0  0  0  0  0  0  0  0
   59.3250   31.3806   46.9894 H   0  0  0  0  0  0  0  0  0  0  0  0
   59.0479   29.2856   46.6204 H   0  0  0  0  0  0  0  0  0  0  0  0
   60.5621   27.3530   47.0433 H   0  0  0  0  0  0  0  0  0  0  0  0
   59.9763   25.0892   46.1910 H   0  0  0  0  0  0  0  0  0  0  0  0
   56.0720   24.7375   43.5747 H   0  0  0  0  0  0  0  0  0  0  0  0
   57.5990   24.5211   42.6628 H   0  0  0  0  0  0  0  0  0  0  0  0
   55.7480   22.4488   43.8588 H   0  0  0  0  0  0  0  0  0  0  0  0
   56.7269   22.3859   42.3488 H   0  0  0  0  0  0  0  0  0  0  0  0
   57.3843   20.9486   44.5778 H   0  0  0  0  0  0  0  0  0  0  0  0
   58.6168   21.5419   43.4689 H   0  0  0  0  0  0  0  0  0  0  0  0
   56.3381   26.6918   44.4641 H   0  0  0  0  0  0  0  0  0  0  0  0
  1  2  2  0
  2  3  1  0
  3  4  1  0
  4  5  1  0
  5  6  2  0
  5  7  1  0
  7  8  1  0
  8  9  1  0
  9 10  1  0
 10 11  2  0
 11 12  1  0
 12 13  1  0
 12 14  2  0
 14 15  1  0
 15 16  2  0
 16 17  1  0
  2 18  1  0
 18 19  2  0
 19 20  1  0
 20 21  2  0
 21 22  1  0
 22 23  1  0
 23 24  1  0
 24 25  1  0
 25 26  1  0
 26 27  1  0
 27 28  2  0
 27 29  2  0
 22 30  2  0
 17  7  1  0
 30 18  1  0
 16 10  1  0
 27 23  1  0
  4 31  1  0
  4 32  1  0
  8 33  1  0
  8 34  1  0
  9 35  1  0
  9 36  1  0
 11 37  1  0
 14 38  1  0
 15 39  1  0
 17 40  1  0
 17 41  1  0
 19 42  1  0
 20 43  1  0
 21 44  1  0
 24 45  1  0
 24 46  1  0
 25 47  1  0
 25 48  1  0
 26 49  1  0
 26 50  1  0
 30 51  1  0
M  CHG  2   3  -1  13  -1
M  END
>  <UniqueID>  (4) 
4

>  <SMILES>  (4) 
O=C([N-]CC(=O)N1CCc2cc([O-])ccc2C1)c1cccc(N2CCCS2(=O)=O)c1

>  <Energy>  (4) 
66.0829536859366

>  <Genealogy>  (4) 
O=C([N-]CC(=O)N1CCc2cc([O-])ccc2C1)c1cccc(N2CCCS2(=O)=O)c1 (protonated)
O=C([N-]CC(=O)N1CCc2cc([O-])ccc2C1)c1cccc(N2CCCS2(=O)=O)c1 (3D coordinates assigned)
O=C([N-]CC(=O)N1CCc2cc([O-])ccc2C1)c1cccc(N2CCCS2(=O)=O)c1 (nonaromatic ring conformer: 66.0829536859366 kcal/mol)

>  <smiles>  (4) 
O=C(NCC(=O)N1CCc2cc(O)ccc2C1)c1cccc(N2CCCS2(=O)=O)c1

>  <score_type>  (4) 
oracle

>  <origin>  (4) 
adg

>  <m_score__min__energy>  (4) 
-12.890000000000001

>  <m_primary>  (4) 
energy

$$$$
4:0
     RDKit          3D

 44 46  0  0  0  0  0  0  0  0999 V2000
   59.2670   32.4070   49.6000 C   0  0  0  0  0  0  0  0  0  0  0  0
   60.3450   31.5730   49.0700 N   0  0  0  0  0  0  0  0  0  0  0  0
   61.5180   32.1800   48.4940 C   0  0  0  0  0  0  0  0  0  0  0  0
   61.4390   32.8640   47.2680 C   0  0  0  0  0  0  0  0  0  0  0  0
   62.5690   33.4910   46.7340 C   0  0  0  0  0  0  0  0  0  0  0  0
   63.7870   33.4410   47.4140 C   0  0  0  0  0  0  0  0  0  0  0  0
   63.8800   32.7590   48.6310 C   0  0  0  0  0  0  0  0  0  0  0  0
   62.7530   32.1280   49.1670 C   0  0  0  0  0  0  0  0  0  0  0  0
   60.1820   29.8390   49.1240 S   0  0  0  0  0  0  0  0  0  0  0  0
   59.1090   29.4550   50.1060 O   0  0  0  0  0  0  0  0  0  0  0  0
   61.4900   29.2410   49.5600 O   0  0  0  0  0  0  0  0  0  0  0  0
   59.7220   29.2170   47.5390 C   0  0  0  0  0  0  0  0  0  0  0  0
   60.6660   28.5850   46.7200 C   0  0  0  0  0  0  0  0  0  0  0  0
   60.3010   28.1290   45.4520 C   0  0  0  0  0  0  0  0  0  0  0  0
   58.9940   28.3110   44.9890 C   0  0  0  0  0  0  0  0  0  0  0  0
   58.0350   28.9470   45.7980 C   0  0  0  0  0  0  0  0  0  0  0  0
   56.6630   29.1910   45.2940 C   0  0  0  0  0  0  0  0  0  0  0  0
   55.8310   28.2460   45.2500 O   0  0  0  0  0  0  0  0  0  0  0  0
   56.3140   30.4870   44.7860 N   0  0  0  0  0  0  0  0  0  0  0  0
   57.1910   31.6030   44.5720 C   0  0  0  0  0  0  0  0  0  0  0  0
   57.6830   31.9370   43.2970 C   0  0  0  0  0  0  0  0  0  0  0  0
   58.5170   33.0480   43.1360 C   0  0  0  0  0  0  0  0  0  0  0  0
   58.8530   33.8400   44.2350 C   0  0  0  0  0  0  0  0  0  0  0  0
   58.3480   33.5290   45.5030 C   0  0  0  0  0  0  0  0  0  0  0  0
   58.6810   34.3540   46.6350 C   0  0  0  0  0  0  0  0  0  0  0  0
   58.9470   35.0170   47.5450 N   0  0  0  0  0  0  0  0  0  0  0  0
   57.5130   32.4170   45.6670 C   0  0  0  0  0  0  0  0  0  0  0  0
   58.4050   29.3730   47.0850 C   0  0  0  0  0  0  0  0  0  0  0  0
   59.2940   32.3861   50.6995 H   0  0  0  0  0  0  0  0  0  0  0  0
   59.3976   33.4415   49.2496 H   0  0  0  0  0  0  0  0  0  0  0  0
   58.2985   32.0207   49.2496 H   0  0  0  0  0  0  0  0  0  0  0  0
   60.4828   32.9061   46.7259 H   0  0  0  0  0  0  0  0  0  0  0  0
   62.4979   34.0253   45.7751 H   0  0  0  0  0  0  0  0  0  0  0  0
   64.6733   33.9379   46.9926 H   0  0  0  0  0  0  0  0  0  0  0  0
   64.8398   32.7188   49.1669 H   0  0  0  0  0  0  0  0  0  0  0  0
   62.8323   31.5871   50.1215 H   0  0  0  0  0  0  0  0  0  0  0  0
   61.6975   28.4476   47.0766 H   0  0  0  0  0  0  0  0  0  0  0  0
   61.0433   27.6253   44.8155 H   0  0  0  0  0  0  0  0  0  0  0  0
   58.7143   27.9548   43.9865 H   0  0  0  0  0  0  0  0  0  0  0  0
   57.4113   31.3234   42.4254 H   0  0  0  0  0  0  0  0  0  0  0  0
   58.9096   33.2986   42.1395 H   0  0  0  0  0  0  0  0  0  0  0  0
   59.5149   34.7089   44.1047 H   0  0  0  0  0  0  0  0  0  0  0  0
   57.1070   32.1806   46.6616 H   0  0  0  0  0  0  0  0  0  0  0  0
   57.6534   29.8336   47.7430 H   0  0  0  0  0  0  0  0  0  0  0  0
  1  2  1  0
  2  3  1  0
  3  4  2  0
  4  5  1  0
  5  6  2  0
  6  7  1  0
  7  8  2  0
  2  9  1  0
  9 10  2  0
  9 11  2  0
  9 12  1  0
 12 13  2  0
 13 14  1  0
 14 15  2  0
 15 16  1  0
 16 17  1  0
 17 18  2  0
 17 19  1  0
 19 20  1  0
 20 21  2  0
 21 22  1  0
 22 23  2  0
 23 24  1  0
 24 25  1  0
 25 26  3  0
 24 27  2  0
 16 28  2  0
  8  3  1  0
 28 12  1  0
 27 20  1  0
  1 29  1  0
  1 30  1  0
  1 31  1  0
  4 32  1  0
  5 33  1  0
  6 34  1  0
  7 35  1  0
  8 36  1  0
 13 37  1  0
 14 38  1  0
 15 39  1  0
 21 40  1  0
 22 41  1  0
 23 42  1  0
 27 43  1  0
 28 44  1  0
M  CHG  1  19  -1
M  END
>  <UniqueID>  (5) 
5

>  <SMILES>  (5) 
CN(c1ccccc1)S(=O)(=O)c1cccc(C(=O)[N-]c2cccc(C#N)c2)c1

>  <Energy>  (5) 
53.23592298723076

>  <Genealogy>  (5) 
CN(c1ccccc1)S(=O)(=O)c1cccc(C(=O)[N-]c2cccc(C#N)c2)c1 (protonated)
CN(c1ccccc1)S(=O)(=O)c1cccc(C(=O)[N-]c2cccc(C#N)c2)c1 (3D coordinates assigned)
CN(c1ccccc1)S(=O)(=O)c1cccc(C(=O)[N-]c2cccc(C#N)c2)c1 (optimized conformer: 53.23592298723076 kcal/mol)

>  <smiles>  (5) 
CN(c1ccccc1)S(=O)(=O)c1cccc(C(=O)Nc2cccc(C#N)c2)c1

>  <score_type>  (5) 
oracle

>  <origin>  (5) 
adg

>  <m_score__min__energy>  (5) 
-11.32

>  <m_primary>  (5) 
energy

$$$$
5:0
     RDKit          3D

 34 35  0  0  0  0  0  0  0  0999 V2000
   59.6490   30.4360   45.9880 C   0  0  0  0  0  0  0  0  0  0  0  0
   58.6410   31.5560   46.0490 C   0  0  0  0  0  0  0  0  0  0  0  0
   58.9150   32.6160   46.9310 C   0  0  0  0  0  0  0  0  0  0  0  0
   58.1270   33.7630   46.9340 C   0  0  0  0  0  0  0  0  0  0  0  0
   57.0600   33.8560   46.0480 C   0  0  0  0  0  0  0  0  0  0  0  0
   56.7710   32.8160   45.2250 N   0  0  0  0  0  0  0  0  0  0  0  0
   57.4840   31.6560   45.2110 C   0  0  0  0  0  0  0  0  0  0  0  0
   57.0590   30.7190   44.4070 N   0  0  0  0  0  0  0  0  0  0  0  0
   56.4680   29.4470   44.6970 C   0  0  0  0  0  0  0  0  0  0  0  0
   55.2300   29.3550   44.9100 O   0  0  0  0  0  0  0  0  0  0  0  0
   57.2850   28.2080   44.5530 C   0  0  0  0  0  0  0  0  0  0  0  0
   58.0420   27.9840   45.7770 N   0  0  0  0  0  0  0  0  0  0  0  0
   57.8460   26.8420   46.6180 C   0  0  0  0  0  0  0  0  0  0  0  0
   58.2020   26.8980   47.8270 O   0  0  0  0  0  0  0  0  0  0  0  0
   57.2260   25.5980   46.0860 C   0  0  0  0  0  0  0  0  0  0  0  0
   58.0360   24.4670   45.8560 C   0  0  0  0  0  0  0  0  0  0  0  0
   57.4890   23.2820   45.3610 C   0  0  0  0  0  0  0  0  0  0  0  0
   56.1250   23.2030   45.0850 C   0  0  0  0  0  0  0  0  0  0  0  0
   55.3050   24.3100   45.3010 C   0  0  0  0  0  0  0  0  0  0  0  0
   55.8400   25.5080   45.8000 C   0  0  0  0  0  0  0  0  0  0  0  0
   54.9920   26.5960   46.0060 O   0  0  0  0  0  0  0  0  0  0  0  0
   59.9221   30.1325   47.0094 H   0  0  0  0  0  0  0  0  0  0  0  0
   59.2125   29.5784   45.4550 H   0  0  0  0  0  0  0  0  0  0  0  0
   60.5476   30.7801   45.4550 H   0  0  0  0  0  0  0  0  0  0  0  0
   59.7629   32.5377   47.6274 H   0  0  0  0  0  0  0  0  0  0  0  0
   58.3460   34.5866   47.6295 H   0  0  0  0  0  0  0  0  0  0  0  0
   56.4506   34.7712   46.0139 H   0  0  0  0  0  0  0  0  0  0  0  0
   56.6216   27.3500   44.3693 H   0  0  0  0  0  0  0  0  0  0  0  0
   57.9787   28.3210   43.7069 H   0  0  0  0  0  0  0  0  0  0  0  0
   59.1138   24.5192   46.0696 H   0  0  0  0  0  0  0  0  0  0  0  0
   58.1355   22.4089   45.1884 H   0  0  0  0  0  0  0  0  0  0  0  0
   55.6955   22.2676   44.6969 H   0  0  0  0  0  0  0  0  0  0  0  0
   54.2298   24.2439   45.0785 H   0  0  0  0  0  0  0  0  0  0  0  0
   55.1460   27.4870   45.5490 H   0  0  0  0  0  0  0  0  0  0  0  0
  1  2  1  0
  2  3  2  0
  3  4  1  0
  4  5  2  0
  5  6  1  0
  6  7  1  0
  7  8  2  3
  8  9  1  0
  9 10  2  0
  9 11  1  0
 11 12  1  0
 12 13  1  0
 13 14  2  0
 13 15  1  0
 15 16  2  0
 16 17  1  0
 17 18  2  0
 18 19  1  0
 19 20  2  0
 20 21  1  0
  7  2  1  0
 20 15  1  0
  1 22  1  0
  1 23  1  0
  1 24  1  0
  3 25  1  0
  4 26  1  0
  5 27  1  0
 11 28  1  0
 11 29  1  0
 16 30  1  0
 17 31  1  0
 18 32  1  0
 19 33  1  0
 21 34  1  0
M  CHG  2   6  -1  12  -1
M  END
>  <UniqueID>  (6) 
6

>  <SMILES>  (6) 
Cc1ccc[n-]c1=NC(=O)C[N-]C(=O)c1ccccc1O

>  <Energy>  (6) 
50.40246838940795

>  <Genealogy>  (6) 
Cc1ccc[n-]c1=NC(=O)C[N-]C(=O)c1ccccc1O (protonated)
Cc1ccc[n-]c1=NC(=O)C[N-]C(=O)c1ccccc1O (3D coordinates assigned)
Cc1ccc[n-]c1=NC(=O)C[N-]C(=O)c1ccccc1O (optimized conformer: 50.40246838940795 kcal/mol)

>  <smiles>  (6) 
Cc1ccc[nH]c1=NC(=O)CNC(=O)c1ccccc1O

>  <score_type>  (6) 
oracle

>  <origin>  (6) 
adg

>  <m_score__min__energy>  (6) 
-10.93

>  <m_primary>  (6) 
energy

$$$$
6:0
     RDKit          3D

 49 52  0  0  0  0  0  0  0  0999 V2000
   63.2990   31.2930   46.8680 O   0  0  0  0  0  0  0  0  0  0  0  0
   63.0110   32.2120   47.6790 C   0  0  0  0  0  0  0  0  0  0  0  0
   64.0140   32.9260   48.5230 C   0  0  0  0  0  0  0  0  0  0  0  0
   63.1670   33.8740   49.4010 C   0  0  0  0  0  0  0  0  0  0  0  0
   61.7570   33.6230   48.9690 C   0  0  0  0  0  0  0  0  0  0  0  0
   60.6070   34.2090   49.5030 C   0  0  0  0  0  0  0  0  0  0  0  0
   59.3560   33.8210   49.0010 C   0  0  0  0  0  0  0  0  0  0  0  0
   59.2690   32.8650   47.9720 C   0  0  0  0  0  0  0  0  0  0  0  0
   60.4350   32.2990   47.4250 C   0  0  0  0  0  0  0  0  0  0  0  0
   60.3320   31.3390   46.3660 N   0  0  0  0  0  0  0  0  0  0  0  0
   59.0940   30.7310   45.9540 C   0  0  0  0  0  0  0  0  0  0  0  0
   58.1950   31.3940   45.1050 C   0  0  0  0  0  0  0  0  0  0  0  0
   56.9970   30.7870   44.7340 C   0  0  0  0  0  0  0  0  0  0  0  0
   56.6630   29.5120   45.2030 C   0  0  0  0  0  0  0  0  0  0  0  0
   55.4360   28.9790   44.7970 O   0  0  0  0  0  0  0  0  0  0  0  0
   57.5620   28.8250   46.0600 C   0  0  0  0  0  0  0  0  0  0  0  0
   57.2830   27.4520   46.6340 C   0  0  0  0  0  0  0  0  0  0  0  0
   56.6850   26.5630   45.6150 N   0  0  0  0  0  0  0  0  0  0  0  0
   56.0270   25.3810   46.2340 C   0  0  0  0  0  0  0  0  0  0  0  0
   56.8760   24.1060   46.1360 C   0  0  0  0  0  0  0  0  0  0  0  0
   57.1680   23.7440   44.6700 C   0  0  0  0  0  0  0  0  0  0  0  0
   57.2350   24.9830   43.7580 C   0  0  0  0  0  0  0  0  0  0  0  0
   57.6630   26.2220   44.5490 C   0  0  0  0  0  0  0  0  0  0  0  0
   58.7610   29.4570   46.4350 C   0  0  0  0  0  0  0  0  0  0  0  0
   61.6740   32.6870   47.9660 C   0  0  0  0  0  0  0  0  0  0  0  0
   64.5756   32.2149   49.1466 H   0  0  0  0  0  0  0  0  0  0  0  0
   64.7618   33.4647   47.9225 H   0  0  0  0  0  0  0  0  0  0  0  0
   63.2955   33.6354   50.4671 H   0  0  0  0  0  0  0  0  0  0  0  0
   63.4599   34.9277   49.2827 H   0  0  0  0  0  0  0  0  0  0  0  0
   60.6810   34.9609   50.3025 H   0  0  0  0  0  0  0  0  0  0  0  0
   58.4386   34.2661   49.4136 H   0  0  0  0  0  0  0  0  0  0  0  0
   58.2830   32.5583   47.5929 H   0  0  0  0  0  0  0  0  0  0  0  0
   61.2230   30.9690   45.9640 H   0  0  0  0  0  0  0  0  0  0  0  0
   58.4375   32.3993   44.7300 H   0  0  0  0  0  0  0  0  0  0  0  0
   56.3047   31.3173   44.0635 H   0  0  0  0  0  0  0  0  0  0  0  0
   55.1590   28.0170   44.9280 H   0  0  0  0  0  0  0  0  0  0  0  0
   58.2270   27.0110   46.9867 H   0  0  0  0  0  0  0  0  0  0  0  0
   56.5723   27.5582   47.4668 H   0  0  0  0  0  0  0  0  0  0  0  0
   55.8416   25.5986   47.2962 H   0  0  0  0  0  0  0  0  0  0  0  0
   55.0917   25.1981   45.6846 H   0  0  0  0  0  0  0  0  0  0  0  0
   57.8283   24.2676   46.6623 H   0  0  0  0  0  0  0  0  0  0  0  0
   56.3154   23.2780   46.5944 H   0  0  0  0  0  0  0  0  0  0  0  0
   58.1330   23.2183   44.6221 H   0  0  0  0  0  0  0  0  0  0  0  0
   56.3434   23.1100   44.3120 H   0  0  0  0  0  0  0  0  0  0  0  0
   57.9634   24.7996   42.9544 H   0  0  0  0  0  0  0  0  0  0  0  0
   56.2350   25.1635   43.3368 H   0  0  0  0  0  0  0  0  0  0  0  0
   58.6414   26.0277   45.0127 H   0  0  0  0  0  0  0  0  0  0  0  0
   57.7170   27.0706   43.8512 H   0  0  0  0  0  0  0  0  0  0  0  0
   59.4511   28.9416   47.1192 H   0  0  0  0  0  0  0  0  0  0  0  0
  1  2  2  0
  2  3  1  0
  3  4  1  0
  4  5  1  0
  5  6  2  0
  6  7  1  0
  7  8  2  0
  8  9  1  0
  9 10  1  0
 10 11  1  0
 11 12  2  0
 12 13  1  0
 13 14  2  0
 14 15  1  0
 14 16  1  0
 16 17  1  0
 17 18  1  0
 18 19  1  0
 19 20  1  0
 20 21  1  0
 21 22  1  0
 22 23  1  0
 16 24  2  0
  9 25  2  0
 25  2  1  0
 25  5  1  0
 24 11  1  0
 23 18  1  0
  3 26  1  0
  3 27  1  0
  4 28  1  0
  4 29  1  0
  6 30  1  0
  7 31  1  0
  8 32  1  0
 10 33  1  0
 12 34  1  0
 13 35  1  0
 15 36  1  0
 17 37  1  0
 17 38  1  0
 19 39  1  0
 19 40  1  0
 20 41  1  0
 20 42  1  0
 21 43  1  0
 21 44  1  0
 22 45  1  0
 22 46  1  0
 23 47  1  0
 23 48  1  0
 24 49  1  0
M  END
>  <UniqueID>  (7) 
7

>  <SMILES>  (7) 
O=C1CCc2cccc(Nc3ccc(O)c(CN4CCCCC4)c3)c21

>  <Energy>  (7) 
81.8769332133069

>  <Genealogy>  (7) 
O=C1CCc2cccc(Nc3ccc(O)c(CN4CCCCC4)c3)c21 (3D coordinates assigned)
O=C1CCc2cccc(Nc3ccc(O)c(CN4CCCCC4)c3)c21 (nonaromatic ring conformer: 81.8769332133069 kcal/mol)

>  <smiles>  (7) 
O=C1CCc2cccc(Nc3ccc(O)c(CN4CCCCC4)c3)c21

>  <score_type>  (7) 
oracle

>  <origin>  (7) 
adg

>  <m_score__min__energy>  (7) 
-8.6899999999999995

>  <m_primary>  (7) 
energy

$$$$
7:0
     RDKit          3D

 47 49  0  0  0  0  0  0  0  0999 V2000
   51.2800   32.2530   51.2600 N   0  0  0  0  0  0  0  0  0  0  0  0
   51.6180   30.5640   51.3910 S   0  0  0  0  0  0  0  0  0  0  0  0
   51.4500   29.9140   50.0460 O   0  0  0  0  0  0  0  0  0  0  0  0
   50.6520   29.9330   52.3540 O   0  0  0  0  0  0  0  0  0  0  0  0
   53.2680   30.3340   51.9620 C   0  0  0  0  0  0  0  0  0  0  0  0
   53.5580   29.3210   52.8840 C   0  0  0  0  0  0  0  0  0  0  0  0
   54.8660   29.1430   53.3390 C   0  0  0  0  0  0  0  0  0  0  0  0
   55.8900   29.9750   52.8800 C   0  0  0  0  0  0  0  0  0  0  0  0
   55.6140   30.9980   51.9540 C   0  0  0  0  0  0  0  0  0  0  0  0
   56.6440   31.8750   51.4620 N   0  0  0  0  0  0  0  0  0  0  0  0
   58.2350   31.3400   51.0230 S   0  0  0  0  0  0  0  0  0  0  0  0
   58.1640   29.9180   50.5420 O   0  0  0  0  0  0  0  0  0  0  0  0
   59.1300   31.3990   52.2300 O   0  0  0  0  0  0  0  0  0  0  0  0
   58.8940   32.3980   49.7800 C   0  0  0  0  0  0  0  0  0  0  0  0
   59.9850   33.2230   50.0810 C   0  0  0  0  0  0  0  0  0  0  0  0
   60.5080   34.0780   49.1080 C   0  0  0  0  0  0  0  0  0  0  0  0
   59.9450   34.1120   47.8300 C   0  0  0  0  0  0  0  0  0  0  0  0
   58.8570   33.2850   47.5160 C   0  0  0  0  0  0  0  0  0  0  0  0
   58.1510   33.3150   45.9000 S   0  0  0  0  0  0  0  0  0  0  0  0
   56.6600   33.1600   46.0200 O   0  0  0  0  0  0  0  0  0  0  0  0
   58.4220   34.6530   45.2680 O   0  0  0  0  0  0  0  0  0  0  0  0
   58.7820   32.0500   44.8650 N   0  0  0  0  0  0  0  0  0  0  0  0
   58.0490   31.9350   43.5860 C   0  0  0  0  0  0  0  0  0  0  0  0
   57.0720   30.7480   43.5610 C   0  0  0  0  0  0  0  0  0  0  0  0
   56.5830   30.4870   44.8550 O   0  0  0  0  0  0  0  0  0  0  0  0
   57.6190   29.9580   45.6600 C   0  0  0  0  0  0  0  0  0  0  0  0
   58.9370   30.7650   45.5730 C   0  0  0  0  0  0  0  0  0  0  0  0
   58.3300   32.4330   48.4980 C   0  0  0  0  0  0  0  0  0  0  0  0
   54.2940   31.1750   51.5100 C   0  0  0  0  0  0  0  0  0  0  0  0
   50.3090   32.3420   50.8880 H   0  0  0  0  0  0  0  0  0  0  0  0
   52.7547   28.6648   53.2502 H   0  0  0  0  0  0  0  0  0  0  0  0
   55.0910   28.3447   54.0616 H   0  0  0  0  0  0  0  0  0  0  0  0
   56.9177   29.8297   53.2444 H   0  0  0  0  0  0  0  0  0  0  0  0
   56.4060   32.8710   51.2560 H   0  0  0  0  0  0  0  0  0  0  0  0
   60.4312   33.1976   51.0861 H   0  0  0  0  0  0  0  0  0  0  0  0
   61.3642   34.7253   49.3484 H   0  0  0  0  0  0  0  0  0  0  0  0
   60.3565   34.7897   47.0675 H   0  0  0  0  0  0  0  0  0  0  0  0
   57.4794   32.8619   43.4233 H   0  0  0  0  0  0  0  0  0  0  0  0
   58.7928   31.7671   42.7932 H   0  0  0  0  0  0  0  0  0  0  0  0
   56.2287   30.9867   42.8963 H   0  0  0  0  0  0  0  0  0  0  0  0
   57.6026   29.8571   43.1939 H   0  0  0  0  0  0  0  0  0  0  0  0
   57.2804   29.9547   46.7066 H   0  0  0  0  0  0  0  0  0  0  0  0
   57.8333   28.9446   45.2896 H   0  0  0  0  0  0  0  0  0  0  0  0
   59.2913   30.9683   46.5943 H   0  0  0  0  0  0  0  0  0  0  0  0
   59.6557   30.1596   45.0012 H   0  0  0  0  0  0  0  0  0  0  0  0
   57.4701   31.7895   48.2604 H   0  0  0  0  0  0  0  0  0  0  0  0
   54.0625   31.9824   50.7997 H   0  0  0  0  0  0  0  0  0  0  0  0
  1  2  1  0
  2  3  2  0
  2  4  2  0
  2  5  1  0
  5  6  2  0
  6  7  1  0
  7  8  2  0
  8  9  1  0
  9 10  1  0
 10 11  1  0
 11 12  2  0
 11 13  2  0
 11 14  1  0
 14 15  2  0
 15 16  1  0
 16 17  2  0
 17 18  1  0
 18 19  1  0
 19 20  2  0
 19 21  2  0
 19 22  1  0
 22 23  1  0
 23 24  1  0
 24 25  1  0
 25 26  1  0
 26 27  1  0
 18 28  2  0
  9 29  2  0
 29  5  1  0
 28 14  1  0
 27 22  1  0
  1 30  1  0
  6 31  1  0
  7 32  1  0
  8 33  1  0
 10 34  1  0
 15 35  1  0
 16 36  1  0
 17 37  1  0
 23 38  1  0
 23 39  1  0
 24 40  1  0
 24 41  1  0
 26 42  1  0
 26 43  1  0
 27 44  1  0
 27 45  1  0
 28 46  1  0
 29 47  1  0
M  CHG  1   1  -1
M  END
>  <UniqueID>  (8) 
8

>  <SMILES>  (8) 
[NH-]S(=O)(=O)c1cccc(NS(=O)(=O)c2cccc(S(=O)(=O)N3CCOCC3)c2)c1

>  <Energy>  (8) 
60.878542026942775

>  <Genealogy>  (8) 
[NH-]S(=O)(=O)c1cccc(NS(=O)(=O)c2cccc(S(=O)(=O)N3CCOCC3)c2)c1 (protonated)
[NH-]S(=O)(=O)c1cccc(NS(=O)(=O)c2cccc(S(=O)(=O)N3CCOCC3)c2)c1 (3D coordinates assigned)
[NH-]S(=O)(=O)c1cccc(NS(=O)(=O)c2cccc(S(=O)(=O)N3CCOCC3)c2)c1 (nonaromatic ring conformer: 60.878542026942775 kcal/mol)

>  <smiles>  (8) 
NS(=O)(=O)c1cccc(NS(=O)(=O)c2cccc(S(=O)(=O)N3CCOCC3)c2)c1

>  <score_type>  (8) 
oracle

>  <origin>  (8) 
adg

>  <m_score__min__energy>  (8) 
-14.17

>  <m_primary>  (8) 
energy

$$$$
8:0
     RDKit          3D

 45 47  0  0  0  0  0  0  0  0999 V2000
   63.3350   33.8460   46.4300 C   0  0  0  0  0  0  0  0  0  0  0  0
   62.9070   32.6600   47.2430 C   0  0  0  0  0  0  0  0  0  0  0  0
   63.6030   31.6090   47.1790 O   0  0  0  0  0  0  0  0  0  0  0  0
   61.6940   32.6920   48.1050 C   0  0  0  0  0  0  0  0  0  0  0  0
   61.3590   33.8670   48.8030 C   0  0  0  0  0  0  0  0  0  0  0  0
   60.2170   33.9140   49.6060 C   0  0  0  0  0  0  0  0  0  0  0  0
   59.3960   32.7920   49.7290 C   0  0  0  0  0  0  0  0  0  0  0  0
   59.7220   31.6020   49.0580 C   0  0  0  0  0  0  0  0  0  0  0  0
   58.8850   30.4370   49.1310 N   0  0  0  0  0  0  0  0  0  0  0  0
   59.1790   29.1420   48.5920 C   0  0  0  0  0  0  0  0  0  0  0  0
   59.6290   28.2400   49.3500 O   0  0  0  0  0  0  0  0  0  0  0  0
   59.0080   28.8660   47.1390 C   0  0  0  0  0  0  0  0  0  0  0  0
   57.9700   29.5050   46.4300 C   0  0  0  0  0  0  0  0  0  0  0  0
   57.7860   29.2780   45.0610 C   0  0  0  0  0  0  0  0  0  0  0  0
   56.4810   30.0970   44.2090 S   0  0  0  0  0  0  0  0  0  0  0  0
   55.1900   29.3330   44.3360 O   0  0  0  0  0  0  0  0  0  0  0  0
   56.8440   30.2030   42.7560 O   0  0  0  0  0  0  0  0  0  0  0  0
   56.2650   31.6900   44.8580 N   0  0  0  0  0  0  0  0  0  0  0  0
   57.3230   32.6040   45.1860 C   0  0  0  0  0  0  0  0  0  0  0  0
   57.4740   33.1220   46.4880 C   0  0  0  0  0  0  0  0  0  0  0  0
   58.5070   34.0160   46.7770 C   0  0  0  0  0  0  0  0  0  0  0  0
   59.4010   34.4020   45.7770 C   0  0  0  0  0  0  0  0  0  0  0  0
   59.2580   33.8990   44.4820 C   0  0  0  0  0  0  0  0  0  0  0  0
   58.2250   33.0030   44.1800 C   0  0  0  0  0  0  0  0  0  0  0  0
   58.1160   32.5240   42.8740 O   0  0  0  0  0  0  0  0  0  0  0  0
   58.6420   28.4070   44.3820 C   0  0  0  0  0  0  0  0  0  0  0  0
   59.6720   27.7630   45.0660 C   0  0  0  0  0  0  0  0  0  0  0  0
   59.8650   27.9870   46.4350 C   0  0  0  0  0  0  0  0  0  0  0  0
   60.9170   27.3360   47.0700 O   0  0  0  0  0  0  0  0  0  0  0  0
   60.8590   31.5640   48.2390 C   0  0  0  0  0  0  0  0  0  0  0  0
   63.6304   34.6645   47.1029 H   0  0  0  0  0  0  0  0  0  0  0  0
   64.1890   33.5667   45.7955 H   0  0  0  0  0  0  0  0  0  0  0  0
   62.4994   34.1764   45.7955 H   0  0  0  0  0  0  0  0  0  0  0  0
   62.0015   34.7556   48.7156 H   0  0  0  0  0  0  0  0  0  0  0  0
   59.9636   34.8395   50.1438 H   0  0  0  0  0  0  0  0  0  0  0  0
   58.4914   32.8399   50.3530 H   0  0  0  0  0  0  0  0  0  0  0  0
   57.2947   30.1922   46.9607 H   0  0  0  0  0  0  0  0  0  0  0  0
   56.7740   32.8203   47.2811 H   0  0  0  0  0  0  0  0  0  0  0  0
   58.6165   34.4171   47.7954 H   0  0  0  0  0  0  0  0  0  0  0  0
   60.2175   35.1018   46.0087 H   0  0  0  0  0  0  0  0  0  0  0  0
   59.9610   34.2085   43.6946 H   0  0  0  0  0  0  0  0  0  0  0  0
   57.4520   31.8060   42.6140 H   0  0  0  0  0  0  0  0  0  0  0  0
   58.5029   28.2291   43.3054 H   0  0  0  0  0  0  0  0  0  0  0  0
   60.3382   27.0737   44.5264 H   0  0  0  0  0  0  0  0  0  0  0  0
   61.1032   30.6408   47.6930 H   0  0  0  0  0  0  0  0  0  0  0  0
  1  2  1  0
  2  3  2  0
  2  4  1  0
  4  5  2  0
  5  6  1  0
  6  7  2  0
  7  8  1  0
  8  9  1  0
  9 10  1  0
 10 11  2  0
 10 12  1  0
 12 13  2  0
 13 14  1  0
 14 15  1  0
 15 16  2  0
 15 17  2  0
 15 18  1  0
 18 19  1  0
 19 20  2  0
 20 21  1  0
 21 22  2  0
 22 23  1  0
 23 24  2  0
 24 25  1  0
 14 26  2  0
 26 27  1  0
 27 28  2  0
 28 29  1  0
  8 30  2  0
 30  4  1  0
 28 12  1  0
 24 19  1  0
  1 31  1  0
  1 32  1  0
  1 33  1  0
  5 34  1  0
  6 35  1  0
  7 36  1  0
 13 37  1  0
 20 38  1  0
 21 39  1  0
 22 40  1  0
 23 41  1  0
 25 42  1  0
 26 43  1  0
 27 44  1  0
 30 45  1  0
M  CHG  3   9  -1  18  -1  29  -1
M  END
>  <UniqueID>  (9) 
9

>  <SMILES>  (9) 
CC(=O)c1cccc([N-]C(=O)c2cc(S(=O)(=O)[N-]c3ccccc3O)ccc2[O-])c1

>  <Energy>  (9) 
58.15825657109097

>  <Genealogy>  (9) 
CC(=O)c1cccc([N-]C(=O)c2cc(S(=O)(=O)[N-]c3ccccc3O)ccc2[O-])c1 (protonated)
CC(=O)c1cccc([N-]C(=O)c2cc(S(=O)(=O)[N-]c3ccccc3O)ccc2[O-])c1 (3D coordinates assigned)
CC(=O)c1cccc([N-]C(=O)c2cc(S(=O)(=O)[N-]c3ccccc3O)ccc2[O-])c1 (optimized conformer: 58.15825657109097 kcal/mol)

>  <smiles>  (9) 
CC(=O)c1cccc(NC(=O)c2cc(S(=O)(=O)Nc3ccccc3O)ccc2O)c1

>  <score_type>  (9) 
oracle

>  <origin>  (9) 
adg

>  <m_score__min__energy>  (9) 
-13.470000000000001

>  <m_primary>  (9) 
energy

$$$$
9:0
     RDKit          3D

 53 55  0  0  0  0  0  0  0  0999 V2000
   56.2880   30.0370   42.9710 C   0  0  0  0  0  0  0  0  0  0  0  0
   57.1500   30.0040   44.2080 C   0  0  0  0  0  0  0  0  0  0  0  0
   57.2340   28.8080   44.9410 C   0  0  0  0  0  0  0  0  0  0  0  0
   58.0390   28.7280   46.0770 C   0  0  0  0  0  0  0  0  0  0  0  0
   58.7660   29.8370   46.4990 C   0  0  0  0  0  0  0  0  0  0  0  0
   58.6790   31.0520   45.8050 C   0  0  0  0  0  0  0  0  0  0  0  0
   59.4500   32.1700   46.2610 N   0  0  0  0  0  0  0  0  0  0  0  0
   58.7560   33.3490   47.3250 S   0  0  0  0  0  0  0  0  0  0  0  0
   59.4030   34.6840   47.0760 O   0  0  0  0  0  0  0  0  0  0  0  0
   57.2840   33.4680   47.0420 O   0  0  0  0  0  0  0  0  0  0  0  0
   59.0070   32.8910   49.0080 C   0  0  0  0  0  0  0  0  0  0  0  0
   59.5100   33.8230   49.9240 C   0  0  0  0  0  0  0  0  0  0  0  0
   59.7630   33.4410   51.2440 C   0  0  0  0  0  0  0  0  0  0  0  0
   59.5180   32.1270   51.6540 C   0  0  0  0  0  0  0  0  0  0  0  0
   59.0140   31.1780   50.7460 C   0  0  0  0  0  0  0  0  0  0  0  0
   58.7570   29.7840   51.1790 C   0  0  0  0  0  0  0  0  0  0  0  0
   59.7060   28.9550   51.2360 O   0  0  0  0  0  0  0  0  0  0  0  0
   57.4320   29.3760   51.5410 N   0  0  0  0  0  0  0  0  0  0  0  0
   56.9100   29.4340   52.9020 C   0  0  0  0  0  0  0  0  0  0  0  0
   55.5240   30.0180   52.9030 C   0  0  0  0  0  0  0  0  0  0  0  0
   55.1040   30.8690   51.8670 C   0  0  0  0  0  0  0  0  0  0  0  0
   53.8020   31.3800   51.8590 C   0  0  0  0  0  0  0  0  0  0  0  0
   52.9070   31.0490   52.8860 C   0  0  0  0  0  0  0  0  0  0  0  0
   51.2620   31.6740   52.8430 S   0  0  0  0  0  0  0  0  0  0  0  0
   51.0720   32.6930   51.4600 N   0  0  0  0  0  0  0  0  0  0  0  0
   50.2760   30.5410   52.7570 O   0  0  0  0  0  0  0  0  0  0  0  0
   50.9900   32.4600   54.0950 O   0  0  0  0  0  0  0  0  0  0  0  0
   53.3230   30.2000   53.9220 C   0  0  0  0  0  0  0  0  0  0  0  0
   54.6240   29.6900   53.9290 C   0  0  0  0  0  0  0  0  0  0  0  0
   58.7590   31.5740   49.4200 C   0  0  0  0  0  0  0  0  0  0  0  0
   57.8550   31.1530   44.6560 C   0  0  0  0  0  0  0  0  0  0  0  0
   57.7780   32.4570   43.8940 C   0  0  0  0  0  0  0  0  0  0  0  0
   55.2284   30.0776   43.2635 H   0  0  0  0  0  0  0  0  0  0  0  0
   56.5378   30.9262   42.3736 H   0  0  0  0  0  0  0  0  0  0  0  0
   56.4691   29.1313   42.3736 H   0  0  0  0  0  0  0  0  0  0  0  0
   56.6601   27.9276   44.6161 H   0  0  0  0  0  0  0  0  0  0  0  0
   58.0995   27.7856   46.6411 H   0  0  0  0  0  0  0  0  0  0  0  0
   59.4142   29.7597   47.3843 H   0  0  0  0  0  0  0  0  0  0  0  0
   60.2990   32.4500   45.7200 H   0  0  0  0  0  0  0  0  0  0  0  0
   59.7062   34.8570   49.6041 H   0  0  0  0  0  0  0  0  0  0  0  0
   60.1558   34.1757   51.9622 H   0  0  0  0  0  0  0  0  0  0  0  0
   59.7209   31.8330   52.6944 H   0  0  0  0  0  0  0  0  0  0  0  0
   56.8763   28.4178   53.3217 H   0  0  0  0  0  0  0  0  0  0  0  0
   57.5679   30.0708   53.5116 H   0  0  0  0  0  0  0  0  0  0  0  0
   55.8018   31.1344   51.0591 H   0  0  0  0  0  0  0  0  0  0  0  0
   53.4791   32.0441   51.0437 H   0  0  0  0  0  0  0  0  0  0  0  0
   50.2850   32.3010   50.8950 H   0  0  0  0  0  0  0  0  0  0  0  0
   52.6246   29.9354   54.7296 H   0  0  0  0  0  0  0  0  0  0  0  0
   54.9454   29.0262   54.7451 H   0  0  0  0  0  0  0  0  0  0  0  0
   58.3614   30.8435   48.7000 H   0  0  0  0  0  0  0  0  0  0  0  0
   57.7285   33.2948   44.6051 H   0  0  0  0  0  0  0  0  0  0  0  0
   58.6713   32.5653   43.2613 H   0  0  0  0  0  0  0  0  0  0  0  0
   56.8781   32.4594   43.2613 H   0  0  0  0  0  0  0  0  0  0  0  0
  1  2  1  0
  2  3  2  0
  3  4  1  0
  4  5  2  0
  5  6  1  0
  6  7  1  0
  7  8  1  0
  8  9  2  0
  8 10  2  0
  8 11  1  0
 11 12  2  0
 12 13  1  0
 13 14  2  0
 14 15  1  0
 15 16  1  0
 16 17  2  0
 16 18  1  0
 18 19  1  0
 19 20  1  0
 20 21  2  0
 21 22  1  0
 22 23  2  0
 23 24  1  0
 24 25  1  0
 24 26  2  0
 24 27  2  0
 23 28  1  0
 28 29  2  0
 15 30  2  0
  6 31  2  0
 31 32  1  0
 31  2  1  0
 30 11  1  0
 29 20  1  0
  1 33  1  0
  1 34  1  0
  1 35  1  0
  3 36  1  0
  4 37  1  0
  5 38  1  0
  7 39  1  0
 12 40  1  0
 13 41  1  0
 14 42  1  0
 19 43  1  0
 19 44  1  0
 21 45  1  0
 22 46  1  0
 25 47  1  0
 28 48  1  0
 29 49  1  0
 30 50  1  0
 32 51  1  0
 32 52  1  0
 32 53  1  0
M  CHG  2  18  -1  25  -1
M  END
>  <UniqueID>  (10) 
10

>  <SMILES>  (10) 
Cc1cccc(NS(=O)(=O)c2cccc(C(=O)[N-]Cc3ccc(S([NH-])(=O)=O)cc3)c2)c1C

>  <Energy>  (10) 
61.642254835374175

>  <Genealogy>  (10) 
Cc1cccc(NS(=O)(=O)c2cccc(C(=O)[N-]Cc3ccc(S([NH-])(=O)=O)cc3)c2)c1C (protonated)
Cc1cccc(NS(=O)(=O)c2cccc(C(=O)[N-]Cc3ccc(S([NH-])(=O)=O)cc3)c2)c1C (3D coordinates assigned)
Cc1cccc(NS(=O)(=O)c2cccc(C(=O)[N-]Cc3ccc(S([NH-])(=O)=O)cc3)c2)c1C (optimized conformer: 61.642254835374175 kcal/mol)

>  <smiles>  (10) 
Cc1cccc(NS(=O)(=O)c2cccc(C(=O)NCc3ccc(S(N)(=O)=O)cc3)c2)c1C

>  <score_type>  (10) 
oracle

>  <origin>  (10) 
adg

>  <m_score__min__energy>  (10) 
-13.5

>  <m_primary>  (10) 
energy

$$$$
10:0
     RDKit          3D

 39 42  0  0  0  0  0  0  0  0999 V2000
   56.7390   29.4260   43.1520 O   0  0  0  0  0  0  0  0  0  0  0  0
   56.2580   29.7840   44.2580 C   0  0  0  0  0  0  0  0  0  0  0  0
   56.0690   31.1840   44.5120 N   0  0  0  0  0  0  0  0  0  0  0  0
   57.0280   32.0620   45.1180 C   0  0  0  0  0  0  0  0  0  0  0  0
   57.0270   33.4430   44.8570 C   0  0  0  0  0  0  0  0  0  0  0  0
   57.9030   34.2880   45.5430 C   0  0  0  0  0  0  0  0  0  0  0  0
   58.8000   33.7610   46.4870 C   0  0  0  0  0  0  0  0  0  0  0  0
   59.6870   34.6060   47.2370 N   0  0  0  0  0  0  0  0  0  0  0  0
   60.7700   34.2120   47.8400 C   0  0  0  0  0  0  0  0  0  0  0  0
   61.8900   33.8070   47.1810 N   0  0  0  0  0  0  0  0  0  0  0  0
   62.7360   33.5490   48.1870 C   0  0  0  0  0  0  0  0  0  0  0  0
   64.0510   33.0960   48.1000 C   0  0  0  0  0  0  0  0  0  0  0  0
   64.7540   32.8990   49.3030 C   0  0  0  0  0  0  0  0  0  0  0  0
   64.1320   33.1600   50.5460 C   0  0  0  0  0  0  0  0  0  0  0  0
   62.8020   33.6190   50.5940 C   0  0  0  0  0  0  0  0  0  0  0  0
   62.1370   33.8010   49.3840 C   0  0  0  0  0  0  0  0  0  0  0  0
   60.8800   34.2310   49.1930 N   0  0  0  0  0  0  0  0  0  0  0  0
   58.8650   32.3750   46.6710 C   0  0  0  0  0  0  0  0  0  0  0  0
   57.9810   31.5300   45.9950 C   0  0  0  0  0  0  0  0  0  0  0  0
   55.9100   28.7790   45.2220 N   0  0  0  0  0  0  0  0  0  0  0  0
   56.7410   27.6830   45.6330 C   0  0  0  0  0  0  0  0  0  0  0  0
   58.1420   27.7980   45.6700 C   0  0  0  0  0  0  0  0  0  0  0  0
   58.9240   26.7290   46.1200 C   0  0  0  0  0  0  0  0  0  0  0  0
   60.2730   26.8510   46.1710 F   0  0  0  0  0  0  0  0  0  0  0  0
   58.3150   25.5340   46.5160 C   0  0  0  0  0  0  0  0  0  0  0  0
   56.9250   25.4040   46.4520 C   0  0  0  0  0  0  0  0  0  0  0  0
   56.1400   26.4700   46.0020 C   0  0  0  0  0  0  0  0  0  0  0  0
   54.7910   26.3370   45.9590 F   0  0  0  0  0  0  0  0  0  0  0  0
   56.3347   33.8597   44.1106 H   0  0  0  0  0  0  0  0  0  0  0  0
   57.8903   35.3696   45.3432 H   0  0  0  0  0  0  0  0  0  0  0  0
   64.5226   32.8995   47.1258 H   0  0  0  0  0  0  0  0  0  0  0  0
   65.7934   32.5399   49.2764 H   0  0  0  0  0  0  0  0  0  0  0  0
   64.6906   33.0035   51.4806 H   0  0  0  0  0  0  0  0  0  0  0  0
   62.3056   33.8266   51.5534 H   0  0  0  0  0  0  0  0  0  0  0  0
   59.6164   31.9485   47.3518 H   0  0  0  0  0  0  0  0  0  0  0  0
   58.0340   30.4426   46.1524 H   0  0  0  0  0  0  0  0  0  0  0  0
   58.6244   28.7313   45.3441 H   0  0  0  0  0  0  0  0  0  0  0  0
   58.9298   24.6967   46.8777 H   0  0  0  0  0  0  0  0  0  0  0  0
   56.4474   24.4610   46.7563 H   0  0  0  0  0  0  0  0  0  0  0  0
  1  2  2  0
  2  3  1  0
  3  4  1  0
  4  5  2  0
  5  6  1  0
  6  7  2  0
  7  8  1  0
  8  9  2  3
  9 10  1  0
 10 11  1  0
 11 12  2  0
 12 13  1  0
 13 14  2  0
 14 15  1  0
 15 16  2  0
 16 17  1  0
  7 18  1  0
 18 19  2  0
  2 20  1  0
 20 21  1  0
 21 22  2  0
 22 23  1  0
 23 24  1  0
 23 25  2  0
 25 26  1  0
 26 27  2  0
 27 28  1  0
 19  4  1  0
 27 21  1  0
 17  9  1  0
 16 11  1  0
  5 29  1  0
  6 30  1  0
 12 31  1  0
 13 32  1  0
 14 33  1  0
 15 34  1  0
 18 35  1  0
 19 36  1  0
 22 37  1  0
 25 38  1  0
 26 39  1  0
M  CHG  4   3  -1  10  -1  17  -1  20  -1
M  END
>  <UniqueID>  (11) 
11

>  <SMILES>  (11) 
O=C([N-]c1ccc(N=c2[n-]c3ccccc3[n-]2)cc1)[N-]c1cc(F)ccc1F

>  <Energy>  (11) 
91.65688391405604

>  <Genealogy>  (11) 
O=C([N-]c1ccc(N=c2[n-]c3ccccc3[n-]2)cc1)[N-]c1cc(F)ccc1F (protonated)
O=C([N-]c1ccc(N=c2[n-]c3ccccc3[n-]2)cc1)[N-]c1cc(F)ccc1F (3D coordinates assigned)
O=C([N-]c1ccc(N=c2[n-]c3ccccc3[n-]2)cc1)[N-]c1cc(F)ccc1F (optimized conformer: 91.65688391405604 kcal/mol)

>  <smiles>  (11) 
O=C(Nc1ccc(N=c2[nH]c3ccccc3[nH]2)cc1)Nc1cc(F)ccc1F

>  <score_type>  (11) 
oracle

>  <origin>  (11) 
adg

>  <m_score__min__energy>  (11) 
-13.380000000000001

>  <m_primary>  (11) 
energy

$$$$
11:0
     RDKit          3D

 43 45  0  0  0  0  0  0  0  0999 V2000
   55.6730   30.4403   43.0026 H   0  0  0  0  0  0  0  0  0  0  0  0
   56.6420   30.2470   43.4860 C   0  0  0  0  0  0  0  0  0  0  0  0
   57.1390   29.0030   43.3860 C   0  0  0  0  0  0  0  0  0  0  0  0
   57.1212   28.5350   42.3907 H   0  0  0  0  0  0  0  0  0  0  0  0
   57.7190   28.1910   44.5160 C   0  0  0  0  0  0  0  0  0  0  0  0
   58.3860   27.4235   44.0963 H   0  0  0  0  0  0  0  0  0  0  0  0
   56.8855   27.7335   45.0691 H   0  0  0  0  0  0  0  0  0  0  0  0
   58.4820   29.0210   45.4510 N   0  0  0  0  0  0  0  0  0  0  0  0
   57.9600   29.5640   46.1760 H   0  0  0  0  0  0  0  0  0  0  0  0
   59.9040   29.1760   45.3880 C   0  0  0  0  0  0  0  0  0  0  0  0
   60.5610   28.6270   44.4630 O   0  0  0  0  0  0  0  0  0  0  0  0
   60.5580   29.9620   46.3950 N   0  0  0  0  0  0  0  0  0  0  0  0
   60.1490   30.1440   47.6160 C   0  0  0  0  0  0  0  0  0  0  0  0
   58.8730   30.4350   47.9580 N   0  0  0  0  0  0  0  0  0  0  0  0
   58.7400   30.5750   49.3040 C   0  0  0  0  0  0  0  0  0  0  0  0
   57.7792   30.8127   49.7840 H   0  0  0  0  0  0  0  0  0  0  0  0
   59.9140   30.3940   50.0250 C   0  0  0  0  0  0  0  0  0  0  0  0
   60.0940   30.5160   51.9190 Br  0  0  0  0  0  0  0  0  0  0  0  0
   61.1620   30.0470   48.9530 S   0  0  0  0  0  0  0  0  0  0  0  0
   57.2830   31.3800   44.1890 C   0  0  0  0  0  0  0  0  0  0  0  0
   57.2100   31.4990   45.5420 N   0  0  0  0  0  0  0  0  0  0  0  0
   57.7240   32.5690   46.2020 C   0  0  0  0  0  0  0  0  0  0  0  0
   57.6494   32.6263   47.2980 H   0  0  0  0  0  0  0  0  0  0  0  0
   58.3510   33.6030   45.4860 C   0  0  0  0  0  0  0  0  0  0  0  0
   58.7950   34.7850   46.1010 O   0  0  0  0  0  0  0  0  0  0  0  0
   59.2730   34.8630   47.4460 C   0  0  0  0  0  0  0  0  0  0  0  0
   59.3473   35.9195   47.7432 H   0  0  0  0  0  0  0  0  0  0  0  0
   58.5699   34.3325   48.1050 H   0  0  0  0  0  0  0  0  0  0  0  0
   60.6380   34.2150   47.5620 C   0  0  0  0  0  0  0  0  0  0  0  0
   61.4180   34.0880   46.3990 C   0  0  0  0  0  0  0  0  0  0  0  0
   61.0115   34.4199   45.4323 H   0  0  0  0  0  0  0  0  0  0  0  0
   62.7010   33.5460   46.4580 C   0  0  0  0  0  0  0  0  0  0  0  0
   63.3038   33.4608   45.5419 H   0  0  0  0  0  0  0  0  0  0  0  0
   63.2210   33.1120   47.6760 C   0  0  0  0  0  0  0  0  0  0  0  0
   64.2374   32.6936   47.7195 H   0  0  0  0  0  0  0  0  0  0  0  0
   62.4570   33.2060   48.8420 C   0  0  0  0  0  0  0  0  0  0  0  0
   63.1590   32.6370   50.3510 Cl  0  0  0  0  0  0  0  0  0  0  0  0
   61.1570   33.7480   48.7950 C   0  0  0  0  0  0  0  0  0  0  0  0
   60.2050   33.8260   50.2800 Cl  0  0  0  0  0  0  0  0  0  0  0  0
   58.5090   33.4610   44.1060 C   0  0  0  0  0  0  0  0  0  0  0  0
   59.0556   34.2253   43.5341 H   0  0  0  0  0  0  0  0  0  0  0  0
   57.9740   32.3500   43.4510 C   0  0  0  0  0  0  0  0  0  0  0  0
   58.0942   32.2371   42.3634 H   0  0  0  0  0  0  0  0  0  0  0  0
  1  2  1  0
  2  3  2  3
  3  4  1  0
  3  5  1  0
  5  6  1  0
  5  7  1  0
  5  8  1  0
  8  9  1  0
  8 10  1  0
 10 11  2  0
 10 12  1  0
 12 13  2  0
 13 14  1  0
 14 15  1  0
 15 16  1  0
 15 17  2  0
 17 18  1  0
 17 19  1  0
  2 20  1  0
 20 21  2  0
 21 22  1  0
 22 23  1  0
 22 24  2  0
 24 25  1  0
 25 26  1  0
 26 27  1  0
 26 28  1  0
 26 29  1  0
 29 30  2  0
 30 31  1  0
 30 32  1  0
 32 33  1  0
 32 34  2  0
 34 35  1  0
 34 36  1  0
 36 37  1  0
 36 38  2  0
 38 39  1  0
 24 40  1  0
 40 41  1  0
 40 42  2  0
 42 43  1  0
 19 13  1  0
 42 20  1  0
 38 29  1  0
M  CHG  1  14  -1
M  END
>  <UniqueID>  (12) 
12

>  <SMILES>  (12) 
O=C(/N=c1\[n-]cc(Br)s1)NCC=Cc1ccc(OCc2cccc(Cl)c2Cl)cn1

>  <Energy>  (12) 
79.69088757461084

>  <Genealogy>  (12) 
O=C(N=c1[n-]cc(Br)s1)NCC=Cc1ccc(OCc2cccc(Cl)c2Cl)cn1 (protonated)
O=C(/N=c1\[n-]cc(Br)s1)NCC=Cc1ccc(OCc2cccc(Cl)c2Cl)cn1 (cis-trans isomerization)
O=C(/N=c1\[n-]cc(Br)s1)NCC=Cc1ccc(OCc2cccc(Cl)c2Cl)cn1 (3D coordinates assigned)
O=C(/N=c1\[n-]cc(Br)s1)NCC=Cc1ccc(OCc2cccc(Cl)c2Cl)cn1 (optimized conformer: 79.69088757461084 kcal/mol)

>  <smiles>  (12) 
O=C(N=c1[nH]cc(Br)s1)NCC=Cc1ccc(OCc2cccc(Cl)c2Cl)cn1

>  <score_type>  (12) 
oracle

>  <origin>  (12) 
adg

>  <m_score__min__energy>  (12) 
-11.66

>  <m_primary>  (12) 
energy

$$$$
12:0
     RDKit          3D

 37 39  0  0  0  0  0  0  0  0999 V2000
   56.0147   29.3361   43.0904 H   0  0  0  0  0  0  0  0  0  0  0  0
   56.5870   30.1940   43.4730 C   0  0  0  0  0  0  0  0  0  0  0  0
   56.8380   30.3050   44.8000 N   0  0  0  0  0  0  0  0  0  0  0  0
   57.5400   31.3390   45.3440 C   0  0  0  0  0  0  0  0  0  0  0  0
   57.7790   31.2590   46.6230 N   0  0  0  0  0  0  0  0  0  0  0  0
   58.9770   30.9030   47.3170 C   0  0  0  0  0  0  0  0  0  0  0  0
   59.0420   31.0540   48.7110 C   0  0  0  0  0  0  0  0  0  0  0  0
   58.1331   31.3010   49.2793 H   0  0  0  0  0  0  0  0  0  0  0  0
   60.2600   30.8910   49.3790 C   0  0  0  0  0  0  0  0  0  0  0  0
   60.3063   31.0030   50.4723 H   0  0  0  0  0  0  0  0  0  0  0  0
   61.4180   30.5860   48.6590 C   0  0  0  0  0  0  0  0  0  0  0  0
   62.3709   30.4357   49.1875 H   0  0  0  0  0  0  0  0  0  0  0  0
   61.3650   30.4720   47.2670 C   0  0  0  0  0  0  0  0  0  0  0  0
   62.2776   30.2365   46.6997 H   0  0  0  0  0  0  0  0  0  0  0  0
   60.1530   30.6570   46.5950 C   0  0  0  0  0  0  0  0  0  0  0  0
   60.1222   30.6094   45.4965 H   0  0  0  0  0  0  0  0  0  0  0  0
   57.9670   32.4060   44.4890 C   0  0  0  0  0  0  0  0  0  0  0  0
   58.4290   34.0340   45.0540 S   0  0  0  0  0  0  0  0  0  0  0  0
   59.5830   34.5510   44.2410 O   0  0  0  0  0  0  0  0  0  0  0  0
   57.2730   34.9660   44.8220 O   0  0  0  0  0  0  0  0  0  0  0  0
   58.8760   34.0870   46.7310 N   0  0  0  0  0  0  0  0  0  0  0  0
   58.0930   34.1850   47.4150 H   0  0  0  0  0  0  0  0  0  0  0  0
   60.2260   34.0430   47.2290 C   0  0  0  0  0  0  0  0  0  0  0  0
   61.3300   33.8370   46.3820 C   0  0  0  0  0  0  0  0  0  0  0  0
   61.1731   33.7113   45.3005 H   0  0  0  0  0  0  0  0  0  0  0  0
   62.6260   33.7910   46.9060 C   0  0  0  0  0  0  0  0  0  0  0  0
   63.4827   33.6229   46.2368 H   0  0  0  0  0  0  0  0  0  0  0  0
   62.8350   33.9580   48.2770 C   0  0  0  0  0  0  0  0  0  0  0  0
   63.8543   33.9132   48.6882 H   0  0  0  0  0  0  0  0  0  0  0  0
   61.7480   34.1820   49.1250 C   0  0  0  0  0  0  0  0  0  0  0  0
   61.9121   34.3207   50.2038 H   0  0  0  0  0  0  0  0  0  0  0  0
   60.4520   34.2300   48.6040 C   0  0  0  0  0  0  0  0  0  0  0  0
   59.6011   34.4158   49.2759 H   0  0  0  0  0  0  0  0  0  0  0  0
   57.7220   32.2730   43.1080 C   0  0  0  0  0  0  0  0  0  0  0  0
   58.0656   33.0598   42.4203 H   0  0  0  0  0  0  0  0  0  0  0  0
   57.0530   31.1640   42.5980 C   0  0  0  0  0  0  0  0  0  0  0  0
   56.8959   31.0582   41.5144 H   0  0  0  0  0  0  0  0  0  0  0  0
  1  2  1  0
  2  3  1  0
  3  4  1  0
  4  5  2  0
  5  6  1  0
  6  7  2  0
  7  8  1  0
  7  9  1  0
  9 10  1  0
  9 11  2  0
 11 12  1  0
 11 13  1  0
 13 14  1  0
 13 15  2  0
 15 16  1  0
  4 17  1  0
 17 18  1  0
 18 19  2  0
 18 20  2  0
 18 21  1  0
 21 22  1  0
 21 23  1  0
 23 24  2  0
 24 25  1  0
 24 26  1  0
 26 27  1  0
 26 28  2  0
 28 29  1  0
 28 30  1  0
 30 31  1  0
 30 32  2  0
 32 33  1  0
 17 34  2  0
 34 35  1  0
 34 36  1  0
 36 37  1  0
 36  2  2  0
 15  6  1  0
 32 23  1  0
M  CHG  1   3  -1
M  END
>  <UniqueID>  (13) 
13

>  <SMILES>  (13) 
O=S(=O)(Nc1ccccc1)c1ccc[n-]/c1=N/c1ccccc1

>  <Energy>  (13) 
65.77025303645239

>  <Genealogy>  (13) 
O=S(=O)(Nc1ccccc1)c1ccc[n-]c1=Nc1ccccc1 (protonated)
O=S(=O)(Nc1ccccc1)c1ccc[n-]/c1=N/c1ccccc1 (cis-trans isomerization)
O=S(=O)(Nc1ccccc1)c1ccc[n-]/c1=N/c1ccccc1 (3D coordinates assigned)
O=S(=O)(Nc1ccccc1)c1ccc[n-]/c1=N/c1ccccc1 (optimized conformer: 65.77025303645239 kcal/mol)

>  <smiles>  (13) 
O=S(=O)(Nc1ccccc1)c1ccc[nH]c1=Nc1ccccc1

>  <score_type>  (13) 
oracle

>  <origin>  (13) 
adg

>  <m_score__min__energy>  (13) 
-9.2599999999999998

>  <m_primary>  (13) 
energy

$$$$
13:0
     RDKit          3D

 71 76  0  0  0  0  0  0  0  0999 V2000
   62.4970   33.8700   53.0560 N   0  0  0  0  0  0  0  0  0  0  0  0
   60.8550   33.3810   53.2740 S   0  0  0  0  0  0  0  0  0  0  0  0
   60.0010   34.5900   53.5430 O   0  0  0  0  0  0  0  0  0  0  0  0
   60.7640   32.4500   54.4510 O   0  0  0  0  0  0  0  0  0  0  0  0
   60.2870   32.5820   51.8110 C   0  0  0  0  0  0  0  0  0  0  0  0
   59.6190   33.3000   50.8100 C   0  0  0  0  0  0  0  0  0  0  0  0
   59.1510   32.6420   49.6670 C   0  0  0  0  0  0  0  0  0  0  0  0
   59.3540   31.2590   49.5130 C   0  0  0  0  0  0  0  0  0  0  0  0
   58.8680   30.5530   48.4060 O   0  0  0  0  0  0  0  0  0  0  0  0
   59.3320   29.3150   47.9360 C   0  0  0  0  0  0  0  0  0  0  0  0
   59.0720   28.1180   48.6260 C   0  0  0  0  0  0  0  0  0  0  0  0
   59.5490   26.9000   48.1330 C   0  0  0  0  0  0  0  0  0  0  0  0
   60.2970   26.8610   46.9410 C   0  0  0  0  0  0  0  0  0  0  0  0
   60.8130   25.6710   46.4050 O   0  0  0  0  0  0  0  0  0  0  0  0
   60.0470   24.5400   45.9890 C   0  0  0  0  0  0  0  0  0  0  0  0
   58.5750   24.7470   46.2360 C   0  0  0  0  0  0  0  0  0  0  0  0
   58.1280   24.7160   47.4120 O   0  0  0  0  0  0  0  0  0  0  0  0
   57.6690   25.0450   45.1630 N   0  0  0  0  0  0  0  0  0  0  0  0
   56.6580   26.1010   45.1800 C   0  0  2  0  0  0  0  0  0  0  0  0
   57.2880   27.3880   45.7360 C   0  0  0  0  0  0  0  0  0  0  0  0
   56.8320   28.5990   44.9760 C   0  0  0  0  0  0  0  0  0  0  0  0
   57.5880   29.3400   44.1000 C   0  0  0  0  0  0  0  0  0  0  0  0
   56.8140   30.3010   43.5670 N   0  0  0  0  0  0  0  0  0  0  0  0
   55.6050   30.1080   44.1370 C   0  0  0  0  0  0  0  0  0  0  0  0
   55.5730   29.0730   45.0010 N   0  0  0  0  0  0  0  0  0  0  0  0
   55.4830   25.6780   46.0190 C   0  0  0  0  0  0  0  0  0  0  0  0
   54.3980   26.3120   45.9650 O   0  0  0  0  0  0  0  0  0  0  0  0
   55.5740   24.5390   46.8080 O   0  0  0  0  0  0  0  0  0  0  0  0
   60.5410   28.0510   46.2520 C   0  0  0  0  0  0  0  0  0  0  0  0
   60.0320   29.2680   46.7150 C   0  0  0  0  0  0  0  0  0  0  0  0
   60.3480   30.4680   45.9940 N   0  0  0  0  0  0  0  0  0  0  0  0
   60.4880   31.7050   46.4050 C   0  0  0  0  0  0  0  0  0  0  0  0
   59.5060   32.6420   45.9950 C   0  0  0  0  0  0  0  0  0  0  0  0
   58.3250   32.2430   45.3290 C   0  0  0  0  0  0  0  0  0  0  0  0
   57.3970   33.1950   44.8970 C   0  0  0  0  0  0  0  0  0  0  0  0
   57.6360   34.5530   45.1070 C   0  0  0  0  0  0  0  0  0  0  0  0
   58.8000   34.9660   45.7550 C   0  0  0  0  0  0  0  0  0  0  0  0
   59.7330   34.0220   46.2000 C   0  0  0  0  0  0  0  0  0  0  0  0
   60.8620   34.4420   46.8170 N   0  0  0  0  0  0  0  0  0  0  0  0
   61.7830   33.5770   47.3120 C   0  0  0  0  0  0  0  0  0  0  0  0
   62.8920   34.0900   47.9920 C   0  0  0  0  0  0  0  0  0  0  0  0
   63.7900   33.2290   48.6200 C   0  0  0  0  0  0  0  0  0  0  0  0
   63.5640   31.8550   48.6000 C   0  0  0  0  0  0  0  0  0  0  0  0
   62.4670   31.3300   47.9110 C   0  0  0  0  0  0  0  0  0  0  0  0
   61.5950   32.1750   47.1830 C   0  0  0  0  0  0  0  0  0  0  0  0
   60.0120   30.5460   50.5210 C   0  0  0  0  0  0  0  0  0  0  0  0
   60.4790   31.2020   51.6610 C   0  0  0  0  0  0  0  0  0  0  0  0
   63.0880   33.0140   53.1570 H   0  0  0  0  0  0  0  0  0  0  0  0
   62.5940   34.1880   52.0650 H   0  0  0  0  0  0  0  0  0  0  0  0
   59.4622   34.3829   50.9229 H   0  0  0  0  0  0  0  0  0  0  0  0
   58.6225   33.2086   48.8862 H   0  0  0  0  0  0  0  0  0  0  0  0
   58.4899   28.1400   49.5591 H   0  0  0  0  0  0  0  0  0  0  0  0
   59.3390   25.9682   48.6787 H   0  0  0  0  0  0  0  0  0  0  0  0
   60.2090   24.3750   44.9136 H   0  0  0  0  0  0  0  0  0  0  0  0
   60.3751   23.6679   46.5736 H   0  0  0  0  0  0  0  0  0  0  0  0
   56.2972   26.2880   44.1578 H   0  0  0  0  0  0  0  0  0  0  0  0
   56.9996   27.4995   46.7917 H   0  0  0  0  0  0  0  0  0  0  0  0
   58.3803   27.3086   45.6336 H   0  0  0  0  0  0  0  0  0  0  0  0
   58.6513   29.1741   43.8724 H   0  0  0  0  0  0  0  0  0  0  0  0
   54.7289   30.7358   43.9173 H   0  0  0  0  0  0  0  0  0  0  0  0
   61.1426   28.0305   45.3313 H   0  0  0  0  0  0  0  0  0  0  0  0
   58.1345   31.1747   45.1491 H   0  0  0  0  0  0  0  0  0  0  0  0
   56.4757   32.8722   44.3900 H   0  0  0  0  0  0  0  0  0  0  0  0
   56.9056   35.2992   44.7611 H   0  0  0  0  0  0  0  0  0  0  0  0
   58.9857   36.0380   45.9171 H   0  0  0  0  0  0  0  0  0  0  0  0
   63.0561   35.1770   48.0314 H   0  0  0  0  0  0  0  0  0  0  0  0
   64.6760   33.6341   49.1307 H   0  0  0  0  0  0  0  0  0  0  0  0
   64.2523   31.1795   49.1291 H   0  0  0  0  0  0  0  0  0  0  0  0
   62.2788   30.2465   47.9347 H   0  0  0  0  0  0  0  0  0  0  0  0
   60.1622   29.4615   50.4144 H   0  0  0  0  0  0  0  0  0  0  0  0
   61.0001   30.6332   52.4452 H   0  0  0  0  0  0  0  0  0  0  0  0
  1  2  1  0
  2  3  2  0
  2  4  2  0
  2  5  1  0
  5  6  2  0
  6  7  1  0
  7  8  2  0
  8  9  1  0
  9 10  1  0
 10 11  2  0
 11 12  1  0
 12 13  2  0
 13 14  1  0
 14 15  1  0
 15 16  1  0
 16 17  2  0
 16 18  1  0
 18 19  1  0
 19 20  1  0
 20 21  1  0
 21 22  2  0
 22 23  1  0
 23 24  1  0
 24 25  2  0
 19 26  1  0
 26 27  2  0
 26 28  1  0
 13 29  1  0
 29 30  2  0
 30 31  1  0
 31 32  2  3
 32 33  1  0
 33 34  2  0
 34 35  1  0
 35 36  2  0
 36 37  1  0
 37 38  2  0
 38 39  1  0
 39 40  1  0
 40 41  2  0
 41 42  1  0
 42 43  2  0
 43 44  1  0
 44 45  2  0
  8 46  1  0
 46 47  2  0
 47  5  1  0
 30 10  1  0
 45 32  1  0
 25 21  1  0
 38 33  1  0
 45 40  1  0
  1 48  1  0
  1 49  1  0
  6 50  1  0
  7 51  1  0
 11 52  1  0
 12 53  1  0
 15 54  1  0
 15 55  1  0
 19 56  1  6
 20 57  1  0
 20 58  1  0
 22 59  1  0
 24 60  1  0
 29 61  1  0
 34 62  1  0
 35 63  1  0
 36 64  1  0
 37 65  1  0
 41 66  1  0
 42 67  1  0
 43 68  1  0
 44 69  1  0
 46 70  1  0
 47 71  1  0
M  CHG  4  18  -1  23  -1  28  -1  39  -1
M  END
>  <UniqueID>  (14) 
14

>  <SMILES>  (14) 
NS(=O)(=O)c1ccc(Oc2ccc(OCC(=O)[N-][C@H](Cc3c[n-]cn3)C(=O)[O-])cc2N=c2c3ccccc3[n-]c3ccccc23)cc1

>  <Energy>  (14) 
136.41952702144386

>  <Genealogy>  (14) 
NS(=O)(=O)c1ccc(Oc2ccc(OCC(=O)[N-]C(Cc3c[n-]cn3)C(=O)[O-])cc2N=c2c3ccccc3[n-]c3ccccc23)cc1 (protonated)
NS(=O)(=O)c1ccc(Oc2ccc(OCC(=O)[N-][C@H](Cc3c[n-]cn3)C(=O)[O-])cc2N=c2c3ccccc3[n-]c3ccccc23)cc1 (chirality)
NS(=O)(=O)c1ccc(Oc2ccc(OCC(=O)[N-][C@H](Cc3c[n-]cn3)C(=O)[O-])cc2N=c2c3ccccc3[n-]c3ccccc23)cc1 (3D coordinates assigned)
NS(=O)(=O)c1ccc(Oc2ccc(OCC(=O)[N-][C@H](Cc3c[n-]cn3)C(=O)[O-])cc2N=c2c3ccccc3[n-]c3ccccc23)cc1 (optimized conformer: 136.41952702144386 kcal/mol)

>  <smiles>  (14) 
NS(=O)(=O)c1ccc(Oc2ccc(OCC(=O)NC(Cc3c[nH]cn3)C(=O)O)cc2N=c2c3ccccc3[nH]c3ccccc23)cc1

>  <score_type>  (14) 
oracle

>  <origin>  (14) 
adg

>  <m_score__min__energy>  (14) 
-17.539999999999999

>  <m_primary>  (14) 
energy

$$$$
14:0
     RDKit          3D

 55 58  0  0  0  0  0  0  0  0999 V2000
   59.2690   22.2480   44.9200 C   0  0  0  0  0  0  0  0  0  0  0  0
   57.9210   22.7970   44.5620 C   0  0  0  0  0  0  0  0  0  0  0  0
   57.1930   22.2430   43.5020 C   0  0  0  0  0  0  0  0  0  0  0  0
   55.9430   22.7730   43.1860 C   0  0  0  0  0  0  0  0  0  0  0  0
   55.4330   23.8430   43.9220 C   0  0  0  0  0  0  0  0  0  0  0  0
   56.1750   24.3630   44.9960 C   0  0  0  0  0  0  0  0  0  0  0  0
   55.7010   25.5290   45.7760 C   0  0  0  0  0  0  0  0  0  0  0  0
   54.5060   25.9050   45.6420 O   0  0  0  0  0  0  0  0  0  0  0  0
   56.5340   26.2130   46.7270 N   0  0  0  0  0  0  0  0  0  0  0  0
   57.6310   27.0790   46.4050 C   0  0  0  0  0  0  0  0  0  0  0  0
   58.2250   26.9860   45.1450 C   0  0  0  0  0  0  0  0  0  0  0  0
   59.2660   27.8420   44.7960 C   0  0  0  0  0  0  0  0  0  0  0  0
   59.7520   28.7720   45.7190 C   0  0  0  0  0  0  0  0  0  0  0  0
   59.2130   28.8350   47.0120 C   0  0  0  0  0  0  0  0  0  0  0  0
   59.8170   29.7180   48.0280 C   0  0  0  0  0  0  0  0  0  0  0  0
   59.1090   30.1680   48.9690 O   0  0  0  0  0  0  0  0  0  0  0  0
   61.2040   30.0680   47.9460 N   0  0  0  0  0  0  0  0  0  0  0  0
   61.6960   31.3620   47.5790 C   0  0  0  0  0  0  0  0  0  0  0  0
   63.0710   31.6430   47.5860 C   0  0  0  0  0  0  0  0  0  0  0  0
   63.5390   32.8760   47.1180 C   0  0  0  0  0  0  0  0  0  0  0  0
   62.6420   33.8330   46.6370 C   0  0  0  0  0  0  0  0  0  0  0  0
   61.2630   33.5550   46.6140 C   0  0  0  0  0  0  0  0  0  0  0  0
   60.2980   34.5510   46.1070 C   0  0  0  0  0  0  0  0  0  0  0  0
   58.9880   34.3150   45.9580 C   0  0  0  0  0  0  0  0  0  0  0  0
   58.4350   33.1990   45.1530 C   0  0  0  0  0  0  0  0  0  0  0  0
   58.4110   33.3270   43.7530 C   0  0  0  0  0  0  0  0  0  0  0  0
   57.9120   32.2930   42.9560 C   0  0  0  0  0  0  0  0  0  0  0  0
   57.4280   31.1250   43.5490 C   0  0  0  0  0  0  0  0  0  0  0  0
   57.4180   30.9980   44.9420 C   0  0  0  0  0  0  0  0  0  0  0  0
   57.8920   32.0360   45.7520 C   0  0  0  0  0  0  0  0  0  0  0  0
   57.7820   31.8950   47.1390 O   0  0  0  0  0  0  0  0  0  0  0  0
   60.7940   32.3210   47.0980 C   0  0  0  0  0  0  0  0  0  0  0  0
   58.1370   27.9930   47.3440 C   0  0  0  0  0  0  0  0  0  0  0  0
   57.4000   23.8370   45.2720 N   0  0  0  0  0  0  0  0  0  0  0  0
   59.3693   22.2071   46.0146 H   0  0  0  0  0  0  0  0  0  0  0  0
   59.3747   21.2352   44.5040 H   0  0  0  0  0  0  0  0  0  0  0  0
   60.0522   22.8988   44.5040 H   0  0  0  0  0  0  0  0  0  0  0  0
   57.6023   21.4001   42.9258 H   0  0  0  0  0  0  0  0  0  0  0  0
   55.3589   22.3477   42.3566 H   0  0  0  0  0  0  0  0  0  0  0  0
   54.4559   24.2769   43.6631 H   0  0  0  0  0  0  0  0  0  0  0  0
   57.8693   26.2338   44.4255 H   0  0  0  0  0  0  0  0  0  0  0  0
   59.7076   27.7861   43.7901 H   0  0  0  0  0  0  0  0  0  0  0  0
   60.5616   29.4582   45.4297 H   0  0  0  0  0  0  0  0  0  0  0  0
   63.7825   30.8922   47.9603 H   0  0  0  0  0  0  0  0  0  0  0  0
   64.6174   33.0926   47.1289 H   0  0  0  0  0  0  0  0  0  0  0  0
   63.0137   34.8035   46.2764 H   0  0  0  0  0  0  0  0  0  0  0  0
   60.6779   35.5469   45.8353 H   0  0  0  0  0  0  0  0  0  0  0  0
   58.2802   34.9890   46.4627 H   0  0  0  0  0  0  0  0  0  0  0  0
   58.7874   34.2470   43.2819 H   0  0  0  0  0  0  0  0  0  0  0  0
   57.9005   32.3993   41.8612 H   0  0  0  0  0  0  0  0  0  0  0  0
   57.0541   30.3038   42.9199 H   0  0  0  0  0  0  0  0  0  0  0  0
   57.0350   30.0760   45.4038 H   0  0  0  0  0  0  0  0  0  0  0  0
   58.5360   31.5470   47.7240 H   0  0  0  0  0  0  0  0  0  0  0  0
   59.7149   32.1074   47.0992 H   0  0  0  0  0  0  0  0  0  0  0  0
   57.6881   28.0504   48.3466 H   0  0  0  0  0  0  0  0  0  0  0  0
  1  2  1  0
  2  3  2  0
  3  4  1  0
  4  5  2  0
  5  6  1  0
  6  7  1  0
  7  8  2  0
  7  9  1  0
  9 10  1  0
 10 11  2  0
 11 12  1  0
 12 13  2  0
 13 14  1  0
 14 15  1  0
 15 16  2  0
 15 17  1  0
 17 18  1  0
 18 19  2  0
 19 20  1  0
 20 21  2  0
 21 22  1  0
 22 23  1  0
 23 24  2  3
 24 25  1  0
 25 26  2  0
 26 27  1  0
 27 28  2  0
 28 29  1  0
 29 30  2  0
 30 31  1  0
 22 32  2  0
 14 33  2  0
  6 34  2  0
 34  2  1  0
 33 10  1  0
 32 18  1  0
 30 25  1  0
  1 35  1  0
  1 36  1  0
  1 37  1  0
  3 38  1  0
  4 39  1  0
  5 40  1  0
 11 41  1  0
 12 42  1  0
 13 43  1  0
 19 44  1  0
 20 45  1  0
 21 46  1  0
 23 47  1  0
 24 48  1  0
 26 49  1  0
 27 50  1  0
 28 51  1  0
 29 52  1  0
 31 53  1  0
 32 54  1  0
 33 55  1  0
M  CHG  2   9  -1  17  -1
M  END
>  <UniqueID>  (15) 
15

>  <SMILES>  (15) 
Cc1cccc(C(=O)[N-]c2cccc(C(=O)[N-]c3cccc(C=Cc4ccccc4O)c3)c2)n1

>  <Energy>  (15) 
84.77545952205404

>  <Genealogy>  (15) 
Cc1cccc(C(=O)[N-]c2cccc(C(=O)[N-]c3cccc(C=Cc4ccccc4O)c3)c2)n1 (protonated)
Cc1cccc(C(=O)[N-]c2cccc(C(=O)[N-]c3cccc(C=Cc4ccccc4O)c3)c2)n1 (3D coordinates assigned)
Cc1cccc(C(=O)[N-]c2cccc(C(=O)[N-]c3cccc(C=Cc4ccccc4O)c3)c2)n1 (optimized conformer: 84.77545952205404 kcal/mol)

>  <smiles>  (15) 
Cc1cccc(C(=O)Nc2cccc(C(=O)Nc3cccc(C=Cc4ccccc4O)c3)c2)n1

>  <score_type>  (15) 
oracle

>  <origin>  (15) 
adg

>  <m_score__min__energy>  (15) 
-13.27

>  <m_primary>  (15) 
energy

$$$$
15:0
     RDKit          3D

 50 52  0  0  0  0  0  0  0  0999 V2000
   64.8620   33.2560   48.7690 N   0  0  0  0  0  0  0  0  0  0  0  0
   63.5850   33.0210   47.6290 S   0  0  0  0  0  0  0  0  0  0  0  0
   63.7990   33.9100   46.4370 O   0  0  0  0  0  0  0  0  0  0  0  0
   63.5950   31.5870   47.1790 O   0  0  0  0  0  0  0  0  0  0  0  0
   62.0420   33.4140   48.3840 C   0  0  0  0  0  0  0  0  0  0  0  0
   61.9250   33.4780   49.7790 C   0  0  0  0  0  0  0  0  0  0  0  0
   60.6880   33.7560   50.3670 C   0  0  0  0  0  0  0  0  0  0  0  0
   59.5700   33.9950   49.5660 C   0  0  0  0  0  0  0  0  0  0  0  0
   59.6800   33.9730   48.1700 C   0  0  0  0  0  0  0  0  0  0  0  0
   58.5020   34.2030   47.3840 N   0  0  0  0  0  0  0  0  0  0  0  0
   57.7750   33.2230   46.6320 C   0  0  0  0  0  0  0  0  0  0  0  0
   57.7650   32.0150   46.9900 O   0  0  0  0  0  0  0  0  0  0  0  0
   57.0730   33.6290   45.3720 C   0  0  0  0  0  0  0  0  0  0  0  0
   57.4920   32.7670   44.2740 N   0  0  0  0  0  0  0  0  0  0  0  0
   57.3370   31.3450   44.2920 C   0  0  0  0  0  0  0  0  0  0  0  0
   56.2130   30.8270   44.5350 O   0  0  0  0  0  0  0  0  0  0  0  0
   58.5380   30.4720   44.1280 C   0  0  0  0  0  0  0  0  0  0  0  0
   58.2350   29.1090   44.6890 C   0  0  0  0  0  0  0  0  0  0  0  0
   57.9400   28.9590   46.0530 C   0  0  0  0  0  0  0  0  0  0  0  0
   57.5720   27.7100   46.5620 C   0  0  0  0  0  0  0  0  0  0  0  0
   57.5020   26.5910   45.7140 C   0  0  0  0  0  0  0  0  0  0  0  0
   57.0860   25.3010   46.1840 N   0  0  0  0  0  0  0  0  0  0  0  0
   55.9230   24.5690   45.7740 C   0  0  0  0  0  0  0  0  0  0  0  0
   54.7860   24.8810   46.2250 O   0  0  0  0  0  0  0  0  0  0  0  0
   56.0590   23.4190   44.8530 C   0  0  0  0  0  0  0  0  0  0  0  0
   56.1310   23.6200   43.4640 C   0  0  0  0  0  0  0  0  0  0  0  0
   56.2820   22.5230   42.6120 C   0  0  0  0  0  0  0  0  0  0  0  0
   56.3570   21.2670   43.1250 N   0  0  0  0  0  0  0  0  0  0  0  0
   56.2880   21.0390   44.4630 C   0  0  0  0  0  0  0  0  0  0  0  0
   56.1360   22.1070   45.3500 C   0  0  0  0  0  0  0  0  0  0  0  0
   57.7650   26.7510   44.3480 C   0  0  0  0  0  0  0  0  0  0  0  0
   58.1310   28.0000   43.8380 C   0  0  0  0  0  0  0  0  0  0  0  0
   60.9180   33.6560   47.5820 C   0  0  0  0  0  0  0  0  0  0  0  0
   65.7610   33.0960   48.2620 H   0  0  0  0  0  0  0  0  0  0  0  0
   62.8084   33.3091   50.4123 H   0  0  0  0  0  0  0  0  0  0  0  0
   60.5952   33.7865   51.4627 H   0  0  0  0  0  0  0  0  0  0  0  0
   58.5964   34.2019   50.0343 H   0  0  0  0  0  0  0  0  0  0  0  0
   55.9860   33.5375   45.5138 H   0  0  0  0  0  0  0  0  0  0  0  0
   57.3291   34.6718   45.1333 H   0  0  0  0  0  0  0  0  0  0  0  0
   58.7866   30.3840   43.0601 H   0  0  0  0  0  0  0  0  0  0  0  0
   59.3924   30.9120   44.6632 H   0  0  0  0  0  0  0  0  0  0  0  0
   57.9986   29.8282   46.7246 H   0  0  0  0  0  0  0  0  0  0  0  0
   57.3361   27.6024   47.6310 H   0  0  0  0  0  0  0  0  0  0  0  0
   56.0687   24.6369   43.0492 H   0  0  0  0  0  0  0  0  0  0  0  0
   56.3403   22.6763   41.5243 H   0  0  0  0  0  0  0  0  0  0  0  0
   56.3520   20.0107   44.8483 H   0  0  0  0  0  0  0  0  0  0  0  0
   56.0768   21.9219   46.4327 H   0  0  0  0  0  0  0  0  0  0  0  0
   57.6830   25.8876   43.6714 H   0  0  0  0  0  0  0  0  0  0  0  0
   58.3384   28.1131   42.7637 H   0  0  0  0  0  0  0  0  0  0  0  0
   61.0045   33.5977   46.4870 H   0  0  0  0  0  0  0  0  0  0  0  0
  1  2  1  0
  2  3  2  0
  2  4  2  0
  2  5  1  0
  5  6  2  0
  6  7  1  0
  7  8  2  0
  8  9  1  0
  9 10  1  0
 10 11  1  0
 11 12  2  0
 11 13  1  0
 13 14  1  0
 14 15  1  0
 15 16  2  0
 15 17  1  0
 17 18  1  0
 18 19  2  0
 19 20  1  0
 20 21  2  0
 21 22  1  0
 22 23  1  0
 23 24  2  0
 23 25  1  0
 25 26  2  0
 26 27  1  0
 27 28  2  0
 28 29  1  0
 29 30  2  0
 21 31  1  0
 31 32  2  0
  9 33  2  0
 33  5  1  0
 32 18  1  0
 30 25  1  0
  1 34  1  0
  6 35  1  0
  7 36  1  0
  8 37  1  0
 13 38  1  0
 13 39  1  0
 17 40  1  0
 17 41  1  0
 19 42  1  0
 20 43  1  0
 26 44  1  0
 27 45  1  0
 29 46  1  0
 30 47  1  0
 31 48  1  0
 32 49  1  0
 33 50  1  0
M  CHG  4   1  -1  10  -1  14  -1  22  -1
M  END
>  <UniqueID>  (16) 
16

>  <SMILES>  (16) 
[NH-]S(=O)(=O)c1cccc([N-]C(=O)C[N-]C(=O)Cc2ccc([N-]C(=O)c3ccncc3)cc2)c1

>  <Energy>  (16) 
47.723287877650996

>  <Genealogy>  (16) 
[NH-]S(=O)(=O)c1cccc([N-]C(=O)C[N-]C(=O)Cc2ccc([N-]C(=O)c3ccncc3)cc2)c1 (protonated)
[NH-]S(=O)(=O)c1cccc([N-]C(=O)C[N-]C(=O)Cc2ccc([N-]C(=O)c3ccncc3)cc2)c1 (3D coordinates assigned)
[NH-]S(=O)(=O)c1cccc([N-]C(=O)C[N-]C(=O)Cc2ccc([N-]C(=O)c3ccncc3)cc2)c1 (optimized conformer: 47.723287877650996 kcal/mol)

>  <smiles>  (16) 
NS(=O)(=O)c1cccc(NC(=O)CNC(=O)Cc2ccc(NC(=O)c3ccncc3)cc2)c1

>  <score_type>  (16) 
oracle

>  <origin>  (16) 
adg

>  <m_score__min__energy>  (16) 
-15.43

>  <m_primary>  (16) 
energy

$$$$
16:0
     RDKit          3D

 33 34  0  0  0  0  0  0  0  0999 V2000
   55.7580   29.0010   44.9310 N   0  0  0  0  0  0  0  0  0  0  0  0
   57.4740   29.0450   45.1220 S   0  0  0  0  0  0  0  0  0  0  0  0
   58.1030   29.6340   43.8910 O   0  0  0  0  0  0  0  0  0  0  0  0
   57.8240   29.9090   46.3020 O   0  0  0  0  0  0  0  0  0  0  0  0
   58.0790   27.4120   45.3780 C   0  0  0  0  0  0  0  0  0  0  0  0
   58.9570   27.1450   46.4370 C   0  0  0  0  0  0  0  0  0  0  0  0
   59.4500   25.8510   46.6330 C   0  0  0  0  0  0  0  0  0  0  0  0
   59.0610   24.8060   45.7750 C   0  0  0  0  0  0  0  0  0  0  0  0
   59.5680   23.4730   45.9250 N   0  0  0  0  0  0  0  0  0  0  0  0
   59.1330   22.3190   45.1950 C   0  0  0  0  0  0  0  0  0  0  0  0
   59.3340   22.2280   43.9540 O   0  0  0  0  0  0  0  0  0  0  0  0
   58.4920   21.1810   45.9240 C   0  0  0  0  0  0  0  0  0  0  0  0
   57.0830   21.3850   46.0330 O   0  0  0  0  0  0  0  0  0  0  0  0
   56.4420   22.6340   46.0390 C   0  0  0  0  0  0  0  0  0  0  0  0
   56.5910   23.5600   47.0910 C   0  0  0  0  0  0  0  0  0  0  0  0
   55.9340   24.7950   47.0410 C   0  0  0  0  0  0  0  0  0  0  0  0
   55.1220   25.1140   45.9480 C   0  0  0  0  0  0  0  0  0  0  0  0
   54.4710   26.3400   45.9000 O   0  0  0  0  0  0  0  0  0  0  0  0
   54.9670   24.1980   44.9050 C   0  0  0  0  0  0  0  0  0  0  0  0
   55.6240   22.9640   44.9510 C   0  0  0  0  0  0  0  0  0  0  0  0
   58.2090   25.0850   44.6990 C   0  0  0  0  0  0  0  0  0  0  0  0
   57.7160   26.3790   44.5040 C   0  0  0  0  0  0  0  0  0  0  0  0
   55.4810   27.9950   44.8920 H   0  0  0  0  0  0  0  0  0  0  0  0
   59.2594   27.9557   47.1162 H   0  0  0  0  0  0  0  0  0  0  0  0
   60.1449   25.6494   47.4615 H   0  0  0  0  0  0  0  0  0  0  0  0
   58.6808   20.2471   45.3742 H   0  0  0  0  0  0  0  0  0  0  0  0
   58.9212   21.1203   46.9350 H   0  0  0  0  0  0  0  0  0  0  0  0
   57.2257   23.3114   47.9543 H   0  0  0  0  0  0  0  0  0  0  0  0
   56.0566   25.5158   47.8628 H   0  0  0  0  0  0  0  0  0  0  0  0
   54.3271   24.4475   44.0458 H   0  0  0  0  0  0  0  0  0  0  0  0
   55.4973   22.2472   44.1263 H   0  0  0  0  0  0  0  0  0  0  0  0
   57.9259   24.2815   44.0031 H   0  0  0  0  0  0  0  0  0  0  0  0
   57.0405   26.5866   43.6610 H   0  0  0  0  0  0  0  0  0  0  0  0
  1  2  1  0
  2  3  2  0
  2  4  2  0
  2  5  1  0
  5  6  2  0
  6  7  1  0
  7  8  2  0
  8  9  1  0
  9 10  1  0
 10 11  2  0
 10 12  1  0
 12 13  1  0
 13 14  1  0
 14 15  2  0
 15 16  1  0
 16 17  2  0
 17 18  1  0
 17 19  1  0
 19 20  2  0
  8 21  1  0
 21 22  2  0
 22  5  1  0
 20 14  1  0
  1 23  1  0
  6 24  1  0
  7 25  1  0
 12 26  1  0
 12 27  1  0
 15 28  1  0
 16 29  1  0
 19 30  1  0
 20 31  1  0
 21 32  1  0
 22 33  1  0
M  CHG  3   1  -1   9  -1  18  -1
M  END
>  <UniqueID>  (17) 
17

>  <SMILES>  (17) 
[NH-]S(=O)(=O)c1ccc([N-]C(=O)COc2ccc([O-])cc2)cc1

>  <Energy>  (17) 
35.64625617946151

>  <Genealogy>  (17) 
[NH-]S(=O)(=O)c1ccc([N-]C(=O)COc2ccc([O-])cc2)cc1 (protonated)
[NH-]S(=O)(=O)c1ccc([N-]C(=O)COc2ccc([O-])cc2)cc1 (3D coordinates assigned)
[NH-]S(=O)(=O)c1ccc([N-]C(=O)COc2ccc([O-])cc2)cc1 (optimized conformer: 35.64625617946151 kcal/mol)

>  <smiles>  (17) 
NS(=O)(=O)c1ccc(NC(=O)COc2ccc(O)cc2)cc1

>  <score_type>  (17) 
oracle

>  <origin>  (17) 
adg

>  <m_score__min__energy>  (17) 
-12.19

>  <m_primary>  (17) 
energy

$$$$
17:0
     RDKit          3D

 46 48  0  0  0  0  0  0  0  0999 V2000
   62.2630   33.8440   51.7690 N   0  0  0  0  0  0  0  0  0  0  0  0
   61.1090   33.2400   50.6330 S   0  0  0  0  0  0  0  0  0  0  0  0
   60.8810   31.7780   50.8930 O   0  0  0  0  0  0  0  0  0  0  0  0
   59.8050   33.9700   50.8000 O   0  0  0  0  0  0  0  0  0  0  0  0
   61.7030   33.4830   48.9930 C   0  0  0  0  0  0  0  0  0  0  0  0
   63.0780   33.4880   48.7190 C   0  0  0  0  0  0  0  0  0  0  0  0
   63.5300   33.6600   47.4090 C   0  0  0  0  0  0  0  0  0  0  0  0
   62.6140   33.8460   46.3700 C   0  0  0  0  0  0  0  0  0  0  0  0
   61.2390   33.8620   46.6310 C   0  0  0  0  0  0  0  0  0  0  0  0
   60.3330   34.0830   45.5400 N   0  0  0  0  0  0  0  0  0  0  0  0
   58.6050   33.9560   45.6370 S   0  0  0  0  0  0  0  0  0  0  0  0
   57.9910   34.7040   44.4860 O   0  0  0  0  0  0  0  0  0  0  0  0
   58.1360   34.5700   46.9250 O   0  0  0  0  0  0  0  0  0  0  0  0
   58.1260   32.2600   45.6060 C   0  0  0  0  0  0  0  0  0  0  0  0
   57.3910   31.7460   44.5300 C   0  0  0  0  0  0  0  0  0  0  0  0
   57.0470   30.3920   44.4950 C   0  0  0  0  0  0  0  0  0  0  0  0
   57.4230   29.5340   45.5390 C   0  0  0  0  0  0  0  0  0  0  0  0
   57.0460   28.1460   45.4780 N   0  0  0  0  0  0  0  0  0  0  0  0
   57.6150   27.1020   46.3310 C   0  0  0  0  0  0  0  0  0  0  0  0
   57.0190   25.7590   45.9870 C   0  0  0  0  0  0  0  0  0  0  0  0
   57.8500   24.6370   45.8250 C   0  0  0  0  0  0  0  0  0  0  0  0
   57.3000   23.3840   45.5330 C   0  0  0  0  0  0  0  0  0  0  0  0
   58.1410   22.2840   45.3810 O   0  0  0  0  0  0  0  0  0  0  0  0
   55.9120   23.2460   45.3990 C   0  0  0  0  0  0  0  0  0  0  0  0
   55.0790   24.3570   45.5540 C   0  0  0  0  0  0  0  0  0  0  0  0
   55.6250   25.6100   45.8480 C   0  0  0  0  0  0  0  0  0  0  0  0
   54.7770   26.7040   46.0000 O   0  0  0  0  0  0  0  0  0  0  0  0
   58.1690   30.0540   46.6140 C   0  0  0  0  0  0  0  0  0  0  0  0
   58.5150   31.4080   46.6450 C   0  0  0  0  0  0  0  0  0  0  0  0
   60.7880   33.6640   47.9490 C   0  0  0  0  0  0  0  0  0  0  0  0
   61.8510   33.7180   52.7220 H   0  0  0  0  0  0  0  0  0  0  0  0
   63.8016   33.3563   49.5369 H   0  0  0  0  0  0  0  0  0  0  0  0
   64.6088   33.6491   47.1945 H   0  0  0  0  0  0  0  0  0  0  0  0
   62.9761   33.9807   45.3401 H   0  0  0  0  0  0  0  0  0  0  0  0
   57.0834   32.4108   43.7094 H   0  0  0  0  0  0  0  0  0  0  0  0
   56.4768   29.9959   43.6418 H   0  0  0  0  0  0  0  0  0  0  0  0
   56.2280   27.8820   44.8810 H   0  0  0  0  0  0  0  0  0  0  0  0
   58.7040   27.0645   46.1805 H   0  0  0  0  0  0  0  0  0  0  0  0
   57.3864   27.3354   47.3814 H   0  0  0  0  0  0  0  0  0  0  0  0
   58.9398   24.7447   45.9285 H   0  0  0  0  0  0  0  0  0  0  0  0
   57.9550   21.5680   44.6880 H   0  0  0  0  0  0  0  0  0  0  0  0
   55.4775   22.2614   45.1714 H   0  0  0  0  0  0  0  0  0  0  0  0
   53.9902   24.2454   45.4444 H   0  0  0  0  0  0  0  0  0  0  0  0
   58.4813   29.3909   47.4342 H   0  0  0  0  0  0  0  0  0  0  0  0
   59.0959   31.8054   47.4904 H   0  0  0  0  0  0  0  0  0  0  0  0
   59.7086   33.6513   48.1606 H   0  0  0  0  0  0  0  0  0  0  0  0
  1  2  1  0
  2  3  2  0
  2  4  2  0
  2  5  1  0
  5  6  2  0
  6  7  1  0
  7  8  2  0
  8  9  1  0
  9 10  1  0
 10 11  1  0
 11 12  2  0
 11 13  2  0
 11 14  1  0
 14 15  2  0
 15 16  1  0
 16 17  2  0
 17 18  1  0
 18 19  1  0
 19 20  1  0
 20 21  2  0
 21 22  1  0
 22 23  1  0
 22 24  2  0
 24 25  1  0
 25 26  2  0
 26 27  1  0
 17 28  1  0
 28 29  2  0
  9 30  2  0
 30  5  1  0
 29 14  1  0
 26 20  1  0
  1 31  1  0
  6 32  1  0
  7 33  1  0
  8 34  1  0
 15 35  1  0
 16 36  1  0
 18 37  1  0
 19 38  1  0
 19 39  1  0
 21 40  1  0
 23 41  1  0
 24 42  1  0
 25 43  1  0
 28 44  1  0
 29 45  1  0
 30 46  1  0
M  CHG  3   1  -1  10  -1  27  -1
M  END
>  <UniqueID>  (18) 
18

>  <SMILES>  (18) 
[NH-]S(=O)(=O)c1cccc([N-]S(=O)(=O)c2ccc(NCc3cc(O)ccc3[O-])cc2)c1

>  <Energy>  (18) 
50.24974233830243

>  <Genealogy>  (18) 
[NH-]S(=O)(=O)c1cccc([N-]S(=O)(=O)c2ccc(NCc3cc(O)ccc3[O-])cc2)c1 (protonated)
[NH-]S(=O)(=O)c1cccc([N-]S(=O)(=O)c2ccc(NCc3cc(O)ccc3[O-])cc2)c1 (3D coordinates assigned)
[NH-]S(=O)(=O)c1cccc([N-]S(=O)(=O)c2ccc(NCc3cc(O)ccc3[O-])cc2)c1 (optimized conformer: 50.24974233830243 kcal/mol)

>  <smiles>  (18) 
NS(=O)(=O)c1cccc(NS(=O)(=O)c2ccc(NCc3cc(O)ccc3O)cc2)c1

>  <score_type>  (18) 
oracle

>  <origin>  (18) 
adg

>  <m_score__min__energy>  (18) 
-15.33

>  <m_primary>  (18) 
energy

$$$$
18:0
     RDKit          3D

 42 44  0  0  0  0  0  0  0  0999 V2000
   58.0040   33.1110   46.1220 C   0  0  0  0  0  0  0  0  0  0  0  0
   58.4920   32.2490   47.2590 C   0  0  0  0  0  0  0  0  0  0  0  0
   58.3270   32.7150   48.5750 C   0  0  0  0  0  0  0  0  0  0  0  0
   58.7920   31.9660   49.6640 C   0  0  0  0  0  0  0  0  0  0  0  0
   58.6260   32.4760   51.0450 C   0  0  0  0  0  0  0  0  0  0  0  0
   59.2790   33.6710   51.3920 C   0  0  0  0  0  0  0  0  0  0  0  0
   59.2250   34.1570   52.6980 C   0  0  0  0  0  0  0  0  0  0  0  0
   58.5220   33.4560   53.6750 C   0  0  0  0  0  0  0  0  0  0  0  0
   57.8570   32.2740   53.3480 C   0  0  0  0  0  0  0  0  0  0  0  0
   57.8830   31.7720   52.0330 C   0  0  0  0  0  0  0  0  0  0  0  0
   57.0920   30.5520   51.7300 C   0  0  0  0  0  0  0  0  0  0  0  0
   55.8370   30.6000   51.6340 O   0  0  0  0  0  0  0  0  0  0  0  0
   57.7280   29.3240   51.5930 O   0  0  0  0  0  0  0  0  0  0  0  0
   59.4640   30.7610   49.4340 C   0  0  0  0  0  0  0  0  0  0  0  0
   59.6210   30.2790   48.1350 C   0  0  0  0  0  0  0  0  0  0  0  0
   59.0970   30.9840   47.0330 C   0  0  0  0  0  0  0  0  0  0  0  0
   59.2780   30.4310   45.6280 C   0  0  0  0  0  0  0  0  0  0  0  0
   58.9140   28.9610   45.5080 C   0  0  0  0  0  0  0  0  0  0  0  0
   59.9220   28.0070   45.7460 C   0  0  0  0  0  0  0  0  0  0  0  0
   59.6380   26.6420   45.7200 C   0  0  0  0  0  0  0  0  0  0  0  0
   58.3420   26.2050   45.4610 C   0  0  0  0  0  0  0  0  0  0  0  0
   57.3260   27.1290   45.2200 C   0  0  0  0  0  0  0  0  0  0  0  0
   57.5910   28.5120   45.2260 C   0  0  0  0  0  0  0  0  0  0  0  0
   56.4630   29.4380   44.9530 C   0  0  0  0  0  0  0  0  0  0  0  0
   56.6760   30.6740   44.8380 O   0  0  0  0  0  0  0  0  0  0  0  0
   55.1580   28.9740   44.8670 O   0  0  0  0  0  0  0  0  0  0  0  0
   57.5001   34.0011   46.5268 H   0  0  0  0  0  0  0  0  0  0  0  0
   58.8595   33.4228   45.5049 H   0  0  0  0  0  0  0  0  0  0  0  0
   57.2964   32.5379   45.5049 H   0  0  0  0  0  0  0  0  0  0  0  0
   57.8271   33.6787   48.7518 H   0  0  0  0  0  0  0  0  0  0  0  0
   59.8381   34.2284   50.6261 H   0  0  0  0  0  0  0  0  0  0  0  0
   59.7381   35.0949   52.9569 H   0  0  0  0  0  0  0  0  0  0  0  0
   58.4911   33.8354   54.7071 H   0  0  0  0  0  0  0  0  0  0  0  0
   57.3055   31.7275   54.1273 H   0  0  0  0  0  0  0  0  0  0  0  0
   59.8707   30.1907   50.2822 H   0  0  0  0  0  0  0  0  0  0  0  0
   60.1613   29.3355   47.9681 H   0  0  0  0  0  0  0  0  0  0  0  0
   58.6388   31.0059   44.9417 H   0  0  0  0  0  0  0  0  0  0  0  0
   60.3450   30.5234   45.3770 H   0  0  0  0  0  0  0  0  0  0  0  0
   60.9482   28.3433   45.9554 H   0  0  0  0  0  0  0  0  0  0  0  0
   60.4384   25.9103   45.9042 H   0  0  0  0  0  0  0  0  0  0  0  0
   58.1188   25.1280   45.4464 H   0  0  0  0  0  0  0  0  0  0  0  0
   56.3041   26.7730   45.0226 H   0  0  0  0  0  0  0  0  0  0  0  0
  1  2  1  0
  2  3  2  0
  3  4  1  0
  4  5  1  0
  5  6  2  0
  6  7  1  0
  7  8  2  0
  8  9  1  0
  9 10  2  0
 10 11  1  0
 11 12  2  0
 11 13  1  0
  4 14  2  0
 14 15  1  0
 15 16  2  0
 16 17  1  0
 17 18  1  0
 18 19  2  0
 19 20  1  0
 20 21  2  0
 21 22  1  0
 22 23  2  0
 23 24  1  0
 24 25  2  0
 24 26  1  0
 16  2  1  0
 23 18  1  0
 10  5  1  0
  1 27  1  0
  1 28  1  0
  1 29  1  0
  3 30  1  0
  6 31  1  0
  7 32  1  0
  8 33  1  0
  9 34  1  0
 14 35  1  0
 15 36  1  0
 17 37  1  0
 17 38  1  0
 19 39  1  0
 20 40  1  0
 21 41  1  0
 22 42  1  0
M  CHG  2  13  -1  26  -1
M  END
>  <UniqueID>  (19) 
19

>  <SMILES>  (19) 
Cc1cc(-c2ccccc2C(=O)[O-])ccc1Cc1ccccc1C(=O)[O-]

>  <Energy>  (19) 
63.535596318450864

>  <Genealogy>  (19) 
Cc1cc(-c2ccccc2C(=O)[O-])ccc1Cc1ccccc1C(=O)[O-] (protonated)
Cc1cc(-c2ccccc2C(=O)[O-])ccc1Cc1ccccc1C(=O)[O-] (3D coordinates assigned)
Cc1cc(-c2ccccc2C(=O)[O-])ccc1Cc1ccccc1C(=O)[O-] (optimized conformer: 63.535596318450864 kcal/mol)

>  <smiles>  (19) 
Cc1cc(-c2ccccc2C(=O)O)ccc1Cc1ccccc1C(=O)O

>  <score_type>  (19) 
oracle

>  <origin>  (19) 
adg

>  <m_score__min__energy>  (19) 
-13.390000000000001

>  <m_primary>  (19) 
energy

$$$$
19:0
     RDKit          3D

 41 43  0  0  0  0  0  0  0  0999 V2000
   57.9191   25.1499   42.0752 H   0  0  0  0  0  0  0  0  0  0  0  0
   57.7660   25.6320   43.0520 C   0  0  0  0  0  0  0  0  0  0  0  0
   58.0030   27.0020   43.1980 C   0  0  0  0  0  0  0  0  0  0  0  0
   58.3334   27.5958   42.3330 H   0  0  0  0  0  0  0  0  0  0  0  0
   57.8210   27.6240   44.4450 C   0  0  0  0  0  0  0  0  0  0  0  0
   58.0520   29.0770   44.6110 C   0  0  0  0  0  0  0  0  0  0  0  0
   59.1110   29.6420   45.2980 C   0  0  0  0  0  0  0  0  0  0  0  0
   59.9201   29.0880   45.7964 H   0  0  0  0  0  0  0  0  0  0  0  0
   58.9880   30.9820   45.2560 N   0  0  0  0  0  0  0  0  0  0  0  0
   59.6300   31.6730   45.7030 H   0  0  0  0  0  0  0  0  0  0  0  0
   57.8700   31.2120   44.5360 C   0  0  0  0  0  0  0  0  0  0  0  0
   57.4000   32.3980   44.2650 N   0  0  0  0  0  0  0  0  0  0  0  0
   57.0520   33.4160   45.2550 C   0  0  0  0  0  0  0  0  0  0  0  0
   56.1972   33.0628   45.8505 H   0  0  0  0  0  0  0  0  0  0  0  0
   56.7929   34.3464   44.7284 H   0  0  0  0  0  0  0  0  0  0  0  0
   58.2150   33.6880   46.1730 C   0  0  0  0  0  0  0  0  0  0  0  0
   58.2110   33.2130   47.4930 C   0  0  0  0  0  0  0  0  0  0  0  0
   57.3521   32.6336   47.8624 H   0  0  0  0  0  0  0  0  0  0  0  0
   59.2910   33.4710   48.3420 C   0  0  0  0  0  0  0  0  0  0  0  0
   59.2809   33.0884   49.3733 H   0  0  0  0  0  0  0  0  0  0  0  0
   60.3920   34.2190   47.8820 C   0  0  0  0  0  0  0  0  0  0  0  0
   61.5000   34.5050   48.6930 O   0  0  0  0  0  0  0  0  0  0  0  0
   62.7560   33.8390   48.6010 C   0  0  0  0  0  0  0  0  0  0  0  0
   63.1384   33.6362   49.6123 H   0  0  0  0  0  0  0  0  0  0  0  0
   62.6289   32.8898   48.0599 H   0  0  0  0  0  0  0  0  0  0  0  0
   63.4704   34.4768   48.0599 H   0  0  0  0  0  0  0  0  0  0  0  0
   60.3890   34.7010   46.5670 C   0  0  0  0  0  0  0  0  0  0  0  0
   61.2439   35.2871   46.1986 H   0  0  0  0  0  0  0  0  0  0  0  0
   59.3080   34.4430   45.7190 C   0  0  0  0  0  0  0  0  0  0  0  0
   59.3138   34.8336   44.6907 H   0  0  0  0  0  0  0  0  0  0  0  0
   57.2790   30.0730   44.1160 N   0  0  0  0  0  0  0  0  0  0  0  0
   56.0740   29.9650   43.2930 C   0  0  0  0  0  0  0  0  0  0  0  0
   55.1911   29.8859   43.9443 H   0  0  0  0  0  0  0  0  0  0  0  0
   55.9824   30.8585   42.6580 H   0  0  0  0  0  0  0  0  0  0  0  0
   56.1427   29.0694   42.6580 H   0  0  0  0  0  0  0  0  0  0  0  0
   57.3700   26.8580   45.5330 C   0  0  0  0  0  0  0  0  0  0  0  0
   57.2014   27.3390   46.5078 H   0  0  0  0  0  0  0  0  0  0  0  0
   57.1340   25.4870   45.3840 C   0  0  0  0  0  0  0  0  0  0  0  0
   56.7901   24.8919   46.2428 H   0  0  0  0  0  0  0  0  0  0  0  0
   57.3350   24.8730   44.1440 C   0  0  0  0  0  0  0  0  0  0  0  0
   57.0100   23.0030   43.9410 Br  0  0  0  0  0  0  0  0  0  0  0  0
  1  2  1  0
  2  3  2  0
  3  4  1  0
  3  5  1  0
  5  6  1  0
  6  7  2  0
  7  8  1  0
  7  9  1  0
  9 10  1  0
  9 11  1  0
 11 12  2  0
 12 13  1  0
 13 14  1  0
 13 15  1  0
 13 16  1  0
 16 17  2  0
 17 18  1  0
 17 19  1  0
 19 20  1  0
 19 21  2  0
 21 22  1  0
 22 23  1  0
 23 24  1  0
 23 25  1  0
 23 26  1  0
 21 27  1  0
 27 28  1  0
 27 29  2  0
 29 30  1  0
 11 31  1  0
 31 32  1  0
 32 33  1  0
 32 34  1  0
 32 35  1  0
  5 36  2  0
 36 37  1  0
 36 38  1  0
 38 39  1  0
 38 40  2  0
 40 41  1  0
 40  2  1  0
 31  6  1  0
 29 16  1  0
M  END
>  <UniqueID>  (20) 
20

>  <SMILES>  (20) 
COc1ccc(C/N=c2\[nH]cc(-c3ccc(Br)cc3)n2C)cc1

>  <Energy>  (20) 
78.260759983815

>  <Genealogy>  (20) 
COc1ccc(C/N=c2\[nH]cc(-c3ccc(Br)cc3)n2C)cc1 (cis-trans isomerization)
COc1ccc(C/N=c2\[nH]cc(-c3ccc(Br)cc3)n2C)cc1 (3D coordinates assigned)
COc1ccc(C/N=c2\[nH]cc(-c3ccc(Br)cc3)n2C)cc1 (optimized conformer: 78.260759983815 kcal/mol)

>  <smiles>  (20) 
COc1ccc(CN=c2[nH]cc(-c3ccc(Br)cc3)n2C)cc1

>  <score_type>  (20) 
oracle

>  <origin>  (20) 
adg

>  <m_score__min__energy>  (20) 
-7.0499999999999998

>  <m_primary>  (20) 
energy

$$$$
20:0
     RDKit          3D

 39 41  0  0  0  0  0  0  0  0999 V2000
   55.9970   30.4640   42.6390 O   0  0  0  0  0  0  0  0  0  0  0  0
   56.9430   30.7210   43.4310 C   0  0  0  0  0  0  0  0  0  0  0  0
   57.5350   32.0280   43.3990 N   0  0  0  0  0  0  0  0  0  0  0  0
   57.9350   32.8090   44.5360 C   0  0  0  0  0  0  0  0  0  0  0  0
   58.8770   33.8490   44.4300 C   0  0  0  0  0  0  0  0  0  0  0  0
   59.2320   34.5950   45.5570 C   0  0  0  0  0  0  0  0  0  0  0  0
   58.6700   34.2960   46.8000 C   0  0  0  0  0  0  0  0  0  0  0  0
   57.7520   33.2490   46.9190 C   0  0  0  0  0  0  0  0  0  0  0  0
   57.3920   32.5020   45.7910 C   0  0  0  0  0  0  0  0  0  0  0  0
   57.4240   29.6640   44.3490 C   0  0  0  0  0  0  0  0  0  0  0  0
   58.8020   29.5160   44.5700 C   0  0  0  0  0  0  0  0  0  0  0  0
   59.2840   28.4690   45.3560 C   0  0  0  0  0  0  0  0  0  0  0  0
   58.3970   27.5560   45.9280 C   0  0  0  0  0  0  0  0  0  0  0  0
   57.0120   27.7050   45.7500 C   0  0  0  0  0  0  0  0  0  0  0  0
   56.0670   26.6730   46.3110 C   0  0  0  0  0  0  0  0  0  0  0  0
   56.6870   25.3020   46.2270 C   0  0  0  0  0  0  0  0  0  0  0  0
   57.3080   24.8710   45.0430 C   0  0  0  0  0  0  0  0  0  0  0  0
   57.9180   23.6150   44.9830 C   0  0  0  0  0  0  0  0  0  0  0  0
   57.9210   22.7820   46.1060 C   0  0  0  0  0  0  0  0  0  0  0  0
   58.5360   21.5370   46.0400 O   0  0  0  0  0  0  0  0  0  0  0  0
   57.3120   23.2040   47.2950 C   0  0  0  0  0  0  0  0  0  0  0  0
   57.3270   22.3720   48.4120 O   0  0  0  0  0  0  0  0  0  0  0  0
   56.6950   24.4610   47.3530 C   0  0  0  0  0  0  0  0  0  0  0  0
   56.5250   28.7790   44.9810 C   0  0  0  0  0  0  0  0  0  0  0  0
   55.1520   28.9690   44.8520 O   0  0  0  0  0  0  0  0  0  0  0  0
   59.3357   34.0756   43.4562 H   0  0  0  0  0  0  0  0  0  0  0  0
   59.9551   35.4188   45.4650 H   0  0  0  0  0  0  0  0  0  0  0  0
   58.9500   34.8849   47.6859 H   0  0  0  0  0  0  0  0  0  0  0  0
   57.3123   33.0118   47.8990 H   0  0  0  0  0  0  0  0  0  0  0  0
   56.6794   31.6699   45.8902 H   0  0  0  0  0  0  0  0  0  0  0  0
   59.5070   30.2306   44.1203 H   0  0  0  0  0  0  0  0  0  0  0  0
   60.3657   28.3629   45.5253 H   0  0  0  0  0  0  0  0  0  0  0  0
   58.7848   26.7150   46.5216 H   0  0  0  0  0  0  0  0  0  0  0  0
   55.8516   26.9109   47.3631 H   0  0  0  0  0  0  0  0  0  0  0  0
   55.1353   26.6829   45.7263 H   0  0  0  0  0  0  0  0  0  0  0  0
   57.3142   25.5253   44.1587 H   0  0  0  0  0  0  0  0  0  0  0  0
   58.3966   23.2811   44.0506 H   0  0  0  0  0  0  0  0  0  0  0  0
   57.7820   21.4660   48.3930 H   0  0  0  0  0  0  0  0  0  0  0  0
   56.2141   24.7914   48.2855 H   0  0  0  0  0  0  0  0  0  0  0  0
  1  2  2  0
  2  3  1  0
  3  4  1  0
  4  5  2  0
  5  6  1  0
  6  7  2  0
  7  8  1  0
  8  9  2  0
  2 10  1  0
 10 11  2  0
 11 12  1  0
 12 13  2  0
 13 14  1  0
 14 15  1  0
 15 16  1  0
 16 17  2  0
 17 18  1  0
 18 19  2  0
 19 20  1  0
 19 21  1  0
 21 22  1  0
 21 23  2  0
 14 24  2  0
 24 25  1  0
  9  4  1  0
 24 10  1  0
 23 16  1  0
  5 26  1  0
  6 27  1  0
  7 28  1  0
  8 29  1  0
  9 30  1  0
 11 31  1  0
 12 32  1  0
 13 33  1  0
 15 34  1  0
 15 35  1  0
 17 36  1  0
 18 37  1  0
 22 38  1  0
 23 39  1  0
M  CHG  3   3  -1  20  -1  25  -1
M  END
>  <UniqueID>  (21) 
21

>  <SMILES>  (21) 
O=C([N-]c1ccccc1)c1cccc(Cc2ccc([O-])c(O)c2)c1[O-]

>  <Energy>  (21) 
46.49588988698879

>  <Genealogy>  (21) 
O=C([N-]c1ccccc1)c1cccc(Cc2ccc([O-])c(O)c2)c1[O-] (protonated)
O=C([N-]c1ccccc1)c1cccc(Cc2ccc([O-])c(O)c2)c1[O-] (3D coordinates assigned)
O=C([N-]c1ccccc1)c1cccc(Cc2ccc([O-])c(O)c2)c1[O-] (optimized conformer: 46.49588988698879 kcal/mol)

>  <smiles>  (21) 
O=C(Nc1ccccc1)c1cccc(Cc2ccc(O)c(O)c2)c1O

>  <score_type>  (21) 
oracle

>  <origin>  (21) 
adg

>  <m_score__min__energy>  (21) 
-15.109999999999999

>  <m_primary>  (21) 
energy

$$$$
21:0
     RDKit          3D

 47 49  0  0  0  0  0  0  0  0999 V2000
   63.3967   31.1508   48.1429 H   0  0  0  0  0  0  0  0  0  0  0  0
   62.3880   31.5040   48.4030 C   0  0  0  0  0  0  0  0  0  0  0  0
   61.5960   32.1400   47.3280 C   0  0  0  0  0  0  0  0  0  0  0  0
   62.0320   33.1540   46.7190 O   0  0  0  0  0  0  0  0  0  0  0  0
   60.3100   31.5970   46.9940 N   0  0  0  0  0  0  0  0  0  0  0  0
   60.0890   30.6320   47.3280 H   0  0  0  0  0  0  0  0  0  0  0  0
   59.3540   32.2670   46.1510 C   0  0  0  0  0  0  0  0  0  0  0  0
   59.2130   33.6650   46.2030 C   0  0  0  0  0  0  0  0  0  0  0  0
   59.8527   34.2541   46.8766 H   0  0  0  0  0  0  0  0  0  0  0  0
   58.2650   34.3110   45.4040 C   0  0  0  0  0  0  0  0  0  0  0  0
   58.1629   35.4053   45.4494 H   0  0  0  0  0  0  0  0  0  0  0  0
   57.4490   33.5710   44.5500 C   0  0  0  0  0  0  0  0  0  0  0  0
   56.7120   34.0831   43.9139 H   0  0  0  0  0  0  0  0  0  0  0  0
   57.5660   32.1800   44.5010 C   0  0  0  0  0  0  0  0  0  0  0  0
   56.9273   31.6014   43.8174 H   0  0  0  0  0  0  0  0  0  0  0  0
   58.4950   31.5150   45.3200 C   0  0  0  0  0  0  0  0  0  0  0  0
   58.6350   30.0850   45.2720 N   0  0  0  0  0  0  0  0  0  0  0  0
   58.4500   29.1720   46.3630 C   0  0  0  0  0  0  0  0  0  0  0  0
   58.1620   29.6360   47.4980 O   0  0  0  0  0  0  0  0  0  0  0  0
   58.5790   27.7070   46.1950 C   0  0  0  0  0  0  0  0  0  0  0  0
   59.8360   27.1250   46.4320 C   0  0  0  0  0  0  0  0  0  0  0  0
   60.6598   27.7458   46.8141 H   0  0  0  0  0  0  0  0  0  0  0  0
   60.0500   25.7690   46.1880 C   0  0  0  0  0  0  0  0  0  0  0  0
   61.0402   25.3273   46.3733 H   0  0  0  0  0  0  0  0  0  0  0  0
   59.0120   24.9730   45.7100 C   0  0  0  0  0  0  0  0  0  0  0  0
   59.1883   23.9074   45.5017 H   0  0  0  0  0  0  0  0  0  0  0  0
   57.7490   25.5250   45.4950 C   0  0  0  0  0  0  0  0  0  0  0  0
   56.9343   24.8884   45.1195 H   0  0  0  0  0  0  0  0  0  0  0  0
   57.5050   26.8870   45.7530 C   0  0  0  0  0  0  0  0  0  0  0  0
   56.1200   27.3940   45.6130 C   0  0  0  0  0  0  0  0  0  0  0  0
   55.1450   26.6940   45.9960 O   0  0  0  0  0  0  0  0  0  0  0  0
   55.8760   28.6650   45.1080 O   0  0  0  0  0  0  0  0  0  0  0  0
   61.9810   31.3210   49.6690 C   0  0  0  0  0  0  0  0  0  0  0  0
   62.7557   31.1708   50.4353 H   0  0  0  0  0  0  0  0  0  0  0  0
   60.5690   31.3060   50.1120 C   0  0  0  0  0  0  0  0  0  0  0  0
   60.0210   32.4730   50.6750 C   0  0  0  0  0  0  0  0  0  0  0  0
   60.6199   33.3951   50.7090 H   0  0  0  0  0  0  0  0  0  0  0  0
   58.7260   32.4710   51.1900 C   0  0  0  0  0  0  0  0  0  0  0  0
   58.3010   33.3940   51.6112 H   0  0  0  0  0  0  0  0  0  0  0  0
   57.9680   31.3000   51.1720 C   0  0  0  0  0  0  0  0  0  0  0  0
   56.9465   31.3006   51.5801 H   0  0  0  0  0  0  0  0  0  0  0  0
   58.5040   30.1280   50.6370 C   0  0  0  0  0  0  0  0  0  0  0  0
   57.9034   29.2064   50.6368 H   0  0  0  0  0  0  0  0  0  0  0  0
   59.8030   30.1110   50.0980 C   0  0  0  0  0  0  0  0  0  0  0  0
   60.3080   28.8900   49.5220 N   0  0  0  0  0  0  0  0  0  0  0  0
   60.3490   27.8360   50.1900 O   0  0  0  0  0  0  0  0  0  0  0  0
   60.8900   28.9040   48.2760 O   0  0  0  0  0  0  0  0  0  0  0  0
  1  2  1  0
  2  3  1  0
  3  4  2  0
  3  5  1  0
  5  6  1  0
  5  7  1  0
  7  8  2  0
  8  9  1  0
  8 10  1  0
 10 11  1  0
 10 12  2  0
 12 13  1  0
 12 14  1  0
 14 15  1  0
 14 16  2  0
 16 17  1  0
 17 18  1  0
 18 19  2  0
 18 20  1  0
 20 21  2  0
 21 22  1  0
 21 23  1  0
 23 24  1  0
 23 25  2  0
 25 26  1  0
 25 27  1  0
 27 28  1  0
 27 29  2  0
 29 30  1  0
 30 31  2  0
 30 32  1  0
  2 33  2  0
 33 34  1  0
 33 35  1  0
 35 36  2  0
 36 37  1  0
 36 38  1  0
 38 39  1  0
 38 40  2  0
 40 41  1  0
 40 42  1  0
 42 43  1  0
 42 44  2  0
 44 45  1  0
 45 46  2  0
 45 47  1  0
 16  7  1  0
 29 20  1  0
 44 35  1  0
M  CHG  4  17  -1  32  -1  45   1  47  -1
M  END
>  <UniqueID>  (22) 
22

>  <SMILES>  (22) 
O=C(/C=C\c1ccccc1[N+](=O)[O-])Nc1ccccc1[N-]C(=O)c1ccccc1C(=O)[O-]

>  <Energy>  (22) 
78.92370256377616

>  <Genealogy>  (22) 
O=C(C=Cc1ccccc1[N+](=O)[O-])Nc1ccccc1[N-]C(=O)c1ccccc1C(=O)[O-] (protonated)
O=C(/C=C\c1ccccc1[N+](=O)[O-])Nc1ccccc1[N-]C(=O)c1ccccc1C(=O)[O-] (cis-trans isomerization)
O=C(/C=C\c1ccccc1[N+](=O)[O-])Nc1ccccc1[N-]C(=O)c1ccccc1C(=O)[O-] (3D coordinates assigned)
O=C(/C=C\c1ccccc1[N+](=O)[O-])Nc1ccccc1[N-]C(=O)c1ccccc1C(=O)[O-] (optimized conformer: 78.92370256377616 kcal/mol)

>  <smiles>  (22) 
O=C(C=Cc1ccccc1[N+](=O)[O-])Nc1ccccc1NC(=O)c1ccccc1C(=O)O

>  <score_type>  (22) 
oracle

>  <origin>  (22) 
adg

>  <m_score__min__energy>  (22) 
-13.65

>  <m_primary>  (22) 
energy

$$$$
22:0
     RDKit          3D

 61 63  0  0  0  0  0  0  0  0999 V2000
   57.2520   21.9160   45.9780 C   0  0  0  0  0  0  0  0  0  0  0  0
   56.4300   22.6420   47.4340 S   0  0  0  0  0  0  0  0  0  0  0  0
   54.8320   22.8050   46.6150 C   0  0  0  0  0  0  0  0  0  0  0  0
   53.9240   21.7490   46.7520 C   0  0  0  0  0  0  0  0  0  0  0  0
   52.6400   21.8480   46.2140 C   0  0  0  0  0  0  0  0  0  0  0  0
   52.2490   23.0040   45.5410 C   0  0  0  0  0  0  0  0  0  0  0  0
   53.1340   24.0770   45.4210 C   0  0  0  0  0  0  0  0  0  0  0  0
   54.4350   23.9910   45.9490 C   0  0  0  0  0  0  0  0  0  0  0  0
   55.3140   25.1810   45.8630 C   0  0  0  0  0  0  0  0  0  0  0  0
   54.8270   26.3420   45.8830 O   0  0  0  0  0  0  0  0  0  0  0  0
   56.7330   25.0100   45.7920 N   0  0  0  0  0  0  0  0  0  0  0  0
   57.7050   26.0660   45.8680 C   0  0  0  0  0  0  0  0  0  0  0  0
   58.0920   26.5970   47.1120 C   0  0  0  0  0  0  0  0  0  0  0  0
   58.9570   27.7030   47.1880 C   0  0  0  0  0  0  0  0  0  0  0  0
   59.2640   28.2570   48.4850 N   0  0  0  0  0  0  0  0  0  0  0  0
   59.0010   29.6100   48.8840 C   0  0  0  0  0  0  0  0  0  0  0  0
   58.5150   29.8240   50.0300 O   0  0  0  0  0  0  0  0  0  0  0  0
   59.3420   30.7100   48.0230 N   0  0  0  0  0  0  0  0  0  0  0  0
   58.8540   32.0490   48.2210 C   0  0  0  0  0  0  0  0  0  0  0  0
   58.2540   32.3470   49.2910 O   0  0  0  0  0  0  0  0  0  0  0  0
   59.0210   33.0860   47.1680 C   0  0  0  0  0  0  0  0  0  0  0  0
   57.9900   33.2970   46.2310 C   0  0  0  0  0  0  0  0  0  0  0  0
   58.0910   34.3130   45.2770 C   0  0  0  0  0  0  0  0  0  0  0  0
   59.2130   35.1390   45.2500 C   0  0  0  0  0  0  0  0  0  0  0  0
   60.2440   34.9460   46.1680 C   0  0  0  0  0  0  0  0  0  0  0  0
   60.1650   33.9220   47.1260 C   0  0  0  0  0  0  0  0  0  0  0  0
   61.2790   33.7010   48.0050 N   0  0  0  0  0  0  0  0  0  0  0  0
   61.2470   34.2140   49.3720 C   0  0  0  0  0  0  0  0  0  0  0  0
   62.5650   32.6320   47.5300 S   0  0  0  0  0  0  0  0  0  0  0  0
   63.6440   32.3230   48.9110 C   0  0  0  0  0  0  0  0  0  0  0  0
   61.9840   31.3200   47.0740 O   0  0  0  0  0  0  0  0  0  0  0  0
   63.3440   33.2430   46.4000 O   0  0  0  0  0  0  0  0  0  0  0  0
   59.4040   28.2990   45.9940 C   0  0  0  0  0  0  0  0  0  0  0  0
   59.0280   27.7760   44.7570 C   0  0  0  0  0  0  0  0  0  0  0  0
   58.1860   26.6550   44.6830 C   0  0  0  0  0  0  0  0  0  0  0  0
   57.7610   26.1370   43.3380 C   0  0  0  0  0  0  0  0  0  0  0  0
   58.0382   21.2216   46.3091 H   0  0  0  0  0  0  0  0  0  0  0  0
   56.5123   21.3710   45.3731 H   0  0  0  0  0  0  0  0  0  0  0  0
   57.7015   22.7173   45.3731 H   0  0  0  0  0  0  0  0  0  0  0  0
   54.2240   20.8357   47.2867 H   0  0  0  0  0  0  0  0  0  0  0  0
   51.9344   21.0110   46.3215 H   0  0  0  0  0  0  0  0  0  0  0  0
   51.2418   23.0711   45.1038 H   0  0  0  0  0  0  0  0  0  0  0  0
   52.8117   24.9962   44.9100 H   0  0  0  0  0  0  0  0  0  0  0  0
   57.7126   26.1406   48.0382 H   0  0  0  0  0  0  0  0  0  0  0  0
   59.5180   27.5890   49.2500 H   0  0  0  0  0  0  0  0  0  0  0  0
   59.9700   30.5150   47.2110 H   0  0  0  0  0  0  0  0  0  0  0  0
   57.0967   32.6555   46.2507 H   0  0  0  0  0  0  0  0  0  0  0  0
   57.2829   34.4611   44.5456 H   0  0  0  0  0  0  0  0  0  0  0  0
   59.2851   35.9439   44.5037 H   0  0  0  0  0  0  0  0  0  0  0  0
   61.1271   35.6013   46.1419 H   0  0  0  0  0  0  0  0  0  0  0  0
   61.2994   33.3739   50.0802 H   0  0  0  0  0  0  0  0  0  0  0  0
   62.1052   34.8831   49.5327 H   0  0  0  0  0  0  0  0  0  0  0  0
   60.3123   34.7713   49.5327 H   0  0  0  0  0  0  0  0  0  0  0  0
   63.0926   32.4809   49.8496 H   0  0  0  0  0  0  0  0  0  0  0  0
   64.0059   31.2851   48.8685 H   0  0  0  0  0  0  0  0  0  0  0  0
   64.5004   33.0120   48.8685 H   0  0  0  0  0  0  0  0  0  0  0  0
   60.0552   29.1845   46.0368 H   0  0  0  0  0  0  0  0  0  0  0  0
   59.3940   28.2455   43.8320 H   0  0  0  0  0  0  0  0  0  0  0  0
   57.0685   25.2930   43.4723 H   0  0  0  0  0  0  0  0  0  0  0  0
   57.2573   26.9391   42.7786 H   0  0  0  0  0  0  0  0  0  0  0  0
   58.6460   25.7997   42.7786 H   0  0  0  0  0  0  0  0  0  0  0  0
  1  2  1  0
  2  3  1  0
  3  4  2  0
  4  5  1  0
  5  6  2  0
  6  7  1  0
  7  8  2  0
  8  9  1  0
  9 10  2  0
  9 11  1  0
 11 12  1  0
 12 13  2  0
 13 14  1  0
 14 15  1  0
 15 16  1  0
 16 17  2  0
 16 18  1  0
 18 19  1  0
 19 20  2  0
 19 21  1  0
 21 22  2  0
 22 23  1  0
 23 24  2  0
 24 25  1  0
 25 26  2  0
 26 27  1  0
 27 28  1  0
 27 29  1  0
 29 30  1  0
 29 31  2  0
 29 32  2  0
 14 33  2  0
 33 34  1  0
 34 35  2  0
 35 36  1  0
  8  3  1  0
 35 12  1  0
 26 21  1  0
  1 37  1  0
  1 38  1  0
  1 39  1  0
  4 40  1  0
  5 41  1  0
  6 42  1  0
  7 43  1  0
 13 44  1  0
 15 45  1  0
 18 46  1  0
 22 47  1  0
 23 48  1  0
 24 49  1  0
 25 50  1  0
 28 51  1  0
 28 52  1  0
 28 53  1  0
 30 54  1  0
 30 55  1  0
 30 56  1  0
 33 57  1  0
 34 58  1  0
 36 59  1  0
 36 60  1  0
 36 61  1  0
M  CHG  1  11  -1
M  END
>  <UniqueID>  (23) 
23

>  <SMILES>  (23) 
CSc1ccccc1C(=O)[N-]c1cc(NC(=O)NC(=O)c2ccccc2N(C)S(C)(=O)=O)ccc1C

>  <Energy>  (23) 
79.35583656992031

>  <Genealogy>  (23) 
CSc1ccccc1C(=O)[N-]c1cc(NC(=O)NC(=O)c2ccccc2N(C)S(C)(=O)=O)ccc1C (protonated)
CSc1ccccc1C(=O)[N-]c1cc(NC(=O)NC(=O)c2ccccc2N(C)S(C)(=O)=O)ccc1C (3D coordinates assigned)
CSc1ccccc1C(=O)[N-]c1cc(NC(=O)NC(=O)c2ccccc2N(C)S(C)(=O)=O)ccc1C (optimized conformer: 79.35583656992031 kcal/mol)

>  <smiles>  (23) 
CSc1ccccc1C(=O)Nc1cc(NC(=O)NC(=O)c2ccccc2N(C)S(C)(=O)=O)ccc1C

>  <score_type>  (23) 
oracle

>  <origin>  (23) 
adg

>  <m_score__min__energy>  (23) 
-11.58

>  <m_primary>  (23) 
energy

$$$$
23:0
     RDKit          3D

 52 55  0  0  0  0  0  0  0  0999 V2000
   57.1860   26.0210   47.1250 O   0  0  0  0  0  0  0  0  0  0  0  0
   56.6080   26.4000   46.0720 C   0  0  0  0  0  0  0  0  0  0  0  0
   57.4140   26.9470   44.9390 C   0  0  0  0  0  0  0  0  0  0  0  0
   57.6200   28.3890   45.1150 N   0  0  0  0  0  0  0  0  0  0  0  0
   58.5900   28.8790   46.0570 C   0  0  0  0  0  0  0  0  0  0  0  0
   59.8600   29.2880   45.6250 C   0  0  0  0  0  0  0  0  0  0  0  0
   60.7790   29.7500   46.5150 N   0  0  0  0  0  0  0  0  0  0  0  0
   60.5000   29.8370   47.8480 C   0  0  0  0  0  0  0  0  0  0  0  0
   61.4640   30.3140   48.7500 C   0  0  0  0  0  0  0  0  0  0  0  0
   61.1690   30.3960   50.1140 C   0  0  0  0  0  0  0  0  0  0  0  0
   59.9120   30.0060   50.5870 C   0  0  0  0  0  0  0  0  0  0  0  0
   58.9450   29.5280   49.6980 C   0  0  0  0  0  0  0  0  0  0  0  0
   59.2300   29.4410   48.3290 C   0  0  0  0  0  0  0  0  0  0  0  0
   58.2810   28.9620   47.4200 C   0  0  0  0  0  0  0  0  0  0  0  0
   56.6090   29.5140   44.2530 S   0  0  0  0  0  0  0  0  0  0  0  0
   55.2420   29.5560   44.8770 O   0  0  0  0  0  0  0  0  0  0  0  0
   56.4760   29.0690   42.8240 O   0  0  0  0  0  0  0  0  0  0  0  0
   57.3040   31.1300   44.3310 C   0  0  0  0  0  0  0  0  0  0  0  0
   57.3970   31.7830   45.5690 C   0  0  0  0  0  0  0  0  0  0  0  0
   57.9590   33.0620   45.6470 C   0  0  0  0  0  0  0  0  0  0  0  0
   58.4330   33.6910   44.4920 C   0  0  0  0  0  0  0  0  0  0  0  0
   58.3460   33.0410   43.2570 C   0  0  0  0  0  0  0  0  0  0  0  0
   57.7830   31.7630   43.1750 C   0  0  0  0  0  0  0  0  0  0  0  0
   55.1820   26.3410   45.9630 N   0  0  0  0  0  0  0  0  0  0  0  0
   54.4460   25.1280   45.6250 C   0  0  0  0  0  0  0  0  0  0  0  0
   55.3880   24.0590   45.1430 C   0  0  0  0  0  0  0  0  0  0  0  0
   55.9040   23.1170   46.0480 C   0  0  0  0  0  0  0  0  0  0  0  0
   56.7690   22.1120   45.6020 C   0  0  0  0  0  0  0  0  0  0  0  0
   57.1220   22.0390   44.2520 C   0  0  0  0  0  0  0  0  0  0  0  0
   56.6100   22.9710   43.3450 C   0  0  0  0  0  0  0  0  0  0  0  0
   55.7450   23.9780   43.7860 C   0  0  0  0  0  0  0  0  0  0  0  0
   58.3904   26.4411   44.9099 H   0  0  0  0  0  0  0  0  0  0  0  0
   56.8735   26.7735   43.9968 H   0  0  0  0  0  0  0  0  0  0  0  0
   60.1153   29.2347   44.5564 H   0  0  0  0  0  0  0  0  0  0  0  0
   61.7180   30.0430   46.1540 H   0  0  0  0  0  0  0  0  0  0  0  0
   62.4535   30.6239   48.3828 H   0  0  0  0  0  0  0  0  0  0  0  0
   61.9281   30.7685   50.8176 H   0  0  0  0  0  0  0  0  0  0  0  0
   59.6838   30.0756   51.6608 H   0  0  0  0  0  0  0  0  0  0  0  0
   57.9583   29.2195   50.0740 H   0  0  0  0  0  0  0  0  0  0  0  0
   57.2886   28.6495   47.7772 H   0  0  0  0  0  0  0  0  0  0  0  0
   57.0276   31.2889   46.4797 H   0  0  0  0  0  0  0  0  0  0  0  0
   58.0280   33.5733   46.6185 H   0  0  0  0  0  0  0  0  0  0  0  0
   58.8742   34.6967   44.5547 H   0  0  0  0  0  0  0  0  0  0  0  0
   58.7208   33.5353   42.3486 H   0  0  0  0  0  0  0  0  0  0  0  0
   57.7159   31.2538   42.2022 H   0  0  0  0  0  0  0  0  0  0  0  0
   53.9140   24.7666   46.5174 H   0  0  0  0  0  0  0  0  0  0  0  0
   53.7283   25.3582   44.8238 H   0  0  0  0  0  0  0  0  0  0  0  0
   55.6270   23.1696   47.1113 H   0  0  0  0  0  0  0  0  0  0  0  0
   57.1719   21.3780   46.3153 H   0  0  0  0  0  0  0  0  0  0  0  0
   57.8026   21.2483   43.9032 H   0  0  0  0  0  0  0  0  0  0  0  0
   56.8878   22.9125   42.2823 H   0  0  0  0  0  0  0  0  0  0  0  0
   55.3430   24.7086   43.0686 H   0  0  0  0  0  0  0  0  0  0  0  0
  1  2  2  0
  2  3  1  0
  3  4  1  0
  4  5  1  0
  5  6  2  0
  6  7  1  0
  7  8  2  0
  8  9  1  0
  9 10  2  0
 10 11  1  0
 11 12  2  0
 12 13  1  0
 13 14  2  0
  4 15  1  0
 15 16  2  0
 15 17  2  0
 15 18  1  0
 18 19  2  0
 19 20  1  0
 20 21  2  0
 21 22  1  0
 22 23  2  0
  2 24  1  0
 24 25  1  0
 25 26  1  0
 26 27  2  0
 27 28  1  0
 28 29  2  0
 29 30  1  0
 30 31  2  0
 14  5  1  0
 23 18  1  0
 31 26  1  0
 13  8  1  0
  3 32  1  0
  3 33  1  0
  6 34  1  0
  7 35  1  0
  9 36  1  0
 10 37  1  0
 11 38  1  0
 12 39  1  0
 14 40  1  0
 19 41  1  0
 20 42  1  0
 21 43  1  0
 22 44  1  0
 23 45  1  0
 25 46  1  0
 25 47  1  0
 27 48  1  0
 28 49  1  0
 29 50  1  0
 30 51  1  0
 31 52  1  0
M  CHG  2   7   1  24  -1
M  END
>  <UniqueID>  (24) 
24

>  <SMILES>  (24) 
O=C(CN(c1c[nH+]c2ccccc2c1)S(=O)(=O)c1ccccc1)[N-]Cc1ccccc1

>  <Energy>  (24) 
60.50452077037146

>  <Genealogy>  (24) 
O=C(CN(c1c[nH+]c2ccccc2c1)S(=O)(=O)c1ccccc1)[N-]Cc1ccccc1 (protonated)
O=C(CN(c1c[nH+]c2ccccc2c1)S(=O)(=O)c1ccccc1)[N-]Cc1ccccc1 (3D coordinates assigned)
O=C(CN(c1c[nH+]c2ccccc2c1)S(=O)(=O)c1ccccc1)[N-]Cc1ccccc1 (optimized conformer: 60.50452077037146 kcal/mol)

>  <smiles>  (24) 
O=C(CN(c1cnc2ccccc2c1)S(=O)(=O)c1ccccc1)NCc1ccccc1

>  <score_type>  (24) 
oracle

>  <origin>  (24) 
adg

>  <m_score__min__energy>  (24) 
-9.9299999999999997

>  <m_primary>  (24) 
energy

$$$$
24:0
     RDKit          3D

 43 44  0  0  0  0  0  0  0  0999 V2000
   55.1410   28.9810   44.8660 O   0  0  0  0  0  0  0  0  0  0  0  0
   56.1700   29.6730   44.6420 C   0  0  0  0  0  0  0  0  0  0  0  0
   56.0450   31.0400   44.4260 O   0  0  0  0  0  0  0  0  0  0  0  0
   57.5120   29.0210   44.5540 C   0  0  0  0  0  0  0  0  0  0  0  0
   58.6130   30.0790   44.4370 C   0  0  0  0  0  0  0  0  0  0  0  0
   59.9150   29.5970   45.0970 C   0  0  0  0  0  0  0  0  0  0  0  0
   59.7510   29.3540   46.6110 C   0  0  0  0  0  0  0  0  0  0  0  0
   58.9150   30.4340   47.3220 C   0  0  0  0  0  0  0  0  0  0  0  0
   59.3260   31.7990   46.9320 N   0  0  0  0  0  0  0  0  0  0  0  0
   58.3740   32.6930   46.5240 C   0  0  0  0  0  0  0  0  0  0  0  0
   57.0330   32.3120   46.4430 O   0  0  0  0  0  0  0  0  0  0  0  0
   58.7350   33.9930   46.1880 C   0  0  0  0  0  0  0  0  0  0  0  0
   60.0690   34.3700   46.2740 C   0  0  0  0  0  0  0  0  0  0  0  0
   60.3860   35.5540   45.9730 O   0  0  0  0  0  0  0  0  0  0  0  0
   61.0180   33.4690   46.6810 N   0  0  0  0  0  0  0  0  0  0  0  0
   62.4400   33.8640   46.7540 C   0  0  0  0  0  0  0  0  0  0  0  0
   62.9530   33.7310   48.1640 C   0  0  0  0  0  0  0  0  0  0  0  0
   62.2210   34.2640   49.2380 C   0  0  0  0  0  0  0  0  0  0  0  0
   62.7110   34.1660   50.5440 C   0  0  0  0  0  0  0  0  0  0  0  0
   63.9360   33.5400   50.7880 C   0  0  0  0  0  0  0  0  0  0  0  0
   64.6730   33.0100   49.7260 C   0  0  0  0  0  0  0  0  0  0  0  0
   64.1860   33.1060   48.4180 C   0  0  0  0  0  0  0  0  0  0  0  0
   60.6450   32.1830   46.9970 C   0  0  0  0  0  0  0  0  0  0  0  0
   61.5230   31.3510   47.3610 O   0  0  0  0  0  0  0  0  0  0  0  0
   57.6825   28.4190   45.4587 H   0  0  0  0  0  0  0  0  0  0  0  0
   57.5386   28.3783   43.6617 H   0  0  0  0  0  0  0  0  0  0  0  0
   58.8036   30.2832   43.3731 H   0  0  0  0  0  0  0  0  0  0  0  0
   58.2772   30.9915   44.9513 H   0  0  0  0  0  0  0  0  0  0  0  0
   60.2258   28.6559   44.6197 H   0  0  0  0  0  0  0  0  0  0  0  0
   60.6707   30.3851   44.9635 H   0  0  0  0  0  0  0  0  0  0  0  0
   59.2579   28.3814   46.7556 H   0  0  0  0  0  0  0  0  0  0  0  0
   60.7578   29.3827   47.0531 H   0  0  0  0  0  0  0  0  0  0  0  0
   57.8561   30.2934   47.0594 H   0  0  0  0  0  0  0  0  0  0  0  0
   59.0740   30.3280   48.4053 H   0  0  0  0  0  0  0  0  0  0  0  0
   56.7120   31.6260   45.7690 H   0  0  0  0  0  0  0  0  0  0  0  0
   57.9730   34.7144   45.8579 H   0  0  0  0  0  0  0  0  0  0  0  0
   63.0306   33.2144   46.0912 H   0  0  0  0  0  0  0  0  0  0  0  0
   62.5342   34.9137   46.4388 H   0  0  0  0  0  0  0  0  0  0  0  0
   61.2577   34.7609   49.0507 H   0  0  0  0  0  0  0  0  0  0  0  0
   62.1310   34.5825   51.3807 H   0  0  0  0  0  0  0  0  0  0  0  0
   64.3201   33.4645   51.8160 H   0  0  0  0  0  0  0  0  0  0  0  0
   65.6372   32.5167   49.9185 H   0  0  0  0  0  0  0  0  0  0  0  0
   64.7709   32.6903   47.5843 H   0  0  0  0  0  0  0  0  0  0  0  0
  1  2  2  0
  2  3  1  0
  2  4  1  0
  4  5  1  0
  5  6  1  0
  6  7  1  0
  7  8  1  0
  8  9  1  0
  9 10  1  0
 10 11  1  0
 10 12  2  0
 12 13  1  0
 13 14  2  0
 13 15  1  0
 15 16  1  0
 16 17  1  0
 17 18  2  0
 18 19  1  0
 19 20  2  0
 20 21  1  0
 21 22  2  0
 15 23  1  0
 23 24  2  0
 23  9  1  0
 22 17  1  0
  4 25  1  0
  4 26  1  0
  5 27  1  0
  5 28  1  0
  6 29  1  0
  6 30  1  0
  7 31  1  0
  7 32  1  0
  8 33  1  0
  8 34  1  0
 11 35  1  0
 12 36  1  0
 16 37  1  0
 16 38  1  0
 18 39  1  0
 19 40  1  0
 20 41  1  0
 21 42  1  0
 22 43  1  0
M  CHG  1   3  -1
M  END
>  <UniqueID>  (25) 
25

>  <SMILES>  (25) 
O=C([O-])CCCCCn1c(O)cc(=O)n(Cc2ccccc2)c1=O

>  <Energy>  (25) 
41.38182027939287

>  <Genealogy>  (25) 
O=C([O-])CCCCCn1c(O)cc(=O)n(Cc2ccccc2)c1=O (protonated)
O=C([O-])CCCCCn1c(O)cc(=O)n(Cc2ccccc2)c1=O (3D coordinates assigned)
O=C([O-])CCCCCn1c(O)cc(=O)n(Cc2ccccc2)c1=O (optimized conformer: 41.38182027939287 kcal/mol)

>  <smiles>  (25) 
O=C(O)CCCCCn1c(O)cc(=O)n(Cc2ccccc2)c1=O

>  <score_type>  (25) 
oracle

>  <origin>  (25) 
adg

>  <m_score__min__energy>  (25) 
-10.68

>  <m_primary>  (25) 
energy

$$$$
25:0
     RDKit          3D

 53 56  0  0  1  0  0  0  0  0999 V2000
   57.7650   32.2450   44.1230 C   0  0  0  0  0  0  0  0  0  0  0  0
   57.6560   33.4880   44.5330 C   0  0  0  0  0  0  0  0  0  0  0  0
   58.8050   34.2490   45.1020 C   0  0  0  0  0  0  0  0  0  0  0  0
   59.6980   29.8650   46.4470 N   0  0  0  0  0  0  0  0  0  0  0  0
   60.0600   30.2220   47.6330 C   0  0  0  0  0  0  0  0  0  0  0  0
   59.2610   32.3950   47.1100 N   0  0  0  0  0  0  0  0  0  0  0  0
   59.8330   31.5380   47.9780 C   0  0  0  0  0  0  0  0  0  0  0  0
   59.0320   33.6840   47.4280 C   0  0  0  0  0  0  0  0  0  0  0  0
   58.4790   34.4120   46.5160 N   0  0  0  0  0  0  0  0  0  0  0  0
   58.6500   28.9110   46.3220 C   0  0  0  0  0  0  0  0  0  0  0  0
   57.6590   29.1050   45.3790 C   0  0  0  0  0  0  0  0  0  0  0  0
   56.6450   28.1920   45.2500 C   0  0  0  0  0  0  0  0  0  0  0  0
   56.6220   27.0840   46.0640 C   0  0  0  0  0  0  0  0  0  0  0  0
   55.6080   26.1150   45.9780 O   0  0  0  0  0  0  0  0  0  0  0  0
   55.8590   24.9550   45.2280 C   0  0  0  0  0  0  0  0  0  0  0  0
   57.1000   24.8120   44.6460 C   0  0  0  0  0  0  0  0  0  0  0  0
   57.3550   23.6830   43.9110 C   0  0  0  0  0  0  0  0  0  0  0  0
   56.3490   22.7530   43.7980 C   0  0  0  0  0  0  0  0  0  0  0  0
   56.6630   21.5300   42.9880 C   0  0  0  0  0  0  0  0  0  0  0  0
   55.1430   22.9140   44.3760 N   0  0  0  0  0  0  0  0  0  0  0  0
   54.8500   24.0210   45.1130 C   0  0  0  0  0  0  0  0  0  0  0  0
   57.6140   26.8890   47.0080 C   0  0  0  0  0  0  0  0  0  0  0  0
   58.6390   27.8020   47.1460 C   0  0  0  0  0  0  0  0  0  0  0  0
   59.3520   34.2100   48.6270 N   0  0  0  0  0  0  0  0  0  0  0  0
   59.9290   33.3750   49.5240 C   0  0  0  0  0  0  0  0  0  0  0  0
   60.7430   31.1940   50.0840 N   0  0  0  0  0  0  0  0  0  0  0  0
   60.1720   32.0520   49.2150 C   0  0  0  0  0  0  0  0  0  0  0  0
   60.9680   29.8930   49.7430 C   0  0  0  0  0  0  0  0  0  0  0  0
   60.2960   33.8730   50.8240 N   0  0  0  0  0  0  0  0  0  0  0  0
   59.2370   33.8360   51.8400 C   0  0  0  0  0  0  0  0  0  0  0  0
   60.6280   29.4120   48.5270 N   0  0  0  0  0  0  0  0  0  0  0  0
   56.8891   31.7233   43.7099 H   0  0  0  0  0  0  0  0  0  0  0  0
   58.7322   31.7257   44.1928 H   0  0  0  0  0  0  0  0  0  0  0  0
   56.6789   33.9870   44.4535 H   0  0  0  0  0  0  0  0  0  0  0  0
   59.7414   33.6842   44.9826 H   0  0  0  0  0  0  0  0  0  0  0  0
   58.9559   35.2141   44.5961 H   0  0  0  0  0  0  0  0  0  0  0  0
   57.6839   29.9934   44.7309 H   0  0  0  0  0  0  0  0  0  0  0  0
   55.8547   28.3446   44.5002 H   0  0  0  0  0  0  0  0  0  0  0  0
   57.8702   25.5877   44.7686 H   0  0  0  0  0  0  0  0  0  0  0  0
   58.3310   23.5268   43.4283 H   0  0  0  0  0  0  0  0  0  0  0  0
   56.8790   20.6887   43.6629 H   0  0  0  0  0  0  0  0  0  0  0  0
   55.8002   21.2789   42.3536 H   0  0  0  0  0  0  0  0  0  0  0  0
   57.5400   21.7256   42.3536 H   0  0  0  0  0  0  0  0  0  0  0  0
   53.8680   24.1621   45.5881 H   0  0  0  0  0  0  0  0  0  0  0  0
   57.5854   25.9990   47.6538 H   0  0  0  0  0  0  0  0  0  0  0  0
   59.4299   27.6504   47.8954 H   0  0  0  0  0  0  0  0  0  0  0  0
   59.1570   35.2140   48.8330 H   0  0  0  0  0  0  0  0  0  0  0  0
   61.4373   29.2193   50.4751 H   0  0  0  0  0  0  0  0  0  0  0  0
   61.2500   34.2350   51.0220 H   0  0  0  0  0  0  0  0  0  0  0  0
   59.6898   33.8518   52.8424 H   0  0  0  0  0  0  0  0  0  0  0  0
   58.5825   34.7118   51.7195 H   0  0  0  0  0  0  0  0  0  0  0  0
   58.6452   32.9166   51.7195 H   0  0  0  0  0  0  0  0  0  0  0  0
   60.7940   28.4180   48.2500 H   0  0  0  0  0  0  0  0  0  0  0  0
  1  2  2  0
  2  3  1  0
  3  4  1  0
  4  5  2  0
  5  6  1  0
  6  7  2  0
  7  8  1  0
  8  9  2  0
  9 10  1  0
 10 11  2  0
 11 12  1  0
 12 13  2  0
 13 14  1  0
 14 15  1  0
 15 16  2  0
 16 17  1  0
 17 18  2  0
 18 19  1  0
 18 20  1  0
 20 21  2  0
 13 22  1  0
 22 23  2  0
  8 24  1  0
 24 25  1  0
 25 26  2  0
 26 27  1  0
 27 28  2  0
 28 29  1  0
 29 30  1  0
 28 31  1  0
 31  5  1  0
 27  7  1  0
 23 10  1  0
 21 15  1  0
  1 32  1  0
  1 33  1  0
  2 34  1  0
  3 35  1  0
  3 36  1  0
 11 37  1  0
 12 38  1  0
 16 39  1  0
 17 40  1  0
 19 41  1  0
 19 42  1  0
 19 43  1  0
 21 44  1  0
 22 45  1  0
 23 46  1  0
 24 47  1  0
 25 48  1  0
 29 49  1  0
 30 50  1  0
 30 51  1  0
 30 52  1  0
 31 53  1  0
M  END
>  <smiles>  (26) 
C=CCN=c1nc2c(=Nc3ccc(Oc4ccc(C)nc4)cc3)[nH]cnc2c(NC)[nH]1

>  <score_type>  (26) 
oracle

>  <origin>  (26) 
adg

>  <m_score__min__energy>  (26) 
-7.7400000000000002

>  <m_primary>  (26) 
energy

$$$$
26:0
     RDKit          3D

 23 24  0  0  0  0  0  0  0  0999 V2000
   55.8260   26.6750   45.9770 N   0  0  0  0  0  0  0  0  0  0  0  0
   57.1650   26.8790   45.5310 C   0  0  0  0  0  0  0  0  0  0  0  0
   57.7470   25.9740   44.8740 O   0  0  0  0  0  0  0  0  0  0  0  0
   57.8770   28.1370   45.8570 C   0  0  0  0  0  0  0  0  0  0  0  0
   58.9580   28.1110   46.7620 C   0  0  0  0  0  0  0  0  0  0  0  0
   59.5240   26.5010   47.6460 Br  0  0  0  0  0  0  0  0  0  0  0  0
   59.6220   29.2870   47.0970 C   0  0  0  0  0  0  0  0  0  0  0  0
   59.2420   30.5060   46.5390 C   0  0  0  0  0  0  0  0  0  0  0  0
   59.9220   31.6280   46.8850 N   0  0  0  0  0  0  0  0  0  0  0  0
   59.6050   32.8330   46.3580 C   0  0  0  0  0  0  0  0  0  0  0  0
   60.2490   33.8590   46.7000 O   0  0  0  0  0  0  0  0  0  0  0  0
   58.6000   32.9340   45.4560 N   0  0  0  0  0  0  0  0  0  0  0  0
   57.8820   31.8500   45.0670 C   0  0  0  0  0  0  0  0  0  0  0  0
   56.9790   32.0130   44.2040 O   0  0  0  0  0  0  0  0  0  0  0  0
   58.1670   30.5720   45.6190 C   0  0  0  0  0  0  0  0  0  0  0  0
   57.4660   29.3740   45.2880 C   0  0  0  0  0  0  0  0  0  0  0  0
   56.3200   29.3850   44.3500 C   0  0  0  0  0  0  0  0  0  0  0  0
   56.5430   29.4510   42.9420 N   0  0  0  0  0  0  0  0  0  0  0  0
   55.1430   29.3100   44.7960 O   0  0  0  0  0  0  0  0  0  0  0  0
   55.1440   27.4640   46.0030 H   0  0  0  0  0  0  0  0  0  0  0  0
   60.4577   29.2540   47.8115 H   0  0  0  0  0  0  0  0  0  0  0  0
   55.7350   29.4410   42.2800 H   0  0  0  0  0  0  0  0  0  0  0  0
   57.5120   29.5180   42.5590 H   0  0  0  0  0  0  0  0  0  0  0  0
  1  2  1  0
  2  3  2  0
  2  4  1  0
  4  5  2  0
  5  6  1  0
  5  7  1  0
  7  8  2  0
  8  9  1  0
  9 10  1  0
 10 11  2  0
 10 12  1  0
 12 13  1  0
 13 14  2  0
 13 15  1  0
 15 16  2  0
 16 17  1  0
 17 18  1  0
 17 19  2  0
 16  4  1  0
 15  8  1  0
  1 20  1  0
  7 21  1  0
 18 22  1  0
 18 23  1  0
M  CHG  3   1  -1   9  -1  12  -1
M  END
>  <UniqueID>  (27) 
26

>  <SMILES>  (27) 
[NH-]C(=O)c1c(Br)cc2[n-]c(=O)[n-]c(=O)c2c1C(N)=O

>  <Energy>  (27) 
46.451581998478865

>  <Genealogy>  (27) 
[NH-]C(=O)c1c(Br)cc2[n-]c(=O)[n-]c(=O)c2c1C(N)=O (protonated)
[NH-]C(=O)c1c(Br)cc2[n-]c(=O)[n-]c(=O)c2c1C(N)=O (3D coordinates assigned)
[NH-]C(=O)c1c(Br)cc2[n-]c(=O)[n-]c(=O)c2c1C(N)=O (optimized conformer: 46.451581998478865 kcal/mol)

>  <smiles>  (27) 
NC(=O)c1c(Br)cc2[nH]c(=O)[nH]c(=O)c2c1C(N)=O

>  <score_type>  (27) 
oracle

>  <origin>  (27) 
adg

>  <m_score__min__energy>  (27) 
-11.49

>  <m_primary>  (27) 
energy

$$$$
27:0
     RDKit          3D

 39 40  0  0  0  0  0  0  0  0999 V2000
   56.9070   20.3760   48.3170 C   0  0  0  0  0  0  0  0  0  0  0  0
   57.0530   21.5430   47.5160 O   0  0  0  0  0  0  0  0  0  0  0  0
   57.3180   21.5340   46.1360 C   0  0  0  0  0  0  0  0  0  0  0  0
   58.5910   21.8520   45.6200 C   0  0  0  0  0  0  0  0  0  0  0  0
   58.8210   21.8280   44.2420 C   0  0  0  0  0  0  0  0  0  0  0  0
   57.7900   21.4950   43.3650 C   0  0  0  0  0  0  0  0  0  0  0  0
   56.5240   21.1790   43.8620 C   0  0  0  0  0  0  0  0  0  0  0  0
   56.2810   21.1850   45.2450 C   0  0  0  0  0  0  0  0  0  0  0  0
   54.9320   20.8660   45.7540 C   0  0  0  0  0  0  0  0  0  0  0  0
   54.6930   19.7040   46.1760 O   0  0  0  0  0  0  0  0  0  0  0  0
   53.8740   21.8330   45.7580 N   0  0  0  0  0  0  0  0  0  0  0  0
   53.8990   23.0810   46.5080 C   0  0  0  0  0  0  0  0  0  0  0  0
   54.9750   23.9600   45.9640 C   0  0  0  0  0  0  0  0  0  0  0  0
   55.0820   24.1150   44.7180 O   0  0  0  0  0  0  0  0  0  0  0  0
   55.8670   24.6230   46.8680 N   0  0  0  0  0  0  0  0  0  0  0  0
   56.8090   25.6530   46.5340 C   0  0  0  0  0  0  0  0  0  0  0  0
   58.1670   25.4290   46.7910 C   0  0  0  0  0  0  0  0  0  0  0  0
   59.1170   26.4010   46.4690 C   0  0  0  0  0  0  0  0  0  0  0  0
   58.7210   27.5980   45.8690 C   0  0  0  0  0  0  0  0  0  0  0  0
   57.3690   27.8220   45.5740 C   0  0  0  0  0  0  0  0  0  0  0  0
   56.8640   29.3250   44.8060 S   0  0  0  0  0  0  0  0  0  0  0  0
   55.1440   29.3410   44.6460 N   0  0  0  0  0  0  0  0  0  0  0  0
   57.2970   30.4970   45.6410 O   0  0  0  0  0  0  0  0  0  0  0  0
   57.4980   29.4390   43.4480 O   0  0  0  0  0  0  0  0  0  0  0  0
   56.4150   26.8500   45.9070 C   0  0  0  0  0  0  0  0  0  0  0  0
   56.9419   20.6546   49.3806 H   0  0  0  0  0  0  0  0  0  0  0  0
   55.9419   19.8971   48.0948 H   0  0  0  0  0  0  0  0  0  0  0  0
   57.7243   19.6742   48.0948 H   0  0  0  0  0  0  0  0  0  0  0  0
   59.4077   22.1205   46.3062 H   0  0  0  0  0  0  0  0  0  0  0  0
   59.8185   22.0726   43.8481 H   0  0  0  0  0  0  0  0  0  0  0  0
   57.9739   21.4812   42.2806 H   0  0  0  0  0  0  0  0  0  0  0  0
   55.7117   20.9237   43.1656 H   0  0  0  0  0  0  0  0  0  0  0  0
   52.9271   23.5872   46.4121 H   0  0  0  0  0  0  0  0  0  0  0  0
   54.0962   22.8699   47.5694 H   0  0  0  0  0  0  0  0  0  0  0  0
   58.4877   24.4818   47.2493 H   0  0  0  0  0  0  0  0  0  0  0  0
   60.1800   26.2230   46.6887 H   0  0  0  0  0  0  0  0  0  0  0  0
   59.4706   28.3660   45.6276 H   0  0  0  0  0  0  0  0  0  0  0  0
   54.7470   29.3490   45.6130 H   0  0  0  0  0  0  0  0  0  0  0  0
   55.3534   27.0237   45.6771 H   0  0  0  0  0  0  0  0  0  0  0  0
  1  2  1  0
  2  3  1  0
  3  4  2  0
  4  5  1  0
  5  6  2  0
  6  7  1  0
  7  8  2  0
  8  9  1  0
  9 10  2  0
  9 11  1  0
 11 12  1  0
 12 13  1  0
 13 14  2  0
 13 15  1  0
 15 16  1  0
 16 17  2  0
 17 18  1  0
 18 19  2  0
 19 20  1  0
 20 21  1  0
 21 22  1  0
 21 23  2  0
 21 24  2  0
 20 25  2  0
  8  3  1  0
 25 16  1  0
  1 26  1  0
  1 27  1  0
  1 28  1  0
  4 29  1  0
  5 30  1  0
  6 31  1  0
  7 32  1  0
 12 33  1  0
 12 34  1  0
 17 35  1  0
 18 36  1  0
 19 37  1  0
 22 38  1  0
 25 39  1  0
M  CHG  3  11  -1  15  -1  22  -1
M  END
>  <UniqueID>  (28) 
27

>  <SMILES>  (28) 
COc1ccccc1C(=O)[N-]CC(=O)[N-]c1cccc(S([NH-])(=O)=O)c1

>  <Energy>  (28) 
45.20022266790197

>  <Genealogy>  (28) 
COc1ccccc1C(=O)[N-]CC(=O)[N-]c1cccc(S([NH-])(=O)=O)c1 (protonated)
COc1ccccc1C(=O)[N-]CC(=O)[N-]c1cccc(S([NH-])(=O)=O)c1 (3D coordinates assigned)
COc1ccccc1C(=O)[N-]CC(=O)[N-]c1cccc(S([NH-])(=O)=O)c1 (optimized conformer: 45.20022266790197 kcal/mol)

>  <smiles>  (28) 
COc1ccccc1C(=O)NCC(=O)Nc1cccc(S(N)(=O)=O)c1

>  <score_type>  (28) 
oracle

>  <origin>  (28) 
adg

>  <m_score__min__energy>  (28) 
-12.66

>  <m_primary>  (28) 
energy

$$$$
28:0
     RDKit          3D

 35 37  0  0  0  0  0  0  0  0999 V2000
   64.1450   33.5860   47.5320 O   0  0  0  0  0  0  0  0  0  0  0  0
   62.9940   33.8120   47.9930 C   0  0  0  0  0  0  0  0  0  0  0  0
   62.8670   34.5830   49.1420 O   0  0  0  0  0  0  0  0  0  0  0  0
   61.7950   33.2650   47.3200 C   0  0  0  0  0  0  0  0  0  0  0  0
   61.5000   31.8920   47.3830 C   0  0  0  0  0  0  0  0  0  0  0  0
   60.3660   31.3800   46.7450 C   0  0  0  0  0  0  0  0  0  0  0  0
   59.5150   32.2250   46.0260 C   0  0  0  0  0  0  0  0  0  0  0  0
   58.3790   31.6760   45.4130 O   0  0  0  0  0  0  0  0  0  0  0  0
   58.1930   30.3190   45.1140 C   0  0  0  0  0  0  0  0  0  0  0  0
   57.0010   29.7000   45.5080 C   0  0  0  0  0  0  0  0  0  0  0  0
   56.7820   28.3460   45.2380 C   0  0  0  0  0  0  0  0  0  0  0  0
   57.7660   27.5850   44.5900 C   0  0  0  0  0  0  0  0  0  0  0  0
   57.5170   26.1380   44.2630 C   0  0  0  0  0  0  0  0  0  0  0  0
   57.1660   25.3830   45.5070 C   0  0  0  0  0  0  0  0  0  0  0  0
   58.1220   24.1920   46.2200 S   0  0  0  0  0  0  0  0  0  0  0  0
   56.9730   23.8610   47.4000 C   0  0  0  0  0  0  0  0  0  0  0  0
   57.1140   23.0020   48.3070 O   0  0  0  0  0  0  0  0  0  0  0  0
   55.8620   24.6180   47.2730 N   0  0  0  0  0  0  0  0  0  0  0  0
   55.9670   25.4620   46.2120 C   0  0  0  0  0  0  0  0  0  0  0  0
   54.9430   26.3370   45.8640 O   0  0  0  0  0  0  0  0  0  0  0  0
   58.9680   28.2000   44.2030 C   0  0  0  0  0  0  0  0  0  0  0  0
   59.1840   29.5550   44.4730 C   0  0  0  0  0  0  0  0  0  0  0  0
   59.7930   33.6010   45.9780 C   0  0  0  0  0  0  0  0  0  0  0  0
   60.9260   34.1160   46.6150 C   0  0  0  0  0  0  0  0  0  0  0  0
   62.1662   31.2154   47.9383 H   0  0  0  0  0  0  0  0  0  0  0  0
   60.1418   30.3050   46.8092 H   0  0  0  0  0  0  0  0  0  0  0  0
   56.2309   30.2833   46.0340 H   0  0  0  0  0  0  0  0  0  0  0  0
   55.8334   27.8751   45.5352 H   0  0  0  0  0  0  0  0  0  0  0  0
   56.6859   26.0647   43.5461 H   0  0  0  0  0  0  0  0  0  0  0  0
   58.4285   25.7058   43.8244 H   0  0  0  0  0  0  0  0  0  0  0  0
   54.0670   26.3360   46.3720 H   0  0  0  0  0  0  0  0  0  0  0  0
   59.7420   27.6139   43.6858 H   0  0  0  0  0  0  0  0  0  0  0  0
   60.1347   30.0258   44.1822 H   0  0  0  0  0  0  0  0  0  0  0  0
   59.1154   34.2772   45.4361 H   0  0  0  0  0  0  0  0  0  0  0  0
   61.1388   35.1940   46.5642 H   0  0  0  0  0  0  0  0  0  0  0  0
  1  2  2  0
  2  3  1  0
  2  4  1  0
  4  5  2  0
  5  6  1  0
  6  7  2  0
  7  8  1  0
  8  9  1  0
  9 10  2  0
 10 11  1  0
 11 12  2  0
 12 13  1  0
 13 14  1  0
 14 15  1  0
 15 16  1  0
 16 17  2  0
 16 18  1  0
 18 19  1  0
 19 20  1  0
 12 21  1  0
 21 22  2  0
  7 23  1  0
 23 24  2  0
 24  4  1  0
 22  9  1  0
 19 14  2  0
  5 25  1  0
  6 26  1  0
 10 27  1  0
 11 28  1  0
 13 29  1  0
 13 30  1  0
 20 31  1  0
 21 32  1  0
 22 33  1  0
 23 34  1  0
 24 35  1  0
M  CHG  2   3  -1  18  -1
M  END
>  <UniqueID>  (29) 
28

>  <SMILES>  (29) 
O=C([O-])c1ccc(Oc2ccc(Cc3sc(=O)[n-]c3O)cc2)cc1

>  <Energy>  (29) 
73.03220070130645

>  <Genealogy>  (29) 
O=C([O-])c1ccc(Oc2ccc(Cc3sc(=O)[n-]c3O)cc2)cc1 (protonated)
O=C([O-])c1ccc(Oc2ccc(Cc3sc(=O)[n-]c3O)cc2)cc1 (3D coordinates assigned)
O=C([O-])c1ccc(Oc2ccc(Cc3sc(=O)[n-]c3O)cc2)cc1 (optimized conformer: 73.03220070130645 kcal/mol)

>  <smiles>  (29) 
O=C(O)c1ccc(Oc2ccc(Cc3sc(=O)[nH]c3O)cc2)cc1

>  <score_type>  (29) 
oracle

>  <origin>  (29) 
adg

>  <m_score__min__energy>  (29) 
-11.26

>  <m_primary>  (29) 
energy

$$$$
29:0
     RDKit          3D

 37 39  0  0  0  0  0  0  0  0999 V2000
   59.8309   36.2226   47.8123 H   0  0  0  0  0  0  0  0  0  0  0  0
   59.6200   35.2680   47.3080 C   0  0  0  0  0  0  0  0  0  0  0  0
   58.8940   35.2800   46.2280 N   0  0  0  0  0  0  0  0  0  0  0  0
   59.2830   34.7320   44.9250 C   0  0  0  0  0  0  0  0  0  0  0  0
   60.3798   34.6637   44.8767 H   0  0  0  0  0  0  0  0  0  0  0  0
   58.9027   35.3989   44.1372 H   0  0  0  0  0  0  0  0  0  0  0  0
   58.6940   33.3590   44.7170 C   0  0  0  0  0  0  0  0  0  0  0  0
   58.5120   32.4900   45.8060 C   0  0  0  0  0  0  0  0  0  0  0  0
   58.8682   32.7812   46.8052 H   0  0  0  0  0  0  0  0  0  0  0  0
   57.8800   31.2570   45.6240 C   0  0  0  0  0  0  0  0  0  0  0  0
   57.7299   30.5870   46.4834 H   0  0  0  0  0  0  0  0  0  0  0  0
   57.4370   30.8700   44.3540 C   0  0  0  0  0  0  0  0  0  0  0  0
   56.6090   29.3300   44.1530 S   0  0  0  0  0  0  0  0  0  0  0  0
   55.2250   29.4020   44.7360 O   0  0  0  0  0  0  0  0  0  0  0  0
   57.3840   28.2540   44.8590 O   0  0  0  0  0  0  0  0  0  0  0  0
   56.4940   28.9560   42.4700 N   0  0  0  0  0  0  0  0  0  0  0  0
   55.5140   29.1670   42.1760 H   0  0  0  0  0  0  0  0  0  0  0  0
   56.6220   27.9240   42.3770 H   0  0  0  0  0  0  0  0  0  0  0  0
   57.6450   31.7220   43.2600 C   0  0  0  0  0  0  0  0  0  0  0  0
   57.3100   31.4177   42.2574 H   0  0  0  0  0  0  0  0  0  0  0  0
   58.2760   32.9560   43.4380 C   0  0  0  0  0  0  0  0  0  0  0  0
   58.4460   33.6143   42.5733 H   0  0  0  0  0  0  0  0  0  0  0  0
   60.1700   34.0310   47.8820 C   0  0  0  0  0  0  0  0  0  0  0  0
   59.6250   33.2700   48.9110 C   0  0  0  0  0  0  0  0  0  0  0  0
   58.6484   33.4557   49.3818 H   0  0  0  0  0  0  0  0  0  0  0  0
   60.4690   32.2690   49.2490 N   0  0  0  0  0  0  0  0  0  0  0  0
   60.3270   31.5620   50.0060 H   0  0  0  0  0  0  0  0  0  0  0  0
   61.5430   32.3990   48.4510 C   0  0  0  0  0  0  0  0  0  0  0  0
   62.7130   31.6420   48.4760 C   0  0  0  0  0  0  0  0  0  0  0  0
   62.8231   30.7906   49.1637 H   0  0  0  0  0  0  0  0  0  0  0  0
   63.7490   32.0010   47.5940 C   0  0  0  0  0  0  0  0  0  0  0  0
   64.6828   31.4197   47.5826 H   0  0  0  0  0  0  0  0  0  0  0  0
   63.5980   33.1030   46.7230 C   0  0  0  0  0  0  0  0  0  0  0  0
   64.4166   33.3767   46.0411 H   0  0  0  0  0  0  0  0  0  0  0  0
   62.4070   33.8530   46.7220 C   0  0  0  0  0  0  0  0  0  0  0  0
   62.2791   34.7169   46.0532 H   0  0  0  0  0  0  0  0  0  0  0  0
   61.3950   33.4630   47.5980 C   0  0  0  0  0  0  0  0  0  0  0  0
  1  2  1  0
  2  3  2  0
  3  4  1  0
  4  5  1  0
  4  6  1  0
  4  7  1  0
  7  8  2  0
  8  9  1  0
  8 10  1  0
 10 11  1  0
 10 12  2  0
 12 13  1  0
 13 14  2  0
 13 15  2  0
 13 16  1  0
 16 17  1  0
 16 18  1  0
 12 19  1  0
 19 20  1  0
 19 21  2  0
 21 22  1  0
  2 23  1  0
 23 24  2  0
 24 25  1  0
 24 26  1  0
 26 27  1  0
 26 28  1  0
 28 29  2  0
 29 30  1  0
 29 31  1  0
 31 32  1  0
 31 33  2  0
 33 34  1  0
 33 35  1  0
 35 36  1  0
 35 37  2  0
 21  7  1  0
 37 23  1  0
 37 28  1  0
M  END
>  <UniqueID>  (30) 
29

>  <SMILES>  (30) 
NS(=O)(=O)c1ccc(C/N=C\c2c[nH]c3ccccc23)cc1

>  <Energy>  (30) 
73.78569164551078

>  <Genealogy>  (30) 
NS(=O)(=O)c1ccc(C/N=C\c2c[nH]c3ccccc23)cc1 (cis-trans isomerization)
NS(=O)(=O)c1ccc(C/N=C\c2c[nH]c3ccccc23)cc1 (3D coordinates assigned)
NS(=O)(=O)c1ccc(C/N=C\c2c[nH]c3ccccc23)cc1 (optimized conformer: 73.78569164551078 kcal/mol)

>  <smiles>  (30) 
NS(=O)(=O)c1ccc(CN=Cc2c[nH]c3ccccc23)cc1

>  <score_type>  (30) 
oracle

>  <origin>  (30) 
adg

>  <m_score__min__energy>  (30) 
-9.1600000000000001

>  <m_primary>  (30) 
energy

$$$$
30:0
     RDKit          3D

 37 39  0  0  0  0  0  0  0  0999 V2000
   58.1460   27.5150   45.9730 O   0  0  0  0  0  0  0  0  0  0  0  0
   56.9230   27.3200   45.7290 C   0  0  0  0  0  0  0  0  0  0  0  0
   56.1420   28.3660   45.1320 N   0  0  0  0  0  0  0  0  0  0  0  0
   56.7230   29.6790   44.8430 C   0  0  0  0  0  0  0  0  0  0  0  0
   57.6670   30.1380   45.9620 C   0  0  0  0  0  0  0  0  0  0  0  0
   58.1080   31.5680   45.7680 C   0  0  0  0  0  0  0  0  0  0  0  0
   58.9720   32.1710   46.6960 C   0  0  0  0  0  0  0  0  0  0  0  0
   59.3640   33.5040   46.5320 C   0  0  0  0  0  0  0  0  0  0  0  0
   58.8930   34.2430   45.4440 C   0  0  0  0  0  0  0  0  0  0  0  0
   59.2720   35.5350   45.2870 F   0  0  0  0  0  0  0  0  0  0  0  0
   58.0290   33.6500   44.5170 C   0  0  0  0  0  0  0  0  0  0  0  0
   57.6360   32.3180   44.6770 C   0  0  0  0  0  0  0  0  0  0  0  0
   56.3040   26.0180   46.0620 C   0  0  0  0  0  0  0  0  0  0  0  0
   56.9980   25.0580   46.8180 C   0  0  0  0  0  0  0  0  0  0  0  0
   56.3890   23.8380   47.1230 C   0  0  0  0  0  0  0  0  0  0  0  0
   57.0220   22.9830   47.8020 O   0  0  0  0  0  0  0  0  0  0  0  0
   55.0830   23.5770   46.6700 C   0  0  0  0  0  0  0  0  0  0  0  0
   54.4230   22.3640   46.9490 C   0  0  0  0  0  0  0  0  0  0  0  0
   53.1240   22.1500   46.4780 C   0  0  0  0  0  0  0  0  0  0  0  0
   52.4730   23.1340   45.7300 C   0  0  0  0  0  0  0  0  0  0  0  0
   53.1170   24.3420   45.4470 C   0  0  0  0  0  0  0  0  0  0  0  0
   54.4180   24.5680   45.9130 C   0  0  0  0  0  0  0  0  0  0  0  0
   55.0410   25.7430   45.6350 N   0  0  0  0  0  0  0  0  0  0  0  0
   55.1420   28.1820   44.8940 H   0  0  0  0  0  0  0  0  0  0  0  0
   57.2882   29.6197   43.9012 H   0  0  0  0  0  0  0  0  0  0  0  0
   55.9031   30.4081   44.7641 H   0  0  0  0  0  0  0  0  0  0  0  0
   57.1445   30.0537   46.9263 H   0  0  0  0  0  0  0  0  0  0  0  0
   58.5610   29.4974   45.9410 H   0  0  0  0  0  0  0  0  0  0  0  0
   59.3422   31.5930   47.5556 H   0  0  0  0  0  0  0  0  0  0  0  0
   60.0436   33.9705   47.2603 H   0  0  0  0  0  0  0  0  0  0  0  0
   57.6583   34.2328   43.6609 H   0  0  0  0  0  0  0  0  0  0  0  0
   56.9554   31.8555   43.9470 H   0  0  0  0  0  0  0  0  0  0  0  0
   58.0193   25.2667   47.1692 H   0  0  0  0  0  0  0  0  0  0  0  0
   54.9298   21.5850   47.5376 H   0  0  0  0  0  0  0  0  0  0  0  0
   52.6118   21.2016   46.6977 H   0  0  0  0  0  0  0  0  0  0  0  0
   51.4512   22.9578   45.3628 H   0  0  0  0  0  0  0  0  0  0  0  0
   52.6017   25.1151   44.8582 H   0  0  0  0  0  0  0  0  0  0  0  0
  1  2  2  0
  2  3  1  0
  3  4  1  0
  4  5  1  0
  5  6  1  0
  6  7  2  0
  7  8  1  0
  8  9  2  0
  9 10  1  0
  9 11  1  0
 11 12  2  0
  2 13  1  0
 13 14  2  0
 14 15  1  0
 15 16  2  0
 15 17  1  0
 17 18  2  0
 18 19  1  0
 19 20  2  0
 20 21  1  0
 21 22  2  0
 22 23  1  0
 12  6  1  0
 23 13  1  0
 22 17  1  0
  3 24  1  0
  4 25  1  0
  4 26  1  0
  5 27  1  0
  5 28  1  0
  7 29  1  0
  8 30  1  0
 11 31  1  0
 12 32  1  0
 14 33  1  0
 18 34  1  0
 19 35  1  0
 20 36  1  0
 21 37  1  0
M  CHG  1  23  -1
M  END
>  <UniqueID>  (31) 
30

>  <SMILES>  (31) 
O=C(NCCc1ccc(F)cc1)c1cc(=O)c2ccccc2[n-]1

>  <Energy>  (31) 
39.86459515764604

>  <Genealogy>  (31) 
O=C(NCCc1ccc(F)cc1)c1cc(=O)c2ccccc2[n-]1 (protonated)
O=C(NCCc1ccc(F)cc1)c1cc(=O)c2ccccc2[n-]1 (3D coordinates assigned)
O=C(NCCc1ccc(F)cc1)c1cc(=O)c2ccccc2[n-]1 (optimized conformer: 39.86459515764604 kcal/mol)

>  <smiles>  (31) 
O=C(NCCc1ccc(F)cc1)c1cc(=O)c2ccccc2[nH]1

>  <score_type>  (31) 
oracle

>  <origin>  (31) 
adg

>  <m_score__min__energy>  (31) 
-9.25

>  <m_primary>  (31) 
energy

$$$$
31:0
     RDKit          3D

 47 49  0  0  0  0  0  0  0  0999 V2000
   60.2230   29.9090   48.4920 C   0  0  0  0  0  0  0  0  0  0  0  0
   60.2950   31.2060   47.7880 N   0  0  0  0  0  0  0  0  0  0  0  0
   59.1880   31.6840   47.1240 C   0  0  0  0  0  0  0  0  0  0  0  0
   58.1260   31.0000   47.1000 O   0  0  0  0  0  0  0  0  0  0  0  0
   59.2200   32.8960   46.4790 N   0  0  0  0  0  0  0  0  0  0  0  0
   58.0200   33.3720   45.7530 C   0  0  0  0  0  0  0  0  0  0  0  0
   58.2430   33.3790   44.2360 C   0  0  0  0  0  0  0  0  0  0  0  0
   57.5420   32.2300   43.5760 C   0  0  0  0  0  0  0  0  0  0  0  0
   57.4760   32.1830   42.3180 O   0  0  0  0  0  0  0  0  0  0  0  0
   56.9150   31.2170   44.3720 N   0  0  0  0  0  0  0  0  0  0  0  0
   56.1500   30.1310   43.7620 C   0  0  0  0  0  0  0  0  0  0  0  0
   57.0550   28.9690   43.3370 C   0  0  0  0  0  0  0  0  0  0  0  0
   57.8670   28.4270   44.4880 C   0  0  0  0  0  0  0  0  0  0  0  0
   59.2630   28.5890   44.4920 C   0  0  0  0  0  0  0  0  0  0  0  0
   60.0250   28.1330   45.5710 C   0  0  0  0  0  0  0  0  0  0  0  0
   59.4020   27.5020   46.6490 C   0  0  0  0  0  0  0  0  0  0  0  0
   58.0180   27.3140   46.6470 C   0  0  0  0  0  0  0  0  0  0  0  0
   57.2490   27.7740   45.5720 C   0  0  0  0  0  0  0  0  0  0  0  0
   55.9040   27.5960   45.6020 F   0  0  0  0  0  0  0  0  0  0  0  0
   60.3500   33.6670   46.5180 C   0  0  0  0  0  0  0  0  0  0  0  0
   60.3630   34.8030   45.9640 O   0  0  0  0  0  0  0  0  0  0  0  0
   61.5040   33.1980   47.1590 C   0  0  0  0  0  0  0  0  0  0  0  0
   62.6890   33.9600   47.1750 C   0  0  0  0  0  0  0  0  0  0  0  0
   63.8430   33.4560   47.7710 C   0  0  0  0  0  0  0  0  0  0  0  0
   63.8310   32.1940   48.3560 C   0  0  0  0  0  0  0  0  0  0  0  0
   62.6600   31.4340   48.3650 C   0  0  0  0  0  0  0  0  0  0  0  0
   61.4680   31.9280   47.7770 C   0  0  0  0  0  0  0  0  0  0  0  0
   60.2325   30.0805   49.5785 H   0  0  0  0  0  0  0  0  0  0  0  0
   59.2947   29.3902   48.2108 H   0  0  0  0  0  0  0  0  0  0  0  0
   61.0882   29.2906   48.2108 H   0  0  0  0  0  0  0  0  0  0  0  0
   57.1749   32.7077   45.9864 H   0  0  0  0  0  0  0  0  0  0  0  0
   57.8102   34.4029   46.0744 H   0  0  0  0  0  0  0  0  0  0  0  0
   57.8550   34.3211   43.8214 H   0  0  0  0  0  0  0  0  0  0  0  0
   59.3219   33.2836   44.0437 H   0  0  0  0  0  0  0  0  0  0  0  0
   57.0160   31.2680   45.4110 H   0  0  0  0  0  0  0  0  0  0  0  0
   55.4133   29.7611   44.4903 H   0  0  0  0  0  0  0  0  0  0  0  0
   55.6526   30.5246   42.8633 H   0  0  0  0  0  0  0  0  0  0  0  0
   56.4273   28.1602   42.9347 H   0  0  0  0  0  0  0  0  0  0  0  0
   57.7560   29.3475   42.5785 H   0  0  0  0  0  0  0  0  0  0  0  0
   59.7589   29.0778   43.6405 H   0  0  0  0  0  0  0  0  0  0  0  0
   61.1163   28.2714   45.5708 H   0  0  0  0  0  0  0  0  0  0  0  0
   60.0022   27.1521   47.5018 H   0  0  0  0  0  0  0  0  0  0  0  0
   57.5318   26.8037   47.4915 H   0  0  0  0  0  0  0  0  0  0  0  0
   62.7031   34.9587   46.7142 H   0  0  0  0  0  0  0  0  0  0  0  0
   64.7645   34.0566   47.7790 H   0  0  0  0  0  0  0  0  0  0  0  0
   64.7477   31.7933   48.8133 H   0  0  0  0  0  0  0  0  0  0  0  0
   62.6620   30.4391   48.8343 H   0  0  0  0  0  0  0  0  0  0  0  0
  1  2  1  0
  2  3  1  0
  3  4  2  0
  3  5  1  0
  5  6  1  0
  6  7  1  0
  7  8  1  0
  8  9  2  0
  8 10  1  0
 10 11  1  0
 11 12  1  0
 12 13  1  0
 13 14  2  0
 14 15  1  0
 15 16  2  0
 16 17  1  0
 17 18  2  0
 18 19  1  0
  5 20  1  0
 20 21  2  0
 20 22  1  0
 22 23  2  0
 23 24  1  0
 24 25  2  0
 25 26  1  0
 26 27  2  0
 27  2  1  0
 18 13  1  0
 27 22  1  0
  1 28  1  0
  1 29  1  0
  1 30  1  0
  6 31  1  0
  6 32  1  0
  7 33  1  0
  7 34  1  0
 10 35  1  0
 11 36  1  0
 11 37  1  0
 12 38  1  0
 12 39  1  0
 14 40  1  0
 15 41  1  0
 16 42  1  0
 17 43  1  0
 23 44  1  0
 24 45  1  0
 25 46  1  0
 26 47  1  0
M  END
>  <UniqueID>  (32) 
31

>  <SMILES>  (32) 
Cn1c(=O)n(CCC(=O)NCCc2ccccc2F)c(=O)c2ccccc21

>  <Energy>  (32) 
50.75381610732334

>  <Genealogy>  (32) 
Cn1c(=O)n(CCC(=O)NCCc2ccccc2F)c(=O)c2ccccc21 (3D coordinates assigned)
Cn1c(=O)n(CCC(=O)NCCc2ccccc2F)c(=O)c2ccccc21 (optimized conformer: 50.75381610732334 kcal/mol)

>  <smiles>  (32) 
Cn1c(=O)n(CCC(=O)NCCc2ccccc2F)c(=O)c2ccccc21

>  <score_type>  (32) 
oracle

>  <origin>  (32) 
adg

>  <m_score__min__energy>  (32) 
-8.1300000000000008

>  <m_primary>  (32) 
energy

$$$$
32:0
     RDKit          3D

 51 52  0  0  0  0  0  0  0  0999 V2000
   61.7610   33.7660   46.6310 C   0  0  0  0  0  0  0  0  0  0  0  0
   60.5070   34.2270   45.8910 C   0  0  0  0  0  0  0  0  0  0  0  0
   59.2880   33.9240   46.6610 N   0  0  0  0  0  0  0  0  0  0  0  0
   59.2270   34.3610   48.0650 C   0  0  0  0  0  0  0  0  0  0  0  0
   59.5600   33.2180   48.9750 C   0  0  0  0  0  0  0  0  0  0  0  0
   60.4020   33.3830   49.9000 O   0  0  0  0  0  0  0  0  0  0  0  0
   58.9520   31.9350   48.7730 N   0  0  0  0  0  0  0  0  0  0  0  0
   59.4240   30.7720   49.4550 C   0  0  0  0  0  0  0  0  0  0  0  0
   60.6500   30.2250   49.0540 C   0  0  0  0  0  0  0  0  0  0  0  0
   61.1650   29.0910   49.6830 C   0  0  0  0  0  0  0  0  0  0  0  0
   60.4610   28.4880   50.7360 C   0  0  0  0  0  0  0  0  0  0  0  0
   60.9370   27.3520   51.4070 O   0  0  0  0  0  0  0  0  0  0  0  0
   61.7260   27.3890   52.5920 C   0  0  0  0  0  0  0  0  0  0  0  0
   59.2370   29.0320   51.1400 C   0  0  0  0  0  0  0  0  0  0  0  0
   58.6960   30.1640   50.5130 C   0  0  0  0  0  0  0  0  0  0  0  0
   57.4560   30.6180   50.9990 O   0  0  0  0  0  0  0  0  0  0  0  0
   57.2240   31.7820   51.7890 C   0  0  0  0  0  0  0  0  0  0  0  0
   58.1790   33.1770   46.1000 C   0  0  0  0  0  0  0  0  0  0  0  0
   57.0840   33.1310   46.7210 O   0  0  0  0  0  0  0  0  0  0  0  0
   58.2580   32.4550   44.7830 C   0  0  0  0  0  0  0  0  0  0  0  0
   56.6940   31.5630   44.4810 S   0  0  0  0  0  0  0  0  0  0  0  0
   57.3410   29.9860   45.0450 C   0  0  0  0  0  0  0  0  0  0  0  0
   58.7010   29.8710   45.3620 C   0  0  0  0  0  0  0  0  0  0  0  0
   59.2180   28.6500   45.8050 C   0  0  0  0  0  0  0  0  0  0  0  0
   58.3790   27.5410   45.9380 C   0  0  0  0  0  0  0  0  0  0  0  0
   57.0200   27.6520   45.6270 C   0  0  0  0  0  0  0  0  0  0  0  0
   56.4980   28.8720   45.1810 C   0  0  0  0  0  0  0  0  0  0  0  0
   55.1440   28.9700   44.8770 O   0  0  0  0  0  0  0  0  0  0  0  0
   61.5904   33.8287   47.7159 H   0  0  0  0  0  0  0  0  0  0  0  0
   61.9880   32.7256   46.3550 H   0  0  0  0  0  0  0  0  0  0  0  0
   62.6078   34.4116   46.3550 H   0  0  0  0  0  0  0  0  0  0  0  0
   60.5666   35.3132   45.7275 H   0  0  0  0  0  0  0  0  0  0  0  0
   60.4535   33.6909   44.9320 H   0  0  0  0  0  0  0  0  0  0  0  0
   59.9493   35.1752   48.2243 H   0  0  0  0  0  0  0  0  0  0  0  0
   58.2095   34.7143   48.2882 H   0  0  0  0  0  0  0  0  0  0  0  0
   58.2500   31.8120   48.0080 H   0  0  0  0  0  0  0  0  0  0  0  0
   61.2129   30.6949   48.2340 H   0  0  0  0  0  0  0  0  0  0  0  0
   62.1254   28.6688   49.3524 H   0  0  0  0  0  0  0  0  0  0  0  0
   61.0671   27.3581   53.4723 H   0  0  0  0  0  0  0  0  0  0  0  0
   62.4022   26.5216   52.6095 H   0  0  0  0  0  0  0  0  0  0  0  0
   62.3181   28.3159   52.6095 H   0  0  0  0  0  0  0  0  0  0  0  0
   58.6866   28.5614   51.9680 H   0  0  0  0  0  0  0  0  0  0  0  0
   57.2767   31.5178   52.8555 H   0  0  0  0  0  0  0  0  0  0  0  0
   57.9890   32.5387   51.5605 H   0  0  0  0  0  0  0  0  0  0  0  0
   56.2274   32.1876   51.5605 H   0  0  0  0  0  0  0  0  0  0  0  0
   58.4264   33.1829   43.9757 H   0  0  0  0  0  0  0  0  0  0  0  0
   59.0902   31.7361   44.8091 H   0  0  0  0  0  0  0  0  0  0  0  0
   59.3634   30.7435   45.2621 H   0  0  0  0  0  0  0  0  0  0  0  0
   60.2870   28.5624   46.0492 H   0  0  0  0  0  0  0  0  0  0  0  0
   58.7870   26.5810   46.2871 H   0  0  0  0  0  0  0  0  0  0  0  0
   56.3597   26.7786   45.7331 H   0  0  0  0  0  0  0  0  0  0  0  0
  1  2  1  0
  2  3  1  0
  3  4  1  0
  4  5  1  0
  5  6  2  0
  5  7  1  0
  7  8  1  0
  8  9  2  0
  9 10  1  0
 10 11  2  0
 11 12  1  0
 12 13  1  0
 11 14  1  0
 14 15  2  0
 15 16  1  0
 16 17  1  0
  3 18  1  0
 18 19  2  0
 18 20  1  0
 20 21  1  0
 21 22  1  0
 22 23  2  0
 23 24  1  0
 24 25  2  0
 25 26  1  0
 26 27  2  0
 27 28  1  0
 15  8  1  0
 27 22  1  0
  1 29  1  0
  1 30  1  0
  1 31  1  0
  2 32  1  0
  2 33  1  0
  4 34  1  0
  4 35  1  0
  7 36  1  0
  9 37  1  0
 10 38  1  0
 13 39  1  0
 13 40  1  0
 13 41  1  0
 14 42  1  0
 17 43  1  0
 17 44  1  0
 17 45  1  0
 20 46  1  0
 20 47  1  0
 23 48  1  0
 24 49  1  0
 25 50  1  0
 26 51  1  0
M  CHG  1  28  -1
M  END
>  <UniqueID>  (33) 
32

>  <SMILES>  (33) 
CCN(CC(=O)Nc1ccc(OC)cc1OC)C(=O)CSc1ccccc1[O-]

>  <Energy>  (33) 
51.48689727123867

>  <Genealogy>  (33) 
CCN(CC(=O)Nc1ccc(OC)cc1OC)C(=O)CSc1ccccc1[O-] (protonated)
CCN(CC(=O)Nc1ccc(OC)cc1OC)C(=O)CSc1ccccc1[O-] (3D coordinates assigned)
CCN(CC(=O)Nc1ccc(OC)cc1OC)C(=O)CSc1ccccc1[O-] (optimized conformer: 51.48689727123867 kcal/mol)

>  <smiles>  (33) 
CCN(CC(=O)Nc1ccc(OC)cc1OC)C(=O)CSc1ccccc1O

>  <score_type>  (33) 
oracle

>  <origin>  (33) 
adg

>  <m_score__min__energy>  (33) 
-11.74

>  <m_primary>  (33) 
energy

$$$$
33:0
     RDKit          3D

 57 60  0  0  1  0  0  0  0  0999 V2000
   56.6820   30.5780   43.7490 C   0  0  0  0  0  0  0  0  0  0  0  0
   56.3550   31.7190   44.5160 O   0  0  0  0  0  0  0  0  0  0  0  0
   57.3720   32.2560   45.2900 C   0  0  0  0  0  0  0  0  0  0  0  0
   57.4160   33.5750   45.6240 C   0  0  0  0  0  0  0  0  0  0  0  0
   58.3870   34.1730   46.3820 C   0  0  0  0  0  0  0  0  0  0  0  0
   59.4040   33.3800   46.8480 C   0  0  0  0  0  0  0  0  0  0  0  0
   60.3500   33.9780   47.5930 N   0  0  0  0  0  0  0  0  0  0  0  0
   61.3830   33.2850   48.0950 C   0  0  0  0  0  0  0  0  0  0  0  0
   62.3360   33.9190   48.8530 C   0  0  0  0  0  0  0  0  0  0  0  0
   63.3690   33.1500   49.3370 C   0  0  0  0  0  0  0  0  0  0  0  0
   64.3480   33.8640   50.1330 N   0  0  0  0  0  0  0  0  0  0  0  0
   65.3640   33.1770   50.3390 N   0  0  0  0  0  0  0  0  0  0  0  0
   66.3710   32.5160   50.5550 N   0  0  0  0  0  0  0  0  0  0  0  0
   67.6380   33.1840   50.4280 C   0  0  0  0  0  0  0  0  0  0  0  0
   66.1810   31.1300   50.9000 C   0  0  0  0  0  0  0  0  0  0  0  0
   63.4720   31.8010   49.0910 C   0  0  0  0  0  0  0  0  0  0  0  0
   62.4870   31.2240   48.3250 C   0  0  0  0  0  0  0  0  0  0  0  0
   61.4220   31.9370   47.8070 C   0  0  0  0  0  0  0  0  0  0  0  0
   60.4590   31.3140   47.0440 C   0  0  0  0  0  0  0  0  0  0  0  0
   60.5490   30.0980   46.8170 N   0  0  0  0  0  0  0  0  0  0  0  0
   59.6990   29.0980   46.4300 C   0  0  0  0  0  0  0  0  0  0  0  0
   58.6770   28.5660   47.2580 C   0  0  0  0  0  0  0  0  0  0  0  0
   57.7940   27.6350   46.7550 C   0  0  0  0  0  0  0  0  0  0  0  0
   57.8650   27.1950   45.4530 C   0  0  0  0  0  0  0  0  0  0  0  0
   56.9940   26.2460   44.8770 N   0  0  0  0  0  0  0  0  0  0  0  0
   55.8540   25.3060   45.7360 S   0  0  0  0  0  0  0  0  0  0  0  0
   55.7320   23.6450   45.1170 C   0  0  0  0  0  0  0  0  0  0  0  0
   54.5160   25.9740   45.7740 O   0  0  0  0  0  0  0  0  0  0  0  0
   56.3020   25.2010   47.1880 O   0  0  0  0  0  0  0  0  0  0  0  0
   58.8620   27.7190   44.6540 C   0  0  0  0  0  0  0  0  0  0  0  0
   59.7760   28.6470   45.0880 C   0  0  0  0  0  0  0  0  0  0  0  0
   59.4080   32.0340   46.5380 C   0  0  0  0  0  0  0  0  0  0  0  0
   58.4280   31.4630   45.7810 C   0  0  0  0  0  0  0  0  0  0  0  0
   56.9219   29.7409   44.4210 H   0  0  0  0  0  0  0  0  0  0  0  0
   55.8259   30.3051   43.1145 H   0  0  0  0  0  0  0  0  0  0  0  0
   57.5527   30.7999   43.1145 H   0  0  0  0  0  0  0  0  0  0  0  0
   56.6019   34.2151   45.2533 H   0  0  0  0  0  0  0  0  0  0  0  0
   58.3525   35.2489   46.6085 H   0  0  0  0  0  0  0  0  0  0  0  0
   60.3220   35.0160   47.8170 H   0  0  0  0  0  0  0  0  0  0  0  0
   62.2761   34.9968   49.0645 H   0  0  0  0  0  0  0  0  0  0  0  0
   68.0421   33.3971   51.4287 H   0  0  0  0  0  0  0  0  0  0  0  0
   68.3394   32.5385   49.8791 H   0  0  0  0  0  0  0  0  0  0  0  0
   67.5017   34.1275   49.8791 H   0  0  0  0  0  0  0  0  0  0  0  0
   66.1664   31.0233   51.9947 H   0  0  0  0  0  0  0  0  0  0  0  0
   65.2260   30.7763   50.4843 H   0  0  0  0  0  0  0  0  0  0  0  0
   67.0056   30.5323   50.4843 H   0  0  0  0  0  0  0  0  0  0  0  0
   64.3079   31.2081   49.4906 H   0  0  0  0  0  0  0  0  0  0  0  0
   62.5491   30.1461   48.1147 H   0  0  0  0  0  0  0  0  0  0  0  0
   58.5893   28.8972   48.3033 H   0  0  0  0  0  0  0  0  0  0  0  0
   57.0100   27.2321   47.4131 H   0  0  0  0  0  0  0  0  0  0  0  0
   57.0590   26.1160   43.8380 H   0  0  0  0  0  0  0  0  0  0  0  0
   55.6804   22.9419   45.9614 H   0  0  0  0  0  0  0  0  0  0  0  0
   54.8243   23.5482   44.5032 H   0  0  0  0  0  0  0  0  0  0  0  0
   56.6158   23.4166   44.5032 H   0  0  0  0  0  0  0  0  0  0  0  0
   58.9275   27.3736   43.6117 H   0  0  0  0  0  0  0  0  0  0  0  0
   60.5512   29.0323   44.4093 H   0  0  0  0  0  0  0  0  0  0  0  0
   58.4618   30.3871   45.5545 H   0  0  0  0  0  0  0  0  0  0  0  0
  1  2  1  0
  2  3  1  0
  3  4  2  0
  4  5  1  0
  5  6  2  0
  6  7  1  0
  7  8  1  0
  8  9  2  0
  9 10  1  0
 10 11  1  0
 11 12  2  0
 12 13  2  0
 13 14  1  0
 13 15  1  0
 10 16  2  0
 16 17  1  0
 17 18  2  0
 18 19  1  0
 19 20  2  0
 20 21  1  0
 21 22  2  0
 22 23  1  0
 23 24  2  0
 24 25  1  0
 25 26  1  0
 26 27  1  0
 26 28  2  0
 26 29  2  0
 24 30  1  0
 30 31  2  0
 19 32  1  0
 32 33  2  0
 33  3  1  0
 32  6  1  0
 18  8  1  0
 31 21  1  0
  1 34  1  0
  1 35  1  0
  1 36  1  0
  4 37  1  0
  5 38  1  0
  7 39  1  0
  9 40  1  0
 14 41  1  0
 14 42  1  0
 14 43  1  0
 15 44  1  0
 15 45  1  0
 15 46  1  0
 16 47  1  0
 17 48  1  0
 22 49  1  0
 23 50  1  0
 25 51  1  0
 27 52  1  0
 27 53  1  0
 27 54  1  0
 30 55  1  0
 31 56  1  0
 33 57  1  0
M  CHG  2  12   1  13   1
M  END
>  <smiles>  (34) 
COc1ccc2[nH]c3cc(N=[N+]=[N+](C)C)ccc3c(=Nc3ccc(NS(C)(=O)=O)cc3)c2c1

>  <score_type>  (34) 
oracle

>  <origin>  (34) 
adg

>  <m_score__min__energy>  (34) 
-7.8799999999999999

>  <m_primary>  (34) 
energy

$$$$
34:0
     RDKit          3D

 26 27  0  0  0  0  0  0  0  0999 V2000
   57.1300   34.2170   47.4820 H   0  0  0  0  0  0  0  0  0  0  0  0
   58.1700   34.2340   47.3850 N   0  0  0  0  0  0  0  0  0  0  0  0
   58.5280   33.8890   45.7300 S   0  0  0  0  0  0  0  0  0  0  0  0
   59.9880   34.1330   45.4710 O   0  0  0  0  0  0  0  0  0  0  0  0
   57.7220   34.7970   44.8450 O   0  0  0  0  0  0  0  0  0  0  0  0
   58.1340   32.2090   45.3830 C   0  0  0  0  0  0  0  0  0  0  0  0
   58.7910   31.1760   46.0660 C   0  0  0  0  0  0  0  0  0  0  0  0
   59.5630   31.4165   46.8118 H   0  0  0  0  0  0  0  0  0  0  0  0
   58.4690   29.8420   45.8030 C   0  0  0  0  0  0  0  0  0  0  0  0
   59.0035   29.0358   46.3268 H   0  0  0  0  0  0  0  0  0  0  0  0
   57.4640   29.5260   44.8710 C   0  0  0  0  0  0  0  0  0  0  0  0
   57.1300   28.1650   44.5570 N   0  0  0  0  0  0  0  0  0  0  0  0
   57.8180   27.0960   44.8400 C   0  0  0  0  0  0  0  0  0  0  0  0
   58.7963   26.9712   44.3527 H   0  0  0  0  0  0  0  0  0  0  0  0
   57.3730   26.0420   45.7700 C   0  0  0  0  0  0  0  0  0  0  0  0
   58.3370   24.7550   46.2690 S   0  0  0  0  0  0  0  0  0  0  0  0
   57.0970   24.0560   47.1590 C   0  0  0  0  0  0  0  0  0  0  0  0
   57.2120   22.9950   47.8250 O   0  0  0  0  0  0  0  0  0  0  0  0
   55.9440   24.7510   47.0780 N   0  0  0  0  0  0  0  0  0  0  0  0
   56.0910   25.8510   46.2930 C   0  0  0  0  0  0  0  0  0  0  0  0
   55.0220   26.6970   46.0130 O   0  0  0  0  0  0  0  0  0  0  0  0
   55.1450   27.5100   45.4220 H   0  0  0  0  0  0  0  0  0  0  0  0
   56.8320   30.5600   44.1690 C   0  0  0  0  0  0  0  0  0  0  0  0
   56.0780   30.3204   43.4048 H   0  0  0  0  0  0  0  0  0  0  0  0
   57.1530   31.8940   44.4330 C   0  0  0  0  0  0  0  0  0  0  0  0
   56.6339   32.6998   43.8933 H   0  0  0  0  0  0  0  0  0  0  0  0
  1  2  1  0
  2  3  1  0
  3  4  2  0
  3  5  2  0
  3  6  1  0
  6  7  2  0
  7  8  1  0
  7  9  1  0
  9 10  1  0
  9 11  2  0
 11 12  1  0
 12 13  2  0
 13 14  1  0
 13 15  1  0
 15 16  1  0
 16 17  1  0
 17 18  2  0
 17 19  1  0
 19 20  1  0
 20 21  1  0
 21 22  1  0
 11 23  1  0
 23 24  1  0
 23 25  2  0
 25 26  1  0
 25  6  1  0
 20 15  2  0
M  CHG  2   2  -1  19  -1
M  END
>  <UniqueID>  (35) 
33

>  <SMILES>  (35) 
[NH-]S(=O)(=O)c1ccc(/N=C\c2sc(=O)[n-]c2O)cc1

>  <Energy>  (35) 
67.4199238383084

>  <Genealogy>  (35) 
[NH-]S(=O)(=O)c1ccc(N=Cc2sc(=O)[n-]c2O)cc1 (protonated)
[NH-]S(=O)(=O)c1ccc(/N=C\c2sc(=O)[n-]c2O)cc1 (cis-trans isomerization)
[NH-]S(=O)(=O)c1ccc(/N=C\c2sc(=O)[n-]c2O)cc1 (3D coordinates assigned)
[NH-]S(=O)(=O)c1ccc(/N=C\c2sc(=O)[n-]c2O)cc1 (optimized conformer: 67.4199238383084 kcal/mol)

>  <smiles>  (35) 
NS(=O)(=O)c1ccc(N=Cc2sc(=O)[nH]c2O)cc1

>  <score_type>  (35) 
oracle

>  <origin>  (35) 
adg

>  <m_score__min__energy>  (35) 
-10.460000000000001

>  <m_primary>  (35) 
energy

$$$$
35:0
     RDKit          3D

 45 47  0  0  1  0  0  0  0  0999 V2000
   57.0700   25.4160   45.0840 C   0  0  0  0  0  0  0  0  0  0  0  0
   57.9620   26.3940   45.7630 C   0  0  0  0  0  0  0  0  0  0  0  0
   58.7400   25.9430   46.8190 C   0  0  0  0  0  0  0  0  0  0  0  0
   59.5980   26.7900   47.4990 C   0  0  0  0  0  0  0  0  0  0  0  0
   59.6620   28.1270   47.0930 C   0  0  0  0  0  0  0  0  0  0  0  0
   60.5260   29.0350   47.7570 N   0  0  0  0  0  0  0  0  0  0  0  0
   59.9530   29.9660   48.4430 C   0  0  0  0  0  0  0  0  0  0  0  0
   60.1940   30.0220   49.7880 C   0  0  0  0  0  0  0  0  0  0  0  0
   59.6440   30.9660   50.6280 C   0  0  0  0  0  0  0  0  0  0  0  0
   58.8190   31.8730   50.0320 N   0  0  0  0  0  0  0  0  0  0  0  0
   58.5820   31.8200   48.7090 C   0  0  0  0  0  0  0  0  0  0  0  0
   57.7820   32.7250   48.2240 N   0  0  0  0  0  0  0  0  0  0  0  0
   58.1840   33.4820   47.0830 C   0  0  0  0  0  0  0  0  0  0  0  0
   59.3480   34.2200   47.1000 C   0  0  0  0  0  0  0  0  0  0  0  0
   59.7340   34.9440   46.0120 C   0  0  0  0  0  0  0  0  0  0  0  0
   58.9500   34.9370   44.8800 C   0  0  0  0  0  0  0  0  0  0  0  0
   57.7800   34.1940   44.8660 C   0  0  0  0  0  0  0  0  0  0  0  0
   57.3800   33.4590   45.9630 C   0  0  0  0  0  0  0  0  0  0  0  0
   59.1310   30.8860   47.9030 N   0  0  0  0  0  0  0  0  0  0  0  0
   58.8790   28.5390   46.0480 C   0  0  0  0  0  0  0  0  0  0  0  0
   58.0170   27.7110   45.3560 C   0  0  0  0  0  0  0  0  0  0  0  0
   57.2290   28.2030   44.2790 N   0  0  0  0  0  0  0  0  0  0  0  0
   56.6130   29.8140   44.3710 S   0  0  0  0  0  0  0  0  0  0  0  0
   56.6930   30.6390   42.8230 C   0  0  0  0  0  0  0  0  0  0  0  0
   55.1800   29.7140   44.8000 O   0  0  0  0  0  0  0  0  0  0  0  0
   57.3180   30.5960   45.4460 O   0  0  0  0  0  0  0  0  0  0  0  0
   56.5312   24.8252   45.8394 H   0  0  0  0  0  0  0  0  0  0  0  0
   56.3460   25.9551   44.4553 H   0  0  0  0  0  0  0  0  0  0  0  0
   57.6732   24.7446   44.4553 H   0  0  0  0  0  0  0  0  0  0  0  0
   58.6736   24.8880   47.1231 H   0  0  0  0  0  0  0  0  0  0  0  0
   60.2118   26.4223   48.3345 H   0  0  0  0  0  0  0  0  0  0  0  0
   60.8665   29.2692   50.2251 H   0  0  0  0  0  0  0  0  0  0  0  0
   59.8565   30.9863   51.7071 H   0  0  0  0  0  0  0  0  0  0  0  0
   58.3720   32.6150   50.6150 H   0  0  0  0  0  0  0  0  0  0  0  0
   59.9741   34.2246   48.0044 H   0  0  0  0  0  0  0  0  0  0  0  0
   60.6648   35.5296   46.0378 H   0  0  0  0  0  0  0  0  0  0  0  0
   59.2497   35.5162   43.9942 H   0  0  0  0  0  0  0  0  0  0  0  0
   57.1563   34.1902   43.9599 H   0  0  0  0  0  0  0  0  0  0  0  0
   56.4491   32.8732   45.9447 H   0  0  0  0  0  0  0  0  0  0  0  0
   58.9290   30.8740   46.8960 H   0  0  0  0  0  0  0  0  0  0  0  0
   58.9402   29.5935   45.7410 H   0  0  0  0  0  0  0  0  0  0  0  0
   57.0070   27.6450   43.4430 H   0  0  0  0  0  0  0  0  0  0  0  0
   56.7980   31.7213   42.9893 H   0  0  0  0  0  0  0  0  0  0  0  0
   57.5595   30.2696   42.2550 H   0  0  0  0  0  0  0  0  0  0  0  0
   55.7716   30.4430   42.2550 H   0  0  0  0  0  0  0  0  0  0  0  0
  1  2  1  0
  2  3  2  0
  3  4  1  0
  4  5  2  0
  5  6  1  0
  6  7  2  0
  7  8  1  0
  8  9  2  0
  9 10  1  0
 10 11  1  0
 11 12  2  0
 12 13  1  0
 13 14  2  0
 14 15  1  0
 15 16  2  0
 16 17  1  0
 17 18  2  0
 11 19  1  0
  5 20  1  0
 20 21  2  0
 21 22  1  0
 22 23  1  0
 23 24  1  0
 23 25  2  0
 23 26  2  0
 21  2  1  0
 19  7  1  0
 18 13  1  0
  1 27  1  0
  1 28  1  0
  1 29  1  0
  3 30  1  0
  4 31  1  0
  8 32  1  0
  9 33  1  0
 10 34  1  0
 14 35  1  0
 15 36  1  0
 16 37  1  0
 17 38  1  0
 18 39  1  0
 19 40  1  0
 20 41  1  0
 22 42  1  0
 24 43  1  0
 24 44  1  0
 24 45  1  0
M  END
>  <smiles>  (36) 
Cc1ccc(N=c2cc[nH]c(=Nc3ccccc3)[nH]2)cc1NS(C)(=O)=O

>  <score_type>  (36) 
oracle

>  <origin>  (36) 
adg

>  <m_score__min__energy>  (36) 
-9.0500000000000007

>  <m_primary>  (36) 
energy

$$$$
36:0
     RDKit          3D

 51 55  0  0  0  0  0  0  0  0999 V2000
   57.4910   34.1680   45.8230 O   0  0  0  0  0  0  0  0  0  0  0  0
   58.1560   33.1010   45.7260 C   0  0  0  0  0  0  0  0  0  0  0  0
   57.8350   32.1440   44.7020 N   0  0  0  0  0  0  0  0  0  0  0  0
   57.2250   30.9940   44.8130 C   0  0  0  0  0  0  0  0  0  0  0  0
   56.0030   30.8280   44.1480 C   0  0  0  0  0  0  0  0  0  0  0  0
   55.3200   29.6140   44.2350 C   0  0  0  0  0  0  0  0  0  0  0  0
   55.8450   28.5870   44.9510 N   0  0  0  0  0  0  0  0  0  0  0  0
   57.0360   28.7040   45.5940 C   0  0  0  0  0  0  0  0  0  0  0  0
   57.7540   29.9030   45.5350 C   0  0  0  0  0  0  0  0  0  0  0  0
   59.3370   32.8900   46.6130 C   0  0  0  0  0  0  0  0  0  0  0  0
   59.2030   32.0850   47.7590 C   0  0  0  0  0  0  0  0  0  0  0  0
   60.2560   31.8610   48.6030 N   0  0  0  0  0  0  0  0  0  0  0  0
   60.0540   31.0000   49.7840 C   0  0  0  0  0  0  0  0  0  0  0  0
   59.2250   31.7100   50.8270 C   0  0  0  0  0  0  0  0  0  0  0  0
   59.5490   33.0290   51.1960 C   0  0  0  0  0  0  0  0  0  0  0  0
   58.7820   33.7040   52.1490 C   0  0  0  0  0  0  0  0  0  0  0  0
   57.6890   33.0690   52.7470 C   0  0  0  0  0  0  0  0  0  0  0  0
   57.3650   31.7570   52.3950 C   0  0  0  0  0  0  0  0  0  0  0  0
   58.1300   31.0740   51.4440 C   0  0  0  0  0  0  0  0  0  0  0  0
   57.8030   29.7940   51.1320 F   0  0  0  0  0  0  0  0  0  0  0  0
   61.4850   32.4120   48.3440 C   0  0  0  0  0  0  0  0  0  0  0  0
   62.5380   32.1710   49.1760 N   0  0  0  0  0  0  0  0  0  0  0  0
   63.7810   32.6840   48.9680 C   0  0  0  0  0  0  0  0  0  0  0  0
   64.8590   32.3360   49.9220 C   0  0  0  0  0  0  0  0  0  0  0  0
   64.6760   31.4190   50.9750 C   0  0  0  0  0  0  0  0  0  0  0  0
   65.7130   31.1390   51.8110 N   0  0  0  0  0  0  0  0  0  0  0  0
   66.9280   31.7260   51.6450 C   0  0  0  0  0  0  0  0  0  0  0  0
   67.1180   32.6260   50.5980 C   0  0  0  0  0  0  0  0  0  0  0  0
   66.0850   32.9070   49.7640 N   0  0  0  0  0  0  0  0  0  0  0  0
   64.0040   33.4900   47.8400 C   0  0  0  0  0  0  0  0  0  0  0  0
   62.9520   33.7600   46.9660 C   0  0  0  0  0  0  0  0  0  0  0  0
   61.6760   33.2230   47.2060 C   0  0  0  0  0  0  0  0  0  0  0  0
   60.5970   33.4600   46.3370 C   0  0  0  0  0  0  0  0  0  0  0  0
   60.7670   34.1740   45.3100 O   0  0  0  0  0  0  0  0  0  0  0  0
   55.5818   31.6547   43.5572 H   0  0  0  0  0  0  0  0  0  0  0  0
   54.3547   29.4891   43.7226 H   0  0  0  0  0  0  0  0  0  0  0  0
   57.4373   27.8526   46.1632 H   0  0  0  0  0  0  0  0  0  0  0  0
   58.7231   29.9947   46.0472 H   0  0  0  0  0  0  0  0  0  0  0  0
   58.2289   31.6250   47.9815 H   0  0  0  0  0  0  0  0  0  0  0  0
   59.5357   30.0801   49.4757 H   0  0  0  0  0  0  0  0  0  0  0  0
   61.0358   30.7582   50.2173 H   0  0  0  0  0  0  0  0  0  0  0  0
   60.4106   33.5311   50.7317 H   0  0  0  0  0  0  0  0  0  0  0  0
   59.0383   34.7364   52.4293 H   0  0  0  0  0  0  0  0  0  0  0  0
   57.0843   33.6030   53.4948 H   0  0  0  0  0  0  0  0  0  0  0  0
   56.5053   31.2591   52.8672 H   0  0  0  0  0  0  0  0  0  0  0  0
   63.7006   30.9318   51.1210 H   0  0  0  0  0  0  0  0  0  0  0  0
   65.5750   30.4570   52.5890 H   0  0  0  0  0  0  0  0  0  0  0  0
   67.7548   31.4924   52.3319 H   0  0  0  0  0  0  0  0  0  0  0  0
   68.0971   33.1046   50.4489 H   0  0  0  0  0  0  0  0  0  0  0  0
   65.0037   33.9063   47.6470 H   0  0  0  0  0  0  0  0  0  0  0  0
   63.1216   34.3961   46.0848 H   0  0  0  0  0  0  0  0  0  0  0  0
  1  2  2  0
  2  3  1  0
  3  4  2  3
  4  5  1  0
  5  6  2  0
  6  7  1  0
  7  8  1  0
  8  9  2  0
  2 10  1  0
 10 11  2  0
 11 12  1  0
 12 13  1  0
 13 14  1  0
 14 15  2  0
 15 16  1  0
 16 17  2  0
 17 18  1  0
 18 19  2  0
 19 20  1  0
 12 21  1  0
 21 22  2  0
 22 23  1  0
 23 24  1  0
 24 25  2  0
 25 26  1  0
 26 27  2  0
 27 28  1  0
 28 29  2  0
 23 30  2  0
 30 31  1  0
 31 32  2  0
 32 33  1  0
 33 34  2  0
  9  4  1  0
 33 10  1  0
 19 14  1  0
 32 21  1  0
 29 24  1  0
  5 35  1  0
  6 36  1  0
  8 37  1  0
  9 38  1  0
 11 39  1  0
 13 40  1  0
 13 41  1  0
 15 42  1  0
 16 43  1  0
 17 44  1  0
 18 45  1  0
 25 46  1  0
 26 47  1  0
 27 48  1  0
 28 49  1  0
 30 50  1  0
 31 51  1  0
M  CHG  2   7  -1  26   1
M  END
>  <UniqueID>  (37) 
34

>  <SMILES>  (37) 
O=C(N=c1cc[n-]cc1)c1cn(Cc2ccccc2F)c2nc(-c3c[nH+]ccn3)ccc2c1=O

>  <Energy>  (37) 
79.66094508247018

>  <Genealogy>  (37) 
O=C(N=c1cc[n-]cc1)c1cn(Cc2ccccc2F)c2nc(-c3c[nH+]ccn3)ccc2c1=O (protonated)
O=C(N=c1cc[n-]cc1)c1cn(Cc2ccccc2F)c2nc(-c3c[nH+]ccn3)ccc2c1=O (3D coordinates assigned)
O=C(N=c1cc[n-]cc1)c1cn(Cc2ccccc2F)c2nc(-c3c[nH+]ccn3)ccc2c1=O (optimized conformer: 79.66094508247018 kcal/mol)

>  <smiles>  (37) 
O=C(N=c1cc[nH]cc1)c1cn(Cc2ccccc2F)c2nc(-c3cnccn3)ccc2c1=O

>  <score_type>  (37) 
oracle

>  <origin>  (37) 
adg

>  <m_score__min__energy>  (37) 
-10

>  <m_primary>  (37) 
energy

$$$$
37:0
     RDKit          3D

 64 68  0  0  0  0  0  0  0  0999 V2000
   60.2800   28.6940   48.9710 O   0  0  0  0  0  0  0  0  0  0  0  0
   59.8550   28.8490   47.6570 C   0  0  0  0  0  0  0  0  0  0  0  0
   58.9020   28.0800   47.0300 C   0  0  0  0  0  0  0  0  0  0  0  0
   58.1470   27.0090   47.4980 C   0  0  0  0  0  0  0  0  0  0  0  0
   57.2130   26.4330   46.6220 C   0  0  0  0  0  0  0  0  0  0  0  0
   57.0530   26.9380   45.3120 C   0  0  0  0  0  0  0  0  0  0  0  0
   57.8360   28.0250   44.8530 C   0  0  0  0  0  0  0  0  0  0  0  0
   57.6510   28.5520   43.5240 N   0  0  0  0  0  0  0  0  0  0  0  0
   57.0990   29.8820   43.5910 C   0  0  0  0  0  0  0  0  0  0  0  0
   55.5320   30.0870   44.0600 S   0  0  0  0  0  0  0  0  0  0  0  0
   57.9210   31.0100   43.2360 N   0  0  0  0  0  0  0  0  0  0  0  0
   57.4830   32.4050   43.3190 C   0  0  0  0  0  0  0  0  0  0  0  0
   57.8530   32.9900   44.6550 C   0  0  0  0  0  0  0  0  0  0  0  0
   57.4540   32.3440   45.8390 C   0  0  0  0  0  0  0  0  0  0  0  0
   57.7820   32.8860   47.0860 C   0  0  0  0  0  0  0  0  0  0  0  0
   58.5150   34.0740   47.1600 C   0  0  0  0  0  0  0  0  0  0  0  0
   58.9230   34.7200   45.9860 C   0  0  0  0  0  0  0  0  0  0  0  0
   58.5950   34.1810   44.7380 C   0  0  0  0  0  0  0  0  0  0  0  0
   58.7640   28.5760   45.7540 C   0  0  0  0  0  0  0  0  0  0  0  0
   59.6490   29.6390   45.6360 C   0  0  0  0  0  0  0  0  0  0  0  0
   60.3140   29.8000   46.8110 N   0  0  0  0  0  0  0  0  0  0  0  0
   61.3070   30.8370   47.1280 C   0  0  0  0  0  0  0  0  0  0  0  0
   61.4770   30.9980   48.6620 C   0  0  0  0  0  0  0  0  0  0  0  0
   60.8280   32.2840   49.1990 C   0  0  0  0  0  0  0  0  0  0  0  0
   61.2970   33.5050   48.4940 N   0  0  0  0  0  0  0  0  0  0  0  0
   62.1980   34.3740   49.2840 C   0  0  0  0  0  0  0  0  0  0  0  0
   63.3520   33.6330   49.9290 C   0  0  0  0  0  0  0  0  0  0  0  0
   63.3870   33.4500   51.3230 C   0  0  0  0  0  0  0  0  0  0  0  0
   64.4560   32.7740   51.9210 C   0  0  0  0  0  0  0  0  0  0  0  0
   65.4910   32.2590   51.1340 C   0  0  0  0  0  0  0  0  0  0  0  0
   65.4520   32.4120   49.7450 C   0  0  0  0  0  0  0  0  0  0  0  0
   64.3840   33.0870   49.1430 C   0  0  0  0  0  0  0  0  0  0  0  0
   61.7170   33.3180   47.0870 C   0  0  0  0  0  0  0  0  0  0  0  0
   60.9530   32.1650   46.4260 C   0  0  0  0  0  0  0  0  0  0  0  0
   58.2776   26.6261   48.5209 H   0  0  0  0  0  0  0  0  0  0  0  0
   56.6015   25.5826   46.9579 H   0  0  0  0  0  0  0  0  0  0  0  0
   56.3111   26.4811   44.6405 H   0  0  0  0  0  0  0  0  0  0  0  0
   57.0100   27.9550   42.9580 H   0  0  0  0  0  0  0  0  0  0  0  0
   58.5800   28.5580   43.0400 H   0  0  0  0  0  0  0  0  0  0  0  0
   58.8970   30.8300   42.9050 H   0  0  0  0  0  0  0  0  0  0  0  0
   57.9690   32.9860   42.5213 H   0  0  0  0  0  0  0  0  0  0  0  0
   56.3900   32.4444   43.2015 H   0  0  0  0  0  0  0  0  0  0  0  0
   56.8806   31.4069   45.7839 H   0  0  0  0  0  0  0  0  0  0  0  0
   57.4633   32.3777   48.0080 H   0  0  0  0  0  0  0  0  0  0  0  0
   58.7715   34.5017   48.1405 H   0  0  0  0  0  0  0  0  0  0  0  0
   59.5025   35.6531   46.0458 H   0  0  0  0  0  0  0  0  0  0  0  0
   58.9186   34.6906   43.8185 H   0  0  0  0  0  0  0  0  0  0  0  0
   59.7899   30.2537   44.7347 H   0  0  0  0  0  0  0  0  0  0  0  0
   62.2846   30.5186   46.7369 H   0  0  0  0  0  0  0  0  0  0  0  0
   61.0119   30.1346   49.1602 H   0  0  0  0  0  0  0  0  0  0  0  0
   62.5551   31.0569   48.8725 H   0  0  0  0  0  0  0  0  0  0  0  0
   59.7377   32.2047   49.0766 H   0  0  0  0  0  0  0  0  0  0  0  0
   61.1145   32.3822   50.2565 H   0  0  0  0  0  0  0  0  0  0  0  0
   62.6106   35.1443   48.6159 H   0  0  0  0  0  0  0  0  0  0  0  0
   61.5965   34.8022   50.0994 H   0  0  0  0  0  0  0  0  0  0  0  0
   62.5693   33.8405   51.9466 H   0  0  0  0  0  0  0  0  0  0  0  0
   64.4825   32.6472   53.0133 H   0  0  0  0  0  0  0  0  0  0  0  0
   66.3342   31.7345   51.6071 H   0  0  0  0  0  0  0  0  0  0  0  0
   66.2619   32.0012   49.1243 H   0  0  0  0  0  0  0  0  0  0  0  0
   64.3509   33.1915   48.0485 H   0  0  0  0  0  0  0  0  0  0  0  0
   61.5205   34.2449   46.5282 H   0  0  0  0  0  0  0  0  0  0  0  0
   62.7899   33.0758   47.0743 H   0  0  0  0  0  0  0  0  0  0  0  0
   59.8714   32.3467   46.5110 H   0  0  0  0  0  0  0  0  0  0  0  0
   61.2345   32.1025   45.3645 H   0  0  0  0  0  0  0  0  0  0  0  0
  1  2  1  0
  2  3  2  0
  3  4  1  0
  4  5  2  0
  5  6  1  0
  6  7  2  0
  7  8  1  0
  8  9  1  0
  9 10  2  0
  9 11  1  0
 11 12  1  0
 12 13  1  0
 13 14  2  0
 14 15  1  0
 15 16  2  0
 16 17  1  0
 17 18  2  0
  7 19  1  0
 19 20  2  0
 20 21  1  0
 21 22  1  0
 22 23  1  0
 23 24  1  0
 24 25  1  0
 25 26  1  0
 26 27  1  0
 27 28  2  0
 28 29  1  0
 29 30  2  0
 30 31  1  0
 31 32  2  0
 25 33  1  0
 33 34  1  0
 21  2  1  0
 34 22  1  0
 19  3  1  0
 32 27  1  0
 18 13  1  0
  4 35  1  0
  5 36  1  0
  6 37  1  0
  8 38  1  0
  8 39  1  0
 11 40  1  0
 12 41  1  0
 12 42  1  0
 14 43  1  0
 15 44  1  0
 16 45  1  0
 17 46  1  0
 18 47  1  0
 20 48  1  0
 22 49  1  0
 23 50  1  0
 23 51  1  0
 24 52  1  0
 24 53  1  0
 26 54  1  0
 26 55  1  0
 28 56  1  0
 29 57  1  0
 30 58  1  0
 31 59  1  0
 32 60  1  0
 33 61  1  0
 33 62  1  0
 34 63  1  0
 34 64  1  0
M  CHG  2   1  -1   8   1
M  END
>  <UniqueID>  (38) 
35

>  <SMILES>  (38) 
[O-]c1c2cccc([NH2+]C(=S)NCc3ccccc3)c2cn1C1CCN(Cc2ccccc2)CC1

>  <Energy>  (38) 
115.5574456924338

>  <Genealogy>  (38) 
[O-]c1c2cccc([NH2+]C(=S)NCc3ccccc3)c2cn1C1CCN(Cc2ccccc2)CC1 (protonated)
[O-]c1c2cccc([NH2+]C(=S)NCc3ccccc3)c2cn1C1CCN(Cc2ccccc2)CC1 (3D coordinates assigned)
[O-]c1c2cccc([NH2+]C(=S)NCc3ccccc3)c2cn1C1CCN(Cc2ccccc2)CC1 (nonaromatic ring conformer: 115.5574456924338 kcal/mol)

>  <smiles>  (38) 
Oc1c2cccc(NC(=S)NCc3ccccc3)c2cn1C1CCN(Cc2ccccc2)CC1

>  <score_type>  (38) 
oracle

>  <origin>  (38) 
adg

>  <m_score__min__energy>  (38) 
-9.8300000000000001

>  <m_primary>  (38) 
energy

$$$$
38:0
     RDKit          3D

 38 40  0  0  0  0  0  0  0  0999 V2000
   50.1740   30.0540   52.3540 H   0  0  0  0  0  0  0  0  0  0  0  0
   50.9880   29.4010   52.3020 N   0  0  0  0  0  0  0  0  0  0  0  0
   52.2050   29.8370   52.2230 C   0  0  0  0  0  0  0  0  0  0  0  0
   53.2270   29.0170   52.5930 N   0  0  0  0  0  0  0  0  0  0  0  0
   54.5270   29.4010   52.5350 C   0  0  0  0  0  0  0  0  0  0  0  0
   55.3177   28.7048   52.8515 H   0  0  0  0  0  0  0  0  0  0  0  0
   54.8680   30.6800   52.0740 C   0  0  0  0  0  0  0  0  0  0  0  0
   56.2940   31.0930   52.0190 C   0  0  0  0  0  0  0  0  0  0  0  0
   57.0830   30.6360   51.0050 N   0  0  0  0  0  0  0  0  0  0  0  0
   58.3910   30.9900   50.9010 C   0  0  0  0  0  0  0  0  0  0  0  0
   59.1030   30.5010   49.9270 N   0  0  0  0  0  0  0  0  0  0  0  0
   58.7270   30.4070   48.5430 C   0  0  0  0  0  0  0  0  0  0  0  0
   58.4840   29.1390   47.9980 C   0  0  0  0  0  0  0  0  0  0  0  0
   58.6086   28.2425   48.6231 H   0  0  0  0  0  0  0  0  0  0  0  0
   58.0840   29.0060   46.6640 C   0  0  0  0  0  0  0  0  0  0  0  0
   57.9087   28.0057   46.2414 H   0  0  0  0  0  0  0  0  0  0  0  0
   57.9060   30.1420   45.8650 C   0  0  0  0  0  0  0  0  0  0  0  0
   57.3870   29.9770   44.1910 S   0  0  0  0  0  0  0  0  0  0  0  0
   58.0470   31.0300   43.3460 O   0  0  0  0  0  0  0  0  0  0  0  0
   55.8960   30.1520   44.1020 O   0  0  0  0  0  0  0  0  0  0  0  0
   57.8260   28.4110   43.6060 N   0  0  0  0  0  0  0  0  0  0  0  0
   58.2900   28.5500   42.6800 H   0  0  0  0  0  0  0  0  0  0  0  0
   56.9370   27.8940   43.4220 H   0  0  0  0  0  0  0  0  0  0  0  0
   58.1090   31.4140   46.4160 C   0  0  0  0  0  0  0  0  0  0  0  0
   57.9524   32.3104   45.7980 H   0  0  0  0  0  0  0  0  0  0  0  0
   58.5100   31.5480   47.7490 C   0  0  0  0  0  0  0  0  0  0  0  0
   58.6564   32.5500   48.1787 H   0  0  0  0  0  0  0  0  0  0  0  0
   58.9400   31.8120   51.8360 N   0  0  0  0  0  0  0  0  0  0  0  0
   58.1970   32.3030   52.8600 C   0  0  0  0  0  0  0  0  0  0  0  0
   58.6565   32.9740   53.6007 H   0  0  0  0  0  0  0  0  0  0  0  0
   56.8520   31.9570   52.9730 C   0  0  0  0  0  0  0  0  0  0  0  0
   56.2388   32.3541   53.7954 H   0  0  0  0  0  0  0  0  0  0  0  0
   53.8320   31.5500   51.6980 C   0  0  0  0  0  0  0  0  0  0  0  0
   54.0762   32.5639   51.3482 H   0  0  0  0  0  0  0  0  0  0  0  0
   52.4850   31.1440   51.7620 C   0  0  0  0  0  0  0  0  0  0  0  0
   51.4140   32.0960   51.3530 C   0  0  0  0  0  0  0  0  0  0  0  0
   50.4560   32.3490   52.1320 O   0  0  0  0  0  0  0  0  0  0  0  0
   51.4450   32.7250   50.1130 O   0  0  0  0  0  0  0  0  0  0  0  0
  1  2  1  0
  2  3  2  3
  3  4  1  0
  4  5  1  0
  5  6  1  0
  5  7  2  0
  7  8  1  0
  8  9  2  0
  9 10  1  0
 10 11  2  0
 11 12  1  0
 12 13  2  0
 13 14  1  0
 13 15  1  0
 15 16  1  0
 15 17  2  0
 17 18  1  0
 18 19  2  0
 18 20  2  0
 18 21  1  0
 21 22  1  0
 21 23  1  0
 17 24  1  0
 24 25  1  0
 24 26  2  0
 26 27  1  0
 10 28  1  0
 28 29  1  0
 29 30  1  0
 29 31  2  0
 31 32  1  0
  7 33  1  0
 33 34  1  0
 33 35  2  0
 35 36  1  0
 36 37  2  0
 36 38  1  0
 35  3  1  0
 31  8  1  0
 26 12  1  0
M  CHG  3   4  -1  28  -1  38  -1
M  END
>  <UniqueID>  (39) 
36

>  <SMILES>  (39) 
N=c1[n-]cc(-c2cc[n-]/c(=N\c3ccc(S(N)(=O)=O)cc3)n2)cc1C(=O)[O-]

>  <Energy>  (39) 
54.72196802158758

>  <Genealogy>  (39) 
N=c1[n-]cc(-c2cc[n-]c(=Nc3ccc(S(N)(=O)=O)cc3)n2)cc1C(=O)[O-] (protonated)
N=c1[n-]cc(-c2cc[n-]/c(=N\c3ccc(S(N)(=O)=O)cc3)n2)cc1C(=O)[O-] (cis-trans isomerization)
N=c1[n-]cc(-c2cc[n-]/c(=N\c3ccc(S(N)(=O)=O)cc3)n2)cc1C(=O)[O-] (3D coordinates assigned)
N=c1[n-]cc(-c2cc[n-]/c(=N\c3ccc(S(N)(=O)=O)cc3)n2)cc1C(=O)[O-] (optimized conformer: 54.72196802158758 kcal/mol)

>  <smiles>  (39) 
N=c1[nH]cc(-c2cc[nH]c(=Nc3ccc(S(N)(=O)=O)cc3)n2)cc1C(=O)O

>  <score_type>  (39) 
oracle

>  <origin>  (39) 
adg

>  <m_score__min__energy>  (39) 
-13.75

>  <m_primary>  (39) 
energy

$$$$
39:0
     RDKit          3D

 49 50  0  0  0  0  0  0  0  0999 V2000
   60.6650   33.8250   50.1340 C   0  0  0  0  0  0  0  0  0  0  0  0
   61.7220   33.6270   49.0780 C   0  0  0  0  0  0  0  0  0  0  0  0
   63.0530   33.4300   49.4820 C   0  0  0  0  0  0  0  0  0  0  0  0
   64.0640   33.2510   48.5360 C   0  0  0  0  0  0  0  0  0  0  0  0
   63.7600   33.2760   47.1770 C   0  0  0  0  0  0  0  0  0  0  0  0
   62.4460   33.4910   46.7570 C   0  0  0  0  0  0  0  0  0  0  0  0
   61.4170   33.6780   47.6940 C   0  0  0  0  0  0  0  0  0  0  0  0
   59.7670   33.9490   47.1080 S   0  0  0  0  0  0  0  0  0  0  0  0
   59.2490   35.2760   47.5890 O   0  0  0  0  0  0  0  0  0  0  0  0
   58.8660   32.8700   47.6390 O   0  0  0  0  0  0  0  0  0  0  0  0
   59.7420   33.9160   45.3720 N   0  0  0  0  0  0  0  0  0  0  0  0
   58.5460   34.5940   44.8750 C   0  0  0  0  0  0  0  0  0  0  0  0
   57.3820   33.6070   44.8100 C   0  0  0  0  0  0  0  0  0  0  0  0
   57.8480   32.2510   45.1020 N   0  0  0  0  0  0  0  0  0  0  0  0
   57.0920   31.0810   44.7470 C   0  0  0  0  0  0  0  0  0  0  0  0
   56.0130   31.2050   44.1050 O   0  0  0  0  0  0  0  0  0  0  0  0
   57.5420   29.7290   45.1510 C   0  0  0  0  0  0  0  0  0  0  0  0
   58.0720   29.4920   46.4320 C   0  0  0  0  0  0  0  0  0  0  0  0
   58.4900   28.2100   46.7990 C   0  0  0  0  0  0  0  0  0  0  0  0
   58.3850   27.1430   45.8940 C   0  0  0  0  0  0  0  0  0  0  0  0
   58.8150   25.7560   46.2930 C   0  0  0  0  0  0  0  0  0  0  0  0
   57.8040   25.1090   47.1300 N   0  0  0  0  0  0  0  0  0  0  0  0
   56.2620   25.0050   46.3230 S   0  0  0  0  0  0  0  0  0  0  0  0
   56.4850   24.4020   44.6640 C   0  0  0  0  0  0  0  0  0  0  0  0
   55.3910   24.0360   47.0720 O   0  0  0  0  0  0  0  0  0  0  0  0
   55.5780   26.3430   46.2840 O   0  0  0  0  0  0  0  0  0  0  0  0
   57.8680   27.3780   44.6120 C   0  0  0  0  0  0  0  0  0  0  0  0
   57.4540   28.6600   44.2420 C   0  0  0  0  0  0  0  0  0  0  0  0
   61.1221   33.7394   51.1309 H   0  0  0  0  0  0  0  0  0  0  0  0
   60.2161   34.8229   50.0209 H   0  0  0  0  0  0  0  0  0  0  0  0
   59.8854   33.0573   50.0209 H   0  0  0  0  0  0  0  0  0  0  0  0
   63.3009   33.4167   50.5536 H   0  0  0  0  0  0  0  0  0  0  0  0
   65.1015   33.0901   48.8642 H   0  0  0  0  0  0  0  0  0  0  0  0
   64.5566   33.1261   46.4333 H   0  0  0  0  0  0  0  0  0  0  0  0
   62.2146   33.5141   45.6819 H   0  0  0  0  0  0  0  0  0  0  0  0
   58.2865   35.4207   45.5526 H   0  0  0  0  0  0  0  0  0  0  0  0
   58.7442   34.9892   43.8677 H   0  0  0  0  0  0  0  0  0  0  0  0
   56.6200   33.8957   45.5489 H   0  0  0  0  0  0  0  0  0  0  0  0
   56.9524   33.6271   43.7975 H   0  0  0  0  0  0  0  0  0  0  0  0
   58.6570   32.1590   45.7560 H   0  0  0  0  0  0  0  0  0  0  0  0
   58.1581   30.3212   47.1497 H   0  0  0  0  0  0  0  0  0  0  0  0
   58.9038   28.0364   47.8033 H   0  0  0  0  0  0  0  0  0  0  0  0
   58.9691   25.1532   45.3859 H   0  0  0  0  0  0  0  0  0  0  0  0
   59.7480   25.8331   46.8705 H   0  0  0  0  0  0  0  0  0  0  0  0
   56.8664   23.3708   44.6969 H   0  0  0  0  0  0  0  0  0  0  0  0
   55.5209   24.4197   44.1347 H   0  0  0  0  0  0  0  0  0  0  0  0
   57.2056   25.0428   44.1347 H   0  0  0  0  0  0  0  0  0  0  0  0
   57.7880   26.5486   43.8938 H   0  0  0  0  0  0  0  0  0  0  0  0
   57.0560   28.8344   43.2315 H   0  0  0  0  0  0  0  0  0  0  0  0
  1  2  1  0
  2  3  2  0
  3  4  1  0
  4  5  2  0
  5  6  1  0
  6  7  2  0
  7  8  1  0
  8  9  2  0
  8 10  2  0
  8 11  1  0
 11 12  1  0
 12 13  1  0
 13 14  1  0
 14 15  1  0
 15 16  2  0
 15 17  1  0
 17 18  2  0
 18 19  1  0
 19 20  2  0
 20 21  1  0
 21 22  1  0
 22 23  1  0
 23 24  1  0
 23 25  2  0
 23 26  2  0
 20 27  1  0
 27 28  2  0
  7  2  1  0
 28 17  1  0
  1 29  1  0
  1 30  1  0
  1 31  1  0
  3 32  1  0
  4 33  1  0
  5 34  1  0
  6 35  1  0
 12 36  1  0
 12 37  1  0
 13 38  1  0
 13 39  1  0
 14 40  1  0
 18 41  1  0
 19 42  1  0
 21 43  1  0
 21 44  1  0
 24 45  1  0
 24 46  1  0
 24 47  1  0
 27 48  1  0
 28 49  1  0
M  CHG  2  11  -1  22  -1
M  END
>  <UniqueID>  (40) 
37

>  <SMILES>  (40) 
Cc1ccccc1S(=O)(=O)[N-]CCNC(=O)c1ccc(C[N-]S(C)(=O)=O)cc1

>  <Energy>  (40) 
38.1315490466182

>  <Genealogy>  (40) 
Cc1ccccc1S(=O)(=O)[N-]CCNC(=O)c1ccc(C[N-]S(C)(=O)=O)cc1 (protonated)
Cc1ccccc1S(=O)(=O)[N-]CCNC(=O)c1ccc(C[N-]S(C)(=O)=O)cc1 (3D coordinates assigned)
Cc1ccccc1S(=O)(=O)[N-]CCNC(=O)c1ccc(C[N-]S(C)(=O)=O)cc1 (optimized conformer: 38.1315490466182 kcal/mol)

>  <smiles>  (40) 
Cc1ccccc1S(=O)(=O)NCCNC(=O)c1ccc(CNS(C)(=O)=O)cc1

>  <score_type>  (40) 
oracle

>  <origin>  (40) 
adg

>  <m_score__min__energy>  (40) 
-11.4

>  <m_primary>  (40) 
energy

$$$$
40:0
     RDKit          3D

 38 40  0  0  0  0  0  0  0  0999 V2000
   59.7120   34.5690   49.0670 C   0  0  0  0  0  0  0  0  0  0  0  0
   59.3300   33.9930   47.7440 C   0  0  0  0  0  0  0  0  0  0  0  0
   58.3980   34.5130   46.9260 N   0  0  0  0  0  0  0  0  0  0  0  0
   58.4080   33.7550   45.8390 N   0  0  0  0  0  0  0  0  0  0  0  0
   57.4960   33.9380   44.7210 C   0  0  0  0  0  0  0  0  0  0  0  0
   59.2910   32.7680   45.9110 N   0  0  0  0  0  0  0  0  0  0  0  0
   59.8930   32.9080   47.1040 C   0  0  0  0  0  0  0  0  0  0  0  0
   61.1810   31.8730   47.6940 S   0  0  0  0  0  0  0  0  0  0  0  0
   62.4140   32.1010   46.8640 O   0  0  0  0  0  0  0  0  0  0  0  0
   61.4900   32.2150   49.1250 O   0  0  0  0  0  0  0  0  0  0  0  0
   60.6710   30.1920   47.6060 C   0  0  0  0  0  0  0  0  0  0  0  0
   60.9260   29.3270   48.6750 C   0  0  0  0  0  0  0  0  0  0  0  0
   60.5040   27.9980   48.6140 C   0  0  0  0  0  0  0  0  0  0  0  0
   59.8310   27.5410   47.4770 C   0  0  0  0  0  0  0  0  0  0  0  0
   59.3890   26.2130   47.4300 O   0  0  0  0  0  0  0  0  0  0  0  0
   58.3370   25.7370   46.6350 C   0  0  0  0  0  0  0  0  0  0  0  0
   58.6090   24.7310   45.6990 C   0  0  0  0  0  0  0  0  0  0  0  0
   57.5930   24.2320   44.8790 C   0  0  0  0  0  0  0  0  0  0  0  0
   56.2980   24.7450   44.9800 C   0  0  0  0  0  0  0  0  0  0  0  0
   56.0150   25.7660   45.8930 C   0  0  0  0  0  0  0  0  0  0  0  0
   54.7240   26.2800   45.9710 O   0  0  0  0  0  0  0  0  0  0  0  0
   57.0350   26.2660   46.7170 C   0  0  0  0  0  0  0  0  0  0  0  0
   59.5810   28.4040   46.4510 N   0  0  0  0  0  0  0  0  0  0  0  0
   59.9830   29.7020   46.4880 C   0  0  0  0  0  0  0  0  0  0  0  0
   59.2978   33.9444   49.8722 H   0  0  0  0  0  0  0  0  0  0  0  0
   60.8084   34.5971   49.1519 H   0  0  0  0  0  0  0  0  0  0  0  0
   59.3114   35.5899   49.1519 H   0  0  0  0  0  0  0  0  0  0  0  0
   56.4844   34.1410   45.1024 H   0  0  0  0  0  0  0  0  0  0  0  0
   57.8336   34.7863   44.1075 H   0  0  0  0  0  0  0  0  0  0  0  0
   57.4802   33.0251   44.1075 H   0  0  0  0  0  0  0  0  0  0  0  0
   61.4593   29.6942   49.5642 H   0  0  0  0  0  0  0  0  0  0  0  0
   60.6995   27.3154   49.4541 H   0  0  0  0  0  0  0  0  0  0  0  0
   59.6296   24.3308   45.6086 H   0  0  0  0  0  0  0  0  0  0  0  0
   57.8135   23.4349   44.1538 H   0  0  0  0  0  0  0  0  0  0  0  0
   55.4982   24.3449   44.3396 H   0  0  0  0  0  0  0  0  0  0  0  0
   54.3760   26.7120   46.8190 H   0  0  0  0  0  0  0  0  0  0  0  0
   56.8162   27.0746   47.4299 H   0  0  0  0  0  0  0  0  0  0  0  0
   59.7680   30.3683   45.6395 H   0  0  0  0  0  0  0  0  0  0  0  0
  1  2  1  0
  2  3  2  0
  3  4  1  0
  4  5  1  0
  4  6  1  0
  6  7  2  0
  7  8  1  0
  8  9  2  0
  8 10  2  0
  8 11  1  0
 11 12  2  0
 12 13  1  0
 13 14  2  0
 14 15  1  0
 15 16  1  0
 16 17  2  0
 17 18  1  0
 18 19  2  0
 19 20  1  0
 20 21  1  0
 20 22  2  0
 14 23  1  0
 23 24  2  0
  7  2  1  0
 24 11  1  0
 22 16  1  0
  1 25  1  0
  1 26  1  0
  1 27  1  0
  5 28  1  0
  5 29  1  0
  5 30  1  0
 12 31  1  0
 13 32  1  0
 17 33  1  0
 18 34  1  0
 19 35  1  0
 21 36  1  0
 22 37  1  0
 24 38  1  0
M  END
>  <UniqueID>  (41) 
38

>  <SMILES>  (41) 
Cc1nn(C)nc1S(=O)(=O)c1ccc(Oc2cccc(O)c2)nc1

>  <Energy>  (41) 
78.574158350072

>  <Genealogy>  (41) 
Cc1nn(C)nc1S(=O)(=O)c1ccc(Oc2cccc(O)c2)nc1 (3D coordinates assigned)
Cc1nn(C)nc1S(=O)(=O)c1ccc(Oc2cccc(O)c2)nc1 (optimized conformer: 78.574158350072 kcal/mol)

>  <smiles>  (41) 
Cc1nn(C)nc1S(=O)(=O)c1ccc(Oc2cccc(O)c2)nc1

>  <score_type>  (41) 
oracle

>  <origin>  (41) 
adg

>  <m_score__min__energy>  (41) 
-7.96

>  <m_primary>  (41) 
energy

$$$$
41:0
     RDKit          3D

 40 43  0  0  0  0  0  0  0  0999 V2000
   61.2966   27.9752   45.8910 H   0  0  0  0  0  0  0  0  0  0  0  0
   60.5700   28.5510   46.4830 C   0  0  0  0  0  0  0  0  0  0  0  0
   60.9600   29.1600   47.5620 N   0  0  0  0  0  0  0  0  0  0  0  0
   61.1920   30.5700   47.6550 C   0  0  0  0  0  0  0  0  0  0  0  0
   62.3170   31.1500   47.1860 N   0  0  0  0  0  0  0  0  0  0  0  0
   62.3130   32.4950   47.3880 C   0  0  0  0  0  0  0  0  0  0  0  0
   63.1463   33.1408   47.0739 H   0  0  0  0  0  0  0  0  0  0  0  0
   61.1800   32.9950   48.0200 C   0  0  0  0  0  0  0  0  0  0  0  0
   60.9913   34.0498   48.2687 H   0  0  0  0  0  0  0  0  0  0  0  0
   60.1480   31.7050   48.3380 S   0  0  0  0  0  0  0  0  0  0  0  0
   59.1540   28.6230   46.0390 C   0  0  0  0  0  0  0  0  0  0  0  0
   58.6590   29.8090   45.4510 C   0  0  0  0  0  0  0  0  0  0  0  0
   59.4350   30.7950   45.3010 O   0  0  0  0  0  0  0  0  0  0  0  0
   57.3440   29.9120   45.0630 N   0  0  0  0  0  0  0  0  0  0  0  0
   56.8560   31.1440   44.4080 C   0  0  0  0  0  0  0  0  0  0  0  0
   57.0521   31.0811   43.3275 H   0  0  0  0  0  0  0  0  0  0  0  0
   55.7760   31.2406   44.5933 H   0  0  0  0  0  0  0  0  0  0  0  0
   57.5560   32.3550   44.9690 C   0  0  0  0  0  0  0  0  0  0  0  0
   57.3920   32.7120   46.3190 C   0  0  0  0  0  0  0  0  0  0  0  0
   56.7659   32.0916   46.9771 H   0  0  0  0  0  0  0  0  0  0  0  0
   58.0210   33.8520   46.8290 C   0  0  0  0  0  0  0  0  0  0  0  0
   57.8915   34.1241   47.8869 H   0  0  0  0  0  0  0  0  0  0  0  0
   58.8140   34.6460   45.9960 C   0  0  0  0  0  0  0  0  0  0  0  0
   59.3067   35.5436   46.3980 H   0  0  0  0  0  0  0  0  0  0  0  0
   58.9810   34.3000   44.6530 C   0  0  0  0  0  0  0  0  0  0  0  0
   59.6069   34.9247   43.9988 H   0  0  0  0  0  0  0  0  0  0  0  0
   58.3540   33.1610   44.1390 C   0  0  0  0  0  0  0  0  0  0  0  0
   58.4859   32.8944   43.0800 H   0  0  0  0  0  0  0  0  0  0  0  0
   56.4780   28.8670   45.2500 C   0  0  0  0  0  0  0  0  0  0  0  0
   55.1450   28.9880   44.8580 O   0  0  0  0  0  0  0  0  0  0  0  0
   56.9160   27.6660   45.8320 C   0  0  0  0  0  0  0  0  0  0  0  0
   56.0240   26.5910   46.0160 C   0  0  0  0  0  0  0  0  0  0  0  0
   54.9701   26.6995   45.7203 H   0  0  0  0  0  0  0  0  0  0  0  0
   56.4670   25.3910   46.5700 C   0  0  0  0  0  0  0  0  0  0  0  0
   55.7611   24.5606   46.7188 H   0  0  0  0  0  0  0  0  0  0  0  0
   57.8020   25.2430   46.9350 C   0  0  0  0  0  0  0  0  0  0  0  0
   58.1507   24.2907   47.3610 H   0  0  0  0  0  0  0  0  0  0  0  0
   58.7000   26.2970   46.7630 C   0  0  0  0  0  0  0  0  0  0  0  0
   59.7539   26.1658   47.0495 H   0  0  0  0  0  0  0  0  0  0  0  0
   58.2700   27.5330   46.2240 C   0  0  0  0  0  0  0  0  0  0  0  0
  1  2  1  0
  2  3  2  0
  3  4  1  0
  4  5  2  0
  5  6  1  0
  6  7  1  0
  6  8  2  0
  8  9  1  0
  8 10  1  0
  2 11  1  0
 11 12  1  0
 12 13  2  0
 12 14  1  0
 14 15  1  0
 15 16  1  0
 15 17  1  0
 15 18  1  0
 18 19  2  0
 19 20  1  0
 19 21  1  0
 21 22  1  0
 21 23  2  0
 23 24  1  0
 23 25  1  0
 25 26  1  0
 25 27  2  0
 27 28  1  0
 14 29  1  0
 29 30  1  0
 29 31  2  0
 31 32  1  0
 32 33  1  0
 32 34  2  0
 34 35  1  0
 34 36  1  0
 36 37  1  0
 36 38  2  0
 38 39  1  0
 38 40  1  0
 10  4  1  0
 40 11  2  0
 27 18  1  0
 40 31  1  0
M  CHG  1  30  -1
M  END
>  <UniqueID>  (42) 
39

>  <SMILES>  (42) 
O=c1c(/C=N/c2nccs2)c2ccccc2c([O-])n1Cc1ccccc1

>  <Energy>  (42) 
89.87851382022333

>  <Genealogy>  (42) 
O=c1c(C=Nc2nccs2)c2ccccc2c([O-])n1Cc1ccccc1 (protonated)
O=c1c(/C=N/c2nccs2)c2ccccc2c([O-])n1Cc1ccccc1 (cis-trans isomerization)
O=c1c(/C=N/c2nccs2)c2ccccc2c([O-])n1Cc1ccccc1 (3D coordinates assigned)
O=c1c(/C=N/c2nccs2)c2ccccc2c([O-])n1Cc1ccccc1 (optimized conformer: 89.87851382022333 kcal/mol)

>  <smiles>  (42) 
O=c1c(C=Nc2nccs2)c2ccccc2c(O)n1Cc1ccccc1

>  <score_type>  (42) 
oracle

>  <origin>  (42) 
adg

>  <m_score__min__energy>  (42) 
-11.130000000000001

>  <m_primary>  (42) 
energy

$$$$
42:0
     RDKit          3D

 56 58  0  0  0  0  0  0  0  0999 V2000
   57.7680   32.2730   42.6530 C   0  0  0  0  0  0  0  0  0  0  0  0
   58.0470   31.7140   44.0250 C   0  0  0  0  0  0  0  0  0  0  0  0
   57.9320   30.3290   44.2240 C   0  0  0  0  0  0  0  0  0  0  0  0
   58.1660   29.7720   45.4780 C   0  0  0  0  0  0  0  0  0  0  0  0
   58.5280   30.5840   46.5490 C   0  0  0  0  0  0  0  0  0  0  0  0
   58.6680   31.9700   46.3780 C   0  0  0  0  0  0  0  0  0  0  0  0
   58.9930   32.7940   47.5140 N   0  0  0  0  0  0  0  0  0  0  0  0
   60.3430   33.0600   47.9290 C   0  0  0  0  0  0  0  0  0  0  0  0
   61.3730   32.9580   46.9830 C   0  0  0  0  0  0  0  0  0  0  0  0
   62.6940   33.2350   47.3410 C   0  0  0  0  0  0  0  0  0  0  0  0
   63.0010   33.5980   48.6520 C   0  0  0  0  0  0  0  0  0  0  0  0
   61.9900   33.6770   49.6120 C   0  0  0  0  0  0  0  0  0  0  0  0
   60.6540   33.4150   49.2650 C   0  0  0  0  0  0  0  0  0  0  0  0
   59.6220   33.4040   50.3230 C   0  0  0  0  0  0  0  0  0  0  0  0
   59.7640   34.1570   51.3220 O   0  0  0  0  0  0  0  0  0  0  0  0
   58.4760   32.5480   50.2630 N   0  0  0  0  0  0  0  0  0  0  0  0
   58.1120   31.5660   51.2780 C   0  0  0  0  0  0  0  0  0  0  0  0
   57.2730   32.2300   52.3700 C   0  0  0  0  0  0  0  0  0  0  0  0
   57.0500   31.2950   53.5640 C   0  0  0  0  0  0  0  0  0  0  0  0
   55.6930   30.7610   53.5470 N   0  0  0  0  0  0  0  0  0  0  0  0
   54.8920   30.6730   52.3630 C   0  0  0  0  0  0  0  0  0  0  0  0
   55.4130   30.2990   51.2770 O   0  0  0  0  0  0  0  0  0  0  0  0
   53.4700   31.0830   52.4080 C   0  0  0  0  0  0  0  0  0  0  0  0
   52.9150   31.7090   51.2760 C   0  0  0  0  0  0  0  0  0  0  0  0
   51.5620   32.0530   51.2440 C   0  0  0  0  0  0  0  0  0  0  0  0
   51.0260   32.6630   50.1160 O   0  0  0  0  0  0  0  0  0  0  0  0
   50.7440   31.7770   52.3410 C   0  0  0  0  0  0  0  0  0  0  0  0
   51.2830   31.1720   53.4770 C   0  0  0  0  0  0  0  0  0  0  0  0
   52.6420   30.8400   53.5340 C   0  0  0  0  0  0  0  0  0  0  0  0
   53.1320   30.3060   54.7280 O   0  0  0  0  0  0  0  0  0  0  0  0
   58.4500   32.5470   45.1020 C   0  0  0  0  0  0  0  0  0  0  0  0
   58.6110   34.0380   44.9070 C   0  0  0  0  0  0  0  0  0  0  0  0
   57.2786   33.2535   42.7491 H   0  0  0  0  0  0  0  0  0  0  0  0
   58.7145   32.3878   42.1044 H   0  0  0  0  0  0  0  0  0  0  0  0
   57.1073   31.5856   42.1044 H   0  0  0  0  0  0  0  0  0  0  0  0
   57.6546   29.6783   43.3816 H   0  0  0  0  0  0  0  0  0  0  0  0
   58.0645   28.6863   45.6231 H   0  0  0  0  0  0  0  0  0  0  0  0
   58.7058   30.1357   47.5376 H   0  0  0  0  0  0  0  0  0  0  0  0
   58.2170   33.0770   48.1550 H   0  0  0  0  0  0  0  0  0  0  0  0
   61.1386   32.6575   45.9511 H   0  0  0  0  0  0  0  0  0  0  0  0
   63.4932   33.1668   46.5882 H   0  0  0  0  0  0  0  0  0  0  0  0
   64.0413   33.8225   48.9303 H   0  0  0  0  0  0  0  0  0  0  0  0
   62.2417   33.9466   50.6483 H   0  0  0  0  0  0  0  0  0  0  0  0
   57.5291   30.7583   50.8111 H   0  0  0  0  0  0  0  0  0  0  0  0
   59.0278   31.1535   51.7266 H   0  0  0  0  0  0  0  0  0  0  0  0
   57.7933   33.1344   52.7183 H   0  0  0  0  0  0  0  0  0  0  0  0
   56.2905   32.4790   51.9425 H   0  0  0  0  0  0  0  0  0  0  0  0
   57.7674   30.4628   53.5112 H   0  0  0  0  0  0  0  0  0  0  0  0
   57.1973   31.8636   54.4940 H   0  0  0  0  0  0  0  0  0  0  0  0
   53.5535   31.9294   50.4078 H   0  0  0  0  0  0  0  0  0  0  0  0
   49.6754   32.0362   52.3099 H   0  0  0  0  0  0  0  0  0  0  0  0
   50.6331   30.9535   54.3372 H   0  0  0  0  0  0  0  0  0  0  0  0
   54.1170   30.2130   54.9340 H   0  0  0  0  0  0  0  0  0  0  0  0
   58.6644   34.5325   45.8882 H   0  0  0  0  0  0  0  0  0  0  0  0
   59.5358   34.2366   44.3455 H   0  0  0  0  0  0  0  0  0  0  0  0
   57.7499   34.4294   44.3455 H   0  0  0  0  0  0  0  0  0  0  0  0
  1  2  1  0
  2  3  2  0
  3  4  1  0
  4  5  2  0
  5  6  1  0
  6  7  1  0
  7  8  1  0
  8  9  2  0
  9 10  1  0
 10 11  2  0
 11 12  1  0
 12 13  2  0
 13 14  1  0
 14 15  2  0
 14 16  1  0
 16 17  1  0
 17 18  1  0
 18 19  1  0
 19 20  1  0
 20 21  1  0
 21 22  2  0
 21 23  1  0
 23 24  2  0
 24 25  1  0
 25 26  1  0
 25 27  2  0
 27 28  1  0
 28 29  2  0
 29 30  1  0
  6 31  2  0
 31 32  1  0
 31  2  1  0
 13  8  1  0
 29 23  1  0
  1 33  1  0
  1 34  1  0
  1 35  1  0
  3 36  1  0
  4 37  1  0
  5 38  1  0
  7 39  1  0
  9 40  1  0
 10 41  1  0
 11 42  1  0
 12 43  1  0
 17 44  1  0
 17 45  1  0
 18 46  1  0
 18 47  1  0
 19 48  1  0
 19 49  1  0
 24 50  1  0
 27 51  1  0
 28 52  1  0
 30 53  1  0
 32 54  1  0
 32 55  1  0
 32 56  1  0
M  CHG  3  16  -1  20  -1  26  -1
M  END
>  <UniqueID>  (43) 
40

>  <SMILES>  (43) 
Cc1cccc(Nc2ccccc2C(=O)[N-]CCC[N-]C(=O)c2cc([O-])ccc2O)c1C

>  <Energy>  (43) 
69.44376765831603

>  <Genealogy>  (43) 
Cc1cccc(Nc2ccccc2C(=O)[N-]CCC[N-]C(=O)c2cc([O-])ccc2O)c1C (protonated)
Cc1cccc(Nc2ccccc2C(=O)[N-]CCC[N-]C(=O)c2cc([O-])ccc2O)c1C (3D coordinates assigned)
Cc1cccc(Nc2ccccc2C(=O)[N-]CCC[N-]C(=O)c2cc([O-])ccc2O)c1C (optimized conformer: 69.44376765831603 kcal/mol)

>  <smiles>  (43) 
Cc1cccc(Nc2ccccc2C(=O)NCCCNC(=O)c2cc(O)ccc2O)c1C

>  <score_type>  (43) 
oracle

>  <origin>  (43) 
adg

>  <m_score__min__energy>  (43) 
-14.5

>  <m_primary>  (43) 
energy

$$$$
43:0
     RDKit          3D

 59 61  0  0  0  0  0  0  0  0999 V2000
   56.1750   31.0360   52.0220 C   0  0  0  0  0  0  0  0  0  0  0  0
   57.0710   30.2430   51.2490 O   0  0  0  0  0  0  0  0  0  0  0  0
   58.3270   30.6830   50.8010 C   0  0  0  0  0  0  0  0  0  0  0  0
   58.6370   32.0420   50.9290 C   0  0  0  0  0  0  0  0  0  0  0  0
   59.8720   32.5310   50.4930 C   0  0  0  0  0  0  0  0  0  0  0  0
   60.8210   31.6620   49.9230 C   0  0  0  0  0  0  0  0  0  0  0  0
   62.0990   32.1190   49.4540 N   0  0  0  0  0  0  0  0  0  0  0  0
   62.4180   32.9100   47.9440 S   0  0  0  0  0  0  0  0  0  0  0  0
   63.3290   32.0670   47.0940 O   0  0  0  0  0  0  0  0  0  0  0  0
   63.1180   34.2100   48.2220 O   0  0  0  0  0  0  0  0  0  0  0  0
   60.9020   33.2470   47.1100 C   0  0  0  0  0  0  0  0  0  0  0  0
   60.4630   34.5650   46.9160 C   0  0  0  0  0  0  0  0  0  0  0  0
   59.2870   34.8190   46.2060 C   0  0  0  0  0  0  0  0  0  0  0  0
   58.5170   33.7620   45.6940 C   0  0  0  0  0  0  0  0  0  0  0  0
   57.2920   34.0860   44.8850 C   0  0  0  0  0  0  0  0  0  0  0  0
   58.9230   32.4230   45.9460 C   0  0  0  0  0  0  0  0  0  0  0  0
   58.1220   31.2630   45.4990 C   0  0  0  0  0  0  0  0  0  0  0  0
   57.7060   30.4320   46.3560 O   0  0  0  0  0  0  0  0  0  0  0  0
   57.7810   31.0980   44.1170 N   0  0  0  0  0  0  0  0  0  0  0  0
   57.3640   29.8080   43.5700 C   0  0  0  0  0  0  0  0  0  0  0  0
   56.0090   29.4420   44.0840 C   0  0  0  0  0  0  0  0  0  0  0  0
   54.9830   29.8480   43.4760 O   0  0  0  0  0  0  0  0  0  0  0  0
   55.8910   28.6120   45.2470 N   0  0  0  0  0  0  0  0  0  0  0  0
   56.6070   27.3930   45.4990 C   0  0  0  0  0  0  0  0  0  0  0  0
   55.9050   26.2950   46.0090 C   0  0  0  0  0  0  0  0  0  0  0  0
   56.5610   25.0870   46.2550 C   0  0  0  0  0  0  0  0  0  0  0  0
   57.9290   24.9560   45.9900 C   0  0  0  0  0  0  0  0  0  0  0  0
   58.5530   23.6830   46.2180 N   0  0  0  0  0  0  0  0  0  0  0  0
   59.0790   22.7920   45.2240 C   0  0  0  0  0  0  0  0  0  0  0  0
   58.1860   22.2800   44.1500 C   0  0  0  0  0  0  0  0  0  0  0  0
   60.2670   22.3840   45.2820 O   0  0  0  0  0  0  0  0  0  0  0  0
   58.6280   26.0450   45.4350 C   0  0  0  0  0  0  0  0  0  0  0  0
   57.9730   27.2550   45.1940 C   0  0  0  0  0  0  0  0  0  0  0  0
   60.1320   32.1830   46.6230 C   0  0  0  0  0  0  0  0  0  0  0  0
   60.5130   30.3020   49.8030 C   0  0  0  0  0  0  0  0  0  0  0  0
   59.2760   29.8110   50.2350 C   0  0  0  0  0  0  0  0  0  0  0  0
   56.3658   30.8671   53.0921 H   0  0  0  0  0  0  0  0  0  0  0  0
   56.3289   32.0992   51.7854 H   0  0  0  0  0  0  0  0  0  0  0  0
   55.1384   30.7540   51.7854 H   0  0  0  0  0  0  0  0  0  0  0  0
   57.9039   32.7298   51.3757 H   0  0  0  0  0  0  0  0  0  0  0  0
   60.1034   33.6014   50.5961 H   0  0  0  0  0  0  0  0  0  0  0  0
   61.0474   35.4025   47.3248 H   0  0  0  0  0  0  0  0  0  0  0  0
   58.9608   35.8573   46.0464 H   0  0  0  0  0  0  0  0  0  0  0  0
   56.4537   34.3077   45.5618 H   0  0  0  0  0  0  0  0  0  0  0  0
   57.4926   34.9620   44.2506 H   0  0  0  0  0  0  0  0  0  0  0  0
   57.0333   33.2254   44.2506 H   0  0  0  0  0  0  0  0  0  0  0  0
   57.9690   31.8910   43.4610 H   0  0  0  0  0  0  0  0  0  0  0  0
   57.3308   29.8726   42.4724 H   0  0  0  0  0  0  0  0  0  0  0  0
   58.0851   29.0373   43.8797 H   0  0  0  0  0  0  0  0  0  0  0  0
   54.8286   26.3842   46.2176 H   0  0  0  0  0  0  0  0  0  0  0  0
   55.9987   24.2326   46.6598 H   0  0  0  0  0  0  0  0  0  0  0  0
   57.3164   21.7814   44.6029 H   0  0  0  0  0  0  0  0  0  0  0  0
   57.8439   23.1192   43.5265 H   0  0  0  0  0  0  0  0  0  0  0  0
   58.7374   21.5608   43.5265 H   0  0  0  0  0  0  0  0  0  0  0  0
   59.6954   25.9424   45.1899 H   0  0  0  0  0  0  0  0  0  0  0  0
   58.5273   28.1025   44.7644 H   0  0  0  0  0  0  0  0  0  0  0  0
   60.4766   31.1490   46.7717 H   0  0  0  0  0  0  0  0  0  0  0  0
   61.2501   29.6128   49.3651 H   0  0  0  0  0  0  0  0  0  0  0  0
   59.0445   28.7406   50.1320 H   0  0  0  0  0  0  0  0  0  0  0  0
  1  2  1  0
  2  3  1  0
  3  4  2  0
  4  5  1  0
  5  6  2  0
  6  7  1  0
  7  8  1  0
  8  9  2  0
  8 10  2  0
  8 11  1  0
 11 12  2  0
 12 13  1  0
 13 14  2  0
 14 15  1  0
 14 16  1  0
 16 17  1  0
 17 18  2  0
 17 19  1  0
 19 20  1  0
 20 21  1  0
 21 22  2  0
 21 23  1  0
 23 24  1  0
 24 25  2  0
 25 26  1  0
 26 27  2  0
 27 28  1  0
 28 29  1  0
 29 30  1  0
 29 31  2  0
 27 32  1  0
 32 33  2  0
 16 34  2  0
  6 35  1  0
 35 36  2  0
 36  3  1  0
 34 11  1  0
 33 24  1  0
  1 37  1  0
  1 38  1  0
  1 39  1  0
  4 40  1  0
  5 41  1  0
 12 42  1  0
 13 43  1  0
 15 44  1  0
 15 45  1  0
 15 46  1  0
 19 47  1  0
 20 48  1  0
 20 49  1  0
 25 50  1  0
 26 51  1  0
 30 52  1  0
 30 53  1  0
 30 54  1  0
 32 55  1  0
 33 56  1  0
 34 57  1  0
 35 58  1  0
 36 59  1  0
M  CHG  3   7  -1  23  -1  28  -1
M  END
>  <UniqueID>  (44) 
41

>  <SMILES>  (44) 
COc1ccc([N-]S(=O)(=O)c2ccc(C)c(C(=O)NCC(=O)[N-]c3ccc([N-]C(C)=O)cc3)c2)cc1

>  <Energy>  (44) 
73.74796768110467

>  <Genealogy>  (44) 
COc1ccc([N-]S(=O)(=O)c2ccc(C)c(C(=O)NCC(=O)[N-]c3ccc([N-]C(C)=O)cc3)c2)cc1 (protonated)
COc1ccc([N-]S(=O)(=O)c2ccc(C)c(C(=O)NCC(=O)[N-]c3ccc([N-]C(C)=O)cc3)c2)cc1 (3D coordinates assigned)
COc1ccc([N-]S(=O)(=O)c2ccc(C)c(C(=O)NCC(=O)[N-]c3ccc([N-]C(C)=O)cc3)c2)cc1 (optimized conformer: 73.74796768110467 kcal/mol)

>  <smiles>  (44) 
COc1ccc(NS(=O)(=O)c2ccc(C)c(C(=O)NCC(=O)Nc3ccc(NC(C)=O)cc3)c2)cc1

>  <score_type>  (44) 
oracle

>  <origin>  (44) 
adg

>  <m_score__min__energy>  (44) 
-13.869999999999999

>  <m_primary>  (44) 
energy

$$$$
44:0
     RDKit          3D

 70 74  0  0  1  0  0  0  0  0999 V2000
   60.3300   28.9420   45.1630 C   0  0  0  0  0  0  0  0  0  0  0  0
   59.4290   28.7790   46.3860 C   0  0  0  0  0  0  0  0  0  0  0  0
   58.7600   30.0840   46.7260 C   0  0  0  0  0  0  0  0  0  0  0  0
   57.5800   30.3510   45.9700 N   0  0  0  0  0  0  0  0  0  0  0  0
   57.5060   30.9050   44.6790 C   0  0  0  0  0  0  0  0  0  0  0  0
   57.0630   30.2340   43.5600 C   0  0  0  0  0  0  0  0  0  0  0  0
   57.0170   30.8210   42.3010 C   0  0  0  0  0  0  0  0  0  0  0  0
   57.4210   32.1260   42.1110 C   0  0  0  0  0  0  0  0  0  0  0  0
   57.8680   32.8090   43.2160 C   0  0  0  0  0  0  0  0  0  0  0  0
   57.9120   32.2300   44.4530 C   0  0  0  0  0  0  0  0  0  0  0  0
   58.4080   33.0400   45.5230 N   0  0  0  0  0  0  0  0  0  0  0  0
   57.5060   33.6190   46.5300 C   0  0  0  0  0  0  0  0  0  0  0  0
   57.9240   32.9280   47.8380 C   0  0  0  0  0  0  0  0  0  0  0  0
   59.3460   33.0720   48.0000 N   0  0  0  0  0  0  0  0  0  0  0  0
   60.0320   32.4340   49.0710 C   0  0  0  0  0  0  0  0  0  0  0  0
   59.3790   31.7220   49.8990 O   0  0  0  0  0  0  0  0  0  0  0  0
   61.4850   32.6100   49.1990 C   0  0  0  0  0  0  0  0  0  0  0  0
   61.9840   33.4760   50.1550 C   0  0  0  0  0  0  0  0  0  0  0  0
   63.3680   33.6300   50.2550 C   0  0  0  0  0  0  0  0  0  0  0  0
   64.1770   32.9240   49.4100 C   0  0  0  0  0  0  0  0  0  0  0  0
   65.6100   33.0240   49.4390 N   0  0  0  0  0  0  0  0  0  0  0  0
   66.3090   32.3880   50.3160 C   0  0  0  0  0  0  0  0  0  0  0  0
   66.3170   31.0480   50.2280 N   0  0  0  0  0  0  0  0  0  0  0  0
   67.0270   30.3390   51.1210 C   0  0  0  0  0  0  0  0  0  0  0  0
   67.0200   28.8850   51.0030 C   0  0  0  0  0  0  0  0  0  0  0  0
   67.9010   28.2370   50.1560 C   0  0  0  0  0  0  0  0  0  0  0  0
   67.9180   26.8630   50.0200 C   0  0  0  0  0  0  0  0  0  0  0  0
   67.0450   26.0650   50.7340 C   0  0  0  0  0  0  0  0  0  0  0  0
   66.1480   26.6970   51.5940 C   0  0  0  0  0  0  0  0  0  0  0  0
   66.1530   28.0800   51.7110 C   0  0  0  0  0  0  0  0  0  0  0  0
   67.7150   30.9950   52.0810 N   0  0  0  0  0  0  0  0  0  0  0  0
   67.7220   32.3390   52.1890 C   0  0  0  0  0  0  0  0  0  0  0  0
   66.9990   33.0890   51.2850 C   0  0  0  0  0  0  0  0  0  0  0  0
   66.9510   34.4830   51.3250 O   0  0  0  0  0  0  0  0  0  0  0  0
   63.6670   32.0510   48.4490 C   0  0  0  0  0  0  0  0  0  0  0  0
   62.2870   31.8910   48.3420 C   0  0  0  0  0  0  0  0  0  0  0  0
   60.0960   33.8860   47.0570 C   0  0  0  0  0  0  0  0  0  0  0  0
   59.8150   33.3390   45.6770 C   0  0  0  0  0  0  0  0  0  0  0  0
   61.3632   29.1289   45.4910 H   0  0  0  0  0  0  0  0  0  0  0  0
   60.2977   28.0234   44.5587 H   0  0  0  0  0  0  0  0  0  0  0  0
   59.9779   29.7910   44.5587 H   0  0  0  0  0  0  0  0  0  0  0  0
   58.6595   28.0231   46.1705 H   0  0  0  0  0  0  0  0  0  0  0  0
   60.0439   28.4612   47.2409 H   0  0  0  0  0  0  0  0  0  0  0  0
   58.4898   30.0656   47.7921 H   0  0  0  0  0  0  0  0  0  0  0  0
   59.4785   30.8804   46.4820 H   0  0  0  0  0  0  0  0  0  0  0  0
   56.6550   30.1030   46.4240 H   0  0  0  0  0  0  0  0  0  0  0  0
   56.7320   29.1905   43.6676 H   0  0  0  0  0  0  0  0  0  0  0  0
   56.6530   30.2361   41.4434 H   0  0  0  0  0  0  0  0  0  0  0  0
   57.3868   32.5990   41.1185 H   0  0  0  0  0  0  0  0  0  0  0  0
   58.1999   33.8515   43.1018 H   0  0  0  0  0  0  0  0  0  0  0  0
   57.6448   34.7079   46.6004 H   0  0  0  0  0  0  0  0  0  0  0  0
   56.4440   33.4649   46.2883 H   0  0  0  0  0  0  0  0  0  0  0  0
   57.4051   33.3971   48.6870 H   0  0  0  0  0  0  0  0  0  0  0  0
   57.6564   31.8617   47.8014 H   0  0  0  0  0  0  0  0  0  0  0  0
   61.3063   34.0304   50.8209 H   0  0  0  0  0  0  0  0  0  0  0  0
   63.8010   34.3100   51.0034 H   0  0  0  0  0  0  0  0  0  0  0  0
   68.6129   28.8372   49.5704 H   0  0  0  0  0  0  0  0  0  0  0  0
   68.6383   26.3962   49.3320 H   0  0  0  0  0  0  0  0  0  0  0  0
   67.0572   24.9702   50.6277 H   0  0  0  0  0  0  0  0  0  0  0  0
   65.4353   26.0987   52.1806 H   0  0  0  0  0  0  0  0  0  0  0  0
   65.4354   28.5535   52.3971 H   0  0  0  0  0  0  0  0  0  0  0  0
   68.2740   30.4720   52.7880 H   0  0  0  0  0  0  0  0  0  0  0  0
   68.2968   32.8309   52.9876 H   0  0  0  0  0  0  0  0  0  0  0  0
   66.3560   34.9430   50.6380 H   0  0  0  0  0  0  0  0  0  0  0  0
   64.3454   31.4961   47.7843 H   0  0  0  0  0  0  0  0  0  0  0  0
   61.8516   31.2107   47.5952 H   0  0  0  0  0  0  0  0  0  0  0  0
   59.7699   34.9346   47.1209 H   0  0  0  0  0  0  0  0  0  0  0  0
   61.1726   33.8521   47.2800 H   0  0  0  0  0  0  0  0  0  0  0  0
   60.1099   34.0860   44.9254 H   0  0  0  0  0  0  0  0  0  0  0  0
   60.3910   32.4120   45.5396 H   0  0  0  0  0  0  0  0  0  0  0  0
  1  2  1  0
  2  3  1  0
  3  4  1  0
  4  5  1  0
  5  6  2  0
  6  7  1  0
  7  8  2  0
  8  9  1  0
  9 10  2  0
 10 11  1  0
 11 12  1  0
 12 13  1  0
 13 14  1  0
 14 15  1  0
 15 16  2  0
 15 17  1  0
 17 18  2  0
 18 19  1  0
 19 20  2  0
 20 21  1  0
 21 22  2  0
 22 23  1  0
 23 24  2  0
 24 25  1  0
 25 26  2  0
 26 27  1  0
 27 28  2  0
 28 29  1  0
 29 30  2  0
 24 31  1  0
 31 32  1  0
 32 33  2  0
 33 34  1  0
 20 35  1  0
 35 36  2  0
 14 37  1  0
 37 38  1  0
 10  5  1  0
 38 11  1  0
 36 17  1  0
 33 22  1  0
 30 25  1  0
  1 39  1  0
  1 40  1  0
  1 41  1  0
  2 42  1  0
  2 43  1  0
  3 44  1  0
  3 45  1  0
  4 46  1  0
  6 47  1  0
  7 48  1  0
  8 49  1  0
  9 50  1  0
 12 51  1  0
 12 52  1  0
 13 53  1  0
 13 54  1  0
 18 55  1  0
 19 56  1  0
 26 57  1  0
 27 58  1  0
 28 59  1  0
 29 60  1  0
 30 61  1  0
 31 62  1  0
 32 63  1  0
 34 64  1  0
 35 65  1  0
 36 66  1  0
 37 67  1  0
 37 68  1  0
 38 69  1  0
 38 70  1  0
M  END
>  <smiles>  (45) 
CCCNc1ccccc1N1CCN(C(=O)c2ccc(N=c3nc(-c4ccccc4)[nH]cc3O)cc2)CC1

>  <score_type>  (45) 
oracle

>  <origin>  (45) 
adg

>  <m_score__min__energy>  (45) 
-8.7300000000000004

>  <m_primary>  (45) 
energy

$$$$
45:0
     RDKit          3D

 47 49  0  0  0  0  0  0  0  0999 V2000
   55.3510   29.2380   44.8060 N   0  0  0  0  0  0  0  0  0  0  0  0
   56.2680   28.2640   45.3030 C   0  0  0  0  0  0  0  0  0  0  0  0
   55.8430   27.1190   45.6200 O   0  0  0  0  0  0  0  0  0  0  0  0
   57.6890   28.6210   45.5090 C   0  0  0  0  0  0  0  0  0  0  0  0
   58.6060   27.5950   45.7970 C   0  0  0  0  0  0  0  0  0  0  0  0
   59.9700   27.8690   45.9110 C   0  0  0  0  0  0  0  0  0  0  0  0
   60.4410   29.1670   45.7190 C   0  0  0  0  0  0  0  0  0  0  0  0
   59.5490   30.1950   45.4220 C   0  0  0  0  0  0  0  0  0  0  0  0
   58.1710   29.9450   45.3450 C   0  0  0  0  0  0  0  0  0  0  0  0
   57.3040   31.0580   45.0950 N   0  0  0  0  0  0  0  0  0  0  0  0
   57.6560   32.4480   45.1360 C   0  0  0  0  0  0  0  0  0  0  0  0
   57.4940   33.1270   44.0840 O   0  0  0  0  0  0  0  0  0  0  0  0
   58.2560   33.0990   46.3380 C   0  0  0  0  0  0  0  0  0  0  0  0
   59.0260   34.2670   46.1840 C   0  0  0  0  0  0  0  0  0  0  0  0
   59.7120   34.8150   47.2660 C   0  0  0  0  0  0  0  0  0  0  0  0
   59.6370   34.2150   48.5210 C   0  0  0  0  0  0  0  0  0  0  0  0
   58.8370   33.0750   48.7170 C   0  0  0  0  0  0  0  0  0  0  0  0
   58.7410   32.4230   49.9970 N   0  0  0  0  0  0  0  0  0  0  0  0
   59.4840   31.2550   50.3640 C   0  0  0  0  0  0  0  0  0  0  0  0
   58.6540   29.8950   50.7460 S   0  0  0  0  0  0  0  0  0  0  0  0
   60.8790   31.3320   50.7020 N   0  0  0  0  0  0  0  0  0  0  0  0
   61.7060   32.5340   50.5760 C   0  0  0  0  0  0  0  0  0  0  0  0
   62.3490   32.6470   49.2170 C   0  0  0  0  0  0  0  0  0  0  0  0
   62.3830   31.5250   48.3710 C   0  0  0  0  0  0  0  0  0  0  0  0
   63.0410   31.5910   47.1440 C   0  0  0  0  0  0  0  0  0  0  0  0
   63.6620   32.7760   46.7430 C   0  0  0  0  0  0  0  0  0  0  0  0
   63.6400   33.8940   47.5790 C   0  0  0  0  0  0  0  0  0  0  0  0
   63.0030   33.8270   48.8200 C   0  0  0  0  0  0  0  0  0  0  0  0
   58.1680   32.5160   47.6170 C   0  0  0  0  0  0  0  0  0  0  0  0
   54.4010   29.3420   45.2240 H   0  0  0  0  0  0  0  0  0  0  0  0
   58.2447   26.5651   45.9340 H   0  0  0  0  0  0  0  0  0  0  0  0
   60.6744   27.0594   46.1527 H   0  0  0  0  0  0  0  0  0  0  0  0
   61.5171   29.3795   45.8020 H   0  0  0  0  0  0  0  0  0  0  0  0
   59.9289   31.2122   45.2462 H   0  0  0  0  0  0  0  0  0  0  0  0
   59.0869   34.7525   45.1988 H   0  0  0  0  0  0  0  0  0  0  0  0
   60.3150   35.7247   47.1287 H   0  0  0  0  0  0  0  0  0  0  0  0
   60.2065   34.6351   49.3631 H   0  0  0  0  0  0  0  0  0  0  0  0
   57.9330   32.6750   50.6120 H   0  0  0  0  0  0  0  0  0  0  0  0
   61.3360   30.4780   51.0960 H   0  0  0  0  0  0  0  0  0  0  0  0
   61.0727   33.4180   50.7422 H   0  0  0  0  0  0  0  0  0  0  0  0
   62.5099   32.4690   51.3240 H   0  0  0  0  0  0  0  0  0  0  0  0
   61.8886   30.5916   48.6783 H   0  0  0  0  0  0  0  0  0  0  0  0
   63.0713   30.7073   46.4897 H   0  0  0  0  0  0  0  0  0  0  0  0
   64.1687   32.8285   45.7680 H   0  0  0  0  0  0  0  0  0  0  0  0
   64.1248   34.8284   47.2599 H   0  0  0  0  0  0  0  0  0  0  0  0
   63.0128   34.7000   49.4891 H   0  0  0  0  0  0  0  0  0  0  0  0
   57.5646   31.6069   47.7563 H   0  0  0  0  0  0  0  0  0  0  0  0
  1  2  1  0
  2  3  2  0
  2  4  1  0
  4  5  2  0
  5  6  1  0
  6  7  2  0
  7  8  1  0
  8  9  2  0
  9 10  1  0
 10 11  1  0
 11 12  2  0
 11 13  1  0
 13 14  2  0
 14 15  1  0
 15 16  2  0
 16 17  1  0
 17 18  1  0
 18 19  1  0
 19 20  2  0
 19 21  1  0
 21 22  1  0
 22 23  1  0
 23 24  2  0
 24 25  1  0
 25 26  2  0
 26 27  1  0
 27 28  2  0
 17 29  2  0
  9  4  1  0
 29 13  1  0
 28 23  1  0
  1 30  1  0
  5 31  1  0
  6 32  1  0
  7 33  1  0
  8 34  1  0
 14 35  1  0
 15 36  1  0
 16 37  1  0
 18 38  1  0
 21 39  1  0
 22 40  1  0
 22 41  1  0
 24 42  1  0
 25 43  1  0
 26 44  1  0
 27 45  1  0
 28 46  1  0
 29 47  1  0
M  CHG  2   1  -1  10  -1
M  END
>  <UniqueID>  (46) 
42

>  <SMILES>  (46) 
[NH-]C(=O)c1ccccc1[N-]C(=O)c1cccc(NC(=S)NCc2ccccc2)c1

>  <Energy>  (46) 
65.55342970022815

>  <Genealogy>  (46) 
[NH-]C(=O)c1ccccc1[N-]C(=O)c1cccc(NC(=S)NCc2ccccc2)c1 (protonated)
[NH-]C(=O)c1ccccc1[N-]C(=O)c1cccc(NC(=S)NCc2ccccc2)c1 (3D coordinates assigned)
[NH-]C(=O)c1ccccc1[N-]C(=O)c1cccc(NC(=S)NCc2ccccc2)c1 (optimized conformer: 65.55342970022815 kcal/mol)

>  <smiles>  (46) 
NC(=O)c1ccccc1NC(=O)c1cccc(NC(=S)NCc2ccccc2)c1

>  <score_type>  (46) 
oracle

>  <origin>  (46) 
adg

>  <m_score__min__energy>  (46) 
-14.01

>  <m_primary>  (46) 
energy

$$$$
46:0
     RDKit          3D

 45 49  0  0  0  0  0  0  0  0999 V2000
   55.1410   27.5500   45.4650 H   0  0  0  0  0  0  0  0  0  0  0  0
   54.9980   26.6960   45.9900 O   0  0  0  0  0  0  0  0  0  0  0  0
   56.0630   25.8640   46.3270 C   0  0  0  0  0  0  0  0  0  0  0  0
   55.9470   24.8250   47.1710 N   0  0  0  0  0  0  0  0  0  0  0  0
   57.2120   24.3590   47.2470 C   0  0  0  0  0  0  0  0  0  0  0  0
   57.5290   23.3710   47.9590 O   0  0  0  0  0  0  0  0  0  0  0  0
   58.1120   25.0390   46.5050 N   0  0  0  0  0  0  0  0  0  0  0  0
   57.3700   25.9830   45.9010 C   0  0  0  0  0  0  0  0  0  0  0  0
   57.9370   27.0190   45.0250 C   0  0  0  0  0  0  0  0  0  0  0  0
   58.6377   26.7032   44.2381 H   0  0  0  0  0  0  0  0  0  0  0  0
   57.6520   28.3250   45.1270 C   0  0  0  0  0  0  0  0  0  0  0  0
   56.5750   28.9780   44.5340 C   0  0  0  0  0  0  0  0  0  0  0  0
   55.8267   28.5002   43.8847 H   0  0  0  0  0  0  0  0  0  0  0  0
   56.5850   30.2890   44.8750 N   0  0  0  0  0  0  0  0  0  0  0  0
   57.6280   30.4770   45.6690 N   0  0  0  0  0  0  0  0  0  0  0  0
   58.0430   31.6230   46.2830 C   0  0  0  0  0  0  0  0  0  0  0  0
   57.4460   32.7720   46.1310 N   0  0  0  0  0  0  0  0  0  0  0  0
   58.0150   33.9750   45.5320 C   0  0  0  0  0  0  0  0  0  0  0  0
   57.1413   34.2727   44.9336 H   0  0  0  0  0  0  0  0  0  0  0  0
   59.5070   33.8850   45.2660 C   0  0  0  0  0  0  0  0  0  0  0  0
   60.0380   32.9348   45.4246 H   0  0  0  0  0  0  0  0  0  0  0  0
   60.1597   34.1060   44.4086 H   0  0  0  0  0  0  0  0  0  0  0  0
   58.9900   34.6770   46.4590 C   0  0  0  0  0  0  0  0  0  0  0  0
   59.1474   34.2994   47.4801 H   0  0  0  0  0  0  0  0  0  0  0  0
   59.1142   35.7081   46.8215 H   0  0  0  0  0  0  0  0  0  0  0  0
   59.1380   31.5520   47.0870 N   0  0  0  0  0  0  0  0  0  0  0  0
   59.7930   30.3650   47.2880 C   0  0  0  0  0  0  0  0  0  0  0  0
   60.8490   30.2980   48.0440 N   0  0  0  0  0  0  0  0  0  0  0  0
   61.8290   31.3310   48.2510 C   0  0  0  0  0  0  0  0  0  0  0  0
   62.6980   31.6500   47.2020 C   0  0  0  0  0  0  0  0  0  0  0  0
   62.6065   31.1272   46.2385 H   0  0  0  0  0  0  0  0  0  0  0  0
   63.6810   32.6280   47.3700 C   0  0  0  0  0  0  0  0  0  0  0  0
   64.3504   32.8832   46.5352 H   0  0  0  0  0  0  0  0  0  0  0  0
   63.8150   33.2820   48.5960 C   0  0  0  0  0  0  0  0  0  0  0  0
   64.5832   34.0598   48.7185 H   0  0  0  0  0  0  0  0  0  0  0  0
   62.9800   32.9560   49.6700 C   0  0  0  0  0  0  0  0  0  0  0  0
   63.1660   33.6290   50.8870 O   0  0  0  0  0  0  0  0  0  0  0  0
   62.5250   33.2760   52.1090 C   0  0  0  0  0  0  0  0  0  0  0  0
   63.1394   33.6143   52.9564 H   0  0  0  0  0  0  0  0  0  0  0  0
   61.5370   33.7573   52.1572 H   0  0  0  0  0  0  0  0  0  0  0  0
   62.4036   32.1838   52.1572 H   0  0  0  0  0  0  0  0  0  0  0  0
   61.9910   31.9660   49.4970 C   0  0  0  0  0  0  0  0  0  0  0  0
   61.3421   31.6882   50.3407 H   0  0  0  0  0  0  0  0  0  0  0  0
   59.3610   29.2390   46.6560 N   0  0  0  0  0  0  0  0  0  0  0  0
   58.2820   29.3250   45.8430 C   0  0  0  0  0  0  0  0  0  0  0  0
  1  2  1  0
  2  3  1  0
  3  4  1  0
  4  5  1  0
  5  6  2  0
  5  7  1  0
  7  8  1  0
  8  9  1  0
  9 10  1  0
  9 11  2  3
 11 12  1  0
 12 13  1  0
 12 14  2  0
 14 15  1  0
 15 16  1  0
 16 17  2  0
 17 18  1  0
 18 19  1  0
 18 20  1  0
 20 21  1  0
 20 22  1  0
 20 23  1  0
 23 24  1  0
 23 25  1  0
 16 26  1  0
 26 27  1  0
 27 28  2  3
 28 29  1  0
 29 30  2  0
 30 31  1  0
 30 32  1  0
 32 33  1  0
 32 34  2  0
 34 35  1  0
 34 36  1  0
 36 37  1  0
 37 38  1  0
 38 39  1  0
 38 40  1  0
 38 41  1  0
 36 42  2  0
 42 43  1  0
 27 44  1  0
 44 45  2  0
  8  3  2  0
 45 11  1  0
 45 15  1  0
 23 18  1  0
 42 29  1  0
M  CHG  3   4  -1   7  -1  26  -1
M  END
>  <UniqueID>  (47) 
43

>  <SMILES>  (47) 
COc1cccc(N=c2nc3c(=Cc4[n-]c(=O)[n-]c4O)cnn3/c(=N\C3CC3)[n-]2)c1

>  <Energy>  (47) 
397.27291700520254

>  <Genealogy>  (47) 
COc1cccc(N=c2nc3c(=Cc4[n-]c(=O)[n-]c4O)cnn3c(=NC3CC3)[n-]2)c1 (protonated)
COc1cccc(N=c2nc3c(=Cc4[n-]c(=O)[n-]c4O)cnn3/c(=N\C3CC3)[n-]2)c1 (cis-trans isomerization)
COc1cccc(N=c2nc3c(=Cc4[n-]c(=O)[n-]c4O)cnn3/c(=N\C3CC3)[n-]2)c1 (3D coordinates assigned)
COc1cccc(N=c2nc3c(=Cc4[n-]c(=O)[n-]c4O)cnn3/c(=N\C3CC3)[n-]2)c1 (nonaromatic ring conformer: 397.27291700520254 kcal/mol)

>  <smiles>  (47) 
COc1cccc(N=c2nc3c(=Cc4[nH]c(=O)[nH]c4O)cnn3c(=NC3CC3)[nH]2)c1

>  <score_type>  (47) 
oracle

>  <origin>  (47) 
adg

>  <m_score__min__energy>  (47) 
-14.73

>  <m_primary>  (47) 
energy

$$$$
47:0
     RDKit          3D

 56 57  0  0  0  0  0  0  0  0999 V2000
   56.7400   25.1690   46.9390 C   0  0  0  0  0  0  0  0  0  0  0  0
   56.4820   26.2970   45.9450 C   0  0  0  0  0  0  0  0  0  0  0  0
   57.6360   26.4280   44.9450 C   0  0  0  0  0  0  0  0  0  0  0  0
   58.9720   26.0630   45.5970 C   0  0  0  0  0  0  0  0  0  0  0  0
   59.5880   27.2670   46.2550 C   0  0  0  0  0  0  0  0  0  0  0  0
   60.1950   28.2650   45.4790 C   0  0  0  0  0  0  0  0  0  0  0  0
   60.7750   29.3800   46.0910 C   0  0  0  0  0  0  0  0  0  0  0  0
   60.7680   29.5110   47.4930 C   0  0  0  0  0  0  0  0  0  0  0  0
   61.3000   30.6780   48.1510 N   0  0  0  0  0  0  0  0  0  0  0  0
   62.2850   31.5490   47.5720 C   0  0  0  0  0  0  0  0  0  0  0  0
   63.1900   31.0560   46.8440 O   0  0  0  0  0  0  0  0  0  0  0  0
   62.2820   32.9710   47.8380 N   0  0  0  0  0  0  0  0  0  0  0  0
   63.2230   33.8250   47.1040 C   0  0  0  0  0  0  0  0  0  0  0  0
   61.3000   33.6080   48.7330 C   0  0  0  0  0  0  0  0  0  0  0  0
   60.3730   34.5570   47.9620 C   0  0  0  0  0  0  0  0  0  0  0  0
   59.3490   33.8140   47.1460 C   0  0  0  0  0  0  0  0  0  0  0  0
   59.0920   32.4570   47.4010 C   0  0  0  0  0  0  0  0  0  0  0  0
   58.1460   31.7610   46.6440 C   0  0  0  0  0  0  0  0  0  0  0  0
   57.4380   32.4140   45.6200 C   0  0  0  0  0  0  0  0  0  0  0  0
   56.4700   31.7320   44.8100 N   0  0  0  0  0  0  0  0  0  0  0  0
   56.4700   30.0320   44.4710 S   0  0  0  0  0  0  0  0  0  0  0  0
   56.6180   29.7950   42.7160 C   0  0  0  0  0  0  0  0  0  0  0  0
   57.6330   29.3700   45.1540 O   0  0  0  0  0  0  0  0  0  0  0  0
   55.1830   29.4190   44.9450 O   0  0  0  0  0  0  0  0  0  0  0  0
   57.6920   33.7700   45.3690 C   0  0  0  0  0  0  0  0  0  0  0  0
   57.0250   34.4150   44.3790 F   0  0  0  0  0  0  0  0  0  0  0  0
   58.6470   34.4620   46.1200 C   0  0  0  0  0  0  0  0  0  0  0  0
   60.1680   28.5040   48.2640 C   0  0  0  0  0  0  0  0  0  0  0  0
   59.5940   27.3860   47.6520 C   0  0  0  0  0  0  0  0  0  0  0  0
   56.6513   25.5566   47.9646 H   0  0  0  0  0  0  0  0  0  0  0  0
   56.0018   24.3682   46.7846 H   0  0  0  0  0  0  0  0  0  0  0  0
   57.7529   24.7687   46.7846 H   0  0  0  0  0  0  0  0  0  0  0  0
   55.5529   26.0856   45.3953 H   0  0  0  0  0  0  0  0  0  0  0  0
   56.3956   27.2408   46.5033 H   0  0  0  0  0  0  0  0  0  0  0  0
   57.4541   25.7531   44.0956 H   0  0  0  0  0  0  0  0  0  0  0  0
   57.6867   27.4725   44.6038 H   0  0  0  0  0  0  0  0  0  0  0  0
   58.8031   25.2839   46.3550 H   0  0  0  0  0  0  0  0  0  0  0  0
   59.6571   25.6956   44.8187 H   0  0  0  0  0  0  0  0  0  0  0  0
   60.2148   28.1700   44.3833 H   0  0  0  0  0  0  0  0  0  0  0  0
   61.2406   30.1613   45.4724 H   0  0  0  0  0  0  0  0  0  0  0  0
   61.0080   30.8490   49.1370 H   0  0  0  0  0  0  0  0  0  0  0  0
   63.8422   34.3870   47.8187 H   0  0  0  0  0  0  0  0  0  0  0  0
   63.8697   33.1990   46.4716 H   0  0  0  0  0  0  0  0  0  0  0  0
   62.6625   34.5292   46.4716 H   0  0  0  0  0  0  0  0  0  0  0  0
   60.6930   32.8261   49.2127 H   0  0  0  0  0  0  0  0  0  0  0  0
   61.8471   34.1943   49.4860 H   0  0  0  0  0  0  0  0  0  0  0  0
   59.8505   35.2041   48.6819 H   0  0  0  0  0  0  0  0  0  0  0  0
   60.9929   35.1462   47.2702 H   0  0  0  0  0  0  0  0  0  0  0  0
   59.6392   31.9386   48.2021 H   0  0  0  0  0  0  0  0  0  0  0  0
   57.9544   30.6976   46.8502 H   0  0  0  0  0  0  0  0  0  0  0  0
   57.1910   28.8774   42.5170 H   0  0  0  0  0  0  0  0  0  0  0  0
   55.6155   29.7047   42.2724 H   0  0  0  0  0  0  0  0  0  0  0  0
   57.1391   30.6562   42.2724 H   0  0  0  0  0  0  0  0  0  0  0  0
   58.8488   35.5216   45.9044 H   0  0  0  0  0  0  0  0  0  0  0  0
   60.1491   28.5951   49.3601 H   0  0  0  0  0  0  0  0  0  0  0  0
   59.1444   26.5949   48.2701 H   0  0  0  0  0  0  0  0  0  0  0  0
  1  2  1  0
  2  3  1  0
  3  4  1  0
  4  5  1  0
  5  6  2  0
  6  7  1  0
  7  8  2  0
  8  9  1  0
  9 10  1  0
 10 11  2  0
 10 12  1  0
 12 13  1  0
 12 14  1  0
 14 15  1  0
 15 16  1  0
 16 17  2  0
 17 18  1  0
 18 19  2  0
 19 20  1  0
 20 21  1  0
 21 22  1  0
 21 23  2  0
 21 24  2  0
 19 25  1  0
 25 26  1  0
 25 27  2  0
  8 28  1  0
 28 29  2  0
 29  5  1  0
 27 16  1  0
  1 30  1  0
  1 31  1  0
  1 32  1  0
  2 33  1  0
  2 34  1  0
  3 35  1  0
  3 36  1  0
  4 37  1  0
  4 38  1  0
  6 39  1  0
  7 40  1  0
  9 41  1  0
 13 42  1  0
 13 43  1  0
 13 44  1  0
 14 45  1  0
 14 46  1  0
 15 47  1  0
 15 48  1  0
 17 49  1  0
 18 50  1  0
 22 51  1  0
 22 52  1  0
 22 53  1  0
 27 54  1  0
 28 55  1  0
 29 56  1  0
M  CHG  1  20  -1
M  END
>  <UniqueID>  (48) 
44

>  <SMILES>  (48) 
CCCCc1ccc(NC(=O)N(C)CCc2ccc([N-]S(C)(=O)=O)c(F)c2)cc1

>  <Energy>  (48) 
40.425892863795895

>  <Genealogy>  (48) 
CCCCc1ccc(NC(=O)N(C)CCc2ccc([N-]S(C)(=O)=O)c(F)c2)cc1 (protonated)
CCCCc1ccc(NC(=O)N(C)CCc2ccc([N-]S(C)(=O)=O)c(F)c2)cc1 (3D coordinates assigned)
CCCCc1ccc(NC(=O)N(C)CCc2ccc([N-]S(C)(=O)=O)c(F)c2)cc1 (optimized conformer: 40.425892863795895 kcal/mol)

>  <smiles>  (48) 
CCCCc1ccc(NC(=O)N(C)CCc2ccc(NS(C)(=O)=O)c(F)c2)cc1

>  <score_type>  (48) 
oracle

>  <origin>  (48) 
adg

>  <m_score__min__energy>  (48) 
-10.51

>  <m_primary>  (48) 
energy

$$$$
48:0
     RDKit          3D

 38 40  0  0  0  0  0  0  0  0999 V2000
   62.3610   32.1980   49.0230 C   0  0  0  0  0  0  0  0  0  0  0  0
   62.1970   33.9090   48.5660 S   0  0  0  0  0  0  0  0  0  0  0  0
   63.0310   34.1720   47.3450 O   0  0  0  0  0  0  0  0  0  0  0  0
   62.6690   34.7690   49.7060 O   0  0  0  0  0  0  0  0  0  0  0  0
   60.5310   34.2410   48.2270 N   0  0  0  0  0  0  0  0  0  0  0  0
   59.8210   33.8000   47.0610 C   0  0  0  0  0  0  0  0  0  0  0  0
   59.7850   34.6390   45.9420 C   0  0  0  0  0  0  0  0  0  0  0  0
   59.1200   34.2420   44.7800 C   0  0  0  0  0  0  0  0  0  0  0  0
   58.4670   33.0060   44.7260 C   0  0  0  0  0  0  0  0  0  0  0  0
   57.7430   32.5090   43.2010 Cl  0  0  0  0  0  0  0  0  0  0  0  0
   58.4680   32.1660   45.8590 C   0  0  0  0  0  0  0  0  0  0  0  0
   57.8170   30.8900   45.8540 N   0  0  0  0  0  0  0  0  0  0  0  0
   58.3870   29.6950   45.3090 C   0  0  0  0  0  0  0  0  0  0  0  0
   59.4960   29.7380   44.7090 O   0  0  0  0  0  0  0  0  0  0  0  0
   57.6820   28.4030   45.4590 C   0  0  0  0  0  0  0  0  0  0  0  0
   56.2710   28.3210   45.4050 C   0  0  0  0  0  0  0  0  0  0  0  0
   55.4720   29.4250   45.1020 O   0  0  0  0  0  0  0  0  0  0  0  0
   55.6550   27.1300   45.6210 N   0  0  0  0  0  0  0  0  0  0  0  0
   56.3420   25.9860   45.8690 C   0  0  0  0  0  0  0  0  0  0  0  0
   55.6490   24.7890   46.0800 C   0  0  0  0  0  0  0  0  0  0  0  0
   56.3510   23.6060   46.3260 C   0  0  0  0  0  0  0  0  0  0  0  0
   57.7480   23.6140   46.3600 C   0  0  0  0  0  0  0  0  0  0  0  0
   58.4500   24.8040   46.1510 C   0  0  0  0  0  0  0  0  0  0  0  0
   57.7530   26.0030   45.9020 C   0  0  0  0  0  0  0  0  0  0  0  0
   58.4220   27.2250   45.6960 C   0  0  0  0  0  0  0  0  0  0  0  0
   59.6830   27.2710   45.7450 O   0  0  0  0  0  0  0  0  0  0  0  0
   59.1670   32.5570   47.0090 C   0  0  0  0  0  0  0  0  0  0  0  0
   62.3694   32.1105   50.1195 H   0  0  0  0  0  0  0  0  0  0  0  0
   61.5135   31.6269   48.6161 H   0  0  0  0  0  0  0  0  0  0  0  0
   63.3016   31.7983   48.6161 H   0  0  0  0  0  0  0  0  0  0  0  0
   60.2842   35.6186   45.9778 H   0  0  0  0  0  0  0  0  0  0  0  0
   59.1096   34.9049   43.9022 H   0  0  0  0  0  0  0  0  0  0  0  0
   55.7540   30.3800   45.2800 H   0  0  0  0  0  0  0  0  0  0  0  0
   54.5494   24.7791   46.0522 H   0  0  0  0  0  0  0  0  0  0  0  0
   55.8030   22.6670   46.4931 H   0  0  0  0  0  0  0  0  0  0  0  0
   58.2969   22.6803   46.5520 H   0  0  0  0  0  0  0  0  0  0  0  0
   59.5496   24.8048   46.1809 H   0  0  0  0  0  0  0  0  0  0  0  0
   59.2042   31.8849   47.8790 H   0  0  0  0  0  0  0  0  0  0  0  0
  1  2  1  0
  2  3  2  0
  2  4  2  0
  2  5  1  0
  5  6  1  0
  6  7  2  0
  7  8  1  0
  8  9  2  0
  9 10  1  0
  9 11  1  0
 11 12  1  0
 12 13  1  0
 13 14  2  0
 13 15  1  0
 15 16  2  0
 16 17  1  0
 16 18  1  0
 18 19  1  0
 19 20  2  0
 20 21  1  0
 21 22  2  0
 22 23  1  0
 23 24  2  0
 24 25  1  0
 25 26  2  0
 11 27  2  0
 27  6  1  0
 25 15  1  0
 24 19  1  0
  1 28  1  0
  1 29  1  0
  1 30  1  0
  7 31  1  0
  8 32  1  0
 17 33  1  0
 20 34  1  0
 21 35  1  0
 22 36  1  0
 23 37  1  0
 27 38  1  0
M  CHG  3   5  -1  12  -1  18  -1
M  END
>  <UniqueID>  (49) 
45

>  <SMILES>  (49) 
CS(=O)(=O)[N-]c1ccc(Cl)c([N-]C(=O)c2c(O)[n-]c3ccccc3c2=O)c1

>  <Energy>  (49) 
58.420387228646995

>  <Genealogy>  (49) 
CS(=O)(=O)[N-]c1ccc(Cl)c([N-]C(=O)c2c(O)[n-]c3ccccc3c2=O)c1 (protonated)
CS(=O)(=O)[N-]c1ccc(Cl)c([N-]C(=O)c2c(O)[n-]c3ccccc3c2=O)c1 (3D coordinates assigned)
CS(=O)(=O)[N-]c1ccc(Cl)c([N-]C(=O)c2c(O)[n-]c3ccccc3c2=O)c1 (optimized conformer: 58.420387228646995 kcal/mol)

>  <smiles>  (49) 
CS(=O)(=O)Nc1ccc(Cl)c(NC(=O)c2c(O)[nH]c3ccccc3c2=O)c1

>  <score_type>  (49) 
oracle

>  <origin>  (49) 
adg

>  <m_score__min__energy>  (49) 
-13.710000000000001

>  <m_primary>  (49) 
energy

$$$$
49:0
     RDKit          3D

 57 61  0  0  0  0  0  0  0  0999 V2000
   57.4750   22.7040   44.1090 C   0  0  0  0  0  0  0  0  0  0  0  0
   56.3520   23.5550   43.5380 C   0  0  0  0  0  0  0  0  0  0  0  0
   55.0970   22.9590   43.8470 O   0  0  0  0  0  0  0  0  0  0  0  0
   54.2840   23.4100   44.8920 C   0  0  0  0  0  0  0  0  0  0  0  0
   53.0710   23.0710   44.9530 O   0  0  0  0  0  0  0  0  0  0  0  0
   54.8500   24.2830   45.9250 C   0  0  0  0  0  0  0  0  0  0  0  0
   55.1300   23.8020   47.0560 O   0  0  0  0  0  0  0  0  0  0  0  0
   55.0770   25.6730   45.6300 N   0  0  0  0  0  0  0  0  0  0  0  0
   56.0980   26.3960   45.9940 C   0  0  0  0  0  0  0  0  0  0  0  0
   56.2140   27.6940   45.6030 N   0  0  0  0  0  0  0  0  0  0  0  0
   57.2730   28.4560   45.9780 C   0  0  0  0  0  0  0  0  0  0  0  0
   57.3600   29.7850   45.5560 C   0  0  0  0  0  0  0  0  0  0  0  0
   58.4540   30.5870   45.9360 C   0  0  0  0  0  0  0  0  0  0  0  0
   58.5780   31.9280   45.5220 C   0  0  0  0  0  0  0  0  0  0  0  0
   57.5680   32.6000   44.6370 C   0  0  0  0  0  0  0  0  0  0  0  0
   59.6690   32.6400   45.9030 N   0  0  0  0  0  0  0  0  0  0  0  0
   60.6410   32.1280   46.6620 N   0  0  0  0  0  0  0  0  0  0  0  0
   61.8260   32.9590   46.9090 C   0  0  0  0  0  0  0  0  0  0  0  0
   61.4590   34.2080   47.7230 C   0  0  0  0  0  0  0  0  0  0  0  0
   61.2780   33.8800   49.1790 C   0  0  0  0  0  0  0  0  0  0  0  0
   62.2440   33.9940   50.1730 C   0  0  0  0  0  0  0  0  0  0  0  0
   61.8030   33.4420   51.3270 N   0  0  0  0  0  0  0  0  0  0  0  0
   60.5740   32.9660   51.0660 C   0  0  0  0  0  0  0  0  0  0  0  0
   59.7460   32.2500   51.9290 C   0  0  0  0  0  0  0  0  0  0  0  0
   58.5160   31.7850   51.4280 C   0  0  0  0  0  0  0  0  0  0  0  0
   58.1460   32.0430   50.0890 C   0  0  0  0  0  0  0  0  0  0  0  0
   59.0010   32.7690   49.2410 C   0  0  0  0  0  0  0  0  0  0  0  0
   60.2160   33.2160   49.7660 C   0  0  0  0  0  0  0  0  0  0  0  0
   60.5720   30.8340   47.1040 C   0  0  0  0  0  0  0  0  0  0  0  0
   61.5020   30.3580   47.8140 O   0  0  0  0  0  0  0  0  0  0  0  0
   59.4710   30.0340   46.7480 C   0  0  0  0  0  0  0  0  0  0  0  0
   59.3760   28.6940   47.1710 C   0  0  0  0  0  0  0  0  0  0  0  0
   58.2810   27.9030   46.7890 C   0  0  0  0  0  0  0  0  0  0  0  0
   58.1460   26.5610   47.1830 C   0  0  0  0  0  0  0  0  0  0  0  0
   59.0200   26.0130   47.9100 O   0  0  0  0  0  0  0  0  0  0  0  0
   57.0620   25.8410   46.7800 N   0  0  0  0  0  0  0  0  0  0  0  0
   57.4354   22.7340   45.2079 H   0  0  0  0  0  0  0  0  0  0  0  0
   57.3586   21.6653   43.7661 H   0  0  0  0  0  0  0  0  0  0  0  0
   58.4435   23.0970   43.7661 H   0  0  0  0  0  0  0  0  0  0  0  0
   56.3967   24.5626   43.9770 H   0  0  0  0  0  0  0  0  0  0  0  0
   56.4648   23.6238   42.4460 H   0  0  0  0  0  0  0  0  0  0  0  0
   56.5675   30.2087   44.9216 H   0  0  0  0  0  0  0  0  0  0  0  0
   56.8125   33.1027   45.2587 H   0  0  0  0  0  0  0  0  0  0  0  0
   58.0733   33.3426   44.0020 H   0  0  0  0  0  0  0  0  0  0  0  0
   57.0783   31.8470   44.0020 H   0  0  0  0  0  0  0  0  0  0  0  0
   62.5686   32.3704   47.4676 H   0  0  0  0  0  0  0  0  0  0  0  0
   62.2389   33.2791   45.9410 H   0  0  0  0  0  0  0  0  0  0  0  0
   62.2637   34.9510   47.6208 H   0  0  0  0  0  0  0  0  0  0  0  0
   60.5090   34.6060   47.3370 H   0  0  0  0  0  0  0  0  0  0  0  0
   63.2283   34.4666   50.0398 H   0  0  0  0  0  0  0  0  0  0  0  0
   62.3320   33.3660   52.2250 H   0  0  0  0  0  0  0  0  0  0  0  0
   60.0448   32.0545   52.9694 H   0  0  0  0  0  0  0  0  0  0  0  0
   57.8385   31.2173   52.0827 H   0  0  0  0  0  0  0  0  0  0  0  0
   57.1827   31.6735   49.7074 H   0  0  0  0  0  0  0  0  0  0  0  0
   58.7221   32.9783   48.1977 H   0  0  0  0  0  0  0  0  0  0  0  0
   60.1654   28.2642   47.8052 H   0  0  0  0  0  0  0  0  0  0  0  0
   56.9720   24.8430   47.0800 H   0  0  0  0  0  0  0  0  0  0  0  0
  1  2  1  0
  2  3  1  0
  3  4  1  0
  4  5  2  0
  4  6  1  0
  6  7  2  0
  6  8  1  0
  8  9  2  3
  9 10  1  0
 10 11  1  0
 11 12  2  0
 12 13  1  0
 13 14  1  0
 14 15  1  0
 14 16  2  0
 16 17  1  0
 17 18  1  0
 18 19  1  0
 19 20  1  0
 20 21  2  0
 21 22  1  0
 22 23  1  0
 23 24  2  0
 24 25  1  0
 25 26  2  0
 26 27  1  0
 27 28  2  0
 17 29  1  0
 29 30  2  0
 29 31  1  0
 31 32  1  0
 32 33  2  0
 33 34  1  0
 34 35  2  0
 34 36  1  0
 36  9  1  0
 33 11  1  0
 31 13  2  0
 28 20  1  0
 28 23  1  0
  1 37  1  0
  1 38  1  0
  1 39  1  0
  2 40  1  0
  2 41  1  0
 12 42  1  0
 15 43  1  0
 15 44  1  0
 15 45  1  0
 18 46  1  0
 18 47  1  0
 19 48  1  0
 19 49  1  0
 21 50  1  0
 22 51  1  0
 24 52  1  0
 25 53  1  0
 26 54  1  0
 27 55  1  0
 32 56  1  0
 36 57  1  0
M  CHG  1  10  -1
M  END
>  <UniqueID>  (50) 
46

>  <SMILES>  (50) 
CCOC(=O)C(=O)N=c1[n-]c2cc3c(C)nn(CCc4c[nH]c5ccccc45)c(=O)c3cc2c(=O)[nH]1

>  <Energy>  (50) 
96.83683448028391

>  <Genealogy>  (50) 
CCOC(=O)C(=O)N=c1[n-]c2cc3c(C)nn(CCc4c[nH]c5ccccc45)c(=O)c3cc2c(=O)[nH]1 (protonated)
CCOC(=O)C(=O)N=c1[n-]c2cc3c(C)nn(CCc4c[nH]c5ccccc45)c(=O)c3cc2c(=O)[nH]1 (3D coordinates assigned)
CCOC(=O)C(=O)N=c1[n-]c2cc3c(C)nn(CCc4c[nH]c5ccccc45)c(=O)c3cc2c(=O)[nH]1 (optimized conformer: 96.83683448028391 kcal/mol)

>  <smiles>  (50) 
CCOC(=O)C(=O)N=c1[nH]c(=O)c2cc3c(=O)n(CCc4c[nH]c5ccccc45)nc(C)c3cc2[nH]1

>  <score_type>  (50) 
oracle

>  <origin>  (50) 
adg

>  <m_score__min__energy>  (50) 
-11.130000000000001

>  <m_primary>  (50) 
energy

$$$$
50:0
     RDKit          3D

 49 51  0  0  0  0  0  0  0  0999 V2000
   60.2620   29.6690   50.8740 C   0  0  0  0  0  0  0  0  0  0  0  0
   58.8930   29.3350   50.2920 C   0  0  0  0  0  0  0  0  0  0  0  0
   57.9460   30.3550   50.6080 O   0  0  0  0  0  0  0  0  0  0  0  0
   58.2100   31.5300   51.3330 C   0  0  0  0  0  0  0  0  0  0  0  0
   57.8850   31.6570   52.7000 C   0  0  0  0  0  0  0  0  0  0  0  0
   58.1620   32.8410   53.3850 C   0  0  0  0  0  0  0  0  0  0  0  0
   58.7590   33.9120   52.7210 C   0  0  0  0  0  0  0  0  0  0  0  0
   59.0910   33.8000   51.3710 C   0  0  0  0  0  0  0  0  0  0  0  0
   58.8350   32.6070   50.6680 C   0  0  0  0  0  0  0  0  0  0  0  0
   59.1300   32.5010   49.2620 N   0  0  0  0  0  0  0  0  0  0  0  0
   59.4890   33.6150   48.4310 C   0  0  0  0  0  0  0  0  0  0  0  0
   60.1440   34.5760   48.9200 O   0  0  0  0  0  0  0  0  0  0  0  0
   59.1490   33.6170   46.9890 C   0  0  0  0  0  0  0  0  0  0  0  0
   59.3470   34.7860   46.2340 C   0  0  0  0  0  0  0  0  0  0  0  0
   59.0480   34.8070   44.8690 C   0  0  0  0  0  0  0  0  0  0  0  0
   58.5500   33.6640   44.2450 C   0  0  0  0  0  0  0  0  0  0  0  0
   58.3290   32.5020   44.9860 C   0  0  0  0  0  0  0  0  0  0  0  0
   58.6000   32.4730   46.3670 C   0  0  0  0  0  0  0  0  0  0  0  0
   58.3520   31.3250   47.1370 O   0  0  0  0  0  0  0  0  0  0  0  0
   59.0710   30.1230   47.0790 C   0  0  0  0  0  0  0  0  0  0  0  0
   60.1490   29.9900   47.7230 O   0  0  0  0  0  0  0  0  0  0  0  0
   58.5960   29.0320   46.1990 C   0  0  0  0  0  0  0  0  0  0  0  0
   59.1430   28.8720   44.9130 C   0  0  0  0  0  0  0  0  0  0  0  0
   58.7100   27.8360   44.0860 C   0  0  0  0  0  0  0  0  0  0  0  0
   57.7250   26.9490   44.5250 C   0  0  0  0  0  0  0  0  0  0  0  0
   57.1600   27.0890   45.8050 C   0  0  0  0  0  0  0  0  0  0  0  0
   56.1140   26.1470   46.2690 C   0  0  0  0  0  0  0  0  0  0  0  0
   54.7720   26.2610   45.7980 N   0  0  0  0  0  0  0  0  0  0  0  0
   56.4000   25.2310   47.0880 O   0  0  0  0  0  0  0  0  0  0  0  0
   57.6040   28.1350   46.6360 C   0  0  0  0  0  0  0  0  0  0  0  0
   60.2066   29.6555   51.9725 H   0  0  0  0  0  0  0  0  0  0  0  0
   60.9964   28.9237   50.5347 H   0  0  0  0  0  0  0  0  0  0  0  0
   60.5707   30.6688   50.5347 H   0  0  0  0  0  0  0  0  0  0  0  0
   58.9774   29.2473   49.1988 H   0  0  0  0  0  0  0  0  0  0  0  0
   58.5470   28.3855   50.7264 H   0  0  0  0  0  0  0  0  0  0  0  0
   57.4103   30.8176   53.2292 H   0  0  0  0  0  0  0  0  0  0  0  0
   57.9086   32.9296   54.4518 H   0  0  0  0  0  0  0  0  0  0  0  0
   58.9684   34.8463   53.2625 H   0  0  0  0  0  0  0  0  0  0  0  0
   59.5565   34.6504   50.8513 H   0  0  0  0  0  0  0  0  0  0  0  0
   59.0900   31.5590   48.8120 H   0  0  0  0  0  0  0  0  0  0  0  0
   59.7401   35.6906   46.7210 H   0  0  0  0  0  0  0  0  0  0  0  0
   59.2058   35.7265   44.2862 H   0  0  0  0  0  0  0  0  0  0  0  0
   58.3309   33.6780   43.1671 H   0  0  0  0  0  0  0  0  0  0  0  0
   57.9401   31.6021   44.4870 H   0  0  0  0  0  0  0  0  0  0  0  0
   59.9169   29.5682   44.5576 H   0  0  0  0  0  0  0  0  0  0  0  0
   59.1464   27.7170   43.0833 H   0  0  0  0  0  0  0  0  0  0  0  0
   57.3889   26.1355   43.8653 H   0  0  0  0  0  0  0  0  0  0  0  0
   54.0370   26.7220   46.3780 H   0  0  0  0  0  0  0  0  0  0  0  0
   57.1698   28.2525   47.6398 H   0  0  0  0  0  0  0  0  0  0  0  0
  1  2  1  0
  2  3  1  0
  3  4  1  0
  4  5  2  0
  5  6  1  0
  6  7  2  0
  7  8  1  0
  8  9  2  0
  9 10  1  0
 10 11  1  0
 11 12  2  0
 11 13  1  0
 13 14  2  0
 14 15  1  0
 15 16  2  0
 16 17  1  0
 17 18  2  0
 18 19  1  0
 19 20  1  0
 20 21  2  0
 20 22  1  0
 22 23  2  0
 23 24  1  0
 24 25  2  0
 25 26  1  0
 26 27  1  0
 27 28  1  0
 27 29  2  0
 26 30  2  0
  9  4  1  0
 18 13  1  0
 30 22  1  0
  1 31  1  0
  1 32  1  0
  1 33  1  0
  2 34  1  0
  2 35  1  0
  5 36  1  0
  6 37  1  0
  7 38  1  0
  8 39  1  0
 10 40  1  0
 14 41  1  0
 15 42  1  0
 16 43  1  0
 17 44  1  0
 23 45  1  0
 24 46  1  0
 25 47  1  0
 28 48  1  0
 30 49  1  0
M  CHG  1  28  -1
M  END
>  <UniqueID>  (51) 
47

>  <SMILES>  (51) 
CCOc1ccccc1NC(=O)c1ccccc1OC(=O)c1cccc(C([NH-])=O)c1

>  <Energy>  (51) 
60.313205526662955

>  <Genealogy>  (51) 
CCOc1ccccc1NC(=O)c1ccccc1OC(=O)c1cccc(C([NH-])=O)c1 (protonated)
CCOc1ccccc1NC(=O)c1ccccc1OC(=O)c1cccc(C([NH-])=O)c1 (3D coordinates assigned)
CCOc1ccccc1NC(=O)c1ccccc1OC(=O)c1cccc(C([NH-])=O)c1 (optimized conformer: 60.313205526662955 kcal/mol)

>  <smiles>  (51) 
CCOc1ccccc1NC(=O)c1ccccc1OC(=O)c1cccc(C(N)=O)c1

>  <score_type>  (51) 
oracle

>  <origin>  (51) 
adg

>  <m_score__min__energy>  (51) 
-11.49

>  <m_primary>  (51) 
energy

$$$$
51:0
     RDKit          3D

 42 44  0  0  0  0  0  0  0  0999 V2000
   56.9870   28.6890   43.1170 O   0  0  0  0  0  0  0  0  0  0  0  0
   57.3640   29.0790   44.2550 C   0  0  0  0  0  0  0  0  0  0  0  0
   56.8130   30.2750   44.8220 N   0  0  0  0  0  0  0  0  0  0  0  0
   57.5390   31.3390   45.4560 C   0  0  0  0  0  0  0  0  0  0  0  0
   57.6570   32.6130   44.8730 C   0  0  0  0  0  0  0  0  0  0  0  0
   58.3960   33.6130   45.5120 C   0  0  0  0  0  0  0  0  0  0  0  0
   59.0390   33.3510   46.7290 C   0  0  0  0  0  0  0  0  0  0  0  0
   59.9780   34.6110   47.5320 S   0  0  0  0  0  0  0  0  0  0  0  0
   59.9720   35.8500   46.6800 O   0  0  0  0  0  0  0  0  0  0  0  0
   59.3240   34.9470   48.8440 O   0  0  0  0  0  0  0  0  0  0  0  0
   61.6270   34.1120   47.8200 N   0  0  0  0  0  0  0  0  0  0  0  0
   61.6690   32.9350   48.7030 C   0  0  0  0  0  0  0  0  0  0  0  0
   63.1300   32.4950   48.9520 C   0  0  0  0  0  0  0  0  0  0  0  0
   64.0530   33.1950   48.1370 O   0  0  0  0  0  0  0  0  0  0  0  0
   63.6590   33.1060   46.7820 C   0  0  0  0  0  0  0  0  0  0  0  0
   62.3160   33.8320   46.5450 C   0  0  0  0  0  0  0  0  0  0  0  0
   58.9390   32.0750   47.2990 C   0  0  0  0  0  0  0  0  0  0  0  0
   58.2030   31.0730   46.6610 C   0  0  0  0  0  0  0  0  0  0  0  0
   58.3730   28.2870   45.0000 C   0  0  0  0  0  0  0  0  0  0  0  0
   59.7320   28.6390   44.8720 C   0  0  0  0  0  0  0  0  0  0  0  0
   60.7200   27.9380   45.5680 C   0  0  0  0  0  0  0  0  0  0  0  0
   60.3700   26.8730   46.3950 C   0  0  0  0  0  0  0  0  0  0  0  0
   59.0320   26.4990   46.5240 C   0  0  0  0  0  0  0  0  0  0  0  0
   58.0290   27.1920   45.8320 C   0  0  0  0  0  0  0  0  0  0  0  0
   56.3790   26.5940   45.9930 Cl  0  0  0  0  0  0  0  0  0  0  0  0
   57.1664   32.8235   43.9112 H   0  0  0  0  0  0  0  0  0  0  0  0
   58.4731   34.6114   45.0567 H   0  0  0  0  0  0  0  0  0  0  0  0
   62.1090   34.9100   48.2980 H   0  0  0  0  0  0  0  0  0  0  0  0
   61.1983   33.1873   49.6647 H   0  0  0  0  0  0  0  0  0  0  0  0
   61.1268   32.1089   48.2197 H   0  0  0  0  0  0  0  0  0  0  0  0
   63.3795   32.6805   50.0072 H   0  0  0  0  0  0  0  0  0  0  0  0
   63.2051   31.4267   48.7008 H   0  0  0  0  0  0  0  0  0  0  0  0
   64.4332   33.5677   46.1516 H   0  0  0  0  0  0  0  0  0  0  0  0
   63.5328   32.0442   46.5236 H   0  0  0  0  0  0  0  0  0  0  0  0
   62.5088   34.7822   46.0254 H   0  0  0  0  0  0  0  0  0  0  0  0
   61.6711   33.1806   45.9369 H   0  0  0  0  0  0  0  0  0  0  0  0
   59.4423   31.8609   48.2534 H   0  0  0  0  0  0  0  0  0  0  0  0
   58.1445   30.0694   47.1074 H   0  0  0  0  0  0  0  0  0  0  0  0
   60.0178   29.4750   44.2167 H   0  0  0  0  0  0  0  0  0  0  0  0
   61.7760   28.2275   45.4628 H   0  0  0  0  0  0  0  0  0  0  0  0
   61.1491   26.3265   46.9467 H   0  0  0  0  0  0  0  0  0  0  0  0
   58.7620   25.6536   47.1739 H   0  0  0  0  0  0  0  0  0  0  0  0
  1  2  2  0
  2  3  1  0
  3  4  1  0
  4  5  2  0
  5  6  1  0
  6  7  2  0
  7  8  1  0
  8  9  2  0
  8 10  2  0
  8 11  1  0
 11 12  1  0
 12 13  1  0
 13 14  1  0
 14 15  1  0
 15 16  1  0
  7 17  1  0
 17 18  2  0
  2 19  1  0
 19 20  2  0
 20 21  1  0
 21 22  2  0
 22 23  1  0
 23 24  2  0
 24 25  1  0
 18  4  1  0
 24 19  1  0
 16 11  1  0
  5 26  1  0
  6 27  1  0
 11 28  1  0
 12 29  1  0
 12 30  1  0
 13 31  1  0
 13 32  1  0
 15 33  1  0
 15 34  1  0
 16 35  1  0
 16 36  1  0
 17 37  1  0
 18 38  1  0
 20 39  1  0
 21 40  1  0
 22 41  1  0
 23 42  1  0
M  CHG  2   3  -1  11   1
M  END
>  <UniqueID>  (52) 
48

>  <SMILES>  (52) 
O=C([N-]c1ccc(S(=O)(=O)[NH+]2CCOCC2)cc1)c1ccccc1Cl

>  <Energy>  (52) 
59.44586344527649

>  <Genealogy>  (52) 
O=C([N-]c1ccc(S(=O)(=O)[NH+]2CCOCC2)cc1)c1ccccc1Cl (protonated)
O=C([N-]c1ccc(S(=O)(=O)[NH+]2CCOCC2)cc1)c1ccccc1Cl (3D coordinates assigned)
O=C([N-]c1ccc(S(=O)(=O)[NH+]2CCOCC2)cc1)c1ccccc1Cl (nonaromatic ring conformer: 59.44586344527649 kcal/mol)

>  <smiles>  (52) 
O=C(Nc1ccc(S(=O)(=O)N2CCOCC2)cc1)c1ccccc1Cl

>  <score_type>  (52) 
oracle

>  <origin>  (52) 
adg

>  <m_score__min__energy>  (52) 
-8.7799999999999994

>  <m_primary>  (52) 
energy

$$$$
52:0
     RDKit          3D

 51 53  0  0  0  0  0  0  0  0999 V2000
   63.7850   33.2590   46.5930 O   0  0  0  0  0  0  0  0  0  0  0  0
   62.8060   33.8230   47.1530 C   0  0  0  0  0  0  0  0  0  0  0  0
   61.7030   34.2880   46.3730 N   0  0  0  0  0  0  0  0  0  0  0  0
   60.0640   34.1760   46.9210 S   0  0  0  0  0  0  0  0  0  0  0  0
   60.0490   33.8610   48.3910 O   0  0  0  0  0  0  0  0  0  0  0  0
   59.3790   35.4960   46.7070 O   0  0  0  0  0  0  0  0  0  0  0  0
   59.2180   32.9310   46.0080 C   0  0  0  0  0  0  0  0  0  0  0  0
   58.3520   33.2750   44.9610 C   0  0  0  0  0  0  0  0  0  0  0  0
   57.6740   32.2780   44.2540 C   0  0  0  0  0  0  0  0  0  0  0  0
   57.8600   30.9310   44.5850 C   0  0  0  0  0  0  0  0  0  0  0  0
   56.9810   29.6550   43.6770 S   0  0  0  0  0  0  0  0  0  0  0  0
   57.7390   28.2550   44.5810 C   0  0  0  0  0  0  0  0  0  0  0  0
   56.9550   27.9090   45.8500 C   0  0  0  0  0  0  0  0  0  0  0  0
   56.7960   26.4600   45.9890 N   0  0  0  0  0  0  0  0  0  0  0  0
   55.6430   25.7640   46.0270 C   0  0  0  0  0  0  0  0  0  0  0  0
   54.3800   26.3400   45.9660 O   0  0  0  0  0  0  0  0  0  0  0  0
   55.8860   24.4090   46.1340 C   0  0  0  0  0  0  0  0  0  0  0  0
   57.2620   24.2670   46.1600 C   0  0  0  0  0  0  0  0  0  0  0  0
   57.7800   25.5430   46.0680 C   0  0  0  0  0  0  0  0  0  0  0  0
   59.1350   25.8520   46.0550 O   0  0  0  0  0  0  0  0  0  0  0  0
   58.7130   30.5860   45.6400 C   0  0  0  0  0  0  0  0  0  0  0  0
   59.3910   31.5820   46.3490 C   0  0  0  0  0  0  0  0  0  0  0  0
   62.7920   34.0130   48.5730 N   0  0  0  0  0  0  0  0  0  0  0  0
   63.8790   33.5400   49.4420 C   0  0  0  0  0  0  0  0  0  0  0  0
   64.0460   32.0120   49.3310 C   0  0  0  0  0  0  0  0  0  0  0  0
   62.8670   31.2630   49.9630 C   0  0  0  0  0  0  0  0  0  0  0  0
   62.6880   31.6670   51.4310 C   0  0  0  0  0  0  0  0  0  0  0  0
   62.4860   33.1800   51.5630 C   0  0  0  0  0  0  0  0  0  0  0  0
   63.6410   33.9570   50.9090 C   0  0  0  0  0  0  0  0  0  0  0  0
   58.2056   34.3323   44.6950 H   0  0  0  0  0  0  0  0  0  0  0  0
   56.9925   32.5528   43.4354 H   0  0  0  0  0  0  0  0  0  0  0  0
   57.7581   27.3741   43.9225 H   0  0  0  0  0  0  0  0  0  0  0  0
   58.7571   28.5487   44.8764 H   0  0  0  0  0  0  0  0  0  0  0  0
   57.4971   28.2971   46.7249 H   0  0  0  0  0  0  0  0  0  0  0  0
   55.9570   28.3664   45.7814 H   0  0  0  0  0  0  0  0  0  0  0  0
   55.1371   23.6051   46.1877 H   0  0  0  0  0  0  0  0  0  0  0  0
   57.8285   23.3273   46.2382 H   0  0  0  0  0  0  0  0  0  0  0  0
   58.8501   29.5289   45.9117 H   0  0  0  0  0  0  0  0  0  0  0  0
   60.0617   31.3068   47.1763 H   0  0  0  0  0  0  0  0  0  0  0  0
   62.0040   34.5680   48.9760 H   0  0  0  0  0  0  0  0  0  0  0  0
   64.8112   34.0142   49.1012 H   0  0  0  0  0  0  0  0  0  0  0  0
   64.1135   31.7375   48.2679 H   0  0  0  0  0  0  0  0  0  0  0  0
   64.9609   31.7279   49.8716 H   0  0  0  0  0  0  0  0  0  0  0  0
   61.9481   31.5036   49.4083 H   0  0  0  0  0  0  0  0  0  0  0  0
   63.0707   30.1830   49.9173 H   0  0  0  0  0  0  0  0  0  0  0  0
   61.8087   31.1494   51.8419 H   0  0  0  0  0  0  0  0  0  0  0  0
   63.5951   31.3847   51.9854 H   0  0  0  0  0  0  0  0  0  0  0  0
   61.5424   33.4598   51.0717 H   0  0  0  0  0  0  0  0  0  0  0  0
   62.4581   33.4346   52.6328 H   0  0  0  0  0  0  0  0  0  0  0  0
   63.4037   35.0307   50.9363 H   0  0  0  0  0  0  0  0  0  0  0  0
   64.5576   33.7305   51.4734 H   0  0  0  0  0  0  0  0  0  0  0  0
  1  2  2  0
  2  3  1  0
  3  4  1  0
  4  5  2  0
  4  6  2  0
  4  7  1  0
  7  8  2  0
  8  9  1  0
  9 10  2  0
 10 11  1  0
 11 12  1  0
 12 13  1  0
 13 14  1  0
 14 15  1  0
 15 16  1  0
 15 17  2  0
 17 18  1  0
 18 19  2  0
 19 20  1  0
 10 21  1  0
 21 22  2  0
  2 23  1  0
 23 24  1  0
 24 25  1  0
 25 26  1  0
 26 27  1  0
 27 28  1  0
 28 29  1  0
 22  7  1  0
 29 24  1  0
 19 14  1  0
  8 30  1  0
  9 31  1  0
 12 32  1  0
 12 33  1  0
 13 34  1  0
 13 35  1  0
 17 36  1  0
 18 37  1  0
 21 38  1  0
 22 39  1  0
 23 40  1  0
 24 41  1  0
 25 42  1  0
 25 43  1  0
 26 44  1  0
 26 45  1  0
 27 46  1  0
 27 47  1  0
 28 48  1  0
 28 49  1  0
 29 50  1  0
 29 51  1  0
M  CHG  3   3  -1  16  -1  20  -1
M  END
>  <UniqueID>  (53) 
49

>  <SMILES>  (53) 
O=C([N-]S(=O)(=O)c1ccc(SCCn2c([O-])ccc2[O-])cc1)NC1CCCCC1

>  <Energy>  (53) 
67.30156672849184

>  <Genealogy>  (53) 
O=C([N-]S(=O)(=O)c1ccc(SCCn2c([O-])ccc2[O-])cc1)NC1CCCCC1 (protonated)
O=C([N-]S(=O)(=O)c1ccc(SCCn2c([O-])ccc2[O-])cc1)NC1CCCCC1 (3D coordinates assigned)
O=C([N-]S(=O)(=O)c1ccc(SCCn2c([O-])ccc2[O-])cc1)NC1CCCCC1 (nonaromatic ring conformer: 67.30156672849184 kcal/mol)

>  <smiles>  (53) 
O=C(NC1CCCCC1)NS(=O)(=O)c1ccc(SCCn2c(O)ccc2O)cc1

>  <score_type>  (53) 
oracle

>  <origin>  (53) 
adg

>  <m_score__min__energy>  (53) 
-15.380000000000001

>  <m_primary>  (53) 
energy

$$$$
53:0
     RDKit          3D

 37 39  0  0  0  0  0  0  0  0999 V2000
   54.0610   25.3160   45.5870 O   0  0  0  0  0  0  0  0  0  0  0  0
   55.2420   25.6530   45.8670 C   0  0  0  0  0  0  0  0  0  0  0  0
   56.2810   24.6670   45.9360 N   0  0  0  0  0  0  0  0  0  0  0  0
   56.4280   23.5170   45.0900 C   0  0  0  0  0  0  0  0  0  0  0  0
   56.5320   23.6260   43.6910 C   0  0  0  0  0  0  0  0  0  0  0  0
   56.6490   22.4770   42.9030 C   0  0  0  0  0  0  0  0  0  0  0  0
   56.6490   21.2140   43.5000 C   0  0  0  0  0  0  0  0  0  0  0  0
   56.5230   21.0960   44.8870 C   0  0  0  0  0  0  0  0  0  0  0  0
   56.5070   19.5100   45.6360 Cl  0  0  0  0  0  0  0  0  0  0  0  0
   56.4050   22.2450   45.6780 C   0  0  0  0  0  0  0  0  0  0  0  0
   55.5520   27.0430   46.0020 N   0  0  0  0  0  0  0  0  0  0  0  0
   56.6380   27.7310   45.3670 C   0  0  0  0  0  0  0  0  0  0  0  0
   57.9460   27.2110   45.3660 C   0  0  0  0  0  0  0  0  0  0  0  0
   58.9840   27.9220   44.7540 C   0  0  0  0  0  0  0  0  0  0  0  0
   58.7300   29.1570   44.1540 C   0  0  0  0  0  0  0  0  0  0  0  0
   57.4360   29.6900   44.1700 C   0  0  0  0  0  0  0  0  0  0  0  0
   57.1110   31.2770   43.4030 S   0  0  0  0  0  0  0  0  0  0  0  0
   57.8950   32.1850   44.7350 C   0  0  0  0  0  0  0  0  0  0  0  0
   58.3140   33.5060   44.5330 C   0  0  0  0  0  0  0  0  0  0  0  0
   58.9170   34.2170   45.5740 C   0  0  0  0  0  0  0  0  0  0  0  0
   59.1080   33.6080   46.8200 C   0  0  0  0  0  0  0  0  0  0  0  0
   59.9320   34.5790   48.2430 Br  0  0  0  0  0  0  0  0  0  0  0  0
   58.6950   32.2870   47.0220 C   0  0  0  0  0  0  0  0  0  0  0  0
   58.0900   31.5760   45.9810 C   0  0  0  0  0  0  0  0  0  0  0  0
   56.3980   28.9830   44.7880 C   0  0  0  0  0  0  0  0  0  0  0  0
   56.5212   24.6181   43.2159 H   0  0  0  0  0  0  0  0  0  0  0  0
   56.7412   22.5677   41.8106 H   0  0  0  0  0  0  0  0  0  0  0  0
   56.7482   20.3120   42.8783 H   0  0  0  0  0  0  0  0  0  0  0  0
   56.2935   22.1489   46.7681 H   0  0  0  0  0  0  0  0  0  0  0  0
   58.1525   26.2437   45.8473 H   0  0  0  0  0  0  0  0  0  0  0  0
   60.0027   27.5071   44.7455 H   0  0  0  0  0  0  0  0  0  0  0  0
   59.5470   29.7110   43.6687 H   0  0  0  0  0  0  0  0  0  0  0  0
   58.1682   33.9846   43.5534 H   0  0  0  0  0  0  0  0  0  0  0  0
   59.2418   35.2558   45.4143 H   0  0  0  0  0  0  0  0  0  0  0  0
   58.8462   31.8072   48.0002 H   0  0  0  0  0  0  0  0  0  0  0  0
   57.7667   30.5368   46.1410 H   0  0  0  0  0  0  0  0  0  0  0  0
   55.3865   29.4141   44.8190 H   0  0  0  0  0  0  0  0  0  0  0  0
  1  2  2  0
  2  3  1  0
  3  4  1  0
  4  5  2  0
  5  6  1  0
  6  7  2  0
  7  8  1  0
  8  9  1  0
  8 10  2  0
  2 11  1  0
 11 12  1  0
 12 13  2  0
 13 14  1  0
 14 15  2  0
 15 16  1  0
 16 17  1  0
 17 18  1  0
 18 19  2  0
 19 20  1  0
 20 21  2  0
 21 22  1  0
 21 23  1  0
 23 24  2  0
 16 25  2  0
 10  4  1  0
 25 12  1  0
 24 18  1  0
  5 26  1  0
  6 27  1  0
  7 28  1  0
 10 29  1  0
 13 30  1  0
 14 31  1  0
 15 32  1  0
 19 33  1  0
 20 34  1  0
 23 35  1  0
 24 36  1  0
 25 37  1  0
M  CHG  2   3  -1  11  -1
M  END
>  <UniqueID>  (54) 
50

>  <SMILES>  (54) 
O=C([N-]c1cccc(Cl)c1)[N-]c1cccc(Sc2ccc(Br)cc2)c1

>  <Energy>  (54) 
41.53253374648687

>  <Genealogy>  (54) 
O=C([N-]c1cccc(Cl)c1)[N-]c1cccc(Sc2ccc(Br)cc2)c1 (protonated)
O=C([N-]c1cccc(Cl)c1)[N-]c1cccc(Sc2ccc(Br)cc2)c1 (3D coordinates assigned)
O=C([N-]c1cccc(Cl)c1)[N-]c1cccc(Sc2ccc(Br)cc2)c1 (optimized conformer: 41.53253374648687 kcal/mol)

>  <smiles>  (54) 
O=C(Nc1cccc(Cl)c1)Nc1cccc(Sc2ccc(Br)cc2)c1

>  <score_type>  (54) 
oracle

>  <origin>  (54) 
adg

>  <m_score__min__energy>  (54) 
-12.35

>  <m_primary>  (54) 
energy

$$$$
54:0
     RDKit          3D

 45 47  0  0  0  0  0  0  0  0999 V2000
   59.7460   30.9210   49.6720 N   0  0  0  0  0  0  0  0  0  0  0  0
   59.5670   29.9740   48.6080 C   0  0  0  0  0  0  0  0  0  0  0  0
   59.5930   28.6080   48.9130 C   0  0  0  0  0  0  0  0  0  0  0  0
   59.4590   27.6850   47.8820 C   0  0  0  0  0  0  0  0  0  0  0  0
   59.4860   26.4510   48.1270 O   0  0  0  0  0  0  0  0  0  0  0  0
   59.3000   28.1170   46.6080 N   0  0  0  0  0  0  0  0  0  0  0  0
   59.2620   29.4400   46.3080 C   0  0  0  0  0  0  0  0  0  0  0  0
   59.0180   29.9090   44.5860 S   0  0  0  0  0  0  0  0  0  0  0  0
   57.2860   30.4120   44.8480 C   0  0  0  0  0  0  0  0  0  0  0  0
   56.4130   29.1970   44.9350 C   0  0  0  0  0  0  0  0  0  0  0  0
   55.1650   29.3450   44.8680 O   0  0  0  0  0  0  0  0  0  0  0  0
   56.9380   27.8710   45.0940 N   0  0  0  0  0  0  0  0  0  0  0  0
   56.4270   26.8150   45.9220 C   0  0  0  0  0  0  0  0  0  0  0  0
   55.1870   26.5920   45.9980 O   0  0  0  0  0  0  0  0  0  0  0  0
   57.3370   26.0420   46.7220 N   0  0  0  0  0  0  0  0  0  0  0  0
   56.9150   24.6350   46.7970 C   0  0  0  0  0  0  0  0  0  0  0  0
   57.8540   23.7310   46.0520 C   0  0  0  0  0  0  0  0  0  0  0  0
   57.5260   22.5200   45.4750 C   0  0  0  0  0  0  0  0  0  0  0  0
   58.7010   22.0360   44.9420 C   0  0  0  0  0  0  0  0  0  0  0  0
   59.6690   22.9790   45.2250 C   0  0  0  0  0  0  0  0  0  0  0  0
   59.1340   23.9770   45.8880 O   0  0  0  0  0  0  0  0  0  0  0  0
   59.3960   30.3790   47.3040 N   0  0  0  0  0  0  0  0  0  0  0  0
   59.3570   31.7790   46.9750 C   0  0  0  0  0  0  0  0  0  0  0  0
   60.5440   32.4710   46.6920 C   0  0  0  0  0  0  0  0  0  0  0  0
   60.5040   33.8330   46.3790 C   0  0  0  0  0  0  0  0  0  0  0  0
   59.2820   34.5100   46.3530 C   0  0  0  0  0  0  0  0  0  0  0  0
   58.0970   33.8240   46.6320 C   0  0  0  0  0  0  0  0  0  0  0  0
   58.1320   32.4620   46.9410 C   0  0  0  0  0  0  0  0  0  0  0  0
   58.9420   31.3420   50.1870 H   0  0  0  0  0  0  0  0  0  0  0  0
   60.7030   31.2330   49.9470 H   0  0  0  0  0  0  0  0  0  0  0  0
   59.7175   28.2701   49.9524 H   0  0  0  0  0  0  0  0  0  0  0  0
   57.2095   30.9846   45.7841 H   0  0  0  0  0  0  0  0  0  0  0  0
   56.9571   31.0363   44.0041 H   0  0  0  0  0  0  0  0  0  0  0  0
   57.3520   26.4430   47.6890 H   0  0  0  0  0  0  0  0  0  0  0  0
   58.3070   26.1080   46.3300 H   0  0  0  0  0  0  0  0  0  0  0  0
   56.8872   24.3274   47.8527 H   0  0  0  0  0  0  0  0  0  0  0  0
   55.9205   24.5511   46.3345 H   0  0  0  0  0  0  0  0  0  0  0  0
   56.5355   22.0424   45.4468 H   0  0  0  0  0  0  0  0  0  0  0  0
   58.8398   21.0889   44.4001 H   0  0  0  0  0  0  0  0  0  0  0  0
   60.7283   22.9049   44.9381 H   0  0  0  0  0  0  0  0  0  0  0  0
   61.5077   31.9412   46.7164 H   0  0  0  0  0  0  0  0  0  0  0  0
   61.4357   34.3723   46.1529 H   0  0  0  0  0  0  0  0  0  0  0  0
   59.2528   35.5831   46.1129 H   0  0  0  0  0  0  0  0  0  0  0  0
   57.1352   34.3572   46.6083 H   0  0  0  0  0  0  0  0  0  0  0  0
   57.1973   31.9241   47.1580 H   0  0  0  0  0  0  0  0  0  0  0  0
  1  2  1  0
  2  3  2  0
  3  4  1  0
  4  5  2  0
  4  6  1  0
  6  7  2  0
  7  8  1  0
  8  9  1  0
  9 10  1  0
 10 11  2  0
 10 12  1  0
 12 13  1  0
 13 14  2  0
 13 15  1  0
 15 16  1  0
 16 17  1  0
 17 18  2  0
 18 19  1  0
 19 20  2  0
 20 21  1  0
  7 22  1  0
 22 23  1  0
 23 24  2  0
 24 25  1  0
 25 26  2  0
 26 27  1  0
 27 28  2  0
 22  2  1  0
 28 23  1  0
 21 17  1  0
  1 29  1  0
  1 30  1  0
  3 31  1  0
  9 32  1  0
  9 33  1  0
 15 34  1  0
 15 35  1  0
 16 36  1  0
 16 37  1  0
 18 38  1  0
 19 39  1  0
 20 40  1  0
 24 41  1  0
 25 42  1  0
 26 43  1  0
 27 44  1  0
 28 45  1  0
M  CHG  2  12  -1  15   1
M  END
>  <UniqueID>  (55) 
51

>  <SMILES>  (55) 
Nc1cc(=O)nc(SCC(=O)[N-]C(=O)[NH2+]Cc2ccco2)n1-c1ccccc1

>  <Energy>  (55) 
78.95212222757442

>  <Genealogy>  (55) 
Nc1cc(=O)nc(SCC(=O)[N-]C(=O)[NH2+]Cc2ccco2)n1-c1ccccc1 (protonated)
Nc1cc(=O)nc(SCC(=O)[N-]C(=O)[NH2+]Cc2ccco2)n1-c1ccccc1 (3D coordinates assigned)
Nc1cc(=O)nc(SCC(=O)[N-]C(=O)[NH2+]Cc2ccco2)n1-c1ccccc1 (optimized conformer: 78.95212222757442 kcal/mol)

>  <smiles>  (55) 
Nc1cc(=O)nc(SCC(=O)NC(=O)NCc2ccco2)n1-c1ccccc1

>  <score_type>  (55) 
oracle

>  <origin>  (55) 
adg

>  <m_score__min__energy>  (55) 
-7.79

>  <m_primary>  (55) 
energy

$$$$
55:0
     RDKit          3D

 23 25  0  0  0  0  0  0  0  0999 V2000
   63.6230   31.5750   47.2660 N   0  0  0  0  0  0  0  0  0  0  0  0
   62.8860   33.1050   47.5820 S   0  0  0  0  0  0  0  0  0  0  0  0
   62.7610   33.2970   49.0670 O   0  0  0  0  0  0  0  0  0  0  0  0
   63.7340   34.2050   47.0100 O   0  0  0  0  0  0  0  0  0  0  0  0
   61.2950   33.1530   46.8520 C   0  0  0  0  0  0  0  0  0  0  0  0
   60.5250   32.0540   46.6740 N   0  0  0  0  0  0  0  0  0  0  0  0
   59.3410   32.3740   46.0850 C   0  0  0  0  0  0  0  0  0  0  0  0
   59.1830   33.7240   45.8020 C   0  0  0  0  0  0  0  0  0  0  0  0
   58.0350   34.2300   45.2020 C   0  0  0  0  0  0  0  0  0  0  0  0
   57.0070   33.3360   44.8740 C   0  0  0  0  0  0  0  0  0  0  0  0
   57.1400   31.9610   45.1490 C   0  0  0  0  0  0  0  0  0  0  0  0
   56.1290   31.1110   44.8220 N   0  0  0  0  0  0  0  0  0  0  0  0
   56.2060   29.7770   45.0650 C   0  0  0  0  0  0  0  0  0  0  0  0
   55.1470   28.9500   44.7140 O   0  0  0  0  0  0  0  0  0  0  0  0
   57.3440   29.2360   45.6670 C   0  0  0  0  0  0  0  0  0  0  0  0
   58.4070   30.0730   46.0210 C   0  0  0  0  0  0  0  0  0  0  0  0
   59.4280   29.5700   46.5630 O   0  0  0  0  0  0  0  0  0  0  0  0
   58.3190   31.4570   45.7640 C   0  0  0  0  0  0  0  0  0  0  0  0
   60.5510   34.5640   46.2930 S   0  0  0  0  0  0  0  0  0  0  0  0
   64.5280   31.7670   46.7810 H   0  0  0  0  0  0  0  0  0  0  0  0
   57.9364   35.3049   44.9902 H   0  0  0  0  0  0  0  0  0  0  0  0
   56.0889   33.7110   44.3980 H   0  0  0  0  0  0  0  0  0  0  0  0
   57.4041   28.1551   45.8621 H   0  0  0  0  0  0  0  0  0  0  0  0
  1  2  1  0
  2  3  2  0
  2  4  2  0
  2  5  1  0
  5  6  2  0
  6  7  1  0
  7  8  2  0
  8  9  1  0
  9 10  2  0
 10 11  1  0
 11 12  1  0
 12 13  1  0
 13 14  1  0
 13 15  2  0
 15 16  1  0
 16 17  2  0
 16 18  1  0
  8 19  1  0
 19  5  1  0
 18  7  1  0
 18 11  2  0
  1 20  1  0
  9 21  1  0
 10 22  1  0
 15 23  1  0
M  CHG  3   1  -1  12  -1  14  -1
M  END
>  <UniqueID>  (56) 
52

>  <SMILES>  (56) 
[NH-]S(=O)(=O)c1nc2c(ccc3[n-]c([O-])cc(=O)c32)s1

>  <Energy>  (56) 
65.29031367424037

>  <Genealogy>  (56) 
[NH-]S(=O)(=O)c1nc2c(ccc3[n-]c([O-])cc(=O)c32)s1 (protonated)
[NH-]S(=O)(=O)c1nc2c(ccc3[n-]c([O-])cc(=O)c32)s1 (3D coordinates assigned)
[NH-]S(=O)(=O)c1nc2c(ccc3[n-]c([O-])cc(=O)c32)s1 (optimized conformer: 65.29031367424037 kcal/mol)

>  <smiles>  (56) 
NS(=O)(=O)c1nc2c(ccc3[nH]c(O)cc(=O)c32)s1

>  <score_type>  (56) 
oracle

>  <origin>  (56) 
adg

>  <m_score__min__energy>  (56) 
-12.31

>  <m_primary>  (56) 
energy

$$$$
56:0
     RDKit          3D

 43 45  0  0  0  0  0  0  0  0999 V2000
   59.2420   34.0060   46.3770 O   0  0  0  0  0  0  0  0  0  0  0  0
   59.4100   32.7680   46.2210 C   0  0  0  0  0  0  0  0  0  0  0  0
   60.2660   32.0120   47.2020 C   0  0  0  0  0  0  0  0  0  0  0  0
   59.4420   31.5360   48.3670 C   0  0  0  0  0  0  0  0  0  0  0  0
   58.6990   32.4530   49.1270 C   0  0  0  0  0  0  0  0  0  0  0  0
   57.9070   32.0120   50.1910 C   0  0  0  0  0  0  0  0  0  0  0  0
   57.8520   30.6440   50.5150 C   0  0  0  0  0  0  0  0  0  0  0  0
   57.0320   30.1460   51.5810 N   0  0  0  0  0  0  0  0  0  0  0  0
   56.0670   30.8900   52.3410 C   0  0  0  0  0  0  0  0  0  0  0  0
   56.4500   31.7740   53.1530 O   0  0  0  0  0  0  0  0  0  0  0  0
   54.6230   30.5800   52.2110 C   0  0  0  0  0  0  0  0  0  0  0  0
   54.1410   29.2960   52.5200 C   0  0  0  0  0  0  0  0  0  0  0  0
   52.7810   29.0040   52.4020 C   0  0  0  0  0  0  0  0  0  0  0  0
   51.8840   29.9850   51.9760 C   0  0  0  0  0  0  0  0  0  0  0  0
   52.3400   31.2750   51.6610 C   0  0  0  0  0  0  0  0  0  0  0  0
   51.3860   32.3120   51.2070 C   0  0  0  0  0  0  0  0  0  0  0  0
   50.6330   32.8960   52.0330 O   0  0  0  0  0  0  0  0  0  0  0  0
   51.3090   32.6590   49.8630 O   0  0  0  0  0  0  0  0  0  0  0  0
   53.7130   31.5650   51.7830 C   0  0  0  0  0  0  0  0  0  0  0  0
   58.5640   29.7270   49.7320 C   0  0  0  0  0  0  0  0  0  0  0  0
   59.3570   30.1670   48.6680 C   0  0  0  0  0  0  0  0  0  0  0  0
   58.8240   32.1300   45.0790 N   0  0  0  0  0  0  0  0  0  0  0  0
   58.3660   30.7730   45.0040 C   0  0  0  0  0  0  0  0  0  0  0  0
   59.2610   29.6900   45.0390 C   0  0  0  0  0  0  0  0  0  0  0  0
   58.7800   28.3770   44.9950 C   0  0  0  0  0  0  0  0  0  0  0  0
   57.4050   28.1380   44.9360 C   0  0  0  0  0  0  0  0  0  0  0  0
   56.5070   29.2100   44.9300 C   0  0  0  0  0  0  0  0  0  0  0  0
   55.1400   28.9710   44.8840 O   0  0  0  0  0  0  0  0  0  0  0  0
   56.9870   30.5240   44.9740 C   0  0  0  0  0  0  0  0  0  0  0  0
   60.7135   31.1433   46.6968 H   0  0  0  0  0  0  0  0  0  0  0  0
   61.0539   32.6827   47.5755 H   0  0  0  0  0  0  0  0  0  0  0  0
   58.7403   33.5250   48.8838 H   0  0  0  0  0  0  0  0  0  0  0  0
   57.3243   32.7376   50.7775 H   0  0  0  0  0  0  0  0  0  0  0  0
   54.8400   28.5164   52.8569 H   0  0  0  0  0  0  0  0  0  0  0  0
   52.4145   27.9960   52.6459 H   0  0  0  0  0  0  0  0  0  0  0  0
   50.8140   29.7461   51.8866 H   0  0  0  0  0  0  0  0  0  0  0  0
   54.0787   32.5738   51.5408 H   0  0  0  0  0  0  0  0  0  0  0  0
   58.4988   28.6520   49.9559 H   0  0  0  0  0  0  0  0  0  0  0  0
   59.9168   29.4377   48.0640 H   0  0  0  0  0  0  0  0  0  0  0  0
   60.3435   29.8753   45.1012 H   0  0  0  0  0  0  0  0  0  0  0  0
   59.4848   27.5326   45.0069 H   0  0  0  0  0  0  0  0  0  0  0  0
   57.0282   27.1054   44.8942 H   0  0  0  0  0  0  0  0  0  0  0  0
   56.2785   31.3654   44.9851 H   0  0  0  0  0  0  0  0  0  0  0  0
  1  2  2  0
  2  3  1  0
  3  4  1  0
  4  5  2  0
  5  6  1  0
  6  7  2  0
  7  8  1  0
  8  9  1  0
  9 10  2  0
  9 11  1  0
 11 12  2  0
 12 13  1  0
 13 14  2  0
 14 15  1  0
 15 16  1  0
 16 17  2  0
 16 18  1  0
 15 19  2  0
  7 20  1  0
 20 21  2  0
  2 22  1  0
 22 23  1  0
 23 24  2  0
 24 25  1  0
 25 26  2  0
 26 27  1  0
 27 28  1  0
 27 29  2  0
 21  4  1  0
 29 23  1  0
 19 11  1  0
  3 30  1  0
  3 31  1  0
  5 32  1  0
  6 33  1  0
 12 34  1  0
 13 35  1  0
 14 36  1  0
 19 37  1  0
 20 38  1  0
 21 39  1  0
 24 40  1  0
 25 41  1  0
 26 42  1  0
 29 43  1  0
M  CHG  4   8  -1  18  -1  22  -1  28  -1
M  END
>  <UniqueID>  (57) 
53

>  <SMILES>  (57) 
O=C(Cc1ccc([N-]C(=O)c2cccc(C(=O)[O-])c2)cc1)[N-]c1cccc([O-])c1

>  <Energy>  (57) 
55.05179777027954

>  <Genealogy>  (57) 
O=C(Cc1ccc([N-]C(=O)c2cccc(C(=O)[O-])c2)cc1)[N-]c1cccc([O-])c1 (protonated)
O=C(Cc1ccc([N-]C(=O)c2cccc(C(=O)[O-])c2)cc1)[N-]c1cccc([O-])c1 (3D coordinates assigned)
O=C(Cc1ccc([N-]C(=O)c2cccc(C(=O)[O-])c2)cc1)[N-]c1cccc([O-])c1 (optimized conformer: 55.05179777027954 kcal/mol)

>  <smiles>  (57) 
O=C(Cc1ccc(NC(=O)c2cccc(C(=O)O)c2)cc1)Nc1cccc(O)c1

>  <score_type>  (57) 
oracle

>  <origin>  (57) 
adg

>  <m_score__min__energy>  (57) 
-17.739999999999998

>  <m_primary>  (57) 
energy

$$$$
57:0
     RDKit          3D

 51 54  0  0  0  0  0  0  0  0999 V2000
   58.8620   26.1480   47.6790 O   0  0  0  0  0  0  0  0  0  0  0  0
   59.6180   27.0120   47.1550 C   0  0  0  0  0  0  0  0  0  0  0  0
   60.5480   27.7420   47.9630 N   0  0  0  0  0  0  0  0  0  0  0  0
   60.1950   28.3730   49.2290 C   0  0  0  0  0  0  0  0  0  0  0  0
   61.1130   29.5650   49.5070 C   0  0  0  0  0  0  0  0  0  0  0  0
   60.7510   30.7230   48.6270 C   0  0  0  0  0  0  0  0  0  0  0  0
   59.4650   31.1680   48.3300 C   0  0  0  0  0  0  0  0  0  0  0  0
   59.5180   32.2870   47.5730 N   0  0  0  0  0  0  0  0  0  0  0  0
   60.8220   32.5610   47.4010 C   0  0  0  0  0  0  0  0  0  0  0  0
   61.3780   33.6360   46.7090 C   0  0  0  0  0  0  0  0  0  0  0  0
   62.7800   33.7460   46.6780 C   0  0  0  0  0  0  0  0  0  0  0  0
   63.5880   32.7910   47.3340 C   0  0  0  0  0  0  0  0  0  0  0  0
   63.0000   31.7150   48.0260 C   0  0  0  0  0  0  0  0  0  0  0  0
   61.6070   31.6310   48.0350 C   0  0  0  0  0  0  0  0  0  0  0  0
   59.5810   27.2470   45.6690 C   0  0  2  0  0  0  0  0  0  0  0  0
   60.3130   28.5560   45.2800 C   0  0  0  0  0  0  0  0  0  0  0  0
   59.3210   29.7010   45.0390 C   0  0  0  0  0  0  0  0  0  0  0  0
   58.3920   29.3960   43.9240 N   0  0  2  0  0  0  0  0  0  0  0  0
   56.9830   30.4240   44.0380 S   0  0  0  0  0  0  0  0  0  0  0  0
   56.0380   29.8910   45.0800 O   0  0  0  0  0  0  0  0  0  0  0  0
   56.2690   30.4700   42.7160 O   0  0  0  0  0  0  0  0  0  0  0  0
   57.4640   32.0470   44.5000 C   0  0  0  0  0  0  0  0  0  0  0  0
   57.0190   32.7420   45.6140 C   0  0  0  0  0  0  0  0  0  0  0  0
   57.5540   34.0340   45.7000 C   0  0  0  0  0  0  0  0  0  0  0  0
   58.4110   34.3510   44.6530 C   0  0  0  0  0  0  0  0  0  0  0  0
   58.5050   33.0260   43.6200 S   0  0  0  0  0  0  0  0  0  0  0  0
   57.9950   27.9630   43.8280 C   0  0  0  0  0  0  0  0  0  0  0  0
   58.1220   27.2220   45.1660 C   0  0  0  0  0  0  0  0  0  0  0  0
   59.1529   28.7218   49.1816 H   0  0  0  0  0  0  0  0  0  0  0  0
   60.3118   27.6373   50.0383 H   0  0  0  0  0  0  0  0  0  0  0  0
   61.0086   29.8643   50.5603 H   0  0  0  0  0  0  0  0  0  0  0  0
   62.1519   29.2703   49.2976 H   0  0  0  0  0  0  0  0  0  0  0  0
   58.5381   30.6787   48.6638 H   0  0  0  0  0  0  0  0  0  0  0  0
   58.7060   32.8360   47.2130 H   0  0  0  0  0  0  0  0  0  0  0  0
   60.7400   34.3754   46.2028 H   0  0  0  0  0  0  0  0  0  0  0  0
   63.2505   34.5816   46.1391 H   0  0  0  0  0  0  0  0  0  0  0  0
   64.6833   32.8885   47.3040 H   0  0  0  0  0  0  0  0  0  0  0  0
   63.6179   30.9656   48.5423 H   0  0  0  0  0  0  0  0  0  0  0  0
   60.1250   26.4309   45.1709 H   0  0  0  0  0  0  0  0  0  0  0  0
   60.9962   28.8396   46.0941 H   0  0  0  0  0  0  0  0  0  0  0  0
   60.8695   28.3779   44.3480 H   0  0  0  0  0  0  0  0  0  0  0  0
   58.7358   29.8647   45.9560 H   0  0  0  0  0  0  0  0  0  0  0  0
   59.8943   30.6009   44.7714 H   0  0  0  0  0  0  0  0  0  0  0  0
   58.8710   29.6530   43.0290 H   0  0  0  0  0  0  0  0  0  0  0  0
   56.3196   32.3232   46.3525 H   0  0  0  0  0  0  0  0  0  0  0  0
   57.3183   34.7307   46.5179 H   0  0  0  0  0  0  0  0  0  0  0  0
   58.9390   35.3070   44.5216 H   0  0  0  0  0  0  0  0  0  0  0  0
   56.9483   27.9095   43.4941 H   0  0  0  0  0  0  0  0  0  0  0  0
   58.6755   27.4770   43.1133 H   0  0  0  0  0  0  0  0  0  0  0  0
   57.4752   27.7087   45.9108 H   0  0  0  0  0  0  0  0  0  0  0  0
   57.8168   26.1753   45.0202 H   0  0  0  0  0  0  0  0  0  0  0  0
  1  2  2  0
  2  3  1  0
  3  4  1  0
  4  5  1  0
  5  6  1  0
  6  7  2  0
  7  8  1  0
  8  9  1  0
  9 10  2  0
 10 11  1  0
 11 12  2  0
 12 13  1  0
 13 14  2  0
  2 15  1  0
 15 16  1  0
 16 17  1  0
 17 18  1  0
 18 19  1  0
 19 20  2  0
 19 21  2  0
 19 22  1  0
 22 23  2  0
 23 24  1  0
 24 25  2  0
 25 26  1  0
 18 27  1  0
 27 28  1  0
 14  6  1  0
 28 15  1  0
 14  9  1  0
 26 22  1  0
  4 29  1  0
  4 30  1  0
  5 31  1  0
  5 32  1  0
  7 33  1  0
  8 34  1  0
 10 35  1  0
 11 36  1  0
 12 37  1  0
 13 38  1  0
 15 39  1  6
 16 40  1  0
 16 41  1  0
 17 42  1  0
 17 43  1  0
 18 44  1  6
 23 45  1  0
 24 46  1  0
 25 47  1  0
 27 48  1  0
 27 49  1  0
 28 50  1  0
 28 51  1  0
M  CHG  2   3  -1  18   1
M  END
>  <UniqueID>  (58) 
54

>  <SMILES>  (58) 
O=C([N-]CCc1c[nH]c2ccccc12)C1CC[NH+](S(=O)(=O)c2cccs2)CC1

>  <Energy>  (58) 
113.64608834510959

>  <Genealogy>  (58) 
O=C([N-]CCc1c[nH]c2ccccc12)C1CC[NH+](S(=O)(=O)c2cccs2)CC1 (protonated)
O=C([N-]CCc1c[nH]c2ccccc12)C1CC[NH+](S(=O)(=O)c2cccs2)CC1 (3D coordinates assigned)
O=C([N-]CCc1c[nH]c2ccccc12)C1CC[NH+](S(=O)(=O)c2cccs2)CC1 (nonaromatic ring conformer: 113.64608834510959 kcal/mol)

>  <smiles>  (58) 
O=C(NCCc1c[nH]c2ccccc12)C1CCN(S(=O)(=O)c2cccs2)CC1

>  <score_type>  (58) 
oracle

>  <origin>  (58) 
adg

>  <m_score__min__energy>  (58) 
-9.4600000000000009

>  <m_primary>  (58) 
energy

$$$$
58:0
     RDKit          3D

 51 55  0  0  0  0  0  0  0  0999 V2000
   59.6340   35.4150   45.5020 C   0  0  0  0  0  0  0  0  0  0  0  0
   59.6890   33.9400   45.7390 C   0  0  0  0  0  0  0  0  0  0  0  0
   60.6260   33.4270   46.5930 N   0  0  0  0  0  0  0  0  0  0  0  0
   60.6490   32.0880   46.7970 C   0  0  0  0  0  0  0  0  0  0  0  0
   59.8030   31.2450   46.1530 C   0  0  0  0  0  0  0  0  0  0  0  0
   60.2080   29.9750   46.5100 C   0  0  0  0  0  0  0  0  0  0  0  0
   61.2680   30.0900   47.3490 N   0  0  0  0  0  0  0  0  0  0  0  0
   61.5310   31.3810   47.5290 N   0  0  0  0  0  0  0  0  0  0  0  0
   62.6180   31.8720   48.3370 C   0  0  0  0  0  0  0  0  0  0  0  0
   63.4810   32.8770   47.8650 C   0  0  0  0  0  0  0  0  0  0  0  0
   64.5240   33.3490   48.6670 C   0  0  0  0  0  0  0  0  0  0  0  0
   64.7090   32.8380   49.9640 C   0  0  0  0  0  0  0  0  0  0  0  0
   65.7540   33.2750   50.7910 O   0  0  0  0  0  0  0  0  0  0  0  0
   66.6400   32.4430   51.4920 C   0  0  0  0  0  0  0  0  0  0  0  0
   67.4100   32.9950   52.5240 C   0  0  0  0  0  0  0  0  0  0  0  0
   68.3140   32.2010   53.2350 C   0  0  0  0  0  0  0  0  0  0  0  0
   68.4650   30.8490   52.9110 C   0  0  0  0  0  0  0  0  0  0  0  0
   69.3430   30.0800   53.6000 F   0  0  0  0  0  0  0  0  0  0  0  0
   67.7160   30.2940   51.8700 C   0  0  0  0  0  0  0  0  0  0  0  0
   66.8100   31.0860   51.1580 C   0  0  0  0  0  0  0  0  0  0  0  0
   63.8550   31.8350   50.4320 C   0  0  0  0  0  0  0  0  0  0  0  0
   62.8110   31.3630   49.6320 C   0  0  0  0  0  0  0  0  0  0  0  0
   58.8480   31.7470   45.2730 C   0  0  0  0  0  0  0  0  0  0  0  0
   57.9390   30.8850   44.5770 N   0  0  0  0  0  0  0  0  0  0  0  0
   58.2560   29.5140   44.2240 C   0  0  0  0  0  0  0  0  0  0  0  0
   57.0330   28.9970   43.4800 C   0  0  0  0  0  0  0  0  0  0  0  0
   55.8850   29.9450   43.8450 C   0  0  1  0  0  0  0  0  0  0  0  0
   55.1310   29.4050   44.9000 O   0  0  0  0  0  0  0  0  0  0  0  0
   56.5570   31.2380   44.3060 C   0  0  0  0  0  0  0  0  0  0  0  0
   58.8130   33.1040   45.0860 N   0  0  0  0  0  0  0  0  0  0  0  0
   59.6144   35.9411   46.4678 H   0  0  0  0  0  0  0  0  0  0  0  0
   60.5211   35.7281   44.9319 H   0  0  0  0  0  0  0  0  0  0  0  0
   58.7261   35.6612   44.9319 H   0  0  0  0  0  0  0  0  0  0  0  0
   59.7508   29.0330   46.1729 H   0  0  0  0  0  0  0  0  0  0  0  0
   63.3343   33.2945   46.8579 H   0  0  0  0  0  0  0  0  0  0  0  0
   65.2032   34.1238   48.2818 H   0  0  0  0  0  0  0  0  0  0  0  0
   67.3024   34.0602   52.7763 H   0  0  0  0  0  0  0  0  0  0  0  0
   68.9075   32.6401   54.0505 H   0  0  0  0  0  0  0  0  0  0  0  0
   67.8394   29.2323   51.6102 H   0  0  0  0  0  0  0  0  0  0  0  0
   66.2281   30.6473   50.3341 H   0  0  0  0  0  0  0  0  0  0  0  0
   64.0059   31.4143   51.4371 H   0  0  0  0  0  0  0  0  0  0  0  0
   62.1349   30.5866   50.0194 H   0  0  0  0  0  0  0  0  0  0  0  0
   59.1444   29.4786   43.5763 H   0  0  0  0  0  0  0  0  0  0  0  0
   58.4840   28.9047   45.1110 H   0  0  0  0  0  0  0  0  0  0  0  0
   57.2110   29.0123   42.3946 H   0  0  0  0  0  0  0  0  0  0  0  0
   56.8016   27.9581   43.7577 H   0  0  0  0  0  0  0  0  0  0  0  0
   55.2054   30.1086   42.9957 H   0  0  0  0  0  0  0  0  0  0  0  0
   55.1460   30.0760   45.6320 H   0  0  0  0  0  0  0  0  0  0  0  0
   56.5036   32.0013   43.5157 H   0  0  0  0  0  0  0  0  0  0  0  0
   56.0630   31.6591   45.1940 H   0  0  0  0  0  0  0  0  0  0  0  0
   58.0990   33.5150   44.4430 H   0  0  0  0  0  0  0  0  0  0  0  0
  1  2  1  0
  2  3  2  0
  3  4  1  0
  4  5  2  0
  5  6  1  0
  6  7  2  0
  7  8  1  0
  8  9  1  0
  9 10  2  0
 10 11  1  0
 11 12  2  0
 12 13  1  0
 13 14  1  0
 14 15  2  0
 15 16  1  0
 16 17  2  0
 17 18  1  0
 17 19  1  0
 19 20  2  0
 12 21  1  0
 21 22  2  0
  5 23  1  0
 23 24  1  0
 24 25  1  0
 25 26  1  0
 26 27  1  0
 27 28  1  0
 27 29  1  0
 23 30  2  0
 30  2  1  0
  8  4  1  0
 22  9  1  0
 29 24  1  0
 20 14  1  0
  1 31  1  0
  1 32  1  0
  1 33  1  0
  6 34  1  0
 10 35  1  0
 11 36  1  0
 15 37  1  0
 16 38  1  0
 19 39  1  0
 20 40  1  0
 21 41  1  0
 22 42  1  0
 25 43  1  0
 25 44  1  0
 26 45  1  0
 26 46  1  0
 27 47  1  6
 28 48  1  0
 29 49  1  0
 29 50  1  0
 30 51  1  0
M  CHG  1  30   1
M  END
>  <UniqueID>  (59) 
55

>  <SMILES>  (59) 
Cc1nc2c(cnn2-c2ccc(Oc3ccc(F)cc3)cc2)c(N2CC[C@@H](O)C2)[nH+]1

>  <Energy>  (59) 
112.56204135300025

>  <Genealogy>  (59) 
Cc1nc2c(cnn2-c2ccc(Oc3ccc(F)cc3)cc2)c(N2CCC(O)C2)[nH+]1 (protonated)
Cc1nc2c(cnn2-c2ccc(Oc3ccc(F)cc3)cc2)c(N2CC[C@@H](O)C2)[nH+]1 (chirality)
Cc1nc2c(cnn2-c2ccc(Oc3ccc(F)cc3)cc2)c(N2CC[C@@H](O)C2)[nH+]1 (3D coordinates assigned)
Cc1nc2c(cnn2-c2ccc(Oc3ccc(F)cc3)cc2)c(N2CC[C@@H](O)C2)[nH+]1 (nonaromatic ring conformer: 112.56204135300025 kcal/mol)

>  <smiles>  (59) 
Cc1nc(N2CCC(O)C2)c2cnn(-c3ccc(Oc4ccc(F)cc4)cc3)c2n1

>  <score_type>  (59) 
oracle

>  <origin>  (59) 
adg

>  <m_score__min__energy>  (59) 
-6.9699999999999998

>  <m_primary>  (59) 
energy

$$$$
59:0
     RDKit          3D

 50 52  0  0  0  0  0  0  0  0999 V2000
   63.4080   34.0010   46.6760 C   0  0  0  0  0  0  0  0  0  0  0  0
   62.0120   33.4660   46.4020 C   0  0  0  0  0  0  0  0  0  0  0  0
   61.0630   34.5140   46.5630 O   0  0  0  0  0  0  0  0  0  0  0  0
   59.6850   34.3100   46.4410 C   0  0  0  0  0  0  0  0  0  0  0  0
   58.9070   35.2920   46.3010 O   0  0  0  0  0  0  0  0  0  0  0  0
   59.1540   32.9360   46.4500 C   0  0  0  0  0  0  0  0  0  0  0  0
   58.9990   32.0420   47.5150 C   0  0  0  0  0  0  0  0  0  0  0  0
   59.4230   32.2390   48.8690 N   0  0  0  0  0  0  0  0  0  0  0  0
   60.7720   32.5620   49.2490 C   0  0  0  0  0  0  0  0  0  0  0  0
   61.1220   33.8470   49.7010 C   0  0  0  0  0  0  0  0  0  0  0  0
   62.4410   34.1360   50.0610 C   0  0  0  0  0  0  0  0  0  0  0  0
   63.4360   33.1510   49.9550 C   0  0  0  0  0  0  0  0  0  0  0  0
   64.8490   33.4510   50.3780 C   0  0  0  0  0  0  0  0  0  0  0  0
   65.7520   32.2480   50.1320 C   0  0  0  0  0  0  0  0  0  0  0  0
   63.0900   31.8710   49.4960 C   0  0  0  0  0  0  0  0  0  0  0  0
   61.7710   31.5830   49.1360 C   0  0  0  0  0  0  0  0  0  0  0  0
   58.3520   30.9250   47.1070 N   0  0  0  0  0  0  0  0  0  0  0  0
   58.1150   31.0760   45.8130 N   0  0  0  0  0  0  0  0  0  0  0  0
   57.4820   30.2020   44.9830 C   0  0  0  0  0  0  0  0  0  0  0  0
   56.9890   28.8780   45.5060 C   0  0  0  0  0  0  0  0  0  0  0  0
   57.2810   30.6010   43.6330 C   0  0  0  0  0  0  0  0  0  0  0  0
   56.5830   29.6870   42.6500 C   0  0  0  0  0  0  0  0  0  0  0  0
   57.8180   31.8570   43.2160 C   0  0  0  0  0  0  0  0  0  0  0  0
   57.7000   32.3430   41.8010 C   0  0  0  0  0  0  0  0  0  0  0  0
   58.4440   32.6670   44.1170 N   0  0  0  0  0  0  0  0  0  0  0  0
   58.5810   32.2580   45.3980 C   0  0  0  0  0  0  0  0  0  0  0  0
   63.5702   34.0632   47.7622 H   0  0  0  0  0  0  0  0  0  0  0  0
   64.1535   33.3249   46.2320 H   0  0  0  0  0  0  0  0  0  0  0  0
   63.5107   35.0022   46.2320 H   0  0  0  0  0  0  0  0  0  0  0  0
   61.9622   33.0810   45.3728 H   0  0  0  0  0  0  0  0  0  0  0  0
   61.7851   32.6538   47.1083 H   0  0  0  0  0  0  0  0  0  0  0  0
   58.7360   32.0160   49.6240 H   0  0  0  0  0  0  0  0  0  0  0  0
   60.3524   34.6298   49.7716 H   0  0  0  0  0  0  0  0  0  0  0  0
   62.7009   35.1395   50.4290 H   0  0  0  0  0  0  0  0  0  0  0  0
   65.2245   34.3085   49.8003 H   0  0  0  0  0  0  0  0  0  0  0  0
   64.8545   33.6833   51.4532 H   0  0  0  0  0  0  0  0  0  0  0  0
   66.0697   31.8247   51.0963 H   0  0  0  0  0  0  0  0  0  0  0  0
   65.2007   31.4864   49.5611 H   0  0  0  0  0  0  0  0  0  0  0  0
   66.6373   32.5647   49.5611 H   0  0  0  0  0  0  0  0  0  0  0  0
   63.8611   31.0903   49.4192 H   0  0  0  0  0  0  0  0  0  0  0  0
   61.5138   30.5813   48.7612 H   0  0  0  0  0  0  0  0  0  0  0  0
   56.9946   28.8932   46.6059 H   0  0  0  0  0  0  0  0  0  0  0  0
   55.9645   28.7005   45.1470 H   0  0  0  0  0  0  0  0  0  0  0  0
   57.6479   28.0736   45.1470 H   0  0  0  0  0  0  0  0  0  0  0  0
   56.0049   28.9299   43.2001 H   0  0  0  0  0  0  0  0  0  0  0  0
   55.9045   30.2784   42.0176 H   0  0  0  0  0  0  0  0  0  0  0  0
   57.3321   29.1881   42.0176 H   0  0  0  0  0  0  0  0  0  0  0  0
   57.4405   33.4119   41.8009 H   0  0  0  0  0  0  0  0  0  0  0  0
   58.6593   32.1985   41.2825 H   0  0  0  0  0  0  0  0  0  0  0  0
   56.9137   31.7747   41.2825 H   0  0  0  0  0  0  0  0  0  0  0  0
  1  2  1  0
  2  3  1  0
  3  4  1  0
  4  5  2  0
  4  6  1  0
  6  7  1  0
  7  8  1  0
  8  9  1  0
  9 10  2  0
 10 11  1  0
 11 12  2  0
 12 13  1  0
 13 14  1  0
 12 15  1  0
 15 16  2  0
  7 17  2  0
 17 18  1  0
 18 19  1  0
 19 20  1  0
 19 21  2  0
 21 22  1  0
 21 23  1  0
 23 24  1  0
 23 25  2  0
 25 26  1  0
 26  6  2  0
 16  9  1  0
 26 18  1  0
  1 27  1  0
  1 28  1  0
  1 29  1  0
  2 30  1  0
  2 31  1  0
  8 32  1  0
 10 33  1  0
 11 34  1  0
 13 35  1  0
 13 36  1  0
 14 37  1  0
 14 38  1  0
 14 39  1  0
 15 40  1  0
 16 41  1  0
 20 42  1  0
 20 43  1  0
 20 44  1  0
 22 45  1  0
 22 46  1  0
 22 47  1  0
 24 48  1  0
 24 49  1  0
 24 50  1  0
M  END
>  <UniqueID>  (60) 
56

>  <SMILES>  (60) 
CCOC(=O)c1c(Nc2ccc(CC)cc2)nn2c(C)c(C)c(C)nc12

>  <Energy>  (60) 
88.06178293809181

>  <Genealogy>  (60) 
CCOC(=O)c1c(Nc2ccc(CC)cc2)nn2c(C)c(C)c(C)nc12 (3D coordinates assigned)
CCOC(=O)c1c(Nc2ccc(CC)cc2)nn2c(C)c(C)c(C)nc12 (optimized conformer: 88.06178293809181 kcal/mol)

>  <smiles>  (60) 
CCOC(=O)c1c(Nc2ccc(CC)cc2)nn2c(C)c(C)c(C)nc12

>  <score_type>  (60) 
oracle

>  <origin>  (60) 
adg

>  <m_score__min__energy>  (60) 
-7.8300000000000001

>  <m_primary>  (60) 
energy

$$$$
60:0
     RDKit          3D

 48 51  0  0  0  0  0  0  0  0999 V2000
   57.0280   26.7080   46.0290 C   0  0  0  0  0  0  0  0  0  0  0  0
   57.5300   28.0700   45.8800 N   0  0  0  0  0  0  0  0  0  0  0  0
   57.0760   29.0010   45.0080 C   0  0  0  0  0  0  0  0  0  0  0  0
   57.8190   30.1720   45.1270 C   0  0  0  0  0  0  0  0  0  0  0  0
   57.6530   31.4080   44.2950 C   0  0  0  0  0  0  0  0  0  0  0  0
   56.7050   32.2870   44.8960 O   0  0  0  0  0  0  0  0  0  0  0  0
   57.0400   33.5450   45.4110 C   0  0  0  0  0  0  0  0  0  0  0  0
   56.7050   34.5980   44.8060 O   0  0  0  0  0  0  0  0  0  0  0  0
   57.8220   33.6330   46.6850 C   0  0  0  0  0  0  0  0  0  0  0  0
   58.9440   34.6760   46.5920 C   0  0  0  0  0  0  0  0  0  0  0  0
   60.2650   34.1070   46.0520 C   0  0  0  0  0  0  0  0  0  0  0  0
   61.2160   33.8520   47.1330 N   0  0  0  0  0  0  0  0  0  0  0  0
   60.9210   33.4780   48.4810 C   0  0  0  0  0  0  0  0  0  0  0  0
   59.7620   33.4400   48.9710 O   0  0  0  0  0  0  0  0  0  0  0  0
   62.1560   33.1610   49.1890 C   0  0  0  0  0  0  0  0  0  0  0  0
   62.3730   32.7550   50.5050 C   0  0  0  0  0  0  0  0  0  0  0  0
   63.6960   32.5160   50.9130 C   0  0  0  0  0  0  0  0  0  0  0  0
   64.7660   32.6850   50.0060 C   0  0  0  0  0  0  0  0  0  0  0  0
   64.5220   33.0940   48.6830 C   0  0  0  0  0  0  0  0  0  0  0  0
   63.2010   33.3270   48.3030 C   0  0  0  0  0  0  0  0  0  0  0  0
   62.6380   33.7500   47.0270 C   0  0  0  0  0  0  0  0  0  0  0  0
   63.2910   33.9910   45.9780 O   0  0  0  0  0  0  0  0  0  0  0  0
   58.7680   29.9200   46.1020 C   0  0  0  0  0  0  0  0  0  0  0  0
   59.7920   30.7170   46.6200 C   0  0  0  0  0  0  0  0  0  0  0  0
   60.6180   30.1620   47.6130 C   0  0  0  0  0  0  0  0  0  0  0  0
   60.4090   28.8390   48.0610 C   0  0  0  0  0  0  0  0  0  0  0  0
   59.3710   28.0580   47.5210 C   0  0  0  0  0  0  0  0  0  0  0  0
   58.5620   28.6340   46.5380 C   0  0  0  0  0  0  0  0  0  0  0  0
   56.9385   26.4651   47.0981 H   0  0  0  0  0  0  0  0  0  0  0  0
   56.0408   26.6267   45.5506 H   0  0  0  0  0  0  0  0  0  0  0  0
   57.7263   26.0055   45.5506 H   0  0  0  0  0  0  0  0  0  0  0  0
   56.2411   28.8534   44.3072 H   0  0  0  0  0  0  0  0  0  0  0  0
   58.6220   31.9219   44.2117 H   0  0  0  0  0  0  0  0  0  0  0  0
   57.2910   31.1207   43.2968 H   0  0  0  0  0  0  0  0  0  0  0  0
   57.1414   33.9136   47.5023 H   0  0  0  0  0  0  0  0  0  0  0  0
   58.2813   32.6515   46.8737 H   0  0  0  0  0  0  0  0  0  0  0  0
   58.6136   35.4844   45.9231 H   0  0  0  0  0  0  0  0  0  0  0  0
   59.1390   35.0341   47.6136 H   0  0  0  0  0  0  0  0  0  0  0  0
   60.0598   33.1633   45.5255 H   0  0  0  0  0  0  0  0  0  0  0  0
   60.7073   34.8465   45.3682 H   0  0  0  0  0  0  0  0  0  0  0  0
   61.5330   32.6256   51.2034 H   0  0  0  0  0  0  0  0  0  0  0  0
   63.9001   32.1952   51.9452 H   0  0  0  0  0  0  0  0  0  0  0  0
   65.7976   32.4952   50.3373 H   0  0  0  0  0  0  0  0  0  0  0  0
   65.3485   33.2262   47.9693 H   0  0  0  0  0  0  0  0  0  0  0  0
   59.9469   31.7456   46.2623 H   0  0  0  0  0  0  0  0  0  0  0  0
   61.4327   30.7623   48.0440 H   0  0  0  0  0  0  0  0  0  0  0  0
   61.0628   28.4161   48.8380 H   0  0  0  0  0  0  0  0  0  0  0  0
   59.2015   27.0260   47.8620 H   0  0  0  0  0  0  0  0  0  0  0  0
  1  2  1  0
  2  3  1  0
  3  4  2  0
  4  5  1  0
  5  6  1  0
  6  7  1  0
  7  8  2  0
  7  9  1  0
  9 10  1  0
 10 11  1  0
 11 12  1  0
 12 13  1  0
 13 14  2  0
 13 15  1  0
 15 16  2  0
 16 17  1  0
 17 18  2  0
 18 19  1  0
 19 20  2  0
 20 21  1  0
 21 22  2  0
  4 23  1  0
 23 24  2  0
 24 25  1  0
 25 26  2  0
 26 27  1  0
 27 28  2  0
 28  2  1  0
 21 12  1  0
 28 23  1  0
 20 15  1  0
  1 29  1  0
  1 30  1  0
  1 31  1  0
  3 32  1  0
  5 33  1  0
  5 34  1  0
  9 35  1  0
  9 36  1  0
 10 37  1  0
 10 38  1  0
 11 39  1  0
 11 40  1  0
 16 41  1  0
 17 42  1  0
 18 43  1  0
 19 44  1  0
 24 45  1  0
 25 46  1  0
 26 47  1  0
 27 48  1  0
M  END
>  <UniqueID>  (61) 
57

>  <SMILES>  (61) 
Cn1cc(COC(=O)CCCN2C(=O)c3ccccc3C2=O)c2ccccc21

>  <Energy>  (61) 
109.38691477590054

>  <Genealogy>  (61) 
Cn1cc(COC(=O)CCCN2C(=O)c3ccccc3C2=O)c2ccccc21 (3D coordinates assigned)
Cn1cc(COC(=O)CCCN2C(=O)c3ccccc3C2=O)c2ccccc21 (nonaromatic ring conformer: 109.38691477590054 kcal/mol)

>  <smiles>  (61) 
Cn1cc(COC(=O)CCCN2C(=O)c3ccccc3C2=O)c2ccccc21

>  <score_type>  (61) 
oracle

>  <origin>  (61) 
adg

>  <m_score__min__energy>  (61) 
-8.1799999999999997

>  <m_primary>  (61) 
energy

$$$$
61:0
     RDKit          3D

 43 46  0  0  0  0  0  0  0  0999 V2000
   54.4690   24.7920   44.9090 H   0  0  0  0  0  0  0  0  0  0  0  0
   54.4480   23.9060   44.4200 O   0  0  0  0  0  0  0  0  0  0  0  0
   55.5660   23.0820   44.2780 C   0  0  0  0  0  0  0  0  0  0  0  0
   55.9020   22.6410   42.9920 C   0  0  0  0  0  0  0  0  0  0  0  0
   55.2710   22.9239   42.1366 H   0  0  0  0  0  0  0  0  0  0  0  0
   57.0300   21.8460   42.7860 C   0  0  0  0  0  0  0  0  0  0  0  0
   57.2869   21.5066   41.7717 H   0  0  0  0  0  0  0  0  0  0  0  0
   57.8320   21.4820   43.8690 C   0  0  0  0  0  0  0  0  0  0  0  0
   58.7323   20.8718   43.7040 H   0  0  0  0  0  0  0  0  0  0  0  0
   57.4950   21.8900   45.1610 C   0  0  0  0  0  0  0  0  0  0  0  0
   58.1203   21.5811   46.0116 H   0  0  0  0  0  0  0  0  0  0  0  0
   56.3620   22.6930   45.3830 C   0  0  0  0  0  0  0  0  0  0  0  0
   56.0500   23.1470   46.7890 C   0  0  0  0  0  0  0  0  0  0  0  0
   56.9905   23.2430   47.3514 H   0  0  0  0  0  0  0  0  0  0  0  0
   55.3911   22.4004   47.2564 H   0  0  0  0  0  0  0  0  0  0  0  0
   55.3600   24.4370   46.7910 N   0  0  0  0  0  0  0  0  0  0  0  0
   55.8710   25.5540   46.3700 C   0  0  0  0  0  0  0  0  0  0  0  0
   57.2030   25.7790   46.3860 N   0  0  0  0  0  0  0  0  0  0  0  0
   57.3210   27.0290   45.9100 C   0  0  0  0  0  0  0  0  0  0  0  0
   58.2651   27.5769   45.7738 H   0  0  0  0  0  0  0  0  0  0  0  0
   56.0700   27.5090   45.6220 C   0  0  0  0  0  0  0  0  0  0  0  0
   55.7990   28.8100   45.1050 N   0  0  0  0  0  0  0  0  0  0  0  0
   56.9000   29.6670   44.0800 S   0  0  0  0  0  0  0  0  0  0  0  0
   57.4380   28.7240   43.0390 O   0  0  0  0  0  0  0  0  0  0  0  0
   56.1670   30.7770   43.3810 O   0  0  0  0  0  0  0  0  0  0  0  0
   58.2130   30.3530   45.0530 C   0  0  0  0  0  0  0  0  0  0  0  0
   59.2340   29.4970   45.4930 C   0  0  0  0  0  0  0  0  0  0  0  0
   59.2091   28.4333   45.2137 H   0  0  0  0  0  0  0  0  0  0  0  0
   60.2800   29.9780   46.2800 C   0  0  0  0  0  0  0  0  0  0  0  0
   61.0739   29.2931   46.6126 H   0  0  0  0  0  0  0  0  0  0  0  0
   60.3250   31.3200   46.6470 C   0  0  0  0  0  0  0  0  0  0  0  0
   61.1455   31.6877   47.2808 H   0  0  0  0  0  0  0  0  0  0  0  0
   59.3290   32.2040   46.2120 C   0  0  0  0  0  0  0  0  0  0  0  0
   59.3910   33.5580   46.5770 C   0  0  0  0  0  0  0  0  0  0  0  0
   60.2134   33.9165   47.2135 H   0  0  0  0  0  0  0  0  0  0  0  0
   58.4140   34.4510   46.1360 C   0  0  0  0  0  0  0  0  0  0  0  0
   58.4656   35.5102   46.4282 H   0  0  0  0  0  0  0  0  0  0  0  0
   57.3720   34.0020   45.3250 C   0  0  0  0  0  0  0  0  0  0  0  0
   56.6065   34.7105   44.9757 H   0  0  0  0  0  0  0  0  0  0  0  0
   57.2950   32.6580   44.9540 C   0  0  0  0  0  0  0  0  0  0  0  0
   56.4713   32.3173   44.3095 H   0  0  0  0  0  0  0  0  0  0  0  0
   58.2640   31.7320   45.3980 C   0  0  0  0  0  0  0  0  0  0  0  0
   55.1320   26.5890   45.9070 N   0  0  0  0  0  0  0  0  0  0  0  0
  1  2  1  0
  2  3  1  0
  3  4  2  0
  4  5  1  0
  4  6  1  0
  6  7  1  0
  6  8  2  0
  8  9  1  0
  8 10  1  0
 10 11  1  0
 10 12  2  0
 12 13  1  0
 13 14  1  0
 13 15  1  0
 13 16  1  0
 16 17  2  0
 17 18  1  0
 18 19  1  0
 19 20  1  0
 19 21  2  0
 21 22  1  0
 22 23  1  0
 23 24  2  0
 23 25  2  0
 23 26  1  0
 26 27  2  0
 27 28  1  0
 27 29  1  0
 29 30  1  0
 29 31  2  0
 31 32  1  0
 31 33  1  0
 33 34  2  0
 34 35  1  0
 34 36  1  0
 36 37  1  0
 36 38  2  0
 38 39  1  0
 38 40  1  0
 40 41  1  0
 40 42  2  0
 21 43  1  0
 12  3  1  0
 43 17  1  0
 42 26  1  0
 42 33  1  0
M  CHG  3  18  -1  22  -1  43  -1
M  END
>  <UniqueID>  (62) 
58

>  <SMILES>  (62) 
O=S(=O)([N-]c1c[n-]/c(=N/Cc2ccccc2O)[n-]1)c1cccc2ccccc12

>  <Energy>  (62) 
82.05124154628626

>  <Genealogy>  (62) 
O=S(=O)([N-]c1c[n-]c(=NCc2ccccc2O)[n-]1)c1cccc2ccccc12 (protonated)
O=S(=O)([N-]c1c[n-]/c(=N/Cc2ccccc2O)[n-]1)c1cccc2ccccc12 (cis-trans isomerization)
O=S(=O)([N-]c1c[n-]/c(=N/Cc2ccccc2O)[n-]1)c1cccc2ccccc12 (3D coordinates assigned)
O=S(=O)([N-]c1c[n-]/c(=N/Cc2ccccc2O)[n-]1)c1cccc2ccccc12 (optimized conformer: 82.05124154628626 kcal/mol)

>  <smiles>  (62) 
O=S(=O)(Nc1c[nH]c(=NCc2ccccc2O)[nH]1)c1cccc2ccccc12

>  <score_type>  (62) 
oracle

>  <origin>  (62) 
adg

>  <m_score__min__energy>  (62) 
-15.380000000000001

>  <m_primary>  (62) 
energy

$$$$
62:0
     RDKit          3D

 68 72  0  0  0  0  0  0  0  0999 V2000
   61.0020   30.2580   50.7470 O   0  0  0  0  0  0  0  0  0  0  0  0
   61.3970   30.2270   49.5510 C   0  0  0  0  0  0  0  0  0  0  0  0
   61.1210   29.0610   48.7640 N   0  0  0  0  0  0  0  0  0  0  0  0
   60.2220   29.0050   47.6470 C   0  0  0  0  0  0  0  0  0  0  0  0
   58.9330   28.4940   47.8300 C   0  0  0  0  0  0  0  0  0  0  0  0
   58.0350   28.4370   46.7600 C   0  0  0  0  0  0  0  0  0  0  0  0
   58.4080   28.9180   45.4930 C   0  0  0  0  0  0  0  0  0  0  0  0
   57.4400   28.8560   44.3420 C   0  0  0  0  0  0  0  0  0  0  0  0
   56.6970   30.4520   43.9840 S   0  0  0  0  0  0  0  0  0  0  0  0
   55.2750   30.4640   44.4730 O   0  0  0  0  0  0  0  0  0  0  0  0
   56.6810   30.6230   42.4910 O   0  0  0  0  0  0  0  0  0  0  0  0
   57.5600   31.8070   44.6740 N   0  0  0  0  0  0  0  0  0  0  0  0
   56.6430   32.7670   45.2980 C   0  0  0  0  0  0  0  0  0  0  0  0
   57.4480   33.7920   46.1250 C   0  0  0  0  0  0  0  0  0  0  0  0
   58.8130   34.0390   45.5900 N   0  0  0  0  0  0  0  0  0  0  0  0
   59.8480   33.2340   46.2740 C   0  0  0  0  0  0  0  0  0  0  0  0
   59.5440   33.1260   47.7450 C   0  0  0  0  0  0  0  0  0  0  0  0
   59.9300   34.1530   48.6190 C   0  0  0  0  0  0  0  0  0  0  0  0
   59.6790   34.0450   49.9890 C   0  0  0  0  0  0  0  0  0  0  0  0
   59.0400   32.9120   50.4990 C   0  0  0  0  0  0  0  0  0  0  0  0
   58.6290   31.8820   49.6330 C   0  0  0  0  0  0  0  0  0  0  0  0
   58.0100   30.7150   50.1040 O   0  0  0  0  0  0  0  0  0  0  0  0
   57.5690   30.4900   51.4180 C   0  0  0  0  0  0  0  0  0  0  0  0
   58.3440   29.7830   52.3570 C   0  0  0  0  0  0  0  0  0  0  0  0
   57.8710   29.5940   53.6590 C   0  0  0  0  0  0  0  0  0  0  0  0
   56.6320   30.1200   54.0380 C   0  0  0  0  0  0  0  0  0  0  0  0
   55.8690   30.8440   53.1180 C   0  0  0  0  0  0  0  0  0  0  0  0
   56.3400   31.0320   51.8140 C   0  0  0  0  0  0  0  0  0  0  0  0
   58.8960   31.9910   48.2620 C   0  0  0  0  0  0  0  0  0  0  0  0
   58.8650   33.8710   44.1220 C   0  0  0  0  0  0  0  0  0  0  0  0
   58.4400   32.4530   43.6800 C   0  0  0  0  0  0  0  0  0  0  0  0
   59.6950   29.4520   45.3160 C   0  0  0  0  0  0  0  0  0  0  0  0
   60.5900   29.5060   46.3870 C   0  0  0  0  0  0  0  0  0  0  0  0
   62.1950   31.3510   49.0120 C   0  0  0  0  0  0  0  0  0  0  0  0
   62.6910   32.3590   49.8570 C   0  0  0  0  0  0  0  0  0  0  0  0
   63.4520   33.3960   49.3140 C   0  0  0  0  0  0  0  0  0  0  0  0
   63.7180   33.4220   47.9440 C   0  0  0  0  0  0  0  0  0  0  0  0
   63.2170   32.4010   47.1330 C   0  0  0  0  0  0  0  0  0  0  0  0
   62.4780   31.4000   47.6800 N   0  0  0  0  0  0  0  0  0  0  0  0
   58.6237   28.1345   48.8225 H   0  0  0  0  0  0  0  0  0  0  0  0
   57.0310   28.0134   46.9105 H   0  0  0  0  0  0  0  0  0  0  0  0
   57.9770   28.5079   43.4473 H   0  0  0  0  0  0  0  0  0  0  0  0
   56.6310   28.1650   44.6214 H   0  0  0  0  0  0  0  0  0  0  0  0
   56.0759   33.2927   44.5157 H   0  0  0  0  0  0  0  0  0  0  0  0
   55.9477   32.2299   45.9599 H   0  0  0  0  0  0  0  0  0  0  0  0
   56.8979   34.7446   46.1310 H   0  0  0  0  0  0  0  0  0  0  0  0
   57.5655   33.3741   47.1357 H   0  0  0  0  0  0  0  0  0  0  0  0
   59.8722   32.2260   45.8342 H   0  0  0  0  0  0  0  0  0  0  0  0
   60.8236   33.7261   46.1471 H   0  0  0  0  0  0  0  0  0  0  0  0
   60.4329   35.0479   48.2237 H   0  0  0  0  0  0  0  0  0  0  0  0
   59.9853   34.8543   50.6682 H   0  0  0  0  0  0  0  0  0  0  0  0
   58.8578   32.8250   51.5803 H   0  0  0  0  0  0  0  0  0  0  0  0
   59.3244   29.3782   52.0654 H   0  0  0  0  0  0  0  0  0  0  0  0
   58.4743   29.0308   54.3862 H   0  0  0  0  0  0  0  0  0  0  0  0
   56.2579   29.9638   55.0606 H   0  0  0  0  0  0  0  0  0  0  0  0
   54.8987   31.2659   53.4188 H   0  0  0  0  0  0  0  0  0  0  0  0
   55.7407   31.6096   51.0948 H   0  0  0  0  0  0  0  0  0  0  0  0
   58.5953   31.1796   47.5829 H   0  0  0  0  0  0  0  0  0  0  0  0
   58.1889   34.6040   43.6577 H   0  0  0  0  0  0  0  0  0  0  0  0
   59.9058   34.0261   43.8016 H   0  0  0  0  0  0  0  0  0  0  0  0
   57.9027   32.5250   42.7229 H   0  0  0  0  0  0  0  0  0  0  0  0
   59.3483   31.8406   43.5798 H   0  0  0  0  0  0  0  0  0  0  0  0
   59.9997   29.8296   44.3288 H   0  0  0  0  0  0  0  0  0  0  0  0
   61.5890   29.9434   46.2431 H   0  0  0  0  0  0  0  0  0  0  0  0
   62.4814   32.3310   50.9365 H   0  0  0  0  0  0  0  0  0  0  0  0
   63.8417   34.1921   49.9655 H   0  0  0  0  0  0  0  0  0  0  0  0
   64.3150   34.2367   47.5083 H   0  0  0  0  0  0  0  0  0  0  0  0
   63.4205   32.4071   46.0520 H   0  0  0  0  0  0  0  0  0  0  0  0
  1  2  2  0
  2  3  1  0
  3  4  1  0
  4  5  2  0
  5  6  1  0
  6  7  2  0
  7  8  1  0
  8  9  1  0
  9 10  2  0
  9 11  2  0
  9 12  1  0
 12 13  1  0
 13 14  1  0
 14 15  1  0
 15 16  1  0
 16 17  1  0
 17 18  2  0
 18 19  1  0
 19 20  2  0
 20 21  1  0
 21 22  1  0
 22 23  1  0
 23 24  2  0
 24 25  1  0
 25 26  2  0
 26 27  1  0
 27 28  2  0
 21 29  2  0
 15 30  1  0
 30 31  1  0
  7 32  1  0
 32 33  2  0
  2 34  1  0
 34 35  2  0
 35 36  1  0
 36 37  2  0
 37 38  1  0
 38 39  2  0
 33  4  1  0
 39 34  1  0
 31 12  1  0
 29 17  1  0
 28 23  1  0
  5 40  1  0
  6 41  1  0
  8 42  1  0
  8 43  1  0
 13 44  1  0
 13 45  1  0
 14 46  1  0
 14 47  1  0
 16 48  1  0
 16 49  1  0
 18 50  1  0
 19 51  1  0
 20 52  1  0
 24 53  1  0
 25 54  1  0
 26 55  1  0
 27 56  1  0
 28 57  1  0
 29 58  1  0
 30 59  1  0
 30 60  1  0
 31 61  1  0
 31 62  1  0
 32 63  1  0
 33 64  1  0
 35 65  1  0
 36 66  1  0
 37 67  1  0
 38 68  1  0
M  CHG  1   3  -1
M  END
>  <UniqueID>  (63) 
59

>  <SMILES>  (63) 
O=C([N-]c1ccc(CS(=O)(=O)N2CCN(Cc3cccc(Oc4ccccc4)c3)CC2)cc1)c1ccccn1

>  <Energy>  (63) 
91.31087160874429

>  <Genealogy>  (63) 
O=C([N-]c1ccc(CS(=O)(=O)N2CCN(Cc3cccc(Oc4ccccc4)c3)CC2)cc1)c1ccccn1 (protonated)
O=C([N-]c1ccc(CS(=O)(=O)N2CCN(Cc3cccc(Oc4ccccc4)c3)CC2)cc1)c1ccccn1 (3D coordinates assigned)
O=C([N-]c1ccc(CS(=O)(=O)N2CCN(Cc3cccc(Oc4ccccc4)c3)CC2)cc1)c1ccccn1 (nonaromatic ring conformer: 91.31087160874429 kcal/mol)

>  <smiles>  (63) 
O=C(Nc1ccc(CS(=O)(=O)N2CCN(Cc3cccc(Oc4ccccc4)c3)CC2)cc1)c1ccccn1

>  <score_type>  (63) 
oracle

>  <origin>  (63) 
adg

>  <m_score__min__energy>  (63) 
-12.66

>  <m_primary>  (63) 
energy

$$$$
63:0
     RDKit          3D

 67 70  0  0  1  0  0  0  0  0999 V2000
   57.7070   32.2760   51.5300 C   0  0  0  0  0  0  0  0  0  0  0  0
   58.7750   33.2590   51.5710 N   0  0  0  0  0  0  0  0  0  0  0  0
   58.7640   34.2820   52.6040 C   0  0  0  0  0  0  0  0  0  0  0  0
   59.8500   33.2610   50.6200 C   0  0  0  0  0  0  0  0  0  0  0  0
   59.5800   33.7830   49.4180 N   0  0  0  0  0  0  0  0  0  0  0  0
   60.5690   33.7970   48.5060 C   0  0  0  0  0  0  0  0  0  0  0  0
   60.2840   34.3050   47.3550 N   0  0  0  0  0  0  0  0  0  0  0  0
   59.3320   33.6320   46.5040 C   0  0  0  0  0  0  0  0  0  0  0  0
   58.2800   34.3160   45.9220 C   0  0  0  0  0  0  0  0  0  0  0  0
   57.3990   33.6090   45.1090 C   0  0  0  0  0  0  0  0  0  0  0  0
   57.5730   32.2400   44.8880 C   0  0  0  0  0  0  0  0  0  0  0  0
   58.6210   31.5600   45.4680 C   0  0  0  0  0  0  0  0  0  0  0  0
   58.8830   30.1220   45.2900 C   0  0  0  0  0  0  0  0  0  0  0  0
   57.8560   29.2810   45.8740 N   0  0  0  0  0  0  0  0  0  0  0  0
   57.0630   28.5920   44.9020 C   0  0  0  0  0  0  0  0  0  0  0  0
   57.7770   27.3310   44.3970 C   0  0  0  0  0  0  0  0  0  0  0  0
   57.7040   26.3610   45.4570 N   0  0  0  0  0  0  0  0  0  0  0  0
   56.5930   25.4680   45.3860 C   0  0  0  0  0  0  0  0  0  0  0  0
   56.9130   24.1680   44.7690 C   0  0  0  0  0  0  0  0  0  0  0  0
   56.2090   23.6060   43.7280 C   0  0  0  0  0  0  0  0  0  0  0  0
   56.6210   22.3670   43.2230 C   0  0  0  0  0  0  0  0  0  0  0  0
   57.7160   21.7010   43.7460 C   0  0  0  0  0  0  0  0  0  0  0  0
   58.4210   22.2650   44.7900 C   0  0  0  0  0  0  0  0  0  0  0  0
   58.0110   23.4810   45.2820 C   0  0  0  0  0  0  0  0  0  0  0  0
   57.7010   26.9810   46.7690 C   0  0  0  0  0  0  0  0  0  0  0  0
   58.4320   28.3150   46.7860 C   0  0  0  0  0  0  0  0  0  0  0  0
   59.4980   32.2710   46.2780 C   0  0  0  0  0  0  0  0  0  0  0  0
   61.8200   33.2900   48.8080 C   0  0  0  0  0  0  0  0  0  0  0  0
   63.0870   33.3230   47.5980 S   0  0  0  0  0  0  0  0  0  0  0  0
   63.3870   31.6700   47.1720 N   0  0  0  0  0  0  0  0  0  0  0  0
   62.7070   34.1390   46.3990 O   0  0  0  0  0  0  0  0  0  0  0  0
   64.3510   33.8270   48.2460 O   0  0  0  0  0  0  0  0  0  0  0  0
   62.0460   32.7620   50.0640 C   0  0  0  0  0  0  0  0  0  0  0  0
   63.3140   32.2290   50.4180 N   0  0  0  0  0  0  0  0  0  0  0  0
   61.0560   32.7560   50.9530 N   0  0  0  0  0  0  0  0  0  0  0  0
   57.4158   32.0080   52.5563 H   0  0  0  0  0  0  0  0  0  0  0  0
   56.8399   32.6985   51.0013 H   0  0  0  0  0  0  0  0  0  0  0  0
   58.0563   31.3769   51.0013 H   0  0  0  0  0  0  0  0  0  0  0  0
   58.7691   33.8032   53.5943 H   0  0  0  0  0  0  0  0  0  0  0  0
   59.6554   34.9181   52.4996 H   0  0  0  0  0  0  0  0  0  0  0  0
   57.8592   34.8988   52.4996 H   0  0  0  0  0  0  0  0  0  0  0  0
   58.1430   35.3932   46.0976 H   0  0  0  0  0  0  0  0  0  0  0  0
   56.5563   34.1336   44.6351 H   0  0  0  0  0  0  0  0  0  0  0  0
   56.8646   31.6992   44.2432 H   0  0  0  0  0  0  0  0  0  0  0  0
   58.9409   29.9072   44.2127 H   0  0  0  0  0  0  0  0  0  0  0  0
   59.8271   29.8938   45.8063 H   0  0  0  0  0  0  0  0  0  0  0  0
   56.1053   28.3032   45.3596 H   0  0  0  0  0  0  0  0  0  0  0  0
   56.8971   29.2645   44.0474 H   0  0  0  0  0  0  0  0  0  0  0  0
   57.2757   26.9467   43.4964 H   0  0  0  0  0  0  0  0  0  0  0  0
   58.8221   27.5481   44.1312 H   0  0  0  0  0  0  0  0  0  0  0  0
   56.2281   25.2865   46.4077 H   0  0  0  0  0  0  0  0  0  0  0  0
   55.8365   25.9480   44.7478 H   0  0  0  0  0  0  0  0  0  0  0  0
   55.3370   24.1221   43.3000 H   0  0  0  0  0  0  0  0  0  0  0  0
   56.0619   21.9125   42.3918 H   0  0  0  0  0  0  0  0  0  0  0  0
   58.0222   20.7288   43.3324 H   0  0  0  0  0  0  0  0  0  0  0  0
   59.2937   21.7514   45.2197 H   0  0  0  0  0  0  0  0  0  0  0  0
   58.5725   23.9300   46.1145 H   0  0  0  0  0  0  0  0  0  0  0  0
   56.6584   27.1464   47.0784 H   0  0  0  0  0  0  0  0  0  0  0  0
   58.2259   26.3041   47.4591 H   0  0  0  0  0  0  0  0  0  0  0  0
   58.3905   28.7258   47.8056 H   0  0  0  0  0  0  0  0  0  0  0  0
   59.4671   28.1301   46.4629 H   0  0  0  0  0  0  0  0  0  0  0  0
   60.3412   31.7456   46.7501 H   0  0  0  0  0  0  0  0  0  0  0  0
   62.9520   30.9940   47.8120 H   0  0  0  0  0  0  0  0  0  0  0  0
   64.4130   31.5370   47.1090 H   0  0  0  0  0  0  0  0  0  0  0  0
   64.0500   32.1990   49.6650 H   0  0  0  0  0  0  0  0  0  0  0  0
   63.5250   31.8750   51.3920 H   0  0  0  0  0  0  0  0  0  0  0  0
   61.1340   32.3780   51.9300 H   0  0  0  0  0  0  0  0  0  0  0  0
  1  2  1  0
  2  3  1  0
  2  4  1  0
  4  5  2  0
  5  6  1  0
  6  7  2  0
  7  8  1  0
  8  9  2  0
  9 10  1  0
 10 11  2  0
 11 12  1  0
 12 13  1  0
 13 14  1  0
 14 15  1  0
 15 16  1  0
 16 17  1  0
 17 18  1  0
 18 19  1  0
 19 20  2  0
 20 21  1  0
 21 22  2  0
 22 23  1  0
 23 24  2  0
 17 25  1  0
 25 26  1  0
 12 27  2  0
  6 28  1  0
 28 29  1  0
 29 30  1  0
 29 31  2  0
 29 32  2  0
 28 33  2  0
 33 34  1  0
 33 35  1  0
 35  4  1  0
 27  8  1  0
 26 14  1  0
 24 19  1  0
  1 36  1  0
  1 37  1  0
  1 38  1  0
  3 39  1  0
  3 40  1  0
  3 41  1  0
  9 42  1  0
 10 43  1  0
 11 44  1  0
 13 45  1  0
 13 46  1  0
 15 47  1  0
 15 48  1  0
 16 49  1  0
 16 50  1  0
 18 51  1  0
 18 52  1  0
 20 53  1  0
 21 54  1  0
 22 55  1  0
 23 56  1  0
 24 57  1  0
 25 58  1  0
 25 59  1  0
 26 60  1  0
 26 61  1  0
 27 62  1  0
 30 63  1  0
 30 64  1  0
 34 65  1  0
 34 66  1  0
 35 67  1  0
M  END
>  <smiles>  (64) 
CN(C)c1nc(=Nc2cccc(CN3CCN(Cc4ccccc4)CC3)c2)c(S(N)(=O)=O)c(N)[nH]1

>  <score_type>  (64) 
oracle

>  <origin>  (64) 
adg

>  <m_score__min__energy>  (64) 
-9.5800000000000001

>  <m_primary>  (64) 
energy

$$$$
64:0
     RDKit          3D

 49 51  0  0  0  0  0  0  0  0999 V2000
   56.9640   25.2180   44.6550 C   0  0  0  0  0  0  0  0  0  0  0  0
   56.2500   25.6670   46.2250 S   0  0  0  0  0  0  0  0  0  0  0  0
   55.1990   26.7130   45.9900 O   0  0  0  0  0  0  0  0  0  0  0  0
   55.6050   24.4750   46.8720 O   0  0  0  0  0  0  0  0  0  0  0  0
   57.4710   26.3230   47.2710 N   0  0  0  0  0  0  0  0  0  0  0  0
   58.3100   27.4490   46.9490 C   0  0  0  0  0  0  0  0  0  0  0  0
   59.5300   27.6860   47.6100 C   0  0  0  0  0  0  0  0  0  0  0  0
   60.3240   28.7800   47.2550 C   0  0  0  0  0  0  0  0  0  0  0  0
   59.9080   29.6540   46.2490 C   0  0  0  0  0  0  0  0  0  0  0  0
   58.6870   29.4520   45.5990 C   0  0  0  0  0  0  0  0  0  0  0  0
   58.3020   30.3700   44.5640 N   0  0  0  0  0  0  0  0  0  0  0  0
   57.1630   31.2400   44.5750 C   0  0  0  0  0  0  0  0  0  0  0  0
   56.0050   30.7860   44.7760 O   0  0  0  0  0  0  0  0  0  0  0  0
   57.3680   32.7150   44.4580 C   0  0  0  0  0  0  0  0  0  0  0  0
   58.4350   33.1570   45.4080 C   0  0  0  0  0  0  0  0  0  0  0  0
   59.3780   34.1500   45.1640 C   0  0  0  0  0  0  0  0  0  0  0  0
   60.2050   34.4060   46.2630 C   0  0  0  0  0  0  0  0  0  0  0  0
   59.8960   33.6230   47.3660 C   0  0  0  0  0  0  0  0  0  0  0  0
   60.7120   33.6620   48.9180 S   0  0  0  0  0  0  0  0  0  0  0  0
   59.6730   33.6280   50.0050 O   0  0  0  0  0  0  0  0  0  0  0  0
   61.4990   34.9380   49.0340 O   0  0  0  0  0  0  0  0  0  0  0  0
   61.7710   32.2720   49.0390 N   0  0  0  0  0  0  0  0  0  0  0  0
   62.0340   31.6640   47.7150 C   0  0  0  0  0  0  0  0  0  0  0  0
   63.3920   32.0840   47.1260 C   0  0  0  0  0  0  0  0  0  0  0  0
   63.7100   33.4000   47.5190 O   0  0  0  0  0  0  0  0  0  0  0  0
   63.9860   33.4450   48.9090 C   0  0  0  0  0  0  0  0  0  0  0  0
   63.0130   32.5970   49.7620 C   0  0  0  0  0  0  0  0  0  0  0  0
   58.6060   32.6130   46.9930 S   0  0  0  0  0  0  0  0  0  0  0  0
   57.9020   28.3350   45.9380 C   0  0  0  0  0  0  0  0  0  0  0  0
   57.8843   24.6393   44.8228 H   0  0  0  0  0  0  0  0  0  0  0  0
   56.2461   24.6085   44.0866 H   0  0  0  0  0  0  0  0  0  0  0  0
   57.2023   26.1291   44.0866 H   0  0  0  0  0  0  0  0  0  0  0  0
   57.5790   25.8660   48.2030 H   0  0  0  0  0  0  0  0  0  0  0  0
   59.8600   27.0068   48.4099 H   0  0  0  0  0  0  0  0  0  0  0  0
   61.2804   28.9530   47.7702 H   0  0  0  0  0  0  0  0  0  0  0  0
   60.5441   30.5058   45.9664 H   0  0  0  0  0  0  0  0  0  0  0  0
   57.6706   32.9608   43.4294 H   0  0  0  0  0  0  0  0  0  0  0  0
   56.4283   33.2320   44.7025 H   0  0  0  0  0  0  0  0  0  0  0  0
   59.4647   34.6803   44.2042 H   0  0  0  0  0  0  0  0  0  0  0  0
   61.0152   35.1500   46.2536 H   0  0  0  0  0  0  0  0  0  0  0  0
   62.0206   30.5693   47.8219 H   0  0  0  0  0  0  0  0  0  0  0  0
   61.2511   32.0161   47.0271 H   0  0  0  0  0  0  0  0  0  0  0  0
   64.1723   31.3985   47.4884 H   0  0  0  0  0  0  0  0  0  0  0  0
   63.3340   32.0426   46.0283 H   0  0  0  0  0  0  0  0  0  0  0  0
   65.0077   33.0717   49.0728 H   0  0  0  0  0  0  0  0  0  0  0  0
   63.8663   34.4910   49.2277 H   0  0  0  0  0  0  0  0  0  0  0  0
   63.5144   31.6590   50.0426 H   0  0  0  0  0  0  0  0  0  0  0  0
   62.7406   33.1886   50.6485 H   0  0  0  0  0  0  0  0  0  0  0  0
   56.9571   28.1531   45.4050 H   0  0  0  0  0  0  0  0  0  0  0  0
  1  2  1  0
  2  3  2  0
  2  4  2  0
  2  5  1  0
  5  6  1  0
  6  7  2  0
  7  8  1  0
  8  9  2  0
  9 10  1  0
 10 11  1  0
 11 12  1  0
 12 13  2  0
 12 14  1  0
 14 15  1  0
 15 16  2  0
 16 17  1  0
 17 18  2  0
 18 19  1  0
 19 20  2  0
 19 21  2  0
 19 22  1  0
 22 23  1  0
 23 24  1  0
 24 25  1  0
 25 26  1  0
 26 27  1  0
 18 28  1  0
 10 29  2  0
 29  6  1  0
 28 15  1  0
 27 22  1  0
  1 30  1  0
  1 31  1  0
  1 32  1  0
  5 33  1  0
  7 34  1  0
  8 35  1  0
  9 36  1  0
 14 37  1  0
 14 38  1  0
 16 39  1  0
 17 40  1  0
 23 41  1  0
 23 42  1  0
 24 43  1  0
 24 44  1  0
 26 45  1  0
 26 46  1  0
 27 47  1  0
 27 48  1  0
 29 49  1  0
M  CHG  1  11  -1
M  END
>  <UniqueID>  (65) 
60

>  <SMILES>  (65) 
CS(=O)(=O)Nc1cccc([N-]C(=O)Cc2ccc(S(=O)(=O)N3CCOCC3)s2)c1

>  <Energy>  (65) 
86.41037680897409

>  <Genealogy>  (65) 
CS(=O)(=O)Nc1cccc([N-]C(=O)Cc2ccc(S(=O)(=O)N3CCOCC3)s2)c1 (protonated)
CS(=O)(=O)Nc1cccc([N-]C(=O)Cc2ccc(S(=O)(=O)N3CCOCC3)s2)c1 (3D coordinates assigned)
CS(=O)(=O)Nc1cccc([N-]C(=O)Cc2ccc(S(=O)(=O)N3CCOCC3)s2)c1 (nonaromatic ring conformer: 86.41037680897409 kcal/mol)

>  <smiles>  (65) 
CS(=O)(=O)Nc1cccc(NC(=O)Cc2ccc(S(=O)(=O)N3CCOCC3)s2)c1

>  <score_type>  (65) 
oracle

>  <origin>  (65) 
adg

>  <m_score__min__energy>  (65) 
-11.17

>  <m_primary>  (65) 
energy

$$$$
65:0
     RDKit          3D

 54 57  0  0  0  0  0  0  0  0999 V2000
   60.9700   32.4520   51.2790 O   0  0  0  0  0  0  0  0  0  0  0  0
   61.4860   31.5440   50.5710 C   0  0  0  0  0  0  0  0  0  0  0  0
   62.8530   31.0820   50.8770 C   0  0  0  0  0  0  0  0  0  0  0  0
   63.0330   29.7460   51.2690 C   0  0  0  0  0  0  0  0  0  0  0  0
   64.3050   29.2700   51.5960 C   0  0  0  0  0  0  0  0  0  0  0  0
   65.4080   30.1200   51.5290 C   0  0  0  0  0  0  0  0  0  0  0  0
   65.2470   31.4460   51.1230 C   0  0  0  0  0  0  0  0  0  0  0  0
   63.9780   31.9410   50.7720 C   0  0  0  0  0  0  0  0  0  0  0  0
   63.8640   33.3710   50.2840 C   0  0  0  0  0  0  0  0  0  0  0  0
   63.6370   33.4280   48.8750 O   0  0  0  0  0  0  0  0  0  0  0  0
   62.4160   33.7490   48.2630 C   0  0  0  0  0  0  0  0  0  0  0  0
   62.2950   33.5440   46.8820 C   0  0  0  0  0  0  0  0  0  0  0  0
   61.1060   33.8570   46.2200 C   0  0  0  0  0  0  0  0  0  0  0  0
   60.0220   34.3760   46.9340 C   0  0  0  0  0  0  0  0  0  0  0  0
   60.1290   34.5790   48.3120 C   0  0  0  0  0  0  0  0  0  0  0  0
   61.3170   34.2670   48.9780 C   0  0  0  0  0  0  0  0  0  0  0  0
   60.7440   30.9810   49.4760 N   0  0  0  0  0  0  0  0  0  0  0  0
   61.4330   30.6020   48.2370 C   0  0  0  0  0  0  0  0  0  0  0  0
   60.4400   30.4960   47.0700 C   0  0  0  0  0  0  0  0  0  0  0  0
   59.2680   29.6290   47.3730 N   0  0  0  0  0  0  0  0  0  0  0  0
   59.5200   28.2660   46.9420 C   0  0  0  0  0  0  0  0  0  0  0  0
   60.5440   27.6920   47.2950 O   0  0  0  0  0  0  0  0  0  0  0  0
   58.5290   27.5650   46.0410 C   0  0  0  0  0  0  0  0  0  0  0  0
   57.5040   28.5010   45.4710 C   0  0  0  0  0  0  0  0  0  0  0  0
   57.7600   29.7680   45.1000 N   0  0  0  0  0  0  0  0  0  0  0  0
   56.5490   30.2290   44.7190 C   0  0  0  0  0  0  0  0  0  0  0  0
   56.3740   31.4000   44.2930 O   0  0  0  0  0  0  0  0  0  0  0  0
   55.5380   29.3400   44.8370 N   0  0  0  0  0  0  0  0  0  0  0  0
   56.1610   28.2530   45.3210 C   0  0  0  0  0  0  0  0  0  0  0  0
   55.5140   27.0610   45.6210 O   0  0  0  0  0  0  0  0  0  0  0  0
   58.8220   29.6490   48.7940 C   0  0  0  0  0  0  0  0  0  0  0  0
   59.2830   30.9030   49.5400 C   0  0  0  0  0  0  0  0  0  0  0  0
   62.1669   29.0697   51.3190 H   0  0  0  0  0  0  0  0  0  0  0  0
   64.4365   28.2230   51.9068 H   0  0  0  0  0  0  0  0  0  0  0  0
   66.4070   29.7452   51.7965 H   0  0  0  0  0  0  0  0  0  0  0  0
   66.1221   32.1109   51.0771 H   0  0  0  0  0  0  0  0  0  0  0  0
   63.0247   33.8590   50.8011 H   0  0  0  0  0  0  0  0  0  0  0  0
   64.8114   33.8859   50.5015 H   0  0  0  0  0  0  0  0  0  0  0  0
   63.1434   33.1333   46.3150 H   0  0  0  0  0  0  0  0  0  0  0  0
   61.0222   33.6950   45.1352 H   0  0  0  0  0  0  0  0  0  0  0  0
   59.0863   34.6241   46.4116 H   0  0  0  0  0  0  0  0  0  0  0  0
   59.2755   34.9856   48.8743 H   0  0  0  0  0  0  0  0  0  0  0  0
   61.3950   34.4261   50.0636 H   0  0  0  0  0  0  0  0  0  0  0  0
   62.1900   31.3635   47.9981 H   0  0  0  0  0  0  0  0  0  0  0  0
   61.9089   29.6213   48.3846 H   0  0  0  0  0  0  0  0  0  0  0  0
   60.0750   31.5053   46.8289 H   0  0  0  0  0  0  0  0  0  0  0  0
   60.9759   30.0374   46.2259 H   0  0  0  0  0  0  0  0  0  0  0  0
   58.4740   30.0020   46.8000 H   0  0  0  0  0  0  0  0  0  0  0  0
   59.0780   27.0962   45.2111 H   0  0  0  0  0  0  0  0  0  0  0  0
   57.9967   26.8185   46.6488 H   0  0  0  0  0  0  0  0  0  0  0  0
   57.7230   29.6090   48.8185 H   0  0  0  0  0  0  0  0  0  0  0  0
   59.2720   28.7796   49.2957 H   0  0  0  0  0  0  0  0  0  0  0  0
   58.8443   31.7952   49.0693 H   0  0  0  0  0  0  0  0  0  0  0  0
   58.9574   30.8539   50.5896 H   0  0  0  0  0  0  0  0  0  0  0  0
  1  2  2  0
  2  3  1  0
  3  4  2  0
  4  5  1  0
  5  6  2  0
  6  7  1  0
  7  8  2  0
  8  9  1  0
  9 10  1  0
 10 11  1  0
 11 12  2  0
 12 13  1  0
 13 14  2  0
 14 15  1  0
 15 16  2  0
  2 17  1  0
 17 18  1  0
 18 19  1  0
 19 20  1  0
 20 21  1  0
 21 22  2  0
 21 23  1  0
 23 24  1  0
 24 25  1  0
 25 26  1  0
 26 27  2  0
 26 28  1  0
 28 29  1  0
 29 30  1  0
 20 31  1  0
 31 32  1  0
  8  3  1  0
 16 11  1  0
 32 17  1  0
 29 24  2  0
  4 33  1  0
  5 34  1  0
  6 35  1  0
  7 36  1  0
  9 37  1  0
  9 38  1  0
 12 39  1  0
 13 40  1  0
 14 41  1  0
 15 42  1  0
 16 43  1  0
 18 44  1  0
 18 45  1  0
 19 46  1  0
 19 47  1  0
 20 48  1  0
 23 49  1  0
 23 50  1  0
 31 51  1  0
 31 52  1  0
 32 53  1  0
 32 54  1  0
M  CHG  4  20   1  25  -1  28  -1  30  -1
M  END
>  <UniqueID>  (66) 
61

>  <SMILES>  (66) 
O=C(c1ccccc1COc1ccccc1)N1CC[NH+](C(=O)Cc2[n-]c(=O)[n-]c2[O-])CC1

>  <Energy>  (66) 
100.67576296351041

>  <Genealogy>  (66) 
O=C(c1ccccc1COc1ccccc1)N1CC[NH+](C(=O)Cc2[n-]c(=O)[n-]c2[O-])CC1 (protonated)
O=C(c1ccccc1COc1ccccc1)N1CC[NH+](C(=O)Cc2[n-]c(=O)[n-]c2[O-])CC1 (3D coordinates assigned)
O=C(c1ccccc1COc1ccccc1)N1CC[NH+](C(=O)Cc2[n-]c(=O)[n-]c2[O-])CC1 (nonaromatic ring conformer: 100.67576296351041 kcal/mol)

>  <smiles>  (66) 
O=C(Cc1[nH]c(=O)[nH]c1O)N1CCN(C(=O)c2ccccc2COc2ccccc2)CC1

>  <score_type>  (66) 
oracle

>  <origin>  (66) 
adg

>  <m_score__min__energy>  (66) 
-16.629999999999999

>  <m_primary>  (66) 
energy

$$$$
66:0
     RDKit          3D

 54 56  0  0  0  0  0  0  0  0999 V2000
   58.9030   30.5350   49.5270 C   0  0  0  0  0  0  0  0  0  0  0  0
   58.7500   31.7490   48.7950 O   0  0  0  0  0  0  0  0  0  0  0  0
   59.7980   32.4370   48.1550 C   0  0  0  0  0  0  0  0  0  0  0  0
   61.1300   32.3240   48.5970 C   0  0  0  0  0  0  0  0  0  0  0  0
   62.1530   33.0280   47.9540 C   0  0  0  0  0  0  0  0  0  0  0  0
   61.8630   33.8410   46.8570 C   0  0  0  0  0  0  0  0  0  0  0  0
   60.5510   33.9490   46.3940 C   0  0  0  0  0  0  0  0  0  0  0  0
   59.5080   33.2600   47.0400 C   0  0  0  0  0  0  0  0  0  0  0  0
   58.0920   33.4550   46.5550 C   0  0  0  0  0  0  0  0  0  0  0  0
   57.9210   32.8250   45.2380 N   0  0  0  0  0  0  0  0  0  0  0  0
   58.4940   33.4710   44.0600 C   0  0  0  0  0  0  0  0  0  0  0  0
   57.4510   31.4640   45.1290 C   0  0  0  0  0  0  0  0  0  0  0  0
   56.3380   31.2250   44.5710 O   0  0  0  0  0  0  0  0  0  0  0  0
   58.2430   30.3370   45.6640 C   0  0  0  0  0  0  0  0  0  0  0  0
   59.6450   30.3740   45.6200 C   0  0  0  0  0  0  0  0  0  0  0  0
   60.3920   29.3220   46.1530 C   0  0  0  0  0  0  0  0  0  0  0  0
   59.7460   28.2190   46.7070 C   0  0  0  0  0  0  0  0  0  0  0  0
   58.3480   28.1470   46.7220 C   0  0  0  0  0  0  0  0  0  0  0  0
   57.7230   26.9780   47.2630 N   0  0  0  0  0  0  0  0  0  0  0  0
   57.1230   25.9160   46.5120 C   0  0  0  0  0  0  0  0  0  0  0  0
   55.8680   25.7930   46.4700 O   0  0  0  0  0  0  0  0  0  0  0  0
   57.9630   25.0500   45.7340 N   0  0  0  0  0  0  0  0  0  0  0  0
   57.4840   23.8870   45.0390 C   0  0  0  0  0  0  0  0  0  0  0  0
   57.0360   24.0040   43.7200 C   0  0  0  0  0  0  0  0  0  0  0  0
   56.5970   22.8770   43.0300 C   0  0  0  0  0  0  0  0  0  0  0  0
   56.6290   21.6270   43.6580 C   0  0  0  0  0  0  0  0  0  0  0  0
   56.2460   20.6090   43.0170 O   0  0  0  0  0  0  0  0  0  0  0  0
   57.0810   21.5120   44.9470 N   0  0  0  0  0  0  0  0  0  0  0  0
   57.1650   20.1900   45.5820 C   0  0  0  0  0  0  0  0  0  0  0  0
   57.5130   22.6150   45.6310 C   0  0  0  0  0  0  0  0  0  0  0  0
   57.5980   29.2290   46.2330 C   0  0  0  0  0  0  0  0  0  0  0  0
   58.8758   30.7511   50.6052 H   0  0  0  0  0  0  0  0  0  0  0  0
   58.0845   29.8464   49.2702 H   0  0  0  0  0  0  0  0  0  0  0  0
   59.8667   30.0710   49.2702 H   0  0  0  0  0  0  0  0  0  0  0  0
   61.3677   31.6772   49.4544 H   0  0  0  0  0  0  0  0  0  0  0  0
   63.1889   32.9409   48.3136 H   0  0  0  0  0  0  0  0  0  0  0  0
   62.6696   34.3972   46.3569 H   0  0  0  0  0  0  0  0  0  0  0  0
   60.3307   34.5770   45.5182 H   0  0  0  0  0  0  0  0  0  0  0  0
   57.3949   32.9962   47.2717 H   0  0  0  0  0  0  0  0  0  0  0  0
   57.8842   34.5319   46.4701 H   0  0  0  0  0  0  0  0  0  0  0  0
   59.1929   34.2589   44.3774 H   0  0  0  0  0  0  0  0  0  0  0  0
   59.0322   32.7243   43.4577 H   0  0  0  0  0  0  0  0  0  0  0  0
   57.6884   33.9163   43.4577 H   0  0  0  0  0  0  0  0  0  0  0  0
   60.1569   31.2344   45.1642 H   0  0  0  0  0  0  0  0  0  0  0  0
   61.4911   29.3640   46.1356 H   0  0  0  0  0  0  0  0  0  0  0  0
   60.3392   27.3980   47.1361 H   0  0  0  0  0  0  0  0  0  0  0  0
   58.9510   25.3510   45.5730 H   0  0  0  0  0  0  0  0  0  0  0  0
   57.0303   24.9872   43.2268 H   0  0  0  0  0  0  0  0  0  0  0  0
   56.2275   22.9688   41.9980 H   0  0  0  0  0  0  0  0  0  0  0  0
   57.1575   20.3074   46.6757 H   0  0  0  0  0  0  0  0  0  0  0  0
   56.3038   19.5794   45.2729 H   0  0  0  0  0  0  0  0  0  0  0  0
   58.0965   19.6933   45.2729 H   0  0  0  0  0  0  0  0  0  0  0  0
   57.8882   22.5034   46.6590 H   0  0  0  0  0  0  0  0  0  0  0  0
   56.5000   29.2075   46.2965 H   0  0  0  0  0  0  0  0  0  0  0  0
  1  2  1  0
  2  3  1  0
  3  4  2  0
  4  5  1  0
  5  6  2  0
  6  7  1  0
  7  8  2  0
  8  9  1  0
  9 10  1  0
 10 11  1  0
 10 12  1  0
 12 13  2  0
 12 14  1  0
 14 15  2  0
 15 16  1  0
 16 17  2  0
 17 18  1  0
 18 19  1  0
 19 20  1  0
 20 21  2  0
 20 22  1  0
 22 23  1  0
 23 24  1  0
 24 25  2  0
 25 26  1  0
 26 27  2  0
 26 28  1  0
 28 29  1  0
 28 30  1  0
 18 31  2  0
  8  3  1  0
 31 14  1  0
 30 23  2  0
  1 32  1  0
  1 33  1  0
  1 34  1  0
  4 35  1  0
  5 36  1  0
  6 37  1  0
  7 38  1  0
  9 39  1  0
  9 40  1  0
 11 41  1  0
 11 42  1  0
 11 43  1  0
 15 44  1  0
 16 45  1  0
 17 46  1  0
 22 47  1  0
 24 48  1  0
 25 49  1  0
 29 50  1  0
 29 51  1  0
 29 52  1  0
 30 53  1  0
 31 54  1  0
M  CHG  1  19  -1
M  END
>  <UniqueID>  (67) 
62

>  <SMILES>  (67) 
COc1ccccc1CN(C)C(=O)c1cccc([N-]C(=O)Nc2ccc(=O)n(C)c2)c1

>  <Energy>  (67) 
67.82349031379123

>  <Genealogy>  (67) 
COc1ccccc1CN(C)C(=O)c1cccc([N-]C(=O)Nc2ccc(=O)n(C)c2)c1 (protonated)
COc1ccccc1CN(C)C(=O)c1cccc([N-]C(=O)Nc2ccc(=O)n(C)c2)c1 (3D coordinates assigned)
COc1ccccc1CN(C)C(=O)c1cccc([N-]C(=O)Nc2ccc(=O)n(C)c2)c1 (optimized conformer: 67.82349031379123 kcal/mol)

>  <smiles>  (67) 
COc1ccccc1CN(C)C(=O)c1cccc(NC(=O)Nc2ccc(=O)n(C)c2)c1

>  <score_type>  (67) 
oracle

>  <origin>  (67) 
adg

>  <m_score__min__energy>  (67) 
-10.949999999999999

>  <m_primary>  (67) 
energy

$$$$
67:0
     RDKit          3D

 49 52  0  0  0  0  0  0  0  0999 V2000
   59.0160   30.6940   48.0560 C   0  0  0  0  0  0  0  0  0  0  0  0
   59.9090   29.6520   47.4320 C   0  0  0  0  0  0  0  0  0  0  0  0
   59.8430   29.6540   45.8990 C   0  0  0  0  0  0  0  0  0  0  0  0
   58.4660   29.9470   45.4370 N   0  0  0  0  0  0  0  0  0  0  0  0
   58.4770   30.8310   44.2540 C   0  0  0  0  0  0  0  0  0  0  0  0
   57.0690   30.9510   43.6370 C   0  0  0  0  0  0  0  0  0  0  0  0
   56.0850   30.4540   44.5200 O   0  0  0  0  0  0  0  0  0  0  0  0
   56.2720   29.0620   44.7090 C   0  0  0  0  0  0  0  0  0  0  0  0
   57.7170   28.7140   45.1280 C   0  0  0  0  0  0  0  0  0  0  0  0
   59.2590   32.0240   48.0510 C   0  0  0  0  0  0  0  0  0  0  0  0
   60.0160   32.6420   49.1760 C   0  0  0  0  0  0  0  0  0  0  0  0
   59.6270   32.2990   50.4890 C   0  0  0  0  0  0  0  0  0  0  0  0
   60.2820   32.8310   51.5980 C   0  0  0  0  0  0  0  0  0  0  0  0
   61.3310   33.7250   51.4230 C   0  0  0  0  0  0  0  0  0  0  0  0
   61.7280   34.0930   50.1390 C   0  0  0  0  0  0  0  0  0  0  0  0
   61.0960   33.5640   48.9960 C   0  0  0  0  0  0  0  0  0  0  0  0
   61.6110   34.0980   47.6630 C   0  0  0  0  0  0  0  0  0  0  0  0
   61.2320   33.3150   46.4050 C   0  0  0  0  0  0  0  0  0  0  0  0
   59.7710   33.4950   46.1070 C   0  0  0  0  0  0  0  0  0  0  0  0
   59.3510   34.3260   45.0560 C   0  0  0  0  0  0  0  0  0  0  0  0
   57.9890   34.5420   44.8320 C   0  0  0  0  0  0  0  0  0  0  0  0
   57.0400   33.9460   45.6650 C   0  0  0  0  0  0  0  0  0  0  0  0
   57.4510   33.1280   46.7200 C   0  0  0  0  0  0  0  0  0  0  0  0
   58.8170   32.8850   46.9350 C   0  0  0  0  0  0  0  0  0  0  0  0
   58.0981   30.3463   48.5525 H   0  0  0  0  0  0  0  0  0  0  0  0
   60.9467   29.8486   47.7395 H   0  0  0  0  0  0  0  0  0  0  0  0
   59.5609   28.6674   47.7774 H   0  0  0  0  0  0  0  0  0  0  0  0
   60.5265   30.4224   45.5087 H   0  0  0  0  0  0  0  0  0  0  0  0
   60.1371   28.6604   45.5299 H   0  0  0  0  0  0  0  0  0  0  0  0
   58.8233   31.8305   44.5557 H   0  0  0  0  0  0  0  0  0  0  0  0
   59.1524   30.3985   43.5012 H   0  0  0  0  0  0  0  0  0  0  0  0
   56.8590   32.0094   43.4234 H   0  0  0  0  0  0  0  0  0  0  0  0
   57.0406   30.3578   42.7111 H   0  0  0  0  0  0  0  0  0  0  0  0
   55.5835   28.7164   45.4942 H   0  0  0  0  0  0  0  0  0  0  0  0
   56.0716   28.5632   43.7493 H   0  0  0  0  0  0  0  0  0  0  0  0
   57.6923   28.0702   46.0196 H   0  0  0  0  0  0  0  0  0  0  0  0
   58.2151   28.1879   44.3003 H   0  0  0  0  0  0  0  0  0  0  0  0
   58.7918   31.5992   50.6394 H   0  0  0  0  0  0  0  0  0  0  0  0
   59.9684   32.5430   52.6123 H   0  0  0  0  0  0  0  0  0  0  0  0
   61.8487   34.1428   52.2990 H   0  0  0  0  0  0  0  0  0  0  0  0
   62.5518   34.8113   50.0151 H   0  0  0  0  0  0  0  0  0  0  0  0
   61.2254   35.1214   47.5449 H   0  0  0  0  0  0  0  0  0  0  0  0
   62.7061   34.0180   47.7286 H   0  0  0  0  0  0  0  0  0  0  0  0
   61.8250   33.6830   45.5547 H   0  0  0  0  0  0  0  0  0  0  0  0
   61.4375   32.2470   46.5696 H   0  0  0  0  0  0  0  0  0  0  0  0
   60.0967   34.8085   44.4070 H   0  0  0  0  0  0  0  0  0  0  0  0
   57.6639   35.1822   43.9986 H   0  0  0  0  0  0  0  0  0  0  0  0
   55.9681   34.1208   45.4903 H   0  0  0  0  0  0  0  0  0  0  0  0
   56.7020   32.6727   47.3846 H   0  0  0  0  0  0  0  0  0  0  0  0
  1  2  1  0
  2  3  1  0
  3  4  1  0
  4  5  1  0
  5  6  1  0
  6  7  1  0
  7  8  1  0
  8  9  1  0
  1 10  2  3
 10 11  1  0
 11 12  2  0
 12 13  1  0
 13 14  2  0
 14 15  1  0
 15 16  2  0
 16 17  1  0
 17 18  1  0
 18 19  1  0
 19 20  2  0
 20 21  1  0
 21 22  2  0
 22 23  1  0
 23 24  2  0
  9  4  1  0
 24 10  1  0
 16 11  1  0
 24 19  1  0
  1 25  1  0
  2 26  1  0
  2 27  1  0
  3 28  1  0
  3 29  1  0
  5 30  1  0
  5 31  1  0
  6 32  1  0
  6 33  1  0
  8 34  1  0
  8 35  1  0
  9 36  1  0
  9 37  1  0
 12 38  1  0
 13 39  1  0
 14 40  1  0
 15 41  1  0
 17 42  1  0
 17 43  1  0
 18 44  1  0
 18 45  1  0
 20 46  1  0
 21 47  1  0
 22 48  1  0
 23 49  1  0
M  END
>  <UniqueID>  (68) 
63

>  <SMILES>  (68) 
C(CCN1CCOCC1)=C1c2ccccc2CCc2ccccc21

>  <Energy>  (68) 
79.31542494154976

>  <Genealogy>  (68) 
C(CCN1CCOCC1)=C1c2ccccc2CCc2ccccc21 (3D coordinates assigned)
C(CCN1CCOCC1)=C1c2ccccc2CCc2ccccc21 (nonaromatic ring conformer: 79.31542494154976 kcal/mol)

>  <smiles>  (68) 
C(CCN1CCOCC1)=C1c2ccccc2CCc2ccccc21

>  <score_type>  (68) 
oracle

>  <origin>  (68) 
adg

>  <m_score__min__energy>  (68) 
-7.4000000000000004

>  <m_primary>  (68) 
energy

$$$$
68:0
     RDKit          3D

 42 43  0  0  0  0  0  0  0  0999 V2000
   61.9790   31.7030   47.3910 C   0  0  0  0  0  0  0  0  0  0  0  0
   61.1720   30.4490   47.2950 C   0  0  0  0  0  0  0  0  0  0  0  0
   61.0600   29.7600   46.0810 C   0  0  0  0  0  0  0  0  0  0  0  0
   60.3030   28.6330   46.0180 N   0  0  0  0  0  0  0  0  0  0  0  0
   59.6510   28.1560   47.1120 C   0  0  0  0  0  0  0  0  0  0  0  0
   58.8260   26.9060   47.0060 C   0  0  0  0  0  0  0  0  0  0  0  0
   57.4090   27.1920   47.2350 N   0  0  0  0  0  0  0  0  0  0  0  0
   56.4660   27.0320   45.7760 S   0  0  0  0  0  0  0  0  0  0  0  0
   57.3220   26.4070   44.7090 O   0  0  0  0  0  0  0  0  0  0  0  0
   55.2700   26.1500   46.0010 O   0  0  0  0  0  0  0  0  0  0  0  0
   55.9240   28.5940   45.2410 N   0  0  0  0  0  0  0  0  0  0  0  0
   56.8070   29.1410   44.2090 C   0  0  0  0  0  0  0  0  0  0  0  0
   57.3600   30.4610   44.6640 C   0  0  0  0  0  0  0  0  0  0  0  0
   57.4430   31.5430   43.7790 C   0  0  0  0  0  0  0  0  0  0  0  0
   57.9670   32.7670   44.2050 C   0  0  0  0  0  0  0  0  0  0  0  0
   58.4340   32.9330   45.5270 C   0  0  0  0  0  0  0  0  0  0  0  0
   59.0080   34.1930   45.9630 N   0  0  0  0  0  0  0  0  0  0  0  0
   59.2780   35.2650   44.9950 C   0  0  0  0  0  0  0  0  0  0  0  0
   59.3090   34.4250   47.3800 C   0  0  0  0  0  0  0  0  0  0  0  0
   58.3470   31.8340   46.4060 C   0  0  0  0  0  0  0  0  0  0  0  0
   57.8220   30.6130   45.9780 C   0  0  0  0  0  0  0  0  0  0  0  0
   59.7680   28.8420   48.3280 C   0  0  0  0  0  0  0  0  0  0  0  0
   60.5170   29.9750   48.3870 N   0  0  0  0  0  0  0  0  0  0  0  0
   62.1410   31.9547   48.4495 H   0  0  0  0  0  0  0  0  0  0  0  0
   62.9503   31.5527   46.8971 H   0  0  0  0  0  0  0  0  0  0  0  0
   61.4398   32.5248   46.8971 H   0  0  0  0  0  0  0  0  0  0  0  0
   61.5809   30.1283   45.1849 H   0  0  0  0  0  0  0  0  0  0  0  0
   58.9487   26.4782   46.0000 H   0  0  0  0  0  0  0  0  0  0  0  0
   59.1681   26.1942   47.7717 H   0  0  0  0  0  0  0  0  0  0  0  0
   57.6354   28.4404   44.0276 H   0  0  0  0  0  0  0  0  0  0  0  0
   56.2359   29.2859   43.2801 H   0  0  0  0  0  0  0  0  0  0  0  0
   57.0937   31.4291   42.7422 H   0  0  0  0  0  0  0  0  0  0  0  0
   58.0161   33.6112   43.5015 H   0  0  0  0  0  0  0  0  0  0  0  0
   59.5122   36.1950   45.5337 H   0  0  0  0  0  0  0  0  0  0  0  0
   60.1329   34.9819   44.3633 H   0  0  0  0  0  0  0  0  0  0  0  0
   58.3910   35.4206   44.3633 H   0  0  0  0  0  0  0  0  0  0  0  0
   58.5908   33.8715   48.0028 H   0  0  0  0  0  0  0  0  0  0  0  0
   60.3292   34.0774   47.5998 H   0  0  0  0  0  0  0  0  0  0  0  0
   59.2326   35.5001   47.5998 H   0  0  0  0  0  0  0  0  0  0  0  0
   58.6976   31.9400   47.4432 H   0  0  0  0  0  0  0  0  0  0  0  0
   57.7708   29.7651   46.6768 H   0  0  0  0  0  0  0  0  0  0  0  0
   59.2580   28.4669   49.2276 H   0  0  0  0  0  0  0  0  0  0  0  0
  1  2  1  0
  2  3  2  0
  3  4  1  0
  4  5  2  0
  5  6  1  0
  6  7  1  0
  7  8  1  0
  8  9  2  0
  8 10  2  0
  8 11  1  0
 11 12  1  0
 12 13  1  0
 13 14  2  0
 14 15  1  0
 15 16  2  0
 16 17  1  0
 17 18  1  0
 17 19  1  0
 16 20  1  0
 20 21  2  0
  5 22  1  0
 22 23  2  0
 23  2  1  0
 21 13  1  0
  1 24  1  0
  1 25  1  0
  1 26  1  0
  3 27  1  0
  6 28  1  0
  6 29  1  0
 12 30  1  0
 12 31  1  0
 14 32  1  0
 15 33  1  0
 18 34  1  0
 18 35  1  0
 18 36  1  0
 19 37  1  0
 19 38  1  0
 19 39  1  0
 20 40  1  0
 21 41  1  0
 22 42  1  0
M  CHG  2   7  -1  11  -1
M  END
>  <UniqueID>  (69) 
64

>  <SMILES>  (69) 
Cc1cnc(C[N-]S(=O)(=O)[N-]Cc2ccc(N(C)C)cc2)cn1

>  <Energy>  (69) 
34.89194429772206

>  <Genealogy>  (69) 
Cc1cnc(C[N-]S(=O)(=O)[N-]Cc2ccc(N(C)C)cc2)cn1 (protonated)
Cc1cnc(C[N-]S(=O)(=O)[N-]Cc2ccc(N(C)C)cc2)cn1 (3D coordinates assigned)
Cc1cnc(C[N-]S(=O)(=O)[N-]Cc2ccc(N(C)C)cc2)cn1 (optimized conformer: 34.89194429772206 kcal/mol)

>  <smiles>  (69) 
Cc1cnc(CNS(=O)(=O)NCc2ccc(N(C)C)cc2)cn1

>  <score_type>  (69) 
oracle

>  <origin>  (69) 
adg

>  <m_score__min__energy>  (69) 
-10.66

>  <m_primary>  (69) 
energy

$$$$
69:0
     RDKit          3D

 26 27  0  0  0  0  0  0  0  0999 V2000
   54.4010   25.0800   45.6220 C   0  0  0  0  0  0  0  0  0  0  0  0
   55.0190   26.3430   45.9960 N   0  0  0  0  0  0  0  0  0  0  0  0
   56.4140   26.6760   45.9370 C   0  0  0  0  0  0  0  0  0  0  0  0
   57.2470   25.7640   46.1850 O   0  0  0  0  0  0  0  0  0  0  0  0
   56.9290   28.0220   45.5860 C   0  0  0  0  0  0  0  0  0  0  0  0
   58.2310   28.4580   45.8370 C   0  0  0  0  0  0  0  0  0  0  0  0
   58.4700   29.7830   45.4530 C   0  0  0  0  0  0  0  0  0  0  0  0
   57.3600   30.3970   44.8980 C   0  0  0  0  0  0  0  0  0  0  0  0
   57.3290   31.7320   44.4750 O   0  0  0  0  0  0  0  0  0  0  0  0
   57.9350   32.8000   45.1480 C   0  0  0  0  0  0  0  0  0  0  0  0
   58.6370   33.8110   44.4630 C   0  0  0  0  0  0  0  0  0  0  0  0
   59.2400   34.8530   45.1750 C   0  0  0  0  0  0  0  0  0  0  0  0
   59.1590   34.8890   46.5690 C   0  0  0  0  0  0  0  0  0  0  0  0
   58.4820   33.8780   47.2560 C   0  0  0  0  0  0  0  0  0  0  0  0
   57.8790   32.8330   46.5480 C   0  0  0  0  0  0  0  0  0  0  0  0
   56.0750   29.3080   44.9040 S   0  0  0  0  0  0  0  0  0  0  0  0
   54.1281   24.5223   46.5300 H   0  0  0  0  0  0  0  0  0  0  0  0
   53.4971   25.2762   45.0266 H   0  0  0  0  0  0  0  0  0  0  0  0
   55.1106   24.4867   45.0266 H   0  0  0  0  0  0  0  0  0  0  0  0
   58.9998   27.8184   46.2951 H   0  0  0  0  0  0  0  0  0  0  0  0
   59.4406   30.2850   45.5793 H   0  0  0  0  0  0  0  0  0  0  0  0
   58.7111   33.7810   43.3659 H   0  0  0  0  0  0  0  0  0  0  0  0
   59.7792   35.6459   44.6360 H   0  0  0  0  0  0  0  0  0  0  0  0
   59.6282   35.7133   47.1260 H   0  0  0  0  0  0  0  0  0  0  0  0
   58.4232   33.9038   48.3541 H   0  0  0  0  0  0  0  0  0  0  0  0
   57.3578   32.0324   47.0933 H   0  0  0  0  0  0  0  0  0  0  0  0
  1  2  1  0
  2  3  1  0
  3  4  2  0
  3  5  1  0
  5  6  2  0
  6  7  1  0
  7  8  2  0
  8  9  1  0
  9 10  1  0
 10 11  2  0
 11 12  1  0
 12 13  2  0
 13 14  1  0
 14 15  2  0
  8 16  1  0
 16  5  1  0
 15 10  1  0
  1 17  1  0
  1 18  1  0
  1 19  1  0
  6 20  1  0
  7 21  1  0
 11 22  1  0
 12 23  1  0
 13 24  1  0
 14 25  1  0
 15 26  1  0
M  CHG  1   2  -1
M  END
>  <UniqueID>  (70) 
65

>  <SMILES>  (70) 
C[N-]C(=O)c1ccc(Oc2ccccc2)s1

>  <Energy>  (70) 
59.397959087280775

>  <Genealogy>  (70) 
C[N-]C(=O)c1ccc(Oc2ccccc2)s1 (protonated)
C[N-]C(=O)c1ccc(Oc2ccccc2)s1 (3D coordinates assigned)
C[N-]C(=O)c1ccc(Oc2ccccc2)s1 (optimized conformer: 59.397959087280775 kcal/mol)

>  <smiles>  (70) 
CNC(=O)c1ccc(Oc2ccccc2)s1

>  <score_type>  (70) 
oracle

>  <origin>  (70) 
adg

>  <m_score__min__energy>  (70) 
-8.5099999999999998

>  <m_primary>  (70) 
energy

$$$$
70:0
     RDKit          3D

 41 43  0  0  0  0  0  0  0  0999 V2000
   50.8760   33.1420   52.0000 O   0  0  0  0  0  0  0  0  0  0  0  0
   51.3610   32.2870   51.2130 C   0  0  0  0  0  0  0  0  0  0  0  0
   51.0040   32.3300   49.8700 O   0  0  0  0  0  0  0  0  0  0  0  0
   52.2980   31.2550   51.7070 C   0  0  0  0  0  0  0  0  0  0  0  0
   51.8440   29.9530   51.9720 C   0  0  0  0  0  0  0  0  0  0  0  0
   52.7310   28.9760   52.4310 C   0  0  0  0  0  0  0  0  0  0  0  0
   54.0780   29.2870   52.6330 C   0  0  0  0  0  0  0  0  0  0  0  0
   54.5460   30.5780   52.3690 C   0  0  0  0  0  0  0  0  0  0  0  0
   56.2580   30.9500   52.5680 S   0  0  0  0  0  0  0  0  0  0  0  0
   56.6540   30.6720   53.9890 O   0  0  0  0  0  0  0  0  0  0  0  0
   56.5210   32.3990   52.2610 O   0  0  0  0  0  0  0  0  0  0  0  0
   57.2130   29.9660   51.5060 N   0  0  0  0  0  0  0  0  0  0  0  0
   58.5100   30.3100   50.9990 C   0  0  0  0  0  0  0  0  0  0  0  0
   59.4960   29.3190   50.9520 C   0  0  0  0  0  0  0  0  0  0  0  0
   60.7670   29.6100   50.4550 C   0  0  0  0  0  0  0  0  0  0  0  0
   61.0620   30.8940   49.9910 C   0  0  0  0  0  0  0  0  0  0  0  0
   60.0850   31.9050   50.0270 C   0  0  0  0  0  0  0  0  0  0  0  0
   60.3830   33.2620   49.5110 C   0  0  0  0  0  0  0  0  0  0  0  0
   61.5690   33.6910   49.5130 O   0  0  0  0  0  0  0  0  0  0  0  0
   59.3290   34.0580   48.9520 N   0  0  0  0  0  0  0  0  0  0  0  0
   58.8700   34.0440   47.5930 C   0  0  0  0  0  0  0  0  0  0  0  0
   57.9580   33.0810   47.1210 C   0  0  0  0  0  0  0  0  0  0  0  0
   57.5770   33.0730   45.7760 C   0  0  0  0  0  0  0  0  0  0  0  0
   58.1000   34.0230   44.8960 C   0  0  0  0  0  0  0  0  0  0  0  0
   59.0200   34.9700   45.3530 C   0  0  0  0  0  0  0  0  0  0  0  0
   59.5430   35.8780   44.4940 F   0  0  0  0  0  0  0  0  0  0  0  0
   59.4090   34.9760   46.6950 C   0  0  0  0  0  0  0  0  0  0  0  0
   58.8150   31.6070   50.5480 C   0  0  0  0  0  0  0  0  0  0  0  0
   53.6560   31.5610   51.9120 C   0  0  0  0  0  0  0  0  0  0  0  0
   50.7845   29.7009   51.8174 H   0  0  0  0  0  0  0  0  0  0  0  0
   52.3674   27.9579   52.6341 H   0  0  0  0  0  0  0  0  0  0  0  0
   54.7710   28.5156   53.0000 H   0  0  0  0  0  0  0  0  0  0  0  0
   59.2680   28.3039   51.3091 H   0  0  0  0  0  0  0  0  0  0  0  0
   61.5385   28.8263   50.4286 H   0  0  0  0  0  0  0  0  0  0  0  0
   62.0641   31.1157   49.5952 H   0  0  0  0  0  0  0  0  0  0  0  0
   57.5439   32.3326   47.8126 H   0  0  0  0  0  0  0  0  0  0  0  0
   56.8651   32.3182   45.4107 H   0  0  0  0  0  0  0  0  0  0  0  0
   57.7871   34.0257   43.8414 H   0  0  0  0  0  0  0  0  0  0  0  0
   60.1420   35.7159   47.0488 H   0  0  0  0  0  0  0  0  0  0  0  0
   58.0509   32.3963   50.6039 H   0  0  0  0  0  0  0  0  0  0  0  0
   54.0224   32.5788   51.7124 H   0  0  0  0  0  0  0  0  0  0  0  0
  1  2  2  0
  2  3  1  0
  2  4  1  0
  4  5  2  0
  5  6  1  0
  6  7  2  0
  7  8  1  0
  8  9  1  0
  9 10  2  0
  9 11  2  0
  9 12  1  0
 12 13  1  0
 13 14  2  0
 14 15  1  0
 15 16  2  0
 16 17  1  0
 17 18  1  0
 18 19  2  0
 18 20  1  0
 20 21  1  0
 21 22  2  0
 22 23  1  0
 23 24  2  0
 24 25  1  0
 25 26  1  0
 25 27  2  0
 17 28  2  0
  8 29  2  0
 29  4  1  0
 28 13  1  0
 27 21  1  0
  5 30  1  0
  6 31  1  0
  7 32  1  0
 14 33  1  0
 15 34  1  0
 16 35  1  0
 22 36  1  0
 23 37  1  0
 24 38  1  0
 27 39  1  0
 28 40  1  0
 29 41  1  0
M  CHG  3   3  -1  12  -1  20  -1
M  END
>  <UniqueID>  (71) 
66

>  <SMILES>  (71) 
O=C([O-])c1cccc(S(=O)(=O)[N-]c2cccc(C(=O)[N-]c3cccc(F)c3)c2)c1

>  <Energy>  (71) 
50.42987524718028

>  <Genealogy>  (71) 
O=C([O-])c1cccc(S(=O)(=O)[N-]c2cccc(C(=O)[N-]c3cccc(F)c3)c2)c1 (protonated)
O=C([O-])c1cccc(S(=O)(=O)[N-]c2cccc(C(=O)[N-]c3cccc(F)c3)c2)c1 (3D coordinates assigned)
O=C([O-])c1cccc(S(=O)(=O)[N-]c2cccc(C(=O)[N-]c3cccc(F)c3)c2)c1 (optimized conformer: 50.42987524718028 kcal/mol)

>  <smiles>  (71) 
O=C(O)c1cccc(S(=O)(=O)Nc2cccc(C(=O)Nc3cccc(F)c3)c2)c1

>  <score_type>  (71) 
oracle

>  <origin>  (71) 
adg

>  <m_score__min__energy>  (71) 
-14.42

>  <m_primary>  (71) 
energy

$$$$
71:0
     RDKit          3D

 26 27  0  0  0  0  0  0  0  0999 V2000
   58.5010   29.0040   49.6190 H   0  0  0  0  0  0  0  0  0  0  0  0
   58.8210   29.4440   50.5100 N   0  0  0  0  0  0  0  0  0  0  0  0
   58.0450   30.2150   51.2000 C   0  0  0  0  0  0  0  0  0  0  0  0
   56.8520   29.7430   51.6500 N   0  0  0  0  0  0  0  0  0  0  0  0
   56.0080   30.5200   52.3850 C   0  0  0  0  0  0  0  0  0  0  0  0
   54.7450   29.9810   52.8310 N   0  0  0  0  0  0  0  0  0  0  0  0
   53.5080   30.6920   52.6210 C   0  0  0  0  0  0  0  0  0  0  0  0
   53.2200   31.2570   51.3670 C   0  0  0  0  0  0  0  0  0  0  0  0
   53.9399   31.1541   50.5416 H   0  0  0  0  0  0  0  0  0  0  0  0
   52.0230   31.9490   51.1640 C   0  0  0  0  0  0  0  0  0  0  0  0
   51.8024   32.3869   50.1793 H   0  0  0  0  0  0  0  0  0  0  0  0
   51.1050   32.0860   52.2100 C   0  0  0  0  0  0  0  0  0  0  0  0
   49.9160   32.7730   52.0060 O   0  0  0  0  0  0  0  0  0  0  0  0
   51.3870   31.5300   53.4620 C   0  0  0  0  0  0  0  0  0  0  0  0
   50.6662   31.6384   54.2859 H   0  0  0  0  0  0  0  0  0  0  0  0
   52.5830   30.8370   53.6680 C   0  0  0  0  0  0  0  0  0  0  0  0
   52.8010   30.4030   54.6550 H   0  0  0  0  0  0  0  0  0  0  0  0
   54.7210   28.6850   53.5160 C   0  0  0  0  0  0  0  0  0  0  0  0
   54.7240   28.8453   54.6042 H   0  0  0  0  0  0  0  0  0  0  0  0
   53.8125   28.1353   53.2289 H   0  0  0  0  0  0  0  0  0  0  0  0
   55.6085   28.1020   53.2289 H   0  0  0  0  0  0  0  0  0  0  0  0
   56.3790   31.8450   52.6630 C   0  0  0  0  0  0  0  0  0  0  0  0
   55.7130   32.5032   53.2401 H   0  0  0  0  0  0  0  0  0  0  0  0
   57.6060   32.3120   52.1950 C   0  0  0  0  0  0  0  0  0  0  0  0
   57.9191   33.3445   52.4090 H   0  0  0  0  0  0  0  0  0  0  0  0
   58.4150   31.4930   51.4750 N   0  0  0  0  0  0  0  0  0  0  0  0
  1  2  1  0
  2  3  2  0
  3  4  1  0
  4  5  2  0
  5  6  1  0
  6  7  1  0
  7  8  2  0
  8  9  1  0
  8 10  1  0
 10 11  1  0
 10 12  2  0
 12 13  1  0
 12 14  1  0
 14 15  1  0
 14 16  2  0
 16 17  1  0
  6 18  1  0
 18 19  1  0
 18 20  1  0
 18 21  1  0
  5 22  1  0
 22 23  1  0
 22 24  2  0
 24 25  1  0
 24 26  1  0
 26  3  1  0
 16  7  1  0
M  CHG  2  13  -1  26  -1
M  END
>  <UniqueID>  (72) 
67

>  <SMILES>  (72) 
[H]/N=c1/nc(N(C)c2ccc([O-])cc2)cc[n-]1

>  <Energy>  (72) 
34.44787719775531

>  <Genealogy>  (72) 
CN(c1ccc([O-])cc1)c1cc[n-]c(=N)n1 (protonated)
[H]/N=c1/nc(N(C)c2ccc([O-])cc2)cc[n-]1 (cis-trans isomerization)
[H]/N=c1/nc(N(C)c2ccc([O-])cc2)cc[n-]1 (3D coordinates assigned)
[H]/N=c1/nc(N(C)c2ccc([O-])cc2)cc[n-]1 (optimized conformer: 34.44787719775531 kcal/mol)

>  <smiles>  (72) 
CN(c1ccc(O)cc1)c1cc[nH]c(=N)n1

>  <score_type>  (72) 
oracle

>  <origin>  (72) 
adg

>  <m_score__min__energy>  (72) 
-10.34

>  <m_primary>  (72) 
energy

$$$$
72:0
     RDKit          3D

 43 45  0  0  0  0  0  0  0  0999 V2000
   61.2441   28.2216   45.7800 H   0  0  0  0  0  0  0  0  0  0  0  0
   60.1700   28.3910   45.9460 C   0  0  0  0  0  0  0  0  0  0  0  0
   58.9550   28.2430   44.7910 S   0  0  0  0  0  0  0  0  0  0  0  0
   57.7410   28.6720   45.8680 C   0  0  0  0  0  0  0  0  0  0  0  0
   56.4850   28.7490   45.5410 N   0  0  0  0  0  0  0  0  0  0  0  0
   55.9220   29.5840   44.5150 C   0  0  0  0  0  0  0  0  0  0  0  0
   54.7750   29.3390   44.0490 O   0  0  0  0  0  0  0  0  0  0  0  0
   56.6920   30.7430   44.0030 C   0  0  0  0  0  0  0  0  0  0  0  0
   57.0080   30.8440   42.6360 C   0  0  0  0  0  0  0  0  0  0  0  0
   56.6789   30.0587   41.9397 H   0  0  0  0  0  0  0  0  0  0  0  0
   57.7370   31.9350   42.1570 C   0  0  0  0  0  0  0  0  0  0  0  0
   57.9868   32.0010   41.0878 H   0  0  0  0  0  0  0  0  0  0  0  0
   58.1490   32.9410   43.0310 C   0  0  0  0  0  0  0  0  0  0  0  0
   58.7283   33.7939   42.6477 H   0  0  0  0  0  0  0  0  0  0  0  0
   57.8310   32.8730   44.3900 C   0  0  0  0  0  0  0  0  0  0  0  0
   58.2730   33.8990   45.2380 O   0  0  0  0  0  0  0  0  0  0  0  0
   58.7370   33.7260   46.5510 C   0  0  0  0  0  0  0  0  0  0  0  0
   59.4970   34.7440   47.1340 C   0  0  0  0  0  0  0  0  0  0  0  0
   59.7210   35.6561   46.5614 H   0  0  0  0  0  0  0  0  0  0  0  0
   59.9730   34.6090   48.4390 C   0  0  0  0  0  0  0  0  0  0  0  0
   60.5795   35.4101   48.8867 H   0  0  0  0  0  0  0  0  0  0  0  0
   59.6820   33.4600   49.1790 C   0  0  0  0  0  0  0  0  0  0  0  0
   60.0704   33.3561   50.2029 H   0  0  0  0  0  0  0  0  0  0  0  0
   58.8950   32.4350   48.6220 C   0  0  0  0  0  0  0  0  0  0  0  0
   58.5630   31.2400   49.3530 N   0  0  0  0  0  0  0  0  0  0  0  0
   58.4350   30.3470   48.8250 H   0  0  0  0  0  0  0  0  0  0  0  0
   58.2830   31.1760   51.0650 S   0  0  0  0  0  0  0  0  0  0  0  0
   57.7130   32.4930   51.5120 O   0  0  0  0  0  0  0  0  0  0  0  0
   57.2950   30.0900   51.3860 O   0  0  0  0  0  0  0  0  0  0  0  0
   59.8160   30.9010   51.9280 C   0  0  0  0  0  0  0  0  0  0  0  0
   59.6369   30.9331   53.0129 H   0  0  0  0  0  0  0  0  0  0  0  0
   60.2205   29.9160   51.6521 H   0  0  0  0  0  0  0  0  0  0  0  0
   60.5376   31.6840   51.6521 H   0  0  0  0  0  0  0  0  0  0  0  0
   58.4220   32.5820   47.3070 C   0  0  0  0  0  0  0  0  0  0  0  0
   57.7976   31.7927   46.8631 H   0  0  0  0  0  0  0  0  0  0  0  0
   57.1180   31.7610   44.8770 C   0  0  0  0  0  0  0  0  0  0  0  0
   56.8916   31.6869   45.9509 H   0  0  0  0  0  0  0  0  0  0  0  0
   58.2260   28.9320   47.1030 N   0  0  0  0  0  0  0  0  0  0  0  0
   59.5760   28.7660   47.1500 C   0  0  0  0  0  0  0  0  0  0  0  0
   60.3600   29.0330   48.3920 C   0  0  0  0  0  0  0  0  0  0  0  0
   59.7358   28.8204   49.2724 H   0  0  0  0  0  0  0  0  0  0  0  0
   61.2505   28.3875   48.4094 H   0  0  0  0  0  0  0  0  0  0  0  0
   60.6714   30.0879   48.4094 H   0  0  0  0  0  0  0  0  0  0  0  0
  1  2  1  0
  2  3  1  0
  3  4  1  0
  4  5  2  0
  5  6  1  0
  6  7  2  0
  6  8  1  0
  8  9  2  0
  9 10  1  0
  9 11  1  0
 11 12  1  0
 11 13  2  0
 13 14  1  0
 13 15  1  0
 15 16  1  0
 16 17  1  0
 17 18  2  0
 18 19  1  0
 18 20  1  0
 20 21  1  0
 20 22  2  0
 22 23  1  0
 22 24  1  0
 24 25  1  0
 25 26  1  0
 25 27  1  0
 27 28  2  0
 27 29  2  0
 27 30  1  0
 30 31  1  0
 30 32  1  0
 30 33  1  0
 24 34  2  0
 34 35  1  0
 15 36  2  0
 36 37  1  0
  4 38  1  0
 38 39  1  0
 39 40  1  0
 40 41  1  0
 40 42  1  0
 40 43  1  0
 39  2  2  0
 36  8  1  0
 34 17  1  0
M  CHG  1  38  -1
M  END
>  <UniqueID>  (73) 
68

>  <SMILES>  (73) 
Cc1cs/c(=N/C(=O)c2cccc(Oc3cccc(NS(C)(=O)=O)c3)c2)[n-]1

>  <Energy>  (73) 
81.39435849369283

>  <Genealogy>  (73) 
Cc1csc(=NC(=O)c2cccc(Oc3cccc(NS(C)(=O)=O)c3)c2)[n-]1 (protonated)
Cc1cs/c(=N/C(=O)c2cccc(Oc3cccc(NS(C)(=O)=O)c3)c2)[n-]1 (cis-trans isomerization)
Cc1cs/c(=N/C(=O)c2cccc(Oc3cccc(NS(C)(=O)=O)c3)c2)[n-]1 (3D coordinates assigned)
Cc1cs/c(=N/C(=O)c2cccc(Oc3cccc(NS(C)(=O)=O)c3)c2)[n-]1 (optimized conformer: 81.39435849369283 kcal/mol)

>  <smiles>  (73) 
Cc1csc(=NC(=O)c2cccc(Oc3cccc(NS(C)(=O)=O)c3)c2)[nH]1

>  <score_type>  (73) 
oracle

>  <origin>  (73) 
adg

>  <m_score__min__energy>  (73) 
-10.26

>  <m_primary>  (73) 
energy

$$$$
73:0
     RDKit          3D

 64 68  0  0  0  0  0  0  0  0999 V2000
   59.0110   29.1120   49.9870 O   0  0  0  0  0  0  0  0  0  0  0  0
   58.3860   30.1140   50.4270 C   0  0  0  0  0  0  0  0  0  0  0  0
   58.7530   31.4790   49.9040 C   0  0  0  0  0  0  0  0  0  0  0  0
   59.3690   31.4470   48.5110 C   0  0  0  0  0  0  0  0  0  0  0  0
   60.0740   30.4320   48.0890 N   0  0  0  0  0  0  0  0  0  0  0  0
   59.9110   29.7710   46.8310 C   0  0  0  0  0  0  0  0  0  0  0  0
   60.7570   29.9870   45.9240 O   0  0  0  0  0  0  0  0  0  0  0  0
   58.7310   28.8890   46.5770 C   0  0  0  0  0  0  0  0  0  0  0  0
   57.6870   29.2910   45.7140 C   0  0  0  0  0  0  0  0  0  0  0  0
   57.6610   30.5590   45.1480 O   0  0  0  0  0  0  0  0  0  0  0  0
   56.6480   28.4100   45.4080 C   0  0  0  0  0  0  0  0  0  0  0  0
   56.6450   27.1240   45.9490 C   0  0  0  0  0  0  0  0  0  0  0  0
   55.5840   26.2090   45.6240 N   0  0  0  0  0  0  0  0  0  0  0  0
   55.6260   24.7970   45.8960 C   0  0  0  0  0  0  0  0  0  0  0  0
   54.7220   23.8960   45.2690 C   0  0  0  0  0  0  0  0  0  0  0  0
   54.7730   22.5160   45.5460 C   0  0  0  0  0  0  0  0  0  0  0  0
   55.7190   22.0750   46.4640 C   0  0  0  0  0  0  0  0  0  0  0  0
   55.9460   20.8150   46.8650 N   0  0  0  0  0  0  0  0  0  0  0  0
   56.9600   20.9820   47.7520 C   0  0  0  0  0  0  0  0  0  0  0  0
   57.4810   20.0170   48.3680 O   0  0  0  0  0  0  0  0  0  0  0  0
   57.3750   22.2630   47.9260 N   0  0  0  0  0  0  0  0  0  0  0  0
   56.5680   22.9340   47.0920 C   0  0  0  0  0  0  0  0  0  0  0  0
   56.5510   24.3040   46.8430 C   0  0  0  0  0  0  0  0  0  0  0  0
   57.6320   26.7610   46.8090 N   0  0  0  0  0  0  0  0  0  0  0  0
   58.6580   27.5890   47.1360 C   0  0  0  0  0  0  0  0  0  0  0  0
   59.5440   27.1700   47.9260 O   0  0  0  0  0  0  0  0  0  0  0  0
   59.1810   32.6000   47.5880 C   0  0  0  0  0  0  0  0  0  0  0  0
   60.2420   33.4780   47.2840 C   0  0  0  0  0  0  0  0  0  0  0  0
   60.0580   34.5300   46.3820 C   0  0  0  0  0  0  0  0  0  0  0  0
   58.8110   34.7330   45.7880 C   0  0  0  0  0  0  0  0  0  0  0  0
   57.7440   33.8890   46.1000 C   0  0  0  0  0  0  0  0  0  0  0  0
   57.9240   32.8280   46.9930 C   0  0  0  0  0  0  0  0  0  0  0  0
   57.3740   29.9070   51.4250 N   0  0  0  0  0  0  0  0  0  0  0  0
   56.1890   30.7310   51.6720 C   0  0  1  0  0  0  0  0  0  0  0  0
   55.0050   29.8530   52.1120 C   0  0  0  0  0  0  0  0  0  0  0  0
   53.7090   30.6150   52.0690 C   0  0  0  0  0  0  0  0  0  0  0  0
   53.2700   31.2050   50.8720 C   0  0  0  0  0  0  0  0  0  0  0  0
   52.1020   31.9720   50.8510 C   0  0  0  0  0  0  0  0  0  0  0  0
   51.3670   32.1610   52.0250 C   0  0  0  0  0  0  0  0  0  0  0  0
   50.2110   32.9320   52.0040 O   0  0  0  0  0  0  0  0  0  0  0  0
   51.7980   31.5790   53.2210 C   0  0  0  0  0  0  0  0  0  0  0  0
   52.9630   30.8070   53.2450 C   0  0  0  0  0  0  0  0  0  0  0  0
   56.5070   31.7260   52.7490 C   0  0  0  0  0  0  0  0  0  0  0  0
   56.6630   32.9410   52.4580 O   0  0  0  0  0  0  0  0  0  0  0  0
   56.5970   31.3250   54.0760 O   0  0  0  0  0  0  0  0  0  0  0  0
   57.8426   32.0954   49.8687 H   0  0  0  0  0  0  0  0  0  0  0  0
   59.5103   31.8951   50.5848 H   0  0  0  0  0  0  0  0  0  0  0  0
   55.8332   28.7293   44.7415 H   0  0  0  0  0  0  0  0  0  0  0  0
   54.7060   26.6020   45.2170 H   0  0  0  0  0  0  0  0  0  0  0  0
   53.9746   24.2811   44.5598 H   0  0  0  0  0  0  0  0  0  0  0  0
   54.0875   21.8112   45.0527 H   0  0  0  0  0  0  0  0  0  0  0  0
   57.2384   24.9830   47.3688 H   0  0  0  0  0  0  0  0  0  0  0  0
   61.2228   33.3338   47.7608 H   0  0  0  0  0  0  0  0  0  0  0  0
   60.8970   35.1989   46.1399 H   0  0  0  0  0  0  0  0  0  0  0  0
   58.6694   35.5579   45.0742 H   0  0  0  0  0  0  0  0  0  0  0  0
   56.7584   34.0590   45.6420 H   0  0  0  0  0  0  0  0  0  0  0  0
   57.0784   32.1666   47.2327 H   0  0  0  0  0  0  0  0  0  0  0  0
   55.9098   31.2531   50.7449 H   0  0  0  0  0  0  0  0  0  0  0  0
   54.9328   28.9863   51.4385 H   0  0  0  0  0  0  0  0  0  0  0  0
   55.1813   29.5293   53.1484 H   0  0  0  0  0  0  0  0  0  0  0  0
   53.8482   31.0626   49.9471 H   0  0  0  0  0  0  0  0  0  0  0  0
   51.7606   32.4275   49.9097 H   0  0  0  0  0  0  0  0  0  0  0  0
   51.2194   31.7289   54.1444 H   0  0  0  0  0  0  0  0  0  0  0  0
   53.2972   30.3482   54.1872 H   0  0  0  0  0  0  0  0  0  0  0  0
  1  2  2  0
  2  3  1  0
  3  4  1  0
  4  5  2  3
  5  6  1  0
  6  7  2  0
  6  8  1  0
  8  9  2  0
  9 10  1  0
  9 11  1  0
 11 12  2  0
 12 13  1  0
 13 14  1  0
 14 15  2  0
 15 16  1  0
 16 17  2  0
 17 18  1  0
 18 19  1  0
 19 20  2  0
 19 21  1  0
 21 22  1  0
 22 23  2  0
 12 24  1  0
 24 25  1  0
 25 26  2  0
  4 27  1  0
 27 28  2  0
 28 29  1  0
 29 30  2  0
 30 31  1  0
 31 32  2  0
  2 33  1  0
 33 34  1  0
 34 35  1  0
 35 36  1  0
 36 37  2  0
 37 38  1  0
 38 39  2  0
 39 40  1  0
 39 41  1  0
 41 42  2  0
 34 43  1  0
 43 44  2  0
 43 45  1  0
 25  8  1  0
 32 27  1  0
 42 36  1  0
 23 14  1  0
 22 17  1  0
  3 46  1  0
  3 47  1  0
 11 48  1  0
 13 49  1  0
 15 50  1  0
 16 51  1  0
 23 52  1  0
 28 53  1  0
 29 54  1  0
 30 55  1  0
 31 56  1  0
 32 57  1  0
 34 58  1  6
 35 59  1  0
 35 60  1  0
 37 61  1  0
 38 62  1  0
 41 63  1  0
 42 64  1  0
M  CHG  7  10  -1  18  -1  21  -1  24  -1  33  -1  40  -1  45  -1
M  END
>  <UniqueID>  (74) 
69

>  <SMILES>  (74) 
O=C(CC(=NC(=O)c1c([O-])cc(Nc2ccc3[n-]c(=O)[n-]c3c2)[n-]c1=O)c1ccccc1)[N-][C@@H](Cc1ccc([O-])cc1)C(=O)[O-]

>  <Energy>  (74) 
120.01786802669503

>  <Genealogy>  (74) 
O=C(CC(=NC(=O)c1c([O-])cc(Nc2ccc3[n-]c(=O)[n-]c3c2)[n-]c1=O)c1ccccc1)[N-]C(Cc1ccc([O-])cc1)C(=O)[O-] (protonated)
O=C(CC(=NC(=O)c1c([O-])cc(Nc2ccc3[n-]c(=O)[n-]c3c2)[n-]c1=O)c1ccccc1)[N-][C@@H](Cc1ccc([O-])cc1)C(=O)[O-] (chirality)
O=C(CC(=NC(=O)c1c([O-])cc(Nc2ccc3[n-]c(=O)[n-]c3c2)[n-]c1=O)c1ccccc1)[N-][C@@H](Cc1ccc([O-])cc1)C(=O)[O-] (3D coordinates assigned)
O=C(CC(=NC(=O)c1c([O-])cc(Nc2ccc3[n-]c(=O)[n-]c3c2)[n-]c1=O)c1ccccc1)[N-][C@@H](Cc1ccc([O-])cc1)C(=O)[O-] (optimized conformer: 120.01786802669503 kcal/mol)

>  <smiles>  (74) 
O=C(CC(=NC(=O)c1c(O)cc(Nc2ccc3[nH]c(=O)[nH]c3c2)[nH]c1=O)c1ccccc1)NC(Cc1ccc(O)cc1)C(=O)O

>  <score_type>  (74) 
oracle

>  <origin>  (74) 
adg

>  <m_score__min__energy>  (74) 
-22.140000000000001

>  <m_primary>  (74) 
energy

$$$$
74:0
     RDKit          3D

 48 51  0  0  0  0  0  0  0  0999 V2000
   55.1920   29.0580   44.8630 N   0  0  0  0  0  0  0  0  0  0  0  0
   56.5510   29.2610   45.2480 C   0  0  0  0  0  0  0  0  0  0  0  0
   57.0190   30.4310   45.2480 O   0  0  0  0  0  0  0  0  0  0  0  0
   57.3900   28.1100   45.6680 C   0  0  0  0  0  0  0  0  0  0  0  0
   56.8470   26.8130   45.6140 C   0  0  0  0  0  0  0  0  0  0  0  0
   57.5780   25.7130   46.0680 C   0  0  0  0  0  0  0  0  0  0  0  0
   58.8600   25.8910   46.5850 C   0  0  0  0  0  0  0  0  0  0  0  0
   59.4220   27.1670   46.6340 C   0  0  0  0  0  0  0  0  0  0  0  0
   58.7120   28.2770   46.1580 C   0  0  0  0  0  0  0  0  0  0  0  0
   59.3580   29.5590   46.1770 N   0  0  0  0  0  0  0  0  0  0  0  0
   60.2580   29.9860   47.2170 C   0  0  0  0  0  0  0  0  0  0  0  0
   60.1460   29.5080   48.5360 C   0  0  0  0  0  0  0  0  0  0  0  0
   61.0280   29.9540   49.5220 C   0  0  0  0  0  0  0  0  0  0  0  0
   62.0090   30.8990   49.2140 C   0  0  0  0  0  0  0  0  0  0  0  0
   62.1130   31.4160   47.9180 C   0  0  0  0  0  0  0  0  0  0  0  0
   63.0750   32.4130   47.6790 O   0  0  0  0  0  0  0  0  0  0  0  0
   62.8390   33.8240   47.7020 C   0  0  0  0  0  0  0  0  0  0  0  0
   61.8830   34.2180   48.8360 C   0  0  0  0  0  0  0  0  0  0  0  0
   60.4590   33.8440   48.5450 C   0  0  0  0  0  0  0  0  0  0  0  0
   59.6010   33.1420   49.3870 C   0  0  0  0  0  0  0  0  0  0  0  0
   58.4320   32.8800   48.7590 N   0  0  0  0  0  0  0  0  0  0  0  0
   58.5460   33.4050   47.5270 C   0  0  0  0  0  0  0  0  0  0  0  0
   57.6140   33.3410   46.4930 C   0  0  0  0  0  0  0  0  0  0  0  0
   57.9610   33.9170   45.2580 C   0  0  0  0  0  0  0  0  0  0  0  0
   59.2190   34.5340   45.0850 C   0  0  0  0  0  0  0  0  0  0  0  0
   60.1430   34.5820   46.1460 C   0  0  0  0  0  0  0  0  0  0  0  0
   59.7680   34.0060   47.3600 C   0  0  0  0  0  0  0  0  0  0  0  0
   61.2530   30.9290   46.9150 C   0  0  0  0  0  0  0  0  0  0  0  0
   54.4080   29.3560   45.4840 H   0  0  0  0  0  0  0  0  0  0  0  0
   55.8350   26.6637   45.2095 H   0  0  0  0  0  0  0  0  0  0  0  0
   57.1413   24.7047   46.0175 H   0  0  0  0  0  0  0  0  0  0  0  0
   59.4289   25.0251   46.9545 H   0  0  0  0  0  0  0  0  0  0  0  0
   60.4312   27.3027   47.0499 H   0  0  0  0  0  0  0  0  0  0  0  0
   59.0270   30.2690   45.4850 H   0  0  0  0  0  0  0  0  0  0  0  0
   59.3611   28.7807   48.7908 H   0  0  0  0  0  0  0  0  0  0  0  0
   60.9499   29.5594   50.5458 H   0  0  0  0  0  0  0  0  0  0  0  0
   62.7045   31.2391   49.9954 H   0  0  0  0  0  0  0  0  0  0  0  0
   63.7975   34.3440   47.8462 H   0  0  0  0  0  0  0  0  0  0  0  0
   62.3763   34.1113   46.7463 H   0  0  0  0  0  0  0  0  0  0  0  0
   62.2001   33.7080   49.7576 H   0  0  0  0  0  0  0  0  0  0  0  0
   61.9254   35.3119   48.9432 H   0  0  0  0  0  0  0  0  0  0  0  0
   59.8401   32.8425   50.4181 H   0  0  0  0  0  0  0  0  0  0  0  0
   57.6200   32.3480   49.1450 H   0  0  0  0  0  0  0  0  0  0  0  0
   56.6378   32.8553   46.6383 H   0  0  0  0  0  0  0  0  0  0  0  0
   57.2476   33.8866   44.4212 H   0  0  0  0  0  0  0  0  0  0  0  0
   59.4791   34.9805   44.1139 H   0  0  0  0  0  0  0  0  0  0  0  0
   61.1272   35.0575   46.0220 H   0  0  0  0  0  0  0  0  0  0  0  0
   61.3622   31.2919   45.8823 H   0  0  0  0  0  0  0  0  0  0  0  0
  1  2  1  0
  2  3  2  0
  2  4  1  0
  4  5  2  0
  5  6  1  0
  6  7  2  0
  7  8  1  0
  8  9  2  0
  9 10  1  0
 10 11  1  0
 11 12  2  0
 12 13  1  0
 13 14  2  0
 14 15  1  0
 15 16  1  0
 16 17  1  0
 17 18  1  0
 18 19  1  0
 19 20  2  0
 20 21  1  0
 21 22  1  0
 22 23  2  0
 23 24  1  0
 24 25  2  0
 25 26  1  0
 26 27  2  0
 15 28  2  0
  9  4  1  0
 28 11  1  0
 27 19  1  0
 27 22  1  0
  1 29  1  0
  5 30  1  0
  6 31  1  0
  7 32  1  0
  8 33  1  0
 10 34  1  0
 12 35  1  0
 13 36  1  0
 14 37  1  0
 17 38  1  0
 17 39  1  0
 18 40  1  0
 18 41  1  0
 20 42  1  0
 21 43  1  0
 23 44  1  0
 24 45  1  0
 25 46  1  0
 26 47  1  0
 28 48  1  0
M  CHG  1   1  -1
M  END
>  <UniqueID>  (75) 
70

>  <SMILES>  (75) 
[NH-]C(=O)c1ccccc1Nc1cccc(OCCc2c[nH]c3ccccc23)c1

>  <Energy>  (75) 
89.98555179951593

>  <Genealogy>  (75) 
[NH-]C(=O)c1ccccc1Nc1cccc(OCCc2c[nH]c3ccccc23)c1 (protonated)
[NH-]C(=O)c1ccccc1Nc1cccc(OCCc2c[nH]c3ccccc23)c1 (3D coordinates assigned)
[NH-]C(=O)c1ccccc1Nc1cccc(OCCc2c[nH]c3ccccc23)c1 (optimized conformer: 89.98555179951593 kcal/mol)

>  <smiles>  (75) 
NC(=O)c1ccccc1Nc1cccc(OCCc2c[nH]c3ccccc23)c1

>  <score_type>  (75) 
oracle

>  <origin>  (75) 
adg

>  <m_score__min__energy>  (75) 
-12.99

>  <m_primary>  (75) 
energy

$$$$
75:0
     RDKit          3D

 66 70  0  0  0  0  0  0  0  0999 V2000
   62.0480   21.6800   54.6130 C   0  0  0  0  0  0  0  0  0  0  0  0
   61.5730   22.7660   53.7080 C   0  0  0  0  0  0  0  0  0  0  0  0
   60.2480   23.0390   53.3930 C   0  0  0  0  0  0  0  0  0  0  0  0
   60.0930   24.1760   52.5900 C   0  0  0  0  0  0  0  0  0  0  0  0
   61.2960   24.8060   52.2860 C   0  0  0  0  0  0  0  0  0  0  0  0
   61.4430   26.0210   51.4670 C   0  0  0  0  0  0  0  0  0  0  0  0
   62.4570   26.7560   51.6320 O   0  0  0  0  0  0  0  0  0  0  0  0
   60.4710   26.3480   50.4580 N   0  0  0  0  0  0  0  0  0  0  0  0
   60.3850   27.6300   49.8110 C   0  0  0  0  0  0  0  0  0  0  0  0
   59.8640   28.7570   50.4730 C   0  0  0  0  0  0  0  0  0  0  0  0
   59.7830   29.9880   49.8160 C   0  0  0  0  0  0  0  0  0  0  0  0
   60.2100   30.1100   48.4860 C   0  0  0  0  0  0  0  0  0  0  0  0
   60.0960   31.6560   47.6460 S   0  0  0  0  0  0  0  0  0  0  0  0
   60.1210   32.7850   48.6390 O   0  0  0  0  0  0  0  0  0  0  0  0
   61.2770   31.8260   46.7320 O   0  0  0  0  0  0  0  0  0  0  0  0
   58.5950   31.7200   46.7620 N   0  0  0  0  0  0  0  0  0  0  0  0
   57.8750   32.9960   46.6930 C   0  0  0  0  0  0  0  0  0  0  0  0
   57.6010   33.3680   45.2180 C   0  0  0  0  0  0  0  0  0  0  0  0
   56.6490   34.5690   45.1520 C   0  0  0  0  0  0  0  0  0  0  0  0
   58.9160   33.7160   44.4980 C   0  0  0  0  0  0  0  0  0  0  0  0
   56.9840   32.2610   44.5500 O   0  0  0  0  0  0  0  0  0  0  0  0
   57.2800   30.9260   44.8600 C   0  0  0  0  0  0  0  0  0  0  0  0
   56.7460   29.8990   44.0770 C   0  0  0  0  0  0  0  0  0  0  0  0
   57.0060   28.5650   44.4000 C   0  0  0  0  0  0  0  0  0  0  0  0
   57.7810   28.2520   45.5240 C   0  0  0  0  0  0  0  0  0  0  0  0
   58.0300   26.8930   45.8870 N   0  0  0  0  0  0  0  0  0  0  0  0
   56.7590   25.7520   46.1890 S   0  0  0  0  0  0  0  0  0  0  0  0
   56.8560   25.2790   47.6140 O   0  0  0  0  0  0  0  0  0  0  0  0
   55.4290   26.4310   46.0020 O   0  0  0  0  0  0  0  0  0  0  0  0
   56.8640   24.3640   45.1080 C   0  0  0  0  0  0  0  0  0  0  0  0
   55.8600   24.1420   44.1530 C   0  0  0  0  0  0  0  0  0  0  0  0
   55.9510   23.0540   43.2790 C   0  0  0  0  0  0  0  0  0  0  0  0
   57.0420   22.1820   43.3570 C   0  0  0  0  0  0  0  0  0  0  0  0
   58.0460   22.4020   44.3060 C   0  0  0  0  0  0  0  0  0  0  0  0
   57.9600   23.4900   45.1790 C   0  0  0  0  0  0  0  0  0  0  0  0
   58.3410   29.2800   46.2910 C   0  0  0  0  0  0  0  0  0  0  0  0
   58.0970   30.6260   45.9650 C   0  0  0  0  0  0  0  0  0  0  0  0
   60.6970   28.9820   47.8140 C   0  0  0  0  0  0  0  0  0  0  0  0
   60.7790   27.7510   48.4700 C   0  0  0  0  0  0  0  0  0  0  0  0
   62.5490   23.9490   53.0200 S   0  0  0  0  0  0  0  0  0  0  0  0
   61.9126   21.9896   55.6598 H   0  0  0  0  0  0  0  0  0  0  0  0
   61.4680   20.7648   54.4234 H   0  0  0  0  0  0  0  0  0  0  0  0
   63.1138   21.4846   54.4234 H   0  0  0  0  0  0  0  0  0  0  0  0
   59.4047   22.4237   53.7396 H   0  0  0  0  0  0  0  0  0  0  0  0
   59.1162   24.5357   52.2345 H   0  0  0  0  0  0  0  0  0  0  0  0
   59.8510   25.5850   50.1070 H   0  0  0  0  0  0  0  0  0  0  0  0
   59.5185   28.6687   51.5136 H   0  0  0  0  0  0  0  0  0  0  0  0
   59.3823   30.8654   50.3449 H   0  0  0  0  0  0  0  0  0  0  0  0
   56.9190   32.9046   47.2295 H   0  0  0  0  0  0  0  0  0  0  0  0
   58.4884   33.7828   47.1564 H   0  0  0  0  0  0  0  0  0  0  0  0
   56.3937   34.8910   46.1724 H   0  0  0  0  0  0  0  0  0  0  0  0
   57.1391   35.3965   44.6182 H   0  0  0  0  0  0  0  0  0  0  0  0
   55.7315   34.2807   44.6182 H   0  0  0  0  0  0  0  0  0  0  0  0
   59.6983   33.9230   45.2431 H   0  0  0  0  0  0  0  0  0  0  0  0
   59.2246   32.8686   43.8682 H   0  0  0  0  0  0  0  0  0  0  0  0
   58.7650   34.6051   43.8682 H   0  0  0  0  0  0  0  0  0  0  0  0
   56.1203   30.1413   43.2054 H   0  0  0  0  0  0  0  0  0  0  0  0
   56.6013   27.7588   43.7704 H   0  0  0  0  0  0  0  0  0  0  0  0
   54.9999   24.8250   44.0917 H   0  0  0  0  0  0  0  0  0  0  0  0
   55.1640   22.8838   42.5296 H   0  0  0  0  0  0  0  0  0  0  0  0
   57.1104   21.3237   42.6724 H   0  0  0  0  0  0  0  0  0  0  0  0
   58.9049   21.7173   44.3652 H   0  0  0  0  0  0  0  0  0  0  0  0
   58.7522   23.6616   45.9226 H   0  0  0  0  0  0  0  0  0  0  0  0
   58.9762   29.0335   47.1546 H   0  0  0  0  0  0  0  0  0  0  0  0
   61.0165   29.0655   46.7647 H   0  0  0  0  0  0  0  0  0  0  0  0
   61.1556   26.8695   47.9305 H   0  0  0  0  0  0  0  0  0  0  0  0
  1  2  1  0
  2  3  2  0
  3  4  1  0
  4  5  2  0
  5  6  1  0
  6  7  2  0
  6  8  1  0
  8  9  1  0
  9 10  2  0
 10 11  1  0
 11 12  2  0
 12 13  1  0
 13 14  2  0
 13 15  2  0
 13 16  1  0
 16 17  1  0
 17 18  1  0
 18 19  1  0
 18 20  1  0
 18 21  1  0
 21 22  1  0
 22 23  2  0
 23 24  1  0
 24 25  2  0
 25 26  1  0
 26 27  1  0
 27 28  2  0
 27 29  2  0
 27 30  1  0
 30 31  2  0
 31 32  1  0
 32 33  2  0
 33 34  1  0
 34 35  2  0
 25 36  1  0
 36 37  2  0
 12 38  1  0
 38 39  2  0
  5 40  1  0
 40  2  1  0
 39  9  1  0
 37 16  1  0
 37 22  1  0
 35 30  1  0
  1 41  1  0
  1 42  1  0
  1 43  1  0
  3 44  1  0
  4 45  1  0
  8 46  1  0
 10 47  1  0
 11 48  1  0
 17 49  1  0
 17 50  1  0
 19 51  1  0
 19 52  1  0
 19 53  1  0
 20 54  1  0
 20 55  1  0
 20 56  1  0
 23 57  1  0
 24 58  1  0
 31 59  1  0
 32 60  1  0
 33 61  1  0
 34 62  1  0
 35 63  1  0
 36 64  1  0
 38 65  1  0
 39 66  1  0
M  CHG  1  26  -1
M  END
>  <UniqueID>  (76) 
71

>  <SMILES>  (76) 
Cc1ccc(C(=O)Nc2ccc(S(=O)(=O)N3CC(C)(C)Oc4ccc([N-]S(=O)(=O)c5ccccc5)cc43)cc2)s1

>  <Energy>  (76) 
110.04105581650583

>  <Genealogy>  (76) 
Cc1ccc(C(=O)Nc2ccc(S(=O)(=O)N3CC(C)(C)Oc4ccc([N-]S(=O)(=O)c5ccccc5)cc43)cc2)s1 (protonated)
Cc1ccc(C(=O)Nc2ccc(S(=O)(=O)N3CC(C)(C)Oc4ccc([N-]S(=O)(=O)c5ccccc5)cc43)cc2)s1 (3D coordinates assigned)
Cc1ccc(C(=O)Nc2ccc(S(=O)(=O)N3CC(C)(C)Oc4ccc([N-]S(=O)(=O)c5ccccc5)cc43)cc2)s1 (nonaromatic ring conformer: 110.04105581650583 kcal/mol)

>  <smiles>  (76) 
Cc1ccc(C(=O)Nc2ccc(S(=O)(=O)N3CC(C)(C)Oc4ccc(NS(=O)(=O)c5ccccc5)cc43)cc2)s1

>  <score_type>  (76) 
oracle

>  <origin>  (76) 
adg

>  <m_score__min__energy>  (76) 
-11.52

>  <m_primary>  (76) 
energy

$$$$
76:0
     RDKit          3D

 68 72  0  0  0  0  0  0  0  0999 V2000
   57.3820   31.8870   41.9560 C   0  0  0  0  0  0  0  0  0  0  0  0
   56.8030   30.6620   42.6570 C   0  0  0  0  0  0  0  0  0  0  0  0
   57.5050   30.4090   43.9640 C   0  0  0  0  0  0  0  0  0  0  0  0
   57.4030   31.3220   45.0210 C   0  0  0  0  0  0  0  0  0  0  0  0
   58.0880   31.1100   46.1740 N   0  0  0  0  0  0  0  0  0  0  0  0
   58.9000   30.0310   46.3540 C   0  0  0  0  0  0  0  0  0  0  0  0
   59.6010   29.8940   47.6010 N   0  0  0  0  0  0  0  0  0  0  0  0
   58.9160   29.3220   48.7660 C   0  0  0  0  0  0  0  0  0  0  0  0
   58.9050   30.3390   49.9110 C   0  0  0  0  0  0  0  0  0  0  0  0
   60.2310   30.9480   50.1080 N   0  0  0  0  0  0  0  0  0  0  0  0
   60.4140   31.9240   51.1490 C   0  0  0  0  0  0  0  0  0  0  0  0
   61.5700   32.1190   51.8230 N   0  0  0  0  0  0  0  0  0  0  0  0
   61.4730   33.1700   52.6980 C   0  0  0  0  0  0  0  0  0  0  0  0
   62.6700   33.6130   53.4940 C   0  0  0  0  0  0  0  0  0  0  0  0
   63.7000   34.4060   52.6690 C   0  0  0  0  0  0  0  0  0  0  0  0
   63.6970   34.0090   51.2120 C   0  0  0  0  0  0  0  0  0  0  0  0
   64.5990   33.0400   50.7400 C   0  0  0  0  0  0  0  0  0  0  0  0
   64.5870   32.6590   49.3920 C   0  0  0  0  0  0  0  0  0  0  0  0
   63.6740   33.2410   48.5050 C   0  0  0  0  0  0  0  0  0  0  0  0
   63.6530   32.7570   46.8170 Cl  0  0  0  0  0  0  0  0  0  0  0  0
   62.7810   34.2130   48.9660 C   0  0  0  0  0  0  0  0  0  0  0  0
   62.7900   34.5970   50.3120 C   0  0  0  0  0  0  0  0  0  0  0  0
   60.2930   33.8520   52.7250 N   0  0  0  0  0  0  0  0  0  0  0  0
   59.3150   33.0730   51.6320 S   0  0  0  0  0  0  0  0  0  0  0  0
   61.3500   30.5610   49.2340 C   0  0  0  0  0  0  0  0  0  0  0  0
   60.8940   30.5750   47.7690 C   0  0  0  0  0  0  0  0  0  0  0  0
   59.0490   29.0890   45.3110 C   0  0  0  0  0  0  0  0  0  0  0  0
   60.0770   27.9780   45.3600 C   0  0  0  0  0  0  0  0  0  0  0  0
   59.7170   26.9110   46.4050 C   0  0  0  0  0  0  0  0  0  0  0  0
   58.4570   26.1670   46.0370 C   0  0  0  0  0  0  0  0  0  0  0  0
   58.5320   24.9130   45.4060 C   0  0  0  0  0  0  0  0  0  0  0  0
   57.3660   24.2600   44.9940 C   0  0  0  0  0  0  0  0  0  0  0  0
   56.1190   24.8560   45.2020 C   0  0  0  0  0  0  0  0  0  0  0  0
   56.0350   26.1060   45.8210 C   0  0  0  0  0  0  0  0  0  0  0  0
   54.7940   26.7030   46.0140 O   0  0  0  0  0  0  0  0  0  0  0  0
   57.2000   26.7610   46.2370 C   0  0  0  0  0  0  0  0  0  0  0  0
   58.3300   29.2890   44.1210 C   0  0  0  0  0  0  0  0  0  0  0  0
   57.7248   32.6123   42.7086 H   0  0  0  0  0  0  0  0  0  0  0  0
   58.2314   31.5822   41.3270 H   0  0  0  0  0  0  0  0  0  0  0  0
   56.6073   32.3498   41.3270 H   0  0  0  0  0  0  0  0  0  0  0  0
   55.7330   30.8294   42.8495 H   0  0  0  0  0  0  0  0  0  0  0  0
   56.9441   29.7858   42.0070 H   0  0  0  0  0  0  0  0  0  0  0  0
   56.7664   32.2130   44.9169 H   0  0  0  0  0  0  0  0  0  0  0  0
   57.8811   29.0679   48.4930 H   0  0  0  0  0  0  0  0  0  0  0  0
   59.4466   28.4147   49.0906 H   0  0  0  0  0  0  0  0  0  0  0  0
   58.1792   31.1319   49.6772 H   0  0  0  0  0  0  0  0  0  0  0  0
   58.6274   29.8125   50.8361 H   0  0  0  0  0  0  0  0  0  0  0  0
   62.3217   34.2500   54.3203 H   0  0  0  0  0  0  0  0  0  0  0  0
   63.1745   32.7031   53.8511 H   0  0  0  0  0  0  0  0  0  0  0  0
   63.4634   35.4776   52.7439 H   0  0  0  0  0  0  0  0  0  0  0  0
   64.6980   34.1850   53.0754 H   0  0  0  0  0  0  0  0  0  0  0  0
   65.3181   32.5784   51.4327 H   0  0  0  0  0  0  0  0  0  0  0  0
   65.2967   31.9007   49.0298 H   0  0  0  0  0  0  0  0  0  0  0  0
   62.0687   34.6777   48.2683 H   0  0  0  0  0  0  0  0  0  0  0  0
   62.0844   35.3623   50.6676 H   0  0  0  0  0  0  0  0  0  0  0  0
   62.1788   31.2722   49.3653 H   0  0  0  0  0  0  0  0  0  0  0  0
   61.6854   29.5478   49.5004 H   0  0  0  0  0  0  0  0  0  0  0  0
   60.7945   31.6185   47.4354 H   0  0  0  0  0  0  0  0  0  0  0  0
   61.6457   30.0421   47.1682 H   0  0  0  0  0  0  0  0  0  0  0  0
   60.1335   27.5017   44.3701 H   0  0  0  0  0  0  0  0  0  0  0  0
   61.0438   28.4200   45.6428 H   0  0  0  0  0  0  0  0  0  0  0  0
   60.5460   26.1918   46.4793 H   0  0  0  0  0  0  0  0  0  0  0  0
   59.5455   27.4184   47.3658 H   0  0  0  0  0  0  0  0  0  0  0  0
   59.5120   24.4434   45.2356 H   0  0  0  0  0  0  0  0  0  0  0  0
   57.4303   23.2764   44.5058 H   0  0  0  0  0  0  0  0  0  0  0  0
   55.2028   24.3406   44.8781 H   0  0  0  0  0  0  0  0  0  0  0  0
   57.1308   27.7455   46.7228 H   0  0  0  0  0  0  0  0  0  0  0  0
   58.4161   28.5578   43.3038 H   0  0  0  0  0  0  0  0  0  0  0  0
  1  2  1  0
  2  3  1  0
  3  4  2  0
  4  5  1  0
  5  6  2  0
  6  7  1  0
  7  8  1  0
  8  9  1  0
  9 10  1  0
 10 11  1  0
 11 12  2  0
 12 13  1  0
 13 14  1  0
 14 15  1  0
 15 16  1  0
 16 17  2  0
 17 18  1  0
 18 19  2  0
 19 20  1  0
 19 21  1  0
 21 22  2  0
 13 23  2  0
 23 24  1  0
 10 25  1  0
 25 26  1  0
  6 27  1  0
 27 28  1  0
 28 29  1  0
 29 30  1  0
 30 31  2  0
 31 32  1  0
 32 33  2  0
 33 34  1  0
 34 35  1  0
 34 36  2  0
 27 37  2  0
 37  3  1  0
 26  7  1  0
 36 30  1  0
 24 11  1  0
 22 16  1  0
  1 38  1  0
  1 39  1  0
  1 40  1  0
  2 41  1  0
  2 42  1  0
  4 43  1  0
  8 44  1  0
  8 45  1  0
  9 46  1  0
  9 47  1  0
 14 48  1  0
 14 49  1  0
 15 50  1  0
 15 51  1  0
 17 52  1  0
 18 53  1  0
 21 54  1  0
 22 55  1  0
 25 56  1  0
 25 57  1  0
 26 58  1  0
 26 59  1  0
 28 60  1  0
 28 61  1  0
 29 62  1  0
 29 63  1  0
 31 64  1  0
 32 65  1  0
 33 66  1  0
 36 67  1  0
 37 68  1  0
M  CHG  1  35  -1
M  END
>  <UniqueID>  (77) 
72

>  <SMILES>  (77) 
CCc1cnc(N2CCN(c3nc(CCc4ccc(Cl)cc4)ns3)CC2)c(CCc2cccc([O-])c2)c1

>  <Energy>  (77) 
105.87266805709467

>  <Genealogy>  (77) 
CCc1cnc(N2CCN(c3nc(CCc4ccc(Cl)cc4)ns3)CC2)c(CCc2cccc([O-])c2)c1 (protonated)
CCc1cnc(N2CCN(c3nc(CCc4ccc(Cl)cc4)ns3)CC2)c(CCc2cccc([O-])c2)c1 (3D coordinates assigned)
CCc1cnc(N2CCN(c3nc(CCc4ccc(Cl)cc4)ns3)CC2)c(CCc2cccc([O-])c2)c1 (nonaromatic ring conformer: 105.87266805709467 kcal/mol)

>  <smiles>  (77) 
CCc1cnc(N2CCN(c3nc(CCc4ccc(Cl)cc4)ns3)CC2)c(CCc2cccc(O)c2)c1

>  <score_type>  (77) 
oracle

>  <origin>  (77) 
adg

>  <m_score__min__energy>  (77) 
-14.01

>  <m_primary>  (77) 
energy

$$$$
77:0
     RDKit          3D

 56 59  0  0  0  0  0  0  0  0999 V2000
   57.2170   22.7550   47.6110 O   0  0  0  0  0  0  0  0  0  0  0  0
   57.0270   23.8000   46.9370 C   0  0  0  0  0  0  0  0  0  0  0  0
   57.0550   25.0690   47.6050 N   0  0  0  0  0  0  0  0  0  0  0  0
   57.4290   26.3160   47.0050 C   0  0  0  0  0  0  0  0  0  0  0  0
   58.6570   26.8940   47.3460 C   0  0  0  0  0  0  0  0  0  0  0  0
   59.0450   28.1140   46.7820 C   0  0  0  0  0  0  0  0  0  0  0  0
   58.2120   28.7680   45.8600 C   0  0  0  0  0  0  0  0  0  0  0  0
   58.6190   30.0990   45.2550 C   0  0  0  0  0  0  0  0  0  0  0  0
   57.8920   31.2750   45.8070 N   0  0  2  0  0  0  0  0  0  0  0  0
   57.6510   32.3190   44.7750 C   0  0  0  0  0  0  0  0  0  0  0  0
   58.1600   33.7010   45.2210 C   0  0  0  0  0  0  0  0  0  0  0  0
   59.6820   33.8550   45.1500 C   0  0  0  0  0  0  0  0  0  0  0  0
   60.3160   33.5370   46.4520 N   0  0  0  0  0  0  0  0  0  0  0  0
   61.7680   33.8290   46.4140 C   0  0  0  0  0  0  0  0  0  0  0  0
   62.3610   33.7210   47.7940 C   0  0  0  0  0  0  0  0  0  0  0  0
   61.6560   34.1840   48.9180 C   0  0  0  0  0  0  0  0  0  0  0  0
   62.2230   34.0880   50.1920 C   0  0  0  0  0  0  0  0  0  0  0  0
   63.4940   33.5310   50.3540 C   0  0  0  0  0  0  0  0  0  0  0  0
   64.2020   33.0700   49.2400 C   0  0  0  0  0  0  0  0  0  0  0  0
   65.4350   32.5290   49.3980 F   0  0  0  0  0  0  0  0  0  0  0  0
   63.6380   33.1650   47.9640 C   0  0  0  0  0  0  0  0  0  0  0  0
   60.0720   32.1200   46.8210 C   0  0  0  0  0  0  0  0  0  0  0  0
   58.5730   31.8100   47.0120 C   0  0  0  0  0  0  0  0  0  0  0  0
   57.0070   28.1540   45.4740 C   0  0  0  0  0  0  0  0  0  0  0  0
   56.6170   26.9390   46.0440 C   0  0  0  0  0  0  0  0  0  0  0  0
   56.7130   23.6890   45.4990 C   0  0  0  0  0  0  0  0  0  0  0  0
   55.5320   23.1930   44.9610 C   0  0  0  0  0  0  0  0  0  0  0  0
   55.4830   23.2710   43.5620 C   0  0  0  0  0  0  0  0  0  0  0  0
   56.6110   23.8470   42.9950 C   0  0  0  0  0  0  0  0  0  0  0  0
   57.6700   24.2550   44.2340 S   0  0  0  0  0  0  0  0  0  0  0  0
   59.3207   26.3863   48.0613 H   0  0  0  0  0  0  0  0  0  0  0  0
   60.0088   28.5638   47.0626 H   0  0  0  0  0  0  0  0  0  0  0  0
   59.6944   30.2440   45.4352 H   0  0  0  0  0  0  0  0  0  0  0  0
   58.3657   30.0477   44.1858 H   0  0  0  0  0  0  0  0  0  0  0  0
   56.9700   30.8880   46.1240 H   0  0  0  0  0  0  0  0  0  0  0  0
   58.1719   32.0306   43.8501 H   0  0  0  0  0  0  0  0  0  0  0  0
   56.5653   32.3931   44.6147 H   0  0  0  0  0  0  0  0  0  0  0  0
   57.7042   34.4637   44.5725 H   0  0  0  0  0  0  0  0  0  0  0  0
   57.8763   33.8199   46.2771 H   0  0  0  0  0  0  0  0  0  0  0  0
   60.0761   33.1720   44.3831 H   0  0  0  0  0  0  0  0  0  0  0  0
   59.9142   34.8998   44.8963 H   0  0  0  0  0  0  0  0  0  0  0  0
   62.2654   33.1083   45.7483 H   0  0  0  0  0  0  0  0  0  0  0  0
   61.9166   34.8530   46.0407 H   0  0  0  0  0  0  0  0  0  0  0  0
   60.6550   34.6232   48.7949 H   0  0  0  0  0  0  0  0  0  0  0  0
   61.6673   34.4518   51.0689 H   0  0  0  0  0  0  0  0  0  0  0  0
   63.9376   33.4552   51.3577 H   0  0  0  0  0  0  0  0  0  0  0  0
   64.1980   32.8022   47.0895 H   0  0  0  0  0  0  0  0  0  0  0  0
   60.4670   31.4744   46.0228 H   0  0  0  0  0  0  0  0  0  0  0  0
   60.5774   31.9321   47.7798 H   0  0  0  0  0  0  0  0  0  0  0  0
   58.4766   31.0677   47.8180 H   0  0  0  0  0  0  0  0  0  0  0  0
   58.0849   32.7678   47.2452 H   0  0  0  0  0  0  0  0  0  0  0  0
   56.3672   28.6333   44.7184 H   0  0  0  0  0  0  0  0  0  0  0  0
   55.6704   26.4692   45.7386 H   0  0  0  0  0  0  0  0  0  0  0  0
   54.7161   22.7799   45.5722 H   0  0  0  0  0  0  0  0  0  0  0  0
   54.6300   22.9093   42.9691 H   0  0  0  0  0  0  0  0  0  0  0  0
   56.7822   24.0085   41.9205 H   0  0  0  0  0  0  0  0  0  0  0  0
  1  2  2  0
  2  3  1  0
  3  4  1  0
  4  5  2  0
  5  6  1  0
  6  7  2  0
  7  8  1  0
  8  9  1  0
  9 10  1  0
 10 11  1  0
 11 12  1  0
 12 13  1  0
 13 14  1  0
 14 15  1  0
 15 16  2  0
 16 17  1  0
 17 18  2  0
 18 19  1  0
 19 20  1  0
 19 21  2  0
 13 22  1  0
 22 23  1  0
  7 24  1  0
 24 25  2  0
  2 26  1  0
 26 27  2  0
 27 28  1  0
 28 29  2  0
 29 30  1  0
 25  4  1  0
 30 26  1  0
 23  9  1  0
 21 15  1  0
  5 31  1  0
  6 32  1  0
  8 33  1  0
  8 34  1  0
  9 35  1  1
 10 36  1  0
 10 37  1  0
 11 38  1  0
 11 39  1  0
 12 40  1  0
 12 41  1  0
 14 42  1  0
 14 43  1  0
 16 44  1  0
 17 45  1  0
 18 46  1  0
 21 47  1  0
 22 48  1  0
 22 49  1  0
 23 50  1  0
 23 51  1  0
 24 52  1  0
 25 53  1  0
 27 54  1  0
 28 55  1  0
 29 56  1  0
M  CHG  2   3  -1   9   1
M  END
>  <UniqueID>  (78) 
73

>  <SMILES>  (78) 
O=C([N-]c1ccc(C[N@@H+]2CCCN(Cc3cccc(F)c3)CC2)cc1)c1cccs1

>  <Energy>  (78) 
104.54838042666815

>  <Genealogy>  (78) 
O=C([N-]c1ccc(C[NH+]2CCCN(Cc3cccc(F)c3)CC2)cc1)c1cccs1 (protonated)
O=C([N-]c1ccc(C[N@@H+]2CCCN(Cc3cccc(F)c3)CC2)cc1)c1cccs1 (chirality)
O=C([N-]c1ccc(C[N@@H+]2CCCN(Cc3cccc(F)c3)CC2)cc1)c1cccs1 (3D coordinates assigned)
O=C([N-]c1ccc(C[N@@H+]2CCCN(Cc3cccc(F)c3)CC2)cc1)c1cccs1 (nonaromatic ring conformer: 104.54838042666815 kcal/mol)

>  <smiles>  (78) 
O=C(Nc1ccc(CN2CCCN(Cc3cccc(F)c3)CC2)cc1)c1cccs1

>  <score_type>  (78) 
oracle

>  <origin>  (78) 
adg

>  <m_score__min__energy>  (78) 
-7.5

>  <m_primary>  (78) 
energy

$$$$
78:0
     RDKit          3D

 45 48  0  0  0  0  0  0  0  0999 V2000
   54.4220   29.3430   45.5310 H   0  0  0  0  0  0  0  0  0  0  0  0
   55.1340   29.2830   44.7690 N   0  0  0  0  0  0  0  0  0  0  0  0
   56.3690   29.9910   44.8630 C   0  0  0  0  0  0  0  0  0  0  0  0
   56.4950   31.0910   44.2640 O   0  0  0  0  0  0  0  0  0  0  0  0
   57.4610   29.4410   45.6860 C   0  0  0  0  0  0  0  0  0  0  0  0
   58.3710   30.2700   46.2660 N   0  0  0  0  0  0  0  0  0  0  0  0
   59.3120   29.5900   46.9580 C   0  0  0  0  0  0  0  0  0  0  0  0
   60.3150   30.1440   47.5730 N   0  0  0  0  0  0  0  0  0  0  0  0
   60.4350   31.5290   47.9410 C   0  0  0  0  0  0  0  0  0  0  0  0
   61.0030   31.9310   49.1650 C   0  0  0  0  0  0  0  0  0  0  0  0
   61.3564   31.1741   49.8807 H   0  0  0  0  0  0  0  0  0  0  0  0
   61.1190   33.2900   49.4730 C   0  0  0  0  0  0  0  0  0  0  0  0
   61.5454   33.5990   50.4387 H   0  0  0  0  0  0  0  0  0  0  0  0
   60.6950   34.2560   48.5580 C   0  0  0  0  0  0  0  0  0  0  0  0
   60.7721   35.3233   48.8127 H   0  0  0  0  0  0  0  0  0  0  0  0
   60.1710   33.8700   47.3150 C   0  0  0  0  0  0  0  0  0  0  0  0
   59.6930   34.9060   46.3420 C   0  0  0  0  0  0  0  0  0  0  0  0
   59.2942   35.7704   46.8932 H   0  0  0  0  0  0  0  0  0  0  0  0
   60.5326   35.2301   45.7095 H   0  0  0  0  0  0  0  0  0  0  0  0
   58.9016   34.4775   45.7095 H   0  0  0  0  0  0  0  0  0  0  0  0
   60.0400   32.5040   47.0160 C   0  0  0  0  0  0  0  0  0  0  0  0
   59.6230   32.1966   46.0456 H   0  0  0  0  0  0  0  0  0  0  0  0
   59.0840   27.9300   46.8760 S   0  0  0  0  0  0  0  0  0  0  0  0
   57.7050   28.0780   45.9130 C   0  0  0  0  0  0  0  0  0  0  0  0
   56.8520   26.9870   45.5270 N   0  0  0  0  0  0  0  0  0  0  0  0
   56.0640   27.1810   44.8700 H   0  0  0  0  0  0  0  0  0  0  0  0
   56.9980   25.6510   46.0330 C   0  0  0  0  0  0  0  0  0  0  0  0
   58.0190   25.3270   46.6970 O   0  0  0  0  0  0  0  0  0  0  0  0
   55.9750   24.6330   45.7600 C   0  0  0  0  0  0  0  0  0  0  0  0
   56.2410   23.3430   45.4700 N   0  0  0  0  0  0  0  0  0  0  0  0
   55.0700   22.7520   45.2910 N   0  0  0  0  0  0  0  0  0  0  0  0
   54.1400   23.7100   45.4770 C   0  0  0  0  0  0  0  0  0  0  0  0
   52.8550   23.5250   45.4090 N   0  0  0  0  0  0  0  0  0  0  0  0
   51.9610   24.0630   44.4200 C   0  0  0  0  0  0  0  0  0  0  0  0
   52.1760   23.7350   43.0730 C   0  0  0  0  0  0  0  0  0  0  0  0
   53.0279   23.0971   42.7949 H   0  0  0  0  0  0  0  0  0  0  0  0
   51.3140   24.2140   42.0820 C   0  0  0  0  0  0  0  0  0  0  0  0
   51.4982   23.9654   41.0264 H   0  0  0  0  0  0  0  0  0  0  0  0
   50.2190   25.0080   42.4310 C   0  0  0  0  0  0  0  0  0  0  0  0
   49.5469   25.3917   41.6493 H   0  0  0  0  0  0  0  0  0  0  0  0
   49.9770   25.3150   43.7720 C   0  0  0  0  0  0  0  0  0  0  0  0
   49.1085   25.9317   44.0465 H   0  0  0  0  0  0  0  0  0  0  0  0
   50.8380   24.8390   44.7660 C   0  0  0  0  0  0  0  0  0  0  0  0
   50.6372   25.0717   45.8222 H   0  0  0  0  0  0  0  0  0  0  0  0
   54.6840   24.8650   45.7690 O   0  0  0  0  0  0  0  0  0  0  0  0
  1  2  1  0
  2  3  1  0
  3  4  2  0
  3  5  1  0
  5  6  1  0
  6  7  1  0
  7  8  2  3
  8  9  1  0
  9 10  2  0
 10 11  1  0
 10 12  1  0
 12 13  1  0
 12 14  2  0
 14 15  1  0
 14 16  1  0
 16 17  1  0
 17 18  1  0
 17 19  1  0
 17 20  1  0
 16 21  2  0
 21 22  1  0
  7 23  1  0
 23 24  1  0
 24 25  1  0
 25 26  1  0
 25 27  1  0
 27 28  2  0
 27 29  1  0
 29 30  2  0
 30 31  1  0
 31 32  1  0
 32 33  2  0
 33 34  1  0
 34 35  2  0
 35 36  1  0
 35 37  1  0
 37 38  1  0
 37 39  2  0
 39 40  1  0
 39 41  1  0
 41 42  1  0
 41 43  2  0
 43 44  1  0
 32 45  1  0
 24  5  2  0
 45 29  1  0
 21  9  1  0
 43 34  1  0
M  CHG  3   2  -1   6  -1  31  -1
M  END
>  <UniqueID>  (79) 
74

>  <SMILES>  (79) 
Cc1cccc(N=c2[n-]c(C([NH-])=O)c(NC(=O)c3n[n-]/c(=N\c4ccccc4)o3)s2)c1

>  <Energy>  (79) 
127.8568652617436

>  <Genealogy>  (79) 
Cc1cccc(N=c2[n-]c(C([NH-])=O)c(NC(=O)c3n[n-]c(=Nc4ccccc4)o3)s2)c1 (protonated)
Cc1cccc(N=c2[n-]c(C([NH-])=O)c(NC(=O)c3n[n-]/c(=N\c4ccccc4)o3)s2)c1 (cis-trans isomerization)
Cc1cccc(N=c2[n-]c(C([NH-])=O)c(NC(=O)c3n[n-]/c(=N\c4ccccc4)o3)s2)c1 (3D coordinates assigned)
Cc1cccc(N=c2[n-]c(C([NH-])=O)c(NC(=O)c3n[n-]/c(=N\c4ccccc4)o3)s2)c1 (optimized conformer: 127.8568652617436 kcal/mol)

>  <smiles>  (79) 
Cc1cccc(N=c2[nH]c(C(N)=O)c(NC(=O)c3n[nH]c(=Nc4ccccc4)o3)s2)c1

>  <score_type>  (79) 
oracle

>  <origin>  (79) 
adg

>  <m_score__min__energy>  (79) 
-14.58

>  <m_primary>  (79) 
energy

$$$$
79:0
     RDKit          3D

 51 54  0  0  0  0  0  0  0  0999 V2000
   57.6070   22.8870   44.1090 C   0  0  0  0  0  0  0  0  0  0  0  0
   58.5920   22.7880   45.5880 S   0  0  0  0  0  0  0  0  0  0  0  0
   59.7790   21.8920   45.3710 O   0  0  0  0  0  0  0  0  0  0  0  0
   57.7490   22.2120   46.6910 O   0  0  0  0  0  0  0  0  0  0  0  0
   59.1210   24.3700   46.0620 N   0  0  0  0  0  0  0  0  0  0  0  0
   58.4140   25.5960   45.8300 C   0  0  0  0  0  0  0  0  0  0  0  0
   59.0870   26.6450   45.1920 C   0  0  0  0  0  0  0  0  0  0  0  0
   58.4410   27.8590   44.9450 C   0  0  0  0  0  0  0  0  0  0  0  0
   57.1070   28.0500   45.3460 C   0  0  0  0  0  0  0  0  0  0  0  0
   56.4140   29.3350   45.0930 C   0  0  0  0  0  0  0  0  0  0  0  0
   55.1770   29.3330   44.8560 O   0  0  0  0  0  0  0  0  0  0  0  0
   57.1150   30.5860   45.0640 N   0  0  0  0  0  0  0  0  0  0  0  0
   58.0950   31.0340   46.0170 C   0  0  0  0  0  0  0  0  0  0  0  0
   58.5320   30.1800   47.0400 C   0  0  0  0  0  0  0  0  0  0  0  0
   59.4770   30.6090   47.9680 C   0  0  0  0  0  0  0  0  0  0  0  0
   59.9930   31.9110   47.9200 C   0  0  0  0  0  0  0  0  0  0  0  0
   61.0120   32.3020   48.8580 N   0  0  0  0  0  0  0  0  0  0  0  0
   62.4170   32.1480   48.5930 C   0  0  0  0  0  0  0  0  0  0  0  0
   62.7960   31.4810   47.5910 O   0  0  0  0  0  0  0  0  0  0  0  0
   63.4220   32.7450   49.4990 C   0  0  0  0  0  0  0  0  0  0  0  0
   64.7890   32.4440   49.3670 C   0  0  0  0  0  0  0  0  0  0  0  0
   65.7100   33.0290   50.2370 C   0  0  0  0  0  0  0  0  0  0  0  0
   65.2690   33.9080   51.2280 C   0  0  0  0  0  0  0  0  0  0  0  0
   63.9070   34.1880   51.3340 C   0  0  0  0  0  0  0  0  0  0  0  0
   63.0240   33.6070   50.4770 N   0  0  0  0  0  0  0  0  0  0  0  0
   59.5440   32.8000   46.9140 C   0  0  0  0  0  0  0  0  0  0  0  0
   60.0060   34.1320   46.8520 C   0  0  0  0  0  0  0  0  0  0  0  0
   59.5530   34.9950   45.8540 C   0  0  0  0  0  0  0  0  0  0  0  0
   58.6290   34.5540   44.9100 C   0  0  0  0  0  0  0  0  0  0  0  0
   58.1450   33.2460   44.9590 C   0  0  0  0  0  0  0  0  0  0  0  0
   58.5850   32.3560   45.9600 C   0  0  0  0  0  0  0  0  0  0  0  0
   56.4270   26.9910   45.9680 C   0  0  0  0  0  0  0  0  0  0  0  0
   57.0730   25.7760   46.2130 C   0  0  0  0  0  0  0  0  0  0  0  0
   56.5465   22.9936   44.3812 H   0  0  0  0  0  0  0  0  0  0  0  0
   57.9226   23.7579   43.5159 H   0  0  0  0  0  0  0  0  0  0  0  0
   57.7430   21.9707   43.5159 H   0  0  0  0  0  0  0  0  0  0  0  0
   60.1341   26.5121   44.8823 H   0  0  0  0  0  0  0  0  0  0  0  0
   58.9795   28.6705   44.4336 H   0  0  0  0  0  0  0  0  0  0  0  0
   58.1240   29.1609   47.1099 H   0  0  0  0  0  0  0  0  0  0  0  0
   59.8233   29.9166   48.7494 H   0  0  0  0  0  0  0  0  0  0  0  0
   60.7120   32.7110   49.7710 H   0  0  0  0  0  0  0  0  0  0  0  0
   65.1303   31.7519   48.5831 H   0  0  0  0  0  0  0  0  0  0  0  0
   66.7813   32.7980   50.1422 H   0  0  0  0  0  0  0  0  0  0  0  0
   65.9879   34.3745   51.9176 H   0  0  0  0  0  0  0  0  0  0  0  0
   63.5464   34.8786   52.1105 H   0  0  0  0  0  0  0  0  0  0  0  0
   60.7299   34.4930   47.5974 H   0  0  0  0  0  0  0  0  0  0  0  0
   59.9273   36.0285   45.8125 H   0  0  0  0  0  0  0  0  0  0  0  0
   58.2796   35.2388   44.1233 H   0  0  0  0  0  0  0  0  0  0  0  0
   57.4141   32.9065   44.2103 H   0  0  0  0  0  0  0  0  0  0  0  0
   55.3757   27.1186   46.2654 H   0  0  0  0  0  0  0  0  0  0  0  0
   56.5301   24.9571   46.7076 H   0  0  0  0  0  0  0  0  0  0  0  0
  1  2  1  0
  2  3  2  0
  2  4  2  0
  2  5  1  0
  5  6  1  0
  6  7  2  0
  7  8  1  0
  8  9  2  0
  9 10  1  0
 10 11  2  0
 10 12  1  0
 12 13  1  0
 13 14  2  0
 14 15  1  0
 15 16  2  0
 16 17  1  0
 17 18  1  0
 18 19  2  0
 18 20  1  0
 20 21  2  0
 21 22  1  0
 22 23  2  0
 23 24  1  0
 24 25  2  0
 16 26  1  0
 26 27  2  0
 27 28  1  0
 28 29  2  0
 29 30  1  0
 30 31  2  0
  9 32  1  0
 32 33  2  0
 33  6  1  0
 31 13  1  0
 25 20  1  0
 31 26  1  0
  1 34  1  0
  1 35  1  0
  1 36  1  0
  7 37  1  0
  8 38  1  0
 14 39  1  0
 15 40  1  0
 17 41  1  0
 21 42  1  0
 22 43  1  0
 23 44  1  0
 24 45  1  0
 27 46  1  0
 28 47  1  0
 29 48  1  0
 30 49  1  0
 32 50  1  0
 33 51  1  0
M  CHG  2   5  -1  12  -1
M  END
>  <UniqueID>  (80) 
75

>  <SMILES>  (80) 
CS(=O)(=O)[N-]c1ccc(C(=O)[N-]c2ccc(NC(=O)c3ccccn3)c3ccccc23)cc1

>  <Energy>  (80) 
73.02832800654812

>  <Genealogy>  (80) 
CS(=O)(=O)[N-]c1ccc(C(=O)[N-]c2ccc(NC(=O)c3ccccn3)c3ccccc23)cc1 (protonated)
CS(=O)(=O)[N-]c1ccc(C(=O)[N-]c2ccc(NC(=O)c3ccccn3)c3ccccc23)cc1 (3D coordinates assigned)
CS(=O)(=O)[N-]c1ccc(C(=O)[N-]c2ccc(NC(=O)c3ccccn3)c3ccccc23)cc1 (optimized conformer: 73.02832800654812 kcal/mol)

>  <smiles>  (80) 
CS(=O)(=O)Nc1ccc(C(=O)Nc2ccc(NC(=O)c3ccccn3)c3ccccc23)cc1

>  <score_type>  (80) 
oracle

>  <origin>  (80) 
adg

>  <m_score__min__energy>  (80) 
-12.76

>  <m_primary>  (80) 
energy

$$$$
80:0
     RDKit          3D

 47 49  0  0  0  0  0  0  0  0999 V2000
   54.9230   26.3000   45.9940 N   0  0  0  0  0  0  0  0  0  0  0  0
   56.5150   25.6300   46.0160 S   0  0  0  0  0  0  0  0  0  0  0  0
   56.6960   24.8100   47.2630 O   0  0  0  0  0  0  0  0  0  0  0  0
   56.7030   24.7380   44.8210 O   0  0  0  0  0  0  0  0  0  0  0  0
   57.6980   26.9320   45.9740 C   0  0  0  0  0  0  0  0  0  0  0  0
   58.5420   27.0750   44.8670 C   0  0  0  0  0  0  0  0  0  0  0  0
   59.4760   28.1130   44.8240 C   0  0  0  0  0  0  0  0  0  0  0  0
   59.5560   29.0390   45.8710 C   0  0  0  0  0  0  0  0  0  0  0  0
   60.5060   30.1050   45.7660 N   0  0  0  0  0  0  0  0  0  0  0  0
   61.0040   30.8970   46.8510 C   0  0  0  0  0  0  0  0  0  0  0  0
   61.4660   30.3490   47.8870 O   0  0  0  0  0  0  0  0  0  0  0  0
   60.9440   32.3980   46.7770 C   0  0  0  0  0  0  0  0  0  0  0  0
   59.6190   32.9610   47.1070 N   0  0  0  0  0  0  0  0  0  0  0  0
   59.6320   33.8600   48.2770 C   0  0  0  0  0  0  0  0  0  0  0  0
   59.1970   33.1260   49.5080 C   0  0  0  0  0  0  0  0  0  0  0  0
   58.4760   31.9380   49.5360 C   0  0  0  0  0  0  0  0  0  0  0  0
   58.2690   31.4520   50.8320 C   0  0  0  0  0  0  0  0  0  0  0  0
   58.8380   32.2420   51.8220 C   0  0  0  0  0  0  0  0  0  0  0  0
   59.6010   33.5460   51.0840 S   0  0  0  0  0  0  0  0  0  0  0  0
   58.7940   33.6540   45.7200 S   0  0  0  0  0  0  0  0  0  0  0  0
   57.7570   34.6320   46.1990 O   0  0  0  0  0  0  0  0  0  0  0  0
   59.7880   34.4140   44.8880 O   0  0  0  0  0  0  0  0  0  0  0  0
   58.0150   32.4450   44.6870 C   0  0  0  0  0  0  0  0  0  0  0  0
   58.0390   32.5780   43.2890 C   0  0  0  0  0  0  0  0  0  0  0  0
   57.4160   31.6230   42.4780 C   0  0  0  0  0  0  0  0  0  0  0  0
   56.7870   30.5180   43.0560 C   0  0  0  0  0  0  0  0  0  0  0  0
   56.7870   30.3620   44.4440 C   0  0  0  0  0  0  0  0  0  0  0  0
   57.4050   31.3170   45.2570 C   0  0  0  0  0  0  0  0  0  0  0  0
   58.7300   28.8790   46.9990 C   0  0  0  0  0  0  0  0  0  0  0  0
   58.8570   29.6870   48.0800 F   0  0  0  0  0  0  0  0  0  0  0  0
   57.7980   27.8350   47.0410 C   0  0  0  0  0  0  0  0  0  0  0  0
   54.7790   26.7120   45.0440 H   0  0  0  0  0  0  0  0  0  0  0  0
   58.4698   26.3676   44.0277 H   0  0  0  0  0  0  0  0  0  0  0  0
   60.1531   28.2034   43.9618 H   0  0  0  0  0  0  0  0  0  0  0  0
   61.6806   32.8093   47.4829 H   0  0  0  0  0  0  0  0  0  0  0  0
   61.1579   32.6751   45.7342 H   0  0  0  0  0  0  0  0  0  0  0  0
   60.6516   34.2448   48.4264 H   0  0  0  0  0  0  0  0  0  0  0  0
   58.9356   34.6916   48.0942 H   0  0  0  0  0  0  0  0  0  0  0  0
   58.1060   31.4317   48.6322 H   0  0  0  0  0  0  0  0  0  0  0  0
   57.7080   30.5304   51.0463 H   0  0  0  0  0  0  0  0  0  0  0  0
   58.7967   32.0480   52.9040 H   0  0  0  0  0  0  0  0  0  0  0  0
   58.5500   33.4369   42.8295 H   0  0  0  0  0  0  0  0  0  0  0  0
   57.4216   31.7426   41.3845 H   0  0  0  0  0  0  0  0  0  0  0  0
   56.2918   29.7709   42.4183 H   0  0  0  0  0  0  0  0  0  0  0  0
   56.3000   29.4865   44.8982 H   0  0  0  0  0  0  0  0  0  0  0  0
   57.4131   31.1835   46.3488 H   0  0  0  0  0  0  0  0  0  0  0  0
   57.1409   27.7230   47.9160 H   0  0  0  0  0  0  0  0  0  0  0  0
  1  2  1  0
  2  3  2  0
  2  4  2  0
  2  5  1  0
  5  6  2  0
  6  7  1  0
  7  8  2  0
  8  9  1  0
  9 10  1  0
 10 11  2  0
 10 12  1  0
 12 13  1  0
 13 14  1  0
 14 15  1  0
 15 16  2  0
 16 17  1  0
 17 18  2  0
 18 19  1  0
 13 20  1  0
 20 21  2  0
 20 22  2  0
 20 23  1  0
 23 24  2  0
 24 25  1  0
 25 26  2  0
 26 27  1  0
 27 28  2  0
  8 29  1  0
 29 30  1  0
 29 31  2  0
 31  5  1  0
 19 15  1  0
 28 23  1  0
  1 32  1  0
  6 33  1  0
  7 34  1  0
 12 35  1  0
 12 36  1  0
 14 37  1  0
 14 38  1  0
 16 39  1  0
 17 40  1  0
 18 41  1  0
 24 42  1  0
 25 43  1  0
 26 44  1  0
 27 45  1  0
 28 46  1  0
 31 47  1  0
M  CHG  2   1  -1   9  -1
M  END
>  <UniqueID>  (81) 
76

>  <SMILES>  (81) 
[NH-]S(=O)(=O)c1ccc([N-]C(=O)CN(Cc2cccs2)S(=O)(=O)c2ccccc2)c(F)c1

>  <Energy>  (81) 
79.20264858203511

>  <Genealogy>  (81) 
[NH-]S(=O)(=O)c1ccc([N-]C(=O)CN(Cc2cccs2)S(=O)(=O)c2ccccc2)c(F)c1 (protonated)
[NH-]S(=O)(=O)c1ccc([N-]C(=O)CN(Cc2cccs2)S(=O)(=O)c2ccccc2)c(F)c1 (3D coordinates assigned)
[NH-]S(=O)(=O)c1ccc([N-]C(=O)CN(Cc2cccs2)S(=O)(=O)c2ccccc2)c(F)c1 (optimized conformer: 79.20264858203511 kcal/mol)

>  <smiles>  (81) 
NS(=O)(=O)c1ccc(NC(=O)CN(Cc2cccs2)S(=O)(=O)c2ccccc2)c(F)c1

>  <score_type>  (81) 
oracle

>  <origin>  (81) 
adg

>  <m_score__min__energy>  (81) 
-13.51

>  <m_primary>  (81) 
energy

$$$$
81:0
     RDKit          3D

 42 44  0  0  0  0  0  0  0  0999 V2000
   58.9860   34.9620   44.9230 C   0  0  0  0  0  0  0  0  0  0  0  0
   59.6630   34.9390   46.1750 O   0  0  0  0  0  0  0  0  0  0  0  0
   59.8510   33.7890   46.9540 C   0  0  0  0  0  0  0  0  0  0  0  0
   58.8120   33.2060   47.7020 C   0  0  0  0  0  0  0  0  0  0  0  0
   59.0470   32.0580   48.4610 C   0  0  0  0  0  0  0  0  0  0  0  0
   60.3200   31.4670   48.4820 C   0  0  0  0  0  0  0  0  0  0  0  0
   60.5750   30.2190   49.2860 C   0  0  0  0  0  0  0  0  0  0  0  0
   59.4520   29.2310   49.1060 C   0  0  0  0  0  0  0  0  0  0  0  0
   58.3700   29.4230   49.7180 O   0  0  0  0  0  0  0  0  0  0  0  0
   59.5860   28.0490   48.3060 N   0  0  0  0  0  0  0  0  0  0  0  0
   59.9340   28.0150   46.8880 C   0  0  0  0  0  0  0  0  0  0  0  0
   58.6670   27.8920   46.0060 C   0  0  1  0  0  0  0  0  0  0  0  0
   57.5700   27.1500   46.8030 C   0  0  0  0  0  0  0  0  0  0  0  0
   56.2930   27.0930   46.0230 C   0  0  0  0  0  0  0  0  0  0  0  0
   55.5280   26.0970   46.1180 O   0  0  0  0  0  0  0  0  0  0  0  0
   55.9050   28.2130   45.2290 N   0  0  0  0  0  0  0  0  0  0  0  0
   56.7960   29.3160   45.0430 C   0  0  0  0  0  0  0  0  0  0  0  0
   56.3150   30.4860   44.4450 C   0  0  0  0  0  0  0  0  0  0  0  0
   57.1620   31.5770   44.2520 C   0  0  0  0  0  0  0  0  0  0  0  0
   58.4980   31.5010   44.6450 C   0  0  0  0  0  0  0  0  0  0  0  0
   58.9930   30.3330   45.2340 C   0  0  0  0  0  0  0  0  0  0  0  0
   58.1450   29.2280   45.4650 C   0  0  0  0  0  0  0  0  0  0  0  0
   61.3570   32.0550   47.7420 C   0  0  0  0  0  0  0  0  0  0  0  0
   61.1210   33.2060   46.9850 C   0  0  0  0  0  0  0  0  0  0  0  0
   57.9000   34.9989   45.0940 H   0  0  0  0  0  0  0  0  0  0  0  0
   59.2979   35.8501   44.3538 H   0  0  0  0  0  0  0  0  0  0  0  0
   59.2369   34.0548   44.3538 H   0  0  0  0  0  0  0  0  0  0  0  0
   57.8088   33.6571   47.6888 H   0  0  0  0  0  0  0  0  0  0  0  0
   58.2288   31.6135   49.0467 H   0  0  0  0  0  0  0  0  0  0  0  0
   61.5169   29.7600   48.9513 H   0  0  0  0  0  0  0  0  0  0  0  0
   60.6399   30.4908   50.3499 H   0  0  0  0  0  0  0  0  0  0  0  0
   60.4655   28.9418   46.6262 H   0  0  0  0  0  0  0  0  0  0  0  0
   60.5730   27.1384   46.7059 H   0  0  0  0  0  0  0  0  0  0  0  0
   58.9504   27.3171   45.1120 H   0  0  0  0  0  0  0  0  0  0  0  0
   57.9091   26.1253   47.0152 H   0  0  0  0  0  0  0  0  0  0  0  0
   57.3863   27.6944   47.7410 H   0  0  0  0  0  0  0  0  0  0  0  0
   55.2641   30.5455   44.1257 H   0  0  0  0  0  0  0  0  0  0  0  0
   56.7763   32.4976   43.7897 H   0  0  0  0  0  0  0  0  0  0  0  0
   59.1646   32.3624   44.4912 H   0  0  0  0  0  0  0  0  0  0  0  0
   60.0535   30.2747   45.5201 H   0  0  0  0  0  0  0  0  0  0  0  0
   62.3617   31.6075   47.7577 H   0  0  0  0  0  0  0  0  0  0  0  0
   61.9421   33.6571   46.4085 H   0  0  0  0  0  0  0  0  0  0  0  0
  1  2  1  0
  2  3  1  0
  3  4  2  0
  4  5  1  0
  5  6  2  0
  6  7  1  0
  7  8  1  0
  8  9  2  0
  8 10  1  0
 10 11  1  0
 11 12  1  0
 12 13  1  0
 13 14  1  0
 14 15  2  0
 14 16  1  0
 16 17  1  0
 17 18  2  0
 18 19  1  0
 19 20  2  0
 20 21  1  0
 21 22  2  0
  6 23  1  0
 23 24  2  0
 24  3  1  0
 22 12  1  0
 22 17  1  0
  1 25  1  0
  1 26  1  0
  1 27  1  0
  4 28  1  0
  5 29  1  0
  7 30  1  0
  7 31  1  0
 11 32  1  0
 11 33  1  0
 12 34  1  6
 13 35  1  0
 13 36  1  0
 18 37  1  0
 19 38  1  0
 20 39  1  0
 21 40  1  0
 23 41  1  0
 24 42  1  0
M  CHG  2  10  -1  16  -1
M  END
>  <UniqueID>  (82) 
77

>  <SMILES>  (82) 
COc1ccc(CC(=O)[N-]C[C@H]2CC(=O)[N-]c3ccccc32)cc1

>  <Energy>  (82) 
44.522225240649995

>  <Genealogy>  (82) 
COc1ccc(CC(=O)[N-]CC2CC(=O)[N-]c3ccccc32)cc1 (protonated)
COc1ccc(CC(=O)[N-]C[C@H]2CC(=O)[N-]c3ccccc32)cc1 (chirality)
COc1ccc(CC(=O)[N-]C[C@H]2CC(=O)[N-]c3ccccc32)cc1 (3D coordinates assigned)
COc1ccc(CC(=O)[N-]C[C@H]2CC(=O)[N-]c3ccccc32)cc1 (nonaromatic ring conformer: 44.522225240649995 kcal/mol)

>  <smiles>  (82) 
COc1ccc(CC(=O)NCC2CC(=O)Nc3ccccc32)cc1

>  <score_type>  (82) 
oracle

>  <origin>  (82) 
adg

>  <m_score__min__energy>  (82) 
-11.18

>  <m_primary>  (82) 
energy

$$$$
82:0
     RDKit          3D

 51 53  0  0  0  0  0  0  0  0999 V2000
   56.1460   31.0410   44.5820 O   0  0  0  0  0  0  0  0  0  0  0  0
   56.2670   29.7890   44.6380 C   0  0  0  0  0  0  0  0  0  0  0  0
   55.1480   28.9990   44.8660 O   0  0  0  0  0  0  0  0  0  0  0  0
   57.6180   29.1550   44.5060 C   0  0  0  0  0  0  0  0  0  0  0  0
   58.7360   30.0990   44.9670 C   0  0  0  0  0  0  0  0  0  0  0  0
   59.0090   29.9660   46.4450 C   0  0  0  0  0  0  0  0  0  0  0  0
   59.3450   31.0950   47.2070 C   0  0  0  0  0  0  0  0  0  0  0  0
   59.6280   30.9660   48.5700 C   0  0  0  0  0  0  0  0  0  0  0  0
   59.5880   29.7120   49.1890 C   0  0  0  0  0  0  0  0  0  0  0  0
   59.8780   29.6270   50.5910 N   0  0  0  0  0  0  0  0  0  0  0  0
   58.7390   29.9250   51.8660 S   0  0  0  0  0  0  0  0  0  0  0  0
   57.3680   30.0670   51.2700 O   0  0  0  0  0  0  0  0  0  0  0  0
   59.1140   31.2090   52.5510 O   0  0  0  0  0  0  0  0  0  0  0  0
   58.7280   28.5770   53.0130 C   0  0  0  0  0  0  0  0  0  0  0  0
   59.9500   28.0560   53.4650 C   0  0  0  0  0  0  0  0  0  0  0  0
   59.9750   27.0020   54.3800 C   0  0  0  0  0  0  0  0  0  0  0  0
   58.7810   26.4480   54.8390 C   0  0  0  0  0  0  0  0  0  0  0  0
   57.5570   26.9470   54.3870 C   0  0  0  0  0  0  0  0  0  0  0  0
   57.5180   28.0250   53.4800 C   0  0  0  0  0  0  0  0  0  0  0  0
   56.2680   28.5190   52.9760 N   0  0  0  0  0  0  0  0  0  0  0  0
   55.0110   28.5060   53.6630 C   0  0  0  0  0  0  0  0  0  0  0  0
   54.2630   27.4930   53.6240 O   0  0  0  0  0  0  0  0  0  0  0  0
   54.5890   29.7090   54.4440 C   0  0  0  0  0  0  0  0  0  0  0  0
   53.5380   30.4740   53.6820 C   0  0  0  0  0  0  0  0  0  0  0  0
   52.3500   30.8570   54.3260 C   0  0  0  0  0  0  0  0  0  0  0  0
   51.3790   31.5940   53.6410 C   0  0  0  0  0  0  0  0  0  0  0  0
   51.5900   31.9630   52.3100 C   0  0  0  0  0  0  0  0  0  0  0  0
   50.6230   32.6920   51.6310 O   0  0  0  0  0  0  0  0  0  0  0  0
   52.7740   31.6000   51.6640 C   0  0  0  0  0  0  0  0  0  0  0  0
   53.7540   30.8610   52.3440 C   0  0  0  0  0  0  0  0  0  0  0  0
   54.9390   30.5150   51.6950 O   0  0  0  0  0  0  0  0  0  0  0  0
   59.2640   28.5780   48.4230 C   0  0  0  0  0  0  0  0  0  0  0  0
   58.9800   28.7060   47.0600 C   0  0  0  0  0  0  0  0  0  0  0  0
   57.6454   28.2432   45.1208 H   0  0  0  0  0  0  0  0  0  0  0  0
   57.7840   28.9201   43.4443 H   0  0  0  0  0  0  0  0  0  0  0  0
   59.6552   29.8596   44.4123 H   0  0  0  0  0  0  0  0  0  0  0  0
   58.4132   31.1321   44.7709 H   0  0  0  0  0  0  0  0  0  0  0  0
   59.3859   32.0855   46.7302 H   0  0  0  0  0  0  0  0  0  0  0  0
   59.8842   31.8579   49.1607 H   0  0  0  0  0  0  0  0  0  0  0  0
   60.8949   28.4811   53.0957 H   0  0  0  0  0  0  0  0  0  0  0  0
   60.9374   26.6084   54.7390 H   0  0  0  0  0  0  0  0  0  0  0  0
   58.8027   25.6163   55.5585 H   0  0  0  0  0  0  0  0  0  0  0  0
   56.6183   26.4960   54.7410 H   0  0  0  0  0  0  0  0  0  0  0  0
   54.1765   29.3888   55.4122 H   0  0  0  0  0  0  0  0  0  0  0  0
   55.4617   30.3584   54.6074 H   0  0  0  0  0  0  0  0  0  0  0  0
   52.1824   30.5754   55.3760 H   0  0  0  0  0  0  0  0  0  0  0  0
   50.4481   31.8836   54.1505 H   0  0  0  0  0  0  0  0  0  0  0  0
   52.9390   31.8949   50.6172 H   0  0  0  0  0  0  0  0  0  0  0  0
   55.6040   29.8710   52.1080 H   0  0  0  0  0  0  0  0  0  0  0  0
   59.2339   27.5863   48.8981 H   0  0  0  0  0  0  0  0  0  0  0  0
   58.7324   27.8134   46.4667 H   0  0  0  0  0  0  0  0  0  0  0  0
  1  2  2  0
  2  3  1  0
  2  4  1  0
  4  5  1  0
  5  6  1  0
  6  7  2  0
  7  8  1  0
  8  9  2  0
  9 10  1  0
 10 11  1  0
 11 12  2  0
 11 13  2  0
 11 14  1  0
 14 15  2  0
 15 16  1  0
 16 17  2  0
 17 18  1  0
 18 19  2  0
 19 20  1  0
 20 21  1  0
 21 22  2  0
 21 23  1  0
 23 24  1  0
 24 25  2  0
 25 26  1  0
 26 27  2  0
 27 28  1  0
 27 29  1  0
 29 30  2  0
 30 31  1  0
  9 32  1  0
 32 33  2  0
 33  6  1  0
 19 14  1  0
 30 24  1  0
  4 34  1  0
  4 35  1  0
  5 36  1  0
  5 37  1  0
  7 38  1  0
  8 39  1  0
 15 40  1  0
 16 41  1  0
 17 42  1  0
 18 43  1  0
 23 44  1  0
 23 45  1  0
 25 46  1  0
 26 47  1  0
 29 48  1  0
 31 49  1  0
 32 50  1  0
 33 51  1  0
M  CHG  4   3  -1  10  -1  20  -1  28  -1
M  END
>  <UniqueID>  (83) 
78

>  <SMILES>  (83) 
O=C([O-])CCc1ccc([N-]S(=O)(=O)c2ccccc2[N-]C(=O)Cc2ccc([O-])cc2O)cc1

>  <Energy>  (83) 
55.77274506631

>  <Genealogy>  (83) 
O=C([O-])CCc1ccc([N-]S(=O)(=O)c2ccccc2[N-]C(=O)Cc2ccc([O-])cc2O)cc1 (protonated)
O=C([O-])CCc1ccc([N-]S(=O)(=O)c2ccccc2[N-]C(=O)Cc2ccc([O-])cc2O)cc1 (3D coordinates assigned)
O=C([O-])CCc1ccc([N-]S(=O)(=O)c2ccccc2[N-]C(=O)Cc2ccc([O-])cc2O)cc1 (optimized conformer: 55.77274506631 kcal/mol)

>  <smiles>  (83) 
O=C(O)CCc1ccc(NS(=O)(=O)c2ccccc2NC(=O)Cc2ccc(O)cc2O)cc1

>  <score_type>  (83) 
oracle

>  <origin>  (83) 
adg

>  <m_score__min__energy>  (83) 
-16.649999999999999

>  <m_primary>  (83) 
energy

$$$$
83:0
     RDKit          3D

 57 61  0  0  1  0  0  0  0  0999 V2000
   56.3470   29.2320   44.9090 O   0  0  0  0  0  0  0  0  0  0  0  0
   57.3640   29.1500   44.1840 C   0  0  0  0  0  0  0  0  0  0  0  0
   57.6700   27.9380   43.5770 N   0  0  0  0  0  0  0  0  0  0  0  0
   57.9310   26.8710   44.1820 C   0  0  0  0  0  0  0  0  0  0  0  0
   57.4060   25.7270   43.6320 N   0  0  0  0  0  0  0  0  0  0  0  0
   57.6370   24.5220   44.1630 C   0  0  0  0  0  0  0  0  0  0  0  0
   58.3880   24.4060   45.2480 N   0  0  0  0  0  0  0  0  0  0  0  0
   58.9070   25.4900   45.8010 C   0  0  0  0  0  0  0  0  0  0  0  0
   58.7020   26.7860   45.2950 C   0  0  0  0  0  0  0  0  0  0  0  0
   59.2850   27.8450   46.0690 C   0  0  0  0  0  0  0  0  0  0  0  0
   58.6450   28.1800   47.2760 C   0  0  0  0  0  0  0  0  0  0  0  0
   59.0930   29.2520   48.0440 C   0  0  0  0  0  0  0  0  0  0  0  0
   60.1790   30.0260   47.6480 C   0  0  0  0  0  0  0  0  0  0  0  0
   60.6090   31.1350   48.4260 N   0  0  0  0  0  0  0  0  0  0  0  0
   60.0100   31.4310   49.6890 C   0  0  0  0  0  0  0  0  0  0  0  0
   59.9720   30.5400   50.7350 C   0  0  0  0  0  0  0  0  0  0  0  0
   59.3890   30.9400   51.9180 C   0  0  0  0  0  0  0  0  0  0  0  0
   58.8510   32.1900   52.0770 C   0  0  0  0  0  0  0  0  0  0  0  0
   58.8750   33.1030   51.0400 C   0  0  0  0  0  0  0  0  0  0  0  0
   59.4600   32.6930   49.8620 C   0  0  0  0  0  0  0  0  0  0  0  0
   61.6650   32.0110   48.0230 C   0  0  0  0  0  0  0  0  0  0  0  0
   61.4420   32.9410   47.0180 C   0  0  0  0  0  0  0  0  0  0  0  0
   62.4340   33.8230   46.6030 C   0  0  0  0  0  0  0  0  0  0  0  0
   63.6820   33.8050   47.1760 C   0  0  0  0  0  0  0  0  0  0  0  0
   63.9290   32.8810   48.1840 C   0  0  0  0  0  0  0  0  0  0  0  0
   62.9140   32.0050   48.5850 C   0  0  0  0  0  0  0  0  0  0  0  0
   60.7550   29.6660   46.4880 N   0  0  0  0  0  0  0  0  0  0  0  0
   60.3480   28.6370   45.7250 C   0  0  0  0  0  0  0  0  0  0  0  0
   58.2130   30.2800   43.9810 N   0  0  0  0  0  0  0  0  0  0  0  0
   58.0410   31.5500   44.5260 C   0  0  0  0  0  0  0  0  0  0  0  0
   58.0970   31.6510   45.9290 C   0  0  0  0  0  0  0  0  0  0  0  0
   57.9400   32.8580   46.5700 C   0  0  0  0  0  0  0  0  0  0  0  0
   57.7230   34.0260   45.8850 C   0  0  0  0  0  0  0  0  0  0  0  0
   57.6650   33.9510   44.5120 C   0  0  0  0  0  0  0  0  0  0  0  0
   57.8250   32.7170   43.8630 C   0  0  0  0  0  0  0  0  0  0  0  0
   57.2025   23.6249   43.6979 H   0  0  0  0  0  0  0  0  0  0  0  0
   58.5630   23.4600   45.6520 H   0  0  0  0  0  0  0  0  0  0  0  0
   59.5292   25.3718   46.7004 H   0  0  0  0  0  0  0  0  0  0  0  0
   57.7819   27.5893   47.6168 H   0  0  0  0  0  0  0  0  0  0  0  0
   58.5764   29.4921   48.9850 H   0  0  0  0  0  0  0  0  0  0  0  0
   60.3971   29.5309   50.6303 H   0  0  0  0  0  0  0  0  0  0  0  0
   59.3545   30.2338   52.7607 H   0  0  0  0  0  0  0  0  0  0  0  0
   58.3959   32.4693   53.0387 H   0  0  0  0  0  0  0  0  0  0  0  0
   58.4469   34.1103   51.1500 H   0  0  0  0  0  0  0  0  0  0  0  0
   59.4926   33.3992   49.0192 H   0  0  0  0  0  0  0  0  0  0  0  0
   60.4539   32.9819   46.5364 H   0  0  0  0  0  0  0  0  0  0  0  0
   62.2156   34.5462   45.8034 H   0  0  0  0  0  0  0  0  0  0  0  0
   64.4651   34.5034   46.8458 H   0  0  0  0  0  0  0  0  0  0  0  0
   64.9176   32.8383   48.6644 H   0  0  0  0  0  0  0  0  0  0  0  0
   63.1283   31.2812   49.3852 H   0  0  0  0  0  0  0  0  0  0  0  0
   60.8881   28.4234   44.7908 H   0  0  0  0  0  0  0  0  0  0  0  0
   59.0450   30.0930   43.3490 H   0  0  0  0  0  0  0  0  0  0  0  0
   58.2703   30.7438   46.5265 H   0  0  0  0  0  0  0  0  0  0  0  0
   57.9902   32.8872   47.6685 H   0  0  0  0  0  0  0  0  0  0  0  0
   57.6003   34.9840   46.4115 H   0  0  0  0  0  0  0  0  0  0  0  0
   57.4925   34.8623   43.9207 H   0  0  0  0  0  0  0  0  0  0  0  0
   57.7731   32.6929   42.7645 H   0  0  0  0  0  0  0  0  0  0  0  0
  1  2  2  0
  2  3  1  0
  3  4  2  0
  4  5  1  0
  5  6  2  0
  6  7  1  0
  7  8  1  0
  8  9  2  0
  9 10  1  0
 10 11  2  0
 11 12  1  0
 12 13  2  0
 13 14  1  0
 14 15  1  0
 15 16  2  0
 16 17  1  0
 17 18  2  0
 18 19  1  0
 19 20  2  0
 14 21  1  0
 21 22  2  0
 22 23  1  0
 23 24  2  0
 24 25  1  0
 25 26  2  0
 13 27  1  0
 27 28  2  0
  2 29  1  0
 29 30  1  0
 30 31  2  0
 31 32  1  0
 32 33  2  0
 33 34  1  0
 34 35  2  0
  9  4  1  0
 28 10  1  0
 35 30  1  0
 20 15  1  0
 26 21  1  0
  6 36  1  0
  7 37  1  0
  8 38  1  0
 11 39  1  0
 12 40  1  0
 16 41  1  0
 17 42  1  0
 18 43  1  0
 19 44  1  0
 20 45  1  0
 22 46  1  0
 23 47  1  0
 24 48  1  0
 25 49  1  0
 26 50  1  0
 28 51  1  0
 29 52  1  0
 31 53  1  0
 32 54  1  0
 33 55  1  0
 34 56  1  0
 35 57  1  0
M  END
>  <smiles>  (84) 
O=C(N=c1nc[nH]cc1-c1ccc(N(c2ccccc2)c2ccccc2)nc1)Nc1ccccc1

>  <score_type>  (84) 
oracle

>  <origin>  (84) 
adg

>  <m_score__min__energy>  (84) 
-9.4700000000000006

>  <m_primary>  (84) 
energy

$$$$
84:0
     RDKit          3D

 63 67  0  0  0  0  0  0  0  0999 V2000
   54.7260   24.9490   45.6220 C   0  0  0  0  0  0  0  0  0  0  0  0
   55.1430   26.1430   46.2760 O   0  0  0  0  0  0  0  0  0  0  0  0
   56.4200   26.7340   46.2130 C   0  0  0  0  0  0  0  0  0  0  0  0
   57.4520   26.0690   46.8870 C   0  0  0  0  0  0  0  0  0  0  0  0
   58.7550   26.5640   46.8770 C   0  0  0  0  0  0  0  0  0  0  0  0
   59.0520   27.7430   46.1980 C   0  0  0  0  0  0  0  0  0  0  0  0
   58.0400   28.4460   45.5200 C   0  0  0  0  0  0  0  0  0  0  0  0
   58.3140   29.6480   44.8360 C   0  0  0  0  0  0  0  0  0  0  0  0
   59.4950   30.0910   44.7700 O   0  0  0  0  0  0  0  0  0  0  0  0
   57.2690   30.3460   44.2080 C   0  0  0  0  0  0  0  0  0  0  0  0
   57.5030   31.6170   43.4950 C   0  0  0  0  0  0  0  0  0  0  0  0
   56.9970   31.7790   42.3540 O   0  0  0  0  0  0  0  0  0  0  0  0
   58.2700   32.6820   44.0680 N   0  0  0  0  0  0  0  0  0  0  0  0
   57.7340   33.7770   44.8760 C   0  0  0  0  0  0  0  0  0  0  0  0
   57.4240   33.3300   46.3120 C   0  0  0  0  0  0  0  0  0  0  0  0
   58.4510   33.8180   47.3460 C   0  0  0  0  0  0  0  0  0  0  0  0
   58.9800   32.7080   48.1560 N   0  0  0  0  0  0  0  0  0  0  0  0
   59.8500   31.7130   47.5080 C   0  0  0  0  0  0  0  0  0  0  0  0
   61.2750   32.2020   47.4810 C   0  0  0  0  0  0  0  0  0  0  0  0
   61.6230   33.3450   46.7430 C   0  0  0  0  0  0  0  0  0  0  0  0
   62.9360   33.8190   46.7660 C   0  0  0  0  0  0  0  0  0  0  0  0
   63.8930   33.1480   47.5280 C   0  0  0  0  0  0  0  0  0  0  0  0
   63.5430   32.0430   48.2400 N   0  0  0  0  0  0  0  0  0  0  0  0
   62.2710   31.5610   48.2340 C   0  0  0  0  0  0  0  0  0  0  0  0
   58.7310   32.6690   49.5780 C   0  0  0  0  0  0  0  0  0  0  0  0
   57.7790   31.8930   50.1420 N   0  0  0  0  0  0  0  0  0  0  0  0
   57.7700   31.9770   51.5010 C   0  0  0  0  0  0  0  0  0  0  0  0
   56.8180   31.1810   52.3170 C   0  0  0  0  0  0  0  0  0  0  0  0
   57.1510   30.7310   53.6100 C   0  0  0  0  0  0  0  0  0  0  0  0
   56.2380   29.9790   54.3560 C   0  0  0  0  0  0  0  0  0  0  0  0
   54.9840   29.6680   53.8240 C   0  0  0  0  0  0  0  0  0  0  0  0
   54.6390   30.1140   52.5480 C   0  0  0  0  0  0  0  0  0  0  0  0
   55.5450   30.8680   51.7980 C   0  0  0  0  0  0  0  0  0  0  0  0
   58.7410   32.8310   52.0320 C   0  0  0  0  0  0  0  0  0  0  0  0
   59.6180   33.4830   50.7540 S   0  0  0  0  0  0  0  0  0  0  0  0
   55.9810   29.8000   44.2290 C   0  0  0  0  0  0  0  0  0  0  0  0
   55.7400   28.6330   44.8770 N   0  0  0  0  0  0  0  0  0  0  0  0
   56.7130   27.9400   45.5250 C   0  0  0  0  0  0  0  0  0  0  0  0
   54.4615   24.1918   46.3748 H   0  0  0  0  0  0  0  0  0  0  0  0
   53.8492   25.1625   44.9930 H   0  0  0  0  0  0  0  0  0  0  0  0
   55.5451   24.5702   44.9930 H   0  0  0  0  0  0  0  0  0  0  0  0
   57.2305   25.1404   47.4335 H   0  0  0  0  0  0  0  0  0  0  0  0
   59.5515   26.0214   47.4073 H   0  0  0  0  0  0  0  0  0  0  0  0
   60.0830   28.1263   46.1919 H   0  0  0  0  0  0  0  0  0  0  0  0
   58.4739   34.5903   44.9085 H   0  0  0  0  0  0  0  0  0  0  0  0
   56.7946   34.1141   44.4134 H   0  0  0  0  0  0  0  0  0  0  0  0
   56.4355   33.7227   46.5923 H   0  0  0  0  0  0  0  0  0  0  0  0
   57.4565   32.2305   46.3206 H   0  0  0  0  0  0  0  0  0  0  0  0
   59.2853   34.3028   46.8180 H   0  0  0  0  0  0  0  0  0  0  0  0
   57.9471   34.5249   48.0216 H   0  0  0  0  0  0  0  0  0  0  0  0
   59.8013   30.7682   48.0692 H   0  0  0  0  0  0  0  0  0  0  0  0
   59.5062   31.5562   46.4750 H   0  0  0  0  0  0  0  0  0  0  0  0
   60.8605   33.8672   46.1464 H   0  0  0  0  0  0  0  0  0  0  0  0
   63.2135   34.7133   46.1887 H   0  0  0  0  0  0  0  0  0  0  0  0
   64.9305   33.5125   47.5530 H   0  0  0  0  0  0  0  0  0  0  0  0
   62.0220   30.6652   48.8217 H   0  0  0  0  0  0  0  0  0  0  0  0
   58.1360   30.9729   54.0356 H   0  0  0  0  0  0  0  0  0  0  0  0
   56.5078   29.6314   55.3642 H   0  0  0  0  0  0  0  0  0  0  0  0
   54.2695   29.0720   54.4108 H   0  0  0  0  0  0  0  0  0  0  0  0
   53.6505   29.8712   52.1310 H   0  0  0  0  0  0  0  0  0  0  0  0
   55.2630   31.2202   50.7948 H   0  0  0  0  0  0  0  0  0  0  0  0
   58.9031   33.0400   53.0997 H   0  0  0  0  0  0  0  0  0  0  0  0
   55.1584   30.3205   43.7167 H   0  0  0  0  0  0  0  0  0  0  0  0
  1  2  1  0
  2  3  1  0
  3  4  2  0
  4  5  1  0
  5  6  2  0
  6  7  1  0
  7  8  1  0
  8  9  2  0
  8 10  1  0
 10 11  1  0
 11 12  2  0
 11 13  1  0
 13 14  1  0
 14 15  1  0
 15 16  1  0
 16 17  1  0
 17 18  1  0
 18 19  1  0
 19 20  2  0
 20 21  1  0
 21 22  2  0
 22 23  1  0
 23 24  2  0
 17 25  1  0
 25 26  2  0
 26 27  1  0
 27 28  1  0
 28 29  2  0
 29 30  1  0
 30 31  2  0
 31 32  1  0
 32 33  2  0
 27 34  2  0
 34 35  1  0
 10 36  2  0
 36 37  1  0
 37 38  1  0
 38  3  1  0
 38  7  2  0
 24 19  1  0
 35 25  1  0
 33 28  1  0
  1 39  1  0
  1 40  1  0
  1 41  1  0
  4 42  1  0
  5 43  1  0
  6 44  1  0
 14 45  1  0
 14 46  1  0
 15 47  1  0
 15 48  1  0
 16 49  1  0
 16 50  1  0
 18 51  1  0
 18 52  1  0
 20 53  1  0
 21 54  1  0
 22 55  1  0
 24 56  1  0
 29 57  1  0
 30 58  1  0
 31 59  1  0
 32 60  1  0
 33 61  1  0
 34 62  1  0
 36 63  1  0
M  CHG  2  13  -1  37  -1
M  END
>  <UniqueID>  (85) 
79

>  <SMILES>  (85) 
COc1cccc2c(=O)c(C(=O)[N-]CCCN(Cc3cccnc3)c3nc(-c4ccccc4)cs3)c[n-]c12

>  <Energy>  (85) 
109.72271245680449

>  <Genealogy>  (85) 
COc1cccc2c(=O)c(C(=O)[N-]CCCN(Cc3cccnc3)c3nc(-c4ccccc4)cs3)c[n-]c12 (protonated)
COc1cccc2c(=O)c(C(=O)[N-]CCCN(Cc3cccnc3)c3nc(-c4ccccc4)cs3)c[n-]c12 (3D coordinates assigned)
COc1cccc2c(=O)c(C(=O)[N-]CCCN(Cc3cccnc3)c3nc(-c4ccccc4)cs3)c[n-]c12 (optimized conformer: 109.72271245680449 kcal/mol)

>  <smiles>  (85) 
COc1cccc2c(=O)c(C(=O)NCCCN(Cc3cccnc3)c3nc(-c4ccccc4)cs3)c[nH]c12

>  <score_type>  (85) 
oracle

>  <origin>  (85) 
adg

>  <m_score__min__energy>  (85) 
-13.789999999999999

>  <m_primary>  (85) 
energy

$$$$
85:0
     RDKit          3D

 57 61  0  0  0  0  0  0  0  0999 V2000
   59.3050   33.8560   51.7820 C   0  0  0  0  0  0  0  0  0  0  0  0
   60.0110   34.2190   50.5970 O   0  0  0  0  0  0  0  0  0  0  0  0
   59.6220   33.8540   49.3000 C   0  0  0  0  0  0  0  0  0  0  0  0
   58.9160   32.6590   49.1310 C   0  0  0  0  0  0  0  0  0  0  0  0
   58.4980   32.2520   47.8620 C   0  0  0  0  0  0  0  0  0  0  0  0
   58.7880   33.0340   46.7300 C   0  0  0  0  0  0  0  0  0  0  0  0
   58.3330   32.6090   45.3820 C   0  0  0  0  0  0  0  0  0  0  0  0
   58.5490   33.4290   44.2610 C   0  0  0  0  0  0  0  0  0  0  0  0
   58.1360   33.0160   42.9910 C   0  0  0  0  0  0  0  0  0  0  0  0
   57.5090   31.7810   42.8230 C   0  0  0  0  0  0  0  0  0  0  0  0
   57.2810   30.9530   43.9290 C   0  0  0  0  0  0  0  0  0  0  0  0
   56.5480   29.3650   43.7150 S   0  0  0  0  0  0  0  0  0  0  0  0
   56.5740   28.9920   42.2600 O   0  0  0  0  0  0  0  0  0  0  0  0
   55.1150   29.3850   44.1670 O   0  0  0  0  0  0  0  0  0  0  0  0
   57.4560   28.1900   44.6130 N   0  0  0  0  0  0  0  0  0  0  0  0
   58.4820   28.5660   45.5420 C   0  0  0  0  0  0  0  0  0  0  0  0
   59.7740   28.8950   45.1040 C   0  0  0  0  0  0  0  0  0  0  0  0
   60.7590   29.2560   46.0260 C   0  0  0  0  0  0  0  0  0  0  0  0
   60.4770   29.2930   47.3950 C   0  0  0  0  0  0  0  0  0  0  0  0
   61.5100   29.6640   48.2730 O   0  0  0  0  0  0  0  0  0  0  0  0
   62.0950   30.9330   48.3200 C   0  0  0  0  0  0  0  0  0  0  0  0
   62.4830   31.5380   47.1220 C   0  0  0  0  0  0  0  0  0  0  0  0
   63.0440   32.8150   47.1420 C   0  0  0  0  0  0  0  0  0  0  0  0
   63.2360   33.4610   48.3210 N   0  0  0  0  0  0  0  0  0  0  0  0
   62.8960   32.8950   49.5100 C   0  0  0  0  0  0  0  0  0  0  0  0
   63.1320   33.5870   50.7030 C   0  0  0  0  0  0  0  0  0  0  0  0
   62.8000   33.0050   51.9280 C   0  0  0  0  0  0  0  0  0  0  0  0
   63.0980   33.8730   53.4230 Cl  0  0  0  0  0  0  0  0  0  0  0  0
   62.2380   31.7250   51.9660 C   0  0  0  0  0  0  0  0  0  0  0  0
   61.9990   31.0230   50.7820 C   0  0  0  0  0  0  0  0  0  0  0  0
   62.3140   31.6050   49.5420 C   0  0  0  0  0  0  0  0  0  0  0  0
   59.1720   28.9840   47.8370 C   0  0  0  0  0  0  0  0  0  0  0  0
   58.8350   29.0540   49.1490 F   0  0  0  0  0  0  0  0  0  0  0  0
   58.1860   28.6300   46.9100 C   0  0  0  0  0  0  0  0  0  0  0  0
   57.6870   31.3720   45.2030 C   0  0  0  0  0  0  0  0  0  0  0  0
   59.5020   34.2320   46.9010 C   0  0  0  0  0  0  0  0  0  0  0  0
   59.9140   34.6410   48.1720 C   0  0  0  0  0  0  0  0  0  0  0  0
   59.8898   34.1567   52.6638 H   0  0  0  0  0  0  0  0  0  0  0  0
   58.3297   34.3644   51.7980 H   0  0  0  0  0  0  0  0  0  0  0  0
   59.1511   32.7669   51.7980 H   0  0  0  0  0  0  0  0  0  0  0  0
   58.6875   32.0331   50.0063 H   0  0  0  0  0  0  0  0  0  0  0  0
   57.9376   31.3124   47.7473 H   0  0  0  0  0  0  0  0  0  0  0  0
   59.0464   34.4024   44.3839 H   0  0  0  0  0  0  0  0  0  0  0  0
   58.3060   33.6671   42.1209 H   0  0  0  0  0  0  0  0  0  0  0  0
   57.1933   31.4573   41.8202 H   0  0  0  0  0  0  0  0  0  0  0  0
   57.4500   27.2110   44.2440 H   0  0  0  0  0  0  0  0  0  0  0  0
   60.0119   28.8685   44.0304 H   0  0  0  0  0  0  0  0  0  0  0  0
   61.7677   29.5141   45.6713 H   0  0  0  0  0  0  0  0  0  0  0  0
   62.3467   31.0096   46.1669 H   0  0  0  0  0  0  0  0  0  0  0  0
   63.3322   33.3011   46.1983 H   0  0  0  0  0  0  0  0  0  0  0  0
   63.5799   34.5913   50.6758 H   0  0  0  0  0  0  0  0  0  0  0  0
   61.9827   31.2683   52.9336 H   0  0  0  0  0  0  0  0  0  0  0  0
   61.5637   30.0135   50.8203 H   0  0  0  0  0  0  0  0  0  0  0  0
   57.1684   28.3996   47.2584 H   0  0  0  0  0  0  0  0  0  0  0  0
   57.4985   30.7263   46.0733 H   0  0  0  0  0  0  0  0  0  0  0  0
   59.7390   34.8542   46.0254 H   0  0  0  0  0  0  0  0  0  0  0  0
   60.4694   35.5831   48.2907 H   0  0  0  0  0  0  0  0  0  0  0  0
  1  2  1  0
  2  3  1  0
  3  4  2  0
  4  5  1  0
  5  6  2  0
  6  7  1  0
  7  8  2  0
  8  9  1  0
  9 10  2  0
 10 11  1  0
 11 12  1  0
 12 13  2  0
 12 14  2  0
 12 15  1  0
 15 16  1  0
 16 17  2  0
 17 18  1  0
 18 19  2  0
 19 20  1  0
 20 21  1  0
 21 22  2  0
 22 23  1  0
 23 24  2  0
 24 25  1  0
 25 26  2  0
 26 27  1  0
 27 28  1  0
 27 29  2  0
 29 30  1  0
 30 31  2  0
 19 32  1  0
 32 33  1  0
 32 34  2  0
 11 35  2  0
  6 36  1  0
 36 37  2  0
 37  3  1  0
 35  7  1  0
 34 16  1  0
 31 21  1  0
 31 25  1  0
  1 38  1  0
  1 39  1  0
  1 40  1  0
  4 41  1  0
  5 42  1  0
  8 43  1  0
  9 44  1  0
 10 45  1  0
 15 46  1  0
 17 47  1  0
 18 48  1  0
 22 49  1  0
 23 50  1  0
 26 51  1  0
 29 52  1  0
 30 53  1  0
 34 54  1  0
 35 55  1  0
 36 56  1  0
 37 57  1  0
M  END
>  <UniqueID>  (86) 
80

>  <SMILES>  (86) 
COc1ccc(-c2cccc(S(=O)(=O)Nc3ccc(Oc4ccnc5cc(Cl)ccc45)c(F)c3)c2)cc1

>  <Energy>  (86) 
84.19362737497967

>  <Genealogy>  (86) 
COc1ccc(-c2cccc(S(=O)(=O)Nc3ccc(Oc4ccnc5cc(Cl)ccc45)c(F)c3)c2)cc1 (3D coordinates assigned)
COc1ccc(-c2cccc(S(=O)(=O)Nc3ccc(Oc4ccnc5cc(Cl)ccc45)c(F)c3)c2)cc1 (optimized conformer: 84.19362737497967 kcal/mol)

>  <smiles>  (86) 
COc1ccc(-c2cccc(S(=O)(=O)Nc3ccc(Oc4ccnc5cc(Cl)ccc45)c(F)c3)c2)cc1

>  <score_type>  (86) 
oracle

>  <origin>  (86) 
adg

>  <m_score__min__energy>  (86) 
-9.9000000000000004

>  <m_primary>  (86) 
energy

$$$$
86:0
     RDKit          3D

 32 32  0  0  0  0  0  0  0  0999 V2000
   57.0640   34.4280   44.9420 C   0  0  0  0  0  0  0  0  0  0  0  0
   57.9210   33.5660   45.8270 C   0  0  0  0  0  0  0  0  0  0  0  0
   58.8970   34.1550   46.6490 C   0  0  0  0  0  0  0  0  0  0  0  0
   59.7100   33.3590   47.4610 C   0  0  0  0  0  0  0  0  0  0  0  0
   60.9240   34.1040   48.4850 Cl  0  0  0  0  0  0  0  0  0  0  0  0
   59.5540   31.9720   47.4580 C   0  0  0  0  0  0  0  0  0  0  0  0
   58.5910   31.3760   46.6410 C   0  0  0  0  0  0  0  0  0  0  0  0
   57.7720   32.1650   45.8080 C   0  0  0  0  0  0  0  0  0  0  0  0
   56.8070   31.5970   44.9570 O   0  0  0  0  0  0  0  0  0  0  0  0
   57.0010   30.4450   44.1360 C   0  0  0  0  0  0  0  0  0  0  0  0
   55.9330   29.4310   44.4030 C   0  0  0  0  0  0  0  0  0  0  0  0
   54.8210   29.5280   43.8190 O   0  0  0  0  0  0  0  0  0  0  0  0
   56.1890   28.3450   45.2970 N   0  0  0  0  0  0  0  0  0  0  0  0
   57.5330   27.8480   45.5660 C   0  0  0  0  0  0  0  0  0  0  0  0
   57.4950   26.7480   46.6270 C   0  0  0  0  0  0  0  0  0  0  0  0
   56.3240   25.4580   46.2170 S   0  0  0  0  0  0  0  0  0  0  0  0
   54.7540   26.1280   45.9530 N   0  0  0  0  0  0  0  0  0  0  0  0
   56.2580   24.4750   47.3510 O   0  0  0  0  0  0  0  0  0  0  0  0
   56.7750   24.7420   44.9740 O   0  0  0  0  0  0  0  0  0  0  0  0
   56.4246   35.0711   45.5646 H   0  0  0  0  0  0  0  0  0  0  0  0
   57.7071   35.0550   44.3070 H   0  0  0  0  0  0  0  0  0  0  0  0
   56.4333   33.7885   44.3070 H   0  0  0  0  0  0  0  0  0  0  0  0
   59.0218   35.2479   46.6534 H   0  0  0  0  0  0  0  0  0  0  0  0
   60.1912   31.3468   48.1008 H   0  0  0  0  0  0  0  0  0  0  0  0
   58.4706   30.2826   46.6475 H   0  0  0  0  0  0  0  0  0  0  0  0
   56.9622   30.7428   43.0778 H   0  0  0  0  0  0  0  0  0  0  0  0
   57.9809   30.0019   44.3671 H   0  0  0  0  0  0  0  0  0  0  0  0
   57.9609   27.4411   44.6379 H   0  0  0  0  0  0  0  0  0  0  0  0
   58.1517   28.6785   45.9368 H   0  0  0  0  0  0  0  0  0  0  0  0
   58.4973   26.3031   46.7128 H   0  0  0  0  0  0  0  0  0  0  0  0
   57.1783   27.2039   47.5767 H   0  0  0  0  0  0  0  0  0  0  0  0
   54.7560   27.0850   46.3710 H   0  0  0  0  0  0  0  0  0  0  0  0
  1  2  1  0
  2  3  2  0
  3  4  1  0
  4  5  1  0
  4  6  2  0
  6  7  1  0
  7  8  2  0
  8  9  1  0
  9 10  1  0
 10 11  1  0
 11 12  2  0
 11 13  1  0
 13 14  1  0
 14 15  1  0
 15 16  1  0
 16 17  1  0
 16 18  2  0
 16 19  2  0
  8  2  1  0
  1 20  1  0
  1 21  1  0
  1 22  1  0
  3 23  1  0
  6 24  1  0
  7 25  1  0
 10 26  1  0
 10 27  1  0
 14 28  1  0
 14 29  1  0
 15 30  1  0
 15 31  1  0
 17 32  1  0
M  CHG  2  13  -1  17  -1
M  END
>  <UniqueID>  (87) 
81

>  <SMILES>  (87) 
Cc1cc(Cl)ccc1OCC(=O)[N-]CCS([NH-])(=O)=O

>  <Energy>  (87) 
18.42875772882626

>  <Genealogy>  (87) 
Cc1cc(Cl)ccc1OCC(=O)[N-]CCS([NH-])(=O)=O (protonated)
Cc1cc(Cl)ccc1OCC(=O)[N-]CCS([NH-])(=O)=O (3D coordinates assigned)
Cc1cc(Cl)ccc1OCC(=O)[N-]CCS([NH-])(=O)=O (optimized conformer: 18.42875772882626 kcal/mol)

>  <smiles>  (87) 
Cc1cc(Cl)ccc1OCC(=O)NCCS(N)(=O)=O

>  <score_type>  (87) 
oracle

>  <origin>  (87) 
adg

>  <m_score__min__energy>  (87) 
-12.470000000000001

>  <m_primary>  (87) 
energy

$$$$
87:0
     RDKit          3D

 35 37  0  0  0  0  0  0  0  0999 V2000
   53.9380   26.6570   46.3580 H   0  0  0  0  0  0  0  0  0  0  0  0
   54.8500   26.3180   45.9780 N   0  0  0  0  0  0  0  0  0  0  0  0
   55.8970   27.0750   45.9620 C   0  0  0  0  0  0  0  0  0  0  0  0
   57.0030   26.7130   46.6590 N   0  0  0  0  0  0  0  0  0  0  0  0
   58.1090   27.4990   46.6470 C   0  0  0  0  0  0  0  0  0  0  0  0
   59.1470   27.1430   47.3470 N   0  0  0  0  0  0  0  0  0  0  0  0
   59.7260   27.8520   48.4560 C   0  0  0  0  0  0  0  0  0  0  0  0
   59.3130   29.1650   48.7060 C   0  0  0  0  0  0  0  0  0  0  0  0
   58.5779   29.6481   48.0454 H   0  0  0  0  0  0  0  0  0  0  0  0
   59.8380   29.8600   49.7980 C   0  0  0  0  0  0  0  0  0  0  0  0
   59.5287   30.8984   49.9880 H   0  0  0  0  0  0  0  0  0  0  0  0
   60.7300   29.2560   50.6260 N   0  0  0  0  0  0  0  0  0  0  0  0
   61.1310   27.9730   50.4260 C   0  0  0  0  0  0  0  0  0  0  0  0
   61.8513   27.5093   51.1160 H   0  0  0  0  0  0  0  0  0  0  0  0
   60.6300   27.2410   49.3450 C   0  0  0  0  0  0  0  0  0  0  0  0
   60.9397   26.1968   49.1908 H   0  0  0  0  0  0  0  0  0  0  0  0
   58.0950   28.6630   45.9430 N   0  0  0  0  0  0  0  0  0  0  0  0
   56.9980   29.0280   45.2330 C   0  0  0  0  0  0  0  0  0  0  0  0
   57.0110   30.1540   44.5820 N   0  0  0  0  0  0  0  0  0  0  0  0
   57.6660   31.3730   44.9790 C   0  0  0  0  0  0  0  0  0  0  0  0
   58.0840   31.5860   46.3060 C   0  0  0  0  0  0  0  0  0  0  0  0
   57.9338   30.7984   47.0591 H   0  0  0  0  0  0  0  0  0  0  0  0
   58.6880   32.7900   46.6730 C   0  0  0  0  0  0  0  0  0  0  0  0
   59.2120   33.0420   48.3280 Cl  0  0  0  0  0  0  0  0  0  0  0  0
   58.8640   33.8000   45.7250 C   0  0  0  0  0  0  0  0  0  0  0  0
   59.3491   34.7445   46.0125 H   0  0  0  0  0  0  0  0  0  0  0  0
   58.4250   33.6130   44.4120 C   0  0  0  0  0  0  0  0  0  0  0  0
   58.5568   34.4157   43.6715 H   0  0  0  0  0  0  0  0  0  0  0  0
   57.8140   32.4010   44.0310 C   0  0  0  0  0  0  0  0  0  0  0  0
   57.3510   32.1800   42.7240 O   0  0  0  0  0  0  0  0  0  0  0  0
   58.1400   32.3440   41.5500 C   0  0  0  0  0  0  0  0  0  0  0  0
   59.1803   32.5602   41.8346 H   0  0  0  0  0  0  0  0  0  0  0  0
   58.1074   31.4199   40.9542 H   0  0  0  0  0  0  0  0  0  0  0  0
   57.7418   33.1786   40.9542 H   0  0  0  0  0  0  0  0  0  0  0  0
   55.8950   28.2330   45.2520 N   0  0  0  0  0  0  0  0  0  0  0  0
  1  2  1  0
  2  3  2  0
  3  4  1  0
  4  5  1  0
  5  6  2  3
  6  7  1  0
  7  8  2  0
  8  9  1  0
  8 10  1  0
 10 11  1  0
 10 12  2  0
 12 13  1  0
 13 14  1  0
 13 15  2  0
 15 16  1  0
  5 17  1  0
 17 18  1  0
 18 19  2  0
 19 20  1  0
 20 21  2  0
 21 22  1  0
 21 23  1  0
 23 24  1  0
 23 25  2  0
 25 26  1  0
 25 27  1  0
 27 28  1  0
 27 29  2  0
 29 30  1  0
 30 31  1  0
 31 32  1  0
 31 33  1  0
 31 34  1  0
 18 35  1  0
 35  3  1  0
 15  7  1  0
 29 20  1  0
M  CHG  3   4  -1  17  -1  35  -1
M  END
>  <UniqueID>  (88) 
82

>  <SMILES>  (88) 
[H]/N=c1/[n-]c(=Nc2ccncc2)[n-]/c(=N/c2cc(Cl)ccc2OC)[n-]1

>  <Energy>  (88) 
51.09755610290048

>  <Genealogy>  (88) 
COc1ccc(Cl)cc1N=c1[n-]c(=N)[n-]c(=Nc2ccncc2)[n-]1 (protonated)
[H]/N=c1/[n-]c(=Nc2ccncc2)[n-]/c(=N/c2cc(Cl)ccc2OC)[n-]1 (cis-trans isomerization)
[H]/N=c1/[n-]c(=Nc2ccncc2)[n-]/c(=N/c2cc(Cl)ccc2OC)[n-]1 (3D coordinates assigned)
[H]/N=c1/[n-]c(=Nc2ccncc2)[n-]/c(=N/c2cc(Cl)ccc2OC)[n-]1 (optimized conformer: 51.09755610290048 kcal/mol)

>  <smiles>  (88) 
COc1ccc(Cl)cc1N=c1[nH]c(=N)[nH]c(=Nc2ccncc2)[nH]1

>  <score_type>  (88) 
oracle

>  <origin>  (88) 
adg

>  <m_score__min__energy>  (88) 
-12.1

>  <m_primary>  (88) 
energy

$$$$
88:0
     RDKit          3D

 46 50  0  0  0  0  0  0  0  0999 V2000
   56.4080   27.3120   45.9900 F   0  0  0  0  0  0  0  0  0  0  0  0
   57.6810   27.7700   45.9090 C   0  0  0  0  0  0  0  0  0  0  0  0
   58.3340   27.8010   44.6750 C   0  0  0  0  0  0  0  0  0  0  0  0
   59.6520   28.2590   44.5910 C   0  0  0  0  0  0  0  0  0  0  0  0
   60.3160   28.6970   45.7410 C   0  0  0  0  0  0  0  0  0  0  0  0
   59.6600   28.6930   46.9840 C   0  0  0  0  0  0  0  0  0  0  0  0
   60.4090   29.1380   48.2260 C   0  0  2  0  0  0  0  0  0  0  0  0
   60.3530   28.0640   49.3150 C   0  0  0  0  0  0  0  0  0  0  0  0
   60.1470   28.8170   50.6250 C   0  0  0  0  0  0  0  0  0  0  0  0
   59.5520   30.1660   50.2430 C   0  0  0  0  0  0  0  0  0  0  0  0
   59.8290   30.3370   48.8250 N   0  0  0  0  0  0  0  0  0  0  0  0
   59.7050   31.5970   48.1310 C   0  0  0  0  0  0  0  0  0  0  0  0
   60.2310   32.7910   48.6870 C   0  0  0  0  0  0  0  0  0  0  0  0
   60.1030   33.9900   47.9740 C   0  0  0  0  0  0  0  0  0  0  0  0
   59.4660   33.9540   46.7810 N   0  0  0  0  0  0  0  0  0  0  0  0
   59.2700   34.9640   45.9520 N   0  0  0  0  0  0  0  0  0  0  0  0
   58.6110   34.4630   44.8790 C   0  0  0  0  0  0  0  0  0  0  0  0
   58.3810   33.0960   45.0480 C   0  0  0  0  0  0  0  0  0  0  0  0
   57.6900   32.1740   44.1190 C   0  0  0  0  0  0  0  0  0  0  0  0
   57.7460   32.3760   42.7320 C   0  0  0  0  0  0  0  0  0  0  0  0
   57.0850   31.4910   41.8750 C   0  0  0  0  0  0  0  0  0  0  0  0
   56.3950   30.4340   42.3830 N   0  0  0  0  0  0  0  0  0  0  0  0
   56.3330   30.2080   43.7230 C   0  0  0  0  0  0  0  0  0  0  0  0
   56.9790   31.0690   44.6130 C   0  0  0  0  0  0  0  0  0  0  0  0
   58.9520   32.8290   46.2750 C   0  0  0  0  0  0  0  0  0  0  0  0
   59.0690   31.6420   46.9200 N   0  0  0  0  0  0  0  0  0  0  0  0
   58.3430   28.2030   47.0630 C   0  0  0  0  0  0  0  0  0  0  0  0
   57.8105   27.4646   43.7679 H   0  0  0  0  0  0  0  0  0  0  0  0
   60.1673   28.2749   43.6193 H   0  0  0  0  0  0  0  0  0  0  0  0
   61.3568   29.0464   45.6725 H   0  0  0  0  0  0  0  0  0  0  0  0
   61.4384   29.3312   47.8897 H   0  0  0  0  0  0  0  0  0  0  0  0
   59.5148   27.3755   49.1322 H   0  0  0  0  0  0  0  0  0  0  0  0
   61.2701   27.4569   49.3349 H   0  0  0  0  0  0  0  0  0  0  0  0
   59.4554   28.2652   51.2786 H   0  0  0  0  0  0  0  0  0  0  0  0
   61.0918   28.9342   51.1759 H   0  0  0  0  0  0  0  0  0  0  0  0
   58.4670   30.1707   50.4242 H   0  0  0  0  0  0  0  0  0  0  0  0
   59.9849   30.9820   50.8403 H   0  0  0  0  0  0  0  0  0  0  0  0
   60.7331   32.7758   49.6656 H   0  0  0  0  0  0  0  0  0  0  0  0
   60.5081   34.9321   48.3720 H   0  0  0  0  0  0  0  0  0  0  0  0
   58.3017   35.0490   44.0010 H   0  0  0  0  0  0  0  0  0  0  0  0
   58.3078   33.2274   42.3202 H   0  0  0  0  0  0  0  0  0  0  0  0
   57.1228   31.6496   40.7872 H   0  0  0  0  0  0  0  0  0  0  0  0
   55.9070   29.7820   41.7300 H   0  0  0  0  0  0  0  0  0  0  0  0
   55.7717   29.3435   44.1072 H   0  0  0  0  0  0  0  0  0  0  0  0
   56.9309   30.8821   45.6959 H   0  0  0  0  0  0  0  0  0  0  0  0
   57.8320   28.1603   48.0362 H   0  0  0  0  0  0  0  0  0  0  0  0
  1  2  1  0
  2  3  2  0
  3  4  1  0
  4  5  2  0
  5  6  1  0
  6  7  1  0
  7  8  1  0
  8  9  1  0
  9 10  1  0
 10 11  1  0
 11 12  1  0
 12 13  1  0
 13 14  2  0
 14 15  1  0
 15 16  1  0
 16 17  2  0
 17 18  1  0
 18 19  1  0
 19 20  2  0
 20 21  1  0
 21 22  2  0
 22 23  1  0
 23 24  2  0
 18 25  2  0
 25 26  1  0
  6 27  2  0
 27  2  1  0
 11  7  1  0
 26 12  2  0
 25 15  1  0
 24 19  1  0
  3 28  1  0
  4 29  1  0
  5 30  1  0
  7 31  1  6
  8 32  1  0
  8 33  1  0
  9 34  1  0
  9 35  1  0
 10 36  1  0
 10 37  1  0
 13 38  1  0
 14 39  1  0
 17 40  1  0
 20 41  1  0
 21 42  1  0
 22 43  1  0
 23 44  1  0
 24 45  1  0
 27 46  1  0
M  CHG  1  22   1
M  END
>  <UniqueID>  (89) 
83

>  <SMILES>  (89) 
Fc1cccc([C@@H]2CCCN2c2ccn3ncc(-c4cc[nH+]cc4)c3n2)c1

>  <Energy>  (89) 
91.32086777437932

>  <Genealogy>  (89) 
Fc1cccc(C2CCCN2c2ccn3ncc(-c4cc[nH+]cc4)c3n2)c1 (protonated)
Fc1cccc([C@@H]2CCCN2c2ccn3ncc(-c4cc[nH+]cc4)c3n2)c1 (chirality)
Fc1cccc([C@@H]2CCCN2c2ccn3ncc(-c4cc[nH+]cc4)c3n2)c1 (3D coordinates assigned)
Fc1cccc([C@@H]2CCCN2c2ccn3ncc(-c4cc[nH+]cc4)c3n2)c1 (nonaromatic ring conformer: 91.32086777437932 kcal/mol)

>  <smiles>  (89) 
Fc1cccc(C2CCCN2c2ccn3ncc(-c4ccncc4)c3n2)c1

>  <score_type>  (89) 
oracle

>  <origin>  (89) 
adg

>  <m_score__min__energy>  (89) 
-6.7300000000000004

>  <m_primary>  (89) 
energy

$$$$
89:0
     RDKit          3D

 38 40  0  0  0  0  0  0  0  0999 V2000
   58.5050   31.0020   50.0520 O   0  0  0  0  0  0  0  0  0  0  0  0
   59.3880   30.5550   49.2710 C   0  0  0  0  0  0  0  0  0  0  0  0
   59.5060   29.1410   49.0540 N   0  0  0  0  0  0  0  0  0  0  0  0
   59.3310   28.4660   47.7990 C   0  0  0  0  0  0  0  0  0  0  0  0
   60.3140   27.5640   47.3750 C   0  0  0  0  0  0  0  0  0  0  0  0
   60.1820   26.9020   46.1510 C   0  0  0  0  0  0  0  0  0  0  0  0
   59.0670   27.1360   45.3430 C   0  0  0  0  0  0  0  0  0  0  0  0
   58.0760   28.0370   45.7500 C   0  0  0  0  0  0  0  0  0  0  0  0
   56.9520   28.2720   44.8880 N   0  0  0  0  0  0  0  0  0  0  0  0
   56.2890   29.5290   44.6880 C   0  0  0  0  0  0  0  0  0  0  0  0
   55.1670   29.7130   45.2290 O   0  0  0  0  0  0  0  0  0  0  0  0
   56.9270   30.6340   43.9340 C   0  0  0  0  0  0  0  0  0  0  0  0
   56.7980   30.6670   42.5350 C   0  0  0  0  0  0  0  0  0  0  0  0
   57.3740   31.6980   41.7940 C   0  0  0  0  0  0  0  0  0  0  0  0
   58.0880   32.7080   42.4370 C   0  0  0  0  0  0  0  0  0  0  0  0
   58.2270   32.6960   43.8280 C   0  0  0  0  0  0  0  0  0  0  0  0
   59.1130   34.0080   44.5960 Cl  0  0  0  0  0  0  0  0  0  0  0  0
   57.6510   31.6580   44.5870 C   0  0  0  0  0  0  0  0  0  0  0  0
   57.7810   31.6940   46.3470 Cl  0  0  0  0  0  0  0  0  0  0  0  0
   58.2320   28.7300   46.9640 C   0  0  0  0  0  0  0  0  0  0  0  0
   60.3350   31.4890   48.6190 C   0  0  0  0  0  0  0  0  0  0  0  0
   61.4860   31.0070   47.9680 C   0  0  0  0  0  0  0  0  0  0  0  0
   62.3750   31.8930   47.3520 C   0  0  0  0  0  0  0  0  0  0  0  0
   62.1270   33.2680   47.3780 C   0  0  0  0  0  0  0  0  0  0  0  0
   62.9910   34.1250   46.7800 F   0  0  0  0  0  0  0  0  0  0  0  0
   60.9890   33.7580   48.0210 C   0  0  0  0  0  0  0  0  0  0  0  0
   60.0960   32.8770   48.6380 C   0  0  0  0  0  0  0  0  0  0  0  0
   61.1939   27.3754   48.0076 H   0  0  0  0  0  0  0  0  0  0  0  0
   60.9583   26.1949   45.8233 H   0  0  0  0  0  0  0  0  0  0  0  0
   58.9671   26.6098   44.3822 H   0  0  0  0  0  0  0  0  0  0  0  0
   56.2378   29.8726   42.0202 H   0  0  0  0  0  0  0  0  0  0  0  0
   57.2648   31.7145   40.6996 H   0  0  0  0  0  0  0  0  0  0  0  0
   58.5437   33.5174   41.8477 H   0  0  0  0  0  0  0  0  0  0  0  0
   57.4885   29.4839   47.2619 H   0  0  0  0  0  0  0  0  0  0  0  0
   61.6875   29.9259   47.9437 H   0  0  0  0  0  0  0  0  0  0  0  0
   63.2719   31.5068   46.8456 H   0  0  0  0  0  0  0  0  0  0  0  0
   60.7944   34.8404   48.0423 H   0  0  0  0  0  0  0  0  0  0  0  0
   59.2007   33.2704   49.1417 H   0  0  0  0  0  0  0  0  0  0  0  0
  1  2  2  0
  2  3  1  0
  3  4  1  0
  4  5  2  0
  5  6  1  0
  6  7  2  0
  7  8  1  0
  8  9  1  0
  9 10  1  0
 10 11  2  0
 10 12  1  0
 12 13  2  0
 13 14  1  0
 14 15  2  0
 15 16  1  0
 16 17  1  0
 16 18  2  0
 18 19  1  0
  8 20  2  0
  2 21  1  0
 21 22  2  0
 22 23  1  0
 23 24  2  0
 24 25  1  0
 24 26  1  0
 26 27  2  0
 20  4  1  0
 27 21  1  0
 18 12  1  0
  5 28  1  0
  6 29  1  0
  7 30  1  0
 13 31  1  0
 14 32  1  0
 15 33  1  0
 20 34  1  0
 22 35  1  0
 23 36  1  0
 26 37  1  0
 27 38  1  0
M  CHG  2   3  -1   9  -1
M  END
>  <UniqueID>  (90) 
84

>  <SMILES>  (90) 
O=C([N-]c1cccc([N-]C(=O)c2cccc(Cl)c2Cl)c1)c1ccc(F)cc1

>  <Energy>  (90) 
54.08862456813732

>  <Genealogy>  (90) 
O=C([N-]c1cccc([N-]C(=O)c2cccc(Cl)c2Cl)c1)c1ccc(F)cc1 (protonated)
O=C([N-]c1cccc([N-]C(=O)c2cccc(Cl)c2Cl)c1)c1ccc(F)cc1 (3D coordinates assigned)
O=C([N-]c1cccc([N-]C(=O)c2cccc(Cl)c2Cl)c1)c1ccc(F)cc1 (optimized conformer: 54.08862456813732 kcal/mol)

>  <smiles>  (90) 
O=C(Nc1cccc(NC(=O)c2cccc(Cl)c2Cl)c1)c1ccc(F)cc1

>  <score_type>  (90) 
oracle

>  <origin>  (90) 
adg

>  <m_score__min__energy>  (90) 
-12.199999999999999

>  <m_primary>  (90) 
energy

$$$$
90:0
     RDKit          3D

 42 44  0  0  0  0  0  0  0  0999 V2000
   54.4910   25.1320   45.6070 C   0  0  0  0  0  0  0  0  0  0  0  0
   55.1030   26.3480   46.0220 O   0  0  0  0  0  0  0  0  0  0  0  0
   56.4790   26.6160   45.9390 C   0  0  0  0  0  0  0  0  0  0  0  0
   57.4480   25.6470   46.2710 C   0  0  0  0  0  0  0  0  0  0  0  0
   58.8060   25.9580   46.2040 C   0  0  0  0  0  0  0  0  0  0  0  0
   59.2130   27.2330   45.8140 C   0  0  0  0  0  0  0  0  0  0  0  0
   58.2640   28.2010   45.4800 C   0  0  0  0  0  0  0  0  0  0  0  0
   56.8900   27.8950   45.5230 C   0  0  0  0  0  0  0  0  0  0  0  0
   55.8770   28.8770   45.2490 N   0  0  0  0  0  0  0  0  0  0  0  0
   55.7300   29.6970   44.0820 C   0  0  0  0  0  0  0  0  0  0  0  0
   54.6850   29.6470   43.3820 O   0  0  0  0  0  0  0  0  0  0  0  0
   56.7790   30.7150   43.7600 C   0  0  0  0  0  0  0  0  0  0  0  0
   57.6170   31.0050   44.9290 N   0  0  0  0  0  0  0  0  0  0  0  0
   57.7160   32.7180   45.2360 S   0  0  0  0  0  0  0  0  0  0  0  0
   58.2170   33.4330   44.0100 O   0  0  0  0  0  0  0  0  0  0  0  0
   56.3430   33.2390   45.5550 O   0  0  0  0  0  0  0  0  0  0  0  0
   58.7730   33.0410   46.6160 C   0  0  0  0  0  0  0  0  0  0  0  0
   59.3170   34.3230   46.7950 C   0  0  0  0  0  0  0  0  0  0  0  0
   60.1470   34.5950   47.8860 C   0  0  0  0  0  0  0  0  0  0  0  0
   60.4490   33.5920   48.8100 C   0  0  0  0  0  0  0  0  0  0  0  0
   59.9240   32.3030   48.6410 C   0  0  0  0  0  0  0  0  0  0  0  0
   60.2400   31.2730   49.5360 C   0  0  0  0  0  0  0  0  0  0  0  0
   59.7200   29.9940   49.3330 C   0  0  0  0  0  0  0  0  0  0  0  0
   58.8860   29.7570   48.2390 C   0  0  0  0  0  0  0  0  0  0  0  0
   58.5870   30.7650   47.3770 N   0  0  0  0  0  0  0  0  0  0  0  0
   59.0790   32.0250   47.5410 C   0  0  0  0  0  0  0  0  0  0  0  0
   54.1974   24.5486   46.4921 H   0  0  0  0  0  0  0  0  0  0  0  0
   53.5990   25.3575   45.0041 H   0  0  0  0  0  0  0  0  0  0  0  0
   55.2036   24.5500   45.0041 H   0  0  0  0  0  0  0  0  0  0  0  0
   57.1315   24.6412   46.5843 H   0  0  0  0  0  0  0  0  0  0  0  0
   59.5571   25.1960   46.4593 H   0  0  0  0  0  0  0  0  0  0  0  0
   60.2847   27.4770   45.7693 H   0  0  0  0  0  0  0  0  0  0  0  0
   58.5912   29.2080   45.1817 H   0  0  0  0  0  0  0  0  0  0  0  0
   57.4153   30.3298   42.9496 H   0  0  0  0  0  0  0  0  0  0  0  0
   56.2779   31.6448   43.4528 H   0  0  0  0  0  0  0  0  0  0  0  0
   57.1510   30.5820   45.7640 H   0  0  0  0  0  0  0  0  0  0  0  0
   59.0882   35.1191   46.0712 H   0  0  0  0  0  0  0  0  0  0  0  0
   60.5646   35.6041   48.0177 H   0  0  0  0  0  0  0  0  0  0  0  0
   61.0984   33.8133   49.6698 H   0  0  0  0  0  0  0  0  0  0  0  0
   60.8961   31.4716   50.3963 H   0  0  0  0  0  0  0  0  0  0  0  0
   59.9654   29.1789   50.0297 H   0  0  0  0  0  0  0  0  0  0  0  0
   58.4697   28.7523   48.0739 H   0  0  0  0  0  0  0  0  0  0  0  0
  1  2  1  0
  2  3  1  0
  3  4  2  0
  4  5  1  0
  5  6  2  0
  6  7  1  0
  7  8  2  0
  8  9  1  0
  9 10  1  0
 10 11  2  0
 10 12  1  0
 12 13  1  0
 13 14  1  0
 14 15  2  0
 14 16  2  0
 14 17  1  0
 17 18  2  0
 18 19  1  0
 19 20  2  0
 20 21  1  0
 21 22  2  0
 22 23  1  0
 23 24  2  0
 24 25  1  0
 25 26  2  0
  8  3  1  0
 26 17  1  0
 26 21  1  0
  1 27  1  0
  1 28  1  0
  1 29  1  0
  4 30  1  0
  5 31  1  0
  6 32  1  0
  7 33  1  0
 12 34  1  0
 12 35  1  0
 13 36  1  0
 18 37  1  0
 19 38  1  0
 20 39  1  0
 22 40  1  0
 23 41  1  0
 24 42  1  0
M  CHG  1   9  -1
M  END
>  <UniqueID>  (91) 
85

>  <SMILES>  (91) 
COc1ccccc1[N-]C(=O)CNS(=O)(=O)c1cccc2cccnc12

>  <Energy>  (91) 
42.67770411322622

>  <Genealogy>  (91) 
COc1ccccc1[N-]C(=O)CNS(=O)(=O)c1cccc2cccnc12 (protonated)
COc1ccccc1[N-]C(=O)CNS(=O)(=O)c1cccc2cccnc12 (3D coordinates assigned)
COc1ccccc1[N-]C(=O)CNS(=O)(=O)c1cccc2cccnc12 (optimized conformer: 42.67770411322622 kcal/mol)

>  <smiles>  (91) 
COc1ccccc1NC(=O)CNS(=O)(=O)c1cccc2cccnc12

>  <score_type>  (91) 
oracle

>  <origin>  (91) 
adg

>  <m_score__min__energy>  (91) 
-11.07

>  <m_primary>  (91) 
energy

$$$$
91:0
     RDKit          3D

 41 43  0  0  0  0  0  0  0  0999 V2000
   55.5210   22.3840   42.4050 N   0  0  0  0  0  0  0  0  0  0  0  0
   56.6520   21.6120   43.4580 S   0  0  0  0  0  0  0  0  0  0  0  0
   55.9130   20.7290   44.4230 O   0  0  0  0  0  0  0  0  0  0  0  0
   57.5920   20.7620   42.6510 O   0  0  0  0  0  0  0  0  0  0  0  0
   57.5610   22.8350   44.3410 C   0  0  0  0  0  0  0  0  0  0  0  0
   58.7920   22.5090   44.9270 C   0  0  0  0  0  0  0  0  0  0  0  0
   59.5210   23.4810   45.6190 C   0  0  0  0  0  0  0  0  0  0  0  0
   59.0400   24.7930   45.7140 C   0  0  0  0  0  0  0  0  0  0  0  0
   59.7990   25.7580   46.4540 N   0  0  0  0  0  0  0  0  0  0  0  0
   59.3000   26.6360   47.4720 C   0  0  0  0  0  0  0  0  0  0  0  0
   60.0920   27.0420   48.3630 O   0  0  0  0  0  0  0  0  0  0  0  0
   57.8750   27.1200   47.4760 C   0  0  0  0  0  0  0  0  0  0  0  0
   57.6760   28.1330   46.4390 N   0  0  0  0  0  0  0  0  0  0  0  0
   56.6220   28.2120   45.5950 C   0  0  0  0  0  0  0  0  0  0  0  0
   55.5270   27.3580   45.6310 O   0  0  0  0  0  0  0  0  0  0  0  0
   56.7970   29.2480   44.7010 C   0  0  0  0  0  0  0  0  0  0  0  0
   57.9940   29.8450   45.0230 C   0  0  0  0  0  0  0  0  0  0  0  0
   58.5270   29.1200   46.0700 C   0  0  0  0  0  0  0  0  0  0  0  0
   59.7720   29.3630   46.6480 O   0  0  0  0  0  0  0  0  0  0  0  0
   58.6070   30.9660   44.2390 C   0  0  0  0  0  0  0  0  0  0  0  0
   57.5330   31.6720   43.3870 C   0  0  0  0  0  0  0  0  0  0  0  0
   56.6270   30.6600   42.6510 C   0  0  0  0  0  0  0  0  0  0  0  0
   55.8700   29.7480   43.6360 C   0  0  0  0  0  0  0  0  0  0  0  0
   57.7950   25.1130   45.1440 C   0  0  0  0  0  0  0  0  0  0  0  0
   57.0670   24.1400   44.4520 C   0  0  0  0  0  0  0  0  0  0  0  0
   56.0080   23.2070   41.9820 H   0  0  0  0  0  0  0  0  0  0  0  0
   59.1857   21.4854   44.8422 H   0  0  0  0  0  0  0  0  0  0  0  0
   60.4777   23.2137   46.0915 H   0  0  0  0  0  0  0  0  0  0  0  0
   57.2033   26.2700   47.2856 H   0  0  0  0  0  0  0  0  0  0  0  0
   57.6530   27.5659   48.4568 H   0  0  0  0  0  0  0  0  0  0  0  0
   60.2670   28.6530   47.1720 H   0  0  0  0  0  0  0  0  0  0  0  0
   59.0548   31.6922   44.9334 H   0  0  0  0  0  0  0  0  0  0  0  0
   59.3803   30.5561   43.5727 H   0  0  0  0  0  0  0  0  0  0  0  0
   56.9095   32.2950   44.0451 H   0  0  0  0  0  0  0  0  0  0  0  0
   58.0453   32.2849   42.6308 H   0  0  0  0  0  0  0  0  0  0  0  0
   55.8954   31.2131   42.0437 H   0  0  0  0  0  0  0  0  0  0  0  0
   57.2659   30.0254   42.0193 H   0  0  0  0  0  0  0  0  0  0  0  0
   55.0539   30.3181   44.1040 H   0  0  0  0  0  0  0  0  0  0  0  0
   55.4620   28.8879   43.0849 H   0  0  0  0  0  0  0  0  0  0  0  0
   57.3924   26.1319   45.2428 H   0  0  0  0  0  0  0  0  0  0  0  0
   56.1021   24.4013   43.9930 H   0  0  0  0  0  0  0  0  0  0  0  0
  1  2  1  0
  2  3  2  0
  2  4  2  0
  2  5  1  0
  5  6  2  0
  6  7  1  0
  7  8  2  0
  8  9  1  0
  9 10  1  0
 10 11  2  0
 10 12  1  0
 12 13  1  0
 13 14  1  0
 14 15  1  0
 14 16  2  0
 16 17  1  0
 17 18  2  0
 18 19  1  0
 17 20  1  0
 20 21  1  0
 21 22  1  0
 22 23  1  0
  8 24  1  0
 24 25  2  0
 25  5  1  0
 18 13  1  0
 23 16  1  0
  1 26  1  0
  6 27  1  0
  7 28  1  0
 12 29  1  0
 12 30  1  0
 19 31  1  0
 20 32  1  0
 20 33  1  0
 21 34  1  0
 21 35  1  0
 22 36  1  0
 22 37  1  0
 23 38  1  0
 23 39  1  0
 24 40  1  0
 25 41  1  0
M  CHG  3   1  -1   9  -1  15  -1
M  END
>  <UniqueID>  (92) 
86

>  <SMILES>  (92) 
[NH-]S(=O)(=O)c1ccc([N-]C(=O)Cn2c([O-])c3c(c2O)CCCC3)cc1

>  <Energy>  (92) 
74.13613163910445

>  <Genealogy>  (92) 
[NH-]S(=O)(=O)c1ccc([N-]C(=O)Cn2c([O-])c3c(c2O)CCCC3)cc1 (protonated)
[NH-]S(=O)(=O)c1ccc([N-]C(=O)Cn2c([O-])c3c(c2O)CCCC3)cc1 (3D coordinates assigned)
[NH-]S(=O)(=O)c1ccc([N-]C(=O)Cn2c([O-])c3c(c2O)CCCC3)cc1 (nonaromatic ring conformer: 74.13613163910445 kcal/mol)

>  <smiles>  (92) 
NS(=O)(=O)c1ccc(NC(=O)Cn2c(O)c3c(c2O)CCCC3)cc1

>  <score_type>  (92) 
oracle

>  <origin>  (92) 
adg

>  <m_score__min__energy>  (92) 
-12.529999999999999

>  <m_primary>  (92) 
energy

$$$$
92:0
     RDKit          3D

 46 49  0  0  0  0  0  0  0  0999 V2000
   60.1830   30.3880   50.8720 O   0  0  0  0  0  0  0  0  0  0  0  0
   61.2840   30.4850   50.2640 C   0  0  0  0  0  0  0  0  0  0  0  0
   62.4800   31.0100   51.0000 C   0  0  0  0  0  0  0  0  0  0  0  0
   62.8020   32.3310   50.5620 O   0  0  0  0  0  0  0  0  0  0  0  0
   62.8130   32.7710   49.2250 C   0  0  0  0  0  0  0  0  0  0  0  0
   63.9760   32.7060   48.4310 C   0  0  0  0  0  0  0  0  0  0  0  0
   63.9590   33.1480   47.1070 C   0  0  0  0  0  0  0  0  0  0  0  0
   62.7880   33.6620   46.5500 C   0  0  0  0  0  0  0  0  0  0  0  0
   61.6180   33.7400   47.3180 C   0  0  0  0  0  0  0  0  0  0  0  0
   60.4390   34.2570   46.7590 C   0  0  0  0  0  0  0  0  0  0  0  0
   59.2740   34.3330   47.5250 C   0  0  0  0  0  0  0  0  0  0  0  0
   59.2750   33.8930   48.8510 C   0  0  0  0  0  0  0  0  0  0  0  0
   60.4410   33.3770   49.4200 C   0  0  0  0  0  0  0  0  0  0  0  0
   61.6260   33.2930   48.6650 C   0  0  0  0  0  0  0  0  0  0  0  0
   61.3910   30.1110   48.8810 N   0  0  0  0  0  0  0  0  0  0  0  0
   60.3370   29.4790   48.1340 C   0  0  0  0  0  0  0  0  0  0  0  0
   60.1990   28.0840   48.1880 C   0  0  0  0  0  0  0  0  0  0  0  0
   59.1730   27.4470   47.4840 C   0  0  0  0  0  0  0  0  0  0  0  0
   58.2630   28.1980   46.7290 C   0  0  0  0  0  0  0  0  0  0  0  0
   56.9810   27.4100   45.8160 S   0  0  0  0  0  0  0  0  0  0  0  0
   57.5500   26.5860   44.6930 O   0  0  0  0  0  0  0  0  0  0  0  0
   56.2100   26.5060   46.7370 O   0  0  0  0  0  0  0  0  0  0  0  0
   55.9120   28.6080   45.1600 N   0  0  0  0  0  0  0  0  0  0  0  0
   56.3210   29.5900   44.4200 C   0  0  0  0  0  0  0  0  0  0  0  0
   56.6310   30.8170   44.8940 N   0  0  0  0  0  0  0  0  0  0  0  0
   57.0260   31.6480   43.8930 C   0  0  0  0  0  0  0  0  0  0  0  0
   57.0320   31.0820   42.6220 C   0  0  0  0  0  0  0  0  0  0  0  0
   56.5230   29.4830   42.7570 S   0  0  0  0  0  0  0  0  0  0  0  0
   58.3830   29.5930   46.6920 C   0  0  0  0  0  0  0  0  0  0  0  0
   59.4080   30.2320   47.3950 C   0  0  0  0  0  0  0  0  0  0  0  0
   62.2607   31.0302   52.0777 H   0  0  0  0  0  0  0  0  0  0  0  0
   63.3373   30.3512   50.7976 H   0  0  0  0  0  0  0  0  0  0  0  0
   64.9058   32.3031   48.8589 H   0  0  0  0  0  0  0  0  0  0  0  0
   64.8742   33.0906   46.4995 H   0  0  0  0  0  0  0  0  0  0  0  0
   62.7827   34.0070   45.5055 H   0  0  0  0  0  0  0  0  0  0  0  0
   60.4327   34.6032   45.7149 H   0  0  0  0  0  0  0  0  0  0  0  0
   58.3528   34.7405   47.0831 H   0  0  0  0  0  0  0  0  0  0  0  0
   58.3537   33.9533   49.4490 H   0  0  0  0  0  0  0  0  0  0  0  0
   60.4335   33.0339   50.4651 H   0  0  0  0  0  0  0  0  0  0  0  0
   62.2460   30.4100   48.3590 H   0  0  0  0  0  0  0  0  0  0  0  0
   60.9024   27.4879   48.7879 H   0  0  0  0  0  0  0  0  0  0  0  0
   59.0799   26.3516   47.5231 H   0  0  0  0  0  0  0  0  0  0  0  0
   57.3196   32.6924   44.0749 H   0  0  0  0  0  0  0  0  0  0  0  0
   57.3195   31.5911   41.6903 H   0  0  0  0  0  0  0  0  0  0  0  0
   57.6669   30.1886   46.1067 H   0  0  0  0  0  0  0  0  0  0  0  0
   59.4882   31.3288   47.3700 H   0  0  0  0  0  0  0  0  0  0  0  0
  1  2  2  0
  2  3  1  0
  3  4  1  0
  4  5  1  0
  5  6  2  0
  6  7  1  0
  7  8  2  0
  8  9  1  0
  9 10  2  0
 10 11  1  0
 11 12  2  0
 12 13  1  0
 13 14  2  0
  2 15  1  0
 15 16  1  0
 16 17  2  0
 17 18  1  0
 18 19  2  0
 19 20  1  0
 20 21  2  0
 20 22  2  0
 20 23  1  0
 23 24  2  3
 24 25  1  0
 25 26  1  0
 26 27  2  0
 27 28  1  0
 19 29  1  0
 29 30  2  0
 14  5  1  0
 30 16  1  0
 14  9  1  0
 28 24  1  0
  3 31  1  0
  3 32  1  0
  6 33  1  0
  7 34  1  0
  8 35  1  0
 10 36  1  0
 11 37  1  0
 12 38  1  0
 13 39  1  0
 15 40  1  0
 17 41  1  0
 18 42  1  0
 26 43  1  0
 27 44  1  0
 29 45  1  0
 30 46  1  0
M  CHG  1  25  -1
M  END
>  <UniqueID>  (93) 
87

>  <SMILES>  (93) 
O=C(COc1cccc2ccccc12)Nc1ccc(S(=O)(=O)N=c2[n-]ccs2)cc1

>  <Energy>  (93) 
89.84850609447668

>  <Genealogy>  (93) 
O=C(COc1cccc2ccccc12)Nc1ccc(S(=O)(=O)N=c2[n-]ccs2)cc1 (protonated)
O=C(COc1cccc2ccccc12)Nc1ccc(S(=O)(=O)N=c2[n-]ccs2)cc1 (3D coordinates assigned)
O=C(COc1cccc2ccccc12)Nc1ccc(S(=O)(=O)N=c2[n-]ccs2)cc1 (optimized conformer: 89.84850609447668 kcal/mol)

>  <smiles>  (93) 
O=C(COc1cccc2ccccc12)Nc1ccc(S(=O)(=O)N=c2[nH]ccs2)cc1

>  <score_type>  (93) 
oracle

>  <origin>  (93) 
adg

>  <m_score__min__energy>  (93) 
-10.84

>  <m_primary>  (93) 
energy

$$$$
93:0
     RDKit          3D

 45 48  0  0  0  0  0  0  0  0999 V2000
   57.0010   20.0950   43.5490 H   0  0  0  0  0  0  0  0  0  0  0  0
   56.2690   20.7750   43.3800 O   0  0  0  0  0  0  0  0  0  0  0  0
   56.1950   21.9610   44.1080 C   0  0  0  0  0  0  0  0  0  0  0  0
   56.5700   23.1630   43.5050 C   0  0  0  0  0  0  0  0  0  0  0  0
   56.9179   23.1675   42.4615 H   0  0  0  0  0  0  0  0  0  0  0  0
   56.5050   24.3600   44.2220 C   0  0  0  0  0  0  0  0  0  0  0  0
   56.7888   25.3045   43.7349 H   0  0  0  0  0  0  0  0  0  0  0  0
   56.0790   24.3660   45.5630 C   0  0  0  0  0  0  0  0  0  0  0  0
   55.9800   25.5920   46.3090 N   0  0  0  0  0  0  0  0  0  0  0  0
   56.8890   26.5180   46.3950 C   0  0  0  0  0  0  0  0  0  0  0  0
   57.6980   26.6920   47.4670 N   0  0  0  0  0  0  0  0  0  0  0  0
   58.5130   27.7650   47.2940 C   0  0  0  0  0  0  0  0  0  0  0  0
   58.3230   28.4550   46.1120 C   0  0  0  0  0  0  0  0  0  0  0  0
   57.1270   27.6920   45.2110 S   0  0  0  0  0  0  0  0  0  0  0  0
   59.1170   29.6540   45.7170 C   0  0  0  0  0  0  0  0  0  0  0  0
   59.9223   29.3429   45.0353 H   0  0  0  0  0  0  0  0  0  0  0  0
   58.4451   30.3698   45.2209 H   0  0  0  0  0  0  0  0  0  0  0  0
   59.7130   30.3120   46.9000 N   0  0  0  0  0  0  0  0  0  0  0  0
   58.9130   31.4030   47.5000 C   0  0  0  0  0  0  0  0  0  0  0  0
   57.8925   31.0293   47.6702 H   0  0  0  0  0  0  0  0  0  0  0  0
   59.4212   31.6926   48.4316 H   0  0  0  0  0  0  0  0  0  0  0  0
   58.8260   32.6490   46.6460 C   0  0  0  0  0  0  0  0  0  0  0  0
   57.8040   32.7840   45.6910 C   0  0  0  0  0  0  0  0  0  0  0  0
   57.0590   31.9838   45.5703 H   0  0  0  0  0  0  0  0  0  0  0  0
   57.7290   33.9290   44.8940 C   0  0  0  0  0  0  0  0  0  0  0  0
   56.9348   34.0212   44.1385 H   0  0  0  0  0  0  0  0  0  0  0  0
   58.6610   34.9570   45.0550 C   0  0  0  0  0  0  0  0  0  0  0  0
   58.6067   35.8535   44.4198 H   0  0  0  0  0  0  0  0  0  0  0  0
   59.6620   34.8460   46.0230 C   0  0  0  0  0  0  0  0  0  0  0  0
   60.3913   35.6589   46.1547 H   0  0  0  0  0  0  0  0  0  0  0  0
   59.7380   33.7040   46.8240 C   0  0  0  0  0  0  0  0  0  0  0  0
   60.5158   33.6298   47.5983 H   0  0  0  0  0  0  0  0  0  0  0  0
   60.3750   29.3880   47.8520 C   0  0  0  0  0  0  0  0  0  0  0  0
   61.2564   28.9555   47.3559 H   0  0  0  0  0  0  0  0  0  0  0  0
   60.6335   29.9829   48.7404 H   0  0  0  0  0  0  0  0  0  0  0  0
   59.4760   28.2270   48.3420 C   0  0  0  0  0  0  0  0  0  0  0  0
   60.1178   27.3809   48.6286 H   0  0  0  0  0  0  0  0  0  0  0  0
   58.8886   28.5969   49.1953 H   0  0  0  0  0  0  0  0  0  0  0  0
   55.6690   23.1570   46.1630 C   0  0  0  0  0  0  0  0  0  0  0  0
   55.1850   23.1390   47.5870 C   0  0  0  0  0  0  0  0  0  0  0  0
   56.0482   23.1711   48.2681 H   0  0  0  0  0  0  0  0  0  0  0  0
   54.5430   24.0139   47.7672 H   0  0  0  0  0  0  0  0  0  0  0  0
   54.6098   22.2188   47.7672 H   0  0  0  0  0  0  0  0  0  0  0  0
   55.7430   21.9590   45.4330 C   0  0  0  0  0  0  0  0  0  0  0  0
   55.4435   21.0122   45.9061 H   0  0  0  0  0  0  0  0  0  0  0  0
  1  2  1  0
  2  3  1  0
  3  4  2  0
  4  5  1  0
  4  6  1  0
  6  7  1  0
  6  8  2  0
  8  9  1  0
  9 10  2  0
 10 11  1  0
 11 12  1  0
 12 13  2  0
 13 14  1  0
 13 15  1  0
 15 16  1  0
 15 17  1  0
 15 18  1  0
 18 19  1  0
 19 20  1  0
 19 21  1  0
 19 22  1  0
 22 23  2  0
 23 24  1  0
 23 25  1  0
 25 26  1  0
 25 27  2  0
 27 28  1  0
 27 29  1  0
 29 30  1  0
 29 31  2  0
 31 32  1  0
 18 33  1  0
 33 34  1  0
 33 35  1  0
 33 36  1  0
 36 37  1  0
 36 38  1  0
  8 39  1  0
 39 40  1  0
 40 41  1  0
 40 42  1  0
 40 43  1  0
 39 44  2  0
 44 45  1  0
 44  3  1  0
 14 10  1  0
 31 22  1  0
 36 12  1  0
M  CHG  1  11  -1
M  END
>  <UniqueID>  (94) 
88

>  <SMILES>  (94) 
Cc1cc(O)ccc1/N=c1\[n-]c2c(s1)CN(Cc1ccccc1)CC2

>  <Energy>  (94) 
93.11731531034808

>  <Genealogy>  (94) 
Cc1cc(O)ccc1N=c1[n-]c2c(s1)CN(Cc1ccccc1)CC2 (protonated)
Cc1cc(O)ccc1/N=c1\[n-]c2c(s1)CN(Cc1ccccc1)CC2 (cis-trans isomerization)
Cc1cc(O)ccc1/N=c1\[n-]c2c(s1)CN(Cc1ccccc1)CC2 (3D coordinates assigned)
Cc1cc(O)ccc1/N=c1\[n-]c2c(s1)CN(Cc1ccccc1)CC2 (nonaromatic ring conformer: 93.11731531034808 kcal/mol)

>  <smiles>  (94) 
Cc1cc(O)ccc1N=c1[nH]c2c(s1)CN(Cc1ccccc1)CC2

>  <score_type>  (94) 
oracle

>  <origin>  (94) 
adg

>  <m_score__min__energy>  (94) 
-9.8399999999999999

>  <m_primary>  (94) 
energy

$$$$
