0:0
     RDKit          3D

 33 35  0  0  0  0  0  0  0  0999 V2000
   57.4300   33.8050   44.8650 C   0  0  0  0  0  0  0  0  0  0  0  0
   57.3730   32.3620   44.4920 C   0  0  0  0  0  0  0  0  0  0  0  0
   57.4240   31.8610   43.2080 C   0  0  0  0  0  0  0  0  0  0  0  0
   57.3130   30.4930   43.3360 C   0  0  0  0  0  0  0  0  0  0  0  0
   57.2050   30.2480   44.6940 C   0  0  0  0  0  0  0  0  0  0  0  0
   57.0320   28.9390   45.3460 C   0  0  0  0  0  0  0  0  0  0  0  0
   55.8880   28.2380   45.2560 N   0  0  0  0  0  0  0  0  0  0  0  0
   56.1750   27.0810   45.8830 C   0  0  0  0  0  0  0  0  0  0  0  0
   55.3390   26.1460   46.0040 O   0  0  0  0  0  0  0  0  0  0  0  0
   57.4290   27.0020   46.3710 N   0  0  0  0  0  0  0  0  0  0  0  0
   57.9710   28.1870   46.0370 C   0  0  0  0  0  0  0  0  0  0  0  0
   59.3210   28.5840   46.4640 C   0  0  0  0  0  0  0  0  0  0  0  0
   60.3110   28.2340   45.7680 O   0  0  0  0  0  0  0  0  0  0  0  0
   59.5570   29.2660   47.7820 C   0  0  0  0  0  0  0  0  0  0  0  0
   59.6740   30.7510   47.5750 C   0  0  0  0  0  0  0  0  0  0  0  0
   60.7990   31.2930   46.9290 C   0  0  0  0  0  0  0  0  0  0  0  0
   60.9190   32.6760   46.7690 C   0  0  0  0  0  0  0  0  0  0  0  0
   59.9260   33.5280   47.2610 C   0  0  0  0  0  0  0  0  0  0  0  0
   58.8120   32.9970   47.9160 C   0  0  0  0  0  0  0  0  0  0  0  0
   58.6880   31.6150   48.0780 C   0  0  0  0  0  0  0  0  0  0  0  0
   57.2330   31.3830   45.3560 O   0  0  0  0  0  0  0  0  0  0  0  0
   57.4338   33.9006   45.9608 H   0  0  0  0  0  0  0  0  0  0  0  0
   58.3466   34.2539   44.4546 H   0  0  0  0  0  0  0  0  0  0  0  0
   56.5517   34.3248   44.4546 H   0  0  0  0  0  0  0  0  0  0  0  0
   57.5310   32.4342   42.2753 H   0  0  0  0  0  0  0  0  0  0  0  0
   57.3107   29.7491   42.5257 H   0  0  0  0  0  0  0  0  0  0  0  0
   58.7141   29.0569   48.4572 H   0  0  0  0  0  0  0  0  0  0  0  0
   60.4900   28.8869   48.2245 H   0  0  0  0  0  0  0  0  0  0  0  0
   61.5870   30.6265   46.5484 H   0  0  0  0  0  0  0  0  0  0  0  0
   61.7966   33.0950   46.2549 H   0  0  0  0  0  0  0  0  0  0  0  0
   60.0217   34.6163   47.1325 H   0  0  0  0  0  0  0  0  0  0  0  0
   58.0317   33.6679   48.3046 H   0  0  0  0  0  0  0  0  0  0  0  0
   57.8137   31.2016   48.6021 H   0  0  0  0  0  0  0  0  0  0  0  0
  1  2  1  0
  2  3  2  0
  3  4  1  0
  4  5  2  0
  5  6  1  0
  6  7  1  0
  7  8  1  0
  8  9  2  0
  8 10  1  0
 10 11  1  0
 11 12  1  0
 12 13  2  0
 12 14  1  0
 14 15  1  0
 15 16  2  0
 16 17  1  0
 17 18  2  0
 18 19  1  0
 19 20  2  0
  5 21  1  0
 21  2  1  0
 11  6  2  0
 20 15  1  0
  1 22  1  0
  1 23  1  0
  1 24  1  0
  3 25  1  0
  4 26  1  0
 14 27  1  0
 14 28  1  0
 16 29  1  0
 17 30  1  0
 18 31  1  0
 19 32  1  0
 20 33  1  0
M  CHG  2   7  -1  10  -1
M  END
>  <UniqueID>  (1) 
1

>  <SMILES>  (1) 
Cc1ccc(-c2[n-]c(=O)[n-]c2C(=O)Cc2ccccc2)o1

>  <Energy>  (1) 
92.8095039227257

>  <Genealogy>  (1) 
Cc1ccc(-c2[n-]c(=O)[n-]c2C(=O)Cc2ccccc2)o1 (protonated)
Cc1ccc(-c2[n-]c(=O)[n-]c2C(=O)Cc2ccccc2)o1 (3D coordinates assigned)
Cc1ccc(-c2[n-]c(=O)[n-]c2C(=O)Cc2ccccc2)o1 (optimized conformer: 92.8095039227257 kcal/mol)

>  <smiles>  (1) 
Cc1ccc(-c2[nH]c(=O)[nH]c2C(=O)Cc2ccccc2)o1

>  <score_type>  (1) 
oracle

>  <origin>  (1) 
adg

>  <m_score__min__energy>  (1) 
-11.25

>  <m_primary>  (1) 
energy

$$$$
1:0
     RDKit          3D

 30 31  0  0  0  0  0  0  0  0999 V2000
   54.5380   25.0460   45.6260 C   0  0  0  0  0  0  0  0  0  0  0  0
   55.1390   26.3170   45.9970 N   0  0  0  0  0  0  0  0  0  0  0  0
   56.5540   26.5010   46.0940 C   0  0  0  0  0  0  0  0  0  0  0  0
   57.0320   27.4010   46.8370 O   0  0  0  0  0  0  0  0  0  0  0  0
   57.4700   25.6360   45.2890 C   0  0  0  0  0  0  0  0  0  0  0  0
   57.7890   26.3810   43.6530 S   0  0  0  0  0  0  0  0  0  0  0  0
   58.0340   28.0400   44.2880 C   0  0  0  0  0  0  0  0  0  0  0  0
   59.2780   28.4360   44.7800 C   0  0  0  0  0  0  0  0  0  0  0  0
   59.4350   29.7310   45.2670 C   0  0  0  0  0  0  0  0  0  0  0  0
   58.3420   30.6100   45.2530 C   0  0  0  0  0  0  0  0  0  0  0  0
   58.4500   32.0000   45.7620 C   0  0  0  0  0  0  0  0  0  0  0  0
   59.5280   32.3600   46.5890 C   0  0  0  0  0  0  0  0  0  0  0  0
   59.6260   33.6670   47.0680 C   0  0  0  0  0  0  0  0  0  0  0  0
   58.6530   34.6040   46.7290 C   0  0  0  0  0  0  0  0  0  0  0  0
   57.5860   34.2180   45.9170 C   0  0  0  0  0  0  0  0  0  0  0  0
   57.5020   32.9390   45.4560 N   0  0  0  0  0  0  0  0  0  0  0  0
   57.1480   30.1590   44.7750 N   0  0  0  0  0  0  0  0  0  0  0  0
   56.9990   28.9170   44.3080 N   0  0  0  0  0  0  0  0  0  0  0  0
   54.2733   24.4863   46.5352 H   0  0  0  0  0  0  0  0  0  0  0  0
   53.6311   25.2290   45.0311 H   0  0  0  0  0  0  0  0  0  0  0  0
   55.2549   24.4612   45.0311 H   0  0  0  0  0  0  0  0  0  0  0  0
   58.4233   25.5218   45.8258 H   0  0  0  0  0  0  0  0  0  0  0  0
   56.9937   24.6551   45.1441 H   0  0  0  0  0  0  0  0  0  0  0  0
   60.1246   27.7337   44.7832 H   0  0  0  0  0  0  0  0  0  0  0  0
   60.4079   30.0619   45.6594 H   0  0  0  0  0  0  0  0  0  0  0  0
   60.2911   31.6147   46.8575 H   0  0  0  0  0  0  0  0  0  0  0  0
   60.4697   33.9565   47.7117 H   0  0  0  0  0  0  0  0  0  0  0  0
   58.7250   35.6379   47.0977 H   0  0  0  0  0  0  0  0  0  0  0  0
   56.8096   34.9494   45.6481 H   0  0  0  0  0  0  0  0  0  0  0  0
   56.6690   32.6870   44.8790 H   0  0  0  0  0  0  0  0  0  0  0  0
  1  2  1  0
  2  3  1  0
  3  4  2  0
  3  5  1  0
  5  6  1  0
  6  7  1  0
  7  8  2  0
  8  9  1  0
  9 10  2  0
 10 11  1  0
 11 12  2  0
 12 13  1  0
 13 14  2  0
 14 15  1  0
 15 16  2  0
 10 17  1  0
 17 18  2  0
 18  7  1  0
 16 11  1  0
  1 19  1  0
  1 20  1  0
  1 21  1  0
  5 22  1  0
  5 23  1  0
  8 24  1  0
  9 25  1  0
 12 26  1  0
 13 27  1  0
 14 28  1  0
 15 29  1  0
 16 30  1  0
M  CHG  2   2  -1  16   1
M  END
>  <UniqueID>  (2) 
2

>  <SMILES>  (2) 
C[N-]C(=O)CSc1ccc(-c2cccc[nH+]2)nn1

>  <Energy>  (2) 
27.551836491592994

>  <Genealogy>  (2) 
C[N-]C(=O)CSc1ccc(-c2cccc[nH+]2)nn1 (protonated)
C[N-]C(=O)CSc1ccc(-c2cccc[nH+]2)nn1 (3D coordinates assigned)
C[N-]C(=O)CSc1ccc(-c2cccc[nH+]2)nn1 (optimized conformer: 27.551836491592994 kcal/mol)

>  <smiles>  (2) 
CNC(=O)CSc1ccc(-c2ccccn2)nn1

>  <score_type>  (2) 
oracle

>  <origin>  (2) 
adg

>  <m_score__min__energy>  (2) 
-7.3799999999999999

>  <m_primary>  (2) 
energy

$$$$
2:0
     RDKit          3D

 40 43  0  0  0  0  0  0  0  0999 V2000
   56.5480   27.0070   45.6460 O   0  0  0  0  0  0  0  0  0  0  0  0
   56.6360   28.2510   45.4590 C   0  0  0  0  0  0  0  0  0  0  0  0
   55.5230   28.9740   44.9180 N   0  0  0  0  0  0  0  0  0  0  0  0
   55.5770   29.7160   43.6640 C   0  0  0  0  0  0  0  0  0  0  0  0
   56.5050   30.8820   43.7910 C   0  0  0  0  0  0  0  0  0  0  0  0
   57.4030   31.3050   42.8330 C   0  0  0  0  0  0  0  0  0  0  0  0
   58.0190   32.4140   43.3680 C   0  0  0  0  0  0  0  0  0  0  0  0
   57.4570   32.6010   44.6150 C   0  0  0  0  0  0  0  0  0  0  0  0
   56.5560   31.6720   44.8380 O   0  0  0  0  0  0  0  0  0  0  0  0
   57.8870   28.9510   45.8000 C   0  0  0  0  0  0  0  0  0  0  0  0
   59.1330   28.4760   45.3550 C   0  0  0  0  0  0  0  0  0  0  0  0
   60.2980   29.1640   45.6980 C   0  0  0  0  0  0  0  0  0  0  0  0
   60.2190   30.3210   46.4820 C   0  0  0  0  0  0  0  0  0  0  0  0
   61.3710   31.0360   46.8440 C   0  0  0  0  0  0  0  0  0  0  0  0
   61.2630   32.2030   47.6240 C   0  0  0  0  0  0  0  0  0  0  0  0
   62.3920   32.9370   48.0190 O   0  0  0  0  0  0  0  0  0  0  0  0
   63.3570   32.5100   48.9430 C   0  0  0  0  0  0  0  0  0  0  0  0
   64.6230   33.1130   49.0390 C   0  0  0  0  0  0  0  0  0  0  0  0
   65.5400   32.6590   49.9900 C   0  0  0  0  0  0  0  0  0  0  0  0
   65.1790   31.6160   50.8440 C   0  0  0  0  0  0  0  0  0  0  0  0
   63.9440   31.0560   50.7510 N   0  0  0  0  0  0  0  0  0  0  0  0
   63.0340   31.4800   49.8330 C   0  0  0  0  0  0  0  0  0  0  0  0
   60.0020   32.6240   48.0620 C   0  0  0  0  0  0  0  0  0  0  0  0
   58.8500   31.9160   47.7040 C   0  0  0  0  0  0  0  0  0  0  0  0
   58.9530   30.7690   46.9130 C   0  0  0  0  0  0  0  0  0  0  0  0
   57.8350   30.0780   46.5640 N   0  0  0  0  0  0  0  0  0  0  0  0
   55.9362   29.0516   42.8643 H   0  0  0  0  0  0  0  0  0  0  0  0
   54.5693   30.0851   43.4227 H   0  0  0  0  0  0  0  0  0  0  0  0
   57.5881   30.8514   41.8481 H   0  0  0  0  0  0  0  0  0  0  0  0
   58.8012   33.0273   42.8969 H   0  0  0  0  0  0  0  0  0  0  0  0
   57.7235   33.4061   45.3156 H   0  0  0  0  0  0  0  0  0  0  0  0
   59.1896   27.5662   44.7393 H   0  0  0  0  0  0  0  0  0  0  0  0
   61.2762   28.7978   45.3530 H   0  0  0  0  0  0  0  0  0  0  0  0
   62.3606   30.6838   46.5176 H   0  0  0  0  0  0  0  0  0  0  0  0
   64.8913   33.9410   48.3664 H   0  0  0  0  0  0  0  0  0  0  0  0
   66.5364   33.1189   50.0649 H   0  0  0  0  0  0  0  0  0  0  0  0
   65.8947   31.2467   51.5932 H   0  0  0  0  0  0  0  0  0  0  0  0
   62.0399   31.0110   49.7903 H   0  0  0  0  0  0  0  0  0  0  0  0
   59.9161   33.5203   48.6939 H   0  0  0  0  0  0  0  0  0  0  0  0
   57.8632   32.2622   48.0452 H   0  0  0  0  0  0  0  0  0  0  0  0
  1  2  2  0
  2  3  1  0
  3  4  1  0
  4  5  1  0
  5  6  2  0
  6  7  1  0
  7  8  2  0
  8  9  1  0
  2 10  1  0
 10 11  2  0
 11 12  1  0
 12 13  2  0
 13 14  1  0
 14 15  2  0
 15 16  1  0
 16 17  1  0
 17 18  2  0
 18 19  1  0
 19 20  2  0
 20 21  1  0
 21 22  2  0
 15 23  1  0
 23 24  2  0
 24 25  1  0
 25 26  2  0
  9  5  1  0
 26 10  1  0
 25 13  1  0
 22 17  1  0
  4 27  1  0
  4 28  1  0
  6 29  1  0
  7 30  1  0
  8 31  1  0
 11 32  1  0
 12 33  1  0
 14 34  1  0
 18 35  1  0
 19 36  1  0
 20 37  1  0
 22 38  1  0
 23 39  1  0
 24 40  1  0
M  CHG  1   3  -1
M  END
>  <UniqueID>  (3) 
3

>  <SMILES>  (3) 
O=C([N-]Cc1ccco1)c1ccc2cc(Oc3cccnc3)ccc2n1

>  <Energy>  (3) 
77.77539334388973

>  <Genealogy>  (3) 
O=C([N-]Cc1ccco1)c1ccc2cc(Oc3cccnc3)ccc2n1 (protonated)
O=C([N-]Cc1ccco1)c1ccc2cc(Oc3cccnc3)ccc2n1 (3D coordinates assigned)
O=C([N-]Cc1ccco1)c1ccc2cc(Oc3cccnc3)ccc2n1 (optimized conformer: 77.77539334388973 kcal/mol)

>  <smiles>  (3) 
O=C(NCc1ccco1)c1ccc2cc(Oc3cccnc3)ccc2n1

>  <score_type>  (3) 
oracle

>  <origin>  (3) 
adg

>  <m_score__min__energy>  (3) 
-10.5

>  <m_primary>  (3) 
energy

$$$$
3:0
     RDKit          3D

 58 61  0  0  0  0  0  0  0  0999 V2000
   56.3310   32.9525   44.9759 H   0  0  0  0  0  0  0  0  0  0  0  0
   57.3840   32.6400   45.0360 C   0  0  0  0  0  0  0  0  0  0  0  0
   57.7100   31.4640   44.4950 C   0  0  0  0  0  0  0  0  0  0  0  0
   58.7263   31.3134   44.1020 H   0  0  0  0  0  0  0  0  0  0  0  0
   56.5410   30.1480   44.3990 S   0  0  0  0  0  0  0  0  0  0  0  0
   56.6880   29.5230   43.0410 O   0  0  0  0  0  0  0  0  0  0  0  0
   55.1490   30.7070   44.4930 O   0  0  0  0  0  0  0  0  0  0  0  0
   56.7330   28.8840   45.5950 N   0  0  0  0  0  0  0  0  0  0  0  0
   58.1110   28.4520   45.8850 C   0  0  2  0  0  0  0  0  0  0  0  0
   58.0359   27.5268   46.4752 H   0  0  0  0  0  0  0  0  0  0  0  0
   58.8720   29.3900   46.7950 C   0  0  0  0  0  0  0  0  0  0  0  0
   58.2630   29.9220   47.7640 O   0  0  0  0  0  0  0  0  0  0  0  0
   60.2950   29.5960   46.6340 N   0  0  0  0  0  0  0  0  0  0  0  0
   61.0150   30.4390   47.5560 C   0  0  0  0  0  0  0  0  0  0  0  0
   61.5990   31.6380   47.1250 C   0  0  0  0  0  0  0  0  0  0  0  0
   61.5308   31.9315   46.0671 H   0  0  0  0  0  0  0  0  0  0  0  0
   62.2660   32.4600   48.0320 C   0  0  0  0  0  0  0  0  0  0  0  0
   62.7067   33.4108   47.6978 H   0  0  0  0  0  0  0  0  0  0  0  0
   62.3710   32.0660   49.3730 C   0  0  0  0  0  0  0  0  0  0  0  0
   63.0280   32.9710   50.3780 C   0  0  0  0  0  0  0  0  0  0  0  0
   63.0092   34.0055   50.0045 H   0  0  0  0  0  0  0  0  0  0  0  0
   62.4827   32.9100   51.3314 H   0  0  0  0  0  0  0  0  0  0  0  0
   64.4540   32.5450   50.5950 C   0  0  0  0  0  0  0  0  0  0  0  0
   65.5130   33.3720   50.1820 C   0  0  0  0  0  0  0  0  0  0  0  0
   65.2990   34.3531   49.7329 H   0  0  0  0  0  0  0  0  0  0  0  0
   66.8380   32.9520   50.3400 C   0  0  0  0  0  0  0  0  0  0  0  0
   67.6631   33.6064   50.0223 H   0  0  0  0  0  0  0  0  0  0  0  0
   67.1150   31.7020   50.9010 C   0  0  0  0  0  0  0  0  0  0  0  0
   68.1575   31.3739   51.0257 H   0  0  0  0  0  0  0  0  0  0  0  0
   66.0660   30.8680   51.3040 C   0  0  0  0  0  0  0  0  0  0  0  0
   66.2842   29.8839   51.7445 H   0  0  0  0  0  0  0  0  0  0  0  0
   64.7410   31.2850   51.1470 C   0  0  0  0  0  0  0  0  0  0  0  0
   63.9188   30.6234   51.4572 H   0  0  0  0  0  0  0  0  0  0  0  0
   61.8110   30.8880   49.7750 N   0  0  0  0  0  0  0  0  0  0  0  0
   61.8810   30.5950   50.7760 H   0  0  0  0  0  0  0  0  0  0  0  0
   61.1500   30.0760   48.9050 C   0  0  0  0  0  0  0  0  0  0  0  0
   60.7188   29.1290   49.2617 H   0  0  0  0  0  0  0  0  0  0  0  0
   60.9910   29.1140   45.4310 C   0  0  0  0  0  0  0  0  0  0  0  0
   62.0365   28.8905   45.6897 H   0  0  0  0  0  0  0  0  0  0  0  0
   60.9337   29.9003   44.6639 H   0  0  0  0  0  0  0  0  0  0  0  0
   60.3400   27.8520   44.8680 C   0  0  0  0  0  0  0  0  0  0  0  0
   60.4393   27.0350   45.5979 H   0  0  0  0  0  0  0  0  0  0  0  0
   60.8411   27.5777   43.9279 H   0  0  0  0  0  0  0  0  0  0  0  0
   58.8610   28.1030   44.5900 C   0  0  0  0  0  0  0  0  0  0  0  0
   58.4184   27.1970   44.1505 H   0  0  0  0  0  0  0  0  0  0  0  0
   58.7731   28.9502   43.8939 H   0  0  0  0  0  0  0  0  0  0  0  0
   58.3320   33.5560   45.7110 C   0  0  0  0  0  0  0  0  0  0  0  0
   58.9620   34.5900   45.0430 C   0  0  0  0  0  0  0  0  0  0  0  0
   58.8639   34.8361   43.9754 H   0  0  0  0  0  0  0  0  0  0  0  0
   59.7360   35.2530   45.9700 C   0  0  0  0  0  0  0  0  0  0  0  0
   60.3805   36.1250   45.7851 H   0  0  0  0  0  0  0  0  0  0  0  0
   59.5450   34.6100   47.1750 C   0  0  0  0  0  0  0  0  0  0  0  0
   60.0285   34.8917   48.1221 H   0  0  0  0  0  0  0  0  0  0  0  0
   58.6800   33.5860   47.0250 N   0  0  0  0  0  0  0  0  0  0  0  0
   58.2430   32.7210   48.1180 C   0  0  0  0  0  0  0  0  0  0  0  0
   58.4832   33.1965   49.0804 H   0  0  0  0  0  0  0  0  0  0  0  0
   57.1567   32.5626   48.0483 H   0  0  0  0  0  0  0  0  0  0  0  0
   58.7600   31.7526   48.0483 H   0  0  0  0  0  0  0  0  0  0  0  0
  1  2  1  0
  2  3  2  0
  3  4  1  0
  3  5  1  0
  5  6  2  0
  5  7  2  0
  5  8  1  0
  8  9  1  0
  9 10  1  1
  9 11  1  0
 11 12  2  0
 11 13  1  0
 13 14  1  0
 14 15  2  0
 15 16  1  0
 15 17  1  0
 17 18  1  0
 17 19  2  0
 19 20  1  0
 20 21  1  0
 20 22  1  0
 20 23  1  0
 23 24  2  0
 24 25  1  0
 24 26  1  0
 26 27  1  0
 26 28  2  0
 28 29  1  0
 28 30  1  0
 30 31  1  0
 30 32  2  0
 32 33  1  0
 19 34  1  0
 34 35  1  0
 34 36  2  0
 36 37  1  0
 13 38  1  0
 38 39  1  0
 38 40  1  0
 38 41  1  0
 41 42  1  0
 41 43  1  0
 41 44  1  0
 44 45  1  0
 44 46  1  0
  2 47  1  0
 47 48  2  0
 48 49  1  0
 48 50  1  0
 50 51  1  0
 50 52  2  0
 52 53  1  0
 52 54  1  0
 54 55  1  0
 55 56  1  0
 55 57  1  0
 55 58  1  0
 44  9  1  0
 54 47  1  0
 36 14  1  0
 32 23  1  0
M  CHG  2   8  -1  34   1
M  END
>  <UniqueID>  (4) 
4

>  <SMILES>  (4) 
Cn1cccc1/C=C/S(=O)(=O)[N-][C@H]1CCCN(c2ccc(Cc3ccccc3)[nH+]c2)C1=O

>  <Energy>  (4) 
93.62862417700062

>  <Genealogy>  (4) 
Cn1cccc1C=CS(=O)(=O)[N-]C1CCCN(c2ccc(Cc3ccccc3)[nH+]c2)C1=O (protonated)
Cn1cccc1C=CS(=O)(=O)[N-][C@H]1CCCN(c2ccc(Cc3ccccc3)[nH+]c2)C1=O (chirality)
Cn1cccc1/C=C/S(=O)(=O)[N-][C@H]1CCCN(c2ccc(Cc3ccccc3)[nH+]c2)C1=O (cis-trans isomerization)
Cn1cccc1/C=C/S(=O)(=O)[N-][C@H]1CCCN(c2ccc(Cc3ccccc3)[nH+]c2)C1=O (3D coordinates assigned)
Cn1cccc1/C=C/S(=O)(=O)[N-][C@H]1CCCN(c2ccc(Cc3ccccc3)[nH+]c2)C1=O (nonaromatic ring conformer: 93.62862417700062 kcal/mol)

>  <smiles>  (4) 
Cn1cccc1C=CS(=O)(=O)NC1CCCN(c2ccc(Cc3ccccc3)nc2)C1=O

>  <score_type>  (4) 
oracle

>  <origin>  (4) 
adg

>  <m_score__min__energy>  (4) 
-10.94

>  <m_primary>  (4) 
energy

$$$$
4:0
     RDKit          3D

 28 30  0  0  0  0  0  0  0  0999 V2000
   59.8120   34.4130   49.0980 O   0  0  0  0  0  0  0  0  0  0  0  0
   59.4390   34.2750   47.9040 C   0  0  0  0  0  0  0  0  0  0  0  0
   59.3870   35.3400   46.9570 N   0  0  0  0  0  0  0  0  0  0  0  0
   58.9180   34.7270   45.7570 C   0  0  0  0  0  0  0  0  0  0  0  0
   58.7380   35.3450   44.6750 O   0  0  0  0  0  0  0  0  0  0  0  0
   58.6870   33.3040   45.9730 C   0  0  0  0  0  0  0  0  0  0  0  0
   58.2470   32.3100   45.1030 C   0  0  0  0  0  0  0  0  0  0  0  0
   58.1140   30.9930   45.6050 C   0  0  0  0  0  0  0  0  0  0  0  0
   57.6740   29.9130   44.7690 N   0  0  0  0  0  0  0  0  0  0  0  0
   56.7830   28.8550   45.1490 C   0  0  0  0  0  0  0  0  0  0  0  0
   55.5540   28.9860   44.9050 O   0  0  0  0  0  0  0  0  0  0  0  0
   57.2660   27.6050   45.7820 C   0  0  0  0  0  0  0  0  0  0  0  0
   58.6370   27.4450   46.0410 C   0  0  0  0  0  0  0  0  0  0  0  0
   59.1100   26.2690   46.6220 C   0  0  0  0  0  0  0  0  0  0  0  0
   58.2070   25.2590   46.9530 C   0  0  0  0  0  0  0  0  0  0  0  0
   56.8800   25.4300   46.7210 N   0  0  0  0  0  0  0  0  0  0  0  0
   56.3880   26.5650   46.1570 C   0  0  0  0  0  0  0  0  0  0  0  0
   55.1440   26.6810   45.9950 O   0  0  0  0  0  0  0  0  0  0  0  0
   58.4630   30.7150   46.9460 C   0  0  0  0  0  0  0  0  0  0  0  0
   58.9090   31.7380   47.8020 C   0  0  0  0  0  0  0  0  0  0  0  0
   59.0060   33.0270   47.2840 C   0  0  0  0  0  0  0  0  0  0  0  0
   59.6370   36.3430   47.1070 H   0  0  0  0  0  0  0  0  0  0  0  0
   58.0092   32.5417   44.0543 H   0  0  0  0  0  0  0  0  0  0  0  0
   59.3406   28.2507   45.7845 H   0  0  0  0  0  0  0  0  0  0  0  0
   60.1847   26.1392   46.8173 H   0  0  0  0  0  0  0  0  0  0  0  0
   58.5701   24.3230   47.4024 H   0  0  0  0  0  0  0  0  0  0  0  0
   58.3848   29.6854   47.3251 H   0  0  0  0  0  0  0  0  0  0  0  0
   59.1731   31.5264   48.8486 H   0  0  0  0  0  0  0  0  0  0  0  0
  1  2  2  0
  2  3  1  0
  3  4  1  0
  4  5  2  0
  4  6  1  0
  6  7  2  0
  7  8  1  0
  8  9  1  0
  9 10  1  0
 10 11  2  0
 10 12  1  0
 12 13  2  0
 13 14  1  0
 14 15  2  0
 15 16  1  0
 16 17  1  0
 17 18  2  0
  8 19  2  0
 19 20  1  0
 20 21  2  0
 21  2  1  0
 21  6  1  0
 17 12  1  0
  3 22  1  0
  7 23  1  0
 13 24  1  0
 14 25  1  0
 15 26  1  0
 19 27  1  0
 20 28  1  0
M  CHG  2   9  -1  16  -1
M  END
>  <UniqueID>  (5) 
5

>  <SMILES>  (5) 
O=C1NC(=O)c2cc([N-]C(=O)c3ccc[n-]c3=O)ccc21

>  <Energy>  (5) 
71.9273716034497

>  <Genealogy>  (5) 
O=C1NC(=O)c2cc([N-]C(=O)c3ccc[n-]c3=O)ccc21 (protonated)
O=C1NC(=O)c2cc([N-]C(=O)c3ccc[n-]c3=O)ccc21 (3D coordinates assigned)
O=C1NC(=O)c2cc([N-]C(=O)c3ccc[n-]c3=O)ccc21 (nonaromatic ring conformer: 71.9273716034497 kcal/mol)

>  <smiles>  (5) 
O=C1NC(=O)c2cc(NC(=O)c3ccc[nH]c3=O)ccc21

>  <score_type>  (5) 
oracle

>  <origin>  (5) 
adg

>  <m_score__min__energy>  (5) 
-10.960000000000001

>  <m_primary>  (5) 
energy

$$$$
5:0
     RDKit          3D

 19 20  0  0  0  0  0  0  0  0999 V2000
   55.8240   24.7810   47.1200 O   0  0  0  0  0  0  0  0  0  0  0  0
   55.8880   25.8090   46.3960 C   0  0  0  0  0  0  0  0  0  0  0  0
   54.7020   26.3410   45.9030 O   0  0  0  0  0  0  0  0  0  0  0  0
   57.2010   26.4430   46.0730 C   0  0  0  0  0  0  0  0  0  0  0  0
   58.4010   25.7370   46.3200 C   0  0  0  0  0  0  0  0  0  0  0  0
   58.3890   24.4870   46.8480 F   0  0  0  0  0  0  0  0  0  0  0  0
   59.6410   26.3100   46.0240 C   0  0  0  0  0  0  0  0  0  0  0  0
   59.7200   27.5890   45.4800 C   0  0  0  0  0  0  0  0  0  0  0  0
   58.5510   28.3130   45.2240 C   0  0  0  0  0  0  0  0  0  0  0  0
   58.6150   29.6020   44.6760 C   0  0  0  0  0  0  0  0  0  0  0  0
   57.4420   30.3120   44.4270 C   0  0  0  0  0  0  0  0  0  0  0  0
   56.2100   29.7260   44.7270 C   0  0  0  0  0  0  0  0  0  0  0  0
   55.1420   30.3530   44.5080 O   0  0  0  0  0  0  0  0  0  0  0  0
   56.1630   28.4760   45.2570 N   0  0  0  0  0  0  0  0  0  0  0  0
   57.2860   27.7480   45.5170 C   0  0  0  0  0  0  0  0  0  0  0  0
   60.5635   25.7448   46.2228 H   0  0  0  0  0  0  0  0  0  0  0  0
   60.7015   28.0301   45.2516 H   0  0  0  0  0  0  0  0  0  0  0  0
   59.5909   30.0527   44.4427 H   0  0  0  0  0  0  0  0  0  0  0  0
   57.4859   31.3241   43.9984 H   0  0  0  0  0  0  0  0  0  0  0  0
  1  2  2  0
  2  3  1  0
  2  4  1  0
  4  5  2  0
  5  6  1  0
  5  7  1  0
  7  8  2  0
  8  9  1  0
  9 10  1  0
 10 11  2  0
 11 12  1  0
 12 13  2  0
 12 14  1  0
 14 15  1  0
 15  4  1  0
 15  9  2  0
  7 16  1  0
  8 17  1  0
 10 18  1  0
 11 19  1  0
M  CHG  2   3  -1  14  -1
M  END
>  <UniqueID>  (6) 
6

>  <SMILES>  (6) 
O=C([O-])c1c(F)ccc2ccc(=O)[n-]c12

>  <Energy>  (6) 
27.741741309552637

>  <Genealogy>  (6) 
O=C([O-])c1c(F)ccc2ccc(=O)[n-]c12 (protonated)
O=C([O-])c1c(F)ccc2ccc(=O)[n-]c12 (3D coordinates assigned)
O=C([O-])c1c(F)ccc2ccc(=O)[n-]c12 (optimized conformer: 27.741741309552637 kcal/mol)

>  <smiles>  (6) 
O=C(O)c1c(F)ccc2ccc(=O)[nH]c12

>  <score_type>  (6) 
oracle

>  <origin>  (6) 
adg

>  <m_score__min__energy>  (6) 
-11.25

>  <m_primary>  (6) 
energy

$$$$
6:0
     RDKit          3D

 31 32  0  0  0  0  0  0  0  0999 V2000
   58.0830   26.3820   47.1210 C   0  0  0  0  0  0  0  0  0  0  0  0
   56.7620   25.9890   45.9930 S   0  0  0  0  0  0  0  0  0  0  0  0
   55.8600   24.9430   46.5850 O   0  0  0  0  0  0  0  0  0  0  0  0
   57.3580   25.4520   44.7230 O   0  0  0  0  0  0  0  0  0  0  0  0
   55.8520   27.4170   45.6190 N   0  0  0  0  0  0  0  0  0  0  0  0
   56.4010   28.6870   45.2370 C   0  0  0  0  0  0  0  0  0  0  0  0
   55.7700   29.5280   44.3040 C   0  0  0  0  0  0  0  0  0  0  0  0
   56.3420   30.7580   43.9640 C   0  0  0  0  0  0  0  0  0  0  0  0
   57.5460   31.1730   44.5560 C   0  0  0  0  0  0  0  0  0  0  0  0
   58.1520   32.4720   44.1730 C   0  0  0  0  0  0  0  0  0  0  0  0
   58.2920   32.7400   42.9470 O   0  0  0  0  0  0  0  0  0  0  0  0
   58.5980   33.4680   45.1770 C   0  0  0  0  0  0  0  0  0  0  0  0
   59.2190   34.6690   44.7810 C   0  0  0  0  0  0  0  0  0  0  0  0
   59.6500   35.5910   45.7400 C   0  0  0  0  0  0  0  0  0  0  0  0
   59.4760   35.3220   47.0990 C   0  0  0  0  0  0  0  0  0  0  0  0
   58.8750   34.1280   47.5030 C   0  0  0  0  0  0  0  0  0  0  0  0
   58.4420   33.2020   46.5490 C   0  0  0  0  0  0  0  0  0  0  0  0
   58.1830   30.3210   45.4730 C   0  0  0  0  0  0  0  0  0  0  0  0
   57.6110   29.0920   45.8130 C   0  0  0  0  0  0  0  0  0  0  0  0
   57.7254   26.2756   48.1558 H   0  0  0  0  0  0  0  0  0  0  0  0
   58.9259   25.6957   46.9520 H   0  0  0  0  0  0  0  0  0  0  0  0
   58.4137   27.4174   46.9520 H   0  0  0  0  0  0  0  0  0  0  0  0
   54.8225   29.2174   43.8395 H   0  0  0  0  0  0  0  0  0  0  0  0
   55.8448   31.4057   43.2269 H   0  0  0  0  0  0  0  0  0  0  0  0
   59.3656   34.8826   43.7119 H   0  0  0  0  0  0  0  0  0  0  0  0
   60.1271   36.5301   45.4231 H   0  0  0  0  0  0  0  0  0  0  0  0
   59.8123   36.0506   47.8514 H   0  0  0  0  0  0  0  0  0  0  0  0
   58.7419   33.9155   48.5740 H   0  0  0  0  0  0  0  0  0  0  0  0
   57.9765   32.2597   46.8737 H   0  0  0  0  0  0  0  0  0  0  0  0
   59.1385   30.6230   45.9266 H   0  0  0  0  0  0  0  0  0  0  0  0
   58.1156   28.4376   46.5391 H   0  0  0  0  0  0  0  0  0  0  0  0
  1  2  1  0
  2  3  2  0
  2  4  2  0
  2  5  1  0
  5  6  1  0
  6  7  2  0
  7  8  1  0
  8  9  2  0
  9 10  1  0
 10 11  2  0
 10 12  1  0
 12 13  2  0
 13 14  1  0
 14 15  2  0
 15 16  1  0
 16 17  2  0
  9 18  1  0
 18 19  2  0
 19  6  1  0
 17 12  1  0
  1 20  1  0
  1 21  1  0
  1 22  1  0
  7 23  1  0
  8 24  1  0
 13 25  1  0
 14 26  1  0
 15 27  1  0
 16 28  1  0
 17 29  1  0
 18 30  1  0
 19 31  1  0
M  CHG  1   5  -1
M  END
>  <UniqueID>  (7) 
7

>  <SMILES>  (7) 
CS(=O)(=O)[N-]c1ccc(C(=O)c2ccccc2)cc1

>  <Energy>  (7) 
36.86249419441882

>  <Genealogy>  (7) 
CS(=O)(=O)[N-]c1ccc(C(=O)c2ccccc2)cc1 (protonated)
CS(=O)(=O)[N-]c1ccc(C(=O)c2ccccc2)cc1 (3D coordinates assigned)
CS(=O)(=O)[N-]c1ccc(C(=O)c2ccccc2)cc1 (optimized conformer: 36.86249419441882 kcal/mol)

>  <smiles>  (7) 
CS(=O)(=O)Nc1ccc(C(=O)c2ccccc2)cc1

>  <score_type>  (7) 
oracle

>  <origin>  (7) 
adg

>  <m_score__min__energy>  (7) 
-9.6400000000000006

>  <m_primary>  (7) 
energy

$$$$
7:0
     RDKit          3D

 43 46  0  0  0  0  0  0  0  0999 V2000
   66.3610   32.3020   50.4180 C   0  0  0  0  0  0  0  0  0  0  0  0
   64.9120   32.6550   50.2560 C   0  0  0  0  0  0  0  0  0  0  0  0
   64.4250   33.8740   50.7480 C   0  0  0  0  0  0  0  0  0  0  0  0
   63.0830   34.2140   50.5790 C   0  0  0  0  0  0  0  0  0  0  0  0
   62.2060   33.3470   49.9170 C   0  0  0  0  0  0  0  0  0  0  0  0
   60.8500   33.7030   49.8650 O   0  0  0  0  0  0  0  0  0  0  0  0
   60.0230   33.6150   48.7300 C   0  0  0  0  0  0  0  0  0  0  0  0
   60.3320   34.4390   47.6400 C   0  0  0  0  0  0  0  0  0  0  0  0
   59.5860   34.3760   46.4630 C   0  0  0  0  0  0  0  0  0  0  0  0
   58.5040   33.4940   46.3620 C   0  0  0  0  0  0  0  0  0  0  0  0
   57.5610   33.4100   44.8790 S   0  0  0  0  0  0  0  0  0  0  0  0
   58.4860   33.3540   43.6950 O   0  0  0  0  0  0  0  0  0  0  0  0
   56.6840   34.6260   44.7860 O   0  0  0  0  0  0  0  0  0  0  0  0
   56.5860   31.9750   44.9050 N   0  0  0  0  0  0  0  0  0  0  0  0
   57.0590   30.7690   44.8190 C   0  0  0  0  0  0  0  0  0  0  0  0
   56.2840   29.6790   44.9900 N   0  0  0  0  0  0  0  0  0  0  0  0
   56.9980   28.5290   44.8530 C   0  0  0  0  0  0  0  0  0  0  0  0
   58.3490   28.7030   44.5710 C   0  0  0  0  0  0  0  0  0  0  0  0
   58.6600   30.3540   44.4910 S   0  0  0  0  0  0  0  0  0  0  0  0
   58.1550   32.7000   47.4610 C   0  0  0  0  0  0  0  0  0  0  0  0
   58.8980   32.7580   48.6470 C   0  0  0  0  0  0  0  0  0  0  0  0
   58.4420   31.9800   49.7730 C   0  0  0  0  0  0  0  0  0  0  0  0
   58.0750   31.3570   50.6770 N   0  0  0  0  0  0  0  0  0  0  0  0
   62.7080   32.1540   49.3390 C   0  0  0  0  0  0  0  0  0  0  0  0
   61.8790   31.2700   48.4950 C   0  0  0  0  0  0  0  0  0  0  0  0
   61.8540   31.2150   47.1170 C   0  0  0  0  0  0  0  0  0  0  0  0
   60.9420   30.2190   46.8430 C   0  0  0  0  0  0  0  0  0  0  0  0
   60.4720   29.7140   47.9990 N   0  0  0  0  0  0  0  0  0  0  0  0
   61.0570   30.3610   48.9650 O   0  0  0  0  0  0  0  0  0  0  0  0
   64.0550   31.8090   49.5390 C   0  0  0  0  0  0  0  0  0  0  0  0
   66.6063   32.2422   51.4886 H   0  0  0  0  0  0  0  0  0  0  0  0
   66.5570   31.3298   49.9421 H   0  0  0  0  0  0  0  0  0  0  0  0
   66.9822   33.0751   49.9421 H   0  0  0  0  0  0  0  0  0  0  0  0
   65.1039   34.5649   51.2693 H   0  0  0  0  0  0  0  0  0  0  0  0
   62.7103   35.1724   50.9696 H   0  0  0  0  0  0  0  0  0  0  0  0
   61.1730   35.1442   47.7132 H   0  0  0  0  0  0  0  0  0  0  0  0
   59.8488   35.0213   45.6119 H   0  0  0  0  0  0  0  0  0  0  0  0
   56.5403   27.5342   44.9576 H   0  0  0  0  0  0  0  0  0  0  0  0
   59.0864   27.8998   44.4255 H   0  0  0  0  0  0  0  0  0  0  0  0
   57.2895   32.0245   47.3925 H   0  0  0  0  0  0  0  0  0  0  0  0
   62.4281   31.8241   46.4033 H   0  0  0  0  0  0  0  0  0  0  0  0
   60.6445   29.8883   45.8370 H   0  0  0  0  0  0  0  0  0  0  0  0
   64.4414   30.8645   49.1284 H   0  0  0  0  0  0  0  0  0  0  0  0
  1  2  1  0
  2  3  2  0
  3  4  1  0
  4  5  2  0
  5  6  1  0
  6  7  1  0
  7  8  2  0
  8  9  1  0
  9 10  2  0
 10 11  1  0
 11 12  2  0
 11 13  2  0
 11 14  1  0
 14 15  2  3
 15 16  1  0
 16 17  1  0
 17 18  2  0
 18 19  1  0
 10 20  1  0
 20 21  2  0
 21 22  1  0
 22 23  3  0
  5 24  1  0
 24 25  1  0
 25 26  2  0
 26 27  1  0
 27 28  2  0
 28 29  1  0
 24 30  2  0
 30  2  1  0
 21  7  1  0
 29 25  1  0
 19 15  1  0
  1 31  1  0
  1 32  1  0
  1 33  1  0
  3 34  1  0
  4 35  1  0
  8 36  1  0
  9 37  1  0
 17 38  1  0
 18 39  1  0
 20 40  1  0
 26 41  1  0
 27 42  1  0
 30 43  1  0
M  CHG  1  16  -1
M  END
>  <UniqueID>  (8) 
8

>  <SMILES>  (8) 
Cc1ccc(Oc2ccc(S(=O)(=O)N=c3[n-]ccs3)cc2C#N)c(-c2ccno2)c1

>  <Energy>  (8) 
124.13576083048063

>  <Genealogy>  (8) 
Cc1ccc(Oc2ccc(S(=O)(=O)N=c3[n-]ccs3)cc2C#N)c(-c2ccno2)c1 (protonated)
Cc1ccc(Oc2ccc(S(=O)(=O)N=c3[n-]ccs3)cc2C#N)c(-c2ccno2)c1 (3D coordinates assigned)
Cc1ccc(Oc2ccc(S(=O)(=O)N=c3[n-]ccs3)cc2C#N)c(-c2ccno2)c1 (optimized conformer: 124.13576083048063 kcal/mol)

>  <smiles>  (8) 
Cc1ccc(Oc2ccc(S(=O)(=O)N=c3[nH]ccs3)cc2C#N)c(-c2ccno2)c1

>  <score_type>  (8) 
oracle

>  <origin>  (8) 
adg

>  <m_score__min__energy>  (8) 
-11.35

>  <m_primary>  (8) 
energy

$$$$
8:0
     RDKit          3D

 73 76  0  0  0  0  0  0  0  0999 V2000
   61.0700   28.7400   44.8770 C   0  0  0  0  0  0  0  0  0  0  0  0
   60.0720   29.6210   45.4980 N   0  0  0  0  0  0  0  0  0  0  0  0
   60.5340   30.6780   46.4080 C   0  0  0  0  0  0  0  0  0  0  0  0
   58.6550   29.4510   45.2160 C   0  0  0  0  0  0  0  0  0  0  0  0
   57.9030   30.4880   44.6200 C   0  0  0  0  0  0  0  0  0  0  0  0
   56.5410   30.3230   44.3570 C   0  0  0  0  0  0  0  0  0  0  0  0
   55.9000   29.1300   44.6860 C   0  0  0  0  0  0  0  0  0  0  0  0
   56.6190   28.0930   45.2900 C   0  0  0  0  0  0  0  0  0  0  0  0
   55.9740   26.8670   45.6320 N   0  0  0  0  0  0  0  0  0  0  0  0
   56.6050   25.3320   45.1380 S   0  0  0  0  0  0  0  0  0  0  0  0
   55.7490   24.8040   44.0220 O   0  0  0  0  0  0  0  0  0  0  0  0
   58.0030   25.5180   44.6190 O   0  0  0  0  0  0  0  0  0  0  0  0
   56.5720   24.1580   46.4890 C   0  0  0  0  0  0  0  0  0  0  0  0
   56.7020   24.8620   47.8460 C   0  0  0  0  0  0  0  0  0  0  0  0
   58.1530   25.2450   48.1600 C   0  0  0  0  0  0  0  0  0  0  0  0
   58.7030   26.1080   47.1030 N   0  0  0  0  0  0  0  0  0  0  0  0
   60.0390   26.6050   47.4570 C   0  0  0  0  0  0  0  0  0  0  0  0
   59.9750   27.5720   48.6140 C   0  0  0  0  0  0  0  0  0  0  0  0
   60.7610   27.3640   49.7550 C   0  0  0  0  0  0  0  0  0  0  0  0
   60.7140   28.2690   50.8180 C   0  0  0  0  0  0  0  0  0  0  0  0
   59.8740   29.3940   50.7610 C   0  0  0  0  0  0  0  0  0  0  0  0
   59.8470   30.3700   51.8730 C   0  0  0  0  0  0  0  0  0  0  0  0
   60.1900   30.0160   53.0350 O   0  0  0  0  0  0  0  0  0  0  0  0
   59.4290   31.7220   51.6320 N   0  0  0  0  0  0  0  0  0  0  0  0
   60.0010   32.5850   50.6390 C   0  0  0  0  0  0  0  0  0  0  0  0
   59.2940   32.7810   49.4460 C   0  0  0  0  0  0  0  0  0  0  0  0
   59.8090   33.5990   48.4270 C   0  0  0  0  0  0  0  0  0  0  0  0
   59.0480   33.8050   47.1690 C   0  0  0  0  0  0  0  0  0  0  0  0
   59.6150   34.5240   46.1000 C   0  0  0  0  0  0  0  0  0  0  0  0
   58.8910   34.7300   44.9210 C   0  0  0  0  0  0  0  0  0  0  0  0
   57.5990   34.2170   44.7940 C   0  0  0  0  0  0  0  0  0  0  0  0
   57.0280   33.4960   45.8460 C   0  0  0  0  0  0  0  0  0  0  0  0
   57.7460   33.2900   47.0280 C   0  0  0  0  0  0  0  0  0  0  0  0
   61.0480   34.2270   48.6200 C   0  0  0  0  0  0  0  0  0  0  0  0
   61.7460   34.0640   49.8180 C   0  0  0  0  0  0  0  0  0  0  0  0
   61.2230   33.2670   50.8460 C   0  0  0  0  0  0  0  0  0  0  0  0
   61.9050   33.2240   52.1050 N   0  0  0  0  0  0  0  0  0  0  0  0
   59.0830   29.5970   49.6160 C   0  0  0  0  0  0  0  0  0  0  0  0
   59.1410   28.6990   48.5490 C   0  0  0  0  0  0  0  0  0  0  0  0
   57.9890   28.2460   45.5340 C   0  0  0  0  0  0  0  0  0  0  0  0
   61.6478   28.2299   45.6619 H   0  0  0  0  0  0  0  0  0  0  0  0
   60.5604   27.9918   44.2521 H   0  0  0  0  0  0  0  0  0  0  0  0
   61.7492   29.3385   44.2521 H   0  0  0  0  0  0  0  0  0  0  0  0
   60.3920   30.3532   47.4493 H   0  0  0  0  0  0  0  0  0  0  0  0
   61.6009   30.8763   46.2280 H   0  0  0  0  0  0  0  0  0  0  0  0
   59.9550   31.5958   46.2280 H   0  0  0  0  0  0  0  0  0  0  0  0
   58.3958   31.4365   44.3600 H   0  0  0  0  0  0  0  0  0  0  0  0
   55.9715   31.1388   43.8878 H   0  0  0  0  0  0  0  0  0  0  0  0
   54.8287   29.0038   44.4707 H   0  0  0  0  0  0  0  0  0  0  0  0
   55.6202   23.6072   46.4613 H   0  0  0  0  0  0  0  0  0  0  0  0
   57.4237   23.4718   46.3721 H   0  0  0  0  0  0  0  0  0  0  0  0
   56.0891   25.7753   47.8320 H   0  0  0  0  0  0  0  0  0  0  0  0
   56.3598   24.1638   48.6241 H   0  0  0  0  0  0  0  0  0  0  0  0
   58.1851   25.7832   49.1188 H   0  0  0  0  0  0  0  0  0  0  0  0
   58.7567   24.3273   48.2173 H   0  0  0  0  0  0  0  0  0  0  0  0
   58.8060   25.5300   46.2330 H   0  0  0  0  0  0  0  0  0  0  0  0
   60.6759   25.7529   47.7369 H   0  0  0  0  0  0  0  0  0  0  0  0
   60.4555   27.1323   46.5861 H   0  0  0  0  0  0  0  0  0  0  0  0
   61.4182   26.4839   49.8140 H   0  0  0  0  0  0  0  0  0  0  0  0
   61.3396   28.0996   51.7068 H   0  0  0  0  0  0  0  0  0  0  0  0
   58.3213   32.2871   49.3050 H   0  0  0  0  0  0  0  0  0  0  0  0
   60.6345   34.9267   46.1924 H   0  0  0  0  0  0  0  0  0  0  0  0
   59.3405   35.2972   44.0926 H   0  0  0  0  0  0  0  0  0  0  0  0
   57.0307   34.3802   43.8664 H   0  0  0  0  0  0  0  0  0  0  0  0
   56.0110   33.0894   45.7440 H   0  0  0  0  0  0  0  0  0  0  0  0
   57.2904   32.7220   47.8525 H   0  0  0  0  0  0  0  0  0  0  0  0
   61.4731   34.8527   47.8214 H   0  0  0  0  0  0  0  0  0  0  0  0
   62.7152   34.5655   49.9566 H   0  0  0  0  0  0  0  0  0  0  0  0
   62.7970   33.7400   52.2590 H   0  0  0  0  0  0  0  0  0  0  0  0
   61.5940   32.5670   52.8550 H   0  0  0  0  0  0  0  0  0  0  0  0
   58.4145   30.4688   49.5610 H   0  0  0  0  0  0  0  0  0  0  0  0
   58.5295   28.8756   47.6519 H   0  0  0  0  0  0  0  0  0  0  0  0
   58.5557   27.4154   45.9801 H   0  0  0  0  0  0  0  0  0  0  0  0
  1  2  1  0
  2  3  1  0
  2  4  1  0
  4  5  2  0
  5  6  1  0
  6  7  2  0
  7  8  1  0
  8  9  1  0
  9 10  1  0
 10 11  2  0
 10 12  2  0
 10 13  1  0
 13 14  1  0
 14 15  1  0
 15 16  1  0
 16 17  1  0
 17 18  1  0
 18 19  2  0
 19 20  1  0
 20 21  2  0
 21 22  1  0
 22 23  2  0
 22 24  1  0
 24 25  1  0
 25 26  2  0
 26 27  1  0
 27 28  1  0
 28 29  2  0
 29 30  1  0
 30 31  2  0
 31 32  1  0
 32 33  2  0
 27 34  2  0
 34 35  1  0
 35 36  2  0
 36 37  1  0
 21 38  1  0
 38 39  2  0
  8 40  2  0
 40  4  1  0
 39 18  1  0
 36 25  1  0
 33 28  1  0
  1 41  1  0
  1 42  1  0
  1 43  1  0
  3 44  1  0
  3 45  1  0
  3 46  1  0
  5 47  1  0
  6 48  1  0
  7 49  1  0
 13 50  1  0
 13 51  1  0
 14 52  1  0
 14 53  1  0
 15 54  1  0
 15 55  1  0
 16 56  1  0
 17 57  1  0
 17 58  1  0
 19 59  1  0
 20 60  1  0
 26 61  1  0
 29 62  1  0
 30 63  1  0
 31 64  1  0
 32 65  1  0
 33 66  1  0
 34 67  1  0
 35 68  1  0
 37 69  1  0
 37 70  1  0
 38 71  1  0
 39 72  1  0
 40 73  1  0
M  CHG  2   9  -1  24  -1
M  END
>  <UniqueID>  (9) 
9

>  <SMILES>  (9) 
CN(C)c1cccc([N-]S(=O)(=O)CCCNCc2ccc(C(=O)[N-]c3cc(-c4ccccc4)ccc3N)cc2)c1

>  <Energy>  (9) 
91.83612696547726

>  <Genealogy>  (9) 
CN(C)c1cccc([N-]S(=O)(=O)CCCNCc2ccc(C(=O)[N-]c3cc(-c4ccccc4)ccc3N)cc2)c1 (protonated)
CN(C)c1cccc([N-]S(=O)(=O)CCCNCc2ccc(C(=O)[N-]c3cc(-c4ccccc4)ccc3N)cc2)c1 (3D coordinates assigned)
CN(C)c1cccc([N-]S(=O)(=O)CCCNCc2ccc(C(=O)[N-]c3cc(-c4ccccc4)ccc3N)cc2)c1 (optimized conformer: 91.83612696547726 kcal/mol)

>  <smiles>  (9) 
CN(C)c1cccc(NS(=O)(=O)CCCNCc2ccc(C(=O)Nc3cc(-c4ccccc4)ccc3N)cc2)c1

>  <score_type>  (9) 
oracle

>  <origin>  (9) 
adg

>  <m_score__min__energy>  (9) 
-12.470000000000001

>  <m_primary>  (9) 
energy

$$$$
9:0
     RDKit          3D

 46 49  0  0  0  0  0  0  0  0999 V2000
   58.1380   22.7410   44.9150 C   0  0  0  0  0  0  0  0  0  0  0  0
   57.7530   23.4390   46.0840 O   0  0  0  0  0  0  0  0  0  0  0  0
   58.0600   24.7860   46.1870 C   0  0  0  0  0  0  0  0  0  0  0  0
   59.3580   25.1690   46.0540 C   0  0  0  0  0  0  0  0  0  0  0  0
   59.6680   26.5110   46.1550 C   0  0  0  0  0  0  0  0  0  0  0  0
   58.6830   27.4510   46.3860 C   0  0  0  0  0  0  0  0  0  0  0  0
   58.9840   28.8760   46.4950 C   0  0  0  0  0  0  0  0  0  0  0  0
   59.9220   29.4240   47.2840 N   0  0  0  0  0  0  0  0  0  0  0  0
   59.9350   30.7620   47.1370 C   0  0  0  0  0  0  0  0  0  0  0  0
   60.7980   31.7460   47.8060 C   0  0  0  0  0  0  0  0  0  0  0  0
   62.1450   31.8610   47.4840 C   0  0  0  0  0  0  0  0  0  0  0  0
   62.9470   32.7980   48.1260 C   0  0  0  0  0  0  0  0  0  0  0  0
   62.3830   33.6180   49.0950 C   0  0  0  0  0  0  0  0  0  0  0  0
   63.1200   34.5510   49.7560 F   0  0  0  0  0  0  0  0  0  0  0  0
   61.0400   33.4990   49.4120 C   0  0  0  0  0  0  0  0  0  0  0  0
   60.2420   32.5790   48.7840 C   0  0  0  0  0  0  0  0  0  0  0  0
   58.9580   31.0720   46.2130 C   0  0  0  0  0  0  0  0  0  0  0  0
   58.6310   32.4180   45.7560 C   0  0  0  0  0  0  0  0  0  0  0  0
   59.6140   33.3980   45.6260 C   0  0  0  0  0  0  0  0  0  0  0  0
   59.2690   34.6570   45.1920 C   0  0  0  0  0  0  0  0  0  0  0  0
   57.9860   34.9400   44.8970 N   0  0  0  0  0  0  0  0  0  0  0  0
   57.0450   34.0110   45.0180 C   0  0  0  0  0  0  0  0  0  0  0  0
   57.3060   32.7270   45.4450 C   0  0  0  0  0  0  0  0  0  0  0  0
   58.3880   29.9030   45.8310 N   0  0  0  0  0  0  0  0  0  0  0  0
   57.3800   27.0230   46.5140 C   0  0  0  0  0  0  0  0  0  0  0  0
   57.0360   25.6910   46.4180 C   0  0  0  0  0  0  0  0  0  0  0  0
   55.7530   25.2100   46.5380 O   0  0  0  0  0  0  0  0  0  0  0  0
   55.0600   24.5950   45.4800 C   0  0  0  0  0  0  0  0  0  0  0  0
   58.6516   21.8098   45.1963 H   0  0  0  0  0  0  0  0  0  0  0  0
   57.2444   22.5015   44.3199 H   0  0  0  0  0  0  0  0  0  0  0  0
   58.8173   23.3690   44.3199 H   0  0  0  0  0  0  0  0  0  0  0  0
   60.1461   24.4241   45.8695 H   0  0  0  0  0  0  0  0  0  0  0  0
   60.7138   26.8356   46.0500 H   0  0  0  0  0  0  0  0  0  0  0  0
   62.5801   31.2056   46.7152 H   0  0  0  0  0  0  0  0  0  0  0  0
   64.0130   32.8886   47.8702 H   0  0  0  0  0  0  0  0  0  0  0  0
   60.6063   34.1546   50.1815 H   0  0  0  0  0  0  0  0  0  0  0  0
   59.1767   32.4960   49.0454 H   0  0  0  0  0  0  0  0  0  0  0  0
   60.6612   33.1655   45.8695 H   0  0  0  0  0  0  0  0  0  0  0  0
   60.0415   35.4328   45.0859 H   0  0  0  0  0  0  0  0  0  0  0  0
   56.0084   34.2789   44.7655 H   0  0  0  0  0  0  0  0  0  0  0  0
   56.5052   31.9785   45.5367 H   0  0  0  0  0  0  0  0  0  0  0  0
   57.6210   29.8280   45.1450 H   0  0  0  0  0  0  0  0  0  0  0  0
   56.5901   27.7660   46.6983 H   0  0  0  0  0  0  0  0  0  0  0  0
   54.2958   23.9168   45.8874 H   0  0  0  0  0  0  0  0  0  0  0  0
   54.5749   25.3654   44.8625 H   0  0  0  0  0  0  0  0  0  0  0  0
   55.7672   24.0218   44.8625 H   0  0  0  0  0  0  0  0  0  0  0  0
  1  2  1  0
  2  3  1  0
  3  4  2  0
  4  5  1  0
  5  6  2  0
  6  7  1  0
  7  8  2  0
  8  9  1  0
  9 10  1  0
 10 11  2  0
 11 12  1  0
 12 13  2  0
 13 14  1  0
 13 15  1  0
 15 16  2  0
  9 17  2  0
 17 18  1  0
 18 19  2  0
 19 20  1  0
 20 21  2  0
 21 22  1  0
 22 23  2  0
 17 24  1  0
  6 25  1  0
 25 26  2  0
 26 27  1  0
 27 28  1  0
 26  3  1  0
 24  7  1  0
 16 10  1  0
 23 18  1  0
  1 29  1  0
  1 30  1  0
  1 31  1  0
  4 32  1  0
  5 33  1  0
 11 34  1  0
 12 35  1  0
 15 36  1  0
 16 37  1  0
 19 38  1  0
 20 39  1  0
 22 40  1  0
 23 41  1  0
 24 42  1  0
 25 43  1  0
 28 44  1  0
 28 45  1  0
 28 46  1  0
M  END
>  <smiles>  (10) 
COc1ccc(-c2nc(-c3ccc(F)cc3)c(-c3ccncc3)[nH]2)cc1OC

>  <score_type>  (10) 
oracle

>  <origin>  (10) 
adg

>  <m_score__min__energy>  (10) 
-7.2000000000000002

>  <m_primary>  (10) 
energy

$$$$
10:0
     RDKit          3D

 83 87  0  0  0  0  0  0  0  0999 V2000
   61.6829   27.2306   50.6834 H   0  0  0  0  0  0  0  0  0  0  0  0
   61.0180   28.1020   50.5910 C   0  0  0  0  0  0  0  0  0  0  0  0
   60.0960   28.3520   51.5470 N   0  0  0  0  0  0  0  0  0  0  0  0
   59.2380   29.4010   51.4650 C   0  0  0  0  0  0  0  0  0  0  0  0
   58.3040   29.5740   52.4930 C   0  0  0  0  0  0  0  0  0  0  0  0
   58.3012   28.8851   53.3505 H   0  0  0  0  0  0  0  0  0  0  0  0
   57.3790   30.6120   52.4370 C   0  0  0  0  0  0  0  0  0  0  0  0
   56.2140   30.8250   53.7310 Cl  0  0  0  0  0  0  0  0  0  0  0  0
   57.3710   31.4720   51.3410 C   0  0  0  0  0  0  0  0  0  0  0  0
   56.6290   32.2824   51.2893 H   0  0  0  0  0  0  0  0  0  0  0  0
   58.2980   31.3140   50.3060 C   0  0  0  0  0  0  0  0  0  0  0  0
   58.2628   31.9929   49.4412 H   0  0  0  0  0  0  0  0  0  0  0  0
   59.2820   30.2950   50.3510 C   0  0  0  0  0  0  0  0  0  0  0  0
   56.8100   27.9330   45.6560 C   0  0  0  0  0  0  0  0  0  0  0  0
   56.0490   26.8780   45.7230 N   0  0  0  0  0  0  0  0  0  0  0  0
   61.5760   30.8180   47.2590 C   0  0  0  0  0  0  0  0  0  0  0  0
   62.5081   30.3934   47.6601 H   0  0  0  0  0  0  0  0  0  0  0  0
   61.7260   31.8564   46.9286 H   0  0  0  0  0  0  0  0  0  0  0  0
   61.1330   29.9880   46.0440 C   0  0  0  0  0  0  0  0  0  0  0  0
   62.0014   29.4452   45.6425 H   0  0  0  0  0  0  0  0  0  0  0  0
   60.7210   30.6686   45.2843 H   0  0  0  0  0  0  0  0  0  0  0  0
   60.0980   29.0250   46.4200 N   0  0  0  0  0  0  0  0  0  0  0  0
   58.8630   29.0500   46.0080 C   0  0  0  0  0  0  0  0  0  0  0  0
   58.3100   30.1990   45.5340 N   0  0  0  0  0  0  0  0  0  0  0  0
   57.0100   30.2230   45.1350 C   0  0  0  0  0  0  0  0  0  0  0  0
   56.4600   31.3170   44.6970 N   0  0  0  0  0  0  0  0  0  0  0  0
   57.0370   32.6620   44.7920 C   0  0  0  0  0  0  0  0  0  0  0  0
   56.4527   33.3643   44.1793 H   0  0  0  0  0  0  0  0  0  0  0  0
   58.4830   32.6770   44.2350 C   0  0  0  0  0  0  0  0  0  0  0  0
   58.8652   31.6458   44.2120 H   0  0  0  0  0  0  0  0  0  0  0  0
   58.4534   33.1136   43.2258 H   0  0  0  0  0  0  0  0  0  0  0  0
   59.4210   33.5330   45.0930 C   0  0  0  0  0  0  0  0  0  0  0  0
   60.4261   33.5235   44.6461 H   0  0  0  0  0  0  0  0  0  0  0  0
   59.0246   34.5585   45.1289 H   0  0  0  0  0  0  0  0  0  0  0  0
   59.5010   33.0110   46.4730 N   0  0  0  0  0  0  0  0  0  0  0  0
   60.3170   34.1650   47.5050 S   0  0  0  0  0  0  0  0  0  0  0  0
   59.9860   35.5600   47.0540 O   0  0  0  0  0  0  0  0  0  0  0  0
   59.8440   33.9900   48.9230 O   0  0  0  0  0  0  0  0  0  0  0  0
   62.0980   33.9530   47.4620 C   0  0  0  0  0  0  0  0  0  0  0  0
   62.3458   33.2405   46.6614 H   0  0  0  0  0  0  0  0  0  0  0  0
   62.5405   34.9444   47.2853 H   0  0  0  0  0  0  0  0  0  0  0  0
   62.6810   33.4210   48.7900 C   0  0  0  0  0  0  0  0  0  0  0  0
   62.0470   32.5837   49.1169 H   0  0  0  0  0  0  0  0  0  0  0  0
   62.6680   34.5340   49.8480 C   0  0  0  0  0  0  0  0  0  0  0  0
   62.6732   34.0853   50.8523 H   0  0  0  0  0  0  0  0  0  0  0  0
   63.5588   35.1675   49.7248 H   0  0  0  0  0  0  0  0  0  0  0  0
   61.7626   35.1465   49.7248 H   0  0  0  0  0  0  0  0  0  0  0  0
   64.1100   32.8830   48.6210 C   0  0  0  0  0  0  0  0  0  0  0  0
   64.5578   32.7144   49.6115 H   0  0  0  0  0  0  0  0  0  0  0  0
   64.0812   31.9341   48.0653 H   0  0  0  0  0  0  0  0  0  0  0  0
   64.7141   33.6152   48.0653 H   0  0  0  0  0  0  0  0  0  0  0  0
   58.1930   32.6050   47.0530 C   0  0  0  0  0  0  0  0  0  0  0  0
   58.1476   31.5061   47.0743 H   0  0  0  0  0  0  0  0  0  0  0  0
   58.1351   33.0446   48.0597 H   0  0  0  0  0  0  0  0  0  0  0  0
   56.9820   33.1270   46.2610 C   0  0  0  0  0  0  0  0  0  0  0  0
   56.0593   32.7470   46.7238 H   0  0  0  0  0  0  0  0  0  0  0  0
   56.9998   34.2267   46.2802 H   0  0  0  0  0  0  0  0  0  0  0  0
   56.2690   29.0920   45.2060 N   0  0  0  0  0  0  0  0  0  0  0  0
   60.2960   30.0670   49.3540 C   0  0  0  0  0  0  0  0  0  0  0  0
   60.5630   30.8170   48.3130 N   0  0  0  0  0  0  0  0  0  0  0  0
   56.4630   25.5180   45.9160 C   0  0  0  0  0  0  0  0  0  0  0  0
   56.4790   24.6070   44.8490 C   0  0  0  0  0  0  0  0  0  0  0  0
   56.2458   24.9516   43.8307 H   0  0  0  0  0  0  0  0  0  0  0  0
   56.7900   23.2640   45.0750 C   0  0  0  0  0  0  0  0  0  0  0  0
   56.8115   22.5581   44.2316 H   0  0  0  0  0  0  0  0  0  0  0  0
   57.0760   22.8090   46.3760 C   0  0  0  0  0  0  0  0  0  0  0  0
   57.3750   21.4650   46.6460 O   0  0  0  0  0  0  0  0  0  0  0  0
   57.3280   20.4160   45.6840 C   0  0  0  0  0  0  0  0  0  0  0  0
   57.2845   19.4460   46.2010 H   0  0  0  0  0  0  0  0  0  0  0  0
   56.4343   20.5360   45.0540 H   0  0  0  0  0  0  0  0  0  0  0  0
   58.2288   20.4556   45.0540 H   0  0  0  0  0  0  0  0  0  0  0  0
   57.0520   23.7150   47.4480 C   0  0  0  0  0  0  0  0  0  0  0  0
   57.3460   23.2340   48.7350 O   0  0  0  0  0  0  0  0  0  0  0  0
   56.5940   22.2320   49.4120 C   0  0  0  0  0  0  0  0  0  0  0  0
   56.6963   22.3683   50.4987 H   0  0  0  0  0  0  0  0  0  0  0  0
   55.5340   22.3159   49.1301 H   0  0  0  0  0  0  0  0  0  0  0  0
   56.9707   21.2377   49.1301 H   0  0  0  0  0  0  0  0  0  0  0  0
   56.7310   25.0660   47.2110 C   0  0  0  0  0  0  0  0  0  0  0  0
   56.6909   25.7721   48.0535 H   0  0  0  0  0  0  0  0  0  0  0  0
   58.1150   27.9150   46.0650 N   0  0  0  0  0  0  0  0  0  0  0  0
   58.5470   27.0520   46.4630 H   0  0  0  0  0  0  0  0  0  0  0  0
   61.1270   28.9450   49.4910 C   0  0  0  0  0  0  0  0  0  0  0  0
   61.8768   28.7289   48.7157 H   0  0  0  0  0  0  0  0  0  0  0  0
  1  2  1  0
  2  3  1  0
  3  4  1  0
  4  5  2  0
  5  6  1  0
  5  7  1  0
  7  8  1  0
  7  9  2  0
  9 10  1  0
  9 11  1  0
 11 12  1  0
 11 13  2  0
 13 14  1  0
 14 15  2  0
 15 16  1  0
 16 17  1  0
 16 18  1  0
 16 19  1  0
 19 20  1  0
 19 21  1  0
 19 22  1  0
 22 23  2  3
 23 24  1  0
 24 25  1  0
 25 26  2  3
 26 27  1  0
 27 28  1  0
 27 29  1  0
 29 30  1  0
 29 31  1  0
 29 32  1  0
 32 33  1  0
 32 34  1  0
 32 35  1  0
 35 36  1  0
 36 37  2  0
 36 38  2  0
 36 39  1  0
 39 40  1  0
 39 41  1  0
 39 42  1  0
 42 43  1  0
 42 44  1  0
 44 45  1  0
 44 46  1  0
 44 47  1  0
 42 48  1  0
 48 49  1  0
 48 50  1  0
 48 51  1  0
 35 52  1  0
 52 53  1  0
 52 54  1  0
 52 55  1  0
 55 56  1  0
 55 57  1  0
 25 58  1  0
 58 59  1  0
 59 60  2  0
 60 61  1  0
 61 62  2  0
 62 63  1  0
 62 64  1  0
 64 65  1  0
 64 66  2  0
 66 67  1  0
 67 68  1  0
 68 69  1  0
 68 70  1  0
 68 71  1  0
 66 72  1  0
 72 73  1  0
 73 74  1  0
 74 75  1  0
 74 76  1  0
 74 77  1  0
 72 78  2  0
 78 79  1  0
 59 80  1  0
 80 81  1  0
 14 82  1  0
 82 83  1  0
 82  2  2  0
 13  4  1  0
 80 23  1  0
 55 27  1  0
 78 61  1  0
M  CHG  3   3  -1  24  -1  58  -1
M  END
>  <UniqueID>  (11) 
10

>  <SMILES>  (11) 
COc1ccc(/N=c2/[n-]c(=NC3CCN(S(=O)(=O)CC(C)C)CC3)[n-]c(=NCC/N=c3/cc[n-]c4cc(Cl)ccc34)[nH]2)cc1OC

>  <Energy>  (11) 
111.92704391106714

>  <Genealogy>  (11) 
COc1ccc(N=c2[n-]c(=NC3CCN(S(=O)(=O)CC(C)C)CC3)[n-]c(=NCCN=c3cc[n-]c4cc(Cl)ccc34)[nH]2)cc1OC (protonated)
COc1ccc(/N=c2/[n-]c(=NC3CCN(S(=O)(=O)CC(C)C)CC3)[n-]c(=NCC/N=c3/cc[n-]c4cc(Cl)ccc34)[nH]2)cc1OC (cis-trans isomerization)
COc1ccc(/N=c2/[n-]c(=NC3CCN(S(=O)(=O)CC(C)C)CC3)[n-]c(=NCC/N=c3/cc[n-]c4cc(Cl)ccc34)[nH]2)cc1OC (3D coordinates assigned)
COc1ccc(/N=c2/[n-]c(=NC3CCN(S(=O)(=O)CC(C)C)CC3)[n-]c(=NCC/N=c3/cc[n-]c4cc(Cl)ccc34)[nH]2)cc1OC (nonaromatic ring conformer: 111.92704391106714 kcal/mol)

>  <smiles>  (11) 
COc1ccc(N=c2[nH]c(=NCCN=c3cc[nH]c4cc(Cl)ccc34)[nH]c(=NC3CCN(S(=O)(=O)CC(C)C)CC3)[nH]2)cc1OC

>  <score_type>  (11) 
oracle

>  <origin>  (11) 
adg

>  <m_score__min__energy>  (11) 
-14.58

>  <m_primary>  (11) 
energy

$$$$
11:0
     RDKit          3D

 43 45  0  0  0  0  0  0  0  0999 V2000
   57.0020   31.7390   52.7840 C   0  0  0  0  0  0  0  0  0  0  0  0
   57.5800   30.6170   51.9770 C   0  0  0  0  0  0  0  0  0  0  0  0
   57.0000   29.4990   51.9850 O   0  0  0  0  0  0  0  0  0  0  0  0
   58.7490   30.7860   51.1630 N   0  0  0  0  0  0  0  0  0  0  0  0
   58.7790   31.1040   49.7650 C   0  0  0  0  0  0  0  0  0  0  0  0
   59.1860   30.1220   48.8550 C   0  0  0  0  0  0  0  0  0  0  0  0
   59.2380   30.4030   47.4870 C   0  0  0  0  0  0  0  0  0  0  0  0
   58.9020   31.6750   47.0110 C   0  0  0  0  0  0  0  0  0  0  0  0
   58.8980   31.9090   45.5960 N   0  0  0  0  0  0  0  0  0  0  0  0
   57.7150   31.9260   44.7950 C   0  0  0  0  0  0  0  0  0  0  0  0
   56.9430   32.9200   44.8360 O   0  0  0  0  0  0  0  0  0  0  0  0
   57.3900   30.7490   43.9290 C   0  0  0  0  0  0  0  0  0  0  0  0
   57.5030   29.5190   44.7130 N   0  0  0  0  0  0  0  0  0  0  0  0
   56.4890   28.7010   45.0730 C   0  0  0  0  0  0  0  0  0  0  0  0
   55.1430   28.9960   44.8910 O   0  0  0  0  0  0  0  0  0  0  0  0
   56.9840   27.5270   45.6000 C   0  0  0  0  0  0  0  0  0  0  0  0
   58.3570   27.6320   45.5800 C   0  0  0  0  0  0  0  0  0  0  0  0
   58.6450   28.8560   45.0010 C   0  0  0  0  0  0  0  0  0  0  0  0
   59.9170   29.3350   44.6990 O   0  0  0  0  0  0  0  0  0  0  0  0
   59.2850   26.5030   45.9110 C   0  0  0  0  0  0  0  0  0  0  0  0
   58.5490   25.4210   46.7280 C   0  0  0  0  0  0  0  0  0  0  0  0
   57.1580   25.0990   46.1370 C   0  0  0  0  0  0  0  0  0  0  0  0
   56.2400   26.3360   46.1220 C   0  0  0  0  0  0  0  0  0  0  0  0
   58.5300   32.6760   47.9290 C   0  0  0  0  0  0  0  0  0  0  0  0
   58.4770   32.3930   49.2960 C   0  0  0  0  0  0  0  0  0  0  0  0
   57.1164   31.5170   53.8553 H   0  0  0  0  0  0  0  0  0  0  0  0
   57.5310   32.6733   52.5446 H   0  0  0  0  0  0  0  0  0  0  0  0
   55.9342   31.8506   52.5446 H   0  0  0  0  0  0  0  0  0  0  0  0
   59.4668   29.1226   49.2187 H   0  0  0  0  0  0  0  0  0  0  0  0
   59.5452   29.6187   46.7796 H   0  0  0  0  0  0  0  0  0  0  0  0
   56.3630   30.8473   43.5475 H   0  0  0  0  0  0  0  0  0  0  0  0
   58.0936   30.7106   43.0843 H   0  0  0  0  0  0  0  0  0  0  0  0
   60.1790   30.2910   44.9010 H   0  0  0  0  0  0  0  0  0  0  0  0
   59.6617   26.0585   44.9780 H   0  0  0  0  0  0  0  0  0  0  0  0
   60.1213   26.8935   46.5094 H   0  0  0  0  0  0  0  0  0  0  0  0
   59.1555   24.5033   46.7303 H   0  0  0  0  0  0  0  0  0  0  0  0
   58.4051   25.8040   47.7491 H   0  0  0  0  0  0  0  0  0  0  0  0
   57.2847   24.7376   45.1058 H   0  0  0  0  0  0  0  0  0  0  0  0
   56.6874   24.3328   46.7706 H   0  0  0  0  0  0  0  0  0  0  0  0
   55.3730   26.1371   45.4749 H   0  0  0  0  0  0  0  0  0  0  0  0
   55.9031   26.5450   47.1481 H   0  0  0  0  0  0  0  0  0  0  0  0
   58.2802   33.6847   47.5683 H   0  0  0  0  0  0  0  0  0  0  0  0
   58.1975   33.1833   50.0083 H   0  0  0  0  0  0  0  0  0  0  0  0
  1  2  1  0
  2  3  2  0
  2  4  1  0
  4  5  1  0
  5  6  2  0
  6  7  1  0
  7  8  2  0
  8  9  1  0
  9 10  1  0
 10 11  2  0
 10 12  1  0
 12 13  1  0
 13 14  1  0
 14 15  1  0
 14 16  2  0
 16 17  1  0
 17 18  2  0
 18 19  1  0
 17 20  1  0
 20 21  1  0
 21 22  1  0
 22 23  1  0
  8 24  1  0
 24 25  2  0
 25  5  1  0
 18 13  1  0
 23 16  1  0
  1 26  1  0
  1 27  1  0
  1 28  1  0
  6 29  1  0
  7 30  1  0
 12 31  1  0
 12 32  1  0
 19 33  1  0
 20 34  1  0
 20 35  1  0
 21 36  1  0
 21 37  1  0
 22 38  1  0
 22 39  1  0
 23 40  1  0
 23 41  1  0
 24 42  1  0
 25 43  1  0
M  CHG  3   4  -1   9  -1  15  -1
M  END
>  <UniqueID>  (12) 
11

>  <SMILES>  (12) 
CC(=O)[N-]c1ccc([N-]C(=O)Cn2c([O-])c3c(c2O)CCCC3)cc1

>  <Energy>  (12) 
78.14408090013902

>  <Genealogy>  (12) 
CC(=O)[N-]c1ccc([N-]C(=O)Cn2c([O-])c3c(c2O)CCCC3)cc1 (protonated)
CC(=O)[N-]c1ccc([N-]C(=O)Cn2c([O-])c3c(c2O)CCCC3)cc1 (3D coordinates assigned)
CC(=O)[N-]c1ccc([N-]C(=O)Cn2c([O-])c3c(c2O)CCCC3)cc1 (nonaromatic ring conformer: 78.14408090013902 kcal/mol)

>  <smiles>  (12) 
CC(=O)Nc1ccc(NC(=O)Cn2c(O)c3c(c2O)CCCC3)cc1

>  <score_type>  (12) 
oracle

>  <origin>  (12) 
adg

>  <m_score__min__energy>  (12) 
-12.800000000000001

>  <m_primary>  (12) 
energy

$$$$
12:0
     RDKit          3D

 29 30  0  0  0  0  0  0  0  0999 V2000
   54.5473   25.2126   46.3063 H   0  0  0  0  0  0  0  0  0  0  0  0
   55.3020   24.8440   45.5960 C   0  0  0  0  0  0  0  0  0  0  0  0
   55.1170   23.6100   44.9630 C   0  0  0  0  0  0  0  0  0  0  0  0
   54.2292   23.0028   45.1935 H   0  0  0  0  0  0  0  0  0  0  0  0
   56.0650   23.1430   44.0310 C   0  0  0  0  0  0  0  0  0  0  0  0
   55.9280   21.9130   43.3710 O   0  0  0  0  0  0  0  0  0  0  0  0
   57.0140   21.0580   43.0300 C   0  0  0  0  0  0  0  0  0  0  0  0
   57.4889   20.6841   43.9491 H   0  0  0  0  0  0  0  0  0  0  0  0
   56.6405   20.2089   42.4387 H   0  0  0  0  0  0  0  0  0  0  0  0
   57.7517   21.6203   42.4387 H   0  0  0  0  0  0  0  0  0  0  0  0
   57.1850   23.9320   43.7430 C   0  0  0  0  0  0  0  0  0  0  0  0
   57.9271   23.5794   43.0117 H   0  0  0  0  0  0  0  0  0  0  0  0
   57.3680   25.1640   44.3770 C   0  0  0  0  0  0  0  0  0  0  0  0
   58.2413   25.7846   44.1276 H   0  0  0  0  0  0  0  0  0  0  0  0
   56.4410   25.6120   45.3310 C   0  0  0  0  0  0  0  0  0  0  0  0
   56.5740   26.9000   45.9480 N   0  0  0  0  0  0  0  0  0  0  0  0
   57.6110   27.6940   45.9200 C   0  0  0  0  0  0  0  0  0  0  0  0
   57.5620   28.8780   45.1410 C   0  0  0  0  0  0  0  0  0  0  0  0
   56.4130   29.2160   44.3320 N   0  0  0  0  0  0  0  0  0  0  0  0
   56.5260   29.3280   43.0940 O   0  0  0  0  0  0  0  0  0  0  0  0
   55.1610   29.3460   44.8890 O   0  0  0  0  0  0  0  0  0  0  0  0
   58.6740   29.7370   45.1580 C   0  0  0  0  0  0  0  0  0  0  0  0
   58.6578   30.6621   44.5631 H   0  0  0  0  0  0  0  0  0  0  0  0
   59.7950   29.4270   45.9210 C   0  0  0  0  0  0  0  0  0  0  0  0
   60.6680   30.0962   45.9221 H   0  0  0  0  0  0  0  0  0  0  0  0
   59.8020   28.2640   46.6820 C   0  0  0  0  0  0  0  0  0  0  0  0
   60.6830   28.0142   47.2915 H   0  0  0  0  0  0  0  0  0  0  0  0
   58.7250   27.4330   46.6770 N   0  0  0  0  0  0  0  0  0  0  0  0
   58.7690   26.6060   47.3110 H   0  0  0  0  0  0  0  0  0  0  0  0
  1  2  1  0
  2  3  2  0
  3  4  1  0
  3  5  1  0
  5  6  1  0
  6  7  1  0
  7  8  1  0
  7  9  1  0
  7 10  1  0
  5 11  2  0
 11 12  1  0
 11 13  1  0
 13 14  1  0
 13 15  2  0
 15 16  1  0
 16 17  2  0
 17 18  1  0
 18 19  1  0
 19 20  2  0
 19 21  1  0
 18 22  2  0
 22 23  1  0
 22 24  1  0
 24 25  1  0
 24 26  2  0
 26 27  1  0
 26 28  1  0
 28 29  1  0
 15  2  1  0
 28 17  1  0
M  CHG  2  19   1  21  -1
M  END
>  <UniqueID>  (13) 
12

>  <SMILES>  (13) 
COc1ccc(/N=c2\[nH]cccc2[N+](=O)[O-])cc1

>  <Energy>  (13) 
42.21482792346157

>  <Genealogy>  (13) 
COc1ccc(/N=c2\[nH]cccc2[N+](=O)[O-])cc1 (cis-trans isomerization)
COc1ccc(/N=c2\[nH]cccc2[N+](=O)[O-])cc1 (3D coordinates assigned)
COc1ccc(/N=c2\[nH]cccc2[N+](=O)[O-])cc1 (optimized conformer: 42.21482792346157 kcal/mol)

>  <smiles>  (13) 
COc1ccc(N=c2[nH]cccc2[N+](=O)[O-])cc1

>  <score_type>  (13) 
oracle

>  <origin>  (13) 
adg

>  <m_score__min__energy>  (13) 
-6.3600000000000003

>  <m_primary>  (13) 
energy

$$$$
13:0
     RDKit          3D

 43 44  0  0  0  0  0  0  0  0999 V2000
   58.9937   25.9685   47.5837 H   0  0  0  0  0  0  0  0  0  0  0  0
   58.9860   27.0030   47.2100 C   0  0  0  0  0  0  0  0  0  0  0  0
   58.0450   27.3840   46.2460 C   0  0  0  0  0  0  0  0  0  0  0  0
   56.9290   26.1610   45.6510 Cl  0  0  0  0  0  0  0  0  0  0  0  0
   58.0230   28.7110   45.7720 C   0  0  0  0  0  0  0  0  0  0  0  0
   56.8490   29.2430   44.5630 S   0  0  0  0  0  0  0  0  0  0  0  0
   57.2180   28.7720   43.1840 O   0  0  0  0  0  0  0  0  0  0  0  0
   55.5290   28.6220   44.9210 O   0  0  0  0  0  0  0  0  0  0  0  0
   56.6420   30.9690   44.5480 N   0  0  0  0  0  0  0  0  0  0  0  0
   57.4980   31.9540   44.5690 C   0  0  0  0  0  0  0  0  0  0  0  0
   57.9540   32.5020   45.7490 C   0  0  0  0  0  0  0  0  0  0  0  0
   57.6788   32.2108   46.7735 H   0  0  0  0  0  0  0  0  0  0  0  0
   58.8340   33.4990   45.3630 C   0  0  0  0  0  0  0  0  0  0  0  0
   59.6400   34.3830   46.3070 C   0  0  0  0  0  0  0  0  0  0  0  0
   61.0870   33.8560   46.3870 C   0  0  0  0  0  0  0  0  0  0  0  0
   61.3805   33.7491   47.4417 H   0  0  0  0  0  0  0  0  0  0  0  0
   61.1490   32.8776   45.8882 H   0  0  0  0  0  0  0  0  0  0  0  0
   61.7637   34.5654   45.8882 H   0  0  0  0  0  0  0  0  0  0  0  0
   59.6480   35.8250   45.7640 C   0  0  0  0  0  0  0  0  0  0  0  0
   59.6519   36.5336   46.6054 H   0  0  0  0  0  0  0  0  0  0  0  0
   60.5470   35.9804   45.1495 H   0  0  0  0  0  0  0  0  0  0  0  0
   58.7508   35.9904   45.1495 H   0  0  0  0  0  0  0  0  0  0  0  0
   59.0400   34.3900   47.7280 C   0  0  0  0  0  0  0  0  0  0  0  0
   59.8527   34.3805   48.4692 H   0  0  0  0  0  0  0  0  0  0  0  0
   58.4302   35.2953   47.8641 H   0  0  0  0  0  0  0  0  0  0  0  0
   58.4092   33.4992   47.8641 H   0  0  0  0  0  0  0  0  0  0  0  0
   58.8920   33.5210   44.0130 N   0  0  0  0  0  0  0  0  0  0  0  0
   59.4900   34.1440   43.4260 H   0  0  0  0  0  0  0  0  0  0  0  0
   58.0800   32.5960   43.5200 N   0  0  0  0  0  0  0  0  0  0  0  0
   58.0040   32.3290   42.0870 C   0  0  0  0  0  0  0  0  0  0  0  0
   57.7062   31.2827   41.9243 H   0  0  0  0  0  0  0  0  0  0  0  0
   57.2604   32.9974   41.6284 H   0  0  0  0  0  0  0  0  0  0  0  0
   58.9881   32.5057   41.6284 H   0  0  0  0  0  0  0  0  0  0  0  0
   58.9710   29.6260   46.2520 C   0  0  0  0  0  0  0  0  0  0  0  0
   58.9771   30.6563   45.8667 H   0  0  0  0  0  0  0  0  0  0  0  0
   59.9080   29.2420   47.2150 C   0  0  0  0  0  0  0  0  0  0  0  0
   61.0660   30.4260   47.8050 Cl  0  0  0  0  0  0  0  0  0  0  0  0
   59.9220   27.9290   47.7060 C   0  0  0  0  0  0  0  0  0  0  0  0
   60.8760   27.5810   48.6760 O   0  0  0  0  0  0  0  0  0  0  0  0
   60.7270   27.8150   50.0730 C   0  0  0  0  0  0  0  0  0  0  0  0
   61.2350   27.0172   50.6346 H   0  0  0  0  0  0  0  0  0  0  0  0
   61.1731   28.7867   50.3316 H   0  0  0  0  0  0  0  0  0  0  0  0
   59.6579   27.8219   50.3316 H   0  0  0  0  0  0  0  0  0  0  0  0
  1  2  1  0
  2  3  2  0
  3  4  1  0
  3  5  1  0
  5  6  1  0
  6  7  2  0
  6  8  2  0
  6  9  1  0
  9 10  2  0
 10 11  1  0
 11 12  1  0
 11 13  2  0
 13 14  1  0
 14 15  1  0
 15 16  1  0
 15 17  1  0
 15 18  1  0
 14 19  1  0
 19 20  1  0
 19 21  1  0
 19 22  1  0
 14 23  1  0
 23 24  1  0
 23 25  1  0
 23 26  1  0
 13 27  1  0
 27 28  1  0
 27 29  1  0
 29 30  1  0
 30 31  1  0
 30 32  1  0
 30 33  1  0
  5 34  2  0
 34 35  1  0
 34 36  1  0
 36 37  1  0
 36 38  2  0
 38 39  1  0
 39 40  1  0
 40 41  1  0
 40 42  1  0
 40 43  1  0
 38  2  1  0
 29 10  1  0
M  END
>  <UniqueID>  (14) 
13

>  <SMILES>  (14) 
COc1cc(Cl)c(S(=O)(=O)/N=c2/cc(C(C)(C)C)[nH]n2C)cc1Cl

>  <Energy>  (14) 
83.53033373002197

>  <Genealogy>  (14) 
COc1cc(Cl)c(S(=O)(=O)/N=c2/cc(C(C)(C)C)[nH]n2C)cc1Cl (cis-trans isomerization)
COc1cc(Cl)c(S(=O)(=O)/N=c2/cc(C(C)(C)C)[nH]n2C)cc1Cl (3D coordinates assigned)
COc1cc(Cl)c(S(=O)(=O)/N=c2/cc(C(C)(C)C)[nH]n2C)cc1Cl (optimized conformer: 83.53033373002197 kcal/mol)

>  <smiles>  (14) 
COc1cc(Cl)c(S(=O)(=O)N=c2cc(C(C)(C)C)[nH]n2C)cc1Cl

>  <score_type>  (14) 
oracle

>  <origin>  (14) 
adg

>  <m_score__min__energy>  (14) 
-8.1300000000000008

>  <m_primary>  (14) 
energy

$$$$
14:0
     RDKit          3D

 33 34  0  0  0  0  0  0  0  0999 V2000
   54.7460   26.1620   45.9760 N   0  0  0  0  0  0  0  0  0  0  0  0
   56.3400   25.4980   46.0380 S   0  0  0  0  0  0  0  0  0  0  0  0
   56.6120   24.9830   47.4230 O   0  0  0  0  0  0  0  0  0  0  0  0
   56.4470   24.3540   45.0690 O   0  0  0  0  0  0  0  0  0  0  0  0
   57.5120   26.7440   45.6210 C   0  0  0  0  0  0  0  0  0  0  0  0
   58.8840   26.4740   45.6890 C   0  0  0  0  0  0  0  0  0  0  0  0
   59.8100   27.4690   45.3730 C   0  0  0  0  0  0  0  0  0  0  0  0
   59.3750   28.7400   44.9860 C   0  0  0  0  0  0  0  0  0  0  0  0
   58.0000   29.0270   44.9090 C   0  0  0  0  0  0  0  0  0  0  0  0
   57.5220   30.3750   44.5150 C   0  0  0  0  0  0  0  0  0  0  0  0
   56.3610   30.7420   44.8480 O   0  0  0  0  0  0  0  0  0  0  0  0
   58.3530   31.2610   43.7480 N   0  0  0  0  0  0  0  0  0  0  0  0
   58.0160   32.6680   43.5490 C   0  0  0  0  0  0  0  0  0  0  0  0
   58.3690   33.4640   44.7760 C   0  0  0  0  0  0  0  0  0  0  0  0
   59.2810   34.5280   44.6840 C   0  0  0  0  0  0  0  0  0  0  0  0
   59.6330   35.2540   45.8250 C   0  0  0  0  0  0  0  0  0  0  0  0
   59.0810   34.9210   47.0650 C   0  0  0  0  0  0  0  0  0  0  0  0
   58.1780   33.8600   47.1660 C   0  0  0  0  0  0  0  0  0  0  0  0
   57.8230   33.1310   46.0270 C   0  0  0  0  0  0  0  0  0  0  0  0
   57.0740   28.0210   45.2410 C   0  0  0  0  0  0  0  0  0  0  0  0
   54.7830   27.0880   46.4600 H   0  0  0  0  0  0  0  0  0  0  0  0
   59.2327   25.4757   45.9921 H   0  0  0  0  0  0  0  0  0  0  0  0
   60.8870   27.2523   45.4287 H   0  0  0  0  0  0  0  0  0  0  0  0
   60.1114   29.5194   44.7405 H   0  0  0  0  0  0  0  0  0  0  0  0
   59.2060   30.8910   43.2720 H   0  0  0  0  0  0  0  0  0  0  0  0
   58.5785   33.0584   42.6881 H   0  0  0  0  0  0  0  0  0  0  0  0
   56.9356   32.7559   43.3619 H   0  0  0  0  0  0  0  0  0  0  0  0
   59.7199   34.7909   43.7102 H   0  0  0  0  0  0  0  0  0  0  0  0
   60.3454   36.0885   45.7471 H   0  0  0  0  0  0  0  0  0  0  0  0
   59.3577   35.4947   47.9619 H   0  0  0  0  0  0  0  0  0  0  0  0
   57.7457   33.5977   48.1429 H   0  0  0  0  0  0  0  0  0  0  0  0
   57.1140   32.2941   46.1106 H   0  0  0  0  0  0  0  0  0  0  0  0
   55.9963   28.2382   45.2021 H   0  0  0  0  0  0  0  0  0  0  0  0
  1  2  1  0
  2  3  2  0
  2  4  2  0
  2  5  1  0
  5  6  2  0
  6  7  1  0
  7  8  2  0
  8  9  1  0
  9 10  1  0
 10 11  2  0
 10 12  1  0
 12 13  1  0
 13 14  1  0
 14 15  2  0
 15 16  1  0
 16 17  2  0
 17 18  1  0
 18 19  2  0
  9 20  2  0
 20  5  1  0
 19 14  1  0
  1 21  1  0
  6 22  1  0
  7 23  1  0
  8 24  1  0
 12 25  1  0
 13 26  1  0
 13 27  1  0
 15 28  1  0
 16 29  1  0
 17 30  1  0
 18 31  1  0
 19 32  1  0
 20 33  1  0
M  CHG  1   1  -1
M  END
>  <UniqueID>  (15) 
14

>  <SMILES>  (15) 
[NH-]S(=O)(=O)c1cccc(C(=O)NCc2ccccc2)c1

>  <Energy>  (15) 
33.13696797958737

>  <Genealogy>  (15) 
[NH-]S(=O)(=O)c1cccc(C(=O)NCc2ccccc2)c1 (protonated)
[NH-]S(=O)(=O)c1cccc(C(=O)NCc2ccccc2)c1 (3D coordinates assigned)
[NH-]S(=O)(=O)c1cccc(C(=O)NCc2ccccc2)c1 (optimized conformer: 33.13696797958737 kcal/mol)

>  <smiles>  (15) 
NS(=O)(=O)c1cccc(C(=O)NCc2ccccc2)c1

>  <score_type>  (15) 
oracle

>  <origin>  (15) 
adg

>  <m_score__min__energy>  (15) 
-11.74

>  <m_primary>  (15) 
energy

$$$$
15:0
     RDKit          3D

 46 48  0  0  0  0  0  0  0  0999 V2000
   56.5490   30.4080   53.6680 O   0  0  0  0  0  0  0  0  0  0  0  0
   56.5690   30.6230   52.4270 C   0  0  0  0  0  0  0  0  0  0  0  0
   55.4270   30.3010   51.6240 N   0  0  0  0  0  0  0  0  0  0  0  0
   54.2690   29.5800   52.1350 C   0  0  0  0  0  0  0  0  0  0  0  0
   53.0780   30.4980   52.1490 C   0  0  0  0  0  0  0  0  0  0  0  0
   52.6790   31.1490   50.9690 C   0  0  0  0  0  0  0  0  0  0  0  0
   51.6230   32.0650   50.9880 C   0  0  0  0  0  0  0  0  0  0  0  0
   51.2360   32.6990   49.8140 O   0  0  0  0  0  0  0  0  0  0  0  0
   50.9610   32.3450   52.1900 C   0  0  0  0  0  0  0  0  0  0  0  0
   49.9130   33.2570   52.2140 O   0  0  0  0  0  0  0  0  0  0  0  0
   51.3570   31.7090   53.3700 C   0  0  0  0  0  0  0  0  0  0  0  0
   52.4140   30.7920   53.3550 C   0  0  0  0  0  0  0  0  0  0  0  0
   52.8000   30.1790   54.5420 O   0  0  0  0  0  0  0  0  0  0  0  0
   57.8330   31.1410   51.7900 C   0  0  2  0  0  0  0  0  0  0  0  0
   57.6580   32.5500   51.2110 C   0  0  0  0  0  0  0  0  0  0  0  0
   58.9830   33.0970   50.6600 C   0  0  0  0  0  0  0  0  0  0  0  0
   59.9680   31.9970   50.2120 C   0  0  0  0  0  0  0  0  0  0  0  0
   59.3030   30.7550   49.7670 N   0  0  0  0  0  0  0  0  0  0  0  0
   59.0140   30.6430   48.3200 C   0  0  0  0  0  0  0  0  0  0  0  0
   59.1540   31.9490   47.5670 C   0  0  0  0  0  0  0  0  0  0  0  0
   60.2960   32.1960   46.7820 C   0  0  0  0  0  0  0  0  0  0  0  0
   60.4350   33.4050   46.0940 C   0  0  0  0  0  0  0  0  0  0  0  0
   59.4420   34.3810   46.1860 C   0  0  0  0  0  0  0  0  0  0  0  0
   58.3170   34.1600   46.9830 C   0  0  0  0  0  0  0  0  0  0  0  0
   58.1750   32.9570   47.6810 C   0  0  0  0  0  0  0  0  0  0  0  0
   57.0870   32.7820   48.4730 F   0  0  0  0  0  0  0  0  0  0  0  0
   58.2940   30.1720   50.6820 C   0  0  0  0  0  0  0  0  0  0  0  0
   54.0592   28.7158   51.4875 H   0  0  0  0  0  0  0  0  0  0  0  0
   54.4753   29.2287   53.1568 H   0  0  0  0  0  0  0  0  0  0  0  0
   53.2010   30.9364   50.0244 H   0  0  0  0  0  0  0  0  0  0  0  0
   50.8362   31.9300   54.3134 H   0  0  0  0  0  0  0  0  0  0  0  0
   58.5981   31.2030   52.5779 H   0  0  0  0  0  0  0  0  0  0  0  0
   56.9195   32.5133   50.3966 H   0  0  0  0  0  0  0  0  0  0  0  0
   57.3166   33.2160   52.0172 H   0  0  0  0  0  0  0  0  0  0  0  0
   58.7611   33.7384   49.7943 H   0  0  0  0  0  0  0  0  0  0  0  0
   59.4681   33.6501   51.4778 H   0  0  0  0  0  0  0  0  0  0  0  0
   60.5700   32.3874   49.3782 H   0  0  0  0  0  0  0  0  0  0  0  0
   60.5835   31.7387   51.0863 H   0  0  0  0  0  0  0  0  0  0  0  0
   59.7114   29.9136   47.8823 H   0  0  0  0  0  0  0  0  0  0  0  0
   57.9638   30.3295   48.2259 H   0  0  0  0  0  0  0  0  0  0  0  0
   61.0845   31.4325   46.7094 H   0  0  0  0  0  0  0  0  0  0  0  0
   61.3287   33.5872   45.4791 H   0  0  0  0  0  0  0  0  0  0  0  0
   59.5455   35.3248   45.6305 H   0  0  0  0  0  0  0  0  0  0  0  0
   57.5401   34.9348   47.0619 H   0  0  0  0  0  0  0  0  0  0  0  0
   57.4153   29.8782   50.0891 H   0  0  0  0  0  0  0  0  0  0  0  0
   58.7680   29.3136   51.1805 H   0  0  0  0  0  0  0  0  0  0  0  0
  1  2  2  0
  2  3  1  0
  3  4  1  0
  4  5  1  0
  5  6  2  0
  6  7  1  0
  7  8  1  0
  7  9  2  0
  9 10  1  0
  9 11  1  0
 11 12  2  0
 12 13  1  0
  2 14  1  0
 14 15  1  0
 15 16  1  0
 16 17  1  0
 17 18  1  0
 18 19  1  0
 19 20  1  0
 20 21  2  0
 21 22  1  0
 22 23  2  0
 23 24  1  0
 24 25  2  0
 25 26  1  0
 18 27  1  0
 12  5  1  0
 27 14  1  0
 25 20  1  0
  4 28  1  0
  4 29  1  0
  6 30  1  0
 11 31  1  0
 14 32  1  1
 15 33  1  0
 15 34  1  0
 16 35  1  0
 16 36  1  0
 17 37  1  0
 17 38  1  0
 19 39  1  0
 19 40  1  0
 21 41  1  0
 22 42  1  0
 23 43  1  0
 24 44  1  0
 27 45  1  0
 27 46  1  0
M  CHG  4   3  -1   8  -1  10  -1  13  -1
M  END
>  <UniqueID>  (16) 
15

>  <SMILES>  (16) 
O=C([N-]Cc1cc([O-])c([O-])cc1[O-])[C@@H]1CCCN(Cc2ccccc2F)C1

>  <Energy>  (16) 
57.71060929757902

>  <Genealogy>  (16) 
O=C([N-]Cc1cc([O-])c([O-])cc1[O-])C1CCCN(Cc2ccccc2F)C1 (protonated)
O=C([N-]Cc1cc([O-])c([O-])cc1[O-])[C@@H]1CCCN(Cc2ccccc2F)C1 (chirality)
O=C([N-]Cc1cc([O-])c([O-])cc1[O-])[C@@H]1CCCN(Cc2ccccc2F)C1 (3D coordinates assigned)
O=C([N-]Cc1cc([O-])c([O-])cc1[O-])[C@@H]1CCCN(Cc2ccccc2F)C1 (nonaromatic ring conformer: 57.71060929757902 kcal/mol)

>  <smiles>  (16) 
O=C(NCc1cc(O)c(O)cc1O)C1CCCN(Cc2ccccc2F)C1

>  <score_type>  (16) 
oracle

>  <origin>  (16) 
adg

>  <m_score__min__energy>  (16) 
-18.390000000000001

>  <m_primary>  (16) 
energy

$$$$
16:0
     RDKit          3D

 45 47  0  0  0  0  0  0  0  0999 V2000
   55.2400   23.1290   48.1420 C   0  0  0  0  0  0  0  0  0  0  0  0
   56.4740   23.5500   47.4790 N   0  0  0  0  0  0  0  0  0  0  0  0
   57.3940   24.4240   48.2060 C   0  0  0  0  0  0  0  0  0  0  0  0
   56.5720   23.4710   46.0470 C   0  0  0  0  0  0  0  0  0  0  0  0
   56.8600   22.2310   45.4500 C   0  0  0  0  0  0  0  0  0  0  0  0
   56.8950   22.1040   44.0610 C   0  0  0  0  0  0  0  0  0  0  0  0
   56.6370   23.2120   43.2520 C   0  0  0  0  0  0  0  0  0  0  0  0
   56.3540   24.4510   43.8300 C   0  0  0  0  0  0  0  0  0  0  0  0
   56.3300   24.6040   45.2290 C   0  0  0  0  0  0  0  0  0  0  0  0
   56.0740   25.9470   45.8040 C   0  0  0  0  0  0  0  0  0  0  0  0
   54.8860   26.3320   45.9890 O   0  0  0  0  0  0  0  0  0  0  0  0
   57.1640   26.8380   46.0720 N   0  0  0  0  0  0  0  0  0  0  0  0
   57.2920   28.1940   45.6220 C   0  0  0  0  0  0  0  0  0  0  0  0
   58.4380   28.9140   45.9800 C   0  0  0  0  0  0  0  0  0  0  0  0
   58.5880   30.2470   45.5860 C   0  0  0  0  0  0  0  0  0  0  0  0
   57.5800   30.8910   44.8560 C   0  0  0  0  0  0  0  0  0  0  0  0
   57.7680   32.2540   44.4400 N   0  0  0  0  0  0  0  0  0  0  0  0
   58.3330   33.2860   45.2660 C   0  0  0  0  0  0  0  0  0  0  0  0
   59.0380   34.3410   44.6670 C   0  0  0  0  0  0  0  0  0  0  0  0
   59.6180   35.3420   45.4540 C   0  0  0  0  0  0  0  0  0  0  0  0
   59.5120   35.2870   46.8460 C   0  0  0  0  0  0  0  0  0  0  0  0
   58.8330   34.2280   47.4540 C   0  0  0  0  0  0  0  0  0  0  0  0
   58.2510   33.2260   46.6700 C   0  0  0  0  0  0  0  0  0  0  0  0
   56.4280   30.1700   44.4970 C   0  0  0  0  0  0  0  0  0  0  0  0
   56.2770   28.8360   44.8910 C   0  0  0  0  0  0  0  0  0  0  0  0
   55.3756   23.1753   49.2326 H   0  0  0  0  0  0  0  0  0  0  0  0
   54.4182   23.7976   47.8460 H   0  0  0  0  0  0  0  0  0  0  0  0
   54.9982   22.0975   47.8460 H   0  0  0  0  0  0  0  0  0  0  0  0
   57.2509   24.2880   49.2881 H   0  0  0  0  0  0  0  0  0  0  0  0
   58.4301   24.1695   47.9383 H   0  0  0  0  0  0  0  0  0  0  0  0
   57.1930   25.4718   47.9383 H   0  0  0  0  0  0  0  0  0  0  0  0
   57.0593   21.3539   46.0832 H   0  0  0  0  0  0  0  0  0  0  0  0
   57.1259   21.1307   43.6034 H   0  0  0  0  0  0  0  0  0  0  0  0
   56.6567   23.1087   42.1570 H   0  0  0  0  0  0  0  0  0  0  0  0
   56.1474   25.3175   43.1847 H   0  0  0  0  0  0  0  0  0  0  0  0
   59.2253   28.4279   46.5749 H   0  0  0  0  0  0  0  0  0  0  0  0
   59.5045   30.7946   45.8511 H   0  0  0  0  0  0  0  0  0  0  0  0
   57.4720   32.5130   43.4710 H   0  0  0  0  0  0  0  0  0  0  0  0
   59.1353   34.3814   43.5721 H   0  0  0  0  0  0  0  0  0  0  0  0
   60.1579   36.1729   44.9764 H   0  0  0  0  0  0  0  0  0  0  0  0
   59.9632   36.0776   47.4635 H   0  0  0  0  0  0  0  0  0  0  0  0
   58.7559   34.1820   48.5503 H   0  0  0  0  0  0  0  0  0  0  0  0
   57.7271   32.3878   47.1527 H   0  0  0  0  0  0  0  0  0  0  0  0
   55.6408   30.6573   43.9030 H   0  0  0  0  0  0  0  0  0  0  0  0
   55.3606   28.2874   44.6278 H   0  0  0  0  0  0  0  0  0  0  0  0
  1  2  1  0
  2  3  1  0
  2  4  1  0
  4  5  2  0
  5  6  1  0
  6  7  2  0
  7  8  1  0
  8  9  2  0
  9 10  1  0
 10 11  2  0
 10 12  1  0
 12 13  1  0
 13 14  2  0
 14 15  1  0
 15 16  2  0
 16 17  1  0
 17 18  1  0
 18 19  2  0
 19 20  1  0
 20 21  2  0
 21 22  1  0
 22 23  2  0
 16 24  1  0
 24 25  2  0
  9  4  1  0
 25 13  1  0
 23 18  1  0
  1 26  1  0
  1 27  1  0
  1 28  1  0
  3 29  1  0
  3 30  1  0
  3 31  1  0
  5 32  1  0
  6 33  1  0
  7 34  1  0
  8 35  1  0
 14 36  1  0
 15 37  1  0
 17 38  1  0
 19 39  1  0
 20 40  1  0
 21 41  1  0
 22 42  1  0
 23 43  1  0
 24 44  1  0
 25 45  1  0
M  CHG  1  12  -1
M  END
>  <UniqueID>  (17) 
16

>  <SMILES>  (17) 
CN(C)c1ccccc1C(=O)[N-]c1ccc(Nc2ccccc2)cc1

>  <Energy>  (17) 
62.677988862172235

>  <Genealogy>  (17) 
CN(C)c1ccccc1C(=O)[N-]c1ccc(Nc2ccccc2)cc1 (protonated)
CN(C)c1ccccc1C(=O)[N-]c1ccc(Nc2ccccc2)cc1 (3D coordinates assigned)
CN(C)c1ccccc1C(=O)[N-]c1ccc(Nc2ccccc2)cc1 (optimized conformer: 62.677988862172235 kcal/mol)

>  <smiles>  (17) 
CN(C)c1ccccc1C(=O)Nc1ccc(Nc2ccccc2)cc1

>  <score_type>  (17) 
oracle

>  <origin>  (17) 
adg

>  <m_score__min__energy>  (17) 
-9.4199999999999999

>  <m_primary>  (17) 
energy

$$$$
17:0
     RDKit          3D

 57 59  0  0  0  0  0  0  0  0999 V2000
   54.3910   20.2670   46.1120 C   0  0  0  0  0  0  0  0  0  0  0  0
   55.1340   21.5700   46.0780 C   0  0  0  0  0  0  0  0  0  0  0  0
   55.4270   22.2430   47.2700 C   0  0  0  0  0  0  0  0  0  0  0  0
   56.1580   23.4320   47.2440 C   0  0  0  0  0  0  0  0  0  0  0  0
   56.6260   23.9560   46.0320 C   0  0  0  0  0  0  0  0  0  0  0  0
   57.3880   25.1700   46.0540 N   0  0  0  0  0  0  0  0  0  0  0  0
   56.7710   26.4670   46.0830 C   0  0  0  0  0  0  0  0  0  0  0  0
   55.5170   26.5730   46.0010 O   0  0  0  0  0  0  0  0  0  0  0  0
   57.6140   27.7160   46.1570 C   0  0  1  0  0  0  0  0  0  0  0  0
   59.1210   27.4070   45.9260 C   0  0  0  0  0  0  0  0  0  0  0  0
   59.7440   28.2340   44.7940 C   0  0  0  0  0  0  0  0  0  0  0  0
   59.4120   29.7210   44.9590 C   0  0  0  0  0  0  0  0  0  0  0  0
   57.9670   29.9370   45.1400 N   0  0  0  0  0  0  0  0  0  0  0  0
   57.4260   31.2590   44.9750 C   0  0  0  0  0  0  0  0  0  0  0  0
   56.2580   31.3990   44.5180 O   0  0  0  0  0  0  0  0  0  0  0  0
   58.2120   32.4610   45.3320 C   0  0  0  0  0  0  0  0  0  0  0  0
   58.1400   33.6110   44.5330 C   0  0  0  0  0  0  0  0  0  0  0  0
   58.8760   34.7470   44.8710 C   0  0  0  0  0  0  0  0  0  0  0  0
   59.6800   34.7520   46.0120 C   0  0  0  0  0  0  0  0  0  0  0  0
   59.7570   33.6180   46.8450 C   0  0  0  0  0  0  0  0  0  0  0  0
   60.5840   33.6250   48.0380 N   0  0  0  0  0  0  0  0  0  0  0  0
   59.9880   33.8620   49.3600 C   0  0  0  0  0  0  0  0  0  0  0  0
   62.0320   33.3980   47.9460 C   0  0  0  0  0  0  0  0  0  0  0  0
   59.0050   32.4770   46.4910 C   0  0  0  0  0  0  0  0  0  0  0  0
   57.0560   28.7880   45.2010 C   0  0  0  0  0  0  0  0  0  0  0  0
   56.3090   23.3000   44.8190 C   0  0  0  0  0  0  0  0  0  0  0  0
   56.7330   23.8530   43.4860 C   0  0  0  0  0  0  0  0  0  0  0  0
   55.5900   22.0930   44.8590 C   0  0  0  0  0  0  0  0  0  0  0  0
   54.2211   19.9690   47.1571 H   0  0  0  0  0  0  0  0  0  0  0  0
   53.4234   20.3832   45.6019 H   0  0  0  0  0  0  0  0  0  0  0  0
   54.9838   19.4935   45.6019 H   0  0  0  0  0  0  0  0  0  0  0  0
   55.0801   21.8336   48.2302 H   0  0  0  0  0  0  0  0  0  0  0  0
   56.3686   23.9626   48.1843 H   0  0  0  0  0  0  0  0  0  0  0  0
   58.4160   25.1060   45.8770 H   0  0  0  0  0  0  0  0  0  0  0  0
   57.5544   28.1278   47.1753 H   0  0  0  0  0  0  0  0  0  0  0  0
   59.6677   27.6209   46.8562 H   0  0  0  0  0  0  0  0  0  0  0  0
   59.1955   26.3488   45.6351 H   0  0  0  0  0  0  0  0  0  0  0  0
   60.8362   28.1044   44.8118 H   0  0  0  0  0  0  0  0  0  0  0  0
   59.3322   27.8854   43.8354 H   0  0  0  0  0  0  0  0  0  0  0  0
   59.9441   30.1100   45.8397 H   0  0  0  0  0  0  0  0  0  0  0  0
   59.7267   30.2471   44.0457 H   0  0  0  0  0  0  0  0  0  0  0  0
   57.5015   33.6175   43.6373 H   0  0  0  0  0  0  0  0  0  0  0  0
   58.8224   35.6431   44.2352 H   0  0  0  0  0  0  0  0  0  0  0  0
   60.2604   35.6518   46.2639 H   0  0  0  0  0  0  0  0  0  0  0  0
   60.7063   33.5764   50.1426 H   0  0  0  0  0  0  0  0  0  0  0  0
   59.7376   34.9281   49.4635 H   0  0  0  0  0  0  0  0  0  0  0  0
   59.0739   33.2589   49.4635 H   0  0  0  0  0  0  0  0  0  0  0  0
   62.4577   33.3313   48.9581 H   0  0  0  0  0  0  0  0  0  0  0  0
   62.2223   32.4590   47.4055 H   0  0  0  0  0  0  0  0  0  0  0  0
   62.5005   34.2337   47.4055 H   0  0  0  0  0  0  0  0  0  0  0  0
   59.0407   31.5852   47.1339 H   0  0  0  0  0  0  0  0  0  0  0  0
   56.0731   29.1226   45.5643 H   0  0  0  0  0  0  0  0  0  0  0  0
   56.9571   28.3548   44.1947 H   0  0  0  0  0  0  0  0  0  0  0  0
   57.3956   24.7172   43.6415 H   0  0  0  0  0  0  0  0  0  0  0  0
   57.2695   23.0766   42.9208 H   0  0  0  0  0  0  0  0  0  0  0  0
   55.8440   24.1696   42.9208 H   0  0  0  0  0  0  0  0  0  0  0  0
   55.3825   21.5524   43.9237 H   0  0  0  0  0  0  0  0  0  0  0  0
  1  2  1  0
  2  3  2  0
  3  4  1  0
  4  5  2  0
  5  6  1  0
  6  7  1  0
  7  8  2  0
  7  9  1  0
  9 10  1  0
 10 11  1  0
 11 12  1  0
 12 13  1  0
 13 14  1  0
 14 15  2  0
 14 16  1  0
 16 17  2  0
 17 18  1  0
 18 19  2  0
 19 20  1  0
 20 21  1  0
 21 22  1  0
 21 23  1  0
 20 24  2  0
 13 25  1  0
  5 26  1  0
 26 27  1  0
 26 28  2  0
 28  2  1  0
 25  9  1  0
 24 16  1  0
  1 29  1  0
  1 30  1  0
  1 31  1  0
  3 32  1  0
  4 33  1  0
  6 34  1  0
  9 35  1  1
 10 36  1  0
 10 37  1  0
 11 38  1  0
 11 39  1  0
 12 40  1  0
 12 41  1  0
 17 42  1  0
 18 43  1  0
 19 44  1  0
 22 45  1  0
 22 46  1  0
 22 47  1  0
 23 48  1  0
 23 49  1  0
 23 50  1  0
 24 51  1  0
 25 52  1  0
 25 53  1  0
 27 54  1  0
 27 55  1  0
 27 56  1  0
 28 57  1  0
M  END
>  <UniqueID>  (18) 
17

>  <SMILES>  (18) 
Cc1ccc(NC(=O)[C@H]2CCCN(C(=O)c3cccc(N(C)C)c3)C2)c(C)c1

>  <Energy>  (18) 
69.77064234867629

>  <Genealogy>  (18) 
Cc1ccc(NC(=O)[C@H]2CCCN(C(=O)c3cccc(N(C)C)c3)C2)c(C)c1 (chirality)
Cc1ccc(NC(=O)[C@H]2CCCN(C(=O)c3cccc(N(C)C)c3)C2)c(C)c1 (3D coordinates assigned)
Cc1ccc(NC(=O)[C@H]2CCCN(C(=O)c3cccc(N(C)C)c3)C2)c(C)c1 (nonaromatic ring conformer: 69.77064234867629 kcal/mol)

>  <smiles>  (18) 
Cc1ccc(NC(=O)C2CCCN(C(=O)c3cccc(N(C)C)c3)C2)c(C)c1

>  <score_type>  (18) 
oracle

>  <origin>  (18) 
adg

>  <m_score__min__energy>  (18) 
-9.4399999999999995

>  <m_primary>  (18) 
energy

$$$$
18:0
     RDKit          3D

 70 73  0  0  0  0  0  0  0  0999 V2000
   55.7660   29.7180   44.0180 C   0  0  0  0  0  0  0  0  0  0  0  0
   55.5140   28.9330   45.2220 N   0  0  0  0  0  0  0  0  0  0  0  0
   56.2680   27.7800   45.6170 C   0  0  0  0  0  0  0  0  0  0  0  0
   55.6530   26.7370   45.9860 O   0  0  0  0  0  0  0  0  0  0  0  0
   57.7460   27.7880   45.6530 C   0  0  0  0  0  0  0  0  0  0  0  0
   58.4690   28.2060   44.5270 C   0  0  0  0  0  0  0  0  0  0  0  0
   59.8670   28.2130   44.5500 C   0  0  0  0  0  0  0  0  0  0  0  0
   60.5500   27.8370   45.7090 C   0  0  0  0  0  0  0  0  0  0  0  0
   59.8380   27.4890   46.8680 C   0  0  0  0  0  0  0  0  0  0  0  0
   60.5210   27.0990   48.0650 N   0  0  0  0  0  0  0  0  0  0  0  0
   60.5140   27.8220   49.3000 C   0  0  0  0  0  0  0  0  0  0  0  0
   60.7540   27.2020   50.3700 O   0  0  0  0  0  0  0  0  0  0  0  0
   60.1080   29.2710   49.3670 C   0  0  0  0  0  0  0  0  0  0  0  0
   61.2350   30.1540   48.8950 C   0  0  0  0  0  0  0  0  0  0  0  0
   61.2880   30.5820   47.5580 C   0  0  0  0  0  0  0  0  0  0  0  0
   62.3440   31.3880   47.1200 C   0  0  0  0  0  0  0  0  0  0  0  0
   63.3570   31.7650   48.0060 C   0  0  0  0  0  0  0  0  0  0  0  0
   63.3270   31.3380   49.3350 C   0  0  0  0  0  0  0  0  0  0  0  0
   64.3840   31.7550   50.2120 N   0  0  0  0  0  0  0  0  0  0  0  0
   64.4660   33.0110   50.9170 C   0  0  0  0  0  0  0  0  0  0  0  0
   65.6030   33.4050   51.3070 O   0  0  0  0  0  0  0  0  0  0  0  0
   63.2490   33.8550   51.2580 C   0  0  0  0  0  0  0  0  0  0  0  0
   62.9070   34.8420   50.1170 C   0  0  0  0  0  0  0  0  0  0  0  0
   61.9220   34.2700   49.0890 C   0  0  0  0  0  0  0  0  0  0  0  0
   60.7300   33.6670   49.7290 N   0  0  0  0  0  0  0  0  0  0  0  0
   59.5530   33.3370   48.9500 C   0  0  0  0  0  0  0  0  0  0  0  0
   58.4870   33.0370   49.5490 O   0  0  0  0  0  0  0  0  0  0  0  0
   59.5910   33.3000   47.4260 C   0  0  0  0  0  0  0  0  0  0  0  0
   58.4870   32.3610   46.8510 C   0  0  0  0  0  0  0  0  0  0  0  0
   57.3440   33.1230   46.1610 C   0  0  0  0  0  0  0  0  0  0  0  0
   57.8570   34.0380   45.0300 C   0  0  0  0  0  0  0  0  0  0  0  0
   59.2490   34.6360   45.2990 C   0  0  0  0  0  0  0  0  0  0  0  0
   59.5490   34.7220   46.8010 C   0  0  0  0  0  0  0  0  0  0  0  0
   60.7170   33.5010   51.1920 C   0  0  0  0  0  0  0  0  0  0  0  0
   62.0600   32.9430   51.6620 C   0  0  0  0  0  0  0  0  0  0  0  0
   62.2310   30.5830   49.7940 C   0  0  0  0  0  0  0  0  0  0  0  0
   58.4370   27.4360   46.8260 C   0  0  0  0  0  0  0  0  0  0  0  0
   56.0909   30.7300   44.3014 H   0  0  0  0  0  0  0  0  0  0  0  0
   56.5537   29.2334   43.4225 H   0  0  0  0  0  0  0  0  0  0  0  0
   54.8434   29.7824   43.4225 H   0  0  0  0  0  0  0  0  0  0  0  0
   57.9344   28.5298   43.6218 H   0  0  0  0  0  0  0  0  0  0  0  0
   60.4296   28.5150   43.6543 H   0  0  0  0  0  0  0  0  0  0  0  0
   61.6497   27.8135   45.7137 H   0  0  0  0  0  0  0  0  0  0  0  0
   59.2288   29.4313   48.7256 H   0  0  0  0  0  0  0  0  0  0  0  0
   59.8666   29.5265   50.4093 H   0  0  0  0  0  0  0  0  0  0  0  0
   60.4975   30.2827   46.8541 H   0  0  0  0  0  0  0  0  0  0  0  0
   62.3773   31.7265   46.0739 H   0  0  0  0  0  0  0  0  0  0  0  0
   64.1824   32.4015   47.6544 H   0  0  0  0  0  0  0  0  0  0  0  0
   63.4809   34.4831   52.1308 H   0  0  0  0  0  0  0  0  0  0  0  0
   62.4629   35.7458   50.5596 H   0  0  0  0  0  0  0  0  0  0  0  0
   63.8443   35.0570   49.5829 H   0  0  0  0  0  0  0  0  0  0  0  0
   61.5937   35.0820   48.4235 H   0  0  0  0  0  0  0  0  0  0  0  0
   62.4411   33.4778   48.5296 H   0  0  0  0  0  0  0  0  0  0  0  0
   60.5606   32.8698   47.1346 H   0  0  0  0  0  0  0  0  0  0  0  0
   58.9501   31.6853   46.1169 H   0  0  0  0  0  0  0  0  0  0  0  0
   58.0499   31.8126   47.6985 H   0  0  0  0  0  0  0  0  0  0  0  0
   56.6381   32.3946   45.7354 H   0  0  0  0  0  0  0  0  0  0  0  0
   56.8559   33.7576   46.9153 H   0  0  0  0  0  0  0  0  0  0  0  0
   57.9059   33.4488   44.1024 H   0  0  0  0  0  0  0  0  0  0  0  0
   57.1545   34.8813   44.9563 H   0  0  0  0  0  0  0  0  0  0  0  0
   60.0085   34.0010   44.8196 H   0  0  0  0  0  0  0  0  0  0  0  0
   59.2699   35.6554   44.8862 H   0  0  0  0  0  0  0  0  0  0  0  0
   60.5226   35.2121   46.9489 H   0  0  0  0  0  0  0  0  0  0  0  0
   58.7550   35.3045   47.2912 H   0  0  0  0  0  0  0  0  0  0  0  0
   60.5400   34.4765   51.6686 H   0  0  0  0  0  0  0  0  0  0  0  0
   59.9155   32.8012   51.4709 H   0  0  0  0  0  0  0  0  0  0  0  0
   62.0410   32.8508   52.7580 H   0  0  0  0  0  0  0  0  0  0  0  0
   62.2061   31.9652   51.1798 H   0  0  0  0  0  0  0  0  0  0  0  0
   62.1520   30.3266   50.8608 H   0  0  0  0  0  0  0  0  0  0  0  0
   57.8752   27.1170   47.7163 H   0  0  0  0  0  0  0  0  0  0  0  0
  1  2  1  0
  2  3  1  0
  3  4  2  0
  3  5  1  0
  5  6  2  0
  6  7  1  0
  7  8  2  0
  8  9  1  0
  9 10  1  0
 10 11  1  0
 11 12  2  0
 11 13  1  0
 13 14  1  0
 14 15  2  0
 15 16  1  0
 16 17  2  0
 17 18  1  0
 18 19  1  0
 19 20  1  0
 20 21  2  0
 20 22  1  0
 22 23  1  0
 23 24  1  0
 24 25  1  0
 25 26  1  0
 26 27  2  0
 26 28  1  0
 28 29  1  0
 29 30  1  0
 30 31  1  0
 31 32  1  0
 32 33  1  0
 25 34  1  0
 34 35  1  0
 18 36  2  0
  9 37  2  0
 37  5  1  0
 36 14  1  0
 35 22  1  0
 33 28  1  0
  1 38  1  0
  1 39  1  0
  1 40  1  0
  6 41  1  0
  7 42  1  0
  8 43  1  0
 13 44  1  0
 13 45  1  0
 15 46  1  0
 16 47  1  0
 17 48  1  0
 22 49  1  0
 23 50  1  0
 23 51  1  0
 24 52  1  0
 24 53  1  0
 28 54  1  0
 29 55  1  0
 29 56  1  0
 30 57  1  0
 30 58  1  0
 31 59  1  0
 31 60  1  0
 32 61  1  0
 32 62  1  0
 33 63  1  0
 33 64  1  0
 34 65  1  0
 34 66  1  0
 35 67  1  0
 35 68  1  0
 36 69  1  0
 37 70  1  0
M  CHG  3   2  -1  10  -1  19  -1
M  END
>  <UniqueID>  (19) 
18

>  <SMILES>  (19) 
C[N-]C(=O)c1cccc([N-]C(=O)Cc2cccc([N-]C(=O)C3CCN(C(=O)C4CCCCC4)CC3)c2)c1

>  <Energy>  (19) 
95.01363677405284

>  <Genealogy>  (19) 
C[N-]C(=O)c1cccc([N-]C(=O)Cc2cccc([N-]C(=O)C3CCN(C(=O)C4CCCCC4)CC3)c2)c1 (protonated)
C[N-]C(=O)c1cccc([N-]C(=O)Cc2cccc([N-]C(=O)C3CCN(C(=O)C4CCCCC4)CC3)c2)c1 (3D coordinates assigned)
C[N-]C(=O)c1cccc([N-]C(=O)Cc2cccc([N-]C(=O)C3CCN(C(=O)C4CCCCC4)CC3)c2)c1 (nonaromatic ring conformer: 95.01363677405284 kcal/mol)

>  <smiles>  (19) 
CNC(=O)c1cccc(NC(=O)Cc2cccc(NC(=O)C3CCN(C(=O)C4CCCCC4)CC3)c2)c1

>  <score_type>  (19) 
oracle

>  <origin>  (19) 
adg

>  <m_score__min__energy>  (19) 
-15.369999999999999

>  <m_primary>  (19) 
energy

$$$$
19:0
     RDKit          3D

 61 64  0  0  0  0  0  0  0  0999 V2000
   57.7430   32.7230   43.0870 C   0  0  0  0  0  0  0  0  0  0  0  0
   58.4060   32.6850   44.4280 C   0  0  0  0  0  0  0  0  0  0  0  0
   59.1240   34.0390   45.1300 S   0  0  0  0  0  0  0  0  0  0  0  0
   59.6250   33.2280   46.4980 C   0  0  0  0  0  0  0  0  0  0  0  0
   60.3260   33.7680   47.5180 N   0  0  0  0  0  0  0  0  0  0  0  0
   60.6900   32.9820   48.5640 C   0  0  0  0  0  0  0  0  0  0  0  0
   60.3640   31.6500   48.5850 N   0  0  0  0  0  0  0  0  0  0  0  0
   60.7710   30.8330   49.7420 C   0  0  0  0  0  0  0  0  0  0  0  0
   59.5650   30.2920   50.4650 C   0  0  0  0  0  0  0  0  0  0  0  0
   59.0640   29.1990   50.0830 O   0  0  0  0  0  0  0  0  0  0  0  0
   58.9490   31.0160   51.5490 N   0  0  0  0  0  0  0  0  0  0  0  0
   58.3920   30.2780   52.6850 C   0  0  0  0  0  0  0  0  0  0  0  0
   57.2080   31.0480   53.2970 C   0  0  2  0  0  0  0  0  0  0  0  0
   55.9130   30.8740   52.4840 C   0  0  0  0  0  0  0  0  0  0  0  0
   57.5260   32.4130   53.5370 O   0  0  0  0  0  0  0  0  0  0  0  0
   57.9180   33.0920   52.3540 C   0  0  1  0  0  0  0  0  0  0  0  0
   58.1950   34.5550   52.7010 C   0  0  0  0  0  0  0  0  0  0  0  0
   59.1670   32.4520   51.7270 C   0  0  0  0  0  0  0  0  0  0  0  0
   59.6400   31.0910   47.5560 C   0  0  0  0  0  0  0  0  0  0  0  0
   59.3430   29.8710   47.5990 O   0  0  0  0  0  0  0  0  0  0  0  0
   59.2480   31.8960   46.4670 C   0  0  0  0  0  0  0  0  0  0  0  0
   58.5200   31.5740   45.2830 C   0  0  0  0  0  0  0  0  0  0  0  0
   57.8440   29.9890   44.8210 S   0  0  0  0  0  0  0  0  0  0  0  0
   56.5760   29.6550   45.5530 O   0  0  0  0  0  0  0  0  0  0  0  0
   57.5120   30.0180   43.3570 O   0  0  0  0  0  0  0  0  0  0  0  0
   59.0340   28.7510   45.0880 N   0  0  0  0  0  0  0  0  0  0  0  0
   58.4560   27.5950   45.7740 C   0  0  0  0  0  0  0  0  0  0  0  0
   57.3090   27.0170   44.9460 C   0  0  0  0  0  0  0  0  0  0  0  0
   56.9470   25.6310   45.4230 C   0  0  0  0  0  0  0  0  0  0  0  0
   57.8950   24.6000   45.3240 C   0  0  0  0  0  0  0  0  0  0  0  0
   57.5560   23.3080   45.7230 C   0  0  0  0  0  0  0  0  0  0  0  0
   56.2780   23.0490   46.2090 C   0  0  0  0  0  0  0  0  0  0  0  0
   55.3500   24.0880   46.2820 C   0  0  0  0  0  0  0  0  0  0  0  0
   55.6890   25.3470   45.8880 N   0  0  0  0  0  0  0  0  0  0  0  0
   54.7340   26.3370   45.9590 O   0  0  0  0  0  0  0  0  0  0  0  0
   56.6527   32.7855   43.2187 H   0  0  0  0  0  0  0  0  0  0  0  0
   58.0959   33.6024   42.5283 H   0  0  0  0  0  0  0  0  0  0  0  0
   57.9931   31.8090   42.5283 H   0  0  0  0  0  0  0  0  0  0  0  0
   61.2520   33.4182   49.4030 H   0  0  0  0  0  0  0  0  0  0  0  0
   61.3882   29.9928   49.3911 H   0  0  0  0  0  0  0  0  0  0  0  0
   61.3443   31.4651   50.4361 H   0  0  0  0  0  0  0  0  0  0  0  0
   58.0446   29.2924   52.3416 H   0  0  0  0  0  0  0  0  0  0  0  0
   59.1732   30.1582   53.4501 H   0  0  0  0  0  0  0  0  0  0  0  0
   57.0113   30.5975   54.2810 H   0  0  0  0  0  0  0  0  0  0  0  0
   55.0614   30.7596   53.1709 H   0  0  0  0  0  0  0  0  0  0  0  0
   55.7563   31.7592   51.8500 H   0  0  0  0  0  0  0  0  0  0  0  0
   55.9956   29.9789   51.8500 H   0  0  0  0  0  0  0  0  0  0  0  0
   57.1059   33.0217   51.6154 H   0  0  0  0  0  0  0  0  0  0  0  0
   58.2176   34.6746   53.7942 H   0  0  0  0  0  0  0  0  0  0  0  0
   59.1658   34.8544   52.2792 H   0  0  0  0  0  0  0  0  0  0  0  0
   57.4009   35.1886   52.2792 H   0  0  0  0  0  0  0  0  0  0  0  0
   59.3638   32.9159   50.7492 H   0  0  0  0  0  0  0  0  0  0  0  0
   60.0295   32.6099   52.3912 H   0  0  0  0  0  0  0  0  0  0  0  0
   59.2312   26.8264   45.9094 H   0  0  0  0  0  0  0  0  0  0  0  0
   58.0704   27.9119   46.7542 H   0  0  0  0  0  0  0  0  0  0  0  0
   56.4303   27.6718   45.0411 H   0  0  0  0  0  0  0  0  0  0  0  0
   57.6295   26.9552   43.8955 H   0  0  0  0  0  0  0  0  0  0  0  0
   58.9013   24.8110   44.9331 H   0  0  0  0  0  0  0  0  0  0  0  0
   58.2956   22.4967   45.6540 H   0  0  0  0  0  0  0  0  0  0  0  0
   56.0021   22.0345   46.5326 H   0  0  0  0  0  0  0  0  0  0  0  0
   54.3366   23.8890   46.6607 H   0  0  0  0  0  0  0  0  0  0  0  0
  1  2  1  0
  2  3  1  0
  3  4  1  0
  4  5  1  0
  5  6  2  0
  6  7  1  0
  7  8  1  0
  8  9  1  0
  9 10  2  0
  9 11  1  0
 11 12  1  0
 12 13  1  0
 13 14  1  0
 13 15  1  0
 15 16  1  0
 16 17  1  0
 16 18  1  0
  7 19  1  0
 19 20  2  0
 19 21  1  0
 21 22  1  0
 22 23  1  0
 23 24  2  0
 23 25  2  0
 23 26  1  0
 26 27  1  0
 27 28  1  0
 28 29  1  0
 29 30  2  0
 30 31  1  0
 31 32  2  0
 32 33  1  0
 33 34  2  0
 34 35  1  0
 22  2  2  0
 34 29  1  0
 21  4  2  0
 18 11  1  0
  1 36  1  0
  1 37  1  0
  1 38  1  0
  6 39  1  0
  8 40  1  0
  8 41  1  0
 12 42  1  0
 12 43  1  0
 13 44  1  1
 14 45  1  0
 14 46  1  0
 14 47  1  0
 16 48  1  6
 17 49  1  0
 17 50  1  0
 17 51  1  0
 18 52  1  0
 18 53  1  0
 27 54  1  0
 27 55  1  0
 28 56  1  0
 28 57  1  0
 30 58  1  0
 31 59  1  0
 32 60  1  0
 33 61  1  0
M  CHG  3  26  -1  34   1  35  -1
M  END
>  <UniqueID>  (20) 
19

>  <SMILES>  (20) 
Cc1sc2ncn(CC(=O)N3C[C@H](C)O[C@@H](C)C3)c(=O)c2c1S(=O)(=O)[N-]CCc1cccc[n+]1[O-]

>  <Energy>  (20) 
99.26875394248397

>  <Genealogy>  (20) 
Cc1sc2ncn(CC(=O)N3CC(C)OC(C)C3)c(=O)c2c1S(=O)(=O)[N-]CCc1cccc[n+]1[O-] (protonated)
Cc1sc2ncn(CC(=O)N3C[C@H](C)O[C@@H](C)C3)c(=O)c2c1S(=O)(=O)[N-]CCc1cccc[n+]1[O-] (chirality)
Cc1sc2ncn(CC(=O)N3C[C@H](C)O[C@@H](C)C3)c(=O)c2c1S(=O)(=O)[N-]CCc1cccc[n+]1[O-] (3D coordinates assigned)
Cc1sc2ncn(CC(=O)N3C[C@H](C)O[C@@H](C)C3)c(=O)c2c1S(=O)(=O)[N-]CCc1cccc[n+]1[O-] (nonaromatic ring conformer: 99.26875394248397 kcal/mol)

>  <smiles>  (20) 
Cc1sc2ncn(CC(=O)N3CC(C)OC(C)C3)c(=O)c2c1S(=O)(=O)NCCc1cccc[n+]1[O-]

>  <score_type>  (20) 
oracle

>  <origin>  (20) 
adg

>  <m_score__min__energy>  (20) 
-12.08

>  <m_primary>  (20) 
energy

$$$$
20:0
     RDKit          3D

 52 55  0  0  0  0  0  0  0  0999 V2000
   65.5010   35.9650   52.8430 C   0  0  0  0  0  0  0  0  0  0  0  0
   65.7550   34.8220   51.9040 C   0  0  0  0  0  0  0  0  0  0  0  0
   67.0680   34.4700   51.5590 C   0  0  0  0  0  0  0  0  0  0  0  0
   67.3020   33.4350   50.6520 C   0  0  0  0  0  0  0  0  0  0  0  0
   66.2300   32.7510   50.0740 C   0  0  0  0  0  0  0  0  0  0  0  0
   64.9060   33.0970   50.3960 C   0  0  0  0  0  0  0  0  0  0  0  0
   63.7990   32.4000   49.7870 N   0  0  0  0  0  0  0  0  0  0  0  0
   63.7930   32.1350   48.3420 C   0  0  0  0  0  0  0  0  0  0  0  0
   62.3580   32.1560   47.7820 C   0  0  0  0  0  0  0  0  0  0  0  0
   61.3500   31.4870   48.6550 N   0  0  0  0  0  0  0  0  0  0  0  0
   60.3760   30.6500   47.9020 C   0  0  0  0  0  0  0  0  0  0  0  0
   58.9140   31.1780   47.8170 C   0  0  0  0  0  0  0  0  0  0  0  0
   58.7280   32.2290   46.7830 N   0  0  0  0  0  0  0  0  0  0  0  0
   59.1080   33.5150   47.1110 C   0  0  0  0  0  0  0  0  0  0  0  0
   59.4420   33.8080   48.2930 O   0  0  0  0  0  0  0  0  0  0  0  0
   59.1460   34.5230   46.1500 C   0  0  0  0  0  0  0  0  0  0  0  0
   58.7860   34.2470   44.8430 C   0  0  0  0  0  0  0  0  0  0  0  0
   58.3200   32.9780   44.5060 C   0  0  0  0  0  0  0  0  0  0  0  0
   57.9110   32.7180   43.1880 C   0  0  0  0  0  0  0  0  0  0  0  0
   57.3910   31.4730   42.8470 C   0  0  0  0  0  0  0  0  0  0  0  0
   57.2460   30.4910   43.8210 C   0  0  0  0  0  0  0  0  0  0  0  0
   57.6510   30.7310   45.1360 C   0  0  0  0  0  0  0  0  0  0  0  0
   58.2450   31.9660   45.5050 C   0  0  0  0  0  0  0  0  0  0  0  0
   61.9200   30.7950   49.8320 C   0  0  0  0  0  0  0  0  0  0  0  0
   62.7910   31.7580   50.6430 C   0  0  0  0  0  0  0  0  0  0  0  0
   64.6790   34.1450   51.3080 C   0  0  0  0  0  0  0  0  0  0  0  0
   65.5797   35.6108   53.8815 H   0  0  0  0  0  0  0  0  0  0  0  0
   66.2453   36.7558   52.6679 H   0  0  0  0  0  0  0  0  0  0  0  0
   64.4918   36.3661   52.6679 H   0  0  0  0  0  0  0  0  0  0  0  0
   67.9159   35.0111   52.0044 H   0  0  0  0  0  0  0  0  0  0  0  0
   68.3340   33.1572   50.3916 H   0  0  0  0  0  0  0  0  0  0  0  0
   66.4232   31.9355   49.3615 H   0  0  0  0  0  0  0  0  0  0  0  0
   64.3891   32.9064   47.8325 H   0  0  0  0  0  0  0  0  0  0  0  0
   64.2225   31.1375   48.1672 H   0  0  0  0  0  0  0  0  0  0  0  0
   62.0557   33.2051   47.6476 H   0  0  0  0  0  0  0  0  0  0  0  0
   62.3798   31.5937   46.8368 H   0  0  0  0  0  0  0  0  0  0  0  0
   60.7660   32.2610   49.0560 H   0  0  0  0  0  0  0  0  0  0  0  0
   60.7523   30.5457   46.8736 H   0  0  0  0  0  0  0  0  0  0  0  0
   60.3092   29.7084   48.4667 H   0  0  0  0  0  0  0  0  0  0  0  0
   58.2509   30.3331   47.5794 H   0  0  0  0  0  0  0  0  0  0  0  0
   58.6744   31.6320   48.7899 H   0  0  0  0  0  0  0  0  0  0  0  0
   59.4623   35.5385   46.4305 H   0  0  0  0  0  0  0  0  0  0  0  0
   58.8675   35.0273   44.0720 H   0  0  0  0  0  0  0  0  0  0  0  0
   58.0020   33.5019   42.4217 H   0  0  0  0  0  0  0  0  0  0  0  0
   57.0949   31.2659   41.8080 H   0  0  0  0  0  0  0  0  0  0  0  0
   56.8089   29.5176   43.5537 H   0  0  0  0  0  0  0  0  0  0  0  0
   57.5073   29.9505   45.8977 H   0  0  0  0  0  0  0  0  0  0  0  0
   61.1017   30.4237   50.4664 H   0  0  0  0  0  0  0  0  0  0  0  0
   62.5403   29.9544   49.4877 H   0  0  0  0  0  0  0  0  0  0  0  0
   62.1512   32.5333   51.0897 H   0  0  0  0  0  0  0  0  0  0  0  0
   63.3083   31.1877   51.4286 H   0  0  0  0  0  0  0  0  0  0  0  0
   63.6478   34.4366   51.5563 H   0  0  0  0  0  0  0  0  0  0  0  0
  1  2  1  0
  2  3  2  0
  3  4  1  0
  4  5  2  0
  5  6  1  0
  6  7  1  0
  7  8  1  0
  8  9  1  0
  9 10  1  0
 10 11  1  0
 11 12  1  0
 12 13  1  0
 13 14  1  0
 14 15  2  0
 14 16  1  0
 16 17  2  0
 17 18  1  0
 18 19  2  0
 19 20  1  0
 20 21  2  0
 21 22  1  0
 22 23  2  0
 10 24  1  0
 24 25  1  0
  6 26  2  0
 26  2  1  0
 25  7  1  0
 23 13  1  0
 23 18  1  0
  1 27  1  0
  1 28  1  0
  1 29  1  0
  3 30  1  0
  4 31  1  0
  5 32  1  0
  8 33  1  0
  8 34  1  0
  9 35  1  0
  9 36  1  0
 10 37  1  0
 11 38  1  0
 11 39  1  0
 12 40  1  0
 12 41  1  0
 16 42  1  0
 17 43  1  0
 19 44  1  0
 20 45  1  0
 21 46  1  0
 22 47  1  0
 24 48  1  0
 24 49  1  0
 25 50  1  0
 25 51  1  0
 26 52  1  0
M  CHG  1  10   1
M  END
>  <UniqueID>  (21) 
20

>  <SMILES>  (21) 
Cc1cccc(N2CC[NH+](CCn3c(=O)ccc4ccccc43)CC2)c1

>  <Energy>  (21) 
82.40602198925592

>  <Genealogy>  (21) 
Cc1cccc(N2CC[NH+](CCn3c(=O)ccc4ccccc43)CC2)c1 (protonated)
Cc1cccc(N2CC[NH+](CCn3c(=O)ccc4ccccc43)CC2)c1 (3D coordinates assigned)
Cc1cccc(N2CC[NH+](CCn3c(=O)ccc4ccccc43)CC2)c1 (nonaromatic ring conformer: 82.40602198925592 kcal/mol)

>  <smiles>  (21) 
Cc1cccc(N2CCN(CCn3c(=O)ccc4ccccc43)CC2)c1

>  <score_type>  (21) 
oracle

>  <origin>  (21) 
adg

>  <m_score__min__energy>  (21) 
-6.2599999999999998

>  <m_primary>  (21) 
energy

$$$$
21:0
     RDKit          3D

 41 43  0  0  0  0  0  0  0  0999 V2000
   57.0530   28.8020   43.1610 O   0  0  0  0  0  0  0  0  0  0  0  0
   56.4180   29.4430   44.0400 C   0  0  0  0  0  0  0  0  0  0  0  0
   56.2800   30.9350   43.8980 C   0  0  0  0  0  0  0  0  0  0  0  0
   57.2720   31.6400   44.7840 C   0  0  0  0  0  0  0  0  0  0  0  0
   58.4360   30.9850   45.2180 C   0  0  0  0  0  0  0  0  0  0  0  0
   59.3660   31.6540   46.0170 C   0  0  0  0  0  0  0  0  0  0  0  0
   59.1460   32.9860   46.3820 C   0  0  0  0  0  0  0  0  0  0  0  0
   57.9960   33.6480   45.9470 C   0  0  0  0  0  0  0  0  0  0  0  0
   57.0620   32.9810   45.1480 C   0  0  0  0  0  0  0  0  0  0  0  0
   55.9540   28.7440   45.2040 N   0  0  0  0  0  0  0  0  0  0  0  0
   56.6220   27.6560   45.8550 C   0  0  0  0  0  0  0  0  0  0  0  0
   57.9450   27.7860   46.3100 C   0  0  0  0  0  0  0  0  0  0  0  0
   58.5810   26.7160   46.9620 C   0  0  0  0  0  0  0  0  0  0  0  0
   59.9280   26.8280   47.4450 N   0  0  0  0  0  0  0  0  0  0  0  0
   60.3150   27.4410   48.6820 C   0  0  0  0  0  0  0  0  0  0  0  0
   60.8730   26.7310   49.5610 O   0  0  0  0  0  0  0  0  0  0  0  0
   60.1210   28.8890   48.9270 C   0  0  0  0  0  0  0  0  0  0  0  0
   61.1330   29.8110   48.6060 C   0  0  0  0  0  0  0  0  0  0  0  0
   60.9510   31.1750   48.8560 C   0  0  0  0  0  0  0  0  0  0  0  0
   59.7590   31.6300   49.4260 C   0  0  0  0  0  0  0  0  0  0  0  0
   58.7520   30.7200   49.7560 C   0  0  0  0  0  0  0  0  0  0  0  0
   58.9320   29.3540   49.5140 C   0  0  0  0  0  0  0  0  0  0  0  0
   57.8680   25.5370   47.2060 C   0  0  0  0  0  0  0  0  0  0  0  0
   56.5430   25.4140   46.7790 C   0  0  0  0  0  0  0  0  0  0  0  0
   55.9190   26.4700   46.1100 C   0  0  0  0  0  0  0  0  0  0  0  0
   54.5990   26.3360   45.6940 O   0  0  0  0  0  0  0  0  0  0  0  0
   56.4638   31.2181   42.8510 H   0  0  0  0  0  0  0  0  0  0  0  0
   55.2629   31.2294   44.1960 H   0  0  0  0  0  0  0  0  0  0  0  0
   58.6162   29.9396   44.9271 H   0  0  0  0  0  0  0  0  0  0  0  0
   60.2721   31.1328   46.3594 H   0  0  0  0  0  0  0  0  0  0  0  0
   59.8787   33.5121   47.0116 H   0  0  0  0  0  0  0  0  0  0  0  0
   57.8245   34.6961   46.2334 H   0  0  0  0  0  0  0  0  0  0  0  0
   56.1600   33.5078   44.8033 H   0  0  0  0  0  0  0  0  0  0  0  0
   58.4861   28.7311   46.1549 H   0  0  0  0  0  0  0  0  0  0  0  0
   62.0725   29.4577   48.1560 H   0  0  0  0  0  0  0  0  0  0  0  0
   61.7473   31.8907   48.6036 H   0  0  0  0  0  0  0  0  0  0  0  0
   59.6138   32.7039   49.6146 H   0  0  0  0  0  0  0  0  0  0  0  0
   57.8151   31.0784   50.2073 H   0  0  0  0  0  0  0  0  0  0  0  0
   58.1394   28.6408   49.7844 H   0  0  0  0  0  0  0  0  0  0  0  0
   58.3523   24.7036   47.7360 H   0  0  0  0  0  0  0  0  0  0  0  0
   55.9896   24.4828   46.9702 H   0  0  0  0  0  0  0  0  0  0  0  0
  1  2  2  0
  2  3  1  0
  3  4  1  0
  4  5  2  0
  5  6  1  0
  6  7  2  0
  7  8  1  0
  8  9  2  0
  2 10  1  0
 10 11  1  0
 11 12  2  0
 12 13  1  0
 13 14  1  0
 14 15  1  0
 15 16  2  0
 15 17  1  0
 17 18  2  0
 18 19  1  0
 19 20  2  0
 20 21  1  0
 21 22  2  0
 13 23  2  0
 23 24  1  0
 24 25  2  0
 25 26  1  0
  9  4  1  0
 25 11  1  0
 22 17  1  0
  3 27  1  0
  3 28  1  0
  5 29  1  0
  6 30  1  0
  7 31  1  0
  8 32  1  0
  9 33  1  0
 12 34  1  0
 18 35  1  0
 19 36  1  0
 20 37  1  0
 21 38  1  0
 22 39  1  0
 23 40  1  0
 24 41  1  0
M  CHG  3  10  -1  14  -1  26  -1
M  END
>  <UniqueID>  (22) 
21

>  <SMILES>  (22) 
O=C(Cc1ccccc1)[N-]c1cc([N-]C(=O)c2ccccc2)ccc1[O-]

>  <Energy>  (22) 
50.80021695524056

>  <Genealogy>  (22) 
O=C(Cc1ccccc1)[N-]c1cc([N-]C(=O)c2ccccc2)ccc1[O-] (protonated)
O=C(Cc1ccccc1)[N-]c1cc([N-]C(=O)c2ccccc2)ccc1[O-] (3D coordinates assigned)
O=C(Cc1ccccc1)[N-]c1cc([N-]C(=O)c2ccccc2)ccc1[O-] (optimized conformer: 50.80021695524056 kcal/mol)

>  <smiles>  (22) 
O=C(Cc1ccccc1)Nc1cc(NC(=O)c2ccccc2)ccc1O

>  <score_type>  (22) 
oracle

>  <origin>  (22) 
adg

>  <m_score__min__energy>  (22) 
-15.08

>  <m_primary>  (22) 
energy

$$$$
22:0
     RDKit          3D

 43 47  0  0  0  0  0  0  0  0999 V2000
   61.3130   32.9550   48.0400 C   0  0  0  0  0  0  0  0  0  0  0  0
   60.3920   32.1540   47.2070 N   0  0  0  0  0  0  0  0  0  0  0  0
   60.4110   30.7780   47.3020 C   0  0  0  0  0  0  0  0  0  0  0  0
   61.2450   30.2070   48.0590 O   0  0  0  0  0  0  0  0  0  0  0  0
   59.5270   29.9880   46.5390 C   0  0  0  0  0  0  0  0  0  0  0  0
   59.5030   28.5070   46.6310 C   0  0  0  0  0  0  0  0  0  0  0  0
   60.0180   27.8300   47.6060 N   0  0  0  0  0  0  0  0  0  0  0  0
   59.7490   26.4220   47.3780 C   0  0  0  0  0  0  0  0  0  0  0  0
   58.9810   26.4770   46.0990 C   0  0  0  0  0  0  0  0  0  0  0  0
   58.4330   25.3110   45.3900 C   0  0  0  0  0  0  0  0  0  0  0  0
   58.8100   23.9880   45.6070 C   0  0  0  0  0  0  0  0  0  0  0  0
   58.0440   23.2520   44.7280 C   0  0  0  0  0  0  0  0  0  0  0  0
   57.9920   21.8800   44.5000 C   0  0  0  0  0  0  0  0  0  0  0  0
   57.0960   21.4100   43.5230 C   0  0  0  0  0  0  0  0  0  0  0  0
   56.2800   22.3150   42.8060 C   0  0  0  0  0  0  0  0  0  0  0  0
   56.3560   23.6970   43.0600 C   0  0  0  0  0  0  0  0  0  0  0  0
   57.2540   24.1320   44.0340 C   0  0  0  0  0  0  0  0  0  0  0  0
   57.4810   25.3950   44.4280 N   0  0  0  0  0  0  0  0  0  0  0  0
   58.8380   27.6890   45.6760 N   0  0  0  0  0  0  0  0  0  0  0  0
   58.6630   30.6160   45.6450 C   0  0  0  0  0  0  0  0  0  0  0  0
   58.6490   32.0040   45.5310 C   0  0  0  0  0  0  0  0  0  0  0  0
   57.7660   32.6260   44.6320 C   0  0  0  0  0  0  0  0  0  0  0  0
   57.7450   34.0140   44.5140 C   0  0  0  0  0  0  0  0  0  0  0  0
   58.6010   34.7930   45.2890 C   0  0  0  0  0  0  0  0  0  0  0  0
   59.4840   34.1890   46.1880 C   0  0  0  0  0  0  0  0  0  0  0  0
   59.5270   32.7800   46.3290 C   0  0  0  0  0  0  0  0  0  0  0  0
   61.1004   32.7701   49.1033 H   0  0  0  0  0  0  0  0  0  0  0  0
   62.3515   32.6679   47.8184 H   0  0  0  0  0  0  0  0  0  0  0  0
   61.1727   34.0233   47.8184 H   0  0  0  0  0  0  0  0  0  0  0  0
   60.4950   28.2210   48.4490 H   0  0  0  0  0  0  0  0  0  0  0  0
   60.6798   25.8469   47.2649 H   0  0  0  0  0  0  0  0  0  0  0  0
   59.2176   25.9245   48.2027 H   0  0  0  0  0  0  0  0  0  0  0  0
   59.5558   23.6124   46.3230 H   0  0  0  0  0  0  0  0  0  0  0  0
   58.6309   21.1858   45.0655 H   0  0  0  0  0  0  0  0  0  0  0  0
   57.0297   20.3318   43.3155 H   0  0  0  0  0  0  0  0  0  0  0  0
   55.5816   21.9366   42.0451 H   0  0  0  0  0  0  0  0  0  0  0  0
   55.7273   24.4111   42.5080 H   0  0  0  0  0  0  0  0  0  0  0  0
   57.0180   26.2590   44.0670 H   0  0  0  0  0  0  0  0  0  0  0  0
   57.9862   30.0108   45.0240 H   0  0  0  0  0  0  0  0  0  0  0  0
   57.0882   32.0141   44.0186 H   0  0  0  0  0  0  0  0  0  0  0  0
   57.0519   34.4951   43.8082 H   0  0  0  0  0  0  0  0  0  0  0  0
   58.5818   35.8886   45.1929 H   0  0  0  0  0  0  0  0  0  0  0  0
   60.1545   34.8158   46.7942 H   0  0  0  0  0  0  0  0  0  0  0  0
  1  2  1  0
  2  3  1  0
  3  4  2  0
  3  5  1  0
  5  6  1  0
  6  7  2  0
  7  8  1  0
  8  9  1  0
  9 10  1  0
 10 11  2  0
 11 12  1  0
 12 13  2  0
 13 14  1  0
 14 15  2  0
 15 16  1  0
 16 17  2  0
 17 18  1  0
  9 19  2  0
  5 20  2  0
 20 21  1  0
 21 22  2  0
 22 23  1  0
 23 24  2  0
 24 25  1  0
 25 26  2  0
 26  2  1  0
 19  6  1  0
 26 21  1  0
 18 10  1  0
 17 12  1  0
  1 27  1  0
  1 28  1  0
  1 29  1  0
  7 30  1  0
  8 31  1  0
  8 32  1  0
 11 33  1  0
 13 34  1  0
 14 35  1  0
 15 36  1  0
 16 37  1  0
 18 38  1  0
 20 39  1  0
 22 40  1  0
 23 41  1  0
 24 42  1  0
 25 43  1  0
M  CHG  1   7   1
M  END
>  <UniqueID>  (23) 
22

>  <SMILES>  (23) 
Cn1c(=O)c(C2=[NH+]CC(c3cc4ccccc4[nH]3)=N2)cc2ccccc21

>  <Energy>  (23) 
113.04971321043163

>  <Genealogy>  (23) 
Cn1c(=O)c(C2=[NH+]CC(c3cc4ccccc4[nH]3)=N2)cc2ccccc21 (protonated)
Cn1c(=O)c(C2=[NH+]CC(c3cc4ccccc4[nH]3)=N2)cc2ccccc21 (3D coordinates assigned)
Cn1c(=O)c(C2=[NH+]CC(c3cc4ccccc4[nH]3)=N2)cc2ccccc21 (nonaromatic ring conformer: 113.04971321043163 kcal/mol)

>  <smiles>  (23) 
Cn1c(=O)c(C2=NCC(c3cc4ccccc4[nH]3)=N2)cc2ccccc21

>  <score_type>  (23) 
oracle

>  <origin>  (23) 
adg

>  <m_score__min__energy>  (23) 
-6.5599999999999996

>  <m_primary>  (23) 
energy

$$$$
23:0
     RDKit          3D

 53 55  0  0  0  0  0  0  0  0999 V2000
   58.1340   32.3510   41.4650 C   0  0  0  0  0  0  0  0  0  0  0  0
   57.0310   31.9260   42.2610 O   0  0  0  0  0  0  0  0  0  0  0  0
   57.1480   31.2710   43.4980 C   0  0  0  0  0  0  0  0  0  0  0  0
   56.4470   30.0840   43.7850 C   0  0  0  0  0  0  0  0  0  0  0  0
   56.5810   29.4550   45.0280 C   0  0  0  0  0  0  0  0  0  0  0  0
   55.8900   28.2160   45.2470 N   0  0  0  0  0  0  0  0  0  0  0  0
   56.3630   27.0680   45.9630 C   0  0  0  0  0  0  0  0  0  0  0  0
   55.5200   26.2000   46.3180 O   0  0  0  0  0  0  0  0  0  0  0  0
   57.7870   26.8970   46.3530 C   0  0  0  0  0  0  0  0  0  0  0  0
   58.5770   25.9340   45.7000 C   0  0  0  0  0  0  0  0  0  0  0  0
   59.9020   25.7300   46.0810 C   0  0  0  0  0  0  0  0  0  0  0  0
   60.4600   26.4770   47.1170 C   0  0  0  0  0  0  0  0  0  0  0  0
   59.6970   27.4520   47.7850 C   0  0  0  0  0  0  0  0  0  0  0  0
   60.2830   28.2360   48.8480 N   0  0  0  0  0  0  0  0  0  0  0  0
   60.7810   27.5820   50.0600 C   0  0  0  0  0  0  0  0  0  0  0  0
   60.3850   29.9710   48.7140 S   0  0  0  0  0  0  0  0  0  0  0  0
   61.0650   30.4200   47.1300 C   0  0  0  0  0  0  0  0  0  0  0  0
   61.2470   30.5150   49.8180 O   0  0  0  0  0  0  0  0  0  0  0  0
   59.0140   30.5760   48.8240 O   0  0  0  0  0  0  0  0  0  0  0  0
   58.3490   27.6350   47.4110 C   0  0  0  0  0  0  0  0  0  0  0  0
   57.4460   30.0040   45.9870 C   0  0  0  0  0  0  0  0  0  0  0  0
   58.1350   31.1880   45.7150 C   0  0  0  0  0  0  0  0  0  0  0  0
   57.9860   31.8300   44.4740 C   0  0  0  0  0  0  0  0  0  0  0  0
   58.7290   33.0180   44.1590 N   0  0  0  0  0  0  0  0  0  0  0  0
   58.9050   34.1410   45.0310 C   0  0  0  0  0  0  0  0  0  0  0  0
   58.3790   35.2410   44.7150 O   0  0  0  0  0  0  0  0  0  0  0  0
   59.6360   34.0210   46.3170 C   0  0  0  0  0  0  0  0  0  0  0  0
   58.9490   34.1040   47.5430 C   0  0  0  0  0  0  0  0  0  0  0  0
   59.6480   34.0310   48.7510 C   0  0  0  0  0  0  0  0  0  0  0  0
   61.0370   33.8770   48.7500 C   0  0  0  0  0  0  0  0  0  0  0  0
   61.7280   33.7880   47.5400 C   0  0  0  0  0  0  0  0  0  0  0  0
   61.0340   33.8680   46.3280 C   0  0  0  0  0  0  0  0  0  0  0  0
   58.9583   32.6686   42.1204 H   0  0  0  0  0  0  0  0  0  0  0  0
   58.4704   31.5181   40.8301 H   0  0  0  0  0  0  0  0  0  0  0  0
   57.8246   33.1943   40.8301 H   0  0  0  0  0  0  0  0  0  0  0  0
   55.7859   29.6457   43.0228 H   0  0  0  0  0  0  0  0  0  0  0  0
   58.1460   25.3374   44.8825 H   0  0  0  0  0  0  0  0  0  0  0  0
   60.5107   24.9754   45.5613 H   0  0  0  0  0  0  0  0  0  0  0  0
   61.5046   26.3029   47.4145 H   0  0  0  0  0  0  0  0  0  0  0  0
   60.3857   28.1011   50.9456 H   0  0  0  0  0  0  0  0  0  0  0  0
   60.4511   26.5327   50.0724 H   0  0  0  0  0  0  0  0  0  0  0  0
   61.8802   27.6209   50.0724 H   0  0  0  0  0  0  0  0  0  0  0  0
   61.9746   31.0206   47.2784 H   0  0  0  0  0  0  0  0  0  0  0  0
   61.3151   29.5088   46.5667 H   0  0  0  0  0  0  0  0  0  0  0  0
   60.3253   31.0078   46.5667 H   0  0  0  0  0  0  0  0  0  0  0  0
   57.7293   28.3641   47.9536 H   0  0  0  0  0  0  0  0  0  0  0  0
   57.5817   29.5005   46.9555 H   0  0  0  0  0  0  0  0  0  0  0  0
   58.7990   31.6210   46.4776 H   0  0  0  0  0  0  0  0  0  0  0  0
   57.8559   34.2270   47.5502 H   0  0  0  0  0  0  0  0  0  0  0  0
   59.1036   34.0949   49.7047 H   0  0  0  0  0  0  0  0  0  0  0  0
   61.5857   33.8259   49.7020 H   0  0  0  0  0  0  0  0  0  0  0  0
   62.8199   33.6548   47.5398 H   0  0  0  0  0  0  0  0  0  0  0  0
   61.5851   33.8109   45.3777 H   0  0  0  0  0  0  0  0  0  0  0  0
  1  2  1  0
  2  3  1  0
  3  4  2  0
  4  5  1  0
  5  6  1  0
  6  7  1  0
  7  8  2  0
  7  9  1  0
  9 10  2  0
 10 11  1  0
 11 12  2  0
 12 13  1  0
 13 14  1  0
 14 15  1  0
 14 16  1  0
 16 17  1  0
 16 18  2  0
 16 19  2  0
 13 20  2  0
  5 21  2  0
 21 22  1  0
 22 23  2  0
 23 24  1  0
 24 25  1  0
 25 26  2  0
 25 27  1  0
 27 28  2  0
 28 29  1  0
 29 30  2  0
 30 31  1  0
 31 32  2  0
 23  3  1  0
 32 27  1  0
 20  9  1  0
  1 33  1  0
  1 34  1  0
  1 35  1  0
  4 36  1  0
 10 37  1  0
 11 38  1  0
 12 39  1  0
 15 40  1  0
 15 41  1  0
 15 42  1  0
 17 43  1  0
 17 44  1  0
 17 45  1  0
 20 46  1  0
 21 47  1  0
 22 48  1  0
 28 49  1  0
 29 50  1  0
 30 51  1  0
 31 52  1  0
 32 53  1  0
M  CHG  2   6  -1  24  -1
M  END
>  <UniqueID>  (24) 
23

>  <SMILES>  (24) 
COc1cc([N-]C(=O)c2cccc(N(C)S(C)(=O)=O)c2)ccc1[N-]C(=O)c1ccccc1

>  <Energy>  (24) 
65.97207081785704

>  <Genealogy>  (24) 
COc1cc([N-]C(=O)c2cccc(N(C)S(C)(=O)=O)c2)ccc1[N-]C(=O)c1ccccc1 (protonated)
COc1cc([N-]C(=O)c2cccc(N(C)S(C)(=O)=O)c2)ccc1[N-]C(=O)c1ccccc1 (3D coordinates assigned)
COc1cc([N-]C(=O)c2cccc(N(C)S(C)(=O)=O)c2)ccc1[N-]C(=O)c1ccccc1 (optimized conformer: 65.97207081785704 kcal/mol)

>  <smiles>  (24) 
COc1cc(NC(=O)c2cccc(N(C)S(C)(=O)=O)c2)ccc1NC(=O)c1ccccc1

>  <score_type>  (24) 
oracle

>  <origin>  (24) 
adg

>  <m_score__min__energy>  (24) 
-13.4

>  <m_primary>  (24) 
energy

$$$$
24:0
     RDKit          3D

 42 44  0  0  0  0  0  0  0  0999 V2000
   54.7820   27.0880   46.8190 H   0  0  0  0  0  0  0  0  0  0  0  0
   55.1630   26.5780   45.9910 N   0  0  0  0  0  0  0  0  0  0  0  0
   56.8840   26.6980   46.0730 S   0  0  0  0  0  0  0  0  0  0  0  0
   57.3450   26.3890   47.4700 O   0  0  0  0  0  0  0  0  0  0  0  0
   57.5000   25.7010   45.1310 O   0  0  0  0  0  0  0  0  0  0  0  0
   57.3820   28.3270   45.6290 C   0  0  0  0  0  0  0  0  0  0  0  0
   56.6880   29.0300   44.6350 C   0  0  0  0  0  0  0  0  0  0  0  0
   55.8239   28.5653   44.1375 H   0  0  0  0  0  0  0  0  0  0  0  0
   57.0890   30.3190   44.2730 C   0  0  0  0  0  0  0  0  0  0  0  0
   56.5277   30.8715   43.5051 H   0  0  0  0  0  0  0  0  0  0  0  0
   58.2050   30.9120   44.8850 C   0  0  0  0  0  0  0  0  0  0  0  0
   58.6130   32.2490   44.5510 N   0  0  0  0  0  0  0  0  0  0  0  0
   59.2060   32.3780   43.7000 H   0  0  0  0  0  0  0  0  0  0  0  0
   58.1910   33.4360   45.2410 C   0  0  0  0  0  0  0  0  0  0  0  0
   56.8730   33.4190   46.2300 S   0  0  0  0  0  0  0  0  0  0  0  0
   58.9960   34.6210   45.1120 N   0  0  0  0  0  0  0  0  0  0  0  0
   60.0170   34.9740   45.8400 C   0  0  0  0  0  0  0  0  0  0  0  0
   60.5281   35.9153   45.5898 H   0  0  0  0  0  0  0  0  0  0  0  0
   60.5320   34.1870   46.9830 C   0  0  0  0  0  0  0  0  0  0  0  0
   61.8240   33.6450   46.9710 C   0  0  0  0  0  0  0  0  0  0  0  0
   62.6670   33.8330   45.8810 O   0  0  0  0  0  0  0  0  0  0  0  0
   62.2590   32.9130   48.0250 N   0  0  0  0  0  0  0  0  0  0  0  0
   61.4640   32.6740   49.0980 C   0  0  0  0  0  0  0  0  0  0  0  0
   61.9260   32.0030   50.0620 O   0  0  0  0  0  0  0  0  0  0  0  0
   60.1840   33.1600   49.1330 N   0  0  0  0  0  0  0  0  0  0  0  0
   59.3410   32.8940   50.2730 C   0  0  0  0  0  0  0  0  0  0  0  0
   59.3580   33.7540   51.3840 C   0  0  0  0  0  0  0  0  0  0  0  0
   60.0170   34.6348   51.3854 H   0  0  0  0  0  0  0  0  0  0  0  0
   58.5400   33.4940   52.4880 C   0  0  0  0  0  0  0  0  0  0  0  0
   58.5561   34.1707   53.3551 H   0  0  0  0  0  0  0  0  0  0  0  0
   57.7010   32.3740   52.4910 C   0  0  0  0  0  0  0  0  0  0  0  0
   57.0590   32.1699   53.3606 H   0  0  0  0  0  0  0  0  0  0  0  0
   57.6790   31.5150   51.3890 C   0  0  0  0  0  0  0  0  0  0  0  0
   57.0187   30.6352   51.3916 H   0  0  0  0  0  0  0  0  0  0  0  0
   58.4950   31.7720   50.2830 C   0  0  0  0  0  0  0  0  0  0  0  0
   58.4746   31.0934   49.4175 H   0  0  0  0  0  0  0  0  0  0  0  0
   59.7060   33.9040   48.0830 C   0  0  0  0  0  0  0  0  0  0  0  0
   58.5200   34.3400   48.0980 O   0  0  0  0  0  0  0  0  0  0  0  0
   58.8850   30.2150   45.8930 C   0  0  0  0  0  0  0  0  0  0  0  0
   59.7390   30.6853   46.4024 H   0  0  0  0  0  0  0  0  0  0  0  0
   58.4840   28.9250   46.2550 C   0  0  0  0  0  0  0  0  0  0  0  0
   59.0355   28.3779   47.0338 H   0  0  0  0  0  0  0  0  0  0  0  0
  1  2  1  0
  2  3  1  0
  3  4  2  0
  3  5  2  0
  3  6  1  0
  6  7  2  0
  7  8  1  0
  7  9  1  0
  9 10  1  0
  9 11  2  0
 11 12  1  0
 12 13  1  0
 12 14  1  0
 14 15  2  0
 14 16  1  0
 16 17  2  0
 17 18  1  0
 17 19  1  0
 19 20  2  0
 20 21  1  0
 20 22  1  0
 22 23  1  0
 23 24  2  0
 23 25  1  0
 25 26  1  0
 26 27  2  0
 27 28  1  0
 27 29  1  0
 29 30  1  0
 29 31  2  0
 31 32  1  0
 31 33  1  0
 33 34  1  0
 33 35  2  0
 35 36  1  0
 25 37  1  0
 37 38  2  0
 11 39  1  0
 39 40  1  0
 39 41  2  0
 41 42  1  0
 41  6  1  0
 37 19  1  0
 35 26  1  0
M  CHG  3   2  -1  21  -1  22  -1
M  END
>  <UniqueID>  (25) 
24

>  <SMILES>  (25) 
[NH-]S(=O)(=O)c1ccc(NC(=S)/N=C\c2c([O-])[n-]c(=O)n(-c3ccccc3)c2=O)cc1

>  <Energy>  (25) 
75.01279347631447

>  <Genealogy>  (25) 
[NH-]S(=O)(=O)c1ccc(NC(=S)N=Cc2c([O-])[n-]c(=O)n(-c3ccccc3)c2=O)cc1 (protonated)
[NH-]S(=O)(=O)c1ccc(NC(=S)/N=C\c2c([O-])[n-]c(=O)n(-c3ccccc3)c2=O)cc1 (cis-trans isomerization)
[NH-]S(=O)(=O)c1ccc(NC(=S)/N=C\c2c([O-])[n-]c(=O)n(-c3ccccc3)c2=O)cc1 (3D coordinates assigned)
[NH-]S(=O)(=O)c1ccc(NC(=S)/N=C\c2c([O-])[n-]c(=O)n(-c3ccccc3)c2=O)cc1 (optimized conformer: 75.01279347631447 kcal/mol)

>  <smiles>  (25) 
NS(=O)(=O)c1ccc(NC(=S)N=Cc2c(O)[nH]c(=O)n(-c3ccccc3)c2=O)cc1

>  <score_type>  (25) 
oracle

>  <origin>  (25) 
adg

>  <m_score__min__energy>  (25) 
-13.199999999999999

>  <m_primary>  (25) 
energy

$$$$
25:0
     RDKit          3D

 32 33  0  0  0  0  0  0  0  0999 V2000
   57.0170   29.0730   43.0300 N   0  0  0  0  0  0  0  0  0  0  0  0
   56.5390   29.7450   44.5490 S   0  0  0  0  0  0  0  0  0  0  0  0
   55.1200   29.3460   44.8410 O   0  0  0  0  0  0  0  0  0  0  0  0
   56.6320   31.2430   44.4760 O   0  0  0  0  0  0  0  0  0  0  0  0
   57.5920   29.1460   45.7930 N   0  0  0  0  0  0  0  0  0  0  0  0
   58.6660   30.1060   46.0350 C   0  0  0  0  0  0  0  0  0  0  0  0
   59.1820   29.9260   47.4360 C   0  0  0  0  0  0  0  0  0  0  0  0
   59.9700   28.8070   47.7550 C   0  0  0  0  0  0  0  0  0  0  0  0
   60.4780   28.6460   49.0470 C   0  0  0  0  0  0  0  0  0  0  0  0
   60.2080   29.6000   50.0290 C   0  0  0  0  0  0  0  0  0  0  0  0
   59.4390   30.7240   49.7200 C   0  0  0  0  0  0  0  0  0  0  0  0
   58.9370   30.9070   48.4180 C   0  0  0  0  0  0  0  0  0  0  0  0
   58.1610   32.0300   48.0900 O   0  0  0  0  0  0  0  0  0  0  0  0
   58.5120   33.0200   47.1610 C   0  0  0  0  0  0  0  0  0  0  0  0
   57.5980   33.3520   46.1530 C   0  0  0  0  0  0  0  0  0  0  0  0
   57.9200   34.3210   45.1980 C   0  0  0  0  0  0  0  0  0  0  0  0
   59.1630   34.9570   45.2370 C   0  0  0  0  0  0  0  0  0  0  0  0
   60.0890   34.6200   46.2270 C   0  0  0  0  0  0  0  0  0  0  0  0
   59.7710   33.6510   47.1850 C   0  0  0  0  0  0  0  0  0  0  0  0
   56.8730   28.0400   43.0960 H   0  0  0  0  0  0  0  0  0  0  0  0
   58.0450   29.2280   42.9390 H   0  0  0  0  0  0  0  0  0  0  0  0
   59.4818   29.9344   45.3173 H   0  0  0  0  0  0  0  0  0  0  0  0
   58.2826   31.1295   45.9104 H   0  0  0  0  0  0  0  0  0  0  0  0
   60.1882   28.0537   46.9836 H   0  0  0  0  0  0  0  0  0  0  0  0
   61.0916   27.7660   49.2902 H   0  0  0  0  0  0  0  0  0  0  0  0
   60.6013   29.4665   51.0476 H   0  0  0  0  0  0  0  0  0  0  0  0
   59.2244   31.4706   50.4988 H   0  0  0  0  0  0  0  0  0  0  0  0
   56.6213   32.8475   46.1125 H   0  0  0  0  0  0  0  0  0  0  0  0
   57.1934   34.5829   44.4148 H   0  0  0  0  0  0  0  0  0  0  0  0
   59.4126   35.7231   44.4882 H   0  0  0  0  0  0  0  0  0  0  0  0
   61.0699   35.1172   46.2535 H   0  0  0  0  0  0  0  0  0  0  0  0
   60.5055   33.3816   47.9582 H   0  0  0  0  0  0  0  0  0  0  0  0
  1  2  1  0
  2  3  2  0
  2  4  2  0
  2  5  1  0
  5  6  1  0
  6  7  1  0
  7  8  2  0
  8  9  1  0
  9 10  2  0
 10 11  1  0
 11 12  2  0
 12 13  1  0
 13 14  1  0
 14 15  2  0
 15 16  1  0
 16 17  2  0
 17 18  1  0
 18 19  2  0
 12  7  1  0
 19 14  1  0
  1 20  1  0
  1 21  1  0
  6 22  1  0
  6 23  1  0
  8 24  1  0
  9 25  1  0
 10 26  1  0
 11 27  1  0
 15 28  1  0
 16 29  1  0
 17 30  1  0
 18 31  1  0
 19 32  1  0
M  CHG  1   5  -1
M  END
>  <UniqueID>  (26) 
25

>  <SMILES>  (26) 
NS(=O)(=O)[N-]Cc1ccccc1Oc1ccccc1

>  <Energy>  (26) 
33.31944190385707

>  <Genealogy>  (26) 
NS(=O)(=O)[N-]Cc1ccccc1Oc1ccccc1 (protonated)
NS(=O)(=O)[N-]Cc1ccccc1Oc1ccccc1 (3D coordinates assigned)
NS(=O)(=O)[N-]Cc1ccccc1Oc1ccccc1 (optimized conformer: 33.31944190385707 kcal/mol)

>  <smiles>  (26) 
NS(=O)(=O)NCc1ccccc1Oc1ccccc1

>  <score_type>  (26) 
oracle

>  <origin>  (26) 
adg

>  <m_score__min__energy>  (26) 
-8.9499999999999993

>  <m_primary>  (26) 
energy

$$$$
26:0
     RDKit          3D

 50 53  0  0  0  0  0  0  0  0999 V2000
   58.8390   33.8720   53.3100 C   0  0  0  0  0  0  0  0  0  0  0  0
   58.9280   33.2640   51.9470 C   0  0  0  0  0  0  0  0  0  0  0  0
   59.9390   33.6080   51.1010 N   0  0  0  0  0  0  0  0  0  0  0  0
   59.8850   32.9450   49.9240 C   0  0  0  0  0  0  0  0  0  0  0  0
   60.8720   33.1330   48.8350 C   0  0  0  0  0  0  0  0  0  0  0  0
   60.4650   33.6630   47.5960 C   0  0  0  0  0  0  0  0  0  0  0  0
   61.3900   33.8440   46.5640 C   0  0  0  0  0  0  0  0  0  0  0  0
   62.7290   33.4990   46.7550 C   0  0  0  0  0  0  0  0  0  0  0  0
   63.1470   32.9710   47.9800 C   0  0  0  0  0  0  0  0  0  0  0  0
   62.2250   32.7890   49.0160 C   0  0  0  0  0  0  0  0  0  0  0  0
   58.5660   31.8980   49.8900 S   0  0  0  0  0  0  0  0  0  0  0  0
   58.0300   32.3210   51.4280 C   0  0  0  0  0  0  0  0  0  0  0  0
   56.8480   31.7230   52.0790 C   0  0  0  0  0  0  0  0  0  0  0  0
   56.6220   31.9890   53.2900 O   0  0  0  0  0  0  0  0  0  0  0  0
   55.9990   30.7990   51.3810 N   0  0  0  0  0  0  0  0  0  0  0  0
   54.6370   30.5490   51.7740 C   0  0  0  0  0  0  0  0  0  0  0  0
   53.6100   31.3950   51.3120 C   0  0  0  0  0  0  0  0  0  0  0  0
   52.2840   31.2260   51.7420 C   0  0  0  0  0  0  0  0  0  0  0  0
   51.2180   32.1260   51.2480 C   0  0  0  0  0  0  0  0  0  0  0  0
   50.4500   32.7140   52.0570 O   0  0  0  0  0  0  0  0  0  0  0  0
   51.0470   32.3360   49.8850 O   0  0  0  0  0  0  0  0  0  0  0  0
   51.9880   30.2010   52.6520 C   0  0  0  0  0  0  0  0  0  0  0  0
   52.9930   29.3440   53.1020 C   0  0  0  0  0  0  0  0  0  0  0  0
   54.3080   29.4820   52.6410 C   0  0  0  0  0  0  0  0  0  0  0  0
   55.2920   28.5580   53.1220 N   0  0  0  0  0  0  0  0  0  0  0  0
   56.4640   28.8930   53.8810 C   0  0  0  0  0  0  0  0  0  0  0  0
   56.3240   29.5930   54.9190 O   0  0  0  0  0  0  0  0  0  0  0  0
   57.8240   28.4470   53.4900 C   0  0  0  0  0  0  0  0  0  0  0  0
   58.2850   27.1830   53.8980 C   0  0  0  0  0  0  0  0  0  0  0  0
   59.5680   26.7500   53.5490 C   0  0  0  0  0  0  0  0  0  0  0  0
   60.3960   27.5650   52.7750 C   0  0  0  0  0  0  0  0  0  0  0  0
   59.9370   28.8090   52.3380 C   0  0  0  0  0  0  0  0  0  0  0  0
   58.6550   29.2460   52.6850 C   0  0  0  0  0  0  0  0  0  0  0  0
   58.9541   33.0856   54.0705 H   0  0  0  0  0  0  0  0  0  0  0  0
   59.6374   34.6189   53.4312 H   0  0  0  0  0  0  0  0  0  0  0  0
   57.8600   34.3588   53.4312 H   0  0  0  0  0  0  0  0  0  0  0  0
   59.4112   33.9367   47.4389 H   0  0  0  0  0  0  0  0  0  0  0  0
   61.0622   34.2591   45.5995 H   0  0  0  0  0  0  0  0  0  0  0  0
   63.4553   33.6426   45.9415 H   0  0  0  0  0  0  0  0  0  0  0  0
   64.2022   32.6983   48.1294 H   0  0  0  0  0  0  0  0  0  0  0  0
   62.5593   32.3744   49.9784 H   0  0  0  0  0  0  0  0  0  0  0  0
   56.4370   30.2190   50.6350 H   0  0  0  0  0  0  0  0  0  0  0  0
   53.8505   32.2009   50.6030 H   0  0  0  0  0  0  0  0  0  0  0  0
   50.9571   30.0717   53.0133 H   0  0  0  0  0  0  0  0  0  0  0  0
   52.7499   28.5523   53.8259 H   0  0  0  0  0  0  0  0  0  0  0  0
   57.6320   26.5302   54.4958 H   0  0  0  0  0  0  0  0  0  0  0  0
   59.9255   25.7654   53.8849 H   0  0  0  0  0  0  0  0  0  0  0  0
   61.4088   27.2275   52.5098 H   0  0  0  0  0  0  0  0  0  0  0  0
   60.5854   29.4468   51.7193 H   0  0  0  0  0  0  0  0  0  0  0  0
   58.2942   30.2211   52.3259 H   0  0  0  0  0  0  0  0  0  0  0  0
  1  2  1  0
  2  3  1  0
  3  4  2  0
  4  5  1  0
  5  6  2  0
  6  7  1  0
  7  8  2  0
  8  9  1  0
  9 10  2  0
  4 11  1  0
 11 12  1  0
 12 13  1  0
 13 14  2  0
 13 15  1  0
 15 16  1  0
 16 17  2  0
 17 18  1  0
 18 19  1  0
 19 20  2  0
 19 21  1  0
 18 22  2  0
 22 23  1  0
 23 24  2  0
 24 25  1  0
 25 26  1  0
 26 27  2  0
 26 28  1  0
 28 29  2  0
 29 30  1  0
 30 31  2  0
 31 32  1  0
 32 33  2  0
 12  2  2  0
 24 16  1  0
 33 28  1  0
 10  5  1  0
  1 34  1  0
  1 35  1  0
  1 36  1  0
  6 37  1  0
  7 38  1  0
  8 39  1  0
  9 40  1  0
 10 41  1  0
 15 42  1  0
 17 43  1  0
 22 44  1  0
 23 45  1  0
 29 46  1  0
 30 47  1  0
 31 48  1  0
 32 49  1  0
 33 50  1  0
M  CHG  2  21  -1  25  -1
M  END
>  <UniqueID>  (27) 
26

>  <SMILES>  (27) 
Cc1nc(-c2ccccc2)sc1C(=O)Nc1cc(C(=O)[O-])ccc1[N-]C(=O)c1ccccc1

>  <Energy>  (27) 
101.22192856673419

>  <Genealogy>  (27) 
Cc1nc(-c2ccccc2)sc1C(=O)Nc1cc(C(=O)[O-])ccc1[N-]C(=O)c1ccccc1 (protonated)
Cc1nc(-c2ccccc2)sc1C(=O)Nc1cc(C(=O)[O-])ccc1[N-]C(=O)c1ccccc1 (3D coordinates assigned)
Cc1nc(-c2ccccc2)sc1C(=O)Nc1cc(C(=O)[O-])ccc1[N-]C(=O)c1ccccc1 (optimized conformer: 101.22192856673419 kcal/mol)

>  <smiles>  (27) 
Cc1nc(-c2ccccc2)sc1C(=O)Nc1cc(C(=O)O)ccc1NC(=O)c1ccccc1

>  <score_type>  (27) 
oracle

>  <origin>  (27) 
adg

>  <m_score__min__energy>  (27) 
-12.66

>  <m_primary>  (27) 
energy

$$$$
27:0
     RDKit          3D

 55 57  0  0  0  0  0  0  0  0999 V2000
   54.7600   26.3030   46.0040 N   0  0  0  0  0  0  0  0  0  0  0  0
   56.4630   26.0120   45.9560 S   0  0  0  0  0  0  0  0  0  0  0  0
   56.8640   25.1890   47.1490 O   0  0  0  0  0  0  0  0  0  0  0  0
   56.8060   25.2490   44.7070 O   0  0  0  0  0  0  0  0  0  0  0  0
   57.3220   27.5480   45.9680 C   0  0  0  0  0  0  0  0  0  0  0  0
   56.7800   28.6610   45.3160 C   0  0  0  0  0  0  0  0  0  0  0  0
   57.4520   29.8860   45.3340 C   0  0  0  0  0  0  0  0  0  0  0  0
   58.6730   30.0210   46.0220 C   0  0  0  0  0  0  0  0  0  0  0  0
   59.3770   31.2770   46.0380 N   0  0  0  0  0  0  0  0  0  0  0  0
   58.7830   32.5340   45.6650 C   0  0  0  0  0  0  0  0  0  0  0  0
   57.5400   32.6220   45.4760 O   0  0  0  0  0  0  0  0  0  0  0  0
   59.6040   33.7440   45.5200 C   0  0  0  0  0  0  0  0  0  0  0  0
   60.3790   34.1360   46.4840 N   0  0  0  0  0  0  0  0  0  0  0  0
   59.9440   34.3200   47.8370 C   0  0  0  0  0  0  0  0  0  0  0  0
   58.9090   34.9920   48.0980 O   0  0  0  0  0  0  0  0  0  0  0  0
   60.7360   33.7100   48.9530 C   0  0  0  0  0  0  0  0  0  0  0  0
   61.9160   34.5980   49.3680 C   0  0  0  0  0  0  0  0  0  0  0  0
   63.1060   33.7810   49.8250 C   0  0  0  0  0  0  0  0  0  0  0  0
   63.3410   33.6470   51.2060 C   0  0  0  0  0  0  0  0  0  0  0  0
   64.4150   32.8900   51.6750 C   0  0  0  0  0  0  0  0  0  0  0  0
   65.2680   32.2500   50.7740 C   0  0  0  0  0  0  0  0  0  0  0  0
   66.6190   31.3020   51.3640 Cl  0  0  0  0  0  0  0  0  0  0  0  0
   65.0440   32.3670   49.3990 C   0  0  0  0  0  0  0  0  0  0  0  0
   63.9690   33.1250   48.9180 C   0  0  0  0  0  0  0  0  0  0  0  0
   63.7500   33.2230   47.1730 Cl  0  0  0  0  0  0  0  0  0  0  0  0
   59.2250   28.8930   46.6600 C   0  0  0  0  0  0  0  0  0  0  0  0
   60.4750   28.9830   47.3420 N   0  0  0  0  0  0  0  0  0  0  0  0
   60.8050   30.3070   48.4020 S   0  0  0  0  0  0  0  0  0  0  0  0
   59.5640   31.1380   48.5550 O   0  0  0  0  0  0  0  0  0  0  0  0
   61.8870   31.1700   47.8160 O   0  0  0  0  0  0  0  0  0  0  0  0
   61.3010   29.6850   49.9710 C   0  0  0  0  0  0  0  0  0  0  0  0
   62.2340   30.3910   50.7440 C   0  0  0  0  0  0  0  0  0  0  0  0
   62.6560   29.8780   51.9750 C   0  0  0  0  0  0  0  0  0  0  0  0
   62.1500   28.6590   52.4360 C   0  0  0  0  0  0  0  0  0  0  0  0
   62.5620   28.1620   53.6280 F   0  0  0  0  0  0  0  0  0  0  0  0
   61.2230   27.9520   51.6660 C   0  0  0  0  0  0  0  0  0  0  0  0
   60.8040   28.4590   50.4320 C   0  0  0  0  0  0  0  0  0  0  0  0
   58.5450   27.6690   46.6400 C   0  0  0  0  0  0  0  0  0  0  0  0
   54.6040   27.0760   46.6900 H   0  0  0  0  0  0  0  0  0  0  0  0
   55.8200   28.5712   44.7865 H   0  0  0  0  0  0  0  0  0  0  0  0
   57.0239   30.7513   44.8067 H   0  0  0  0  0  0  0  0  0  0  0  0
   60.3500   31.2850   46.4170 H   0  0  0  0  0  0  0  0  0  0  0  0
   59.5612   34.3228   44.5856 H   0  0  0  0  0  0  0  0  0  0  0  0
   60.0757   33.5671   49.8211 H   0  0  0  0  0  0  0  0  0  0  0  0
   61.1395   32.7496   48.5998 H   0  0  0  0  0  0  0  0  0  0  0  0
   62.2171   35.2138   48.5077 H   0  0  0  0  0  0  0  0  0  0  0  0
   61.5900   35.2251   50.2109 H   0  0  0  0  0  0  0  0  0  0  0  0
   62.6711   34.1442   51.9230 H   0  0  0  0  0  0  0  0  0  0  0  0
   64.5901   32.7972   52.7570 H   0  0  0  0  0  0  0  0  0  0  0  0
   65.7161   31.8606   48.6906 H   0  0  0  0  0  0  0  0  0  0  0  0
   62.6345   31.3494   50.3819 H   0  0  0  0  0  0  0  0  0  0  0  0
   63.3866   30.4341   52.5808 H   0  0  0  0  0  0  0  0  0  0  0  0
   60.8221   26.9949   52.0311 H   0  0  0  0  0  0  0  0  0  0  0  0
   60.0832   27.8944   49.8224 H   0  0  0  0  0  0  0  0  0  0  0  0
   58.9740   26.7970   47.1553 H   0  0  0  0  0  0  0  0  0  0  0  0
  1  2  1  0
  2  3  2  0
  2  4  2  0
  2  5  1  0
  5  6  2  0
  6  7  1  0
  7  8  2  0
  8  9  1  0
  9 10  1  0
 10 11  2  0
 10 12  1  0
 12 13  2  3
 13 14  1  0
 14 15  2  0
 14 16  1  0
 16 17  1  0
 17 18  1  0
 18 19  2  0
 19 20  1  0
 20 21  2  0
 21 22  1  0
 21 23  1  0
 23 24  2  0
 24 25  1  0
  8 26  1  0
 26 27  1  0
 27 28  1  0
 28 29  2  0
 28 30  2  0
 28 31  1  0
 31 32  2  0
 32 33  1  0
 33 34  2  0
 34 35  1  0
 34 36  1  0
 36 37  2  0
 26 38  2  0
 38  5  1  0
 24 18  1  0
 37 31  1  0
  1 39  1  0
  6 40  1  0
  7 41  1  0
  9 42  1  0
 12 43  1  0
 16 44  1  0
 16 45  1  0
 17 46  1  0
 17 47  1  0
 19 48  1  0
 20 49  1  0
 23 50  1  0
 32 51  1  0
 33 52  1  0
 36 53  1  0
 37 54  1  0
 38 55  1  0
M  CHG  2   1  -1  27  -1
M  END
>  <UniqueID>  (28) 
27

>  <SMILES>  (28) 
[NH-]S(=O)(=O)c1ccc(NC(=O)C=NC(=O)CCc2ccc(Cl)cc2Cl)c([N-]S(=O)(=O)c2ccc(F)cc2)c1

>  <Energy>  (28) 
62.929681866530736

>  <Genealogy>  (28) 
[NH-]S(=O)(=O)c1ccc(NC(=O)C=NC(=O)CCc2ccc(Cl)cc2Cl)c([N-]S(=O)(=O)c2ccc(F)cc2)c1 (protonated)
[NH-]S(=O)(=O)c1ccc(NC(=O)C=NC(=O)CCc2ccc(Cl)cc2Cl)c([N-]S(=O)(=O)c2ccc(F)cc2)c1 (3D coordinates assigned)
[NH-]S(=O)(=O)c1ccc(NC(=O)C=NC(=O)CCc2ccc(Cl)cc2Cl)c([N-]S(=O)(=O)c2ccc(F)cc2)c1 (optimized conformer: 62.929681866530736 kcal/mol)

>  <smiles>  (28) 
NS(=O)(=O)c1ccc(NC(=O)C=NC(=O)CCc2ccc(Cl)cc2Cl)c(NS(=O)(=O)c2ccc(F)cc2)c1

>  <score_type>  (28) 
oracle

>  <origin>  (28) 
adg

>  <m_score__min__energy>  (28) 
-14.380000000000001

>  <m_primary>  (28) 
energy

$$$$
28:0
     RDKit          3D

 50 53  0  0  0  0  0  0  0  0999 V2000
   61.9040   30.8500   47.1470 C   0  0  0  0  0  0  0  0  0  0  0  0
   60.7440   30.4680   48.4380 S   0  0  0  0  0  0  0  0  0  0  0  0
   61.4250   30.4960   49.7800 O   0  0  0  0  0  0  0  0  0  0  0  0
   60.1900   29.0880   48.2110 O   0  0  0  0  0  0  0  0  0  0  0  0
   59.4420   31.6120   48.4110 N   0  0  0  0  0  0  0  0  0  0  0  0
   58.9350   32.2400   47.2160 C   0  0  0  0  0  0  0  0  0  0  0  0
   57.9770   31.5890   46.4120 C   0  0  0  0  0  0  0  0  0  0  0  0
   57.3970   32.2480   45.3140 C   0  0  0  0  0  0  0  0  0  0  0  0
   56.4140   31.6130   44.4840 N   0  0  0  0  0  0  0  0  0  0  0  0
   56.3510   29.9120   44.1460 S   0  0  0  0  0  0  0  0  0  0  0  0
   56.2240   29.7210   42.6620 O   0  0  0  0  0  0  0  0  0  0  0  0
   55.1410   29.3250   44.8090 O   0  0  0  0  0  0  0  0  0  0  0  0
   57.7840   29.0800   44.7480 C   0  0  0  0  0  0  0  0  0  0  0  0
   59.0620   29.5370   44.3870 C   0  0  0  0  0  0  0  0  0  0  0  0
   60.2050   28.8750   44.8500 C   0  0  0  0  0  0  0  0  0  0  0  0
   60.0780   27.7560   45.6780 C   0  0  0  0  0  0  0  0  0  0  0  0
   58.8100   27.2960   46.0420 C   0  0  0  0  0  0  0  0  0  0  0  0
   57.6630   27.9530   45.5780 C   0  0  0  0  0  0  0  0  0  0  0  0
   56.4430   27.4860   45.9340 F   0  0  0  0  0  0  0  0  0  0  0  0
   57.7660   33.5700   45.0300 C   0  0  0  0  0  0  0  0  0  0  0  0
   58.7460   34.2110   45.7900 C   0  0  0  0  0  0  0  0  0  0  0  0
   59.3650   33.5420   46.8530 C   0  0  0  0  0  0  0  0  0  0  0  0
   60.3910   34.2340   47.5810 N   0  0  0  0  0  0  0  0  0  0  0  0
   60.8270   34.0530   48.8010 C   0  0  0  0  0  0  0  0  0  0  0  0
   59.8850   34.2100   49.8260 C   0  0  0  0  0  0  0  0  0  0  0  0
   60.1870   33.8160   51.1310 C   0  0  0  0  0  0  0  0  0  0  0  0
   61.4030   33.2920   51.4220 N   0  0  0  0  0  0  0  0  0  0  0  0
   62.3820   33.1920   50.4850 C   0  0  0  0  0  0  0  0  0  0  0  0
   63.6270   32.6780   50.8560 C   0  0  0  0  0  0  0  0  0  0  0  0
   64.6830   32.6670   49.9440 C   0  0  0  0  0  0  0  0  0  0  0  0
   66.2390   32.0140   50.4130 Cl  0  0  0  0  0  0  0  0  0  0  0  0
   64.5110   33.2200   48.6770 C   0  0  0  0  0  0  0  0  0  0  0  0
   63.2670   33.7220   48.2880 C   0  0  0  0  0  0  0  0  0  0  0  0
   62.1520   33.6370   49.1530 C   0  0  0  0  0  0  0  0  0  0  0  0
   62.8589   31.1645   47.5933 H   0  0  0  0  0  0  0  0  0  0  0  0
   62.0665   29.9579   46.5243 H   0  0  0  0  0  0  0  0  0  0  0  0
   61.5046   31.6641   46.5243 H   0  0  0  0  0  0  0  0  0  0  0  0
   59.0180   31.8510   49.3340 H   0  0  0  0  0  0  0  0  0  0  0  0
   57.6807   30.5558   46.6461 H   0  0  0  0  0  0  0  0  0  0  0  0
   59.1651   30.4189   43.7377 H   0  0  0  0  0  0  0  0  0  0  0  0
   61.2036   29.2355   44.5622 H   0  0  0  0  0  0  0  0  0  0  0  0
   60.9767   27.2374   46.0431 H   0  0  0  0  0  0  0  0  0  0  0  0
   58.7121   26.4158   46.6945 H   0  0  0  0  0  0  0  0  0  0  0  0
   57.2797   34.1065   44.2020 H   0  0  0  0  0  0  0  0  0  0  0  0
   59.0331   35.2460   45.5528 H   0  0  0  0  0  0  0  0  0  0  0  0
   58.9007   34.6466   49.6012 H   0  0  0  0  0  0  0  0  0  0  0  0
   59.4355   33.9312   51.9260 H   0  0  0  0  0  0  0  0  0  0  0  0
   63.7753   32.2805   51.8709 H   0  0  0  0  0  0  0  0  0  0  0  0
   65.3600   33.2616   47.9788 H   0  0  0  0  0  0  0  0  0  0  0  0
   63.1536   34.1884   47.2982 H   0  0  0  0  0  0  0  0  0  0  0  0
  1  2  1  0
  2  3  2  0
  2  4  2  0
  2  5  1  0
  5  6  1  0
  6  7  2  0
  7  8  1  0
  8  9  1  0
  9 10  1  0
 10 11  2  0
 10 12  2  0
 10 13  1  0
 13 14  2  0
 14 15  1  0
 15 16  2  0
 16 17  1  0
 17 18  2  0
 18 19  1  0
  8 20  2  0
 20 21  1  0
 21 22  2  0
 22 23  1  0
 23 24  2  3
 24 25  1  0
 25 26  2  0
 26 27  1  0
 27 28  1  0
 28 29  2  0
 29 30  1  0
 30 31  1  0
 30 32  2  0
 32 33  1  0
 33 34  2  0
 22  6  1  0
 34 24  1  0
 18 13  1  0
 34 28  1  0
  1 35  1  0
  1 36  1  0
  1 37  1  0
  5 38  1  0
  7 39  1  0
 14 40  1  0
 15 41  1  0
 16 42  1  0
 17 43  1  0
 20 44  1  0
 21 45  1  0
 25 46  1  0
 26 47  1  0
 29 48  1  0
 32 49  1  0
 33 50  1  0
M  CHG  2   9  -1  27  -1
M  END
>  <UniqueID>  (29) 
28

>  <SMILES>  (29) 
CS(=O)(=O)Nc1cc([N-]S(=O)(=O)c2ccccc2F)ccc1N=c1cc[n-]c2cc(Cl)ccc12

>  <Energy>  (29) 
79.52487811101741

>  <Genealogy>  (29) 
CS(=O)(=O)Nc1cc([N-]S(=O)(=O)c2ccccc2F)ccc1N=c1cc[n-]c2cc(Cl)ccc12 (protonated)
CS(=O)(=O)Nc1cc([N-]S(=O)(=O)c2ccccc2F)ccc1N=c1cc[n-]c2cc(Cl)ccc12 (3D coordinates assigned)
CS(=O)(=O)Nc1cc([N-]S(=O)(=O)c2ccccc2F)ccc1N=c1cc[n-]c2cc(Cl)ccc12 (optimized conformer: 79.52487811101741 kcal/mol)

>  <smiles>  (29) 
CS(=O)(=O)Nc1cc(NS(=O)(=O)c2ccccc2F)ccc1N=c1cc[nH]c2cc(Cl)ccc12

>  <score_type>  (29) 
oracle

>  <origin>  (29) 
adg

>  <m_score__min__energy>  (29) 
-13.359999999999999

>  <m_primary>  (29) 
energy

$$$$
29:0
     RDKit          3D

 29 30  0  0  0  0  0  0  0  0999 V2000
   54.8557   31.2522   53.4910 H   0  0  0  0  0  0  0  0  0  0  0  0
   55.0580   30.2920   52.9940 C   0  0  0  0  0  0  0  0  0  0  0  0
   56.4260   29.7450   53.0330 C   0  0  0  0  0  0  0  0  0  0  0  0
   56.8720   29.2990   54.1240 O   0  0  0  0  0  0  0  0  0  0  0  0
   57.2570   29.7710   51.8640 N   0  0  0  0  0  0  0  0  0  0  0  0
   57.9570   30.9060   51.3350 C   0  0  0  0  0  0  0  0  0  0  0  0
   58.0010   32.0820   52.0960 C   0  0  0  0  0  0  0  0  0  0  0  0
   57.5182   32.1111   53.0840 H   0  0  0  0  0  0  0  0  0  0  0  0
   58.6540   33.2190   51.6090 C   0  0  0  0  0  0  0  0  0  0  0  0
   58.6940   34.1337   52.2187 H   0  0  0  0  0  0  0  0  0  0  0  0
   59.2560   33.1930   50.3470 C   0  0  0  0  0  0  0  0  0  0  0  0
   59.8870   34.2960   49.8740 F   0  0  0  0  0  0  0  0  0  0  0  0
   59.1960   32.0330   49.5700 C   0  0  0  0  0  0  0  0  0  0  0  0
   59.6628   32.0153   48.5741 H   0  0  0  0  0  0  0  0  0  0  0  0
   58.5440   30.8940   50.0550 C   0  0  0  0  0  0  0  0  0  0  0  0
   58.4898   29.9870   49.4350 H   0  0  0  0  0  0  0  0  0  0  0  0
   54.0520   29.6600   52.3740 C   0  0  0  0  0  0  0  0  0  0  0  0
   53.9656   28.5709   52.5023 H   0  0  0  0  0  0  0  0  0  0  0  0
   53.0480   30.3470   51.5240 C   0  0  0  0  0  0  0  0  0  0  0  0
   52.5920   29.8080   50.3030 C   0  0  0  0  0  0  0  0  0  0  0  0
   52.9919   28.8473   49.9465 H   0  0  0  0  0  0  0  0  0  0  0  0
   51.6350   30.4870   49.5430 C   0  0  0  0  0  0  0  0  0  0  0  0
   51.2917   30.0629   48.5878 H   0  0  0  0  0  0  0  0  0  0  0  0
   51.1130   31.7030   49.9930 C   0  0  0  0  0  0  0  0  0  0  0  0
   50.1620   32.3730   49.2320 O   0  0  0  0  0  0  0  0  0  0  0  0
   51.5450   32.2400   51.2120 C   0  0  0  0  0  0  0  0  0  0  0  0
   51.0260   33.4450   51.6670 O   0  0  0  0  0  0  0  0  0  0  0  0
   52.5030   31.5620   51.9730 C   0  0  0  0  0  0  0  0  0  0  0  0
   52.8334   31.9845   52.9334 H   0  0  0  0  0  0  0  0  0  0  0  0
  1  2  1  0
  2  3  1  0
  3  4  2  0
  3  5  1  0
  5  6  1  0
  6  7  2  0
  7  8  1  0
  7  9  1  0
  9 10  1  0
  9 11  2  0
 11 12  1  0
 11 13  1  0
 13 14  1  0
 13 15  2  0
 15 16  1  0
  2 17  2  0
 17 18  1  0
 17 19  1  0
 19 20  2  0
 20 21  1  0
 20 22  1  0
 22 23  1  0
 22 24  2  0
 24 25  1  0
 24 26  1  0
 26 27  1  0
 26 28  2  0
 28 29  1  0
 15  6  1  0
 28 19  1  0
M  CHG  3   5  -1  25  -1  27  -1
M  END
>  <UniqueID>  (30) 
29

>  <SMILES>  (30) 
O=C(/C=C/c1ccc([O-])c([O-])c1)[N-]c1ccc(F)cc1

>  <Energy>  (30) 
35.091153069249216

>  <Genealogy>  (30) 
O=C(C=Cc1ccc([O-])c([O-])c1)[N-]c1ccc(F)cc1 (protonated)
O=C(/C=C/c1ccc([O-])c([O-])c1)[N-]c1ccc(F)cc1 (cis-trans isomerization)
O=C(/C=C/c1ccc([O-])c([O-])c1)[N-]c1ccc(F)cc1 (3D coordinates assigned)
O=C(/C=C/c1ccc([O-])c([O-])c1)[N-]c1ccc(F)cc1 (optimized conformer: 35.091153069249216 kcal/mol)

>  <smiles>  (30) 
O=C(C=Cc1ccc(O)c(O)c1)Nc1ccc(F)cc1

>  <score_type>  (30) 
oracle

>  <origin>  (30) 
adg

>  <m_score__min__energy>  (30) 
-16.100000000000001

>  <m_primary>  (30) 
energy

$$$$
30:0
     RDKit          3D

 37 38  0  0  0  0  0  0  0  0999 V2000
   55.3540   29.2590   44.8910 N   0  0  0  0  0  0  0  0  0  0  0  0
   56.5790   29.6970   43.7540 S   0  0  0  0  0  0  0  0  0  0  0  0
   55.9490   29.9750   42.4180 O   0  0  0  0  0  0  0  0  0  0  0  0
   57.5550   28.5640   43.6020 O   0  0  0  0  0  0  0  0  0  0  0  0
   57.4190   31.1330   44.3280 C   0  0  0  0  0  0  0  0  0  0  0  0
   57.7600   31.2590   45.6810 C   0  0  0  0  0  0  0  0  0  0  0  0
   58.4190   32.4030   46.1390 C   0  0  0  0  0  0  0  0  0  0  0  0
   58.7390   33.4400   45.2470 C   0  0  0  0  0  0  0  0  0  0  0  0
   59.4680   34.6660   45.7280 C   0  0  0  0  0  0  0  0  0  0  0  0
   60.6980   34.2840   46.4180 N   0  0  0  0  0  0  0  0  0  0  0  0
   60.7350   34.0210   47.8310 C   0  0  0  0  0  0  0  0  0  0  0  0
   59.6620   34.0360   48.4950 O   0  0  0  0  0  0  0  0  0  0  0  0
   62.0100   33.7100   48.5210 C   0  0  0  0  0  0  0  0  0  0  0  0
   62.9520   32.8640   47.9080 C   0  0  0  0  0  0  0  0  0  0  0  0
   64.1570   32.5610   48.5490 C   0  0  0  0  0  0  0  0  0  0  0  0
   64.4380   33.0940   49.8130 C   0  0  0  0  0  0  0  0  0  0  0  0
   65.9480   32.6970   50.6240 S   0  0  0  0  0  0  0  0  0  0  0  0
   66.0400   33.5470   52.1250 N   0  0  0  0  0  0  0  0  0  0  0  0
   66.0150   31.2170   50.8810 O   0  0  0  0  0  0  0  0  0  0  0  0
   67.1120   33.0880   49.7570 O   0  0  0  0  0  0  0  0  0  0  0  0
   63.4960   33.9210   50.4380 C   0  0  0  0  0  0  0  0  0  0  0  0
   62.2920   34.2270   49.7990 C   0  0  0  0  0  0  0  0  0  0  0  0
   58.3930   33.3140   43.8940 C   0  0  0  0  0  0  0  0  0  0  0  0
   57.7340   32.1690   43.4370 C   0  0  0  0  0  0  0  0  0  0  0  0
   54.6800   30.0550   44.9350 H   0  0  0  0  0  0  0  0  0  0  0  0
   57.5077   30.4534   46.3863 H   0  0  0  0  0  0  0  0  0  0  0  0
   58.6881   32.4918   47.2019 H   0  0  0  0  0  0  0  0  0  0  0  0
   59.7176   35.3019   44.8658 H   0  0  0  0  0  0  0  0  0  0  0  0
   58.8211   35.2170   46.4265 H   0  0  0  0  0  0  0  0  0  0  0  0
   61.5540   34.1400   45.8370 H   0  0  0  0  0  0  0  0  0  0  0  0
   62.7389   32.4376   46.9167 H   0  0  0  0  0  0  0  0  0  0  0  0
   64.8875   31.9010   48.0582 H   0  0  0  0  0  0  0  0  0  0  0  0
   65.5810   32.9450   52.8440 H   0  0  0  0  0  0  0  0  0  0  0  0
   63.7053   34.3315   51.4368 H   0  0  0  0  0  0  0  0  0  0  0  0
   61.5588   34.8771   50.2987 H   0  0  0  0  0  0  0  0  0  0  0  0
   58.6415   34.1205   43.1884 H   0  0  0  0  0  0  0  0  0  0  0  0
   57.4616   32.0804   42.3749 H   0  0  0  0  0  0  0  0  0  0  0  0
  1  2  1  0
  2  3  2  0
  2  4  2  0
  2  5  1  0
  5  6  2  0
  6  7  1  0
  7  8  2  0
  8  9  1  0
  9 10  1  0
 10 11  1  0
 11 12  2  0
 11 13  1  0
 13 14  2  0
 14 15  1  0
 15 16  2  0
 16 17  1  0
 17 18  1  0
 17 19  2  0
 17 20  2  0
 16 21  1  0
 21 22  2  0
  8 23  1  0
 23 24  2  0
 24  5  1  0
 22 13  1  0
  1 25  1  0
  6 26  1  0
  7 27  1  0
  9 28  1  0
  9 29  1  0
 10 30  1  0
 14 31  1  0
 15 32  1  0
 18 33  1  0
 21 34  1  0
 22 35  1  0
 23 36  1  0
 24 37  1  0
M  CHG  2   1  -1  18  -1
M  END
>  <UniqueID>  (31) 
30

>  <SMILES>  (31) 
[NH-]S(=O)(=O)c1ccc(CNC(=O)c2ccc(S([NH-])(=O)=O)cc2)cc1

>  <Energy>  (31) 
37.24507344226656

>  <Genealogy>  (31) 
[NH-]S(=O)(=O)c1ccc(CNC(=O)c2ccc(S([NH-])(=O)=O)cc2)cc1 (protonated)
[NH-]S(=O)(=O)c1ccc(CNC(=O)c2ccc(S([NH-])(=O)=O)cc2)cc1 (3D coordinates assigned)
[NH-]S(=O)(=O)c1ccc(CNC(=O)c2ccc(S([NH-])(=O)=O)cc2)cc1 (optimized conformer: 37.24507344226656 kcal/mol)

>  <smiles>  (31) 
NS(=O)(=O)c1ccc(CNC(=O)c2ccc(S(N)(=O)=O)cc2)cc1

>  <score_type>  (31) 
oracle

>  <origin>  (31) 
adg

>  <m_score__min__energy>  (31) 
-11.140000000000001

>  <m_primary>  (31) 
energy

$$$$
31:0
     RDKit          3D

 33 34  0  0  0  0  0  0  0  0999 V2000
   61.0067   33.7301   50.5936 H   0  0  0  0  0  0  0  0  0  0  0  0
   60.9240   33.8010   49.4990 C   0  0  0  0  0  0  0  0  0  0  0  0
   59.7060   33.9440   48.9180 N   0  0  0  0  0  0  0  0  0  0  0  0
   59.5780   34.0310   47.5640 C   0  0  0  0  0  0  0  0  0  0  0  0
   58.4120   34.1600   47.0100 N   0  0  0  0  0  0  0  0  0  0  0  0
   58.0850   33.7640   45.3520 S   0  0  0  0  0  0  0  0  0  0  0  0
   56.9030   34.5640   44.8820 O   0  0  0  0  0  0  0  0  0  0  0  0
   59.2800   34.1160   44.5130 O   0  0  0  0  0  0  0  0  0  0  0  0
   57.7670   32.0390   45.2000 C   0  0  0  0  0  0  0  0  0  0  0  0
   58.3310   31.1420   46.1160 C   0  0  0  0  0  0  0  0  0  0  0  0
   58.9785   31.5168   46.9224 H   0  0  0  0  0  0  0  0  0  0  0  0
   58.0740   29.7730   46.0090 C   0  0  0  0  0  0  0  0  0  0  0  0
   58.5300   29.0737   46.7253 H   0  0  0  0  0  0  0  0  0  0  0  0
   57.2390   29.2850   44.9950 C   0  0  0  0  0  0  0  0  0  0  0  0
   57.0170   27.8720   44.9010 N   0  0  0  0  0  0  0  0  0  0  0  0
   56.5590   27.0050   45.9480 C   0  0  0  0  0  0  0  0  0  0  0  0
   55.3380   26.7050   46.0010 O   0  0  0  0  0  0  0  0  0  0  0  0
   57.4960   26.4130   46.9560 C   0  0  0  0  0  0  0  0  0  0  0  0
   57.1354   26.6408   47.9699 H   0  0  0  0  0  0  0  0  0  0  0  0
   57.5406   25.3225   46.8191 H   0  0  0  0  0  0  0  0  0  0  0  0
   58.5000   26.8411   46.8191 H   0  0  0  0  0  0  0  0  0  0  0  0
   56.7040   30.1820   44.0560 C   0  0  0  0  0  0  0  0  0  0  0  0
   56.0804   29.8045   43.2322 H   0  0  0  0  0  0  0  0  0  0  0  0
   56.9600   31.5520   44.1630 C   0  0  0  0  0  0  0  0  0  0  0  0
   56.5268   32.2497   43.4312 H   0  0  0  0  0  0  0  0  0  0  0  0
   60.6870   33.9760   46.7790 N   0  0  0  0  0  0  0  0  0  0  0  0
   61.9270   33.8350   47.3200 C   0  0  0  0  0  0  0  0  0  0  0  0
   63.1280   33.7780   46.4310 C   0  0  0  0  0  0  0  0  0  0  0  0
   64.0384   33.7348   47.0469 H   0  0  0  0  0  0  0  0  0  0  0  0
   63.0720   32.8815   45.7961 H   0  0  0  0  0  0  0  0  0  0  0  0
   63.1571   34.6758   45.7961 H   0  0  0  0  0  0  0  0  0  0  0  0
   62.0700   33.7440   48.7080 C   0  0  0  0  0  0  0  0  0  0  0  0
   63.0641   33.6301   49.1650 H   0  0  0  0  0  0  0  0  0  0  0  0
  1  2  1  0
  2  3  1  0
  3  4  1  0
  4  5  2  0
  5  6  1  0
  6  7  2  0
  6  8  2  0
  6  9  1  0
  9 10  2  0
 10 11  1  0
 10 12  1  0
 12 13  1  0
 12 14  2  0
 14 15  1  0
 15 16  1  0
 16 17  2  0
 16 18  1  0
 18 19  1  0
 18 20  1  0
 18 21  1  0
 14 22  1  0
 22 23  1  0
 22 24  2  0
 24 25  1  0
  4 26  1  0
 26 27  2  0
 27 28  1  0
 28 29  1  0
 28 30  1  0
 28 31  1  0
 27 32  1  0
 32 33  1  0
 32  2  2  0
 24  9  1  0
M  CHG  2   3  -1  15  -1
M  END
>  <UniqueID>  (32) 
31

>  <SMILES>  (32) 
CC(=O)[N-]c1ccc(S(=O)(=O)/N=c2/nc(C)cc[n-]2)cc1

>  <Energy>  (32) 
39.167702611788

>  <Genealogy>  (32) 
CC(=O)[N-]c1ccc(S(=O)(=O)N=c2nc(C)cc[n-]2)cc1 (protonated)
CC(=O)[N-]c1ccc(S(=O)(=O)/N=c2/nc(C)cc[n-]2)cc1 (cis-trans isomerization)
CC(=O)[N-]c1ccc(S(=O)(=O)/N=c2/nc(C)cc[n-]2)cc1 (3D coordinates assigned)
CC(=O)[N-]c1ccc(S(=O)(=O)/N=c2/nc(C)cc[n-]2)cc1 (optimized conformer: 39.167702611788 kcal/mol)

>  <smiles>  (32) 
CC(=O)Nc1ccc(S(=O)(=O)N=c2nc(C)cc[nH]2)cc1

>  <score_type>  (32) 
oracle

>  <origin>  (32) 
adg

>  <m_score__min__energy>  (32) 
-10.1

>  <m_primary>  (32) 
energy

$$$$
32:0
     RDKit          3D

 43 45  0  0  0  0  0  0  0  0999 V2000
   56.7640   20.8550   43.1140 C   0  0  0  0  0  0  0  0  0  0  0  0
   55.9060   21.6870   43.9040 O   0  0  0  0  0  0  0  0  0  0  0  0
   56.2900   22.9760   44.2010 C   0  0  0  0  0  0  0  0  0  0  0  0
   55.9330   23.5180   45.4300 C   0  0  0  0  0  0  0  0  0  0  0  0
   56.2980   24.8220   45.7770 C   0  0  0  0  0  0  0  0  0  0  0  0
   57.0270   25.5620   44.8620 C   0  0  0  0  0  0  0  0  0  0  0  0
   57.3940   26.9150   45.2500 C   0  0  0  0  0  0  0  0  0  0  0  0
   57.7590   27.1190   46.4200 O   0  0  0  0  0  0  0  0  0  0  0  0
   57.3570   28.0200   44.3590 N   0  0  0  0  0  0  0  0  0  0  0  0
   57.7160   29.3440   44.7370 C   0  0  0  0  0  0  0  0  0  0  0  0
   58.7950   29.6170   45.5680 C   0  0  0  0  0  0  0  0  0  0  0  0
   59.0920   30.9400   45.9000 C   0  0  0  0  0  0  0  0  0  0  0  0
   58.3050   31.9520   45.3920 C   0  0  0  0  0  0  0  0  0  0  0  0
   58.6230   33.6510   45.7700 S   0  0  0  0  0  0  0  0  0  0  0  0
   59.4520   34.2440   44.6880 O   0  0  0  0  0  0  0  0  0  0  0  0
   57.3240   34.3930   45.8790 O   0  0  0  0  0  0  0  0  0  0  0  0
   59.4600   33.6900   47.2780 N   0  0  0  0  0  0  0  0  0  0  0  0
   60.7060   33.3590   47.2870 C   0  0  0  0  0  0  0  0  0  0  0  0
   61.2050   32.3590   48.0380 N   0  0  0  0  0  0  0  0  0  0  0  0
   62.5350   32.0700   47.9900 C   0  0  0  0  0  0  0  0  0  0  0  0
   63.3780   32.8160   47.1610 C   0  0  0  0  0  0  0  0  0  0  0  0
   62.8520   33.8250   46.4080 C   0  0  0  0  0  0  0  0  0  0  0  0
   61.5300   34.0780   46.4840 N   0  0  0  0  0  0  0  0  0  0  0  0
   57.2340   31.6910   44.5660 C   0  0  0  0  0  0  0  0  0  0  0  0
   56.9460   30.3800   44.2440 C   0  0  0  0  0  0  0  0  0  0  0  0
   57.3680   24.9990   43.6490 C   0  0  0  0  0  0  0  0  0  0  0  0
   57.0190   23.7160   43.2850 C   0  0  0  0  0  0  0  0  0  0  0  0
   57.3941   20.2440   43.7770 H   0  0  0  0  0  0  0  0  0  0  0  0
   56.1531   20.1963   42.4792 H   0  0  0  0  0  0  0  0  0  0  0  0
   57.4036   21.4859   42.4792 H   0  0  0  0  0  0  0  0  0  0  0  0
   55.3538   22.9109   46.1413 H   0  0  0  0  0  0  0  0  0  0  0  0
   56.0138   25.2484   46.7504 H   0  0  0  0  0  0  0  0  0  0  0  0
   57.0550   27.8790   43.3700 H   0  0  0  0  0  0  0  0  0  0  0  0
   59.4117   28.7958   45.9621 H   0  0  0  0  0  0  0  0  0  0  0  0
   59.9424   31.1721   46.5580 H   0  0  0  0  0  0  0  0  0  0  0  0
   62.9445   31.2524   48.6014 H   0  0  0  0  0  0  0  0  0  0  0  0
   64.4540   32.5919   47.1162 H   0  0  0  0  0  0  0  0  0  0  0  0
   63.4975   34.4235   45.7483 H   0  0  0  0  0  0  0  0  0  0  0  0
   61.1300   34.8610   45.8990 H   0  0  0  0  0  0  0  0  0  0  0  0
   56.6192   32.5127   44.1700 H   0  0  0  0  0  0  0  0  0  0  0  0
   56.0927   30.1572   43.5866 H   0  0  0  0  0  0  0  0  0  0  0  0
   57.9475   25.6046   42.9367 H   0  0  0  0  0  0  0  0  0  0  0  0
   57.3071   23.2980   42.3091 H   0  0  0  0  0  0  0  0  0  0  0  0
  1  2  1  0
  2  3  1  0
  3  4  2  0
  4  5  1  0
  5  6  2  0
  6  7  1  0
  7  8  2  0
  7  9  1  0
  9 10  1  0
 10 11  2  0
 11 12  1  0
 12 13  2  0
 13 14  1  0
 14 15  2  0
 14 16  2  0
 14 17  1  0
 17 18  2  3
 18 19  1  0
 19 20  2  0
 20 21  1  0
 21 22  2  0
 22 23  1  0
 13 24  1  0
 24 25  2  0
  6 26  1  0
 26 27  2  0
 27  3  1  0
 25 10  1  0
 23 18  1  0
  1 28  1  0
  1 29  1  0
  1 30  1  0
  4 31  1  0
  5 32  1  0
  9 33  1  0
 11 34  1  0
 12 35  1  0
 20 36  1  0
 21 37  1  0
 22 38  1  0
 23 39  1  0
 24 40  1  0
 25 41  1  0
 26 42  1  0
 27 43  1  0
M  END
>  <smiles>  (33) 
COc1ccc(C(=O)Nc2ccc(S(=O)(=O)N=c3nccc[nH]3)cc2)cc1

>  <score_type>  (33) 
oracle

>  <origin>  (33) 
adg

>  <m_score__min__energy>  (33) 
-8.2799999999999994

>  <m_primary>  (33) 
energy

$$$$
33:0
     RDKit          3D

 65 69  0  0  0  0  0  0  0  0999 V2000
   56.3240   19.8070   45.8420 C   0  0  0  0  0  0  0  0  0  0  0  0
   57.4790   21.0290   46.4290 S   0  0  0  0  0  0  0  0  0  0  0  0
   58.7860   20.3550   46.7300 O   0  0  0  0  0  0  0  0  0  0  0  0
   56.9670   21.6690   47.6900 O   0  0  0  0  0  0  0  0  0  0  0  0
   57.7360   22.2380   45.2090 N   0  0  0  0  0  0  0  0  0  0  0  0
   57.3440   23.6170   45.3370 C   0  0  0  0  0  0  0  0  0  0  0  0
   56.3200   23.9560   46.2590 C   0  0  0  0  0  0  0  0  0  0  0  0
   55.9020   25.2910   46.4150 C   0  0  0  0  0  0  0  0  0  0  0  0
   56.5300   26.2600   45.6420 C   0  0  0  0  0  0  0  0  0  0  0  0
   56.2920   27.5790   45.6260 N   0  0  0  0  0  0  0  0  0  0  0  0
   57.1830   28.0320   44.7020 C   0  0  0  0  0  0  0  0  0  0  0  0
   57.2970   29.4590   44.3240 C   0  0  0  0  0  0  0  0  0  0  0  0
   56.9130   29.8880   43.0440 C   0  0  0  0  0  0  0  0  0  0  0  0
   57.0270   31.2330   42.6880 C   0  0  0  0  0  0  0  0  0  0  0  0
   57.5230   32.1640   43.6020 C   0  0  0  0  0  0  0  0  0  0  0  0
   57.9100   31.7590   44.8910 C   0  0  0  0  0  0  0  0  0  0  0  0
   58.4320   32.7510   45.8690 C   0  0  0  0  0  0  0  0  0  0  0  0
   58.8320   34.0320   45.4450 C   0  0  0  0  0  0  0  0  0  0  0  0
   59.3370   34.9560   46.3630 C   0  0  0  0  0  0  0  0  0  0  0  0
   59.4440   34.6180   47.7120 C   0  0  0  0  0  0  0  0  0  0  0  0
   59.0400   33.3530   48.1550 C   0  0  0  0  0  0  0  0  0  0  0  0
   59.1950   32.9290   49.8600 S   0  0  0  0  0  0  0  0  0  0  0  0
   57.8720   32.4620   50.3980 O   0  0  0  0  0  0  0  0  0  0  0  0
   59.6010   34.1580   50.6250 O   0  0  0  0  0  0  0  0  0  0  0  0
   60.4020   31.6980   50.1030 N   0  0  0  0  0  0  0  0  0  0  0  0
   60.7940   31.0490   48.8470 C   0  0  0  0  0  0  0  0  0  0  0  0
   59.8520   29.8930   48.4750 C   0  0  0  0  0  0  0  0  0  0  0  0
   60.5870   28.7410   47.9080 N   0  0  0  0  0  0  0  0  0  0  0  0
   60.3100   28.5770   46.4610 C   0  0  0  0  0  0  0  0  0  0  0  0
   60.5760   27.1320   46.0070 C   0  0  0  0  0  0  0  0  0  0  0  0
   59.7680   26.1660   46.6670 O   0  0  0  0  0  0  0  0  0  0  0  0
   59.3360   26.5700   47.9590 C   0  0  0  0  0  0  0  0  0  0  0  0
   60.3310   27.4980   48.6780 C   0  0  0  0  0  0  0  0  0  0  0  0
   58.5400   32.4220   47.2340 C   0  0  0  0  0  0  0  0  0  0  0  0
   57.7920   30.4010   45.2440 C   0  0  0  0  0  0  0  0  0  0  0  0
   57.9550   27.0580   44.1490 N   0  0  0  0  0  0  0  0  0  0  0  0
   57.5180   25.9490   44.7640 C   0  0  0  0  0  0  0  0  0  0  0  0
   57.9590   24.6420   44.5760 C   0  0  0  0  0  0  0  0  0  0  0  0
   55.8514   19.3070   46.7003 H   0  0  0  0  0  0  0  0  0  0  0  0
   55.5509   20.2966   45.2316 H   0  0  0  0  0  0  0  0  0  0  0  0
   56.8563   19.0627   45.2316 H   0  0  0  0  0  0  0  0  0  0  0  0
   58.2580   21.9380   44.3540 H   0  0  0  0  0  0  0  0  0  0  0  0
   55.8467   23.1652   46.8596 H   0  0  0  0  0  0  0  0  0  0  0  0
   55.1052   25.5581   47.1248 H   0  0  0  0  0  0  0  0  0  0  0  0
   56.5204   29.1610   42.3179 H   0  0  0  0  0  0  0  0  0  0  0  0
   56.7245   31.5607   41.6824 H   0  0  0  0  0  0  0  0  0  0  0  0
   57.6116   33.2213   43.3117 H   0  0  0  0  0  0  0  0  0  0  0  0
   58.7464   34.3075   44.3835 H   0  0  0  0  0  0  0  0  0  0  0  0
   59.6512   35.9531   46.0209 H   0  0  0  0  0  0  0  0  0  0  0  0
   59.8470   35.3476   48.4299 H   0  0  0  0  0  0  0  0  0  0  0  0
   60.7740   31.7965   48.0402 H   0  0  0  0  0  0  0  0  0  0  0  0
   61.8036   30.6335   48.9812 H   0  0  0  0  0  0  0  0  0  0  0  0
   59.3188   29.5641   49.3792 H   0  0  0  0  0  0  0  0  0  0  0  0
   59.1503   30.2584   47.7107 H   0  0  0  0  0  0  0  0  0  0  0  0
   59.2566   28.8267   46.2663 H   0  0  0  0  0  0  0  0  0  0  0  0
   60.9764   29.2481   45.8993 H   0  0  0  0  0  0  0  0  0  0  0  0
   60.3819   27.0666   44.9262 H   0  0  0  0  0  0  0  0  0  0  0  0
   61.6215   26.9033   46.2612 H   0  0  0  0  0  0  0  0  0  0  0  0
   58.3779   27.1005   47.8554 H   0  0  0  0  0  0  0  0  0  0  0  0
   59.2454   25.6590   48.5688 H   0  0  0  0  0  0  0  0  0  0  0  0
   59.9183   27.7678   49.6613 H   0  0  0  0  0  0  0  0  0  0  0  0
   61.2846   26.9595   48.7814 H   0  0  0  0  0  0  0  0  0  0  0  0
   58.2292   31.4254   47.5807 H   0  0  0  0  0  0  0  0  0  0  0  0
   58.0903   30.0730   46.2507 H   0  0  0  0  0  0  0  0  0  0  0  0
   58.7605   24.4120   43.8585 H   0  0  0  0  0  0  0  0  0  0  0  0
  1  2  1  0
  2  3  2  0
  2  4  2  0
  2  5  1  0
  5  6  1  0
  6  7  2  0
  7  8  1  0
  8  9  2  0
  9 10  1  0
 10 11  2  0
 11 12  1  0
 12 13  2  0
 13 14  1  0
 14 15  2  0
 15 16  1  0
 16 17  1  0
 17 18  2  0
 18 19  1  0
 19 20  2  0
 20 21  1  0
 21 22  1  0
 22 23  2  0
 22 24  2  0
 22 25  1  0
 25 26  1  0
 26 27  1  0
 27 28  1  0
 28 29  1  0
 29 30  1  0
 30 31  1  0
 31 32  1  0
 32 33  1  0
 21 34  2  0
 16 35  2  0
 11 36  1  0
 36 37  1  0
 37 38  2  0
 38  6  1  0
 37  9  1  0
 35 12  1  0
 34 17  1  0
 33 28  1  0
  1 39  1  0
  1 40  1  0
  1 41  1  0
  5 42  1  0
  7 43  1  0
  8 44  1  0
 13 45  1  0
 14 46  1  0
 15 47  1  0
 18 48  1  0
 19 49  1  0
 20 50  1  0
 26 51  1  0
 26 52  1  0
 27 53  1  0
 27 54  1  0
 29 55  1  0
 29 56  1  0
 30 57  1  0
 30 58  1  0
 32 59  1  0
 32 60  1  0
 33 61  1  0
 33 62  1  0
 34 63  1  0
 35 64  1  0
 38 65  1  0
M  CHG  2  25  -1  36  -1
M  END
>  <UniqueID>  (34) 
32

>  <SMILES>  (34) 
CS(=O)(=O)Nc1ccc2nc(-c3cccc(-c4cccc(S(=O)(=O)[N-]CCN5CCOCC5)c4)c3)[n-]c2c1

>  <Energy>  (34) 
122.54553512910697

>  <Genealogy>  (34) 
CS(=O)(=O)Nc1ccc2nc(-c3cccc(-c4cccc(S(=O)(=O)[N-]CCN5CCOCC5)c4)c3)[n-]c2c1 (protonated)
CS(=O)(=O)Nc1ccc2nc(-c3cccc(-c4cccc(S(=O)(=O)[N-]CCN5CCOCC5)c4)c3)[n-]c2c1 (3D coordinates assigned)
CS(=O)(=O)Nc1ccc2nc(-c3cccc(-c4cccc(S(=O)(=O)[N-]CCN5CCOCC5)c4)c3)[n-]c2c1 (nonaromatic ring conformer: 122.54553512910697 kcal/mol)

>  <smiles>  (34) 
CS(=O)(=O)Nc1ccc2nc(-c3cccc(-c4cccc(S(=O)(=O)NCCN5CCOCC5)c4)c3)[nH]c2c1

>  <score_type>  (34) 
oracle

>  <origin>  (34) 
adg

>  <m_score__min__energy>  (34) 
-13.24

>  <m_primary>  (34) 
energy

$$$$
34:0
     RDKit          3D

 49 51  0  0  0  0  0  0  0  0999 V2000
   60.2482   26.7736   48.3937 H   0  0  0  0  0  0  0  0  0  0  0  0
   59.5420   27.1460   47.6370 C   0  0  0  0  0  0  0  0  0  0  0  0
   59.7670   28.3750   47.0210 C   0  0  0  0  0  0  0  0  0  0  0  0
   60.6482   28.9735   47.2954 H   0  0  0  0  0  0  0  0  0  0  0  0
   58.8770   28.8480   46.0570 C   0  0  0  0  0  0  0  0  0  0  0  0
   59.0601   29.8218   45.5792 H   0  0  0  0  0  0  0  0  0  0  0  0
   57.7460   28.0930   45.6880 C   0  0  0  0  0  0  0  0  0  0  0  0
   56.8840   28.5930   44.5440 C   0  0  0  0  0  0  0  0  0  0  0  0
   57.5042   28.6823   43.6399 H   0  0  0  0  0  0  0  0  0  0  0  0
   56.0664   27.8746   44.3843 H   0  0  0  0  0  0  0  0  0  0  0  0
   56.2990   29.9000   44.8530 N   0  0  0  0  0  0  0  0  0  0  0  0
   56.8210   31.0320   44.4910 C   0  0  0  0  0  0  0  0  0  0  0  0
   56.6370   32.1930   45.1460 N   0  0  0  0  0  0  0  0  0  0  0  0
   57.4010   33.0930   44.5510 N   0  0  0  0  0  0  0  0  0  0  0  0
   57.6020   34.4370   45.0810 C   0  0  0  0  0  0  0  0  0  0  0  0
   57.3258   35.1775   44.3159 H   0  0  0  0  0  0  0  0  0  0  0  0
   56.9725   34.5766   45.9722 H   0  0  0  0  0  0  0  0  0  0  0  0
   59.0740   34.6230   45.4630 C   0  0  0  0  0  0  0  0  0  0  0  0
   59.6831   33.8758   44.9332 H   0  0  0  0  0  0  0  0  0  0  0  0
   59.3904   35.6379   45.1804 H   0  0  0  0  0  0  0  0  0  0  0  0
   59.2540   34.4530   46.9220 N   0  0  0  0  0  0  0  0  0  0  0  0
   58.3260   33.4450   47.4900 C   0  0  0  0  0  0  0  0  0  0  0  0
   58.0741   33.7386   48.5197 H   0  0  0  0  0  0  0  0  0  0  0  0
   57.4337   33.4139   46.8475 H   0  0  0  0  0  0  0  0  0  0  0  0
   58.9340   32.0270   47.5150 C   0  0  0  0  0  0  0  0  0  0  0  0
   59.3941   31.8484   48.4981 H   0  0  0  0  0  0  0  0  0  0  0  0
   58.1338   31.2952   47.3302 H   0  0  0  0  0  0  0  0  0  0  0  0
   59.9170   31.8890   46.5110 O   0  0  0  0  0  0  0  0  0  0  0  0
   61.0390   32.7010   46.8140 C   0  0  0  0  0  0  0  0  0  0  0  0
   61.6118   32.2194   47.6202 H   0  0  0  0  0  0  0  0  0  0  0  0
   61.6294   32.8011   45.8913 H   0  0  0  0  0  0  0  0  0  0  0  0
   60.6520   34.1280   47.2700 C   0  0  0  0  0  0  0  0  0  0  0  0
   60.7733   34.1987   48.3610 H   0  0  0  0  0  0  0  0  0  0  0  0
   61.3089   34.8429   46.7529 H   0  0  0  0  0  0  0  0  0  0  0  0
   58.0780   32.5240   43.5330 C   0  0  0  0  0  0  0  0  0  0  0  0
   58.7965   33.0346   42.8749 H   0  0  0  0  0  0  0  0  0  0  0  0
   57.7180   31.1920   43.4550 C   0  0  0  0  0  0  0  0  0  0  0  0
   58.0654   30.4361   42.7353 H   0  0  0  0  0  0  0  0  0  0  0  0
   57.5110   26.8440   46.3270 C   0  0  0  0  0  0  0  0  0  0  0  0
   56.3400   25.9980   46.0000 C   0  0  0  0  0  0  0  0  0  0  0  0
   55.1830   26.4980   46.0010 O   0  0  0  0  0  0  0  0  0  0  0  0
   56.5140   24.6060   45.6950 N   0  0  0  0  0  0  0  0  0  0  0  0
   57.4760   24.2050   45.6310 H   0  0  0  0  0  0  0  0  0  0  0  0
   55.3780   23.7350   45.4230 C   0  0  0  0  0  0  0  0  0  0  0  0
   54.9385   23.3980   46.3734 H   0  0  0  0  0  0  0  0  0  0  0  0
   54.6225   24.2875   44.8451 H   0  0  0  0  0  0  0  0  0  0  0  0
   55.7154   22.8620   44.8451 H   0  0  0  0  0  0  0  0  0  0  0  0
   58.4230   26.3870   47.2960 C   0  0  0  0  0  0  0  0  0  0  0  0
   58.2513   25.4195   47.7905 H   0  0  0  0  0  0  0  0  0  0  0  0
  1  2  1  0
  2  3  2  0
  3  4  1  0
  3  5  1  0
  5  6  1  0
  5  7  2  0
  7  8  1  0
  8  9  1  0
  8 10  1  0
  8 11  1  0
 11 12  2  0
 12 13  1  0
 13 14  1  0
 14 15  1  0
 15 16  1  0
 15 17  1  0
 15 18  1  0
 18 19  1  0
 18 20  1  0
 18 21  1  0
 21 22  1  0
 22 23  1  0
 22 24  1  0
 22 25  1  0
 25 26  1  0
 25 27  1  0
 25 28  1  0
 28 29  1  0
 29 30  1  0
 29 31  1  0
 29 32  1  0
 32 33  1  0
 32 34  1  0
 14 35  1  0
 35 36  1  0
 35 37  2  0
 37 38  1  0
  7 39  1  0
 39 40  1  0
 40 41  2  0
 40 42  1  0
 42 43  1  0
 42 44  1  0
 44 45  1  0
 44 46  1  0
 44 47  1  0
 39 48  2  0
 48 49  1  0
 48  2  1  0
 37 12  1  0
 32 21  1  0
M  CHG  1  13  -1
M  END
>  <UniqueID>  (35) 
33

>  <SMILES>  (35) 
CNC(=O)c1ccccc1C/N=c1/ccn(CCN2CCOCC2)[n-]1

>  <Energy>  (35) 
89.71339528664643

>  <Genealogy>  (35) 
CNC(=O)c1ccccc1CN=c1ccn(CCN2CCOCC2)[n-]1 (protonated)
CNC(=O)c1ccccc1C/N=c1/ccn(CCN2CCOCC2)[n-]1 (cis-trans isomerization)
CNC(=O)c1ccccc1C/N=c1/ccn(CCN2CCOCC2)[n-]1 (3D coordinates assigned)
CNC(=O)c1ccccc1C/N=c1/ccn(CCN2CCOCC2)[n-]1 (nonaromatic ring conformer: 89.71339528664643 kcal/mol)

>  <smiles>  (35) 
CNC(=O)c1ccccc1CN=c1ccn(CCN2CCOCC2)[nH]1

>  <score_type>  (35) 
oracle

>  <origin>  (35) 
adg

>  <m_score__min__energy>  (35) 
-9.7599999999999998

>  <m_primary>  (35) 
energy

$$$$
35:0
     RDKit          3D

 63 67  0  0  0  0  0  0  0  0999 V2000
   57.2820   29.8860   43.1390 O   0  0  0  0  0  0  0  0  0  0  0  0
   57.6880   29.4110   44.5060 S   0  0  0  0  0  0  0  0  0  0  0  0
   56.8140   30.0920   45.5220 O   0  0  0  0  0  0  0  0  0  0  0  0
   57.4460   27.6670   44.5800 C   0  0  0  0  0  0  0  0  0  0  0  0
   57.9330   26.8340   43.5600 C   0  0  0  0  0  0  0  0  0  0  0  0
   57.7140   25.4530   43.6130 C   0  0  0  0  0  0  0  0  0  0  0  0
   57.0010   24.9030   44.6810 C   0  0  0  0  0  0  0  0  0  0  0  0
   56.5340   25.7280   45.7130 C   0  0  0  0  0  0  0  0  0  0  0  0
   56.7400   27.1080   45.6560 C   0  0  0  0  0  0  0  0  0  0  0  0
   55.8600   25.1480   46.7930 O   0  0  0  0  0  0  0  0  0  0  0  0
   55.8800   23.7340   47.0040 C   0  0  0  0  0  0  0  0  0  0  0  0
   55.7900   22.9960   45.6620 C   0  0  0  0  0  0  0  0  0  0  0  0
   56.7410   23.5300   44.7370 O   0  0  0  0  0  0  0  0  0  0  0  0
   59.3700   29.8140   44.7850 N   0  0  0  0  0  0  0  0  0  0  0  0
   60.2080   28.6090   44.9130 C   0  0  0  0  0  0  0  0  0  0  0  0
   60.0820   27.9410   46.2860 C   0  0  0  0  0  0  0  0  0  0  0  0
   59.9200   28.9590   47.4280 C   0  0  0  0  0  0  0  0  0  0  0  0
   60.3210   30.3270   47.0400 N   0  0  1  0  0  0  0  0  0  0  0  0
   61.7960   30.4610   46.8390 C   0  0  0  0  0  0  0  0  0  0  0  0
   62.3070   31.7940   47.3290 C   0  0  0  0  0  0  0  0  0  0  0  0
   63.6500   32.1520   47.1350 C   0  0  0  0  0  0  0  0  0  0  0  0
   64.1310   33.3660   47.6280 C   0  0  0  0  0  0  0  0  0  0  0  0
   63.2820   34.2270   48.3290 C   0  0  0  0  0  0  0  0  0  0  0  0
   61.9370   33.8710   48.5480 C   0  0  0  0  0  0  0  0  0  0  0  0
   61.0470   34.6930   49.2550 O   0  0  0  0  0  0  0  0  0  0  0  0
   59.6290   34.5510   49.2360 C   0  0  0  0  0  0  0  0  0  0  0  0
   59.1630   34.4580   47.8130 C   0  0  0  0  0  0  0  0  0  0  0  0
   58.1740   33.5300   47.4520 C   0  0  0  0  0  0  0  0  0  0  0  0
   57.7680   33.4160   46.1180 C   0  0  0  0  0  0  0  0  0  0  0  0
   58.3540   34.2190   45.1370 C   0  0  0  0  0  0  0  0  0  0  0  0
   59.3510   35.1330   45.4860 C   0  0  0  0  0  0  0  0  0  0  0  0
   59.7610   35.2500   46.8180 C   0  0  0  0  0  0  0  0  0  0  0  0
   61.4620   32.6530   48.0490 C   0  0  0  0  0  0  0  0  0  0  0  0
   59.5240   30.8090   45.8800 C   0  0  0  0  0  0  0  0  0  0  0  0
   58.4888   27.2687   42.7161 H   0  0  0  0  0  0  0  0  0  0  0  0
   58.1023   24.8021   42.8158 H   0  0  0  0  0  0  0  0  0  0  0  0
   56.3491   27.7563   46.4540 H   0  0  0  0  0  0  0  0  0  0  0  0
   56.8163   23.4554   47.5096 H   0  0  0  0  0  0  0  0  0  0  0  0
   55.0182   23.4521   47.6268 H   0  0  0  0  0  0  0  0  0  0  0  0
   55.9986   21.9277   45.8207 H   0  0  0  0  0  0  0  0  0  0  0  0
   54.7784   23.1253   45.2497 H   0  0  0  0  0  0  0  0  0  0  0  0
   59.9044   27.8862   44.1414 H   0  0  0  0  0  0  0  0  0  0  0  0
   61.2560   28.9201   44.7911 H   0  0  0  0  0  0  0  0  0  0  0  0
   59.2030   27.2798   46.2765 H   0  0  0  0  0  0  0  0  0  0  0  0
   61.0104   27.3802   46.4695 H   0  0  0  0  0  0  0  0  0  0  0  0
   58.8639   28.9767   47.7353 H   0  0  0  0  0  0  0  0  0  0  0  0
   60.5800   28.6419   48.2489 H   0  0  0  0  0  0  0  0  0  0  0  0
   60.0380   30.9380   47.8440 H   0  0  0  0  0  0  0  0  0  0  0  0
   62.3056   29.6585   47.3924 H   0  0  0  0  0  0  0  0  0  0  0  0
   62.0033   30.3893   45.7611 H   0  0  0  0  0  0  0  0  0  0  0  0
   64.3255   31.4739   46.5929 H   0  0  0  0  0  0  0  0  0  0  0  0
   65.1820   33.6461   47.4642 H   0  0  0  0  0  0  0  0  0  0  0  0
   63.6652   35.1849   48.7106 H   0  0  0  0  0  0  0  0  0  0  0  0
   59.3432   33.6371   49.7775 H   0  0  0  0  0  0  0  0  0  0  0  0
   59.1633   35.4211   49.7219 H   0  0  0  0  0  0  0  0  0  0  0  0
   57.7164   32.8899   48.2207 H   0  0  0  0  0  0  0  0  0  0  0  0
   56.9864   32.6931   45.8415 H   0  0  0  0  0  0  0  0  0  0  0  0
   58.0304   34.1317   44.0893 H   0  0  0  0  0  0  0  0  0  0  0  0
   59.8145   35.7620   44.7117 H   0  0  0  0  0  0  0  0  0  0  0  0
   60.5535   35.9637   47.0875 H   0  0  0  0  0  0  0  0  0  0  0  0
   60.4146   32.3655   48.2229 H   0  0  0  0  0  0  0  0  0  0  0  0
   58.5213   31.0816   46.2409 H   0  0  0  0  0  0  0  0  0  0  0  0
   60.0728   31.6621   45.4545 H   0  0  0  0  0  0  0  0  0  0  0  0
  1  2  2  0
  2  3  2  0
  2  4  1  0
  4  5  2  0
  5  6  1  0
  6  7  2  0
  7  8  1  0
  8  9  2  0
  8 10  1  0
 10 11  1  0
 11 12  1  0
 12 13  1  0
  2 14  1  0
 14 15  1  0
 15 16  1  0
 16 17  1  0
 17 18  1  0
 18 19  1  0
 19 20  1  0
 20 21  2  0
 21 22  1  0
 22 23  2  0
 23 24  1  0
 24 25  1  0
 25 26  1  0
 26 27  1  0
 27 28  2  0
 28 29  1  0
 29 30  2  0
 30 31  1  0
 31 32  2  0
 24 33  2  0
 18 34  1  0
  9  4  1  0
 34 14  1  0
 13  7  1  0
 33 20  1  0
 32 27  1  0
  5 35  1  0
  6 36  1  0
  9 37  1  0
 11 38  1  0
 11 39  1  0
 12 40  1  0
 12 41  1  0
 15 42  1  0
 15 43  1  0
 16 44  1  0
 16 45  1  0
 17 46  1  0
 17 47  1  0
 18 48  1  1
 19 49  1  0
 19 50  1  0
 21 51  1  0
 22 52  1  0
 23 53  1  0
 26 54  1  0
 26 55  1  0
 28 56  1  0
 29 57  1  0
 30 58  1  0
 31 59  1  0
 32 60  1  0
 33 61  1  0
 34 62  1  0
 34 63  1  0
M  CHG  1  18   1
M  END
>  <UniqueID>  (36) 
34

>  <SMILES>  (36) 
O=S(=O)(c1ccc2c(c1)OCCO2)N1CCC[N@@H+](Cc2cccc(OCc3ccccc3)c2)C1

>  <Energy>  (36) 
85.59698826799793

>  <Genealogy>  (36) 
O=S(=O)(c1ccc2c(c1)OCCO2)N1CCC[NH+](Cc2cccc(OCc3ccccc3)c2)C1 (protonated)
O=S(=O)(c1ccc2c(c1)OCCO2)N1CCC[N@@H+](Cc2cccc(OCc3ccccc3)c2)C1 (chirality)
O=S(=O)(c1ccc2c(c1)OCCO2)N1CCC[N@@H+](Cc2cccc(OCc3ccccc3)c2)C1 (3D coordinates assigned)
O=S(=O)(c1ccc2c(c1)OCCO2)N1CCC[N@@H+](Cc2cccc(OCc3ccccc3)c2)C1 (nonaromatic ring conformer: 85.59698826799793 kcal/mol)

>  <smiles>  (36) 
O=S(=O)(c1ccc2c(c1)OCCO2)N1CCCN(Cc2cccc(OCc3ccccc3)c2)C1

>  <score_type>  (36) 
oracle

>  <origin>  (36) 
adg

>  <m_score__min__energy>  (36) 
-8.4199999999999999

>  <m_primary>  (36) 
energy

$$$$
36:0
     RDKit          3D

 61 65  0  0  0  0  0  0  0  0999 V2000
   60.2330   28.0880   48.0010 C   0  0  0  0  0  0  0  0  0  0  0  0
   59.7550   29.2460   48.8250 C   0  0  0  0  0  0  0  0  0  0  0  0
   59.7240   29.1500   50.2200 C   0  0  0  0  0  0  0  0  0  0  0  0
   59.2380   30.2100   50.9910 C   0  0  0  0  0  0  0  0  0  0  0  0
   58.7730   31.3700   50.3730 C   0  0  0  0  0  0  0  0  0  0  0  0
   58.7830   31.4760   48.9750 C   0  0  0  0  0  0  0  0  0  0  0  0
   58.3130   32.7410   48.3100 C   0  0  0  0  0  0  0  0  0  0  0  0
   59.3330   33.2310   47.3780 N   0  0  0  0  0  0  0  0  0  0  0  0
   59.1650   33.5930   46.0750 C   0  0  0  0  0  0  0  0  0  0  0  0
   57.5740   33.6750   45.2450 S   0  0  0  0  0  0  0  0  0  0  0  0
   57.9800   32.3930   44.0100 C   0  0  0  0  0  0  0  0  0  0  0  0
   57.6110   31.0270   44.5180 C   0  0  0  0  0  0  0  0  0  0  0  0
   58.5870   30.2020   45.0950 C   0  0  0  0  0  0  0  0  0  0  0  0
   58.2660   28.9050   45.5010 C   0  0  0  0  0  0  0  0  0  0  0  0
   56.9630   28.4070   45.3280 C   0  0  0  0  0  0  0  0  0  0  0  0
   56.6330   27.0210   45.7200 C   0  0  0  0  0  0  0  0  0  0  0  0
   55.4440   26.7120   46.0110 O   0  0  0  0  0  0  0  0  0  0  0  0
   57.6660   26.0310   45.7970 N   0  0  0  0  0  0  0  0  0  0  0  0
   57.4270   24.6810   46.2830 C   0  0  0  0  0  0  0  0  0  0  0  0
   57.1700   23.7680   45.1230 C   0  0  0  0  0  0  0  0  0  0  0  0
   56.1540   24.0710   44.2000 C   0  0  0  0  0  0  0  0  0  0  0  0
   55.9100   23.2160   43.1190 C   0  0  0  0  0  0  0  0  0  0  0  0
   56.6780   22.0590   42.9530 C   0  0  0  0  0  0  0  0  0  0  0  0
   57.7040   21.7630   43.8550 C   0  0  0  0  0  0  0  0  0  0  0  0
   57.9550   22.6150   44.9350 C   0  0  0  0  0  0  0  0  0  0  0  0
   55.9860   29.2380   44.7540 C   0  0  0  0  0  0  0  0  0  0  0  0
   56.3040   30.5390   44.3620 C   0  0  0  0  0  0  0  0  0  0  0  0
   60.3340   33.8920   45.4550 N   0  0  0  0  0  0  0  0  0  0  0  0
   61.2570   33.7130   46.4110 C   0  0  0  0  0  0  0  0  0  0  0  0
   62.5990   33.8630   46.2860 N   0  0  0  0  0  0  0  0  0  0  0  0
   63.3940   33.6020   47.3680 C   0  0  0  0  0  0  0  0  0  0  0  0
   62.8250   33.1820   48.5930 C   0  0  0  0  0  0  0  0  0  0  0  0
   61.4300   33.0280   48.7030 C   0  0  0  0  0  0  0  0  0  0  0  0
   60.6660   33.3080   47.5700 C   0  0  0  0  0  0  0  0  0  0  0  0
   59.2720   30.4060   48.2040 C   0  0  0  0  0  0  0  0  0  0  0  0
   60.5673   27.2780   48.6660 H   0  0  0  0  0  0  0  0  0  0  0  0
   59.4110   27.7255   47.3663 H   0  0  0  0  0  0  0  0  0  0  0  0
   61.0714   28.4109   47.3663 H   0  0  0  0  0  0  0  0  0  0  0  0
   60.0841   28.2351   50.7133 H   0  0  0  0  0  0  0  0  0  0  0  0
   59.2224   30.1287   52.0879 H   0  0  0  0  0  0  0  0  0  0  0  0
   58.3973   32.2042   50.9838 H   0  0  0  0  0  0  0  0  0  0  0  0
   57.3836   32.5378   47.7578 H   0  0  0  0  0  0  0  0  0  0  0  0
   58.1324   33.5059   49.0797 H   0  0  0  0  0  0  0  0  0  0  0  0
   57.4232   32.5957   43.0832 H   0  0  0  0  0  0  0  0  0  0  0  0
   59.0630   32.4176   43.8190 H   0  0  0  0  0  0  0  0  0  0  0  0
   59.6118   30.5788   45.2287 H   0  0  0  0  0  0  0  0  0  0  0  0
   59.0378   28.2690   45.9591 H   0  0  0  0  0  0  0  0  0  0  0  0
   58.3099   24.3296   46.8370 H   0  0  0  0  0  0  0  0  0  0  0  0
   56.5513   24.6818   46.9486 H   0  0  0  0  0  0  0  0  0  0  0  0
   55.5498   24.9814   44.3275 H   0  0  0  0  0  0  0  0  0  0  0  0
   55.1132   23.4544   42.3991 H   0  0  0  0  0  0  0  0  0  0  0  0
   56.4743   21.3808   42.1112 H   0  0  0  0  0  0  0  0  0  0  0  0
   58.3146   20.8588   43.7151 H   0  0  0  0  0  0  0  0  0  0  0  0
   58.7677   22.3836   45.6392 H   0  0  0  0  0  0  0  0  0  0  0  0
   54.9627   28.8601   44.6126 H   0  0  0  0  0  0  0  0  0  0  0  0
   55.5266   31.1854   43.9286 H   0  0  0  0  0  0  0  0  0  0  0  0
   60.4780   34.1960   44.4670 H   0  0  0  0  0  0  0  0  0  0  0  0
   64.4845   33.7197   47.2849 H   0  0  0  0  0  0  0  0  0  0  0  0
   63.4717   32.9760   49.4586 H   0  0  0  0  0  0  0  0  0  0  0  0
   60.9620   32.7006   49.6431 H   0  0  0  0  0  0  0  0  0  0  0  0
   59.2754   30.4801   47.1065 H   0  0  0  0  0  0  0  0  0  0  0  0
  1  2  1  0
  2  3  2  0
  3  4  1  0
  4  5  2  0
  5  6  1  0
  6  7  1  0
  7  8  1  0
  8  9  1  0
  9 10  1  0
 10 11  1  0
 11 12  1  0
 12 13  2  0
 13 14  1  0
 14 15  2  0
 15 16  1  0
 16 17  2  0
 16 18  1  0
 18 19  1  0
 19 20  1  0
 20 21  2  0
 21 22  1  0
 22 23  2  0
 23 24  1  0
 24 25  2  0
 15 26  1  0
 26 27  2  0
  9 28  2  0
 28 29  1  0
 29 30  2  0
 30 31  1  0
 31 32  2  0
 32 33  1  0
 33 34  2  0
  6 35  2  0
 35  2  1  0
 34  8  1  0
 27 12  1  0
 34 29  1  0
 25 20  1  0
  1 36  1  0
  1 37  1  0
  1 38  1  0
  3 39  1  0
  4 40  1  0
  5 41  1  0
  7 42  1  0
  7 43  1  0
 11 44  1  0
 11 45  1  0
 13 46  1  0
 14 47  1  0
 19 48  1  0
 19 49  1  0
 21 50  1  0
 22 51  1  0
 23 52  1  0
 24 53  1  0
 25 54  1  0
 26 55  1  0
 27 56  1  0
 28 57  1  0
 31 58  1  0
 32 59  1  0
 33 60  1  0
 35 61  1  0
M  CHG  2  18  -1  28   1
M  END
>  <UniqueID>  (37) 
35

>  <SMILES>  (37) 
Cc1cccc(Cn2c(SCc3ccc(C(=O)[N-]Cc4ccccc4)cc3)[nH+]c3ncccc32)c1

>  <Energy>  (37) 
99.41641345698118

>  <Genealogy>  (37) 
Cc1cccc(Cn2c(SCc3ccc(C(=O)[N-]Cc4ccccc4)cc3)[nH+]c3ncccc32)c1 (protonated)
Cc1cccc(Cn2c(SCc3ccc(C(=O)[N-]Cc4ccccc4)cc3)[nH+]c3ncccc32)c1 (3D coordinates assigned)
Cc1cccc(Cn2c(SCc3ccc(C(=O)[N-]Cc4ccccc4)cc3)[nH+]c3ncccc32)c1 (optimized conformer: 99.41641345698118 kcal/mol)

>  <smiles>  (37) 
Cc1cccc(Cn2c(SCc3ccc(C(=O)NCc4ccccc4)cc3)nc3ncccc32)c1

>  <score_type>  (37) 
oracle

>  <origin>  (37) 
adg

>  <m_score__min__energy>  (37) 
-10.58

>  <m_primary>  (37) 
energy

$$$$
37:0
     RDKit          3D

 54 57  0  0  0  0  0  0  0  0999 V2000
   57.4150   32.9190   45.9000 C   0  0  0  0  0  0  0  0  0  0  0  0
   58.1460   34.2650   45.8080 C   0  0  0  0  0  0  0  0  0  0  0  0
   59.0950   34.2500   44.5990 C   0  0  0  0  0  0  0  0  0  0  0  0
   58.9080   34.5670   47.1260 C   0  0  0  0  0  0  0  0  0  0  0  0
   60.4370   34.5010   46.9800 C   0  0  0  0  0  0  0  0  0  0  0  0
   60.9960   33.3190   47.6500 N   0  0  0  0  0  0  0  0  0  0  0  0
   60.6920   31.9760   47.2030 C   0  0  0  0  0  0  0  0  0  0  0  0
   60.2150   31.8060   46.0460 O   0  0  0  0  0  0  0  0  0  0  0  0
   61.0370   30.7820   48.0580 C   0  0  0  0  0  0  0  0  0  0  0  0
   60.5520   29.5400   47.7630 C   0  0  0  0  0  0  0  0  0  0  0  0
   60.8170   28.4360   48.6540 N   0  0  0  0  0  0  0  0  0  0  0  0
   60.3850   27.0800   48.3330 C   0  0  0  0  0  0  0  0  0  0  0  0
   59.1500   27.1060   47.4870 C   0  0  0  0  0  0  0  0  0  0  0  0
   58.2470   26.0330   47.5230 C   0  0  0  0  0  0  0  0  0  0  0  0
   57.1130   26.0290   46.7040 C   0  0  0  0  0  0  0  0  0  0  0  0
   56.2100   24.9160   46.7930 N   0  0  0  0  0  0  0  0  0  0  0  0
   54.8190   24.6560   45.7920 S   0  0  0  0  0  0  0  0  0  0  0  0
   55.3180   24.0750   44.1840 C   0  0  0  0  0  0  0  0  0  0  0  0
   53.8920   23.6680   46.4440 O   0  0  0  0  0  0  0  0  0  0  0  0
   54.0940   25.9610   45.6250 O   0  0  0  0  0  0  0  0  0  0  0  0
   56.9010   27.0980   45.8190 C   0  0  0  0  0  0  0  0  0  0  0  0
   57.8080   28.1590   45.7680 C   0  0  0  0  0  0  0  0  0  0  0  0
   58.9310   28.1870   46.6120 C   0  0  0  0  0  0  0  0  0  0  0  0
   59.8870   29.2670   46.5040 N   0  0  0  0  0  0  0  0  0  0  0  0
   61.9160   31.0440   49.2460 C   0  0  0  0  0  0  0  0  0  0  0  0
   62.2520   30.1400   50.0570 O   0  0  0  0  0  0  0  0  0  0  0  0
   62.3020   32.4240   49.5240 C   0  0  0  0  0  0  0  0  0  0  0  0
   63.0590   32.8680   50.5400 N   0  0  0  0  0  0  0  0  0  0  0  0
   63.0360   34.2100   50.3540 C   0  0  0  0  0  0  0  0  0  0  0  0
   63.6440   35.0080   51.1130 O   0  0  0  0  0  0  0  0  0  0  0  0
   62.3030   34.6300   49.2940 N   0  0  0  0  0  0  0  0  0  0  0  0
   61.8500   33.4710   48.7900 C   0  0  0  0  0  0  0  0  0  0  0  0
   57.2700   32.6520   46.9572 H   0  0  0  0  0  0  0  0  0  0  0  0
   56.4362   32.9987   45.4044 H   0  0  0  0  0  0  0  0  0  0  0  0
   58.0147   32.1414   45.4044 H   0  0  0  0  0  0  0  0  0  0  0  0
   57.4107   35.0706   45.6654 H   0  0  0  0  0  0  0  0  0  0  0  0
   60.1370   34.2335   44.9510 H   0  0  0  0  0  0  0  0  0  0  0  0
   58.8994   33.3548   43.9904 H   0  0  0  0  0  0  0  0  0  0  0  0
   58.9278   35.1509   43.9904 H   0  0  0  0  0  0  0  0  0  0  0  0
   58.6338   35.5776   47.4628 H   0  0  0  0  0  0  0  0  0  0  0  0
   58.6188   33.7923   47.8514 H   0  0  0  0  0  0  0  0  0  0  0  0
   60.6916   34.4584   45.9107 H   0  0  0  0  0  0  0  0  0  0  0  0
   60.8657   35.3975   47.4517 H   0  0  0  0  0  0  0  0  0  0  0  0
   61.5770   28.5110   49.3660 H   0  0  0  0  0  0  0  0  0  0  0  0
   61.1878   26.5652   47.7848 H   0  0  0  0  0  0  0  0  0  0  0  0
   60.1617   26.5482   49.2697 H   0  0  0  0  0  0  0  0  0  0  0  0
   58.4324   25.1872   48.2014 H   0  0  0  0  0  0  0  0  0  0  0  0
   56.0308   23.2451   44.2989 H   0  0  0  0  0  0  0  0  0  0  0  0
   54.4344   23.7254   43.6300 H   0  0  0  0  0  0  0  0  0  0  0  0
   55.7970   24.8957   43.6300 H   0  0  0  0  0  0  0  0  0  0  0  0
   56.0176   27.1000   45.1635 H   0  0  0  0  0  0  0  0  0  0  0  0
   57.6411   28.9828   45.0584 H   0  0  0  0  0  0  0  0  0  0  0  0
   59.3570   30.1180   46.2040 H   0  0  0  0  0  0  0  0  0  0  0  0
   60.6020   29.0110   45.7850 H   0  0  0  0  0  0  0  0  0  0  0  0
  1  2  1  0
  2  3  1  0
  2  4  1  0
  4  5  1  0
  5  6  1  0
  6  7  1  0
  7  8  2  0
  7  9  1  0
  9 10  2  3
 10 11  1  0
 11 12  1  0
 12 13  1  0
 13 14  2  0
 14 15  1  0
 15 16  1  0
 16 17  1  0
 17 18  1  0
 17 19  2  0
 17 20  2  0
 15 21  2  0
 21 22  1  0
 22 23  2  0
 23 24  1  0
  9 25  1  0
 25 26  2  0
 25 27  1  0
 27 28  1  0
 28 29  1  0
 29 30  2  0
 29 31  1  0
 31 32  1  0
 32  6  1  0
 24 10  1  0
 32 27  2  0
 23 13  1  0
  1 33  1  0
  1 34  1  0
  1 35  1  0
  2 36  1  0
  3 37  1  0
  3 38  1  0
  3 39  1  0
  4 40  1  0
  4 41  1  0
  5 42  1  0
  5 43  1  0
 11 44  1  0
 12 45  1  0
 12 46  1  0
 14 47  1  0
 18 48  1  0
 18 49  1  0
 18 50  1  0
 21 51  1  0
 22 52  1  0
 24 53  1  0
 24 54  1  0
M  CHG  4  16  -1  24   1  28  -1  31  -1
M  END
>  <UniqueID>  (38) 
36

>  <SMILES>  (38) 
CC(C)CCN1C(=O)C(=C2NCc3cc([N-]S(C)(=O)=O)ccc3[NH2+]2)C(=O)c2[n-]c(=O)[n-]c21

>  <Energy>  (38) 
100.83763225789473

>  <Genealogy>  (38) 
CC(C)CCN1C(=O)C(=C2NCc3cc([N-]S(C)(=O)=O)ccc3[NH2+]2)C(=O)c2[n-]c(=O)[n-]c21 (protonated)
CC(C)CCN1C(=O)C(=C2NCc3cc([N-]S(C)(=O)=O)ccc3[NH2+]2)C(=O)c2[n-]c(=O)[n-]c21 (3D coordinates assigned)
CC(C)CCN1C(=O)C(=C2NCc3cc([N-]S(C)(=O)=O)ccc3[NH2+]2)C(=O)c2[n-]c(=O)[n-]c21 (nonaromatic ring conformer: 100.83763225789473 kcal/mol)

>  <smiles>  (38) 
CC(C)CCN1C(=O)C(=C2NCc3cc(NS(C)(=O)=O)ccc3N2)C(=O)c2[nH]c(=O)[nH]c21

>  <score_type>  (38) 
oracle

>  <origin>  (38) 
adg

>  <m_score__min__energy>  (38) 
-10.57

>  <m_primary>  (38) 
energy

$$$$
38:0
     RDKit          3D

 55 57  0  0  0  0  0  0  0  0999 V2000
   52.0470   22.8200   44.7690 N   0  0  0  0  0  0  0  0  0  0  0  0
   53.5290   23.5130   45.3220 S   0  0  0  0  0  0  0  0  0  0  0  0
   53.3200   24.9750   45.6020 O   0  0  0  0  0  0  0  0  0  0  0  0
   54.5770   23.3530   44.2570 O   0  0  0  0  0  0  0  0  0  0  0  0
   54.0440   22.6740   46.8150 C   0  0  0  0  0  0  0  0  0  0  0  0
   55.5110   22.9580   47.1570 C   0  0  0  0  0  0  0  0  0  0  0  0
   55.9350   24.2610   46.6470 N   0  0  0  0  0  0  0  0  0  0  0  0
   57.0090   25.0100   47.2380 C   0  0  0  0  0  0  0  0  0  0  0  0
   57.6720   24.5160   48.1910 O   0  0  0  0  0  0  0  0  0  0  0  0
   57.3770   26.3460   46.7200 C   0  0  0  0  0  0  0  0  0  0  0  0
   58.6670   26.8480   46.9680 C   0  0  0  0  0  0  0  0  0  0  0  0
   59.0520   28.1060   46.4940 C   0  0  0  0  0  0  0  0  0  0  0  0
   60.3600   28.5480   46.7450 O   0  0  0  0  0  0  0  0  0  0  0  0
   60.7060   29.7490   47.3790 C   0  0  0  0  0  0  0  0  0  0  0  0
   61.5110   30.7180   46.7520 C   0  0  0  0  0  0  0  0  0  0  0  0
   61.8310   31.9050   47.4150 C   0  0  0  0  0  0  0  0  0  0  0  0
   61.3460   32.1460   48.7100 C   0  0  0  0  0  0  0  0  0  0  0  0
   61.7320   33.4070   49.4400 C   0  0  0  0  0  0  0  0  0  0  0  0
   61.1830   34.5960   48.7660 N   0  0  0  0  0  0  0  0  0  0  0  0
   59.7110   34.5970   48.7310 C   0  0  0  0  0  0  0  0  0  0  0  0
   59.2030   34.2520   47.3550 C   0  0  0  0  0  0  0  0  0  0  0  0
   59.6540   34.9600   46.2290 C   0  0  0  0  0  0  0  0  0  0  0  0
   59.2040   34.6130   44.9510 C   0  0  0  0  0  0  0  0  0  0  0  0
   58.2920   33.5670   44.7910 C   0  0  0  0  0  0  0  0  0  0  0  0
   57.8270   32.8670   45.9070 C   0  0  0  0  0  0  0  0  0  0  0  0
   58.2770   33.2090   47.1850 C   0  0  0  0  0  0  0  0  0  0  0  0
   60.5110   31.1960   49.3190 C   0  0  0  0  0  0  0  0  0  0  0  0
   60.1940   30.0080   48.6550 C   0  0  0  0  0  0  0  0  0  0  0  0
   58.1430   28.8650   45.7390 C   0  0  0  0  0  0  0  0  0  0  0  0
   56.8540   28.3860   45.5020 C   0  0  0  0  0  0  0  0  0  0  0  0
   56.4620   27.1380   45.9980 C   0  0  0  0  0  0  0  0  0  0  0  0
   55.1540   26.7120   45.7880 O   0  0  0  0  0  0  0  0  0  0  0  0
   51.9050   21.9330   45.3030 H   0  0  0  0  0  0  0  0  0  0  0  0
   53.4127   23.0141   47.6492 H   0  0  0  0  0  0  0  0  0  0  0  0
   53.9371   21.5917   46.6504 H   0  0  0  0  0  0  0  0  0  0  0  0
   55.6327   22.9447   48.2502 H   0  0  0  0  0  0  0  0  0  0  0  0
   56.1328   22.1827   46.6856 H   0  0  0  0  0  0  0  0  0  0  0  0
   55.4430   24.6390   45.8070 H   0  0  0  0  0  0  0  0  0  0  0  0
   59.3832   26.2426   47.5429 H   0  0  0  0  0  0  0  0  0  0  0  0
   61.8901   30.5398   45.7349 H   0  0  0  0  0  0  0  0  0  0  0  0
   62.4661   32.6545   46.9200 H   0  0  0  0  0  0  0  0  0  0  0  0
   61.3401   33.3625   50.4669 H   0  0  0  0  0  0  0  0  0  0  0  0
   62.8292   33.4847   49.4493 H   0  0  0  0  0  0  0  0  0  0  0  0
   61.5160   34.5680   47.7740 H   0  0  0  0  0  0  0  0  0  0  0  0
   59.3336   33.8551   49.4502 H   0  0  0  0  0  0  0  0  0  0  0  0
   59.3550   35.6042   48.9935 H   0  0  0  0  0  0  0  0  0  0  0  0
   60.3641   35.7909   46.3527 H   0  0  0  0  0  0  0  0  0  0  0  0
   59.5684   35.1640   44.0715 H   0  0  0  0  0  0  0  0  0  0  0  0
   57.9396   33.2942   43.7853 H   0  0  0  0  0  0  0  0  0  0  0  0
   57.1061   32.0460   45.7796 H   0  0  0  0  0  0  0  0  0  0  0  0
   57.9046   32.6592   48.0619 H   0  0  0  0  0  0  0  0  0  0  0  0
   60.1046   31.3875   50.3230 H   0  0  0  0  0  0  0  0  0  0  0  0
   59.5368   29.2707   49.1393 H   0  0  0  0  0  0  0  0  0  0  0  0
   58.4483   29.8407   45.3330 H   0  0  0  0  0  0  0  0  0  0  0  0
   56.1426   28.9926   44.9224 H   0  0  0  0  0  0  0  0  0  0  0  0
  1  2  1  0
  2  3  2  0
  2  4  2  0
  2  5  1  0
  5  6  1  0
  6  7  1  0
  7  8  1  0
  8  9  2  0
  8 10  1  0
 10 11  2  0
 11 12  1  0
 12 13  1  0
 13 14  1  0
 14 15  2  0
 15 16  1  0
 16 17  2  0
 17 18  1  0
 18 19  1  0
 19 20  1  0
 20 21  1  0
 21 22  2  0
 22 23  1  0
 23 24  2  0
 24 25  1  0
 25 26  2  0
 17 27  1  0
 27 28  2  0
 12 29  2  0
 29 30  1  0
 30 31  2  0
 31 32  1  0
 31 10  1  0
 28 14  1  0
 26 21  1  0
  1 33  1  0
  5 34  1  0
  5 35  1  0
  6 36  1  0
  6 37  1  0
  7 38  1  0
 11 39  1  0
 15 40  1  0
 16 41  1  0
 18 42  1  0
 18 43  1  0
 19 44  1  0
 20 45  1  0
 20 46  1  0
 22 47  1  0
 23 48  1  0
 24 49  1  0
 25 50  1  0
 26 51  1  0
 27 52  1  0
 28 53  1  0
 29 54  1  0
 30 55  1  0
M  CHG  2   1  -1  32  -1
M  END
>  <UniqueID>  (39) 
37

>  <SMILES>  (39) 
[NH-]S(=O)(=O)CCNC(=O)c1cc(Oc2ccc(CNCc3ccccc3)cc2)ccc1[O-]

>  <Energy>  (39) 
55.30910286724551

>  <Genealogy>  (39) 
[NH-]S(=O)(=O)CCNC(=O)c1cc(Oc2ccc(CNCc3ccccc3)cc2)ccc1[O-] (protonated)
[NH-]S(=O)(=O)CCNC(=O)c1cc(Oc2ccc(CNCc3ccccc3)cc2)ccc1[O-] (3D coordinates assigned)
[NH-]S(=O)(=O)CCNC(=O)c1cc(Oc2ccc(CNCc3ccccc3)cc2)ccc1[O-] (optimized conformer: 55.30910286724551 kcal/mol)

>  <smiles>  (39) 
NS(=O)(=O)CCNC(=O)c1cc(Oc2ccc(CNCc3ccccc3)cc2)ccc1O

>  <score_type>  (39) 
oracle

>  <origin>  (39) 
adg

>  <m_score__min__energy>  (39) 
-13.76

>  <m_primary>  (39) 
energy

$$$$
39:0
     RDKit          3D

 49 52  0  0  1  0  0  0  0  0999 V2000
   62.9740   29.2130   52.5390 C   0  0  0  0  0  0  0  0  0  0  0  0
   62.6410   30.1950   51.5350 N   0  0  0  0  0  0  0  0  0  0  0  0
   63.6260   30.8640   50.7390 C   0  0  0  0  0  0  0  0  0  0  0  0
   64.8530   30.5970   50.9070 O   0  0  0  0  0  0  0  0  0  0  0  0
   63.1480   31.8230   49.7720 C   0  0  0  0  0  0  0  0  0  0  0  0
   63.7900   31.9360   48.5730 C   0  0  0  0  0  0  0  0  0  0  0  0
   63.4490   32.7830   47.5540 C   0  0  0  0  0  0  0  0  0  0  0  0
   62.3270   33.5990   47.8010 C   0  0  0  0  0  0  0  0  0  0  0  0
   61.6720   33.4970   48.9840 C   0  0  0  0  0  0  0  0  0  0  0  0
   60.5780   34.2820   49.2500 C   0  0  0  0  0  0  0  0  0  0  0  0
   59.9630   34.9410   48.3550 N   0  0  0  0  0  0  0  0  0  0  0  0
   59.2840   34.5300   47.2290 C   0  0  0  0  0  0  0  0  0  0  0  0
   59.4710   35.2880   46.0440 C   0  0  0  0  0  0  0  0  0  0  0  0
   58.8870   34.9400   44.8680 C   0  0  0  0  0  0  0  0  0  0  0  0
   58.0810   33.8170   44.8060 C   0  0  0  0  0  0  0  0  0  0  0  0
   57.9010   33.0810   45.9510 C   0  0  0  0  0  0  0  0  0  0  0  0
   58.4670   33.3840   47.1660 C   0  0  0  0  0  0  0  0  0  0  0  0
   58.1460   32.3450   48.5480 S   0  0  0  0  0  0  0  0  0  0  0  0
   59.1480   30.8400   48.4560 C   0  0  0  0  0  0  0  0  0  0  0  0
   59.7320   30.5290   47.2370 C   0  0  0  0  0  0  0  0  0  0  0  0
   60.4650   29.3730   47.0500 C   0  0  0  0  0  0  0  0  0  0  0  0
   60.6190   28.5000   48.1200 C   0  0  0  0  0  0  0  0  0  0  0  0
   60.0300   28.8270   49.3300 C   0  0  0  0  0  0  0  0  0  0  0  0
   59.2930   29.9870   49.5190 C   0  0  0  0  0  0  0  0  0  0  0  0
   58.7080   30.2930   50.8120 C   0  0  0  0  0  0  0  0  0  0  0  0
   57.4480   30.4670   50.8920 O   0  0  0  0  0  0  0  0  0  0  0  0
   59.5320   30.3860   51.9390 O   0  0  0  0  0  0  0  0  0  0  0  0
   59.9410   34.1970   50.4540 N   0  0  0  0  0  0  0  0  0  0  0  0
   60.3300   33.3570   51.4260 C   0  0  0  0  0  0  0  0  0  0  0  0
   61.4020   32.5650   51.1770 N   0  0  0  0  0  0  0  0  0  0  0  0
   62.0540   32.6290   49.9920 C   0  0  0  0  0  0  0  0  0  0  0  0
   62.8269   29.6467   53.5391 H   0  0  0  0  0  0  0  0  0  0  0  0
   62.3239   28.3335   52.4215 H   0  0  0  0  0  0  0  0  0  0  0  0
   64.0250   28.9104   52.4215 H   0  0  0  0  0  0  0  0  0  0  0  0
   61.6250   30.4080   51.4090 H   0  0  0  0  0  0  0  0  0  0  0  0
   64.6624   31.2859   48.4108 H   0  0  0  0  0  0  0  0  0  0  0  0
   64.0107   32.8241   46.6091 H   0  0  0  0  0  0  0  0  0  0  0  0
   61.9845   34.3144   47.0388 H   0  0  0  0  0  0  0  0  0  0  0  0
   60.1079   36.1842   46.0788 H   0  0  0  0  0  0  0  0  0  0  0  0
   59.0544   35.5492   43.9675 H   0  0  0  0  0  0  0  0  0  0  0  0
   57.5969   33.5215   43.8635 H   0  0  0  0  0  0  0  0  0  0  0  0
   57.2605   32.1886   45.8918 H   0  0  0  0  0  0  0  0  0  0  0  0
   59.6077   31.2239   46.3934 H   0  0  0  0  0  0  0  0  0  0  0  0
   60.9179   29.1481   46.0731 H   0  0  0  0  0  0  0  0  0  0  0  0
   61.1958   27.5700   48.0085 H   0  0  0  0  0  0  0  0  0  0  0  0
   60.1518   28.1370   50.1780 H   0  0  0  0  0  0  0  0  0  0  0  0
   60.1270   31.1850   52.0950 H   0  0  0  0  0  0  0  0  0  0  0  0
   59.1110   34.7990   50.6810 H   0  0  0  0  0  0  0  0  0  0  0  0
   59.7991   33.3128   52.3884 H   0  0  0  0  0  0  0  0  0  0  0  0
  1  2  1  0
  2  3  1  0
  3  4  2  0
  3  5  1  0
  5  6  2  0
  6  7  1  0
  7  8  2  0
  8  9  1  0
  9 10  1  0
 10 11  2  0
 11 12  1  0
 12 13  2  0
 13 14  1  0
 14 15  2  0
 15 16  1  0
 16 17  2  0
 17 18  1  0
 18 19  1  0
 19 20  2  0
 20 21  1  0
 21 22  2  0
 22 23  1  0
 23 24  2  0
 24 25  1  0
 25 26  2  0
 25 27  1  0
 10 28  1  0
 28 29  1  0
 29 30  2  0
 30 31  1  0
 31  5  1  0
 31  9  2  0
 17 12  1  0
 24 19  1  0
  1 32  1  0
  1 33  1  0
  1 34  1  0
  2 35  1  0
  6 36  1  0
  7 37  1  0
  8 38  1  0
 13 39  1  0
 14 40  1  0
 15 41  1  0
 16 42  1  0
 20 43  1  0
 21 44  1  0
 22 45  1  0
 23 46  1  0
 27 47  1  0
 28 48  1  0
 29 49  1  0
M  END
>  <smiles>  (40) 
CNC(=O)c1cccc2c(=Nc3ccccc3Sc3ccccc3C(=O)O)[nH]cnc12

>  <score_type>  (40) 
oracle

>  <origin>  (40) 
adg

>  <m_score__min__energy>  (40) 
-10.369999999999999

>  <m_primary>  (40) 
energy

$$$$
40:0
     RDKit          3D

 73 76  0  0  0  0  0  0  0  0999 V2000
   64.4720   32.3700   49.5430 C   0  0  0  0  0  0  0  0  0  0  0  0
   63.1330   31.6480   49.6580 C   0  0  0  0  0  0  0  0  0  0  0  0
   62.0620   32.5830   49.7950 O   0  0  0  0  0  0  0  0  0  0  0  0
   61.5060   33.3530   48.7580 C   0  0  0  0  0  0  0  0  0  0  0  0
   62.0990   33.4440   47.4840 C   0  0  0  0  0  0  0  0  0  0  0  0
   61.5100   34.2180   46.4840 C   0  0  0  0  0  0  0  0  0  0  0  0
   60.3170   34.9090   46.7320 C   0  0  0  0  0  0  0  0  0  0  0  0
   59.6270   35.6620   45.6220 C   0  0  0  0  0  0  0  0  0  0  0  0
   58.6340   34.7680   44.8690 C   0  0  0  0  0  0  0  0  0  0  0  0
   58.9540   33.3530   45.0650 N   0  0  0  0  0  0  0  0  0  0  0  0
   58.2930   32.5440   46.0540 C   0  0  0  0  0  0  0  0  0  0  0  0
   57.2940   33.0010   46.6760 O   0  0  0  0  0  0  0  0  0  0  0  0
   58.8030   31.1990   46.3980 C   0  0  0  0  0  0  0  0  0  0  0  0
   58.8250   30.1830   45.4100 C   0  0  0  0  0  0  0  0  0  0  0  0
   59.2900   28.8930   45.7130 C   0  0  0  0  0  0  0  0  0  0  0  0
   59.7410   28.6400   47.0120 C   0  0  0  0  0  0  0  0  0  0  0  0
   59.7340   29.6250   47.9710 C   0  0  0  0  0  0  0  0  0  0  0  0
   59.2690   30.9130   47.7010 C   0  0  0  0  0  0  0  0  0  0  0  0
   60.2280   29.0660   49.1360 C   0  0  0  0  0  0  0  0  0  0  0  0
   60.3630   29.7250   50.4750 C   0  0  0  0  0  0  0  0  0  0  0  0
   60.5090   27.7340   48.8250 C   0  0  0  0  0  0  0  0  0  0  0  0
   60.9900   26.6980   49.8020 C   0  0  0  0  0  0  0  0  0  0  0  0
   60.2140   27.4790   47.5220 N   0  0  0  0  0  0  0  0  0  0  0  0
   60.3000   26.1780   46.8440 C   0  0  0  0  0  0  0  0  0  0  0  0
   58.9230   25.6680   46.5050 C   0  0  0  0  0  0  0  0  0  0  0  0
   58.7720   24.4860   45.7630 C   0  0  0  0  0  0  0  0  0  0  0  0
   57.4970   24.0260   45.4220 C   0  0  0  0  0  0  0  0  0  0  0  0
   56.3580   24.7350   45.8270 C   0  0  0  0  0  0  0  0  0  0  0  0
   54.7530   24.1750   45.3730 S   0  0  0  0  0  0  0  0  0  0  0  0
   53.6120   25.4450   45.6380 N   0  0  0  0  0  0  0  0  0  0  0  0
   54.3790   22.9790   46.2050 O   0  0  0  0  0  0  0  0  0  0  0  0
   54.7360   23.7790   43.9230 O   0  0  0  0  0  0  0  0  0  0  0  0
   56.5050   25.9130   46.5690 C   0  0  0  0  0  0  0  0  0  0  0  0
   57.7800   26.3780   46.9070 C   0  0  0  0  0  0  0  0  0  0  0  0
   59.7190   34.8160   47.9960 C   0  0  0  0  0  0  0  0  0  0  0  0
   60.3070   34.0390   49.0120 C   0  0  0  0  0  0  0  0  0  0  0  0
   59.7240   33.9140   50.2830 O   0  0  0  0  0  0  0  0  0  0  0  0
   59.0100   32.7660   50.7380 C   0  0  0  0  0  0  0  0  0  0  0  0
   58.3730   33.0660   52.0850 C   0  0  0  0  0  0  0  0  0  0  0  0
   64.8626   32.5806   50.5495 H   0  0  0  0  0  0  0  0  0  0  0  0
   65.1857   31.7344   48.9983 H   0  0  0  0  0  0  0  0  0  0  0  0
   64.3331   33.3155   48.9983 H   0  0  0  0  0  0  0  0  0  0  0  0
   62.9704   31.0436   48.7534 H   0  0  0  0  0  0  0  0  0  0  0  0
   63.1552   31.0046   50.5499 H   0  0  0  0  0  0  0  0  0  0  0  0
   63.0328   32.9012   47.2760 H   0  0  0  0  0  0  0  0  0  0  0  0
   61.9854   34.2861   45.4944 H   0  0  0  0  0  0  0  0  0  0  0  0
   59.0835   36.5156   46.0532 H   0  0  0  0  0  0  0  0  0  0  0  0
   60.3921   36.0043   44.9096 H   0  0  0  0  0  0  0  0  0  0  0  0
   57.6182   34.9629   45.2433 H   0  0  0  0  0  0  0  0  0  0  0  0
   58.6979   34.9978   43.7952 H   0  0  0  0  0  0  0  0  0  0  0  0
   59.8420   33.0060   44.6380 H   0  0  0  0  0  0  0  0  0  0  0  0
   58.4732   30.4079   44.3923 H   0  0  0  0  0  0  0  0  0  0  0  0
   59.2992   28.1023   44.9483 H   0  0  0  0  0  0  0  0  0  0  0  0
   59.2654   31.6864   48.4832 H   0  0  0  0  0  0  0  0  0  0  0  0
   60.2101   28.9784   51.2682 H   0  0  0  0  0  0  0  0  0  0  0  0
   61.3689   30.1599   50.5699 H   0  0  0  0  0  0  0  0  0  0  0  0
   59.6091   30.5204   50.5699 H   0  0  0  0  0  0  0  0  0  0  0  0
   60.8235   27.0567   50.8284 H   0  0  0  0  0  0  0  0  0  0  0  0
   60.4347   25.7613   49.6463 H   0  0  0  0  0  0  0  0  0  0  0  0
   62.0639   26.5178   49.6463 H   0  0  0  0  0  0  0  0  0  0  0  0
   60.8827   26.2902   45.9178 H   0  0  0  0  0  0  0  0  0  0  0  0
   60.7908   25.4583   47.5157 H   0  0  0  0  0  0  0  0  0  0  0  0
   59.6609   23.9194   45.4486 H   0  0  0  0  0  0  0  0  0  0  0  0
   57.3871   23.1034   44.8332 H   0  0  0  0  0  0  0  0  0  0  0  0
   54.1560   26.3140   45.8330 H   0  0  0  0  0  0  0  0  0  0  0  0
   55.6145   26.4749   46.8873 H   0  0  0  0  0  0  0  0  0  0  0  0
   57.8880   27.3042   47.4905 H   0  0  0  0  0  0  0  0  0  0  0  0
   58.7813   35.3552   48.1961 H   0  0  0  0  0  0  0  0  0  0  0  0
   58.2257   32.5099   50.0105 H   0  0  0  0  0  0  0  0  0  0  0  0
   59.7048   31.9195   50.8416 H   0  0  0  0  0  0  0  0  0  0  0  0
   59.0508   32.7468   52.8904 H   0  0  0  0  0  0  0  0  0  0  0  0
   58.1863   34.1467   52.1697 H   0  0  0  0  0  0  0  0  0  0  0  0
   57.4209   32.5216   52.1697 H   0  0  0  0  0  0  0  0  0  0  0  0
  1  2  1  0
  2  3  1  0
  3  4  1  0
  4  5  2  0
  5  6  1  0
  6  7  2  0
  7  8  1  0
  8  9  1  0
  9 10  1  0
 10 11  1  0
 11 12  2  0
 11 13  1  0
 13 14  2  0
 14 15  1  0
 15 16  2  0
 16 17  1  0
 17 18  2  0
 17 19  1  0
 19 20  1  0
 19 21  2  0
 21 22  1  0
 21 23  1  0
 23 24  1  0
 24 25  1  0
 25 26  2  0
 26 27  1  0
 27 28  2  0
 28 29  1  0
 29 30  1  0
 29 31  2  0
 29 32  2  0
 28 33  1  0
 33 34  2  0
  7 35  1  0
 35 36  2  0
 36 37  1  0
 37 38  1  0
 38 39  1  0
 36  4  1  0
 18 13  1  0
 34 25  1  0
 23 16  1  0
  1 40  1  0
  1 41  1  0
  1 42  1  0
  2 43  1  0
  2 44  1  0
  5 45  1  0
  6 46  1  0
  8 47  1  0
  8 48  1  0
  9 49  1  0
  9 50  1  0
 10 51  1  0
 14 52  1  0
 15 53  1  0
 18 54  1  0
 20 55  1  0
 20 56  1  0
 20 57  1  0
 22 58  1  0
 22 59  1  0
 22 60  1  0
 24 61  1  0
 24 62  1  0
 26 63  1  0
 27 64  1  0
 30 65  1  0
 33 66  1  0
 34 67  1  0
 35 68  1  0
 38 69  1  0
 38 70  1  0
 39 71  1  0
 39 72  1  0
 39 73  1  0
M  CHG  1  30  -1
M  END
>  <UniqueID>  (41) 
38

>  <SMILES>  (41) 
CCOc1ccc(CCNC(=O)c2ccc3c(c2)c(C)c(C)n3Cc2ccc(S([NH-])(=O)=O)cc2)cc1OCC

>  <Energy>  (41) 
99.28844681866894

>  <Genealogy>  (41) 
CCOc1ccc(CCNC(=O)c2ccc3c(c2)c(C)c(C)n3Cc2ccc(S([NH-])(=O)=O)cc2)cc1OCC (protonated)
CCOc1ccc(CCNC(=O)c2ccc3c(c2)c(C)c(C)n3Cc2ccc(S([NH-])(=O)=O)cc2)cc1OCC (3D coordinates assigned)
CCOc1ccc(CCNC(=O)c2ccc3c(c2)c(C)c(C)n3Cc2ccc(S([NH-])(=O)=O)cc2)cc1OCC (optimized conformer: 99.28844681866894 kcal/mol)

>  <smiles>  (41) 
CCOc1ccc(CCNC(=O)c2ccc3c(c2)c(C)c(C)n3Cc2ccc(S(N)(=O)=O)cc2)cc1OCC

>  <score_type>  (41) 
oracle

>  <origin>  (41) 
adg

>  <m_score__min__energy>  (41) 
-11.67

>  <m_primary>  (41) 
energy

$$$$
41:0
     RDKit          3D

 65 68  0  0  0  0  0  0  0  0999 V2000
   57.0050   29.2390   51.2490 H   0  0  0  0  0  0  0  0  0  0  0  0
   57.7800   29.7830   50.8950 O   0  0  0  0  0  0  0  0  0  0  0  0
   58.1450   31.0240   51.4190 C   0  0  0  0  0  0  0  0  0  0  0  0
   57.5420   31.4340   52.6150 C   0  0  0  0  0  0  0  0  0  0  0  0
   56.8837   30.7412   53.1597 H   0  0  0  0  0  0  0  0  0  0  0  0
   57.7700   32.7150   53.1210 C   0  0  0  0  0  0  0  0  0  0  0  0
   57.2882   33.0287   54.0588 H   0  0  0  0  0  0  0  0  0  0  0  0
   58.6070   33.5970   52.4400 C   0  0  0  0  0  0  0  0  0  0  0  0
   58.7668   34.6140   52.8275 H   0  0  0  0  0  0  0  0  0  0  0  0
   59.2430   33.1890   51.2650 C   0  0  0  0  0  0  0  0  0  0  0  0
   59.8963   33.8920   50.7275 H   0  0  0  0  0  0  0  0  0  0  0  0
   59.0570   31.8910   50.7630 C   0  0  0  0  0  0  0  0  0  0  0  0
   58.5250   30.0570   47.0000 C   0  0  0  0  0  0  0  0  0  0  0  0
   58.1579   29.4195   47.8178 H   0  0  0  0  0  0  0  0  0  0  0  0
   58.7090   31.3720   47.2470 C   0  0  0  0  0  0  0  0  0  0  0  0
   59.4500   32.0150   48.2670 C   0  0  0  0  0  0  0  0  0  0  0  0
   59.7450   31.5360   49.4980 C   0  0  0  0  0  0  0  0  0  0  0  0
   60.5732   30.8154   49.5667 H   0  0  0  0  0  0  0  0  0  0  0  0
   58.7960   29.4180   45.6640 C   0  0  0  0  0  0  0  0  0  0  0  0
   59.2789   28.4424   45.8223 H   0  0  0  0  0  0  0  0  0  0  0  0
   59.4537   30.0813   45.0831 H   0  0  0  0  0  0  0  0  0  0  0  0
   57.5130   29.2160   44.8960 C   0  0  0  0  0  0  0  0  0  0  0  0
   56.4760   29.6680   45.3600 O   0  0  0  0  0  0  0  0  0  0  0  0
   57.4640   28.5780   43.5220 C   0  0  0  0  0  0  0  0  0  0  0  0
   57.7771   29.3283   42.7811 H   0  0  0  0  0  0  0  0  0  0  0  0
   56.4303   28.2350   43.3676 H   0  0  0  0  0  0  0  0  0  0  0  0
   58.3670   27.3460   43.3720 C   0  0  0  0  0  0  0  0  0  0  0  0
   59.3666   27.5815   43.7660 H   0  0  0  0  0  0  0  0  0  0  0  0
   58.4279   27.0814   42.3060 H   0  0  0  0  0  0  0  0  0  0  0  0
   57.8010   26.1710   44.1300 C   0  0  0  0  0  0  0  0  0  0  0  0
   57.3017   25.3798   43.5515 H   0  0  0  0  0  0  0  0  0  0  0  0
   57.8660   26.0250   45.4710 C   0  0  0  0  0  0  0  0  0  0  0  0
   59.2230   25.9270   46.1180 C   0  0  0  0  0  0  0  0  0  0  0  0
   59.1090   25.9352   47.2120 H   0  0  0  0  0  0  0  0  0  0  0  0
   59.7107   24.9913   45.8072 H   0  0  0  0  0  0  0  0  0  0  0  0
   59.8401   26.7829   45.8072 H   0  0  0  0  0  0  0  0  0  0  0  0
   56.6250   25.9800   46.3340 C   0  0  0  0  0  0  0  0  0  0  0  0
   56.9156   25.9905   47.3949 H   0  0  0  0  0  0  0  0  0  0  0  0
   55.9958   26.8559   46.1174 H   0  0  0  0  0  0  0  0  0  0  0  0
   56.0609   25.0608   46.1174 H   0  0  0  0  0  0  0  0  0  0  0  0
   58.3670   32.3770   46.3530 C   0  0  0  0  0  0  0  0  0  0  0  0
   57.6500   32.3300   45.1490 C   0  0  0  0  0  0  0  0  0  0  0  0
   57.1786   31.3959   44.8094 H   0  0  0  0  0  0  0  0  0  0  0  0
   57.5490   33.5050   44.3880 C   0  0  0  0  0  0  0  0  0  0  0  0
   56.9791   33.5000   43.4472 H   0  0  0  0  0  0  0  0  0  0  0  0
   58.1730   34.6900   44.8220 C   0  0  0  0  0  0  0  0  0  0  0  0
   58.0871   35.6055   44.2182 H   0  0  0  0  0  0  0  0  0  0  0  0
   58.9040   34.7110   46.0200 C   0  0  0  0  0  0  0  0  0  0  0  0
   59.4010   35.6315   46.3600 H   0  0  0  0  0  0  0  0  0  0  0  0
   58.9860   33.5300   46.7740 C   0  0  0  0  0  0  0  0  0  0  0  0
   59.6640   33.3210   47.9260 N   0  0  0  0  0  0  0  0  0  0  0  0
   60.4660   34.3140   48.6620 C   0  0  0  0  0  0  0  0  0  0  0  0
   60.4312   35.2762   48.1301 H   0  0  0  0  0  0  0  0  0  0  0  0
   60.0530   34.4311   49.6748 H   0  0  0  0  0  0  0  0  0  0  0  0
   61.8960   33.8520   48.7630 C   0  0  0  0  0  0  0  0  0  0  0  0
   62.5450   33.8410   50.0090 C   0  0  0  0  0  0  0  0  0  0  0  0
   61.9986   34.1457   50.9138 H   0  0  0  0  0  0  0  0  0  0  0  0
   63.8840   33.4440   50.1040 C   0  0  0  0  0  0  0  0  0  0  0  0
   64.3884   33.4416   51.0815 H   0  0  0  0  0  0  0  0  0  0  0  0
   64.5800   33.0510   48.9590 C   0  0  0  0  0  0  0  0  0  0  0  0
   65.6337   32.7445   49.0342 H   0  0  0  0  0  0  0  0  0  0  0  0
   63.9390   33.0470   47.7190 C   0  0  0  0  0  0  0  0  0  0  0  0
   64.4864   32.7277   46.8199 H   0  0  0  0  0  0  0  0  0  0  0  0
   62.6020   33.4480   47.6160 C   0  0  0  0  0  0  0  0  0  0  0  0
   62.1026   33.4471   46.6359 H   0  0  0  0  0  0  0  0  0  0  0  0
  1  2  1  0
  2  3  1  0
  3  4  2  0
  4  5  1  0
  4  6  1  0
  6  7  1  0
  6  8  2  0
  8  9  1  0
  8 10  1  0
 10 11  1  0
 10 12  2  0
 12 13  1  0
 13 14  1  0
 13 15  2  0
 15 16  1  0
 16 17  2  0
 17 18  1  0
 17 19  1  0
 19 20  1  0
 19 21  1  0
 19 22  1  0
 22 23  2  0
 22 24  1  0
 24 25  1  0
 24 26  1  0
 24 27  1  0
 27 28  1  0
 27 29  1  0
 27 30  1  0
 30 31  1  0
 30 32  2  3
 32 33  1  0
 33 34  1  0
 33 35  1  0
 33 36  1  0
 32 37  1  0
 37 38  1  0
 37 39  1  0
 37 40  1  0
 16 41  1  0
 41 42  2  0
 42 43  1  0
 42 44  1  0
 44 45  1  0
 44 46  2  0
 46 47  1  0
 46 48  1  0
 48 49  1  0
 48 50  2  0
 50 51  1  0
 51 52  1  0
 52 53  1  0
 52 54  1  0
 52 55  1  0
 55 56  2  0
 56 57  1  0
 56 58  1  0
 58 59  1  0
 58 60  2  0
 60 61  1  0
 60 62  1  0
 62 63  1  0
 62 64  2  0
 64 65  1  0
 12  3  1  0
 51 15  1  0
 64 55  1  0
 50 41  1  0
M  END
>  <UniqueID>  (42) 
39

>  <SMILES>  (42) 
CC(C)=CCCC(=O)C/C=c1\c(=C/c2ccccc2O)n(Cc2ccccc2)c2ccccc12

>  <Energy>  (42) 
125.75542039188339

>  <Genealogy>  (42) 
CC(C)=CCCC(=O)C/C=c1\c(=C/c2ccccc2O)n(Cc2ccccc2)c2ccccc12 (cis-trans isomerization)
CC(C)=CCCC(=O)C/C=c1\c(=C/c2ccccc2O)n(Cc2ccccc2)c2ccccc12 (3D coordinates assigned)
CC(C)=CCCC(=O)C/C=c1\c(=C/c2ccccc2O)n(Cc2ccccc2)c2ccccc12 (optimized conformer: 125.75542039188339 kcal/mol)

>  <smiles>  (42) 
CC(C)=CCCC(=O)CC=c1c(=Cc2ccccc2O)n(Cc2ccccc2)c2ccccc12

>  <score_type>  (42) 
oracle

>  <origin>  (42) 
adg

>  <m_score__min__energy>  (42) 
-9.8599999999999994

>  <m_primary>  (42) 
energy

$$$$
42:0
     RDKit          3D

 48 50  0  0  1  0  0  0  0  0999 V2000
   63.3240   33.7720   48.9040 C   0  0  0  0  0  0  0  0  0  0  0  0
   62.1160   33.2010   49.3090 O   0  0  0  0  0  0  0  0  0  0  0  0
   61.6990   31.9060   49.0270 C   0  0  0  0  0  0  0  0  0  0  0  0
   61.5510   30.9310   49.9890 C   0  0  0  0  0  0  0  0  0  0  0  0
   61.1360   29.6690   49.6450 C   0  0  0  0  0  0  0  0  0  0  0  0
   61.0050   28.7450   50.6180 N   0  0  0  0  0  0  0  0  0  0  0  0
   60.6030   27.5210   50.2880 C   0  0  0  0  0  0  0  0  0  0  0  0
   60.3210   27.1790   49.0060 N   0  0  0  0  0  0  0  0  0  0  0  0
   60.4490   28.1030   48.0140 C   0  0  0  0  0  0  0  0  0  0  0  0
   60.1820   27.7880   46.7770 N   0  0  0  0  0  0  0  0  0  0  0  0
   58.8920   28.1630   46.2600 C   0  0  0  0  0  0  0  0  0  0  0  0
   58.7110   29.4670   45.7940 C   0  0  0  0  0  0  0  0  0  0  0  0
   57.4740   29.8280   45.2980 C   0  0  0  0  0  0  0  0  0  0  0  0
   57.2340   31.1100   44.8220 O   0  0  0  0  0  0  0  0  0  0  0  0
   57.9840   31.6240   43.7290 C   0  0  0  0  0  0  0  0  0  0  0  0
   56.4160   28.9410   45.2490 C   0  0  0  0  0  0  0  0  0  0  0  0
   55.1650   29.2820   44.7540 O   0  0  0  0  0  0  0  0  0  0  0  0
   55.0060   29.6800   43.3960 C   0  0  0  0  0  0  0  0  0  0  0  0
   56.6520   27.6490   45.7270 C   0  0  0  0  0  0  0  0  0  0  0  0
   55.5670   26.7630   45.6690 O   0  0  0  0  0  0  0  0  0  0  0  0
   57.8580   27.2500   46.2260 C   0  0  0  0  0  0  0  0  0  0  0  0
   58.0860   25.8750   46.7270 C   0  0  0  0  0  0  0  0  0  0  0  0
   60.8690   29.3990   48.3140 C   0  0  0  0  0  0  0  0  0  0  0  0
   61.0080   30.3620   47.3210 C   0  0  0  0  0  0  0  0  0  0  0  0
   61.4280   31.6230   47.6970 C   0  0  0  0  0  0  0  0  0  0  0  0
   61.5740   32.6070   46.7120 O   0  0  0  0  0  0  0  0  0  0  0  0
   60.5200   33.5580   46.6050 C   0  0  0  0  0  0  0  0  0  0  0  0
   63.9132   34.0505   49.7901 H   0  0  0  0  0  0  0  0  0  0  0  0
   63.8891   33.0457   48.3014 H   0  0  0  0  0  0  0  0  0  0  0  0
   63.1214   34.6697   48.3014 H   0  0  0  0  0  0  0  0  0  0  0  0
   61.7673   31.1661   51.0416 H   0  0  0  0  0  0  0  0  0  0  0  0
   61.2130   28.9640   51.6330 H   0  0  0  0  0  0  0  0  0  0  0  0
   60.4960   26.7633   51.0782 H   0  0  0  0  0  0  0  0  0  0  0  0
   59.5376   30.1922   45.8215 H   0  0  0  0  0  0  0  0  0  0  0  0
   58.8351   32.2073   44.1104 H   0  0  0  0  0  0  0  0  0  0  0  0
   58.3563   30.7903   43.1155 H   0  0  0  0  0  0  0  0  0  0  0  0
   57.3409   32.2721   43.1155 H   0  0  0  0  0  0  0  0  0  0  0  0
   54.5982   30.7009   43.3585 H   0  0  0  0  0  0  0  0  0  0  0  0
   55.9826   29.6565   42.8903 H   0  0  0  0  0  0  0  0  0  0  0  0
   54.3145   28.9901   42.8903 H   0  0  0  0  0  0  0  0  0  0  0  0
   54.7730   27.0830   45.1040 H   0  0  0  0  0  0  0  0  0  0  0  0
   58.0851   25.8807   47.8270 H   0  0  0  0  0  0  0  0  0  0  0  0
   57.2851   25.2146   46.3631 H   0  0  0  0  0  0  0  0  0  0  0  0
   59.0572   25.5085   46.3631 H   0  0  0  0  0  0  0  0  0  0  0  0
   60.7903   30.1271   46.2687 H   0  0  0  0  0  0  0  0  0  0  0  0
   60.1907   33.8551   47.6116 H   0  0  0  0  0  0  0  0  0  0  0  0
   60.8791   34.4437   46.0604 H   0  0  0  0  0  0  0  0  0  0  0  0
   59.6758   33.1100   46.0604 H   0  0  0  0  0  0  0  0  0  0  0  0
  1  2  1  0
  2  3  1  0
  3  4  2  0
  4  5  1  0
  5  6  1  0
  6  7  1  0
  7  8  2  0
  8  9  1  0
  9 10  2  0
 10 11  1  0
 11 12  2  0
 12 13  1  0
 13 14  1  0
 14 15  1  0
 13 16  2  0
 16 17  1  0
 17 18  1  0
 16 19  1  0
 19 20  1  0
 19 21  2  0
 21 22  1  0
  9 23  1  0
 23 24  1  0
 24 25  2  0
 25 26  1  0
 26 27  1  0
 25  3  1  0
 23  5  2  0
 21 11  1  0
  1 28  1  0
  1 29  1  0
  1 30  1  0
  4 31  1  0
  6 32  1  0
  7 33  1  0
 12 34  1  0
 15 35  1  0
 15 36  1  0
 15 37  1  0
 18 38  1  0
 18 39  1  0
 18 40  1  0
 20 41  1  0
 22 42  1  0
 22 43  1  0
 22 44  1  0
 24 45  1  0
 27 46  1  0
 27 47  1  0
 27 48  1  0
M  END
>  <smiles>  (43) 
COc1cc2[nH]cnc(=Nc3cc(OC)c(OC)c(O)c3C)c2cc1OC

>  <score_type>  (43) 
oracle

>  <origin>  (43) 
adg

>  <m_score__min__energy>  (43) 
-7.0599999999999996

>  <m_primary>  (43) 
energy

$$$$
43:0
     RDKit          3D

 43 45  0  0  0  0  0  0  0  0999 V2000
   60.7620   29.0160   45.6400 C   0  0  0  0  0  0  0  0  0  0  0  0
   60.7660   28.4800   46.9600 O   0  0  0  0  0  0  0  0  0  0  0  0
   60.2750   27.2050   47.2590 C   0  0  0  0  0  0  0  0  0  0  0  0
   61.0230   26.3530   47.8170 O   0  0  0  0  0  0  0  0  0  0  0  0
   58.8780   26.8520   46.9130 C   0  0  0  0  0  0  0  0  0  0  0  0
   58.3620   25.5810   47.2180 C   0  0  0  0  0  0  0  0  0  0  0  0
   57.0510   25.2510   46.8740 C   0  0  0  0  0  0  0  0  0  0  0  0
   56.2320   26.1830   46.2230 C   0  0  0  0  0  0  0  0  0  0  0  0
   54.9240   25.8480   45.8800 O   0  0  0  0  0  0  0  0  0  0  0  0
   56.7290   27.4570   45.9130 C   0  0  0  0  0  0  0  0  0  0  0  0
   55.8660   28.3920   45.2470 N   0  0  0  0  0  0  0  0  0  0  0  0
   56.3580   29.5150   44.0200 S   0  0  0  0  0  0  0  0  0  0  0  0
   57.1480   28.7850   42.9690 O   0  0  0  0  0  0  0  0  0  0  0  0
   55.1370   30.1130   43.3800 O   0  0  0  0  0  0  0  0  0  0  0  0
   57.3120   30.8080   44.7410 C   0  0  0  0  0  0  0  0  0  0  0  0
   57.5850   31.9820   44.0230 C   0  0  0  0  0  0  0  0  0  0  0  0
   58.3570   32.9960   44.5960 C   0  0  0  0  0  0  0  0  0  0  0  0
   58.8590   32.8510   45.8980 C   0  0  0  0  0  0  0  0  0  0  0  0
   59.6290   33.8670   46.4840 C   0  0  0  0  0  0  0  0  0  0  0  0
   60.1280   33.7160   47.7940 C   0  0  0  0  0  0  0  0  0  0  0  0
   60.8970   34.7050   48.4250 O   0  0  0  0  0  0  0  0  0  0  0  0
   61.9990   34.4390   49.2870 C   0  0  0  0  0  0  0  0  0  0  0  0
   59.8500   32.5400   48.5030 C   0  0  0  0  0  0  0  0  0  0  0  0
   59.0840   31.5240   47.9280 C   0  0  0  0  0  0  0  0  0  0  0  0
   58.5830   31.6690   46.6270 C   0  0  0  0  0  0  0  0  0  0  0  0
   57.8110   30.6550   46.0420 C   0  0  0  0  0  0  0  0  0  0  0  0
   58.0530   27.7850   46.2600 C   0  0  0  0  0  0  0  0  0  0  0  0
   60.7538   30.1148   45.6905 H   0  0  0  0  0  0  0  0  0  0  0  0
   61.6627   28.6802   45.1052 H   0  0  0  0  0  0  0  0  0  0  0  0
   59.8664   28.6668   45.1052 H   0  0  0  0  0  0  0  0  0  0  0  0
   58.9954   24.8422   47.7308 H   0  0  0  0  0  0  0  0  0  0  0  0
   56.6576   24.2525   47.1154 H   0  0  0  0  0  0  0  0  0  0  0  0
   54.6430   25.7260   44.9130 H   0  0  0  0  0  0  0  0  0  0  0  0
   57.1894   32.1048   43.0040 H   0  0  0  0  0  0  0  0  0  0  0  0
   58.5718   33.9109   44.0244 H   0  0  0  0  0  0  0  0  0  0  0  0
   59.8444   34.7857   45.9187 H   0  0  0  0  0  0  0  0  0  0  0  0
   61.6725   34.5178   50.3345 H   0  0  0  0  0  0  0  0  0  0  0  0
   62.3771   33.4238   49.0962 H   0  0  0  0  0  0  0  0  0  0  0  0
   62.7986   35.1699   49.0962 H   0  0  0  0  0  0  0  0  0  0  0  0
   60.2396   32.4157   49.5242 H   0  0  0  0  0  0  0  0  0  0  0  0
   58.8731   30.6070   48.4978 H   0  0  0  0  0  0  0  0  0  0  0  0
   57.5961   29.7356   46.6064 H   0  0  0  0  0  0  0  0  0  0  0  0
   58.4471   28.7830   46.0175 H   0  0  0  0  0  0  0  0  0  0  0  0
  1  2  1  0
  2  3  1  0
  3  4  2  0
  3  5  1  0
  5  6  2  0
  6  7  1  0
  7  8  2  0
  8  9  1  0
  8 10  1  0
 10 11  1  0
 11 12  1  0
 12 13  2  0
 12 14  2  0
 12 15  1  0
 15 16  2  0
 16 17  1  0
 17 18  2  0
 18 19  1  0
 19 20  2  0
 20 21  1  0
 21 22  1  0
 20 23  1  0
 23 24  2  0
 24 25  1  0
 25 26  2  0
 10 27  2  0
 27  5  1  0
 26 15  1  0
 25 18  1  0
  1 28  1  0
  1 29  1  0
  1 30  1  0
  6 31  1  0
  7 32  1  0
  9 33  1  0
 16 34  1  0
 17 35  1  0
 19 36  1  0
 22 37  1  0
 22 38  1  0
 22 39  1  0
 23 40  1  0
 24 41  1  0
 26 42  1  0
 27 43  1  0
M  CHG  1  11  -1
M  END
>  <UniqueID>  (44) 
40

>  <SMILES>  (44) 
COC(=O)c1ccc(O)c([N-]S(=O)(=O)c2ccc3cc(OC)ccc3c2)c1

>  <Energy>  (44) 
48.605580217182954

>  <Genealogy>  (44) 
COC(=O)c1ccc(O)c([N-]S(=O)(=O)c2ccc3cc(OC)ccc3c2)c1 (protonated)
COC(=O)c1ccc(O)c([N-]S(=O)(=O)c2ccc3cc(OC)ccc3c2)c1 (3D coordinates assigned)
COC(=O)c1ccc(O)c([N-]S(=O)(=O)c2ccc3cc(OC)ccc3c2)c1 (optimized conformer: 48.605580217182954 kcal/mol)

>  <smiles>  (44) 
COC(=O)c1ccc(O)c(NS(=O)(=O)c2ccc3cc(OC)ccc3c2)c1

>  <score_type>  (44) 
oracle

>  <origin>  (44) 
adg

>  <m_score__min__energy>  (44) 
-10.92

>  <m_primary>  (44) 
energy

$$$$
44:0
     RDKit          3D

 39 42  0  0  0  0  0  0  0  0999 V2000
   59.9410   34.4650   47.5530 C   0  0  0  0  0  0  0  0  0  0  0  0
   59.2000   33.6230   46.5580 C   0  0  0  0  0  0  0  0  0  0  0  0
   58.4640   34.2290   45.5300 C   0  0  0  0  0  0  0  0  0  0  0  0
   57.7960   33.4450   44.5880 C   0  0  0  0  0  0  0  0  0  0  0  0
   57.8700   32.0510   44.6550 C   0  0  0  0  0  0  0  0  0  0  0  0
   58.6240   31.4230   45.6620 C   0  0  0  0  0  0  0  0  0  0  0  0
   58.7060   29.9430   45.7240 C   0  0  0  0  0  0  0  0  0  0  0  0
   59.5700   29.2800   46.6240 C   0  0  0  0  0  0  0  0  0  0  0  0
   59.6850   27.8730   46.7350 C   0  0  0  0  0  0  0  0  0  0  0  0
   60.4960   27.4040   47.5780 O   0  0  0  0  0  0  0  0  0  0  0  0
   58.9370   26.9810   45.9460 C   0  0  0  0  0  0  0  0  0  0  0  0
   58.9880   25.2990   45.9880 S   0  0  0  0  0  0  0  0  0  0  0  0
   57.8270   25.1320   44.7630 C   0  0  0  0  0  0  0  0  0  0  0  0
   57.3440   23.8780   44.2390 N   0  0  0  0  0  0  0  0  0  0  0  0
   57.9170   22.6240   44.7430 C   0  0  0  0  0  0  0  0  0  0  0  0
   57.7030   21.4920   43.7340 C   0  0  0  0  0  0  0  0  0  0  0  0
   56.3480   21.4200   43.3410 O   0  0  0  0  0  0  0  0  0  0  0  0
   56.0050   22.5860   42.6200 C   0  0  0  0  0  0  0  0  0  0  0  0
   56.0640   23.8230   43.5210 C   0  0  0  0  0  0  0  0  0  0  0  0
   57.3980   26.3370   44.3170 N   0  0  0  0  0  0  0  0  0  0  0  0
   58.0180   27.3470   44.9770 C   0  0  0  0  0  0  0  0  0  0  0  0
   57.7430   28.9810   44.6980 S   0  0  0  0  0  0  0  0  0  0  0  0
   59.2900   32.2220   46.6120 C   0  0  0  0  0  0  0  0  0  0  0  0
   59.6675   34.1543   48.5721 H   0  0  0  0  0  0  0  0  0  0  0  0
   61.0238   34.3359   47.4084 H   0  0  0  0  0  0  0  0  0  0  0  0
   59.6753   35.5226   47.4084 H   0  0  0  0  0  0  0  0  0  0  0  0
   58.4128   35.3259   45.4656 H   0  0  0  0  0  0  0  0  0  0  0  0
   57.2098   33.9256   43.7909 H   0  0  0  0  0  0  0  0  0  0  0  0
   57.3339   31.4401   43.9138 H   0  0  0  0  0  0  0  0  0  0  0  0
   60.1961   29.8990   47.2835 H   0  0  0  0  0  0  0  0  0  0  0  0
   58.9956   22.7605   44.9103 H   0  0  0  0  0  0  0  0  0  0  0  0
   57.4172   22.3586   45.6863 H   0  0  0  0  0  0  0  0  0  0  0  0
   58.3265   21.6770   42.8468 H   0  0  0  0  0  0  0  0  0  0  0  0
   57.9839   20.5397   44.2075 H   0  0  0  0  0  0  0  0  0  0  0  0
   56.7104   22.7141   41.7858 H   0  0  0  0  0  0  0  0  0  0  0  0
   54.9781   22.4757   42.2414 H   0  0  0  0  0  0  0  0  0  0  0  0
   55.9572   24.7263   42.9025 H   0  0  0  0  0  0  0  0  0  0  0  0
   55.2471   23.7664   44.2555 H   0  0  0  0  0  0  0  0  0  0  0  0
   59.8861   31.7445   47.4036 H   0  0  0  0  0  0  0  0  0  0  0  0
  1  2  1  0
  2  3  2  0
  3  4  1  0
  4  5  2  0
  5  6  1  0
  6  7  1  0
  7  8  2  0
  8  9  1  0
  9 10  2  0
  9 11  1  0
 11 12  1  0
 12 13  1  0
 13 14  1  0
 14 15  1  0
 15 16  1  0
 16 17  1  0
 17 18  1  0
 18 19  1  0
 13 20  2  0
 20 21  1  0
 21 22  1  0
  6 23  2  0
 23  2  1  0
 22  7  1  0
 21 11  2  0
 19 14  1  0
  1 24  1  0
  1 25  1  0
  1 26  1  0
  3 27  1  0
  4 28  1  0
  5 29  1  0
  8 30  1  0
 15 31  1  0
 15 32  1  0
 16 33  1  0
 16 34  1  0
 18 35  1  0
 18 36  1  0
 19 37  1  0
 19 38  1  0
 23 39  1  0
M  END
>  <UniqueID>  (45) 
41

>  <SMILES>  (45) 
Cc1cccc(-c2cc(=O)c3sc(N4CCOCC4)nc3s2)c1

>  <Energy>  (45) 
83.21162242104879

>  <Genealogy>  (45) 
Cc1cccc(-c2cc(=O)c3sc(N4CCOCC4)nc3s2)c1 (3D coordinates assigned)
Cc1cccc(-c2cc(=O)c3sc(N4CCOCC4)nc3s2)c1 (nonaromatic ring conformer: 83.21162242104879 kcal/mol)

>  <smiles>  (45) 
Cc1cccc(-c2cc(=O)c3sc(N4CCOCC4)nc3s2)c1

>  <score_type>  (45) 
oracle

>  <origin>  (45) 
adg

>  <m_score__min__energy>  (45) 
-7.9299999999999997

>  <m_primary>  (45) 
energy

$$$$
45:0
     RDKit          3D

 62 65  0  0  0  0  0  0  0  0999 V2000
   54.1920   22.4900   47.2010 C   0  0  0  0  0  0  0  0  0  0  0  0
   55.0090   23.0190   48.3750 C   0  0  0  0  0  0  0  0  0  0  0  0
   55.9460   24.0030   47.9360 O   0  0  0  0  0  0  0  0  0  0  0  0
   56.7010   23.8890   46.7600 C   0  0  0  0  0  0  0  0  0  0  0  0
   57.7300   22.9970   46.6900 N   0  0  0  0  0  0  0  0  0  0  0  0
   58.4980   22.8670   45.5770 C   0  0  0  0  0  0  0  0  0  0  0  0
   58.2440   23.6560   44.4590 C   0  0  0  0  0  0  0  0  0  0  0  0
   57.1980   24.5760   44.4950 C   0  0  0  0  0  0  0  0  0  0  0  0
   56.4140   24.7120   45.6520 C   0  0  0  0  0  0  0  0  0  0  0  0
   55.2990   25.6900   45.6880 C   0  0  0  0  0  0  0  0  0  0  0  0
   54.1090   25.2780   45.6600 O   0  0  0  0  0  0  0  0  0  0  0  0
   55.5370   27.1050   45.6870 N   0  0  0  0  0  0  0  0  0  0  0  0
   56.8250   27.7370   45.6500 C   0  0  0  0  0  0  0  0  0  0  0  0
   57.1400   28.5700   44.5710 C   0  0  0  0  0  0  0  0  0  0  0  0
   58.3930   29.1830   44.4980 C   0  0  0  0  0  0  0  0  0  0  0  0
   59.3320   28.9880   45.5140 C   0  0  0  0  0  0  0  0  0  0  0  0
   59.0090   28.1970   46.6320 C   0  0  0  0  0  0  0  0  0  0  0  0
   59.9370   27.9660   47.7030 N   0  0  0  0  0  0  0  0  0  0  0  0
   60.1220   28.7650   48.8800 C   0  0  0  0  0  0  0  0  0  0  0  0
   60.3030   28.2130   50.0000 O   0  0  0  0  0  0  0  0  0  0  0  0
   60.1570   30.2440   48.7750 C   0  0  0  0  0  0  0  0  0  0  0  0
   59.2050   31.0240   49.4450 C   0  0  0  0  0  0  0  0  0  0  0  0
   59.2320   32.4140   49.3480 C   0  0  0  0  0  0  0  0  0  0  0  0
   60.2030   33.0660   48.5670 C   0  0  0  0  0  0  0  0  0  0  0  0
   60.2010   34.5820   48.5100 C   0  0  0  0  0  0  0  0  0  0  0  0
   59.3090   35.0740   47.4570 N   0  0  0  0  0  0  0  0  0  0  0  0
   58.7520   34.2530   46.4120 C   0  0  0  0  0  0  0  0  0  0  0  0
   57.6440   33.4130   46.6360 C   0  0  0  0  0  0  0  0  0  0  0  0
   57.1290   32.6290   45.5990 C   0  0  0  0  0  0  0  0  0  0  0  0
   57.7110   32.6740   44.3310 C   0  0  0  0  0  0  0  0  0  0  0  0
   58.8100   33.5040   44.0970 C   0  0  0  0  0  0  0  0  0  0  0  0
   59.3290   34.2880   45.1310 C   0  0  0  0  0  0  0  0  0  0  0  0
   61.1970   32.2880   47.9200 C   0  0  0  0  0  0  0  0  0  0  0  0
   62.3110   32.9240   47.1280 C   0  0  0  0  0  0  0  0  0  0  0  0
   61.1490   30.8850   48.0140 C   0  0  0  0  0  0  0  0  0  0  0  0
   57.7600   27.5670   46.6850 C   0  0  0  0  0  0  0  0  0  0  0  0
   53.3254   21.9289   47.5806 H   0  0  0  0  0  0  0  0  0  0  0  0
   53.8425   23.3337   46.5878 H   0  0  0  0  0  0  0  0  0  0  0  0
   54.8188   21.8259   46.5878 H   0  0  0  0  0  0  0  0  0  0  0  0
   54.3298   23.4711   49.1128 H   0  0  0  0  0  0  0  0  0  0  0  0
   55.5613   22.1819   48.8268 H   0  0  0  0  0  0  0  0  0  0  0  0
   59.3212   22.1376   45.5594 H   0  0  0  0  0  0  0  0  0  0  0  0
   58.8631   23.5543   43.5555 H   0  0  0  0  0  0  0  0  0  0  0  0
   56.9855   25.1984   43.6132 H   0  0  0  0  0  0  0  0  0  0  0  0
   56.3983   28.7428   43.7773 H   0  0  0  0  0  0  0  0  0  0  0  0
   58.6414   29.8216   43.6375 H   0  0  0  0  0  0  0  0  0  0  0  0
   60.3258   29.4538   45.4398 H   0  0  0  0  0  0  0  0  0  0  0  0
   58.4296   30.5349   50.0528 H   0  0  0  0  0  0  0  0  0  0  0  0
   58.4830   33.0098   49.8902 H   0  0  0  0  0  0  0  0  0  0  0  0
   59.8627   34.9766   49.4795 H   0  0  0  0  0  0  0  0  0  0  0  0
   61.2229   34.9224   48.2864 H   0  0  0  0  0  0  0  0  0  0  0  0
   59.0500   36.0870   47.4860 H   0  0  0  0  0  0  0  0  0  0  0  0
   57.1808   33.3734   47.6330 H   0  0  0  0  0  0  0  0  0  0  0  0
   56.2635   31.9755   45.7828 H   0  0  0  0  0  0  0  0  0  0  0  0
   57.3045   32.0563   43.5166 H   0  0  0  0  0  0  0  0  0  0  0  0
   59.2676   33.5406   43.0974 H   0  0  0  0  0  0  0  0  0  0  0  0
   60.1960   34.9376   44.9407 H   0  0  0  0  0  0  0  0  0  0  0  0
   63.0551   33.3488   47.8178 H   0  0  0  0  0  0  0  0  0  0  0  0
   62.7907   32.1636   46.4941 H   0  0  0  0  0  0  0  0  0  0  0  0
   61.9001   33.7236   46.4941 H   0  0  0  0  0  0  0  0  0  0  0  0
   61.8996   30.2807   47.4836 H   0  0  0  0  0  0  0  0  0  0  0  0
   57.5077   26.9316   47.5467 H   0  0  0  0  0  0  0  0  0  0  0  0
  1  2  1  0
  2  3  1  0
  3  4  1  0
  4  5  2  0
  5  6  1  0
  6  7  2  0
  7  8  1  0
  8  9  2  0
  9 10  1  0
 10 11  2  0
 10 12  1  0
 12 13  1  0
 13 14  2  0
 14 15  1  0
 15 16  2  0
 16 17  1  0
 17 18  1  0
 18 19  1  0
 19 20  2  0
 19 21  1  0
 21 22  2  0
 22 23  1  0
 23 24  2  0
 24 25  1  0
 25 26  1  0
 26 27  1  0
 27 28  2  0
 28 29  1  0
 29 30  2  0
 30 31  1  0
 31 32  2  0
 24 33  1  0
 33 34  1  0
 33 35  2  0
 17 36  2  0
  9  4  1  0
 36 13  1  0
 35 21  1  0
 32 27  1  0
  1 37  1  0
  1 38  1  0
  1 39  1  0
  2 40  1  0
  2 41  1  0
  6 42  1  0
  7 43  1  0
  8 44  1  0
 14 45  1  0
 15 46  1  0
 16 47  1  0
 22 48  1  0
 23 49  1  0
 25 50  1  0
 25 51  1  0
 26 52  1  0
 28 53  1  0
 29 54  1  0
 30 55  1  0
 31 56  1  0
 32 57  1  0
 34 58  1  0
 34 59  1  0
 34 60  1  0
 35 61  1  0
 36 62  1  0
M  CHG  2  12  -1  18  -1
M  END
>  <UniqueID>  (46) 
42

>  <SMILES>  (46) 
CCOc1ncccc1C(=O)[N-]c1cccc([N-]C(=O)c2ccc(CNc3ccccc3)c(C)c2)c1

>  <Energy>  (46) 
76.18250377101647

>  <Genealogy>  (46) 
CCOc1ncccc1C(=O)[N-]c1cccc([N-]C(=O)c2ccc(CNc3ccccc3)c(C)c2)c1 (protonated)
CCOc1ncccc1C(=O)[N-]c1cccc([N-]C(=O)c2ccc(CNc3ccccc3)c(C)c2)c1 (3D coordinates assigned)
CCOc1ncccc1C(=O)[N-]c1cccc([N-]C(=O)c2ccc(CNc3ccccc3)c(C)c2)c1 (optimized conformer: 76.18250377101647 kcal/mol)

>  <smiles>  (46) 
CCOc1ncccc1C(=O)Nc1cccc(NC(=O)c2ccc(CNc3ccccc3)c(C)c2)c1

>  <score_type>  (46) 
oracle

>  <origin>  (46) 
adg

>  <m_score__min__energy>  (46) 
-13.130000000000001

>  <m_primary>  (46) 
energy

$$$$
46:0
     RDKit          3D

 49 51  0  0  0  0  0  0  0  0999 V2000
   60.9150   26.3560   47.9080 O   0  0  0  0  0  0  0  0  0  0  0  0
   59.8180   26.8390   47.5170 C   0  0  0  0  0  0  0  0  0  0  0  0
   59.3360   26.5390   46.1320 C   0  0  0  0  0  0  0  0  0  0  0  0
   57.8740   26.3760   46.1030 N   0  0  0  0  0  0  0  0  0  0  0  0
   56.8700   27.2940   45.9070 C   0  0  0  0  0  0  0  0  0  0  0  0
   57.0160   28.5810   45.7450 N   0  0  0  0  0  0  0  0  0  0  0  0
   56.2930   29.4730   44.8940 C   0  0  0  0  0  0  0  0  0  0  0  0
   55.1330   29.1610   44.5090 O   0  0  0  0  0  0  0  0  0  0  0  0
   56.9510   30.6850   44.3580 C   0  0  0  0  0  0  0  0  0  0  0  0
   57.1230   30.8480   42.9730 C   0  0  0  0  0  0  0  0  0  0  0  0
   57.7680   31.9800   42.4700 C   0  0  0  0  0  0  0  0  0  0  0  0
   58.2510   32.9590   43.3410 C   0  0  0  0  0  0  0  0  0  0  0  0
   58.0670   32.8290   44.7280 C   0  0  0  0  0  0  0  0  0  0  0  0
   58.6470   33.8510   45.6720 C   0  0  0  0  0  0  0  0  0  0  0  0
   58.9310   35.0290   45.0030 F   0  0  0  0  0  0  0  0  0  0  0  0
   57.7340   34.1120   46.6760 F   0  0  0  0  0  0  0  0  0  0  0  0
   59.8200   33.3840   46.2400 F   0  0  0  0  0  0  0  0  0  0  0  0
   57.4280   31.6800   45.2290 C   0  0  0  0  0  0  0  0  0  0  0  0
   55.6370   26.7360   45.8180 N   0  0  0  0  0  0  0  0  0  0  0  0
   55.8780   25.4250   45.9630 C   0  0  0  0  0  0  0  0  0  0  0  0
   54.9450   24.3900   45.9250 C   0  0  0  0  0  0  0  0  0  0  0  0
   55.4230   23.0740   46.0550 C   0  0  0  0  0  0  0  0  0  0  0  0
   56.8040   22.8280   46.2100 C   0  0  0  0  0  0  0  0  0  0  0  0
   57.7200   23.8960   46.2410 C   0  0  0  0  0  0  0  0  0  0  0  0
   57.2140   25.1970   46.1240 C   0  0  0  0  0  0  0  0  0  0  0  0
   59.0920   27.7160   48.3300 O   0  0  0  0  0  0  0  0  0  0  0  0
   59.5760   28.9970   48.7310 C   0  0  0  0  0  0  0  0  0  0  0  0
   59.2550   30.0490   47.6670 C   0  0  0  0  0  0  0  0  0  0  0  0
   60.3700   30.1730   46.6310 C   0  0  0  0  0  0  0  0  0  0  0  0
   59.8340   30.0370   45.3200 O   0  0  0  0  0  0  0  0  0  0  0  0
   60.1430   28.9570   44.5190 N   0  0  0  0  0  0  0  0  0  0  0  0
   61.3310   28.5960   44.4050 O   0  0  0  0  0  0  0  0  0  0  0  0
   59.1600   28.2760   43.8400 O   0  0  0  0  0  0  0  0  0  0  0  0
   59.6182   27.3678   45.4661 H   0  0  0  0  0  0  0  0  0  0  0  0
   59.7988   25.5989   45.7973 H   0  0  0  0  0  0  0  0  0  0  0  0
   56.7475   30.0797   42.2811 H   0  0  0  0  0  0  0  0  0  0  0  0
   57.8960   32.1009   41.3842 H   0  0  0  0  0  0  0  0  0  0  0  0
   58.7784   33.8367   42.9391 H   0  0  0  0  0  0  0  0  0  0  0  0
   57.3002   31.5589   46.3148 H   0  0  0  0  0  0  0  0  0  0  0  0
   53.8719   24.5956   45.7977 H   0  0  0  0  0  0  0  0  0  0  0  0
   54.7163   22.2312   46.0358 H   0  0  0  0  0  0  0  0  0  0  0  0
   57.1670   21.7942   46.3073 H   0  0  0  0  0  0  0  0  0  0  0  0
   58.7991   23.7149   46.3535 H   0  0  0  0  0  0  0  0  0  0  0  0
   59.0980   29.2838   49.6793 H   0  0  0  0  0  0  0  0  0  0  0  0
   60.6672   28.9410   48.8577 H   0  0  0  0  0  0  0  0  0  0  0  0
   58.3243   29.7636   47.1548 H   0  0  0  0  0  0  0  0  0  0  0  0
   59.1496   31.0211   48.1710 H   0  0  0  0  0  0  0  0  0  0  0  0
   60.8494   31.1583   46.7281 H   0  0  0  0  0  0  0  0  0  0  0  0
   61.1115   29.3786   46.8020 H   0  0  0  0  0  0  0  0  0  0  0  0
  1  2  2  0
  2  3  1  0
  3  4  1  0
  4  5  1  0
  5  6  2  3
  6  7  1  0
  7  8  2  0
  7  9  1  0
  9 10  2  0
 10 11  1  0
 11 12  2  0
 12 13  1  0
 13 14  1  0
 14 15  1  0
 14 16  1  0
 14 17  1  0
 13 18  2  0
  5 19  1  0
 19 20  1  0
 20 21  2  0
 21 22  1  0
 22 23  2  0
 23 24  1  0
 24 25  2  0
  2 26  1  0
 26 27  1  0
 27 28  1  0
 28 29  1  0
 29 30  1  0
 30 31  1  0
 31 32  2  0
 31 33  1  0
 25  4  1  0
 18  9  1  0
 25 20  1  0
  3 34  1  0
  3 35  1  0
 10 36  1  0
 11 37  1  0
 12 38  1  0
 18 39  1  0
 21 40  1  0
 22 41  1  0
 23 42  1  0
 24 43  1  0
 27 44  1  0
 27 45  1  0
 28 46  1  0
 28 47  1  0
 29 48  1  0
 29 49  1  0
M  CHG  3  19  -1  31   1  33  -1
M  END
>  <UniqueID>  (47) 
43

>  <SMILES>  (47) 
O=C(Cn1c(=NC(=O)c2cccc(C(F)(F)F)c2)[n-]c2ccccc21)OCCCO[N+](=O)[O-]

>  <Energy>  (47) 
92.2531454468145

>  <Genealogy>  (47) 
O=C(Cn1c(=NC(=O)c2cccc(C(F)(F)F)c2)[n-]c2ccccc21)OCCCO[N+](=O)[O-] (protonated)
O=C(Cn1c(=NC(=O)c2cccc(C(F)(F)F)c2)[n-]c2ccccc21)OCCCO[N+](=O)[O-] (3D coordinates assigned)
O=C(Cn1c(=NC(=O)c2cccc(C(F)(F)F)c2)[n-]c2ccccc21)OCCCO[N+](=O)[O-] (optimized conformer: 92.2531454468145 kcal/mol)

>  <smiles>  (47) 
O=C(Cn1c(=NC(=O)c2cccc(C(F)(F)F)c2)[nH]c2ccccc21)OCCCO[N+](=O)[O-]

>  <score_type>  (47) 
oracle

>  <origin>  (47) 
adg

>  <m_score__min__energy>  (47) 
-10.17

>  <m_primary>  (47) 
energy

$$$$
47:0
     RDKit          3D

 44 47  0  0  0  0  0  0  0  0999 V2000
   53.4780   23.8630   45.0130 C   0  0  0  0  0  0  0  0  0  0  0  0
   54.5320   24.7310   45.6090 C   0  0  0  0  0  0  0  0  0  0  0  0
   55.7860   24.3250   46.0110 C   0  0  0  0  0  0  0  0  0  0  0  0
   56.3580   25.5000   46.4700 C   0  0  0  0  0  0  0  0  0  0  0  0
   57.5420   25.6460   46.9900 N   0  0  0  0  0  0  0  0  0  0  0  0
   58.6150   26.4310   46.4510 C   0  0  0  0  0  0  0  0  0  0  0  0
   59.6550   25.8390   46.0550 O   0  0  0  0  0  0  0  0  0  0  0  0
   58.5640   27.9140   46.4490 C   0  0  0  0  0  0  0  0  0  0  0  0
   58.0570   28.5430   45.3630 N   0  0  0  0  0  0  0  0  0  0  0  0
   57.9890   29.8920   45.2840 C   0  0  0  0  0  0  0  0  0  0  0  0
   57.4700   30.4830   44.1300 C   0  0  0  0  0  0  0  0  0  0  0  0
   57.3960   31.8710   44.0220 C   0  0  0  0  0  0  0  0  0  0  0  0
   57.8420   32.6880   45.0710 C   0  0  0  0  0  0  0  0  0  0  0  0
   57.7650   34.1620   44.9460 C   0  0  0  0  0  0  0  0  0  0  0  0
   56.6490   34.7430   44.8790 O   0  0  0  0  0  0  0  0  0  0  0  0
   58.9250   34.9270   44.8990 O   0  0  0  0  0  0  0  0  0  0  0  0
   58.3620   32.0920   46.2350 C   0  0  0  0  0  0  0  0  0  0  0  0
   58.4450   30.6840   46.3630 C   0  0  0  0  0  0  0  0  0  0  0  0
   58.9570   30.0610   47.4880 N   0  0  0  0  0  0  0  0  0  0  0  0
   59.4690   30.8480   48.6360 C   0  0  0  0  0  0  0  0  0  0  0  0
   60.6730   31.6770   48.2450 C   0  0  0  0  0  0  0  0  0  0  0  0
   61.8610   31.0470   47.8330 C   0  0  0  0  0  0  0  0  0  0  0  0
   62.9820   31.8070   47.4850 C   0  0  0  0  0  0  0  0  0  0  0  0
   62.9340   33.2010   47.5620 C   0  0  0  0  0  0  0  0  0  0  0  0
   61.7670   33.8370   47.9930 C   0  0  0  0  0  0  0  0  0  0  0  0
   60.6420   33.0830   48.3400 C   0  0  0  0  0  0  0  0  0  0  0  0
   59.5270   33.7270   48.7700 F   0  0  0  0  0  0  0  0  0  0  0  0
   59.0240   28.6850   47.5340 C   0  0  0  0  0  0  0  0  0  0  0  0
   59.5180   28.1020   48.5390 O   0  0  0  0  0  0  0  0  0  0  0  0
   55.4860   26.5180   46.3540 N   0  0  0  0  0  0  0  0  0  0  0  0
   54.4040   26.0200   45.8280 O   0  0  0  0  0  0  0  0  0  0  0  0
   52.8983   23.3856   45.8168 H   0  0  0  0  0  0  0  0  0  0  0  0
   52.8078   24.4746   44.3911 H   0  0  0  0  0  0  0  0  0  0  0  0
   53.9497   23.0879   44.3911 H   0  0  0  0  0  0  0  0  0  0  0  0
   56.2244   23.3168   45.9760 H   0  0  0  0  0  0  0  0  0  0  0  0
   57.1178   29.8502   43.3021 H   0  0  0  0  0  0  0  0  0  0  0  0
   56.9857   32.3277   43.1093 H   0  0  0  0  0  0  0  0  0  0  0  0
   58.7101   32.7310   47.0599 H   0  0  0  0  0  0  0  0  0  0  0  0
   58.6736   31.5187   48.9931 H   0  0  0  0  0  0  0  0  0  0  0  0
   59.7738   30.1472   49.4272 H   0  0  0  0  0  0  0  0  0  0  0  0
   61.9087   29.9491   47.7842 H   0  0  0  0  0  0  0  0  0  0  0  0
   63.9026   31.3066   47.1502 H   0  0  0  0  0  0  0  0  0  0  0  0
   63.8149   33.7979   47.2833 H   0  0  0  0  0  0  0  0  0  0  0  0
   61.7333   34.9345   48.0595 H   0  0  0  0  0  0  0  0  0  0  0  0
  1  2  1  0
  2  3  2  0
  3  4  1  0
  4  5  2  3
  5  6  1  0
  6  7  2  0
  6  8  1  0
  8  9  2  0
  9 10  1  0
 10 11  2  0
 11 12  1  0
 12 13  2  0
 13 14  1  0
 14 15  2  0
 14 16  1  0
 13 17  1  0
 17 18  2  0
 18 19  1  0
 19 20  1  0
 20 21  1  0
 21 22  2  0
 22 23  1  0
 23 24  2  0
 24 25  1  0
 25 26  2  0
 26 27  1  0
 19 28  1  0
 28 29  2  0
  4 30  1  0
 30 31  1  0
 31  2  1  0
 28  8  1  0
 18 10  1  0
 26 21  1  0
  1 32  1  0
  1 33  1  0
  1 34  1  0
  3 35  1  0
 11 36  1  0
 12 37  1  0
 17 38  1  0
 20 39  1  0
 20 40  1  0
 22 41  1  0
 23 42  1  0
 24 43  1  0
 25 44  1  0
M  CHG  2  16  -1  30  -1
M  END
>  <UniqueID>  (48) 
44

>  <SMILES>  (48) 
Cc1cc(=NC(=O)c2nc3ccc(C(=O)[O-])cc3n(Cc3ccccc3F)c2=O)[n-]o1

>  <Energy>  (48) 
98.47463980668404

>  <Genealogy>  (48) 
Cc1cc(=NC(=O)c2nc3ccc(C(=O)[O-])cc3n(Cc3ccccc3F)c2=O)[n-]o1 (protonated)
Cc1cc(=NC(=O)c2nc3ccc(C(=O)[O-])cc3n(Cc3ccccc3F)c2=O)[n-]o1 (3D coordinates assigned)
Cc1cc(=NC(=O)c2nc3ccc(C(=O)[O-])cc3n(Cc3ccccc3F)c2=O)[n-]o1 (optimized conformer: 98.47463980668404 kcal/mol)

>  <smiles>  (48) 
Cc1cc(=NC(=O)c2nc3ccc(C(=O)O)cc3n(Cc3ccccc3F)c2=O)[nH]o1

>  <score_type>  (48) 
oracle

>  <origin>  (48) 
adg

>  <m_score__min__energy>  (48) 
-11.99

>  <m_primary>  (48) 
energy

$$$$
48:0
     RDKit          3D

 56 59  0  0  0  0  0  0  0  0999 V2000
   56.6420   30.6010   42.3190 C   0  0  0  0  0  0  0  0  0  0  0  0
   57.8310   31.2090   42.8100 O   0  0  0  0  0  0  0  0  0  0  0  0
   57.8930   32.0740   43.9160 C   0  0  0  0  0  0  0  0  0  0  0  0
   58.2300   33.4350   43.7660 C   0  0  0  0  0  0  0  0  0  0  0  0
   58.2470   34.2860   44.8720 C   0  0  0  0  0  0  0  0  0  0  0  0
   57.9260   33.7970   46.1370 C   0  0  0  0  0  0  0  0  0  0  0  0
   57.5970   32.4510   46.3030 C   0  0  0  0  0  0  0  0  0  0  0  0
   57.5920   31.5730   45.2050 C   0  0  0  0  0  0  0  0  0  0  0  0
   57.2590   30.1430   45.4270 C   0  0  0  0  0  0  0  0  0  0  0  0
   56.1750   29.6880   44.9720 O   0  0  0  0  0  0  0  0  0  0  0  0
   58.1370   29.2530   46.2260 C   0  0  0  0  0  0  0  0  0  0  0  0
   59.1590   29.8190   46.9990 C   0  0  0  0  0  0  0  0  0  0  0  0
   59.9990   29.0510   47.7610 N   0  0  0  0  0  0  0  0  0  0  0  0
   61.0690   29.7500   48.5070 C   0  0  0  0  0  0  0  0  0  0  0  0
   61.0450   31.2410   48.2370 C   0  0  0  0  0  0  0  0  0  0  0  0
   61.9870   31.7980   47.3520 C   0  0  0  0  0  0  0  0  0  0  0  0
   62.0090   33.1730   47.1090 C   0  0  0  0  0  0  0  0  0  0  0  0
   61.0870   34.0090   47.7390 C   0  0  0  0  0  0  0  0  0  0  0  0
   60.1440   33.4720   48.6190 C   0  0  0  0  0  0  0  0  0  0  0  0
   60.1220   32.0960   48.8800 C   0  0  0  0  0  0  0  0  0  0  0  0
   58.9270   31.4870   50.0180 Cl  0  0  0  0  0  0  0  0  0  0  0  0
   59.7870   27.6890   47.8450 C   0  0  0  0  0  0  0  0  0  0  0  0
   60.6730   26.7120   48.8310 S   0  0  0  0  0  0  0  0  0  0  0  0
   58.7730   27.0880   47.0900 C   0  0  0  0  0  0  0  0  0  0  0  0
   57.9440   27.8600   46.2700 C   0  0  0  0  0  0  0  0  0  0  0  0
   56.9400   27.2250   45.4580 N   0  0  0  0  0  0  0  0  0  0  0  0
   56.0920   25.8040   45.9740 S   0  0  0  0  0  0  0  0  0  0  0  0
   54.6240   25.9770   45.7030 O   0  0  0  0  0  0  0  0  0  0  0  0
   56.2990   25.6080   47.4500 O   0  0  0  0  0  0  0  0  0  0  0  0
   56.7250   24.3970   45.1240 C   0  0  0  0  0  0  0  0  0  0  0  0
   56.0310   23.8410   44.0390 C   0  0  0  0  0  0  0  0  0  0  0  0
   56.5630   22.7440   43.3540 C   0  0  0  0  0  0  0  0  0  0  0  0
   57.7890   22.2000   43.7480 C   0  0  0  0  0  0  0  0  0  0  0  0
   58.4840   22.7510   44.8290 C   0  0  0  0  0  0  0  0  0  0  0  0
   57.9540   23.8470   45.5160 C   0  0  0  0  0  0  0  0  0  0  0  0
   56.0170   30.2814   43.1659 H   0  0  0  0  0  0  0  0  0  0  0  0
   56.0860   31.3254   41.7058 H   0  0  0  0  0  0  0  0  0  0  0  0
   56.9038   29.7261   41.7058 H   0  0  0  0  0  0  0  0  0  0  0  0
   58.4813   33.8288   42.7701 H   0  0  0  0  0  0  0  0  0  0  0  0
   58.5144   35.3454   44.7450 H   0  0  0  0  0  0  0  0  0  0  0  0
   57.9320   34.4725   47.0052 H   0  0  0  0  0  0  0  0  0  0  0  0
   57.3389   32.0731   47.3033 H   0  0  0  0  0  0  0  0  0  0  0  0
   59.2906   30.9111   46.9939 H   0  0  0  0  0  0  0  0  0  0  0  0
   60.9256   29.5786   49.5841 H   0  0  0  0  0  0  0  0  0  0  0  0
   62.0397   29.3528   48.1755 H   0  0  0  0  0  0  0  0  0  0  0  0
   62.7129   31.1439   46.8468 H   0  0  0  0  0  0  0  0  0  0  0  0
   62.7542   33.5973   46.4200 H   0  0  0  0  0  0  0  0  0  0  0  0
   61.1024   35.0913   47.5429 H   0  0  0  0  0  0  0  0  0  0  0  0
   59.4148   34.1335   49.1096 H   0  0  0  0  0  0  0  0  0  0  0  0
   58.6270   25.9990   47.1422 H   0  0  0  0  0  0  0  0  0  0  0  0
   56.6240   27.6790   44.5720 H   0  0  0  0  0  0  0  0  0  0  0  0
   55.0669   24.2686   43.7266 H   0  0  0  0  0  0  0  0  0  0  0  0
   56.0163   22.3088   42.5045 H   0  0  0  0  0  0  0  0  0  0  0  0
   58.2071   21.3381   43.2074 H   0  0  0  0  0  0  0  0  0  0  0  0
   59.4482   22.3218   45.1389 H   0  0  0  0  0  0  0  0  0  0  0  0
   58.5023   24.2791   46.3661 H   0  0  0  0  0  0  0  0  0  0  0  0
  1  2  1  0
  2  3  1  0
  3  4  2  0
  4  5  1  0
  5  6  2  0
  6  7  1  0
  7  8  2  0
  8  9  1  0
  9 10  2  0
  9 11  1  0
 11 12  2  0
 12 13  1  0
 13 14  1  0
 14 15  1  0
 15 16  2  0
 16 17  1  0
 17 18  2  0
 18 19  1  0
 19 20  2  0
 20 21  1  0
 13 22  1  0
 22 23  2  0
 22 24  1  0
 24 25  2  0
 25 26  1  0
 26 27  1  0
 27 28  2  0
 27 29  2  0
 27 30  1  0
 30 31  2  0
 31 32  1  0
 32 33  2  0
 33 34  1  0
 34 35  2  0
  8  3  1  0
 25 11  1  0
 35 30  1  0
 20 15  1  0
  1 36  1  0
  1 37  1  0
  1 38  1  0
  4 39  1  0
  5 40  1  0
  6 41  1  0
  7 42  1  0
 12 43  1  0
 14 44  1  0
 14 45  1  0
 16 46  1  0
 17 47  1  0
 18 48  1  0
 19 49  1  0
 24 50  1  0
 26 51  1  0
 31 52  1  0
 32 53  1  0
 33 54  1  0
 34 55  1  0
 35 56  1  0
M  END
>  <UniqueID>  (49) 
45

>  <SMILES>  (49) 
COc1ccccc1C(=O)c1cn(Cc2ccccc2Cl)c(=S)cc1NS(=O)(=O)c1ccccc1

>  <Energy>  (49) 
76.67162738023121

>  <Genealogy>  (49) 
COc1ccccc1C(=O)c1cn(Cc2ccccc2Cl)c(=S)cc1NS(=O)(=O)c1ccccc1 (3D coordinates assigned)
COc1ccccc1C(=O)c1cn(Cc2ccccc2Cl)c(=S)cc1NS(=O)(=O)c1ccccc1 (optimized conformer: 76.67162738023121 kcal/mol)

>  <smiles>  (49) 
COc1ccccc1C(=O)c1cn(Cc2ccccc2Cl)c(=S)cc1NS(=O)(=O)c1ccccc1

>  <score_type>  (49) 
oracle

>  <origin>  (49) 
adg

>  <m_score__min__energy>  (49) 
-11.050000000000001

>  <m_primary>  (49) 
energy

$$$$
49:0
     RDKit          3D

 60 63  0  0  0  0  0  0  0  0999 V2000
   59.0510   33.1500   54.3950 C   0  0  0  0  0  0  0  0  0  0  0  0
   59.5660   32.3460   53.3380 O   0  0  0  0  0  0  0  0  0  0  0  0
   60.2210   32.8470   52.2010 C   0  0  0  0  0  0  0  0  0  0  0  0
   61.5360   33.3480   52.2510 C   0  0  0  0  0  0  0  0  0  0  0  0
   62.1670   33.8460   51.0930 C   0  0  0  0  0  0  0  0  0  0  0  0
   63.4590   34.3930   51.1450 O   0  0  0  0  0  0  0  0  0  0  0  0
   64.6550   33.6950   50.8130 C   0  0  0  0  0  0  0  0  0  0  0  0
   61.4690   33.8180   49.8630 C   0  0  0  0  0  0  0  0  0  0  0  0
   62.0360   34.2880   48.6300 N   0  0  0  0  0  0  0  0  0  0  0  0
   62.5390   33.3150   47.2830 S   0  0  0  0  0  0  0  0  0  0  0  0
   62.8400   34.2100   46.1140 O   0  0  0  0  0  0  0  0  0  0  0  0
   63.7640   32.5340   47.6720 O   0  0  0  0  0  0  0  0  0  0  0  0
   61.2560   32.1750   46.8360 C   0  0  0  0  0  0  0  0  0  0  0  0
   61.5160   30.8030   46.9520 C   0  0  0  0  0  0  0  0  0  0  0  0
   60.5480   29.8600   46.6160 C   0  0  0  0  0  0  0  0  0  0  0  0
   59.2830   30.2600   46.1620 C   0  0  0  0  0  0  0  0  0  0  0  0
   58.3110   29.3110   45.8010 O   0  0  0  0  0  0  0  0  0  0  0  0
   58.1590   28.0500   46.3900 C   0  0  0  0  0  0  0  0  0  0  0  0
   58.5400   27.8450   47.5750 O   0  0  0  0  0  0  0  0  0  0  0  0
   57.5010   27.0130   45.6550 N   0  0  0  0  0  0  0  0  0  0  0  0
   57.4030   25.6630   46.1360 C   0  0  0  0  0  0  0  0  0  0  0  0
   57.4200   25.4370   47.5240 C   0  0  0  0  0  0  0  0  0  0  0  0
   57.3270   24.1430   48.0350 C   0  0  0  0  0  0  0  0  0  0  0  0
   57.2160   23.0570   47.1700 C   0  0  0  0  0  0  0  0  0  0  0  0
   57.1250   21.7690   47.6820 O   0  0  0  0  0  0  0  0  0  0  0  0
   57.1990   23.2620   45.7870 C   0  0  0  0  0  0  0  0  0  0  0  0
   57.2940   24.5610   45.2440 C   0  0  0  0  0  0  0  0  0  0  0  0
   57.2430   24.7360   43.7630 C   0  0  0  0  0  0  0  0  0  0  0  0
   56.6450   23.6900   42.8700 C   0  0  0  0  0  0  0  0  0  0  0  0
   57.7440   25.7570   43.2210 O   0  0  0  0  0  0  0  0  0  0  0  0
   59.0020   31.6340   46.0220 C   0  0  0  0  0  0  0  0  0  0  0  0
   57.7440   32.0580   45.5560 C   0  0  0  0  0  0  0  0  0  0  0  0
   57.4560   33.4160   45.4220 C   0  0  0  0  0  0  0  0  0  0  0  0
   58.4140   34.3690   45.7490 C   0  0  0  0  0  0  0  0  0  0  0  0
   59.6690   33.9730   46.2170 C   0  0  0  0  0  0  0  0  0  0  0  0
   59.9880   32.6050   46.3630 C   0  0  0  0  0  0  0  0  0  0  0  0
   60.1550   33.3410   49.8270 C   0  0  0  0  0  0  0  0  0  0  0  0
   59.5360   32.8520   50.9800 C   0  0  0  0  0  0  0  0  0  0  0  0
   57.8940   32.2310   50.8750 Cl  0  0  0  0  0  0  0  0  0  0  0  0
   59.3335   32.7089   55.3623 H   0  0  0  0  0  0  0  0  0  0  0  0
   59.4672   34.1654   54.3195 H   0  0  0  0  0  0  0  0  0  0  0  0
   57.9546   33.1965   54.3195 H   0  0  0  0  0  0  0  0  0  0  0  0
   62.0788   33.3508   53.2077 H   0  0  0  0  0  0  0  0  0  0  0  0
   65.1718   33.3934   51.7360 H   0  0  0  0  0  0  0  0  0  0  0  0
   64.4058   32.8005   50.2233 H   0  0  0  0  0  0  0  0  0  0  0  0
   65.3113   34.3519   50.2233 H   0  0  0  0  0  0  0  0  0  0  0  0
   62.4987   30.4661   47.3136 H   0  0  0  0  0  0  0  0  0  0  0  0
   60.7785   28.7883   46.7078 H   0  0  0  0  0  0  0  0  0  0  0  0
   57.1600   27.2370   44.6940 H   0  0  0  0  0  0  0  0  0  0  0  0
   57.5075   26.2897   48.2134 H   0  0  0  0  0  0  0  0  0  0  0  0
   57.3413   23.9796   49.1227 H   0  0  0  0  0  0  0  0  0  0  0  0
   57.1103   22.3978   45.1122 H   0  0  0  0  0  0  0  0  0  0  0  0
   56.1923   22.8982   43.4849 H   0  0  0  0  0  0  0  0  0  0  0  0
   55.8723   24.1481   42.2351 H   0  0  0  0  0  0  0  0  0  0  0  0
   57.4318   23.2565   42.2351 H   0  0  0  0  0  0  0  0  0  0  0  0
   56.9800   31.3110   45.2948 H   0  0  0  0  0  0  0  0  0  0  0  0
   56.4683   33.7339   45.0567 H   0  0  0  0  0  0  0  0  0  0  0  0
   58.1828   35.4388   45.6388 H   0  0  0  0  0  0  0  0  0  0  0  0
   60.4181   34.7360   46.4750 H   0  0  0  0  0  0  0  0  0  0  0  0
   59.6007   33.3510   48.8769 H   0  0  0  0  0  0  0  0  0  0  0  0
  1  2  1  0
  2  3  1  0
  3  4  2  0
  4  5  1  0
  5  6  1  0
  6  7  1  0
  5  8  2  0
  8  9  1  0
  9 10  1  0
 10 11  2  0
 10 12  2  0
 10 13  1  0
 13 14  2  0
 14 15  1  0
 15 16  2  0
 16 17  1  0
 17 18  1  0
 18 19  2  0
 18 20  1  0
 20 21  1  0
 21 22  2  0
 22 23  1  0
 23 24  2  0
 24 25  1  0
 24 26  1  0
 26 27  2  0
 27 28  1  0
 28 29  1  0
 28 30  2  0
 16 31  1  0
 31 32  2  0
 32 33  1  0
 33 34  2  0
 34 35  1  0
 35 36  2  0
  8 37  1  0
 37 38  2  0
 38 39  1  0
 38  3  1  0
 36 13  1  0
 27 21  1  0
 36 31  1  0
  1 40  1  0
  1 41  1  0
  1 42  1  0
  4 43  1  0
  7 44  1  0
  7 45  1  0
  7 46  1  0
 14 47  1  0
 15 48  1  0
 20 49  1  0
 22 50  1  0
 23 51  1  0
 26 52  1  0
 29 53  1  0
 29 54  1  0
 29 55  1  0
 32 56  1  0
 33 57  1  0
 34 58  1  0
 35 59  1  0
 37 60  1  0
M  CHG  2   9  -1  25  -1
M  END
>  <UniqueID>  (50) 
46

>  <SMILES>  (50) 
COc1cc(OC)c([N-]S(=O)(=O)c2ccc(OC(=O)Nc3ccc([O-])cc3C(C)=O)c3ccccc23)cc1Cl

>  <Energy>  (50) 
91.83959067873191

>  <Genealogy>  (50) 
COc1cc(OC)c([N-]S(=O)(=O)c2ccc(OC(=O)Nc3ccc([O-])cc3C(C)=O)c3ccccc23)cc1Cl (protonated)
COc1cc(OC)c([N-]S(=O)(=O)c2ccc(OC(=O)Nc3ccc([O-])cc3C(C)=O)c3ccccc23)cc1Cl (3D coordinates assigned)
COc1cc(OC)c([N-]S(=O)(=O)c2ccc(OC(=O)Nc3ccc([O-])cc3C(C)=O)c3ccccc23)cc1Cl (optimized conformer: 91.83959067873191 kcal/mol)

>  <smiles>  (50) 
COc1cc(OC)c(NS(=O)(=O)c2ccc(OC(=O)Nc3ccc(O)cc3C(C)=O)c3ccccc23)cc1Cl

>  <score_type>  (50) 
oracle

>  <origin>  (50) 
adg

>  <m_score__min__energy>  (50) 
-12.51

>  <m_primary>  (50) 
energy

$$$$
50:0
     RDKit          3D

 72 76  0  0  0  0  0  0  0  0999 V2000
   55.7500   29.7270   44.8610 O   0  0  0  0  0  0  0  0  0  0  0  0
   56.4280   28.6690   44.9000 C   0  0  0  0  0  0  0  0  0  0  0  0
   57.7510   28.5990   44.2020 C   0  0  0  0  0  0  0  0  0  0  0  0
   58.6540   30.1640   44.4780 S   0  0  0  0  0  0  0  0  0  0  0  0
   58.7500   29.9740   46.2620 C   0  0  0  0  0  0  0  0  0  0  0  0
   58.8450   28.7760   46.8690 N   0  0  0  0  0  0  0  0  0  0  0  0
   58.8350   29.0040   48.1720 N   0  0  0  0  0  0  0  0  0  0  0  0
   58.7320   30.3380   48.3430 C   0  0  0  0  0  0  0  0  0  0  0  0
   58.6380   30.9500   49.6720 C   0  0  0  0  0  0  0  0  0  0  0  0
   58.0840   30.2370   50.7450 C   0  0  0  0  0  0  0  0  0  0  0  0
   57.9930   30.8280   52.0100 C   0  0  0  0  0  0  0  0  0  0  0  0
   58.4650   32.1280   52.2100 C   0  0  0  0  0  0  0  0  0  0  0  0
   59.0360   32.8340   51.1480 C   0  0  0  0  0  0  0  0  0  0  0  0
   59.1290   32.2460   49.8810 C   0  0  0  0  0  0  0  0  0  0  0  0
   58.7010   30.9890   47.1530 N   0  0  0  0  0  0  0  0  0  0  0  0
   58.6310   32.4320   46.8410 C   0  0  0  0  0  0  0  0  0  0  0  0
   60.0430   33.0320   46.6250 C   0  0  0  0  0  0  0  0  0  0  0  0
   60.0590   34.1840   45.5990 C   0  0  0  0  0  0  0  0  0  0  0  0
   58.8010   35.0590   45.7290 C   0  0  0  0  0  0  0  0  0  0  0  0
   57.5020   34.2580   45.4770 C   0  0  0  0  0  0  0  0  0  0  0  0
   57.6800   32.7410   45.6670 C   0  0  0  0  0  0  0  0  0  0  0  0
   55.9670   27.5400   45.6520 N   0  0  0  0  0  0  0  0  0  0  0  0
   56.7600   26.3920   45.9960 C   0  0  0  0  0  0  0  0  0  0  0  0
   58.1240   26.3050   45.6580 C   0  0  0  0  0  0  0  0  0  0  0  0
   58.8280   25.1150   45.8670 C   0  0  0  0  0  0  0  0  0  0  0  0
   58.1790   24.0000   46.3950 C   0  0  0  0  0  0  0  0  0  0  0  0
   56.8260   24.0740   46.7550 C   0  0  0  0  0  0  0  0  0  0  0  0
   55.9750   22.6280   47.2940 S   0  0  0  0  0  0  0  0  0  0  0  0
   56.9890   21.5600   47.5910 O   0  0  0  0  0  0  0  0  0  0  0  0
   55.2320   22.9060   48.5740 O   0  0  0  0  0  0  0  0  0  0  0  0
   54.8700   22.0220   46.0930 N   0  0  0  0  0  0  0  0  0  0  0  0
   53.6670   22.4670   45.8650 C   0  0  0  0  0  0  0  0  0  0  0  0
   53.5040   23.5520   44.8300 C   0  0  0  0  0  0  0  0  0  0  0  0
   52.3540   24.5260   45.1320 C   0  0  0  0  0  0  0  0  0  0  0  0
   50.9770   23.9680   44.7330 C   0  0  0  0  0  0  0  0  0  0  0  0
   50.4350   22.9350   45.7320 C   0  0  0  0  0  0  0  0  0  0  0  0
   51.2600   21.6480   45.7650 C   0  0  0  0  0  0  0  0  0  0  0  0
   52.5210   21.8510   46.4730 N   0  0  0  0  0  0  0  0  0  0  0  0
   56.1230   25.2750   46.5600 C   0  0  0  0  0  0  0  0  0  0  0  0
   58.3365   27.7595   44.6051 H   0  0  0  0  0  0  0  0  0  0  0  0
   57.5945   28.4458   43.1240 H   0  0  0  0  0  0  0  0  0  0  0  0
   57.7200   29.2103   50.5917 H   0  0  0  0  0  0  0  0  0  0  0  0
   57.5498   30.2691   52.8474 H   0  0  0  0  0  0  0  0  0  0  0  0
   58.3871   32.5952   53.2028 H   0  0  0  0  0  0  0  0  0  0  0  0
   59.4135   33.8547   51.3080 H   0  0  0  0  0  0  0  0  0  0  0  0
   59.5875   32.8012   49.0494 H   0  0  0  0  0  0  0  0  0  0  0  0
   58.1947   32.9278   47.7207 H   0  0  0  0  0  0  0  0  0  0  0  0
   60.4119   33.4152   47.5878 H   0  0  0  0  0  0  0  0  0  0  0  0
   60.6837   32.2303   46.2290 H   0  0  0  0  0  0  0  0  0  0  0  0
   60.9491   34.8067   45.7719 H   0  0  0  0  0  0  0  0  0  0  0  0
   60.0804   33.7510   44.5880 H   0  0  0  0  0  0  0  0  0  0  0  0
   58.7660   35.4799   46.7447 H   0  0  0  0  0  0  0  0  0  0  0  0
   58.8614   35.8514   44.9684 H   0  0  0  0  0  0  0  0  0  0  0  0
   56.7319   34.6105   46.1789 H   0  0  0  0  0  0  0  0  0  0  0  0
   57.2125   34.4250   44.4290 H   0  0  0  0  0  0  0  0  0  0  0  0
   56.6988   32.2878   45.8716 H   0  0  0  0  0  0  0  0  0  0  0  0
   58.1164   32.3244   44.7473 H   0  0  0  0  0  0  0  0  0  0  0  0
   58.6382   27.1770   45.2276 H   0  0  0  0  0  0  0  0  0  0  0  0
   59.8970   25.0586   45.6140 H   0  0  0  0  0  0  0  0  0  0  0  0
   58.7308   23.0580   46.5298 H   0  0  0  0  0  0  0  0  0  0  0  0
   54.4408   24.1261   44.7782 H   0  0  0  0  0  0  0  0  0  0  0  0
   53.2631   23.0552   43.8786 H   0  0  0  0  0  0  0  0  0  0  0  0
   52.3476   24.7378   46.2114 H   0  0  0  0  0  0  0  0  0  0  0  0
   52.5267   25.4353   44.5376 H   0  0  0  0  0  0  0  0  0  0  0  0
   50.2645   24.8038   44.6720 H   0  0  0  0  0  0  0  0  0  0  0  0
   51.0965   23.4584   43.7655 H   0  0  0  0  0  0  0  0  0  0  0  0
   50.4417   23.3819   46.7371 H   0  0  0  0  0  0  0  0  0  0  0  0
   49.4181   22.6666   45.4096 H   0  0  0  0  0  0  0  0  0  0  0  0
   50.6826   20.8640   46.2768 H   0  0  0  0  0  0  0  0  0  0  0  0
   51.4839   21.3494   44.7303 H   0  0  0  0  0  0  0  0  0  0  0  0
   52.6060   21.4660   47.4420 H   0  0  0  0  0  0  0  0  0  0  0  0
   55.0644   25.3406   46.8517 H   0  0  0  0  0  0  0  0  0  0  0  0
  1  2  2  0
  2  3  1  0
  3  4  1  0
  4  5  1  0
  5  6  2  0
  6  7  1  0
  7  8  2  0
  8  9  1  0
  9 10  2  0
 10 11  1  0
 11 12  2  0
 12 13  1  0
 13 14  2  0
  8 15  1  0
 15 16  1  0
 16 17  1  0
 17 18  1  0
 18 19  1  0
 19 20  1  0
 20 21  1  0
  2 22  1  0
 22 23  1  0
 23 24  2  0
 24 25  1  0
 25 26  2  0
 26 27  1  0
 27 28  1  0
 28 29  2  0
 28 30  2  0
 28 31  1  0
 31 32  2  3
 32 33  1  0
 33 34  1  0
 34 35  1  0
 35 36  1  0
 36 37  1  0
 37 38  1  0
 27 39  2  0
 15  5  1  0
 21 16  1  0
 39 23  1  0
 14  9  1  0
 38 32  1  0
  3 40  1  0
  3 41  1  0
 10 42  1  0
 11 43  1  0
 12 44  1  0
 13 45  1  0
 14 46  1  0
 16 47  1  0
 17 48  1  0
 17 49  1  0
 18 50  1  0
 18 51  1  0
 19 52  1  0
 19 53  1  0
 20 54  1  0
 20 55  1  0
 21 56  1  0
 21 57  1  0
 24 58  1  0
 25 59  1  0
 26 60  1  0
 33 61  1  0
 33 62  1  0
 34 63  1  0
 34 64  1  0
 35 65  1  0
 35 66  1  0
 36 67  1  0
 36 68  1  0
 37 69  1  0
 37 70  1  0
 38 71  1  0
 39 72  1  0
M  CHG  1  22  -1
M  END
>  <UniqueID>  (51) 
47

>  <SMILES>  (51) 
O=C(CSc1nnc(-c2ccccc2)n1C1CCCCC1)[N-]c1cccc(S(=O)(=O)N=C2CCCCCN2)c1

>  <Energy>  (51) 
126.01107747445629

>  <Genealogy>  (51) 
O=C(CSc1nnc(-c2ccccc2)n1C1CCCCC1)[N-]c1cccc(S(=O)(=O)N=C2CCCCCN2)c1 (protonated)
O=C(CSc1nnc(-c2ccccc2)n1C1CCCCC1)[N-]c1cccc(S(=O)(=O)N=C2CCCCCN2)c1 (3D coordinates assigned)
O=C(CSc1nnc(-c2ccccc2)n1C1CCCCC1)[N-]c1cccc(S(=O)(=O)N=C2CCCCCN2)c1 (nonaromatic ring conformer: 126.01107747445629 kcal/mol)

>  <smiles>  (51) 
O=C(CSc1nnc(-c2ccccc2)n1C1CCCCC1)Nc1cccc(S(=O)(=O)N=C2CCCCCN2)c1

>  <score_type>  (51) 
oracle

>  <origin>  (51) 
adg

>  <m_score__min__energy>  (51) 
-9.3100000000000005

>  <m_primary>  (51) 
energy

$$$$
51:0
     RDKit          3D

 38 40  0  0  0  0  0  0  0  0999 V2000
   55.5390   30.4840   44.1250 C   0  0  0  0  0  0  0  0  0  0  0  0
   56.3970   29.3810   44.6530 C   0  0  0  0  0  0  0  0  0  0  0  0
   55.9000   28.2850   45.2610 N   0  0  0  0  0  0  0  0  0  0  0  0
   56.9230   27.5530   45.6760 N   0  0  0  0  0  0  0  0  0  0  0  0
   56.7590   26.3240   46.4510 C   0  0  0  0  0  0  0  0  0  0  0  0
   56.4460   25.1740   45.5340 C   0  0  0  0  0  0  0  0  0  0  0  0
   57.3310   24.8430   44.4950 C   0  0  0  0  0  0  0  0  0  0  0  0
   57.0270   23.7970   43.6180 C   0  0  0  0  0  0  0  0  0  0  0  0
   55.8370   23.0790   43.7680 C   0  0  0  0  0  0  0  0  0  0  0  0
   54.9480   23.4080   44.7950 C   0  0  0  0  0  0  0  0  0  0  0  0
   55.2480   24.4530   45.6750 C   0  0  0  0  0  0  0  0  0  0  0  0
   58.0780   28.1820   45.3680 C   0  0  0  0  0  0  0  0  0  0  0  0
   59.5780   27.6350   45.7500 S   0  0  0  0  0  0  0  0  0  0  0  0
   57.7840   29.3590   44.7050 C   0  0  0  0  0  0  0  0  0  0  0  0
   58.7370   30.4340   44.2580 C   0  0  0  0  0  0  0  0  0  0  0  0
   58.4400   31.7310   44.9620 C   0  0  0  0  0  0  0  0  0  0  0  0
   58.1470   32.8880   44.2190 C   0  0  0  0  0  0  0  0  0  0  0  0
   57.9010   34.1000   44.8710 C   0  0  0  0  0  0  0  0  0  0  0  0
   57.9480   34.1680   46.2660 C   0  0  0  0  0  0  0  0  0  0  0  0
   58.2410   33.0230   47.0120 C   0  0  0  0  0  0  0  0  0  0  0  0
   58.4880   31.8080   46.3640 C   0  0  0  0  0  0  0  0  0  0  0  0
   55.1033   31.0441   44.9656 H   0  0  0  0  0  0  0  0  0  0  0  0
   56.1499   31.1615   43.5103 H   0  0  0  0  0  0  0  0  0  0  0  0
   54.7320   30.0586   43.5103 H   0  0  0  0  0  0  0  0  0  0  0  0
   57.6898   26.1111   46.9972 H   0  0  0  0  0  0  0  0  0  0  0  0
   55.9298   26.4541   47.1620 H   0  0  0  0  0  0  0  0  0  0  0  0
   58.2664   25.4084   44.3706 H   0  0  0  0  0  0  0  0  0  0  0  0
   57.7256   23.5387   42.8086 H   0  0  0  0  0  0  0  0  0  0  0  0
   55.6004   22.2555   43.0781 H   0  0  0  0  0  0  0  0  0  0  0  0
   54.0107   22.8441   44.9115 H   0  0  0  0  0  0  0  0  0  0  0  0
   54.5441   24.7112   46.4799 H   0  0  0  0  0  0  0  0  0  0  0  0
   59.7665   30.1240   44.4903 H   0  0  0  0  0  0  0  0  0  0  0  0
   58.6202   30.5836   43.1745 H   0  0  0  0  0  0  0  0  0  0  0  0
   58.1112   32.8395   43.1207 H   0  0  0  0  0  0  0  0  0  0  0  0
   57.6700   35.0017   44.2849 H   0  0  0  0  0  0  0  0  0  0  0  0
   57.7544   35.1227   46.7769 H   0  0  0  0  0  0  0  0  0  0  0  0
   58.2774   33.0772   48.1101 H   0  0  0  0  0  0  0  0  0  0  0  0
   58.7207   30.9095   46.9544 H   0  0  0  0  0  0  0  0  0  0  0  0
  1  2  1  0
  2  3  1  0
  3  4  1  0
  4  5  1  0
  5  6  1  0
  6  7  2  0
  7  8  1  0
  8  9  2  0
  9 10  1  0
 10 11  2  0
  4 12  1  0
 12 13  2  0
 12 14  1  0
 14 15  1  0
 15 16  1  0
 16 17  2  0
 17 18  1  0
 18 19  2  0
 19 20  1  0
 20 21  2  0
 14  2  2  0
 21 16  1  0
 11  6  1  0
  1 22  1  0
  1 23  1  0
  1 24  1  0
  5 25  1  0
  5 26  1  0
  7 27  1  0
  8 28  1  0
  9 29  1  0
 10 30  1  0
 11 31  1  0
 15 32  1  0
 15 33  1  0
 17 34  1  0
 18 35  1  0
 19 36  1  0
 20 37  1  0
 21 38  1  0
M  CHG  1   3  -1
M  END
>  <UniqueID>  (52) 
48

>  <SMILES>  (52) 
Cc1[n-]n(Cc2ccccc2)c(=S)c1Cc1ccccc1

>  <Energy>  (52) 
67.52432428133145

>  <Genealogy>  (52) 
Cc1[n-]n(Cc2ccccc2)c(=S)c1Cc1ccccc1 (protonated)
Cc1[n-]n(Cc2ccccc2)c(=S)c1Cc1ccccc1 (3D coordinates assigned)
Cc1[n-]n(Cc2ccccc2)c(=S)c1Cc1ccccc1 (optimized conformer: 67.52432428133145 kcal/mol)

>  <smiles>  (52) 
Cc1[nH]n(Cc2ccccc2)c(=S)c1Cc1ccccc1

>  <score_type>  (52) 
oracle

>  <origin>  (52) 
adg

>  <m_score__min__energy>  (52) 
-9.4100000000000001

>  <m_primary>  (52) 
energy

$$$$
52:0
     RDKit          3D

 40 41  0  0  0  0  0  0  0  0999 V2000
   55.3220   26.2270   46.0000 O   0  0  0  0  0  0  0  0  0  0  0  0
   56.2560   27.0430   45.7750 C   0  0  0  0  0  0  0  0  0  0  0  0
   57.6720   26.6180   46.0670 C   0  0  0  0  0  0  0  0  0  0  0  0
   58.6170   27.7930   46.1630 C   0  0  0  0  0  0  0  0  0  0  0  0
   58.4970   28.7420   47.1980 C   0  0  0  0  0  0  0  0  0  0  0  0
   59.3530   29.8500   47.2500 C   0  0  0  0  0  0  0  0  0  0  0  0
   60.3240   30.0310   46.2620 C   0  0  0  0  0  0  0  0  0  0  0  0
   60.4250   29.1160   45.2090 C   0  0  0  0  0  0  0  0  0  0  0  0
   59.5700   28.0080   45.1530 C   0  0  0  0  0  0  0  0  0  0  0  0
   55.9170   28.3360   45.2530 N   0  0  0  0  0  0  0  0  0  0  0  0
   56.5820   29.0610   44.1730 C   0  0  0  0  0  0  0  0  0  0  0  0
   56.0800   30.5090   44.0470 C   0  0  0  0  0  0  0  0  0  0  0  0
   57.1500   31.4900   43.5430 C   0  0  0  0  0  0  0  0  0  0  0  0
   58.0550   31.8720   44.6280 N   0  0  0  0  0  0  0  0  0  0  0  0
   57.9040   33.0810   45.3920 C   0  0  0  0  0  0  0  0  0  0  0  0
   56.9340   33.8550   45.1620 O   0  0  0  0  0  0  0  0  0  0  0  0
   58.9070   33.4620   46.4130 C   0  0  0  0  0  0  0  0  0  0  0  0
   60.1940   33.8620   46.0160 C   0  0  0  0  0  0  0  0  0  0  0  0
   61.1490   34.1730   46.9860 C   0  0  0  0  0  0  0  0  0  0  0  0
   60.8280   34.1070   48.3050 N   0  0  0  0  0  0  0  0  0  0  0  0
   59.5840   33.7430   48.7200 C   0  0  0  0  0  0  0  0  0  0  0  0
   58.6010   33.4190   47.7850 C   0  0  0  0  0  0  0  0  0  0  0  0
   57.6875   26.0730   47.0224 H   0  0  0  0  0  0  0  0  0  0  0  0
   58.0100   25.9824   45.2353 H   0  0  0  0  0  0  0  0  0  0  0  0
   57.7253   28.6118   47.9710 H   0  0  0  0  0  0  0  0  0  0  0  0
   59.2604   30.5780   48.0694 H   0  0  0  0  0  0  0  0  0  0  0  0
   61.0077   30.8913   46.3121 H   0  0  0  0  0  0  0  0  0  0  0  0
   61.1786   29.2671   44.4220 H   0  0  0  0  0  0  0  0  0  0  0  0
   59.6450   27.3017   44.3131 H   0  0  0  0  0  0  0  0  0  0  0  0
   57.6638   29.0776   44.3717 H   0  0  0  0  0  0  0  0  0  0  0  0
   56.3548   28.5426   43.2298 H   0  0  0  0  0  0  0  0  0  0  0  0
   55.2352   30.5240   43.3427 H   0  0  0  0  0  0  0  0  0  0  0  0
   55.7901   30.8385   45.0556 H   0  0  0  0  0  0  0  0  0  0  0  0
   57.7303   31.0104   42.7410 H   0  0  0  0  0  0  0  0  0  0  0  0
   56.6504   32.3941   43.1649 H   0  0  0  0  0  0  0  0  0  0  0  0
   58.8950   31.2710   44.7780 H   0  0  0  0  0  0  0  0  0  0  0  0
   60.4477   33.9297   44.9478 H   0  0  0  0  0  0  0  0  0  0  0  0
   62.1630   34.4720   46.6821 H   0  0  0  0  0  0  0  0  0  0  0  0
   59.3533   33.7042   49.7948 H   0  0  0  0  0  0  0  0  0  0  0  0
   57.5929   33.1317   48.1186 H   0  0  0  0  0  0  0  0  0  0  0  0
  1  2  2  0
  2  3  1  0
  3  4  1  0
  4  5  2  0
  5  6  1  0
  6  7  2  0
  7  8  1  0
  8  9  2  0
  2 10  1  0
 10 11  1  0
 11 12  1  0
 12 13  1  0
 13 14  1  0
 14 15  1  0
 15 16  2  0
 15 17  1  0
 17 18  2  0
 18 19  1  0
 19 20  2  0
 20 21  1  0
 21 22  2  0
  9  4  1  0
 22 17  1  0
  3 23  1  0
  3 24  1  0
  5 25  1  0
  6 26  1  0
  7 27  1  0
  8 28  1  0
  9 29  1  0
 11 30  1  0
 11 31  1  0
 12 32  1  0
 12 33  1  0
 13 34  1  0
 13 35  1  0
 14 36  1  0
 18 37  1  0
 19 38  1  0
 21 39  1  0
 22 40  1  0
M  CHG  1  10  -1
M  END
>  <UniqueID>  (53) 
49

>  <SMILES>  (53) 
O=C(Cc1ccccc1)[N-]CCCNC(=O)c1ccncc1

>  <Energy>  (53) 
34.98657384204112

>  <Genealogy>  (53) 
O=C(Cc1ccccc1)[N-]CCCNC(=O)c1ccncc1 (protonated)
O=C(Cc1ccccc1)[N-]CCCNC(=O)c1ccncc1 (3D coordinates assigned)
O=C(Cc1ccccc1)[N-]CCCNC(=O)c1ccncc1 (optimized conformer: 34.98657384204112 kcal/mol)

>  <smiles>  (53) 
O=C(Cc1ccccc1)NCCCNC(=O)c1ccncc1

>  <score_type>  (53) 
oracle

>  <origin>  (53) 
adg

>  <m_score__min__energy>  (53) 
-9.5800000000000001

>  <m_primary>  (53) 
energy

$$$$
53:0
     RDKit          3D

 41 44  0  0  0  0  0  0  0  0999 V2000
   60.3240   26.7250   45.9540 O   0  0  0  0  0  0  0  0  0  0  0  0
   59.2190   27.2760   45.7110 C   0  0  0  0  0  0  0  0  0  0  0  0
   59.1640   28.4500   45.0200 N   0  0  0  0  0  0  0  0  0  0  0  0
   57.9790   29.0770   44.7340 C   0  0  0  0  0  0  0  0  0  0  0  0
   58.0190   30.3870   43.9950 C   0  0  0  0  0  0  0  0  0  0  0  0
   57.9790   31.5510   44.9530 C   0  0  0  0  0  0  0  0  0  0  0  0
   58.3660   31.3770   46.2940 C   0  0  0  0  0  0  0  0  0  0  0  0
   58.3350   32.4550   47.1840 C   0  0  0  0  0  0  0  0  0  0  0  0
   57.9240   33.7150   46.7420 C   0  0  0  0  0  0  0  0  0  0  0  0
   57.5480   33.9010   45.4090 C   0  0  0  0  0  0  0  0  0  0  0  0
   57.5790   32.8250   44.5150 C   0  0  0  0  0  0  0  0  0  0  0  0
   56.7680   28.4890   45.1840 C   0  0  0  0  0  0  0  0  0  0  0  0
   55.5120   29.0540   44.9520 O   0  0  0  0  0  0  0  0  0  0  0  0
   56.8610   27.3220   45.8700 N   0  0  0  0  0  0  0  0  0  0  0  0
   55.8770   26.6040   46.3740 N   0  0  0  0  0  0  0  0  0  0  0  0
   56.4990   25.5490   46.9510 C   0  0  0  0  0  0  0  0  0  0  0  0
   55.8480   24.6040   47.5550 N   0  0  0  0  0  0  0  0  0  0  0  0
   56.0350   22.9260   47.1630 S   0  0  0  0  0  0  0  0  0  0  0  0
   54.8090   22.1760   47.5990 O   0  0  0  0  0  0  0  0  0  0  0  0
   57.2300   22.3830   47.8980 O   0  0  0  0  0  0  0  0  0  0  0  0
   56.2380   22.7330   45.4240 C   0  0  0  0  0  0  0  0  0  0  0  0
   57.1820   21.8210   44.9290 C   0  0  0  0  0  0  0  0  0  0  0  0
   57.3420   21.6560   43.5490 C   0  0  0  0  0  0  0  0  0  0  0  0
   56.5640   22.4030   42.6600 C   0  0  0  0  0  0  0  0  0  0  0  0
   55.6250   23.3170   43.1500 C   0  0  0  0  0  0  0  0  0  0  0  0
   55.4630   23.4830   44.5290 C   0  0  0  0  0  0  0  0  0  0  0  0
   57.8540   25.5750   46.8300 N   0  0  0  0  0  0  0  0  0  0  0  0
   58.0220   26.7170   46.1380 C   0  0  0  0  0  0  0  0  0  0  0  0
   58.9460   30.4387   43.4050 H   0  0  0  0  0  0  0  0  0  0  0  0
   57.1391   30.4447   43.3374 H   0  0  0  0  0  0  0  0  0  0  0  0
   58.6948   30.3875   46.6445 H   0  0  0  0  0  0  0  0  0  0  0  0
   58.6343   32.3109   48.2326 H   0  0  0  0  0  0  0  0  0  0  0  0
   57.8963   34.5615   47.4439 H   0  0  0  0  0  0  0  0  0  0  0  0
   57.2273   34.8944   45.0621 H   0  0  0  0  0  0  0  0  0  0  0  0
   57.2890   32.9770   43.4649 H   0  0  0  0  0  0  0  0  0  0  0  0
   54.7410   28.9650   45.5980 H   0  0  0  0  0  0  0  0  0  0  0  0
   57.7975   21.2346   45.6271 H   0  0  0  0  0  0  0  0  0  0  0  0
   58.0806   20.9379   43.1633 H   0  0  0  0  0  0  0  0  0  0  0  0
   56.6900   22.2722   41.5751 H   0  0  0  0  0  0  0  0  0  0  0  0
   55.0137   23.9055   42.4500 H   0  0  0  0  0  0  0  0  0  0  0  0
   54.7257   24.2038   44.9121 H   0  0  0  0  0  0  0  0  0  0  0  0
  1  2  2  0
  2  3  1  0
  3  4  1  0
  4  5  1  0
  5  6  1  0
  6  7  2  0
  7  8  1  0
  8  9  2  0
  9 10  1  0
 10 11  2  0
  4 12  2  0
 12 13  1  0
 12 14  1  0
 14 15  1  0
 15 16  1  0
 16 17  2  3
 17 18  1  0
 18 19  2  0
 18 20  2  0
 18 21  1  0
 21 22  2  0
 22 23  1  0
 23 24  2  0
 24 25  1  0
 25 26  2  0
 16 27  1  0
 27 28  2  0
 28  2  1  0
 11  6  1  0
 28 14  1  0
 26 21  1  0
  5 29  1  0
  5 30  1  0
  7 31  1  0
  8 32  1  0
  9 33  1  0
 10 34  1  0
 11 35  1  0
 13 36  1  0
 22 37  1  0
 23 38  1  0
 24 39  1  0
 25 40  1  0
 26 41  1  0
M  CHG  2   3  -1  15  -1
M  END
>  <UniqueID>  (54) 
50

>  <SMILES>  (54) 
O=c1[n-]c(Cc2ccccc2)c(O)n2[n-]c(=NS(=O)(=O)c3ccccc3)nc12

>  <Energy>  (54) 
89.2542815579442

>  <Genealogy>  (54) 
O=c1[n-]c(Cc2ccccc2)c(O)n2[n-]c(=NS(=O)(=O)c3ccccc3)nc12 (protonated)
O=c1[n-]c(Cc2ccccc2)c(O)n2[n-]c(=NS(=O)(=O)c3ccccc3)nc12 (3D coordinates assigned)
O=c1[n-]c(Cc2ccccc2)c(O)n2[n-]c(=NS(=O)(=O)c3ccccc3)nc12 (optimized conformer: 89.2542815579442 kcal/mol)

>  <smiles>  (54) 
O=c1[nH]c(Cc2ccccc2)c(O)n2[nH]c(=NS(=O)(=O)c3ccccc3)nc12

>  <score_type>  (54) 
oracle

>  <origin>  (54) 
adg

>  <m_score__min__energy>  (54) 
-12.859999999999999

>  <m_primary>  (54) 
energy

$$$$
54:0
     RDKit          3D

 27 28  0  0  0  0  0  0  0  0999 V2000
   59.1430   34.9610   45.1080 C   0  0  0  0  0  0  0  0  0  0  0  0
   58.5890   33.5720   44.9890 C   0  0  0  0  0  0  0  0  0  0  0  0
   58.1700   33.0820   43.7420 C   0  0  0  0  0  0  0  0  0  0  0  0
   57.6880   31.7760   43.6240 C   0  0  0  0  0  0  0  0  0  0  0  0
   57.6260   30.9420   44.7480 C   0  0  0  0  0  0  0  0  0  0  0  0
   57.0180   29.2950   44.6070 S   0  0  0  0  0  0  0  0  0  0  0  0
   57.2650   28.8050   43.2090 O   0  0  0  0  0  0  0  0  0  0  0  0
   55.5410   29.2490   44.8850 O   0  0  0  0  0  0  0  0  0  0  0  0
   57.8410   28.2420   45.7490 C   0  0  0  0  0  0  0  0  0  0  0  0
   58.9210   28.6250   46.4570 N   0  0  0  0  0  0  0  0  0  0  0  0
   59.2760   27.6120   47.2350 N   0  0  0  0  0  0  0  0  0  0  0  0
   58.4410   26.5750   47.0480 C   0  0  0  0  0  0  0  0  0  0  0  0
   57.5080   26.9430   46.1020 C   0  0  0  0  0  0  0  0  0  0  0  0
   56.4320   26.1270   45.6190 N   0  0  0  0  0  0  0  0  0  0  0  0
   56.6460   25.1630   44.8580 O   0  0  0  0  0  0  0  0  0  0  0  0
   55.1410   26.3960   46.0110 O   0  0  0  0  0  0  0  0  0  0  0  0
   58.0670   31.4220   45.9900 C   0  0  0  0  0  0  0  0  0  0  0  0
   58.5500   32.7280   46.1090 C   0  0  0  0  0  0  0  0  0  0  0  0
   59.2479   35.2241   46.1709 H   0  0  0  0  0  0  0  0  0  0  0  0
   60.1279   35.0060   44.6202 H   0  0  0  0  0  0  0  0  0  0  0  0
   58.4594   35.6714   44.6202 H   0  0  0  0  0  0  0  0  0  0  0  0
   58.2214   33.7291   42.8540 H   0  0  0  0  0  0  0  0  0  0  0  0
   57.3559   31.4011   42.6447 H   0  0  0  0  0  0  0  0  0  0  0  0
   60.0860   27.6350   47.8920 H   0  0  0  0  0  0  0  0  0  0  0  0
   58.4931   25.6029   47.5602 H   0  0  0  0  0  0  0  0  0  0  0  0
   58.0325   30.7679   46.8738 H   0  0  0  0  0  0  0  0  0  0  0  0
   58.9009   33.0956   47.0846 H   0  0  0  0  0  0  0  0  0  0  0  0
  1  2  1  0
  2  3  2  0
  3  4  1  0
  4  5  2  0
  5  6  1  0
  6  7  2  0
  6  8  2  0
  6  9  1  0
  9 10  2  0
 10 11  1  0
 11 12  1  0
 12 13  2  0
 13 14  1  0
 14 15  2  0
 14 16  1  0
  5 17  1  0
 17 18  2  0
 18  2  1  0
 13  9  1  0
  1 19  1  0
  1 20  1  0
  1 21  1  0
  3 22  1  0
  4 23  1  0
 11 24  1  0
 12 25  1  0
 17 26  1  0
 18 27  1  0
M  CHG  2  14   1  16  -1
M  END
>  <UniqueID>  (55) 
51

>  <SMILES>  (55) 
Cc1ccc(S(=O)(=O)c2n[nH]cc2[N+](=O)[O-])cc1

>  <Energy>  (55) 
60.61022648221044

>  <Genealogy>  (55) 
Cc1ccc(S(=O)(=O)c2n[nH]cc2[N+](=O)[O-])cc1 (3D coordinates assigned)
Cc1ccc(S(=O)(=O)c2n[nH]cc2[N+](=O)[O-])cc1 (optimized conformer: 60.61022648221044 kcal/mol)

>  <smiles>  (55) 
Cc1ccc(S(=O)(=O)c2n[nH]cc2[N+](=O)[O-])cc1

>  <score_type>  (55) 
oracle

>  <origin>  (55) 
adg

>  <m_score__min__energy>  (55) 
-7.2400000000000002

>  <m_primary>  (55) 
energy

$$$$
55:0
     RDKit          3D

 23 23  0  0  0  0  0  0  0  0999 V2000
   60.9560   28.6100   44.8230 C   0  0  0  0  0  0  0  0  0  0  0  0
   60.5060   27.7740   46.0160 C   0  0  0  0  0  0  0  0  0  0  0  0
   59.3810   28.3740   46.6550 O   0  0  0  0  0  0  0  0  0  0  0  0
   58.5070   29.2660   46.0150 C   0  0  0  0  0  0  0  0  0  0  0  0
   58.8580   30.5680   45.8380 N   0  0  0  0  0  0  0  0  0  0  0  0
   58.0220   31.4480   45.2290 C   0  0  0  0  0  0  0  0  0  0  0  0
   58.4540   32.8600   45.0130 C   0  0  0  0  0  0  0  0  0  0  0  0
   56.8180   31.0260   44.7650 N   0  0  0  0  0  0  0  0  0  0  0  0
   56.4120   29.7370   44.9150 C   0  0  0  0  0  0  0  0  0  0  0  0
   55.1290   29.3510   44.4120 N   0  0  0  0  0  0  0  0  0  0  0  0
   57.2610   28.8160   45.5570 C   0  0  0  0  0  0  0  0  0  0  0  0
   56.8780   27.4360   45.7430 C   0  0  0  0  0  0  0  0  0  0  0  0
   56.5710   26.3300   45.8930 N   0  0  0  0  0  0  0  0  0  0  0  0
   61.4488   29.5256   45.1819 H   0  0  0  0  0  0  0  0  0  0  0  0
   61.6628   28.0281   44.2132 H   0  0  0  0  0  0  0  0  0  0  0  0
   60.0811   28.8795   44.2132 H   0  0  0  0  0  0  0  0  0  0  0  0
   60.2298   26.7676   45.6683 H   0  0  0  0  0  0  0  0  0  0  0  0
   61.3333   27.7139   46.7385 H   0  0  0  0  0  0  0  0  0  0  0  0
   58.6041   33.3505   45.9861 H   0  0  0  0  0  0  0  0  0  0  0  0
   59.3970   32.8724   44.4468 H   0  0  0  0  0  0  0  0  0  0  0  0
   57.6793   33.3979   44.4468 H   0  0  0  0  0  0  0  0  0  0  0  0
   54.5250   30.0550   43.9330 H   0  0  0  0  0  0  0  0  0  0  0  0
   54.7670   28.3770   44.5060 H   0  0  0  0  0  0  0  0  0  0  0  0
  1  2  1  0
  2  3  1  0
  3  4  1  0
  4  5  2  0
  5  6  1  0
  6  7  1  0
  6  8  2  0
  8  9  1  0
  9 10  1  0
  9 11  2  0
 11 12  1  0
 12 13  3  0
 11  4  1  0
  1 14  1  0
  1 15  1  0
  1 16  1  0
  2 17  1  0
  2 18  1  0
  7 19  1  0
  7 20  1  0
  7 21  1  0
 10 22  1  0
 10 23  1  0
M  END
>  <UniqueID>  (56) 
52

>  <SMILES>  (56) 
CCOc1nc(C)nc(N)c1C#N

>  <Energy>  (56) 
16.10138545533504

>  <Genealogy>  (56) 
CCOc1nc(C)nc(N)c1C#N (3D coordinates assigned)
CCOc1nc(C)nc(N)c1C#N (optimized conformer: 16.10138545533504 kcal/mol)

>  <smiles>  (56) 
CCOc1nc(C)nc(N)c1C#N

>  <score_type>  (56) 
oracle

>  <origin>  (56) 
adg

>  <m_score__min__energy>  (56) 
-4.6200000000000001

>  <m_primary>  (56) 
energy

$$$$
56:0
     RDKit          3D

 41 43  0  0  0  0  0  0  0  0999 V2000
   57.9330   32.7840   43.1420 O   0  0  0  0  0  0  0  0  0  0  0  0
   57.7880   32.2620   44.2780 C   0  0  0  0  0  0  0  0  0  0  0  0
   57.0980   33.0400   45.3650 C   0  0  0  0  0  0  0  0  0  0  0  0
   58.0890   33.4510   46.4190 C   0  0  0  0  0  0  0  0  0  0  0  0
   58.9430   34.5450   46.1970 C   0  0  0  0  0  0  0  0  0  0  0  0
   59.8900   34.9080   47.1600 C   0  0  0  0  0  0  0  0  0  0  0  0
   59.9960   34.1820   48.3510 C   0  0  0  0  0  0  0  0  0  0  0  0
   60.9440   34.5560   49.3010 O   0  0  0  0  0  0  0  0  0  0  0  0
   59.1490   33.0880   48.5770 C   0  0  0  0  0  0  0  0  0  0  0  0
   58.2010   32.7250   47.6160 C   0  0  0  0  0  0  0  0  0  0  0  0
   58.3260   30.9580   44.5170 N   0  0  0  0  0  0  0  0  0  0  0  0
   57.8160   29.9190   43.9890 N   0  0  0  0  0  0  0  0  0  0  0  0
   57.5280   28.7250   44.7320 C   0  0  0  0  0  0  0  0  0  0  0  0
   56.2350   28.3910   45.1780 C   0  0  0  0  0  0  0  0  0  0  0  0
   55.1470   29.2200   44.9290 O   0  0  0  0  0  0  0  0  0  0  0  0
   56.0380   27.2420   45.8740 N   0  0  0  0  0  0  0  0  0  0  0  0
   57.0630   26.3920   46.1510 C   0  0  0  0  0  0  0  0  0  0  0  0
   56.8740   25.3050   46.8390 N   0  0  0  0  0  0  0  0  0  0  0  0
   55.8310   24.3360   46.6390 C   0  0  0  0  0  0  0  0  0  0  0  0
   55.0730   24.2930   45.4550 C   0  0  0  0  0  0  0  0  0  0  0  0
   54.0870   23.3170   45.2830 C   0  0  0  0  0  0  0  0  0  0  0  0
   53.8510   22.3570   46.2830 C   0  0  0  0  0  0  0  0  0  0  0  0
   52.7980   21.3350   46.1030 C   0  0  0  0  0  0  0  0  0  0  0  0
   52.8560   20.2380   46.7200 O   0  0  0  0  0  0  0  0  0  0  0  0
   51.7240   21.5720   45.2530 O   0  0  0  0  0  0  0  0  0  0  0  0
   54.6350   22.3840   47.4510 C   0  0  0  0  0  0  0  0  0  0  0  0
   55.6230   23.3580   47.6200 C   0  0  0  0  0  0  0  0  0  0  0  0
   58.3190   26.7080   45.7430 N   0  0  0  0  0  0  0  0  0  0  0  0
   58.5710   27.8440   45.0420 C   0  0  0  0  0  0  0  0  0  0  0  0
   59.7490   28.0970   44.6750 O   0  0  0  0  0  0  0  0  0  0  0  0
   56.6355   33.9387   44.9310 H   0  0  0  0  0  0  0  0  0  0  0  0
   56.3264   32.4057   45.8258 H   0  0  0  0  0  0  0  0  0  0  0  0
   58.8662   35.1184   45.2614 H   0  0  0  0  0  0  0  0  0  0  0  0
   60.5534   35.7669   46.9804 H   0  0  0  0  0  0  0  0  0  0  0  0
   61.3090   33.8910   49.9710 H   0  0  0  0  0  0  0  0  0  0  0  0
   59.2305   32.5143   49.5120 H   0  0  0  0  0  0  0  0  0  0  0  0
   57.5389   31.8657   47.7984 H   0  0  0  0  0  0  0  0  0  0  0  0
   55.2569   25.0310   44.6604 H   0  0  0  0  0  0  0  0  0  0  0  0
   53.4913   23.2999   44.3584 H   0  0  0  0  0  0  0  0  0  0  0  0
   54.4691   21.6328   48.2372 H   0  0  0  0  0  0  0  0  0  0  0  0
   56.2415   23.3566   48.5296 H   0  0  0  0  0  0  0  0  0  0  0  0
  1  2  2  0
  2  3  1  0
  3  4  1  0
  4  5  2  0
  5  6  1  0
  6  7  2  0
  7  8  1  0
  7  9  1  0
  9 10  2  0
  2 11  1  0
 11 12  2  3
 12 13  1  0
 13 14  2  0
 14 15  1  0
 14 16  1  0
 16 17  1  0
 17 18  2  3
 18 19  1  0
 19 20  2  0
 20 21  1  0
 21 22  2  0
 22 23  1  0
 23 24  2  0
 23 25  1  0
 22 26  1  0
 26 27  2  0
 17 28  1  0
 28 29  1  0
 29 30  2  0
 10  4  1  0
 29 13  1  0
 27 19  1  0
  3 31  1  0
  3 32  1  0
  5 33  1  0
  6 34  1  0
  8 35  1  0
  9 36  1  0
 10 37  1  0
 20 38  1  0
 21 39  1  0
 26 40  1  0
 27 41  1  0
M  CHG  4  15  -1  16  -1  25  -1  28  -1
M  END
>  <UniqueID>  (57) 
53

>  <SMILES>  (57) 
O=C(Cc1ccc(O)cc1)N=Nc1c([O-])[n-]c(=Nc2ccc(C(=O)[O-])cc2)[n-]c1=O

>  <Energy>  (57) 
50.86288699998397

>  <Genealogy>  (57) 
O=C(Cc1ccc(O)cc1)N=Nc1c([O-])[n-]c(=Nc2ccc(C(=O)[O-])cc2)[n-]c1=O (protonated)
O=C(Cc1ccc(O)cc1)N=Nc1c([O-])[n-]c(=Nc2ccc(C(=O)[O-])cc2)[n-]c1=O (3D coordinates assigned)
O=C(Cc1ccc(O)cc1)N=Nc1c([O-])[n-]c(=Nc2ccc(C(=O)[O-])cc2)[n-]c1=O (optimized conformer: 50.86288699998397 kcal/mol)

>  <smiles>  (57) 
O=C(Cc1ccc(O)cc1)N=Nc1c(O)[nH]c(=Nc2ccc(C(=O)O)cc2)[nH]c1=O

>  <score_type>  (57) 
oracle

>  <origin>  (57) 
adg

>  <m_score__min__energy>  (57) 
-15.199999999999999

>  <m_primary>  (57) 
energy

$$$$
57:0
     RDKit          3D

 55 58  0  0  0  0  0  0  0  0999 V2000
   56.2650   30.5050   54.4680 C   0  0  0  0  0  0  0  0  0  0  0  0
   55.6860   30.4150   52.7880 S   0  0  0  0  0  0  0  0  0  0  0  0
   55.8100   28.9980   52.3080 O   0  0  0  0  0  0  0  0  0  0  0  0
   54.2410   30.8200   52.7100 O   0  0  0  0  0  0  0  0  0  0  0  0
   56.6490   31.4380   51.7660 N   0  0  0  0  0  0  0  0  0  0  0  0
   57.9560   31.1000   51.2720 C   0  0  0  0  0  0  0  0  0  0  0  0
   59.0850   31.5450   51.9760 C   0  0  0  0  0  0  0  0  0  0  0  0
   60.3710   31.2540   51.5180 C   0  0  0  0  0  0  0  0  0  0  0  0
   60.5550   30.5180   50.3340 C   0  0  0  0  0  0  0  0  0  0  0  0
   61.8380   30.2210   49.8450 O   0  0  0  0  0  0  0  0  0  0  0  0
   62.8500   31.1690   49.6410 C   0  0  0  0  0  0  0  0  0  0  0  0
   63.9600   31.1450   50.4940 C   0  0  0  0  0  0  0  0  0  0  0  0
   64.9850   32.0810   50.3500 C   0  0  0  0  0  0  0  0  0  0  0  0
   64.9190   33.0480   49.3450 C   0  0  0  0  0  0  0  0  0  0  0  0
   63.8290   33.0750   48.4610 C   0  0  0  0  0  0  0  0  0  0  0  0
   63.7720   34.0320   47.4350 C   0  0  0  0  0  0  0  0  0  0  0  0
   62.7010   34.0400   46.5380 C   0  0  0  0  0  0  0  0  0  0  0  0
   61.6830   33.0920   46.6530 C   0  0  0  0  0  0  0  0  0  0  0  0
   61.7210   32.1370   47.6740 C   0  0  0  0  0  0  0  0  0  0  0  0
   62.7840   32.1220   48.5980 C   0  0  0  0  0  0  0  0  0  0  0  0
   59.4310   30.0590   49.6270 C   0  0  0  0  0  0  0  0  0  0  0  0
   59.6480   29.1550   48.1280 S   0  0  0  0  0  0  0  0  0  0  0  0
   60.9860   29.5040   47.5320 O   0  0  0  0  0  0  0  0  0  0  0  0
   59.5880   27.6750   48.3960 O   0  0  0  0  0  0  0  0  0  0  0  0
   58.3750   29.5950   47.0390 N   0  0  0  0  0  0  0  0  0  0  0  0
   58.1560   30.8990   46.4850 C   0  0  0  0  0  0  0  0  0  0  0  0
   58.6350   32.0560   47.1280 C   0  0  0  0  0  0  0  0  0  0  0  0
   58.4250   33.3140   46.5620 C   0  0  0  0  0  0  0  0  0  0  0  0
   57.7350   33.4340   45.3560 C   0  0  0  0  0  0  0  0  0  0  0  0
   57.2460   32.2960   44.7130 C   0  0  0  0  0  0  0  0  0  0  0  0
   57.4540   31.0240   45.2660 C   0  0  0  0  0  0  0  0  0  0  0  0
   56.8050   29.5970   44.4450 S   0  0  0  0  0  0  0  0  0  0  0  0
   55.1510   29.3370   44.8740 N   0  0  0  0  0  0  0  0  0  0  0  0
   56.8820   29.7910   42.9580 O   0  0  0  0  0  0  0  0  0  0  0  0
   57.6100   28.3900   44.8360 O   0  0  0  0  0  0  0  0  0  0  0  0
   58.1410   30.3540   50.0930 C   0  0  0  0  0  0  0  0  0  0  0  0
   55.4167   30.3731   55.1557 H   0  0  0  0  0  0  0  0  0  0  0  0
   57.0061   29.7113   54.6434 H   0  0  0  0  0  0  0  0  0  0  0  0
   56.7302   31.4862   54.6434 H   0  0  0  0  0  0  0  0  0  0  0  0
   56.2640   32.3900   51.5640 H   0  0  0  0  0  0  0  0  0  0  0  0
   58.9553   32.1295   52.8988 H   0  0  0  0  0  0  0  0  0  0  0  0
   61.2458   31.6025   52.0866 H   0  0  0  0  0  0  0  0  0  0  0  0
   64.0246   30.3823   51.2840 H   0  0  0  0  0  0  0  0  0  0  0  0
   65.8485   32.0569   51.0310 H   0  0  0  0  0  0  0  0  0  0  0  0
   65.7239   33.7912   49.2457 H   0  0  0  0  0  0  0  0  0  0  0  0
   64.5740   34.7785   47.3371 H   0  0  0  0  0  0  0  0  0  0  0  0
   62.6599   34.7952   45.7392 H   0  0  0  0  0  0  0  0  0  0  0  0
   60.8474   33.0961   45.9376 H   0  0  0  0  0  0  0  0  0  0  0  0
   60.9153   31.3926   47.7560 H   0  0  0  0  0  0  0  0  0  0  0  0
   59.1773   31.9680   48.0810 H   0  0  0  0  0  0  0  0  0  0  0  0
   58.8048   34.2136   47.0685 H   0  0  0  0  0  0  0  0  0  0  0  0
   57.5759   34.4272   44.9109 H   0  0  0  0  0  0  0  0  0  0  0  0
   56.6941   32.3973   43.7668 H   0  0  0  0  0  0  0  0  0  0  0  0
   55.1390   28.6490   45.6590 H   0  0  0  0  0  0  0  0  0  0  0  0
   57.2648   29.9985   49.5309 H   0  0  0  0  0  0  0  0  0  0  0  0
  1  2  1  0
  2  3  2  0
  2  4  2  0
  2  5  1  0
  5  6  1  0
  6  7  2  0
  7  8  1  0
  8  9  2  0
  9 10  1  0
 10 11  1  0
 11 12  2  0
 12 13  1  0
 13 14  2  0
 14 15  1  0
 15 16  2  0
 16 17  1  0
 17 18  2  0
 18 19  1  0
 19 20  2  0
  9 21  1  0
 21 22  1  0
 22 23  2  0
 22 24  2  0
 22 25  1  0
 25 26  1  0
 26 27  2  0
 27 28  1  0
 28 29  2  0
 29 30  1  0
 30 31  2  0
 31 32  1  0
 32 33  1  0
 32 34  2  0
 32 35  2  0
 21 36  2  0
 36  6  1  0
 20 11  1  0
 31 26  1  0
 20 15  1  0
  1 37  1  0
  1 38  1  0
  1 39  1  0
  5 40  1  0
  7 41  1  0
  8 42  1  0
 12 43  1  0
 13 44  1  0
 14 45  1  0
 16 46  1  0
 17 47  1  0
 18 48  1  0
 19 49  1  0
 27 50  1  0
 28 51  1  0
 29 52  1  0
 30 53  1  0
 33 54  1  0
 36 55  1  0
M  CHG  2  25  -1  33  -1
M  END
>  <UniqueID>  (58) 
54

>  <SMILES>  (58) 
CS(=O)(=O)Nc1ccc(Oc2cccc3ccccc23)c(S(=O)(=O)[N-]c2ccccc2S([NH-])(=O)=O)c1

>  <Energy>  (58) 
73.59033207485221

>  <Genealogy>  (58) 
CS(=O)(=O)Nc1ccc(Oc2cccc3ccccc23)c(S(=O)(=O)[N-]c2ccccc2S([NH-])(=O)=O)c1 (protonated)
CS(=O)(=O)Nc1ccc(Oc2cccc3ccccc23)c(S(=O)(=O)[N-]c2ccccc2S([NH-])(=O)=O)c1 (3D coordinates assigned)
CS(=O)(=O)Nc1ccc(Oc2cccc3ccccc23)c(S(=O)(=O)[N-]c2ccccc2S([NH-])(=O)=O)c1 (optimized conformer: 73.59033207485221 kcal/mol)

>  <smiles>  (58) 
CS(=O)(=O)Nc1ccc(Oc2cccc3ccccc23)c(S(=O)(=O)Nc2ccccc2S(N)(=O)=O)c1

>  <score_type>  (58) 
oracle

>  <origin>  (58) 
adg

>  <m_score__min__energy>  (58) 
-14.35

>  <m_primary>  (58) 
energy

$$$$
58:0
     RDKit          3D

 57 59  0  0  0  0  0  0  0  0999 V2000
   63.7720   33.4310   46.7180 C   0  0  0  0  0  0  0  0  0  0  0  0
   62.3360   33.1470   47.1470 C   0  0  0  0  0  0  0  0  0  0  0  0
   62.2030   33.2990   48.5590 O   0  0  0  0  0  0  0  0  0  0  0  0
   61.2410   32.6220   49.3210 C   0  0  0  0  0  0  0  0  0  0  0  0
   61.5570   31.5810   49.9620 O   0  0  0  0  0  0  0  0  0  0  0  0
   59.8080   33.0950   49.2960 C   0  0  2  0  0  0  0  0  0  0  0  0
   58.8980   32.2020   50.1530 C   0  0  0  0  0  0  0  0  0  0  0  0
   59.2760   33.2130   47.9120 N   0  0  0  0  0  0  0  0  0  0  0  0
   58.8680   34.4480   47.4940 C   0  0  0  0  0  0  0  0  0  0  0  0
   58.3160   34.6270   46.2360 C   0  0  0  0  0  0  0  0  0  0  0  0
   58.1800   33.5500   45.3700 C   0  0  0  0  0  0  0  0  0  0  0  0
   57.6150   33.7600   44.2640 O   0  0  0  0  0  0  0  0  0  0  0  0
   58.6460   32.2600   45.7550 C   0  0  0  0  0  0  0  0  0  0  0  0
   58.6230   31.1060   44.9000 C   0  0  0  0  0  0  0  0  0  0  0  0
   58.1480   31.2380   43.4620 C   0  0  0  0  0  0  0  0  0  0  0  0
   59.0240   29.8360   45.4250 C   0  0  0  0  0  0  0  0  0  0  0  0
   59.0230   28.5610   44.5850 C   0  0  0  0  0  0  0  0  0  0  0  0
   57.6380   28.2480   43.9940 C   0  0  0  0  0  0  0  0  0  0  0  0
   56.5230   28.5440   44.9460 C   0  0  0  0  0  0  0  0  0  0  0  0
   56.1470   29.7360   45.1150 O   0  0  0  0  0  0  0  0  0  0  0  0
   55.8780   27.4590   45.6250 N   0  0  0  0  0  0  0  0  0  0  0  0
   56.3950   26.1380   45.8460 C   0  0  0  0  0  0  0  0  0  0  0  0
   55.5540   25.0430   45.5980 C   0  0  0  0  0  0  0  0  0  0  0  0
   56.0190   23.7360   45.7710 C   0  0  0  0  0  0  0  0  0  0  0  0
   57.3370   23.5100   46.1760 C   0  0  0  0  0  0  0  0  0  0  0  0
   57.7900   22.2430   46.3300 F   0  0  0  0  0  0  0  0  0  0  0  0
   58.1920   24.5940   46.4060 C   0  0  0  0  0  0  0  0  0  0  0  0
   57.7270   25.9030   46.2420 C   0  0  0  0  0  0  0  0  0  0  0  0
   59.4600   29.7690   46.7710 C   0  0  0  0  0  0  0  0  0  0  0  0
   59.8300   28.4780   47.4470 C   0  0  0  0  0  0  0  0  0  0  0  0
   59.5220   30.8950   47.5170 N   0  0  0  0  0  0  0  0  0  0  0  0
   59.1570   32.1220   47.0730 C   0  0  0  0  0  0  0  0  0  0  0  0
   64.4033   33.5559   47.6101 H   0  0  0  0  0  0  0  0  0  0  0  0
   64.1484   32.5899   46.1173 H   0  0  0  0  0  0  0  0  0  0  0  0
   63.7999   34.3521   46.1173 H   0  0  0  0  0  0  0  0  0  0  0  0
   61.6597   33.8515   46.6407 H   0  0  0  0  0  0  0  0  0  0  0  0
   62.0776   32.1138   46.8720 H   0  0  0  0  0  0  0  0  0  0  0  0
   59.8087   34.1031   49.7362 H   0  0  0  0  0  0  0  0  0  0  0  0
   59.0937   32.3941   51.2183 H   0  0  0  0  0  0  0  0  0  0  0  0
   57.8453   32.4273   49.9272 H   0  0  0  0  0  0  0  0  0  0  0  0
   59.1034   31.1452   49.9272 H   0  0  0  0  0  0  0  0  0  0  0  0
   58.9793   35.3121   48.1655 H   0  0  0  0  0  0  0  0  0  0  0  0
   57.9837   35.6274   45.9215 H   0  0  0  0  0  0  0  0  0  0  0  0
   57.0882   31.5325   43.4515 H   0  0  0  0  0  0  0  0  0  0  0  0
   58.7465   32.0039   42.9470 H   0  0  0  0  0  0  0  0  0  0  0  0
   58.2656   30.2732   42.9470 H   0  0  0  0  0  0  0  0  0  0  0  0
   59.7400   28.6815   43.7596 H   0  0  0  0  0  0  0  0  0  0  0  0
   59.3025   27.7257   45.2438 H   0  0  0  0  0  0  0  0  0  0  0  0
   57.4970   28.8550   43.0875 H   0  0  0  0  0  0  0  0  0  0  0  0
   57.6076   27.1711   43.7718 H   0  0  0  0  0  0  0  0  0  0  0  0
   54.5198   25.2142   45.2646 H   0  0  0  0  0  0  0  0  0  0  0  0
   55.3467   22.8848   45.5881 H   0  0  0  0  0  0  0  0  0  0  0  0
   59.2322   24.4161   46.7165 H   0  0  0  0  0  0  0  0  0  0  0  0
   58.4031   26.7517   46.4227 H   0  0  0  0  0  0  0  0  0  0  0  0
   59.7918   28.6114   48.5382 H   0  0  0  0  0  0  0  0  0  0  0  0
   59.1211   27.6916   47.1487 H   0  0  0  0  0  0  0  0  0  0  0  0
   60.8479   28.1865   47.1487 H   0  0  0  0  0  0  0  0  0  0  0  0
  1  2  1  0
  2  3  1  0
  3  4  1  0
  4  5  2  0
  4  6  1  0
  6  7  1  0
  6  8  1  0
  8  9  1  0
  9 10  2  0
 10 11  1  0
 11 12  2  0
 11 13  1  0
 13 14  2  0
 14 15  1  0
 14 16  1  0
 16 17  1  0
 17 18  1  0
 18 19  1  0
 19 20  2  0
 19 21  1  0
 21 22  1  0
 22 23  2  0
 23 24  1  0
 24 25  2  0
 25 26  1  0
 25 27  1  0
 27 28  2  0
 16 29  2  0
 29 30  1  0
 29 31  1  0
 31 32  2  0
 32  8  1  0
 32 13  1  0
 28 22  1  0
  1 33  1  0
  1 34  1  0
  1 35  1  0
  2 36  1  0
  2 37  1  0
  6 38  1  1
  7 39  1  0
  7 40  1  0
  7 41  1  0
  9 42  1  0
 10 43  1  0
 15 44  1  0
 15 45  1  0
 15 46  1  0
 17 47  1  0
 17 48  1  0
 18 49  1  0
 18 50  1  0
 23 51  1  0
 24 52  1  0
 27 53  1  0
 28 54  1  0
 30 55  1  0
 30 56  1  0
 30 57  1  0
M  CHG  1  21  -1
M  END
>  <UniqueID>  (59) 
55

>  <SMILES>  (59) 
CCOC(=O)[C@H](C)n1ccc(=O)c2c(C)c(CCC(=O)[N-]c3ccc(F)cc3)c(C)nc21

>  <Energy>  (59) 
73.8312885492695

>  <Genealogy>  (59) 
CCOC(=O)C(C)n1ccc(=O)c2c(C)c(CCC(=O)[N-]c3ccc(F)cc3)c(C)nc21 (protonated)
CCOC(=O)[C@H](C)n1ccc(=O)c2c(C)c(CCC(=O)[N-]c3ccc(F)cc3)c(C)nc21 (chirality)
CCOC(=O)[C@H](C)n1ccc(=O)c2c(C)c(CCC(=O)[N-]c3ccc(F)cc3)c(C)nc21 (3D coordinates assigned)
CCOC(=O)[C@H](C)n1ccc(=O)c2c(C)c(CCC(=O)[N-]c3ccc(F)cc3)c(C)nc21 (optimized conformer: 73.8312885492695 kcal/mol)

>  <smiles>  (59) 
CCOC(=O)C(C)n1ccc(=O)c2c(C)c(CCC(=O)Nc3ccc(F)cc3)c(C)nc21

>  <score_type>  (59) 
oracle

>  <origin>  (59) 
adg

>  <m_score__min__energy>  (59) 
-10.109999999999999

>  <m_primary>  (59) 
energy

$$$$
59:0
     RDKit          3D

 60 62  0  0  0  0  0  0  0  0999 V2000
   59.4690   30.0170   49.1410 C   0  0  0  0  0  0  0  0  0  0  0  0
   60.7620   30.4070   49.8500 C   0  0  0  0  0  0  0  0  0  0  0  0
   61.5070   31.3940   49.0730 N   0  0  0  0  0  0  0  0  0  0  0  0
   62.9170   31.5800   49.2560 C   0  0  0  0  0  0  0  0  0  0  0  0
   63.5540   30.8590   50.0720 O   0  0  0  0  0  0  0  0  0  0  0  0
   63.6390   32.6640   48.5120 C   0  0  0  0  0  0  0  0  0  0  0  0
   62.6820   33.5820   47.8120 C   0  0  0  0  0  0  0  0  0  0  0  0
   62.9000   33.9510   46.6250 O   0  0  0  0  0  0  0  0  0  0  0  0
   61.5500   34.0880   48.5250 N   0  0  0  0  0  0  0  0  0  0  0  0
   60.4910   34.8690   47.9000 C   0  0  0  0  0  0  0  0  0  0  0  0
   59.4150   33.9630   47.3920 C   0  0  0  0  0  0  0  0  0  0  0  0
   58.6080   33.1310   48.1620 C   0  0  0  0  0  0  0  0  0  0  0  0
   57.7120   32.3920   47.4540 N   0  0  0  0  0  0  0  0  0  0  0  0
   57.8220   32.6210   46.1260 C   0  0  0  0  0  0  0  0  0  0  0  0
   57.0350   32.1140   45.2260 N   0  0  0  0  0  0  0  0  0  0  0  0
   57.3700   31.8050   43.8650 C   0  0  0  0  0  0  0  0  0  0  0  0
   57.4750   32.7520   43.0420 O   0  0  0  0  0  0  0  0  0  0  0  0
   57.7460   30.4140   43.4180 C   0  0  0  0  0  0  0  0  0  0  0  0
   57.7550   29.4200   44.5590 C   0  0  0  0  0  0  0  0  0  0  0  0
   58.9140   29.2090   45.3290 C   0  0  0  0  0  0  0  0  0  0  0  0
   58.9320   28.2290   46.3240 C   0  0  0  0  0  0  0  0  0  0  0  0
   57.8050   27.4370   46.5480 C   0  0  0  0  0  0  0  0  0  0  0  0
   56.6480   27.6150   45.7840 C   0  0  0  0  0  0  0  0  0  0  0  0
   55.5400   26.7300   46.0080 N   0  0  0  0  0  0  0  0  0  0  0  0
   55.5710   25.2990   46.0150 C   0  0  0  0  0  0  0  0  0  0  0  0
   54.4900   24.6610   45.9160 O   0  0  0  0  0  0  0  0  0  0  0  0
   56.8150   24.5970   46.0770 N   0  0  0  0  0  0  0  0  0  0  0  0
   57.7200   24.4330   44.9420 C   0  0  0  0  0  0  0  0  0  0  0  0
   58.0600   22.9630   44.7860 C   0  0  0  0  0  0  0  0  0  0  0  0
   56.9270   22.3750   43.9610 C   0  0  0  0  0  0  0  0  0  0  0  0
   56.3790   23.5200   43.1130 C   0  0  0  0  0  0  0  0  0  0  0  0
   57.0220   24.8030   43.6350 C   0  0  0  0  0  0  0  0  0  0  0  0
   56.6360   28.5950   44.7700 C   0  0  0  0  0  0  0  0  0  0  0  0
   59.0160   33.7480   45.7720 S   0  0  0  0  0  0  0  0  0  0  0  0
   58.6967   29.7840   49.8888 H   0  0  0  0  0  0  0  0  0  0  0  0
   59.1296   30.8527   48.5114 H   0  0  0  0  0  0  0  0  0  0  0  0
   59.6483   29.1330   48.5114 H   0  0  0  0  0  0  0  0  0  0  0  0
   60.5182   30.8334   50.8342 H   0  0  0  0  0  0  0  0  0  0  0  0
   61.3848   29.5074   49.9637 H   0  0  0  0  0  0  0  0  0  0  0  0
   61.0090   31.9860   48.3690 H   0  0  0  0  0  0  0  0  0  0  0  0
   64.2383   33.2489   49.2253 H   0  0  0  0  0  0  0  0  0  0  0  0
   64.2819   32.1928   47.7540 H   0  0  0  0  0  0  0  0  0  0  0  0
   60.0640   35.5612   48.6407 H   0  0  0  0  0  0  0  0  0  0  0  0
   60.9119   35.4359   47.0566 H   0  0  0  0  0  0  0  0  0  0  0  0
   58.6884   33.0753   49.2576 H   0  0  0  0  0  0  0  0  0  0  0  0
   57.0197   30.0778   42.6633 H   0  0  0  0  0  0  0  0  0  0  0  0
   58.7653   30.4596   43.0071 H   0  0  0  0  0  0  0  0  0  0  0  0
   59.8107   29.8193   45.1462 H   0  0  0  0  0  0  0  0  0  0  0  0
   59.8364   28.0811   46.9324 H   0  0  0  0  0  0  0  0  0  0  0  0
   57.8273   26.6661   47.3324 H   0  0  0  0  0  0  0  0  0  0  0  0
   58.5992   25.0669   45.1294 H   0  0  0  0  0  0  0  0  0  0  0  0
   59.0202   22.8430   44.2629 H   0  0  0  0  0  0  0  0  0  0  0  0
   58.1628   22.4602   45.7590 H   0  0  0  0  0  0  0  0  0  0  0  0
   57.3044   21.5687   43.3149 H   0  0  0  0  0  0  0  0  0  0  0  0
   56.1459   21.9425   44.6035 H   0  0  0  0  0  0  0  0  0  0  0  0
   56.6419   23.3677   42.0558 H   0  0  0  0  0  0  0  0  0  0  0  0
   55.2824   23.5720   43.1816 H   0  0  0  0  0  0  0  0  0  0  0  0
   57.7534   25.1854   42.9078 H   0  0  0  0  0  0  0  0  0  0  0  0
   56.2706   25.5907   43.7927 H   0  0  0  0  0  0  0  0  0  0  0  0
   55.7434   28.7151   44.1385 H   0  0  0  0  0  0  0  0  0  0  0  0
  1  2  1  0
  2  3  1  0
  3  4  1  0
  4  5  2  0
  4  6  1  0
  6  7  1  0
  7  8  2  0
  7  9  1  0
  9 10  1  0
 10 11  1  0
 11 12  2  0
 12 13  1  0
 13 14  1  0
 14 15  2  3
 15 16  1  0
 16 17  2  0
 16 18  1  0
 18 19  1  0
 19 20  2  0
 20 21  1  0
 21 22  2  0
 22 23  1  0
 23 24  1  0
 24 25  1  0
 25 26  2  0
 25 27  1  0
 27 28  1  0
 28 29  1  0
 29 30  1  0
 30 31  1  0
 31 32  1  0
 23 33  2  0
 14 34  1  0
 34 11  1  0
 33 19  1  0
 32 28  1  0
  1 35  1  0
  1 36  1  0
  1 37  1  0
  2 38  1  0
  2 39  1  0
  3 40  1  0
  6 41  1  0
  6 42  1  0
 10 43  1  0
 10 44  1  0
 12 45  1  0
 18 46  1  0
 18 47  1  0
 20 48  1  0
 21 49  1  0
 22 50  1  0
 28 51  1  0
 29 52  1  0
 29 53  1  0
 30 54  1  0
 30 55  1  0
 31 56  1  0
 31 57  1  0
 32 58  1  0
 32 59  1  0
 33 60  1  0
M  CHG  4   9  -1  13  -1  24  -1  27  -1
M  END
>  <UniqueID>  (60) 
56

>  <SMILES>  (60) 
CCNC(=O)CC(=O)[N-]Cc1c[n-]c(=NC(=O)Cc2cccc([N-]C(=O)[N-]C3CCCC3)c2)s1

>  <Energy>  (60) 
82.42422070973977

>  <Genealogy>  (60) 
CCNC(=O)CC(=O)[N-]Cc1c[n-]c(=NC(=O)Cc2cccc([N-]C(=O)[N-]C3CCCC3)c2)s1 (protonated)
CCNC(=O)CC(=O)[N-]Cc1c[n-]c(=NC(=O)Cc2cccc([N-]C(=O)[N-]C3CCCC3)c2)s1 (3D coordinates assigned)
CCNC(=O)CC(=O)[N-]Cc1c[n-]c(=NC(=O)Cc2cccc([N-]C(=O)[N-]C3CCCC3)c2)s1 (nonaromatic ring conformer: 82.42422070973977 kcal/mol)

>  <smiles>  (60) 
CCNC(=O)CC(=O)NCc1c[nH]c(=NC(=O)Cc2cccc(NC(=O)NC3CCCC3)c2)s1

>  <score_type>  (60) 
oracle

>  <origin>  (60) 
adg

>  <m_score__min__energy>  (60) 
-14.92

>  <m_primary>  (60) 
energy

$$$$
60:0
     RDKit          3D

 54 57  0  0  0  0  0  0  0  0999 V2000
   63.2160   33.8380   46.3750 C   0  0  0  0  0  0  0  0  0  0  0  0
   63.7170   32.6570   47.2010 C   0  0  0  0  0  0  0  0  0  0  0  0
   63.1240   32.6560   48.5000 O   0  0  0  0  0  0  0  0  0  0  0  0
   61.8690   32.1140   48.8270 C   0  0  0  0  0  0  0  0  0  0  0  0
   61.2370   32.5740   49.9900 C   0  0  0  0  0  0  0  0  0  0  0  0
   59.9860   32.0750   50.3620 C   0  0  0  0  0  0  0  0  0  0  0  0
   59.3510   31.1130   49.5740 C   0  0  0  0  0  0  0  0  0  0  0  0
   59.9690   30.6330   48.4080 C   0  0  0  0  0  0  0  0  0  0  0  0
   59.3080   29.6450   47.5910 N   0  0  0  0  0  0  0  0  0  0  0  0
   58.4180   30.0720   46.6460 C   0  0  0  0  0  0  0  0  0  0  0  0
   57.7580   29.1680   45.8070 C   0  0  0  0  0  0  0  0  0  0  0  0
   56.8520   29.7070   44.7710 C   0  0  0  0  0  0  0  0  0  0  0  0
   55.6140   29.5090   44.8740 O   0  0  0  0  0  0  0  0  0  0  0  0
   57.3460   30.4660   43.6630 N   0  0  0  0  0  0  0  0  0  0  0  0
   57.5810   31.9070   43.6890 C   0  0  0  0  0  0  0  0  0  0  0  0
   56.9230   32.5240   44.9240 C   0  0  0  0  0  0  0  0  0  0  0  0
   57.8960   33.4070   45.6670 C   0  0  0  0  0  0  0  0  0  0  0  0
   58.7510   34.2730   44.9620 C   0  0  0  0  0  0  0  0  0  0  0  0
   59.6910   35.0480   45.6510 C   0  0  0  0  0  0  0  0  0  0  0  0
   59.7930   34.9580   47.0420 C   0  0  0  0  0  0  0  0  0  0  0  0
   58.9550   34.0920   47.7490 C   0  0  0  0  0  0  0  0  0  0  0  0
   58.0100   33.3160   47.0660 C   0  0  0  0  0  0  0  0  0  0  0  0
   57.9850   27.7840   45.9730 C   0  0  0  0  0  0  0  0  0  0  0  0
   57.2990   26.8180   45.2050 C   0  0  0  0  0  0  0  0  0  0  0  0
   57.5700   25.4590   45.3660 C   0  0  0  0  0  0  0  0  0  0  0  0
   58.5100   25.0380   46.3040 C   0  0  0  0  0  0  0  0  0  0  0  0
   59.1780   25.9730   47.0970 C   0  0  0  0  0  0  0  0  0  0  0  0
   58.9210   27.3520   46.9460 C   0  0  0  0  0  0  0  0  0  0  0  0
   59.5740   28.3080   47.7510 C   0  0  0  0  0  0  0  0  0  0  0  0
   60.3930   27.9300   48.6370 O   0  0  0  0  0  0  0  0  0  0  0  0
   61.2240   31.1440   48.0330 C   0  0  0  0  0  0  0  0  0  0  0  0
   62.8763   34.6387   47.0485 H   0  0  0  0  0  0  0  0  0  0  0  0
   64.0321   34.2141   45.7405 H   0  0  0  0  0  0  0  0  0  0  0  0
   62.3784   33.5126   45.7405 H   0  0  0  0  0  0  0  0  0  0  0  0
   63.4568   31.7207   46.6855 H   0  0  0  0  0  0  0  0  0  0  0  0
   64.8079   32.7436   47.3126 H   0  0  0  0  0  0  0  0  0  0  0  0
   61.7294   33.3337   50.6148 H   0  0  0  0  0  0  0  0  0  0  0  0
   59.5000   32.4411   51.2784 H   0  0  0  0  0  0  0  0  0  0  0  0
   58.3627   30.7296   49.8678 H   0  0  0  0  0  0  0  0  0  0  0  0
   58.2165   31.1485   46.5430 H   0  0  0  0  0  0  0  0  0  0  0  0
   58.6637   32.0987   43.7195 H   0  0  0  0  0  0  0  0  0  0  0  0
   57.1464   32.3593   42.7854 H   0  0  0  0  0  0  0  0  0  0  0  0
   56.0583   33.1263   44.6086 H   0  0  0  0  0  0  0  0  0  0  0  0
   56.6017   31.7128   45.5939 H   0  0  0  0  0  0  0  0  0  0  0  0
   58.6808   34.3414   43.8664 H   0  0  0  0  0  0  0  0  0  0  0  0
   60.3517   35.7302   45.0959 H   0  0  0  0  0  0  0  0  0  0  0  0
   60.5329   35.5688   47.5800 H   0  0  0  0  0  0  0  0  0  0  0  0
   59.0375   34.0195   48.8435 H   0  0  0  0  0  0  0  0  0  0  0  0
   57.3544   32.6327   47.6258 H   0  0  0  0  0  0  0  0  0  0  0  0
   56.5438   27.1400   44.4729 H   0  0  0  0  0  0  0  0  0  0  0  0
   57.0398   24.7175   44.7503 H   0  0  0  0  0  0  0  0  0  0  0  0
   58.7266   23.9658   46.4202 H   0  0  0  0  0  0  0  0  0  0  0  0
   59.9095   25.6322   47.8445 H   0  0  0  0  0  0  0  0  0  0  0  0
   61.7066   30.7839   47.1124 H   0  0  0  0  0  0  0  0  0  0  0  0
  1  2  1  0
  2  3  1  0
  3  4  1  0
  4  5  2  0
  5  6  1  0
  6  7  2  0
  7  8  1  0
  8  9  1  0
  9 10  1  0
 10 11  2  0
 11 12  1  0
 12 13  2  0
 12 14  1  0
 14 15  1  0
 15 16  1  0
 16 17  1  0
 17 18  2  0
 18 19  1  0
 19 20  2  0
 20 21  1  0
 21 22  2  0
 11 23  1  0
 23 24  2  0
 24 25  1  0
 25 26  2  0
 26 27  1  0
 27 28  2  0
 28 29  1  0
 29 30  2  0
  8 31  2  0
 31  4  1  0
 29  9  1  0
 22 17  1  0
 28 23  1  0
  1 32  1  0
  1 33  1  0
  1 34  1  0
  2 35  1  0
  2 36  1  0
  5 37  1  0
  6 38  1  0
  7 39  1  0
 10 40  1  0
 15 41  1  0
 15 42  1  0
 16 43  1  0
 16 44  1  0
 18 45  1  0
 19 46  1  0
 20 47  1  0
 21 48  1  0
 22 49  1  0
 24 50  1  0
 25 51  1  0
 26 52  1  0
 27 53  1  0
 31 54  1  0
M  CHG  1  14  -1
M  END
>  <UniqueID>  (61) 
57

>  <SMILES>  (61) 
CCOc1cccc(-n2cc(C(=O)[N-]CCc3ccccc3)c3ccccc3c2=O)c1

>  <Energy>  (61) 
71.93560700394953

>  <Genealogy>  (61) 
CCOc1cccc(-n2cc(C(=O)[N-]CCc3ccccc3)c3ccccc3c2=O)c1 (protonated)
CCOc1cccc(-n2cc(C(=O)[N-]CCc3ccccc3)c3ccccc3c2=O)c1 (3D coordinates assigned)
CCOc1cccc(-n2cc(C(=O)[N-]CCc3ccccc3)c3ccccc3c2=O)c1 (optimized conformer: 71.93560700394953 kcal/mol)

>  <smiles>  (61) 
CCOc1cccc(-n2cc(C(=O)NCCc3ccccc3)c3ccccc3c2=O)c1

>  <score_type>  (61) 
oracle

>  <origin>  (61) 
adg

>  <m_score__min__energy>  (61) 
-10.800000000000001

>  <m_primary>  (61) 
energy

$$$$
61:0
     RDKit          3D

 45 47  0  0  0  0  0  0  0  0999 V2000
   60.5645   30.3951   46.5849 H   0  0  0  0  0  0  0  0  0  0  0  0
   59.5730   29.9700   46.8000 C   0  0  0  0  0  0  0  0  0  0  0  0
   59.4300   29.3040   47.9620 C   0  0  0  0  0  0  0  0  0  0  0  0
   59.5750   27.8690   47.9500 C   0  0  0  0  0  0  0  0  0  0  0  0
   59.6920   26.7170   47.9410 N   0  0  0  0  0  0  0  0  0  0  0  0
   59.1710   29.9570   49.2650 C   0  0  0  0  0  0  0  0  0  0  0  0
   58.5440   29.3220   50.1570 O   0  0  0  0  0  0  0  0  0  0  0  0
   59.6980   31.2610   49.5540 N   0  0  0  0  0  0  0  0  0  0  0  0
   60.5210   31.5840   49.0000 H   0  0  0  0  0  0  0  0  0  0  0  0
   59.1760   32.1150   50.5890 C   0  0  0  0  0  0  0  0  0  0  0  0
   57.8960   31.8790   51.1290 C   0  0  0  0  0  0  0  0  0  0  0  0
   57.3002   31.0285   50.7661 H   0  0  0  0  0  0  0  0  0  0  0  0
   57.3770   32.7130   52.1190 C   0  0  0  0  0  0  0  0  0  0  0  0
   56.3773   32.5168   52.5339 H   0  0  0  0  0  0  0  0  0  0  0  0
   58.1240   33.7960   52.5840 C   0  0  0  0  0  0  0  0  0  0  0  0
   57.7160   34.4487   53.3698 H   0  0  0  0  0  0  0  0  0  0  0  0
   59.3890   34.0510   52.0520 C   0  0  0  0  0  0  0  0  0  0  0  0
   59.9754   34.9051   52.4217 H   0  0  0  0  0  0  0  0  0  0  0  0
   59.9170   33.2250   51.0490 C   0  0  0  0  0  0  0  0  0  0  0  0
   61.5550   33.6050   50.4160 S   0  0  0  0  0  0  0  0  0  0  0  0
   60.8960   34.2880   48.9250 N   0  0  0  0  0  0  0  0  0  0  0  0
   60.6810   33.5030   47.7500 C   0  0  0  0  0  0  0  0  0  0  0  0
   61.5330   32.6370   47.4130 O   0  0  0  0  0  0  0  0  0  0  0  0
   59.4810   33.7260   46.9200 C   0  0  0  0  0  0  0  0  0  0  0  0
   58.2210   33.2690   47.3490 C   0  0  0  0  0  0  0  0  0  0  0  0
   58.1255   32.7579   48.3184 H   0  0  0  0  0  0  0  0  0  0  0  0
   57.0900   33.4610   46.5500 C   0  0  0  0  0  0  0  0  0  0  0  0
   56.1095   33.0964   46.8902 H   0  0  0  0  0  0  0  0  0  0  0  0
   57.2020   34.1140   45.3220 C   0  0  0  0  0  0  0  0  0  0  0  0
   56.3105   34.2631   44.6951 H   0  0  0  0  0  0  0  0  0  0  0  0
   58.4450   34.5780   44.8890 C   0  0  0  0  0  0  0  0  0  0  0  0
   58.5313   35.0950   43.9219 H   0  0  0  0  0  0  0  0  0  0  0  0
   59.5810   34.3870   45.6820 C   0  0  0  0  0  0  0  0  0  0  0  0
   60.5580   34.7555   45.3360 H   0  0  0  0  0  0  0  0  0  0  0  0
   58.5140   30.1810   45.7860 C   0  0  0  0  0  0  0  0  0  0  0  0
   58.7570   31.0660   44.7240 C   0  0  0  0  0  0  0  0  0  0  0  0
   59.7087   31.6157   44.6771 H   0  0  0  0  0  0  0  0  0  0  0  0
   57.7960   31.2530   43.7250 C   0  0  0  0  0  0  0  0  0  0  0  0
   57.9969   31.9435   42.8926 H   0  0  0  0  0  0  0  0  0  0  0  0
   56.5820   30.5650   43.7820 C   0  0  0  0  0  0  0  0  0  0  0  0
   55.8147   30.7377   43.0130 H   0  0  0  0  0  0  0  0  0  0  0  0
   56.3430   29.6570   44.8170 C   0  0  0  0  0  0  0  0  0  0  0  0
   55.1440   28.9550   44.8610 O   0  0  0  0  0  0  0  0  0  0  0  0
   57.3130   29.4470   45.8030 C   0  0  0  0  0  0  0  0  0  0  0  0
   57.1363   28.7047   46.5954 H   0  0  0  0  0  0  0  0  0  0  0  0
  1  2  1  0
  2  3  2  0
  3  4  1  0
  4  5  3  0
  3  6  1  0
  6  7  2  0
  6  8  1  0
  8  9  1  0
  8 10  1  0
 10 11  2  0
 11 12  1  0
 11 13  1  0
 13 14  1  0
 13 15  2  0
 15 16  1  0
 15 17  1  0
 17 18  1  0
 17 19  2  0
 19 20  1  0
 20 21  1  0
 21 22  1  0
 22 23  2  0
 22 24  1  0
 24 25  2  0
 25 26  1  0
 25 27  1  0
 27 28  1  0
 27 29  2  0
 29 30  1  0
 29 31  1  0
 31 32  1  0
 31 33  2  0
 33 34  1  0
  2 35  1  0
 35 36  2  0
 36 37  1  0
 36 38  1  0
 38 39  1  0
 38 40  2  0
 40 41  1  0
 40 42  1  0
 42 43  1  0
 42 44  2  0
 44 45  1  0
 19 10  1  0
 33 24  1  0
 44 35  1  0
M  CHG  2  21  -1  43  -1
M  END
>  <UniqueID>  (62) 
58

>  <SMILES>  (62) 
N#C/C(=C/c1cccc([O-])c1)C(=O)Nc1ccccc1S[N-]C(=O)c1ccccc1

>  <Energy>  (62) 
53.14230535345218

>  <Genealogy>  (62) 
N#CC(=Cc1cccc([O-])c1)C(=O)Nc1ccccc1S[N-]C(=O)c1ccccc1 (protonated)
N#C/C(=C/c1cccc([O-])c1)C(=O)Nc1ccccc1S[N-]C(=O)c1ccccc1 (cis-trans isomerization)
N#C/C(=C/c1cccc([O-])c1)C(=O)Nc1ccccc1S[N-]C(=O)c1ccccc1 (3D coordinates assigned)
N#C/C(=C/c1cccc([O-])c1)C(=O)Nc1ccccc1S[N-]C(=O)c1ccccc1 (optimized conformer: 53.14230535345218 kcal/mol)

>  <smiles>  (62) 
N#CC(=Cc1cccc(O)c1)C(=O)Nc1ccccc1SNC(=O)c1ccccc1

>  <score_type>  (62) 
oracle

>  <origin>  (62) 
adg

>  <m_score__min__energy>  (62) 
-13.449999999999999

>  <m_primary>  (62) 
energy

$$$$
62:0
     RDKit          3D

 45 48  0  0  0  0  0  0  0  0999 V2000
   57.8420   31.8390   43.2090 C   0  0  0  0  0  0  0  0  0  0  0  0
   56.8240   31.2300   44.1770 C   0  0  2  0  0  0  0  0  0  0  0  0
   56.5010   32.1700   45.2450 N   0  0  0  0  0  0  0  0  0  0  0  0
   57.0640   33.4750   45.4110 C   0  0  0  0  0  0  0  0  0  0  0  0
   57.0410   34.3070   44.4650 O   0  0  0  0  0  0  0  0  0  0  0  0
   57.6380   33.8670   46.7410 C   0  0  0  0  0  0  0  0  0  0  0  0
   58.9240   33.1910   46.9590 N   0  0  0  0  0  0  0  0  0  0  0  0
   58.9120   32.0130   47.5890 N   0  0  0  0  0  0  0  0  0  0  0  0
   60.0490   31.3580   47.9340 C   0  0  0  0  0  0  0  0  0  0  0  0
   59.9650   30.2450   48.5190 O   0  0  0  0  0  0  0  0  0  0  0  0
   61.2940   31.9350   47.6500 C   0  0  0  0  0  0  0  0  0  0  0  0
   62.5010   31.3120   48.0200 C   0  0  0  0  0  0  0  0  0  0  0  0
   63.7240   31.9270   47.7420 C   0  0  0  0  0  0  0  0  0  0  0  0
   63.7570   33.1610   47.0920 C   0  0  0  0  0  0  0  0  0  0  0  0
   62.5670   33.7890   46.7140 C   0  0  0  0  0  0  0  0  0  0  0  0
   61.3260   33.1820   46.9880 C   0  0  0  0  0  0  0  0  0  0  0  0
   60.1120   33.7990   46.6390 C   0  0  0  0  0  0  0  0  0  0  0  0
   60.1150   34.9170   46.0530 O   0  0  0  0  0  0  0  0  0  0  0  0
   57.3710   29.9540   44.7890 C   0  0  0  0  0  0  0  0  0  0  0  0
   58.7480   29.8520   45.0470 C   0  0  0  0  0  0  0  0  0  0  0  0
   59.2880   28.6850   45.5900 C   0  0  0  0  0  0  0  0  0  0  0  0
   58.4610   27.5960   45.8890 C   0  0  0  0  0  0  0  0  0  0  0  0
   59.0050   26.4160   46.4220 C   0  0  0  0  0  0  0  0  0  0  0  0
   58.1780   25.3300   46.7140 C   0  0  0  0  0  0  0  0  0  0  0  0
   56.8030   25.4100   46.4770 C   0  0  0  0  0  0  0  0  0  0  0  0
   56.2480   26.5790   45.9490 C   0  0  0  0  0  0  0  0  0  0  0  0
   57.0670   27.6830   45.6510 C   0  0  0  0  0  0  0  0  0  0  0  0
   56.5260   28.8680   45.1150 C   0  0  0  0  0  0  0  0  0  0  0  0
   55.1510   28.9650   44.9070 O   0  0  0  0  0  0  0  0  0  0  0  0
   58.6485   32.3215   43.7807 H   0  0  0  0  0  0  0  0  0  0  0  0
   58.2655   31.0458   42.5754 H   0  0  0  0  0  0  0  0  0  0  0  0
   57.3434   32.5873   42.5754 H   0  0  0  0  0  0  0  0  0  0  0  0
   55.9118   31.0019   43.6061 H   0  0  0  0  0  0  0  0  0  0  0  0
   57.7918   34.9560   46.7634 H   0  0  0  0  0  0  0  0  0  0  0  0
   56.9376   33.5696   47.5353 H   0  0  0  0  0  0  0  0  0  0  0  0
   62.4810   30.3375   48.5298 H   0  0  0  0  0  0  0  0  0  0  0  0
   64.6638   31.4369   48.0364 H   0  0  0  0  0  0  0  0  0  0  0  0
   64.7228   33.6413   46.8763 H   0  0  0  0  0  0  0  0  0  0  0  0
   62.5998   34.7612   46.2005 H   0  0  0  0  0  0  0  0  0  0  0  0
   59.4084   30.7015   44.8185 H   0  0  0  0  0  0  0  0  0  0  0  0
   60.3689   28.6208   45.7839 H   0  0  0  0  0  0  0  0  0  0  0  0
   60.0866   26.3473   46.6100 H   0  0  0  0  0  0  0  0  0  0  0  0
   58.6098   24.4086   47.1318 H   0  0  0  0  0  0  0  0  0  0  0  0
   56.1559   24.5506   46.7066 H   0  0  0  0  0  0  0  0  0  0  0  0
   55.1649   26.6360   45.7655 H   0  0  0  0  0  0  0  0  0  0  0  0
  1  2  1  0
  2  3  1  0
  3  4  1  0
  4  5  2  0
  4  6  1  0
  6  7  1  0
  7  8  1  0
  8  9  1  0
  9 10  2  0
  9 11  1  0
 11 12  2  0
 12 13  1  0
 13 14  2  0
 14 15  1  0
 15 16  2  0
 16 17  1  0
 17 18  2  0
  2 19  1  0
 19 20  2  0
 20 21  1  0
 21 22  2  0
 22 23  1  0
 23 24  2  0
 24 25  1  0
 25 26  2  0
 26 27  1  0
 27 28  2  0
 28 29  1  0
 17  7  1  0
 28 19  1  0
 16 11  1  0
 27 22  1  0
  1 30  1  0
  1 31  1  0
  1 32  1  0
  2 33  1  6
  6 34  1  0
  6 35  1  0
 12 36  1  0
 13 37  1  0
 14 38  1  0
 15 39  1  0
 20 40  1  0
 21 41  1  0
 23 42  1  0
 24 43  1  0
 25 44  1  0
 26 45  1  0
M  CHG  3   3  -1   8  -1  29  -1
M  END
>  <UniqueID>  (63) 
59

>  <SMILES>  (63) 
C[C@H]([N-]C(=O)Cn1[n-]c(=O)c2ccccc2c1=O)c1ccc2ccccc2c1[O-]

>  <Energy>  (63) 
56.10509273066364

>  <Genealogy>  (63) 
CC([N-]C(=O)Cn1[n-]c(=O)c2ccccc2c1=O)c1ccc2ccccc2c1[O-] (protonated)
C[C@H]([N-]C(=O)Cn1[n-]c(=O)c2ccccc2c1=O)c1ccc2ccccc2c1[O-] (chirality)
C[C@H]([N-]C(=O)Cn1[n-]c(=O)c2ccccc2c1=O)c1ccc2ccccc2c1[O-] (3D coordinates assigned)
C[C@H]([N-]C(=O)Cn1[n-]c(=O)c2ccccc2c1=O)c1ccc2ccccc2c1[O-] (optimized conformer: 56.10509273066364 kcal/mol)

>  <smiles>  (63) 
CC(NC(=O)Cn1[nH]c(=O)c2ccccc2c1=O)c1ccc2ccccc2c1O

>  <score_type>  (63) 
oracle

>  <origin>  (63) 
adg

>  <m_score__min__energy>  (63) 
-15.81

>  <m_primary>  (63) 
energy

$$$$
63:0
     RDKit          3D

 39 41  0  0  0  0  0  0  0  0999 V2000
   60.3340   28.8030   44.8730 C   0  0  0  0  0  0  0  0  0  0  0  0
   58.8920   29.1700   45.2520 C   0  0  1  0  0  0  0  0  0  0  0  0
   57.9960   29.1900   43.9940 C   0  0  0  0  0  0  0  0  0  0  0  0
   56.9620   30.6500   43.8580 S   0  0  0  0  0  0  0  0  0  0  0  0
   55.6400   30.3780   44.5200 O   0  0  0  0  0  0  0  0  0  0  0  0
   56.7120   30.9730   42.4110 O   0  0  0  0  0  0  0  0  0  0  0  0
   57.7260   32.0130   44.6750 C   0  0  0  0  0  0  0  0  0  0  0  0
   57.7900   32.0700   46.0760 C   0  0  0  0  0  0  0  0  0  0  0  0
   58.3750   33.1720   46.7070 C   0  0  0  0  0  0  0  0  0  0  0  0
   58.9050   34.2180   45.9450 C   0  0  0  0  0  0  0  0  0  0  0  0
   59.4680   35.2870   46.5590 F   0  0  0  0  0  0  0  0  0  0  0  0
   58.8570   34.1570   44.5490 C   0  0  0  0  0  0  0  0  0  0  0  0
   58.2730   33.0560   43.9160 C   0  0  0  0  0  0  0  0  0  0  0  0
   58.3760   28.2890   46.3760 C   0  0  0  0  0  0  0  0  0  0  0  0
   59.2050   27.8040   47.1910 O   0  0  0  0  0  0  0  0  0  0  0  0
   57.0100   27.8550   46.4580 N   0  0  0  0  0  0  0  0  0  0  0  0
   56.5490   26.7150   46.0430 C   0  0  0  0  0  0  0  0  0  0  0  0
   55.2350   26.3800   46.0880 N   0  0  0  0  0  0  0  0  0  0  0  0
   55.2390   25.1290   45.6070 C   0  0  0  0  0  0  0  0  0  0  0  0
   54.1510   24.2790   45.4280 C   0  0  0  0  0  0  0  0  0  0  0  0
   54.4030   22.9950   44.9100 C   0  0  0  0  0  0  0  0  0  0  0  0
   55.7230   22.6000   44.5900 C   0  0  0  0  0  0  0  0  0  0  0  0
   56.7990   23.4880   44.7850 C   0  0  0  0  0  0  0  0  0  0  0  0
   56.5110   24.7500   45.2980 C   0  0  0  0  0  0  0  0  0  0  0  0
   57.3710   25.7430   45.5700 N   0  0  0  0  0  0  0  0  0  0  0  0
   60.9264   28.6522   45.7875 H   0  0  0  0  0  0  0  0  0  0  0  0
   60.3328   27.8765   44.2800 H   0  0  0  0  0  0  0  0  0  0  0  0
   60.7758   29.6173   44.2800 H   0  0  0  0  0  0  0  0  0  0  0  0
   58.8676   30.1917   45.6589 H   0  0  0  0  0  0  0  0  0  0  0  0
   58.6443   29.1414   43.1067 H   0  0  0  0  0  0  0  0  0  0  0  0
   57.3190   28.3265   44.0716 H   0  0  0  0  0  0  0  0  0  0  0  0
   57.3793   31.2464   46.6784 H   0  0  0  0  0  0  0  0  0  0  0  0
   58.4185   33.2163   47.8052 H   0  0  0  0  0  0  0  0  0  0  0  0
   59.2792   34.9761   43.9483 H   0  0  0  0  0  0  0  0  0  0  0  0
   58.2427   33.0082   42.8175 H   0  0  0  0  0  0  0  0  0  0  0  0
   53.1301   24.5998   45.6826 H   0  0  0  0  0  0  0  0  0  0  0  0
   53.5692   22.2949   44.7531 H   0  0  0  0  0  0  0  0  0  0  0  0
   55.9103   21.5939   44.1867 H   0  0  0  0  0  0  0  0  0  0  0  0
   57.8306   23.1947   44.5406 H   0  0  0  0  0  0  0  0  0  0  0  0
  1  2  1  0
  2  3  1  0
  3  4  1  0
  4  5  2  0
  4  6  2  0
  4  7  1  0
  7  8  2  0
  8  9  1  0
  9 10  2  0
 10 11  1  0
 10 12  1  0
 12 13  2  0
  2 14  1  0
 14 15  2  0
 14 16  1  0
 16 17  2  3
 17 18  1  0
 18 19  1  0
 19 20  2  0
 20 21  1  0
 21 22  2  0
 22 23  1  0
 23 24  2  0
 24 25  1  0
 13  7  1  0
 25 17  1  0
 24 19  1  0
  1 26  1  0
  1 27  1  0
  1 28  1  0
  2 29  1  1
  3 30  1  0
  3 31  1  0
  8 32  1  0
  9 33  1  0
 12 34  1  0
 13 35  1  0
 20 36  1  0
 21 37  1  0
 22 38  1  0
 23 39  1  0
M  CHG  2  18  -1  25  -1
M  END
>  <UniqueID>  (64) 
60

>  <SMILES>  (64) 
C[C@@H](CS(=O)(=O)c1ccc(F)cc1)C(=O)N=c1[n-]c2ccccc2[n-]1

>  <Energy>  (64) 
78.15700391272543

>  <Genealogy>  (64) 
CC(CS(=O)(=O)c1ccc(F)cc1)C(=O)N=c1[n-]c2ccccc2[n-]1 (protonated)
C[C@@H](CS(=O)(=O)c1ccc(F)cc1)C(=O)N=c1[n-]c2ccccc2[n-]1 (chirality)
C[C@@H](CS(=O)(=O)c1ccc(F)cc1)C(=O)N=c1[n-]c2ccccc2[n-]1 (3D coordinates assigned)
C[C@@H](CS(=O)(=O)c1ccc(F)cc1)C(=O)N=c1[n-]c2ccccc2[n-]1 (optimized conformer: 78.15700391272543 kcal/mol)

>  <smiles>  (64) 
CC(CS(=O)(=O)c1ccc(F)cc1)C(=O)N=c1[nH]c2ccccc2[nH]1

>  <score_type>  (64) 
oracle

>  <origin>  (64) 
adg

>  <m_score__min__energy>  (64) 
-12.529999999999999

>  <m_primary>  (64) 
energy

$$$$
64:0
     RDKit          3D

 49 52  0  0  0  0  0  0  0  0999 V2000
   58.1520   27.1340   43.0580 C   0  0  0  0  0  0  0  0  0  0  0  0
   57.4350   27.8470   44.2120 C   0  0  1  0  0  0  0  0  0  0  0  0
   57.0380   26.8540   45.2750 C   0  0  0  0  0  0  0  0  0  0  0  0
   56.0190   27.0710   45.9840 O   0  0  0  0  0  0  0  0  0  0  0  0
   57.7450   25.6190   45.4180 N   0  0  0  0  0  0  0  0  0  0  0  0
   57.2980   24.3580   44.8960 C   0  0  0  0  0  0  0  0  0  0  0  0
   57.1780   24.1600   43.5060 C   0  0  0  0  0  0  0  0  0  0  0  0
   56.6630   22.9630   43.0050 C   0  0  0  0  0  0  0  0  0  0  0  0
   56.2630   21.9530   43.8790 C   0  0  0  0  0  0  0  0  0  0  0  0
   56.3910   22.1290   45.2580 C   0  0  0  0  0  0  0  0  0  0  0  0
   56.9290   23.3180   45.7810 C   0  0  0  0  0  0  0  0  0  0  0  0
   57.0560   23.4590   47.2520 C   0  0  0  0  0  0  0  0  0  0  0  0
   56.9430   24.7360   47.8870 N   0  0  0  0  0  0  0  0  0  0  0  0
   57.3080   22.4430   47.9550 O   0  0  0  0  0  0  0  0  0  0  0  0
   58.2750   28.9080   44.7880 N   0  0  0  0  0  0  0  0  0  0  0  0
   59.4780   28.6220   45.3150 N   0  0  0  0  0  0  0  0  0  0  0  0
   60.2390   29.5470   45.9270 N   0  0  0  0  0  0  0  0  0  0  0  0
   59.8360   30.8430   46.0670 C   0  0  0  0  0  0  0  0  0  0  0  0
   58.6100   31.1740   45.5350 C   0  0  0  0  0  0  0  0  0  0  0  0
   57.8130   32.2900   45.4940 C   0  0  0  0  0  0  0  0  0  0  0  0
   58.1950   33.8980   46.1900 S   0  0  0  0  0  0  0  0  0  0  0  0
   58.8310   33.2300   47.7660 C   0  0  0  0  0  0  0  0  0  0  0  0
   60.3320   33.3210   47.8130 C   0  0  0  0  0  0  0  0  0  0  0  0
   61.0250   32.9220   48.9660 C   0  0  0  0  0  0  0  0  0  0  0  0
   62.4220   32.9780   49.0030 C   0  0  0  0  0  0  0  0  0  0  0  0
   63.1370   33.4240   47.8870 C   0  0  0  0  0  0  0  0  0  0  0  0
   64.4900   33.4690   47.9220 F   0  0  0  0  0  0  0  0  0  0  0  0
   62.4540   33.8160   46.7340 C   0  0  0  0  0  0  0  0  0  0  0  0
   61.0570   33.7640   46.6940 C   0  0  0  0  0  0  0  0  0  0  0  0
   56.6480   31.9820   44.8680 N   0  0  0  0  0  0  0  0  0  0  0  0
   56.6540   30.7000   44.5050 N   0  0  0  0  0  0  0  0  0  0  0  0
   57.8360   30.1870   44.8920 C   0  0  0  0  0  0  0  0  0  0  0  0
   58.8764   26.4136   43.4657 H   0  0  0  0  0  0  0  0  0  0  0  0
   57.4135   26.6018   42.4405 H   0  0  0  0  0  0  0  0  0  0  0  0
   58.6801   27.8755   42.4405 H   0  0  0  0  0  0  0  0  0  0  0  0
   56.5266   28.3179   43.8083 H   0  0  0  0  0  0  0  0  0  0  0  0
   57.4920   24.9533   42.8116 H   0  0  0  0  0  0  0  0  0  0  0  0
   56.5726   22.8164   41.9186 H   0  0  0  0  0  0  0  0  0  0  0  0
   55.8459   21.0160   43.4814 H   0  0  0  0  0  0  0  0  0  0  0  0
   56.0680   21.3301   45.9416 H   0  0  0  0  0  0  0  0  0  0  0  0
   56.9090   25.6190   47.3250 H   0  0  0  0  0  0  0  0  0  0  0  0
   57.0010   24.8070   48.9290 H   0  0  0  0  0  0  0  0  0  0  0  0
   60.4611   31.5882   46.5807 H   0  0  0  0  0  0  0  0  0  0  0  0
   58.4076   33.8080   48.6006 H   0  0  0  0  0  0  0  0  0  0  0  0
   58.5373   32.1730   47.8471 H   0  0  0  0  0  0  0  0  0  0  0  0
   60.4675   32.5638   49.8440 H   0  0  0  0  0  0  0  0  0  0  0  0
   62.9596   32.6705   49.9121 H   0  0  0  0  0  0  0  0  0  0  0  0
   63.0157   34.1664   45.8555 H   0  0  0  0  0  0  0  0  0  0  0  0
   60.5235   34.0713   45.7824 H   0  0  0  0  0  0  0  0  0  0  0  0
  1  2  1  0
  2  3  1  0
  3  4  2  0
  3  5  1  0
  5  6  1  0
  6  7  2  0
  7  8  1  0
  8  9  2  0
  9 10  1  0
 10 11  2  0
 11 12  1  0
 12 13  1  0
 12 14  2  0
  2 15  1  0
 15 16  1  0
 16 17  2  0
 17 18  1  0
 18 19  2  0
 19 20  1  0
 20 21  1  0
 21 22  1  0
 22 23  1  0
 23 24  2  0
 24 25  1  0
 25 26  2  0
 26 27  1  0
 26 28  1  0
 28 29  2  0
 20 30  2  0
 30 31  1  0
 31 32  2  0
 11  6  1  0
 32 15  1  0
 32 19  1  0
 29 23  1  0
  1 33  1  0
  1 34  1  0
  1 35  1  0
  2 36  1  6
  7 37  1  0
  8 38  1  0
  9 39  1  0
 10 40  1  0
 13 41  1  0
 13 42  1  0
 18 43  1  0
 22 44  1  0
 22 45  1  0
 24 46  1  0
 25 47  1  0
 28 48  1  0
 29 49  1  0
M  CHG  1   5  -1
M  END
>  <UniqueID>  (65) 
61

>  <SMILES>  (65) 
C[C@@H](C(=O)[N-]c1ccccc1C(N)=O)n1nncc2c(SCc3ccc(F)cc3)nnc1-2

>  <Energy>  (65) 
99.56796088400694

>  <Genealogy>  (65) 
CC(C(=O)[N-]c1ccccc1C(N)=O)n1nncc2c(SCc3ccc(F)cc3)nnc1-2 (protonated)
C[C@@H](C(=O)[N-]c1ccccc1C(N)=O)n1nncc2c(SCc3ccc(F)cc3)nnc1-2 (chirality)
C[C@@H](C(=O)[N-]c1ccccc1C(N)=O)n1nncc2c(SCc3ccc(F)cc3)nnc1-2 (3D coordinates assigned)
C[C@@H](C(=O)[N-]c1ccccc1C(N)=O)n1nncc2c(SCc3ccc(F)cc3)nnc1-2 (optimized conformer: 99.56796088400694 kcal/mol)

>  <smiles>  (65) 
CC(C(=O)Nc1ccccc1C(N)=O)n1nncc2c(SCc3ccc(F)cc3)nnc1-2

>  <score_type>  (65) 
oracle

>  <origin>  (65) 
adg

>  <m_score__min__energy>  (65) 
-11.49

>  <m_primary>  (65) 
energy

$$$$
65:0
     RDKit          3D

 28 29  0  0  1  0  0  0  0  0999 V2000
   57.5830   28.7530   43.7650 N   0  0  0  0  0  0  0  0  0  0  0  0
   56.5900   30.1530   43.9660 S   0  0  0  0  0  0  0  0  0  0  0  0
   55.3440   29.7160   44.6890 O   0  0  0  0  0  0  0  0  0  0  0  0
   56.2700   30.7420   42.6090 O   0  0  0  0  0  0  0  0  0  0  0  0
   57.4570   31.3920   44.8470 C   0  0  0  0  0  0  0  0  0  0  0  0
   58.1840   31.0130   45.9370 C   0  0  0  0  0  0  0  0  0  0  0  0
   58.8830   31.9430   46.6630 C   0  0  0  0  0  0  0  0  0  0  0  0
   58.8850   33.3020   46.3300 C   0  0  0  0  0  0  0  0  0  0  0  0
   59.6360   34.1920   47.1390 N   0  0  0  0  0  0  0  0  0  0  0  0
   60.7940   34.4940   46.7130 N   0  0  0  0  0  0  0  0  0  0  0  0
   61.8600   33.7160   47.2380 C   0  0  0  0  0  0  0  0  0  0  0  0
   61.8340   32.9500   48.4080 C   0  0  0  0  0  0  0  0  0  0  0  0
   60.7650   32.7920   49.2940 O   0  0  0  0  0  0  0  0  0  0  0  0
   63.0270   32.3530   48.5850 N   0  0  0  0  0  0  0  0  0  0  0  0
   63.8060   32.7120   47.5730 N   0  0  0  0  0  0  0  0  0  0  0  0
   63.1350   33.5350   46.7400 C   0  0  0  0  0  0  0  0  0  0  0  0
   63.6010   34.0380   45.7000 O   0  0  0  0  0  0  0  0  0  0  0  0
   58.1540   33.6640   45.2400 C   0  0  0  0  0  0  0  0  0  0  0  0
   57.4430   32.7180   44.5000 C   0  0  0  0  0  0  0  0  0  0  0  0
   57.0170   27.8890   43.6270 H   0  0  0  0  0  0  0  0  0  0  0  0
   58.2720   28.8360   42.9930 H   0  0  0  0  0  0  0  0  0  0  0  0
   58.2098   29.9546   46.2356 H   0  0  0  0  0  0  0  0  0  0  0  0
   59.4618   31.6092   47.5368 H   0  0  0  0  0  0  0  0  0  0  0  0
   59.8780   33.2620   49.0780 H   0  0  0  0  0  0  0  0  0  0  0  0
   63.2870   31.7160   49.3880 H   0  0  0  0  0  0  0  0  0  0  0  0
   64.7950   32.3620   47.5000 H   0  0  0  0  0  0  0  0  0  0  0  0
   58.1232   34.7210   44.9371 H   0  0  0  0  0  0  0  0  0  0  0  0
   56.8619   33.0418   43.6240 H   0  0  0  0  0  0  0  0  0  0  0  0
  1  2  1  0
  2  3  2  0
  2  4  2  0
  2  5  1  0
  5  6  2  0
  6  7  1  0
  7  8  2  0
  8  9  1  0
  9 10  2  0
 10 11  1  0
 11 12  2  0
 12 13  1  0
 12 14  1  0
 14 15  1  0
 15 16  1  0
 16 17  2  0
  8 18  1  0
 18 19  2  0
 19  5  1  0
 16 11  1  0
  1 20  1  0
  1 21  1  0
  6 22  1  0
  7 23  1  0
 13 24  1  0
 14 25  1  0
 15 26  1  0
 18 27  1  0
 19 28  1  0
M  END
>  <smiles>  (66) 
NS(=O)(=O)c1ccc(N=Nc2c(O)[nH][nH]c2=O)cc1

>  <score_type>  (66) 
oracle

>  <origin>  (66) 
adg

>  <m_score__min__energy>  (66) 
-7.9900000000000002

>  <m_primary>  (66) 
energy

$$$$
66:0
     RDKit          3D

 50 53  0  0  0  0  0  0  0  0999 V2000
   50.2860   32.3360   50.8980 H   0  0  0  0  0  0  0  0  0  0  0  0
   51.2030   32.2840   51.3960 N   0  0  0  0  0  0  0  0  0  0  0  0
   51.6220   30.6110   51.5140 S   0  0  0  0  0  0  0  0  0  0  0  0
   50.6400   29.9080   52.4080 O   0  0  0  0  0  0  0  0  0  0  0  0
   51.5660   29.9890   50.1480 O   0  0  0  0  0  0  0  0  0  0  0  0
   53.2440   30.4600   52.1830 C   0  0  0  0  0  0  0  0  0  0  0  0
   54.3150   31.1760   51.6300 C   0  0  0  0  0  0  0  0  0  0  0  0
   54.1502   31.8178   50.7519 H   0  0  0  0  0  0  0  0  0  0  0  0
   55.5920   31.0770   52.1910 C   0  0  0  0  0  0  0  0  0  0  0  0
   56.4318   31.6251   51.7390 H   0  0  0  0  0  0  0  0  0  0  0  0
   55.8080   30.2840   53.3250 C   0  0  0  0  0  0  0  0  0  0  0  0
   57.1270   30.2300   53.8970 N   0  0  0  0  0  0  0  0  0  0  0  0
   58.2320   30.0260   53.2390 C   0  0  0  0  0  0  0  0  0  0  0  0
   58.2350   29.9590   51.8800 N   0  0  0  0  0  0  0  0  0  0  0  0
   59.3690   29.7090   51.1730 C   0  0  0  0  0  0  0  0  0  0  0  0
   59.2930   29.6560   49.6940 C   0  0  0  0  0  0  0  0  0  0  0  0
   59.6310   28.4910   48.9820 C   0  0  0  0  0  0  0  0  0  0  0  0
   60.0209   27.6146   49.5204 H   0  0  0  0  0  0  0  0  0  0  0  0
   59.4740   28.4410   47.5930 C   0  0  0  0  0  0  0  0  0  0  0  0
   59.7452   27.5254   47.0470 H   0  0  0  0  0  0  0  0  0  0  0  0
   58.9740   29.5470   46.8890 C   0  0  0  0  0  0  0  0  0  0  0  0
   58.7620   29.4440   45.4700 N   0  0  0  0  0  0  0  0  0  0  0  0
   59.4850   29.8260   44.8200 H   0  0  0  0  0  0  0  0  0  0  0  0
   57.4600   28.5400   44.7620 S   0  0  0  0  0  0  0  0  0  0  0  0
   56.1590   29.1910   45.1400 O   0  0  0  0  0  0  0  0  0  0  0  0
   57.6010   28.5560   43.2660 O   0  0  0  0  0  0  0  0  0  0  0  0
   57.5160   26.8640   45.3180 C   0  0  0  0  0  0  0  0  0  0  0  0
   58.7240   26.1540   45.2430 C   0  0  0  0  0  0  0  0  0  0  0  0
   59.6141   26.6329   44.8091 H   0  0  0  0  0  0  0  0  0  0  0  0
   58.8020   24.8410   45.7170 C   0  0  0  0  0  0  0  0  0  0  0  0
   59.7537   24.2923   45.6607 H   0  0  0  0  0  0  0  0  0  0  0  0
   57.6730   24.2250   46.2620 C   0  0  0  0  0  0  0  0  0  0  0  0
   57.7369   23.1936   46.6390 H   0  0  0  0  0  0  0  0  0  0  0  0
   56.4620   24.9200   46.3280 C   0  0  0  0  0  0  0  0  0  0  0  0
   55.5723   24.4322   46.7529 H   0  0  0  0  0  0  0  0  0  0  0  0
   56.3780   26.2350   45.8550 C   0  0  0  0  0  0  0  0  0  0  0  0
   55.1890   26.8840   45.9260 F   0  0  0  0  0  0  0  0  0  0  0  0
   58.6730   30.7240   47.5970 C   0  0  0  0  0  0  0  0  0  0  0  0
   58.3200   31.6130   47.0538 H   0  0  0  0  0  0  0  0  0  0  0  0
   58.8190   30.7720   48.9840 C   0  0  0  0  0  0  0  0  0  0  0  0
   58.5603   31.6930   49.5270 H   0  0  0  0  0  0  0  0  0  0  0  0
   60.5700   29.5110   51.8690 C   0  0  0  0  0  0  0  0  0  0  0  0
   61.5062   29.3088   51.3280 H   0  0  0  0  0  0  0  0  0  0  0  0
   60.5520   29.5760   53.2630 C   0  0  0  0  0  0  0  0  0  0  0  0
   61.4814   29.4245   53.8316 H   0  0  0  0  0  0  0  0  0  0  0  0
   59.3890   29.8260   53.9190 N   0  0  0  0  0  0  0  0  0  0  0  0
   54.7410   29.5340   53.8520 C   0  0  0  0  0  0  0  0  0  0  0  0
   54.9119   28.8671   54.7099 H   0  0  0  0  0  0  0  0  0  0  0  0
   53.4650   29.6320   53.2910 C   0  0  0  0  0  0  0  0  0  0  0  0
   52.6315   29.0571   53.7208 H   0  0  0  0  0  0  0  0  0  0  0  0
  1  2  1  0
  2  3  1  0
  3  4  2  0
  3  5  2  0
  3  6  1  0
  6  7  2  0
  7  8  1  0
  7  9  1  0
  9 10  1  0
  9 11  2  0
 11 12  1  0
 12 13  2  0
 13 14  1  0
 14 15  2  0
 15 16  1  0
 16 17  2  0
 17 18  1  0
 17 19  1  0
 19 20  1  0
 19 21  2  0
 21 22  1  0
 22 23  1  0
 22 24  1  0
 24 25  2  0
 24 26  2  0
 24 27  1  0
 27 28  2  0
 28 29  1  0
 28 30  1  0
 30 31  1  0
 30 32  2  0
 32 33  1  0
 32 34  1  0
 34 35  1  0
 34 36  2  0
 36 37  1  0
 21 38  1  0
 38 39  1  0
 38 40  2  0
 40 41  1  0
 15 42  1  0
 42 43  1  0
 42 44  2  0
 44 45  1  0
 44 46  1  0
 11 47  1  0
 47 48  1  0
 47 49  2  0
 49 50  1  0
 49  6  1  0
 46 13  1  0
 40 16  1  0
 36 27  1  0
M  CHG  2   2  -1  46  -1
M  END
>  <UniqueID>  (67) 
62

>  <SMILES>  (67) 
[NH-]S(=O)(=O)c1ccc(/N=c2\nc(-c3ccc(NS(=O)(=O)c4ccccc4F)cc3)cc[n-]2)cc1

>  <Energy>  (67) 
68.08598501418415

>  <Genealogy>  (67) 
[NH-]S(=O)(=O)c1ccc(N=c2nc(-c3ccc(NS(=O)(=O)c4ccccc4F)cc3)cc[n-]2)cc1 (protonated)
[NH-]S(=O)(=O)c1ccc(/N=c2\nc(-c3ccc(NS(=O)(=O)c4ccccc4F)cc3)cc[n-]2)cc1 (cis-trans isomerization)
[NH-]S(=O)(=O)c1ccc(/N=c2\nc(-c3ccc(NS(=O)(=O)c4ccccc4F)cc3)cc[n-]2)cc1 (3D coordinates assigned)
[NH-]S(=O)(=O)c1ccc(/N=c2\nc(-c3ccc(NS(=O)(=O)c4ccccc4F)cc3)cc[n-]2)cc1 (optimized conformer: 68.08598501418415 kcal/mol)

>  <smiles>  (67) 
NS(=O)(=O)c1ccc(N=c2nc(-c3ccc(NS(=O)(=O)c4ccccc4F)cc3)cc[nH]2)cc1

>  <score_type>  (67) 
oracle

>  <origin>  (67) 
adg

>  <m_score__min__energy>  (67) 
-13.43

>  <m_primary>  (67) 
energy

$$$$
67:0
     RDKit          3D

 44 46  0  0  0  0  0  0  0  0999 V2000
   64.0800   33.4640   48.2540 C   0  0  0  0  0  0  0  0  0  0  0  0
   62.6020   33.2620   48.2530 C   0  0  0  0  0  0  0  0  0  0  0  0
   61.7780   33.8130   47.3910 O   0  0  0  0  0  0  0  0  0  0  0  0
   60.5700   33.3610   47.6580 C   0  0  0  0  0  0  0  0  0  0  0  0
   59.3820   33.6810   46.8330 C   0  0  0  0  0  0  0  0  0  0  0  0
   59.5370   34.4470   45.6630 C   0  0  0  0  0  0  0  0  0  0  0  0
   58.4400   34.7130   44.8400 C   0  0  0  0  0  0  0  0  0  0  0  0
   57.1770   34.2210   45.1740 C   0  0  0  0  0  0  0  0  0  0  0  0
   57.0090   33.4640   46.3350 C   0  0  0  0  0  0  0  0  0  0  0  0
   58.1030   33.1930   47.1620 C   0  0  0  0  0  0  0  0  0  0  0  0
   60.5760   32.5200   48.7170 N   0  0  0  0  0  0  0  0  0  0  0  0
   61.8660   32.4400   49.0850 C   0  0  0  0  0  0  0  0  0  0  0  0
   62.3960   31.4470   50.0790 C   0  0  0  0  0  0  0  0  0  0  0  0
   61.9160   30.0190   49.7810 C   0  0  0  0  0  0  0  0  0  0  0  0
   60.4980   29.9700   49.5920 O   0  0  0  0  0  0  0  0  0  0  0  0
   59.8460   29.5980   48.4050 C   0  0  0  0  0  0  0  0  0  0  0  0
   58.8900   28.5770   48.4670 C   0  0  0  0  0  0  0  0  0  0  0  0
   58.1370   28.2380   47.3390 C   0  0  0  0  0  0  0  0  0  0  0  0
   58.3420   28.9090   46.1240 C   0  0  0  0  0  0  0  0  0  0  0  0
   57.5190   28.5630   44.9160 C   0  0  0  0  0  0  0  0  0  0  0  0
   56.3250   29.4570   44.8330 C   0  0  0  0  0  0  0  0  0  0  0  0
   55.1640   28.9680   44.8620 O   0  0  0  0  0  0  0  0  0  0  0  0
   56.4900   30.8350   44.7750 O   0  0  0  0  0  0  0  0  0  0  0  0
   59.3480   29.8830   46.0400 C   0  0  0  0  0  0  0  0  0  0  0  0
   60.0990   30.2250   47.1690 C   0  0  0  0  0  0  0  0  0  0  0  0
   64.4426   33.5136   49.2913 H   0  0  0  0  0  0  0  0  0  0  0  0
   64.5653   32.6238   47.7357 H   0  0  0  0  0  0  0  0  0  0  0  0
   64.3220   34.4036   47.7357 H   0  0  0  0  0  0  0  0  0  0  0  0
   60.5290   34.8392   45.3944 H   0  0  0  0  0  0  0  0  0  0  0  0
   58.5717   35.3116   43.9266 H   0  0  0  0  0  0  0  0  0  0  0  0
   56.3151   34.4295   44.5231 H   0  0  0  0  0  0  0  0  0  0  0  0
   56.0129   33.0797   46.5998 H   0  0  0  0  0  0  0  0  0  0  0  0
   57.9638   32.5952   48.0748 H   0  0  0  0  0  0  0  0  0  0  0  0
   59.7840   31.9730   49.1180 H   0  0  0  0  0  0  0  0  0  0  0  0
   63.4954   31.4656   50.0472 H   0  0  0  0  0  0  0  0  0  0  0  0
   62.0207   31.7299   51.0735 H   0  0  0  0  0  0  0  0  0  0  0  0
   62.4109   29.6592   48.8669 H   0  0  0  0  0  0  0  0  0  0  0  0
   62.1713   29.3829   50.6414 H   0  0  0  0  0  0  0  0  0  0  0  0
   58.7300   28.0367   49.4117 H   0  0  0  0  0  0  0  0  0  0  0  0
   57.3807   27.4419   47.4043 H   0  0  0  0  0  0  0  0  0  0  0  0
   58.1312   28.6891   44.0108 H   0  0  0  0  0  0  0  0  0  0  0  0
   57.1814   27.5193   44.9981 H   0  0  0  0  0  0  0  0  0  0  0  0
   59.5475   30.3811   45.0797 H   0  0  0  0  0  0  0  0  0  0  0  0
   60.8897   30.9859   47.0918 H   0  0  0  0  0  0  0  0  0  0  0  0
  1  2  1  0
  2  3  1  0
  3  4  1  0
  4  5  1  0
  5  6  2  0
  6  7  1  0
  7  8  2  0
  8  9  1  0
  9 10  2  0
  4 11  2  0
 11 12  1  0
 12 13  1  0
 13 14  1  0
 14 15  1  0
 15 16  1  0
 16 17  2  0
 17 18  1  0
 18 19  2  0
 19 20  1  0
 20 21  1  0
 21 22  2  0
 21 23  1  0
 19 24  1  0
 24 25  2  0
 12  2  2  0
 25 16  1  0
 10  5  1  0
  1 26  1  0
  1 27  1  0
  1 28  1  0
  6 29  1  0
  7 30  1  0
  8 31  1  0
  9 32  1  0
 10 33  1  0
 11 34  1  0
 13 35  1  0
 13 36  1  0
 14 37  1  0
 14 38  1  0
 17 39  1  0
 18 40  1  0
 20 41  1  0
 20 42  1  0
 24 43  1  0
 25 44  1  0
M  CHG  2  11   1  23  -1
M  END
>  <UniqueID>  (68) 
63

>  <SMILES>  (68) 
Cc1oc(-c2ccccc2)[nH+]c1CCOc1ccc(CC(=O)[O-])cc1

>  <Energy>  (68) 
69.47689106356503

>  <Genealogy>  (68) 
Cc1oc(-c2ccccc2)[nH+]c1CCOc1ccc(CC(=O)[O-])cc1 (protonated)
Cc1oc(-c2ccccc2)[nH+]c1CCOc1ccc(CC(=O)[O-])cc1 (3D coordinates assigned)
Cc1oc(-c2ccccc2)[nH+]c1CCOc1ccc(CC(=O)[O-])cc1 (optimized conformer: 69.47689106356503 kcal/mol)

>  <smiles>  (68) 
Cc1oc(-c2ccccc2)nc1CCOc1ccc(CC(=O)O)cc1

>  <score_type>  (68) 
oracle

>  <origin>  (68) 
adg

>  <m_score__min__energy>  (68) 
-9.8699999999999992

>  <m_primary>  (68) 
energy

$$$$
68:0
     RDKit          3D

 50 54  0  0  0  0  0  0  0  0999 V2000
   57.8945   23.4721   46.6553 H   0  0  0  0  0  0  0  0  0  0  0  0
   57.5560   24.4850   46.3920 C   0  0  0  0  0  0  0  0  0  0  0  0
   58.4920   25.4850   46.1210 C   0  0  0  0  0  0  0  0  0  0  0  0
   59.5674   25.2621   46.1822 H   0  0  0  0  0  0  0  0  0  0  0  0
   58.0640   26.7690   45.7720 C   0  0  0  0  0  0  0  0  0  0  0  0
   58.8049   27.5578   45.5747 H   0  0  0  0  0  0  0  0  0  0  0  0
   56.6960   27.0570   45.6720 C   0  0  0  0  0  0  0  0  0  0  0  0
   56.2930   28.3930   45.3290 N   0  0  0  0  0  0  0  0  0  0  0  0
   56.9910   29.4700   45.5360 C   0  0  0  0  0  0  0  0  0  0  0  0
   56.7630   30.6100   44.8070 N   0  0  0  0  0  0  0  0  0  0  0  0
   57.5040   31.7360   45.0010 C   0  0  0  0  0  0  0  0  0  0  0  0
   57.2770   32.7740   44.3250 O   0  0  0  0  0  0  0  0  0  0  0  0
   58.5090   31.7040   45.9570 C   0  0  0  0  0  0  0  0  0  0  0  0
   59.5940   32.8920   46.4340 S   0  0  0  0  0  0  0  0  0  0  0  0
   60.3820   31.9280   47.5930 C   0  0  0  0  0  0  0  0  0  0  0  0
   61.5160   32.3730   48.4440 C   0  0  0  0  0  0  0  0  0  0  0  0
   62.8400   32.0720   48.0750 C   0  0  0  0  0  0  0  0  0  0  0  0
   63.0330   31.5085   47.1502 H   0  0  0  0  0  0  0  0  0  0  0  0
   63.9120   32.4820   48.8720 C   0  0  0  0  0  0  0  0  0  0  0  0
   64.9420   32.2425   48.5691 H   0  0  0  0  0  0  0  0  0  0  0  0
   63.6820   33.1960   50.0540 C   0  0  0  0  0  0  0  0  0  0  0  0
   65.0330   33.6940   51.0720 S   0  0  0  0  0  0  0  0  0  0  0  0
   64.7250   35.0450   51.6580 O   0  0  0  0  0  0  0  0  0  0  0  0
   66.2660   33.8350   50.2230 O   0  0  0  0  0  0  0  0  0  0  0  0
   65.3510   32.5630   52.3720 N   0  0  0  0  0  0  0  0  0  0  0  0
   64.5390   31.3310   52.2710 C   0  0  0  0  0  0  0  0  0  0  0  0
   64.1655   31.0735   53.2731 H   0  0  0  0  0  0  0  0  0  0  0  0
   63.7175   31.5333   51.5680 H   0  0  0  0  0  0  0  0  0  0  0  0
   65.3340   30.1350   51.7210 C   0  0  0  0  0  0  0  0  0  0  0  0
   65.7923   29.5889   52.5587 H   0  0  0  0  0  0  0  0  0  0  0  0
   64.6483   29.4757   51.1686 H   0  0  0  0  0  0  0  0  0  0  0  0
   66.3460   30.5760   50.8460 O   0  0  0  0  0  0  0  0  0  0  0  0
   67.3510   31.2490   51.5800 C   0  0  0  0  0  0  0  0  0  0  0  0
   67.9187   30.5046   52.1575 H   0  0  0  0  0  0  0  0  0  0  0  0
   67.9827   31.7811   50.8535 H   0  0  0  0  0  0  0  0  0  0  0  0
   66.7910   32.3070   52.5600 C   0  0  0  0  0  0  0  0  0  0  0  0
   66.9523   31.9519   53.5885 H   0  0  0  0  0  0  0  0  0  0  0  0
   67.3209   33.2506   52.3628 H   0  0  0  0  0  0  0  0  0  0  0  0
   62.3690   33.5120   50.4210 C   0  0  0  0  0  0  0  0  0  0  0  0
   62.1819   34.0855   51.3408 H   0  0  0  0  0  0  0  0  0  0  0  0
   61.2940   33.1040   49.6270 C   0  0  0  0  0  0  0  0  0  0  0  0
   60.2665   33.3557   49.9283 H   0  0  0  0  0  0  0  0  0  0  0  0
   59.7840   30.6580   47.6000 C   0  0  0  0  0  0  0  0  0  0  0  0
   60.1023   29.8355   48.2574 H   0  0  0  0  0  0  0  0  0  0  0  0
   58.7400   30.5560   46.6790 C   0  0  0  0  0  0  0  0  0  0  0  0
   57.9900   29.4450   46.4670 N   0  0  0  0  0  0  0  0  0  0  0  0
   55.7540   26.0550   45.9860 C   0  0  0  0  0  0  0  0  0  0  0  0
   54.3910   26.3330   45.9870 O   0  0  0  0  0  0  0  0  0  0  0  0
   56.1900   24.7700   46.3290 C   0  0  0  0  0  0  0  0  0  0  0  0
   55.4547   23.9822   46.5496 H   0  0  0  0  0  0  0  0  0  0  0  0
  1  2  1  0
  2  3  2  0
  3  4  1  0
  3  5  1  0
  5  6  1  0
  5  7  2  0
  7  8  1  0
  8  9  2  0
  9 10  1  0
 10 11  1  0
 11 12  2  0
 11 13  1  0
 13 14  1  0
 14 15  1  0
 15 16  1  0
 16 17  2  0
 17 18  1  0
 17 19  1  0
 19 20  1  0
 19 21  2  0
 21 22  1  0
 22 23  2  0
 22 24  2  0
 22 25  1  0
 25 26  1  0
 26 27  1  0
 26 28  1  0
 26 29  1  0
 29 30  1  0
 29 31  1  0
 29 32  1  0
 32 33  1  0
 33 34  1  0
 33 35  1  0
 33 36  1  0
 36 37  1  0
 36 38  1  0
 21 39  1  0
 39 40  1  0
 39 41  2  0
 41 42  1  0
 15 43  2  0
 43 44  1  0
 43 45  1  0
 45 46  1  0
  7 47  1  0
 47 48  1  0
 47 49  2  0
 49 50  1  0
 49  2  1  0
 46  9  1  0
 45 13  2  0
 41 16  1  0
 36 25  1  0
M  CHG  3  10  -1  46  -1  48  -1
M  END
>  <UniqueID>  (69) 
64

>  <SMILES>  (69) 
O=c1[n-]/c(=N\c2ccccc2[O-])[n-]c2cc(-c3ccc(S(=O)(=O)N4CCOCC4)cc3)sc12

>  <Energy>  (69) 
110.5064950479798

>  <Genealogy>  (69) 
O=c1[n-]c(=Nc2ccccc2[O-])[n-]c2cc(-c3ccc(S(=O)(=O)N4CCOCC4)cc3)sc12 (protonated)
O=c1[n-]/c(=N\c2ccccc2[O-])[n-]c2cc(-c3ccc(S(=O)(=O)N4CCOCC4)cc3)sc12 (cis-trans isomerization)
O=c1[n-]/c(=N\c2ccccc2[O-])[n-]c2cc(-c3ccc(S(=O)(=O)N4CCOCC4)cc3)sc12 (3D coordinates assigned)
O=c1[n-]/c(=N\c2ccccc2[O-])[n-]c2cc(-c3ccc(S(=O)(=O)N4CCOCC4)cc3)sc12 (nonaromatic ring conformer: 110.5064950479798 kcal/mol)

>  <smiles>  (69) 
O=c1[nH]c(=Nc2ccccc2O)[nH]c2cc(-c3ccc(S(=O)(=O)N4CCOCC4)cc3)sc12

>  <score_type>  (69) 
oracle

>  <origin>  (69) 
adg

>  <m_score__min__energy>  (69) 
-15.789999999999999

>  <m_primary>  (69) 
energy

$$$$
69:0
     RDKit          3D

 42 44  0  0  0  0  0  0  0  0999 V2000
   60.7770   27.7510   48.8410 C   0  0  0  0  0  0  0  0  0  0  0  0
   60.1100   28.7390   49.7620 C   0  0  0  0  0  0  0  0  0  0  0  0
   59.9760   28.4150   51.1220 C   0  0  0  0  0  0  0  0  0  0  0  0
   59.3410   29.2900   51.9990 C   0  0  0  0  0  0  0  0  0  0  0  0
   58.8410   30.5060   51.5400 C   0  0  0  0  0  0  0  0  0  0  0  0
   58.9820   30.8700   50.1900 C   0  0  0  0  0  0  0  0  0  0  0  0
   58.5170   32.1430   49.7130 N   0  0  0  0  0  0  0  0  0  0  0  0
   59.5150   33.4220   49.1040 S   0  0  0  0  0  0  0  0  0  0  0  0
   59.3670   34.6220   49.9950 O   0  0  0  0  0  0  0  0  0  0  0  0
   60.9500   32.9720   49.1210 O   0  0  0  0  0  0  0  0  0  0  0  0
   59.0280   33.8580   47.4690 C   0  0  0  0  0  0  0  0  0  0  0  0
   59.8910   34.6040   46.6540 C   0  0  0  0  0  0  0  0  0  0  0  0
   59.5070   34.9470   45.3540 C   0  0  0  0  0  0  0  0  0  0  0  0
   58.2600   34.5470   44.8620 C   0  0  0  0  0  0  0  0  0  0  0  0
   57.3950   33.8060   45.6730 C   0  0  0  0  0  0  0  0  0  0  0  0
   57.7750   33.4660   46.9750 C   0  0  0  0  0  0  0  0  0  0  0  0
   59.6150   29.9810   49.2890 C   0  0  0  0  0  0  0  0  0  0  0  0
   59.7510   30.3590   47.8590 C   0  0  0  0  0  0  0  0  0  0  0  0
   60.8080   30.9160   47.4640 O   0  0  0  0  0  0  0  0  0  0  0  0
   58.6810   30.1720   46.9230 N   0  0  0  0  0  0  0  0  0  0  0  0
   58.6670   29.2190   45.8520 C   0  0  0  0  0  0  0  0  0  0  0  0
   59.8920   28.1170   45.5020 S   0  0  0  0  0  0  0  0  0  0  0  0
   59.1510   27.4610   44.1440 C   0  0  0  0  0  0  0  0  0  0  0  0
   57.9380   28.1080   43.9430 C   0  0  0  0  0  0  0  0  0  0  0  0
   57.6620   29.1060   44.8930 C   0  0  0  0  0  0  0  0  0  0  0  0
   56.4310   29.9220   44.8700 C   0  0  0  0  0  0  0  0  0  0  0  0
   55.1520   29.2910   44.8680 N   0  0  0  0  0  0  0  0  0  0  0  0
   56.4970   31.1800   44.8510 O   0  0  0  0  0  0  0  0  0  0  0  0
   61.2941   26.9850   49.4375 H   0  0  0  0  0  0  0  0  0  0  0  0
   60.0176   27.2707   48.2065 H   0  0  0  0  0  0  0  0  0  0  0  0
   61.5064   28.2758   48.2065 H   0  0  0  0  0  0  0  0  0  0  0  0
   60.3762   27.4617   51.4974 H   0  0  0  0  0  0  0  0  0  0  0  0
   59.2337   29.0195   53.0598 H   0  0  0  0  0  0  0  0  0  0  0  0
   58.3322   31.1862   52.2389 H   0  0  0  0  0  0  0  0  0  0  0  0
   60.8721   34.9201   47.0380 H   0  0  0  0  0  0  0  0  0  0  0  0
   60.1865   35.5323   44.7171 H   0  0  0  0  0  0  0  0  0  0  0  0
   57.9603   34.8152   43.8382 H   0  0  0  0  0  0  0  0  0  0  0  0
   56.4148   33.4903   45.2865 H   0  0  0  0  0  0  0  0  0  0  0  0
   57.0895   32.8896   47.6136 H   0  0  0  0  0  0  0  0  0  0  0  0
   59.5586   26.6535   43.5181 H   0  0  0  0  0  0  0  0  0  0  0  0
   57.2560   27.8616   43.1158 H   0  0  0  0  0  0  0  0  0  0  0  0
   54.5090   29.3800   45.6860 H   0  0  0  0  0  0  0  0  0  0  0  0
  1  2  1  0
  2  3  2  0
  3  4  1  0
  4  5  2  0
  5  6  1  0
  6  7  1  0
  7  8  1  0
  8  9  2  0
  8 10  2  0
  8 11  1  0
 11 12  2  0
 12 13  1  0
 13 14  2  0
 14 15  1  0
 15 16  2  0
  6 17  2  0
 17 18  1  0
 18 19  2  0
 18 20  1  0
 20 21  1  0
 21 22  1  0
 22 23  1  0
 23 24  2  0
 24 25  1  0
 25 26  1  0
 26 27  1  0
 26 28  2  0
 17  2  1  0
 25 21  2  0
 16 11  1  0
  1 29  1  0
  1 30  1  0
  1 31  1  0
  3 32  1  0
  4 33  1  0
  5 34  1  0
 12 35  1  0
 13 36  1  0
 14 37  1  0
 15 38  1  0
 16 39  1  0
 23 40  1  0
 24 41  1  0
 27 42  1  0
M  CHG  3   7  -1  20  -1  27  -1
M  END
>  <UniqueID>  (70) 
65

>  <SMILES>  (70) 
Cc1cccc([N-]S(=O)(=O)c2ccccc2)c1C(=O)[N-]c1sccc1C([NH-])=O

>  <Energy>  (70) 
82.03582818946914

>  <Genealogy>  (70) 
Cc1cccc([N-]S(=O)(=O)c2ccccc2)c1C(=O)[N-]c1sccc1C([NH-])=O (protonated)
Cc1cccc([N-]S(=O)(=O)c2ccccc2)c1C(=O)[N-]c1sccc1C([NH-])=O (3D coordinates assigned)
Cc1cccc([N-]S(=O)(=O)c2ccccc2)c1C(=O)[N-]c1sccc1C([NH-])=O (optimized conformer: 82.03582818946914 kcal/mol)

>  <smiles>  (70) 
Cc1cccc(NS(=O)(=O)c2ccccc2)c1C(=O)Nc1sccc1C(N)=O

>  <score_type>  (70) 
oracle

>  <origin>  (70) 
adg

>  <m_score__min__energy>  (70) 
-14.52

>  <m_primary>  (70) 
energy

$$$$
70:0
     RDKit          3D

 45 47  0  0  0  0  0  0  0  0999 V2000
   59.2480   34.9760   44.9220 C   0  0  0  0  0  0  0  0  0  0  0  0
   58.3240   33.9830   44.5400 O   0  0  0  0  0  0  0  0  0  0  0  0
   57.0790   34.2380   45.1570 C   0  0  0  0  0  0  0  0  0  0  0  0
   56.9930   33.4680   46.4750 C   0  0  0  0  0  0  0  0  0  0  0  0
   57.9260   32.3210   46.4820 N   0  0  0  0  0  0  0  0  0  0  0  0
   58.9950   32.2890   47.3510 C   0  0  0  0  0  0  0  0  0  0  0  0
   59.2980   33.6090   48.5460 S   0  0  0  0  0  0  0  0  0  0  0  0
   60.7980   34.2010   47.6930 C   0  0  0  0  0  0  0  0  0  0  0  0
   62.0210   33.7880   48.4730 C   0  0  0  0  0  0  0  0  0  0  0  0
   61.9190   33.6690   49.8710 C   0  0  0  0  0  0  0  0  0  0  0  0
   63.0180   33.2690   50.6330 C   0  0  0  0  0  0  0  0  0  0  0  0
   64.2290   32.9710   50.0110 C   0  0  0  0  0  0  0  0  0  0  0  0
   64.3460   33.0670   48.6230 C   0  0  0  0  0  0  0  0  0  0  0  0
   63.2490   33.4650   47.8380 C   0  0  0  0  0  0  0  0  0  0  0  0
   63.4090   33.5420   46.3430 C   0  0  0  0  0  0  0  0  0  0  0  0
   59.8710   31.2490   47.3260 N   0  0  0  0  0  0  0  0  0  0  0  0
   59.7240   30.2160   46.4570 C   0  0  0  0  0  0  0  0  0  0  0  0
   60.6390   29.1500   46.4540 C   0  0  0  0  0  0  0  0  0  0  0  0
   60.4840   28.0920   45.5560 C   0  0  0  0  0  0  0  0  0  0  0  0
   59.4170   28.0900   44.6550 C   0  0  0  0  0  0  0  0  0  0  0  0
   58.5010   29.1450   44.6480 C   0  0  0  0  0  0  0  0  0  0  0  0
   58.6470   30.2170   45.5510 C   0  0  0  0  0  0  0  0  0  0  0  0
   57.7520   31.2980   45.5800 C   0  0  0  0  0  0  0  0  0  0  0  0
   56.7880   31.3260   44.7640 O   0  0  0  0  0  0  0  0  0  0  0  0
   59.2969   35.0286   46.0197 H   0  0  0  0  0  0  0  0  0  0  0  0
   60.2417   34.7255   44.5223 H   0  0  0  0  0  0  0  0  0  0  0  0
   58.9267   35.9491   44.5223 H   0  0  0  0  0  0  0  0  0  0  0  0
   56.9826   35.3156   45.3555 H   0  0  0  0  0  0  0  0  0  0  0  0
   56.2671   33.9126   44.4900 H   0  0  0  0  0  0  0  0  0  0  0  0
   57.2487   34.1445   47.3039 H   0  0  0  0  0  0  0  0  0  0  0  0
   55.9680   33.0859   46.5907 H   0  0  0  0  0  0  0  0  0  0  0  0
   60.8422   33.7637   46.6846 H   0  0  0  0  0  0  0  0  0  0  0  0
   60.7662   35.2980   47.6180 H   0  0  0  0  0  0  0  0  0  0  0  0
   60.9639   33.8933   50.3685 H   0  0  0  0  0  0  0  0  0  0  0  0
   62.9281   33.1889   51.7264 H   0  0  0  0  0  0  0  0  0  0  0  0
   65.0942   32.6596   50.6147 H   0  0  0  0  0  0  0  0  0  0  0  0
   65.3048   32.8292   48.1391 H   0  0  0  0  0  0  0  0  0  0  0  0
   64.3760   34.0073   46.1012 H   0  0  0  0  0  0  0  0  0  0  0  0
   63.3735   32.5282   45.9177 H   0  0  0  0  0  0  0  0  0  0  0  0
   62.5945   34.1468   45.9177 H   0  0  0  0  0  0  0  0  0  0  0  0
   60.6750   31.2510   47.9960 H   0  0  0  0  0  0  0  0  0  0  0  0
   61.4809   29.1488   47.1619 H   0  0  0  0  0  0  0  0  0  0  0  0
   61.2029   27.2594   45.5583 H   0  0  0  0  0  0  0  0  0  0  0  0
   59.2974   27.2553   43.9487 H   0  0  0  0  0  0  0  0  0  0  0  0
   57.6631   29.1388   43.9353 H   0  0  0  0  0  0  0  0  0  0  0  0
  1  2  1  0
  2  3  1  0
  3  4  1  0
  4  5  1  0
  5  6  1  0
  6  7  1  0
  7  8  1  0
  8  9  1  0
  9 10  2  0
 10 11  1  0
 11 12  2  0
 12 13  1  0
 13 14  2  0
 14 15  1  0
  6 16  2  0
 16 17  1  0
 17 18  2  0
 18 19  1  0
 19 20  2  0
 20 21  1  0
 21 22  2  0
 22 23  1  0
 23 24  2  0
 23  5  1  0
 14  9  1  0
 22 17  1  0
  1 25  1  0
  1 26  1  0
  1 27  1  0
  3 28  1  0
  3 29  1  0
  4 30  1  0
  4 31  1  0
  8 32  1  0
  8 33  1  0
 10 34  1  0
 11 35  1  0
 12 36  1  0
 13 37  1  0
 15 38  1  0
 15 39  1  0
 15 40  1  0
 16 41  1  0
 18 42  1  0
 19 43  1  0
 20 44  1  0
 21 45  1  0
M  CHG  1  16   1
M  END
>  <UniqueID>  (71) 
66

>  <SMILES>  (71) 
COCCn1c(SCc2ccccc2C)[nH+]c2ccccc2c1=O

>  <Energy>  (71) 
50.11099246243961

>  <Genealogy>  (71) 
COCCn1c(SCc2ccccc2C)[nH+]c2ccccc2c1=O (protonated)
COCCn1c(SCc2ccccc2C)[nH+]c2ccccc2c1=O (3D coordinates assigned)
COCCn1c(SCc2ccccc2C)[nH+]c2ccccc2c1=O (optimized conformer: 50.11099246243961 kcal/mol)

>  <smiles>  (71) 
COCCn1c(SCc2ccccc2C)nc2ccccc2c1=O

>  <score_type>  (71) 
oracle

>  <origin>  (71) 
adg

>  <m_score__min__energy>  (71) 
-5.8200000000000003

>  <m_primary>  (71) 
energy

$$$$
71:0
     RDKit          3D

 76 80  0  0  0  0  0  0  0  0999 V2000
   59.1730   21.1770   50.7840 O   0  0  0  0  0  0  0  0  0  0  0  0
   58.1680   21.8440   51.1390 C   0  0  0  0  0  0  0  0  0  0  0  0
   56.9650   21.8420   50.2410 C   0  0  0  0  0  0  0  0  0  0  0  0
   57.3650   21.8410   48.8430 N   0  0  0  0  0  0  0  0  0  0  0  0
   57.0160   22.8850   47.9320 C   0  0  0  0  0  0  0  0  0  0  0  0
   56.0660   23.6690   48.2020 O   0  0  0  0  0  0  0  0  0  0  0  0
   57.7850   23.1080   46.7430 N   0  0  0  0  0  0  0  0  0  0  0  0
   57.3500   22.8800   45.4000 C   0  0  0  0  0  0  0  0  0  0  0  0
   56.7060   23.8780   44.6440 C   0  0  0  0  0  0  0  0  0  0  0  0
   56.3430   23.6310   43.3150 C   0  0  0  0  0  0  0  0  0  0  0  0
   56.6410   22.3980   42.7250 C   0  0  0  0  0  0  0  0  0  0  0  0
   57.2930   21.4090   43.4660 C   0  0  0  0  0  0  0  0  0  0  0  0
   57.6540   21.6530   44.7960 C   0  0  0  0  0  0  0  0  0  0  0  0
   58.2500   22.6120   52.3520 N   0  0  0  0  0  0  0  0  0  0  0  0
   59.0710   23.7510   52.6570 C   0  0  0  0  0  0  0  0  0  0  0  0
   58.7590   24.5020   53.7950 C   0  0  0  0  0  0  0  0  0  0  0  0
   59.4530   25.6790   54.0830 C   0  0  0  0  0  0  0  0  0  0  0  0
   60.4950   26.1160   53.2480 C   0  0  0  0  0  0  0  0  0  0  0  0
   61.1750   27.4410   53.5080 C   0  0  0  0  0  0  0  0  0  0  0  0
   62.5520   27.5180   52.8970 C   0  0  0  0  0  0  0  0  0  0  0  0
   63.5410   27.1060   53.5610 O   0  0  0  0  0  0  0  0  0  0  0  0
   62.7960   28.1920   51.6560 N   0  0  0  0  0  0  0  0  0  0  0  0
   61.8230   28.8310   50.8160 C   0  0  0  0  0  0  0  0  0  0  0  0
   60.9380   28.0880   50.0150 C   0  0  0  0  0  0  0  0  0  0  0  0
   60.0410   28.7410   49.1610 C   0  0  0  0  0  0  0  0  0  0  0  0
   60.0230   30.1440   49.0970 C   0  0  0  0  0  0  0  0  0  0  0  0
   59.0920   30.8500   48.1450 C   0  0  0  0  0  0  0  0  0  0  0  0
   58.5010   32.0990   48.7520 C   0  0  0  0  0  0  0  0  0  0  0  0
   58.4490   32.2200   50.0050 O   0  0  0  0  0  0  0  0  0  0  0  0
   57.9960   33.1700   47.9340 N   0  0  0  0  0  0  0  0  0  0  0  0
   58.1250   33.2380   46.5100 C   0  0  0  0  0  0  0  0  0  0  0  0
   59.0150   34.1360   45.9020 C   0  0  0  0  0  0  0  0  0  0  0  0
   59.1970   34.1090   44.5160 C   0  0  0  0  0  0  0  0  0  0  0  0
   58.5180   33.1650   43.7350 C   0  0  0  0  0  0  0  0  0  0  0  0
   57.5930   32.3000   44.3340 C   0  0  0  0  0  0  0  0  0  0  0  0
   56.7630   31.0480   43.3510 S   0  0  0  0  0  0  0  0  0  0  0  0
   57.3920   29.7140   44.3790 C   0  0  0  0  0  0  0  0  0  0  0  0
   58.7800   29.5360   44.4780 C   0  0  0  0  0  0  0  0  0  0  0  0
   59.3020   28.4230   45.1460 C   0  0  0  0  0  0  0  0  0  0  0  0
   60.6790   28.2100   45.1450 O   0  0  0  0  0  0  0  0  0  0  0  0
   58.4350   27.5220   45.7780 C   0  0  0  0  0  0  0  0  0  0  0  0
   57.0520   27.7200   45.7190 C   0  0  0  0  0  0  0  0  0  0  0  0
   56.5240   28.8070   45.0100 C   0  0  0  0  0  0  0  0  0  0  0  0
   55.1470   28.9730   44.9300 O   0  0  0  0  0  0  0  0  0  0  0  0
   57.3650   32.3750   45.7160 C   0  0  0  0  0  0  0  0  0  0  0  0
   60.9160   30.8810   49.8900 C   0  0  0  0  0  0  0  0  0  0  0  0
   61.8200   30.2250   50.7320 C   0  0  0  0  0  0  0  0  0  0  0  0
   60.8120   25.3620   52.1060 C   0  0  0  0  0  0  0  0  0  0  0  0
   60.0970   24.1960   51.8030 C   0  0  0  0  0  0  0  0  0  0  0  0
   56.3641   20.9435   50.4449 H   0  0  0  0  0  0  0  0  0  0  0  0
   56.3756   22.7494   50.4387 H   0  0  0  0  0  0  0  0  0  0  0  0
   56.4874   24.8552   45.0994 H   0  0  0  0  0  0  0  0  0  0  0  0
   55.8230   24.4069   42.7340 H   0  0  0  0  0  0  0  0  0  0  0  0
   56.3621   22.2072   41.6782 H   0  0  0  0  0  0  0  0  0  0  0  0
   57.5228   20.4377   43.0036 H   0  0  0  0  0  0  0  0  0  0  0  0
   58.1798   20.8764   45.3708 H   0  0  0  0  0  0  0  0  0  0  0  0
   57.9593   24.1622   54.4695 H   0  0  0  0  0  0  0  0  0  0  0  0
   59.1816   26.2689   54.9709 H   0  0  0  0  0  0  0  0  0  0  0  0
   60.5556   28.2441   53.0821 H   0  0  0  0  0  0  0  0  0  0  0  0
   61.2880   27.5486   54.5969 H   0  0  0  0  0  0  0  0  0  0  0  0
   60.9504   26.9890   50.0595 H   0  0  0  0  0  0  0  0  0  0  0  0
   59.3491   28.1542   48.5390 H   0  0  0  0  0  0  0  0  0  0  0  0
   59.6526   31.1264   47.2399 H   0  0  0  0  0  0  0  0  0  0  0  0
   58.2653   30.1642   47.9079 H   0  0  0  0  0  0  0  0  0  0  0  0
   59.5696   34.8612   46.5156 H   0  0  0  0  0  0  0  0  0  0  0  0
   59.8752   34.8310   44.0376 H   0  0  0  0  0  0  0  0  0  0  0  0
   58.7107   33.1030   42.6538 H   0  0  0  0  0  0  0  0  0  0  0  0
   59.4605   30.2743   44.0287 H   0  0  0  0  0  0  0  0  0  0  0  0
   61.1980   28.1260   44.2810 H   0  0  0  0  0  0  0  0  0  0  0  0
   58.8430   26.6572   46.3217 H   0  0  0  0  0  0  0  0  0  0  0  0
   56.3760   27.0196   46.2312 H   0  0  0  0  0  0  0  0  0  0  0  0
   56.5845   31.7517   46.1768 H   0  0  0  0  0  0  0  0  0  0  0  0
   60.9050   31.9802   49.8492 H   0  0  0  0  0  0  0  0  0  0  0  0
   62.5327   30.8105   51.3314 H   0  0  0  0  0  0  0  0  0  0  0  0
   61.6277   25.6895   51.4447 H   0  0  0  0  0  0  0  0  0  0  0  0
   60.3386   23.6260   50.8938 H   0  0  0  0  0  0  0  0  0  0  0  0
  1  2  2  0
  2  3  1  0
  3  4  1  0
  4  5  1  0
  5  6  2  0
  5  7  1  0
  7  8  1  0
  8  9  2  0
  9 10  1  0
 10 11  2  0
 11 12  1  0
 12 13  2  0
  2 14  1  0
 14 15  1  0
 15 16  2  0
 16 17  1  0
 17 18  2  0
 18 19  1  0
 19 20  1  0
 20 21  2  0
 20 22  1  0
 22 23  1  0
 23 24  2  0
 24 25  1  0
 25 26  2  0
 26 27  1  0
 27 28  1  0
 28 29  2  0
 28 30  1  0
 30 31  1  0
 31 32  2  0
 32 33  1  0
 33 34  2  0
 34 35  1  0
 35 36  1  0
 36 37  1  0
 37 38  2  0
 38 39  1  0
 39 40  1  0
 39 41  2  0
 41 42  1  0
 42 43  2  0
 43 44  1  0
 35 45  2  0
 26 46  1  0
 46 47  2  0
 18 48  1  0
 48 49  2  0
 13  8  1  0
 49 15  1  0
 47 23  1  0
 45 31  1  0
 43 37  1  0
  3 50  1  0
  3 51  1  0
  9 52  1  0
 10 53  1  0
 11 54  1  0
 12 55  1  0
 13 56  1  0
 16 57  1  0
 17 58  1  0
 19 59  1  0
 19 60  1  0
 24 61  1  0
 25 62  1  0
 27 63  1  0
 27 64  1  0
 32 65  1  0
 33 66  1  0
 34 67  1  0
 38 68  1  0
 40 69  1  0
 41 70  1  0
 42 71  1  0
 45 72  1  0
 46 73  1  0
 47 74  1  0
 48 75  1  0
 49 76  1  0
M  CHG  6   4  -1   7  -1  14  -1  22  -1  30  -1  44  -1
M  END
>  <UniqueID>  (72) 
67

>  <SMILES>  (72) 
O=C(C[N-]C(=O)[N-]c1ccccc1)[N-]c1ccc(CC(=O)[N-]c2ccc(CC(=O)[N-]c3cccc(Sc4cc(O)ccc4[O-])c3)cc2)cc1

>  <Energy>  (72) 
87.94803386227997

>  <Genealogy>  (72) 
O=C(C[N-]C(=O)[N-]c1ccccc1)[N-]c1ccc(CC(=O)[N-]c2ccc(CC(=O)[N-]c3cccc(Sc4cc(O)ccc4[O-])c3)cc2)cc1 (protonated)
O=C(C[N-]C(=O)[N-]c1ccccc1)[N-]c1ccc(CC(=O)[N-]c2ccc(CC(=O)[N-]c3cccc(Sc4cc(O)ccc4[O-])c3)cc2)cc1 (3D coordinates assigned)
O=C(C[N-]C(=O)[N-]c1ccccc1)[N-]c1ccc(CC(=O)[N-]c2ccc(CC(=O)[N-]c3cccc(Sc4cc(O)ccc4[O-])c3)cc2)cc1 (optimized conformer: 87.94803386227997 kcal/mol)

>  <smiles>  (72) 
O=C(CNC(=O)Nc1ccccc1)Nc1ccc(CC(=O)Nc2ccc(CC(=O)Nc3cccc(Sc4cc(O)ccc4O)c3)cc2)cc1

>  <score_type>  (72) 
oracle

>  <origin>  (72) 
adg

>  <m_score__min__energy>  (72) 
-22.579999999999998

>  <m_primary>  (72) 
energy

$$$$
72:0
     RDKit          3D

 33 35  0  0  0  0  0  0  0  0999 V2000
   55.8970   34.7530   45.6550 H   0  0  0  0  0  0  0  0  0  0  0  0
   56.6560   34.3550   45.0560 N   0  0  0  0  0  0  0  0  0  0  0  0
   57.3030   33.2870   45.4010 C   0  0  0  0  0  0  0  0  0  0  0  0
   56.7270   32.0620   45.2080 N   0  0  0  0  0  0  0  0  0  0  0  0
   57.4010   30.9470   45.5740 C   0  0  0  0  0  0  0  0  0  0  0  0
   57.0360   29.6320   45.4320 C   0  0  0  0  0  0  0  0  0  0  0  0
   55.8430   29.1740   44.8850 O   0  0  0  0  0  0  0  0  0  0  0  0
   58.0300   28.8350   45.8900 N   0  0  0  0  0  0  0  0  0  0  0  0
   58.0490   27.3720   45.8440 C   0  0  0  0  0  0  0  0  0  0  0  0
   58.9267   27.0036   46.3953 H   0  0  0  0  0  0  0  0  0  0  0  0
   57.1256   26.9889   46.3029 H   0  0  0  0  0  0  0  0  0  0  0  0
   58.1220   26.8860   44.4020 C   0  0  0  0  0  0  0  0  0  0  0  0
   58.2854   25.7983   44.3895 H   0  0  0  0  0  0  0  0  0  0  0  0
   57.1785   27.1210   43.8877 H   0  0  0  0  0  0  0  0  0  0  0  0
   58.9548   27.3878   43.8877 H   0  0  0  0  0  0  0  0  0  0  0  0
   59.0300   29.6620   46.2960 C   0  0  0  0  0  0  0  0  0  0  0  0
   60.2670   29.2330   46.7750 O   0  0  0  0  0  0  0  0  0  0  0  0
   60.8240   29.7990   47.4040 H   0  0  0  0  0  0  0  0  0  0  0  0
   58.6510   30.9860   46.1270 C   0  0  0  0  0  0  0  0  0  0  0  0
   59.3000   32.2070   46.3550 C   0  0  0  0  0  0  0  0  0  0  0  0
   60.6440   32.2620   46.9680 C   0  0  0  0  0  0  0  0  0  0  0  0
   60.9310   31.4690   48.0380 N   0  0  0  0  0  0  0  0  0  0  0  0
   62.1560   31.4710   48.6260 C   0  0  0  0  0  0  0  0  0  0  0  0
   62.3514   30.8209   49.4915 H   0  0  0  0  0  0  0  0  0  0  0  0
   63.1670   32.2980   48.1320 C   0  0  0  0  0  0  0  0  0  0  0  0
   64.1598   32.3060   48.6056 H   0  0  0  0  0  0  0  0  0  0  0  0
   62.9040   33.1150   47.0300 C   0  0  0  0  0  0  0  0  0  0  0  0
   63.6910   33.7708   46.6294 H   0  0  0  0  0  0  0  0  0  0  0  0
   61.6390   33.0970   46.4380 C   0  0  0  0  0  0  0  0  0  0  0  0
   61.4251   33.7311   45.5650 H   0  0  0  0  0  0  0  0  0  0  0  0
   58.6030   33.3880   45.9760 C   0  0  0  0  0  0  0  0  0  0  0  0
   59.1940   34.6910   46.1970 C   0  0  0  0  0  0  0  0  0  0  0  0
   59.6670   35.7330   46.3730 N   0  0  0  0  0  0  0  0  0  0  0  0
  1  2  1  0
  2  3  2  0
  3  4  1  0
  4  5  1  0
  5  6  2  0
  6  7  1  0
  6  8  1  0
  8  9  1  0
  9 10  1  0
  9 11  1  0
  9 12  1  0
 12 13  1  0
 12 14  1  0
 12 15  1  0
  8 16  1  0
 16 17  1  0
 17 18  1  0
 16 19  2  0
 19 20  1  0
 20 21  1  0
 21 22  2  0
 22 23  1  0
 23 24  1  0
 23 25  2  0
 25 26  1  0
 25 27  1  0
 27 28  1  0
 27 29  2  0
 29 30  1  0
 20 31  2  0
 31 32  1  0
 32 33  3  0
 31  3  1  0
 19  5  1  0
 29 21  1  0
M  CHG  2   4  -1   7  -1
M  END
>  <UniqueID>  (73) 
68

>  <SMILES>  (73) 
[H]/N=c1\[n-]c2c([O-])n(CC)c(O)c2c(-c2ccccn2)c1C#N

>  <Energy>  (73) 
79.81229258848563

>  <Genealogy>  (73) 
CCn1c([O-])c2[n-]c(=N)c(C#N)c(-c3ccccn3)c2c1O (protonated)
[H]/N=c1\[n-]c2c([O-])n(CC)c(O)c2c(-c2ccccn2)c1C#N (cis-trans isomerization)
[H]/N=c1\[n-]c2c([O-])n(CC)c(O)c2c(-c2ccccn2)c1C#N (3D coordinates assigned)
[H]/N=c1\[n-]c2c([O-])n(CC)c(O)c2c(-c2ccccn2)c1C#N (optimized conformer: 79.81229258848563 kcal/mol)

>  <smiles>  (73) 
CCn1c(O)c2[nH]c(=N)c(C#N)c(-c3ccccn3)c2c1O

>  <score_type>  (73) 
oracle

>  <origin>  (73) 
adg

>  <m_score__min__energy>  (73) 
-9.2300000000000004

>  <m_primary>  (73) 
energy

$$$$
73:0
     RDKit          3D

 51 53  0  0  0  0  0  0  0  0999 V2000
   60.0450   28.2480   48.9000 C   0  0  0  0  0  0  0  0  0  0  0  0
   60.0120   27.1650   47.8230 C   0  0  0  0  0  0  0  0  0  0  0  0
   59.2960   27.6200   46.6240 N   0  0  0  0  0  0  0  0  0  0  0  0
   59.4440   28.9730   46.1600 C   0  0  0  0  0  0  0  0  0  0  0  0
   60.9140   29.4740   45.6200 S   0  0  0  0  0  0  0  0  0  0  0  0
   58.2930   29.8340   46.0590 N   0  0  0  0  0  0  0  0  0  0  0  0
   58.3590   31.2690   45.9900 C   0  0  0  0  0  0  0  0  0  0  0  0
   59.3240   31.9770   46.7280 C   0  0  0  0  0  0  0  0  0  0  0  0
   59.3610   33.3720   46.6870 C   0  0  0  0  0  0  0  0  0  0  0  0
   58.4280   34.0750   45.9260 C   0  0  0  0  0  0  0  0  0  0  0  0
   57.4470   33.3840   45.2080 C   0  0  0  0  0  0  0  0  0  0  0  0
   57.4000   31.9760   45.2390 C   0  0  0  0  0  0  0  0  0  0  0  0
   56.4270   31.2500   44.5330 O   0  0  0  0  0  0  0  0  0  0  0  0
   56.6890   30.4580   43.3800 C   0  0  0  0  0  0  0  0  0  0  0  0
   58.7660   26.6520   45.7060 C   0  0  0  0  0  0  0  0  0  0  0  0
   58.7940   25.2890   46.0250 C   0  0  0  0  0  0  0  0  0  0  0  0
   58.2770   24.3480   45.1310 C   0  0  0  0  0  0  0  0  0  0  0  0
   57.7070   24.7600   43.9200 C   0  0  0  0  0  0  0  0  0  0  0  0
   57.2050   23.7680   43.0140 N   0  0  0  0  0  0  0  0  0  0  0  0
   56.0150   22.9870   43.1860 C   0  0  0  0  0  0  0  0  0  0  0  0
   55.9200   21.8840   42.5840 O   0  0  0  0  0  0  0  0  0  0  0  0
   54.8980   23.4320   44.0920 C   0  0  0  0  0  0  0  0  0  0  0  0
   55.3790   23.5540   45.5060 C   0  0  0  0  0  0  0  0  0  0  0  0
   56.1440   22.3350   46.3820 S   0  0  0  0  0  0  0  0  0  0  0  0
   56.3590   23.3240   47.7230 C   0  0  0  0  0  0  0  0  0  0  0  0
   56.9130   22.9580   48.7920 O   0  0  0  0  0  0  0  0  0  0  0  0
   55.8760   24.5710   47.5350 N   0  0  0  0  0  0  0  0  0  0  0  0
   55.3340   24.7020   46.2960 C   0  0  0  0  0  0  0  0  0  0  0  0
   54.7780   25.8990   45.8560 O   0  0  0  0  0  0  0  0  0  0  0  0
   57.7060   26.1260   43.5880 C   0  0  0  0  0  0  0  0  0  0  0  0
   58.2250   27.0680   44.4820 C   0  0  0  0  0  0  0  0  0  0  0  0
   60.0307   27.7771   49.8940 H   0  0  0  0  0  0  0  0  0  0  0  0
   60.9618   28.8460   48.7907 H   0  0  0  0  0  0  0  0  0  0  0  0
   59.1663   28.9007   48.7907 H   0  0  0  0  0  0  0  0  0  0  0  0
   61.0443   26.9050   47.5458 H   0  0  0  0  0  0  0  0  0  0  0  0
   59.4835   26.2900   48.2294 H   0  0  0  0  0  0  0  0  0  0  0  0
   57.3430   29.4010   46.0610 H   0  0  0  0  0  0  0  0  0  0  0  0
   60.0541   31.4285   47.3413 H   0  0  0  0  0  0  0  0  0  0  0  0
   60.1279   33.9177   47.2563 H   0  0  0  0  0  0  0  0  0  0  0  0
   58.4636   35.1738   45.8904 H   0  0  0  0  0  0  0  0  0  0  0  0
   56.7076   33.9428   44.6155 H   0  0  0  0  0  0  0  0  0  0  0  0
   57.0204   29.4562   43.6909 H   0  0  0  0  0  0  0  0  0  0  0  0
   55.7719   30.3707   42.7790 H   0  0  0  0  0  0  0  0  0  0  0  0
   57.4773   30.9349   42.7790 H   0  0  0  0  0  0  0  0  0  0  0  0
   59.2241   24.9582   46.9819 H   0  0  0  0  0  0  0  0  0  0  0  0
   58.3179   23.2773   45.3798 H   0  0  0  0  0  0  0  0  0  0  0  0
   54.5250   24.4094   43.7520 H   0  0  0  0  0  0  0  0  0  0  0  0
   54.0936   22.6826   44.0557 H   0  0  0  0  0  0  0  0  0  0  0  0
   54.0230   26.3370   46.3700 H   0  0  0  0  0  0  0  0  0  0  0  0
   57.2957   26.4551   42.6219 H   0  0  0  0  0  0  0  0  0  0  0  0
   58.2085   28.1372   44.2240 H   0  0  0  0  0  0  0  0  0  0  0  0
  1  2  1  0
  2  3  1  0
  3  4  1  0
  4  5  2  0
  4  6  1  0
  6  7  1  0
  7  8  2  0
  8  9  1  0
  9 10  2  0
 10 11  1  0
 11 12  2  0
 12 13  1  0
 13 14  1  0
  3 15  1  0
 15 16  2  0
 16 17  1  0
 17 18  2  0
 18 19  1  0
 19 20  1  0
 20 21  2  0
 20 22  1  0
 22 23  1  0
 23 24  1  0
 24 25  1  0
 25 26  2  0
 25 27  1  0
 27 28  1  0
 28 29  1  0
 18 30  1  0
 30 31  2  0
 12  7  1  0
 31 15  1  0
 28 23  2  0
  1 32  1  0
  1 33  1  0
  1 34  1  0
  2 35  1  0
  2 36  1  0
  6 37  1  0
  8 38  1  0
  9 39  1  0
 10 40  1  0
 11 41  1  0
 14 42  1  0
 14 43  1  0
 14 44  1  0
 16 45  1  0
 17 46  1  0
 22 47  1  0
 22 48  1  0
 29 49  1  0
 30 50  1  0
 31 51  1  0
M  CHG  2  19  -1  27  -1
M  END
>  <UniqueID>  (74) 
69

>  <SMILES>  (74) 
CCN(C(=S)Nc1ccccc1OC)c1ccc([N-]C(=O)Cc2sc(=O)[n-]c2O)cc1

>  <Energy>  (74) 
99.9588704591762

>  <Genealogy>  (74) 
CCN(C(=S)Nc1ccccc1OC)c1ccc([N-]C(=O)Cc2sc(=O)[n-]c2O)cc1 (protonated)
CCN(C(=S)Nc1ccccc1OC)c1ccc([N-]C(=O)Cc2sc(=O)[n-]c2O)cc1 (3D coordinates assigned)
CCN(C(=S)Nc1ccccc1OC)c1ccc([N-]C(=O)Cc2sc(=O)[n-]c2O)cc1 (optimized conformer: 99.9588704591762 kcal/mol)

>  <smiles>  (74) 
CCN(C(=S)Nc1ccccc1OC)c1ccc(NC(=O)Cc2sc(=O)[nH]c2O)cc1

>  <score_type>  (74) 
oracle

>  <origin>  (74) 
adg

>  <m_score__min__energy>  (74) 
-12.65

>  <m_primary>  (74) 
energy

$$$$
74:0
     RDKit          3D

 44 47  0  0  0  0  0  0  0  0999 V2000
   57.7740   27.3560   43.6630 C   0  0  0  0  0  0  0  0  0  0  0  0
   58.0390   27.5610   45.1370 C   0  0  0  0  0  0  0  0  0  0  0  0
   58.3410   28.8530   45.6270 C   0  0  0  0  0  0  0  0  0  0  0  0
   58.3520   29.9700   44.7210 N   0  0  0  0  0  0  0  0  0  0  0  0
   57.5400   31.1500   44.8040 C   0  0  0  0  0  0  0  0  0  0  0  0
   56.3130   31.0930   44.5180 O   0  0  0  0  0  0  0  0  0  0  0  0
   58.1310   32.4230   45.2780 C   0  0  0  0  0  0  0  0  0  0  0  0
   58.1360   33.5610   44.4510 C   0  0  0  0  0  0  0  0  0  0  0  0
   58.7060   34.7550   44.8950 C   0  0  0  0  0  0  0  0  0  0  0  0
   59.2670   34.8360   46.1710 C   0  0  0  0  0  0  0  0  0  0  0  0
   59.2480   33.7220   47.0260 C   0  0  0  0  0  0  0  0  0  0  0  0
   59.8970   33.7920   48.3860 C   0  0  0  0  0  0  0  0  0  0  0  0
   59.5020   32.7020   49.1360 F   0  0  0  0  0  0  0  0  0  0  0  0
   59.5250   34.9520   49.0440 F   0  0  0  0  0  0  0  0  0  0  0  0
   61.2770   33.7850   48.2730 F   0  0  0  0  0  0  0  0  0  0  0  0
   58.6980   32.5130   46.5640 C   0  0  0  0  0  0  0  0  0  0  0  0
   58.5610   29.0400   47.0030 C   0  0  0  0  0  0  0  0  0  0  0  0
   58.5080   27.9600   47.8810 C   0  0  0  0  0  0  0  0  0  0  0  0
   58.2070   26.6860   47.4090 C   0  0  0  0  0  0  0  0  0  0  0  0
   57.9570   26.4740   46.0450 C   0  0  0  0  0  0  0  0  0  0  0  0
   57.5830   25.1140   45.6040 C   0  0  0  0  0  0  0  0  0  0  0  0
   58.5760   24.1500   45.3270 C   0  0  0  0  0  0  0  0  0  0  0  0
   58.2210   22.8560   44.8880 C   0  0  0  0  0  0  0  0  0  0  0  0
   56.8700   22.5060   44.7170 C   0  0  0  0  0  0  0  0  0  0  0  0
   55.9020   23.4680   44.9960 C   0  0  0  0  0  0  0  0  0  0  0  0
   54.5650   23.3060   44.9040 N   0  0  0  0  0  0  0  0  0  0  0  0
   54.0610   24.5010   45.2890 C   0  0  0  0  0  0  0  0  0  0  0  0
   52.7010   24.7730   45.3460 O   0  0  0  0  0  0  0  0  0  0  0  0
   55.0600   25.3970   45.6190 C   0  0  0  0  0  0  0  0  0  0  0  0
   54.8860   26.6990   46.0710 O   0  0  0  0  0  0  0  0  0  0  0  0
   56.2470   24.7310   45.4230 C   0  0  0  0  0  0  0  0  0  0  0  0
   56.9098   26.6875   43.5353 H   0  0  0  0  0  0  0  0  0  0  0  0
   57.5601   28.3261   43.1905 H   0  0  0  0  0  0  0  0  0  0  0  0
   58.6592   26.9053   43.1905 H   0  0  0  0  0  0  0  0  0  0  0  0
   57.6877   33.5094   43.4478 H   0  0  0  0  0  0  0  0  0  0  0  0
   58.7133   35.6363   44.2367 H   0  0  0  0  0  0  0  0  0  0  0  0
   59.7261   35.7770   46.5083 H   0  0  0  0  0  0  0  0  0  0  0  0
   58.7108   31.6266   47.2152 H   0  0  0  0  0  0  0  0  0  0  0  0
   58.7767   30.0471   47.3892 H   0  0  0  0  0  0  0  0  0  0  0  0
   58.7049   28.1148   48.9521 H   0  0  0  0  0  0  0  0  0  0  0  0
   58.1648   25.8395   48.1102 H   0  0  0  0  0  0  0  0  0  0  0  0
   59.6373   24.4096   45.4545 H   0  0  0  0  0  0  0  0  0  0  0  0
   59.0073   22.1160   44.6781 H   0  0  0  0  0  0  0  0  0  0  0  0
   56.5855   21.5008   44.3726 H   0  0  0  0  0  0  0  0  0  0  0  0
  1  2  1  0
  2  3  2  0
  3  4  1  0
  4  5  1  0
  5  6  2  0
  5  7  1  0
  7  8  2  0
  8  9  1  0
  9 10  2  0
 10 11  1  0
 11 12  1  0
 12 13  1  0
 12 14  1  0
 12 15  1  0
 11 16  2  0
  3 17  1  0
 17 18  2  0
 18 19  1  0
 19 20  2  0
 20 21  1  0
 21 22  2  0
 22 23  1  0
 23 24  2  0
 24 25  1  0
 25 26  1  0
 26 27  1  0
 27 28  1  0
 27 29  2  0
 29 30  1  0
 29 31  1  0
 20  2  1  0
 31 21  1  0
 16  7  1  0
 31 25  2  0
  1 32  1  0
  1 33  1  0
  1 34  1  0
  8 35  1  0
  9 36  1  0
 10 37  1  0
 16 38  1  0
 17 39  1  0
 18 40  1  0
 19 41  1  0
 22 42  1  0
 23 43  1  0
 24 44  1  0
M  CHG  4   4  -1  26  -1  28  -1  30  -1
M  END
>  <UniqueID>  (75) 
70

>  <SMILES>  (75) 
Cc1c([N-]C(=O)c2cccc(C(F)(F)F)c2)cccc1-c1cccc2[n-]c([O-])c([O-])c12

>  <Energy>  (75) 
97.48769707445899

>  <Genealogy>  (75) 
Cc1c([N-]C(=O)c2cccc(C(F)(F)F)c2)cccc1-c1cccc2[n-]c([O-])c([O-])c12 (protonated)
Cc1c([N-]C(=O)c2cccc(C(F)(F)F)c2)cccc1-c1cccc2[n-]c([O-])c([O-])c12 (3D coordinates assigned)
Cc1c([N-]C(=O)c2cccc(C(F)(F)F)c2)cccc1-c1cccc2[n-]c([O-])c([O-])c12 (optimized conformer: 97.48769707445899 kcal/mol)

>  <smiles>  (75) 
Cc1c(NC(=O)c2cccc(C(F)(F)F)c2)cccc1-c1cccc2[nH]c(O)c(O)c12

>  <score_type>  (75) 
oracle

>  <origin>  (75) 
adg

>  <m_score__min__energy>  (75) 
-19.390000000000001

>  <m_primary>  (75) 
energy

$$$$
75:0
     RDKit          3D

 42 43  0  0  0  0  0  0  0  0999 V2000
   54.2270   26.3170   46.3850 H   0  0  0  0  0  0  0  0  0  0  0  0
   55.1190   26.4060   45.9570 O   0  0  0  0  0  0  0  0  0  0  0  0
   55.8990   25.3330   46.4150 C   0  0  0  0  0  0  0  0  0  0  0  0
   55.4197   24.3873   46.1220 H   0  0  0  0  0  0  0  0  0  0  0  0
   55.9798   25.3967   47.5102 H   0  0  0  0  0  0  0  0  0  0  0  0
   57.3070   25.3910   45.8130 C   0  0  0  0  0  0  0  0  0  0  0  0
   57.6656   24.3653   45.6420 H   0  0  0  0  0  0  0  0  0  0  0  0
   57.9634   25.9216   46.5184 H   0  0  0  0  0  0  0  0  0  0  0  0
   57.3150   26.1190   44.5370 N   0  0  0  0  0  0  0  0  0  0  0  0
   56.3410   26.2040   44.1650 H   0  0  0  0  0  0  0  0  0  0  0  0
   57.8900   25.5980   43.8340 H   0  0  0  0  0  0  0  0  0  0  0  0
   57.8890   27.4250   44.7200 C   0  0  0  0  0  0  0  0  0  0  0  0
   57.0790   28.5200   44.7470 N   0  0  0  0  0  0  0  0  0  0  0  0
   57.5610   29.7810   44.9350 C   0  0  0  0  0  0  0  0  0  0  0  0
   56.7640   30.8110   44.9630 N   0  0  0  0  0  0  0  0  0  0  0  0
   57.1190   32.1790   44.7000 C   0  0  0  0  0  0  0  0  0  0  0  0
   57.4180   32.5110   43.5240 O   0  0  0  0  0  0  0  0  0  0  0  0
   57.1420   33.1810   45.7270 N   0  0  0  0  0  0  0  0  0  0  0  0
   58.2290   33.4480   46.6270 C   0  0  0  0  0  0  0  0  0  0  0  0
   58.2750   32.8560   47.8990 C   0  0  0  0  0  0  0  0  0  0  0  0
   57.4780   32.1634   48.2074 H   0  0  0  0  0  0  0  0  0  0  0  0
   59.3240   33.1390   48.7760 C   0  0  0  0  0  0  0  0  0  0  0  0
   59.3438   32.6763   49.7737 H   0  0  0  0  0  0  0  0  0  0  0  0
   60.3550   34.0130   48.3890 C   0  0  0  0  0  0  0  0  0  0  0  0
   61.4270   34.3340   49.2350 O   0  0  0  0  0  0  0  0  0  0  0  0
   62.7570   33.8550   49.0650 C   0  0  0  0  0  0  0  0  0  0  0  0
   63.2160   33.6897   50.0509 H   0  0  0  0  0  0  0  0  0  0  0  0
   62.7369   32.9076   48.5064 H   0  0  0  0  0  0  0  0  0  0  0  0
   63.3456   34.5976   48.5064 H   0  0  0  0  0  0  0  0  0  0  0  0
   60.3210   34.5870   47.1130 C   0  0  0  0  0  0  0  0  0  0  0  0
   61.1282   35.2664   46.8017 H   0  0  0  0  0  0  0  0  0  0  0  0
   59.2700   34.3070   46.2250 C   0  0  0  0  0  0  0  0  0  0  0  0
   59.2420   34.9540   44.8670 C   0  0  0  0  0  0  0  0  0  0  0  0
   59.1947   36.0469   44.9825 H   0  0  0  0  0  0  0  0  0  0  0  0
   60.1527   34.6829   44.3128 H   0  0  0  0  0  0  0  0  0  0  0  0
   58.3581   34.6052   44.3128 H   0  0  0  0  0  0  0  0  0  0  0  0
   58.9400   29.9760   45.0740 C   0  0  0  0  0  0  0  0  0  0  0  0
   59.3451   30.9884   45.2183 H   0  0  0  0  0  0  0  0  0  0  0  0
   59.7970   28.8750   45.0280 C   0  0  0  0  0  0  0  0  0  0  0  0
   60.8826   29.0184   45.1329 H   0  0  0  0  0  0  0  0  0  0  0  0
   59.2770   27.5930   44.8490 C   0  0  0  0  0  0  0  0  0  0  0  0
   59.9479   26.7222   44.8093 H   0  0  0  0  0  0  0  0  0  0  0  0
  1  2  1  0
  2  3  1  0
  3  4  1  0
  3  5  1  0
  3  6  1  0
  6  7  1  0
  6  8  1  0
  6  9  1  0
  9 10  1  0
  9 11  1  0
  9 12  1  0
 12 13  1  0
 13 14  1  0
 14 15  2  0
 15 16  1  0
 16 17  2  0
 16 18  1  0
 18 19  1  0
 19 20  2  0
 20 21  1  0
 20 22  1  0
 22 23  1  0
 22 24  2  0
 24 25  1  0
 25 26  1  0
 26 27  1  0
 26 28  1  0
 26 29  1  0
 24 30  1  0
 30 31  1  0
 30 32  2  0
 32 33  1  0
 33 34  1  0
 33 35  1  0
 33 36  1  0
 14 37  1  0
 37 38  1  0
 37 39  2  0
 39 40  1  0
 39 41  1  0
 41 42  1  0
 41 12  2  0
 32 19  1  0
M  CHG  3   9   1  13  -1  18  -1
M  END
>  <UniqueID>  (76) 
71

>  <SMILES>  (76) 
COc1ccc([N-]C(=O)/N=c2/cccc([NH2+]CCO)[n-]2)c(C)c1

>  <Energy>  (76) 
46.5503852475588

>  <Genealogy>  (76) 
COc1ccc([N-]C(=O)N=c2cccc([NH2+]CCO)[n-]2)c(C)c1 (protonated)
COc1ccc([N-]C(=O)/N=c2/cccc([NH2+]CCO)[n-]2)c(C)c1 (cis-trans isomerization)
COc1ccc([N-]C(=O)/N=c2/cccc([NH2+]CCO)[n-]2)c(C)c1 (3D coordinates assigned)
COc1ccc([N-]C(=O)/N=c2/cccc([NH2+]CCO)[n-]2)c(C)c1 (optimized conformer: 46.5503852475588 kcal/mol)

>  <smiles>  (76) 
COc1ccc(NC(=O)N=c2cccc(NCCO)[nH]2)c(C)c1

>  <score_type>  (76) 
oracle

>  <origin>  (76) 
adg

>  <m_score__min__energy>  (76) 
-8.1099999999999994

>  <m_primary>  (76) 
energy

$$$$
76:0
     RDKit          3D

 38 40  0  0  0  0  0  0  0  0999 V2000
   56.2100   31.2540   44.7490 O   0  0  0  0  0  0  0  0  0  0  0  0
   57.4600   31.4270   44.7150 C   0  0  0  0  0  0  0  0  0  0  0  0
   58.2880   30.4980   44.0660 O   0  0  0  0  0  0  0  0  0  0  0  0
   58.6890   29.2590   44.5860 C   0  0  0  0  0  0  0  0  0  0  0  0
   58.1050   28.0490   44.1660 C   0  0  0  0  0  0  0  0  0  0  0  0
   58.5290   26.8350   44.7120 C   0  0  0  0  0  0  0  0  0  0  0  0
   59.5330   26.8160   45.6810 C   0  0  0  0  0  0  0  0  0  0  0  0
   60.1050   28.0130   46.1190 C   0  0  0  0  0  0  0  0  0  0  0  0
   59.6710   29.2430   45.5900 C   0  0  0  0  0  0  0  0  0  0  0  0
   60.2240   30.4660   46.0000 O   0  0  0  0  0  0  0  0  0  0  0  0
   60.6140   30.7880   47.3080 C   0  0  0  0  0  0  0  0  0  0  0  0
   60.0020   30.2970   48.2970 O   0  0  0  0  0  0  0  0  0  0  0  0
   61.7100   31.7570   47.5250 C   0  0  0  0  0  0  0  0  0  0  0  0
   62.6910   31.5270   48.5090 C   0  0  0  0  0  0  0  0  0  0  0  0
   63.7240   32.4480   48.7080 C   0  0  0  0  0  0  0  0  0  0  0  0
   63.7900   33.6060   47.9300 C   0  0  0  0  0  0  0  0  0  0  0  0
   62.8230   33.8450   46.9510 C   0  0  0  0  0  0  0  0  0  0  0  0
   61.7880   32.9280   46.7470 C   0  0  0  0  0  0  0  0  0  0  0  0
   58.0540   32.6460   45.3060 C   0  0  0  0  0  0  0  0  0  0  0  0
   58.0180   32.8500   46.6980 C   0  0  0  0  0  0  0  0  0  0  0  0
   58.5800   34.0010   47.2580 C   0  0  0  0  0  0  0  0  0  0  0  0
   59.1820   34.9580   46.4390 C   0  0  0  0  0  0  0  0  0  0  0  0
   59.2230   34.7670   45.0570 C   0  0  0  0  0  0  0  0  0  0  0  0
   58.6640   33.6170   44.4890 C   0  0  0  0  0  0  0  0  0  0  0  0
   57.3113   28.0594   43.4045 H   0  0  0  0  0  0  0  0  0  0  0  0
   58.0707   25.8926   44.3776 H   0  0  0  0  0  0  0  0  0  0  0  0
   59.8743   25.8580   46.1002 H   0  0  0  0  0  0  0  0  0  0  0  0
   60.8982   27.9941   46.8808 H   0  0  0  0  0  0  0  0  0  0  0  0
   62.6442   30.6169   49.1250 H   0  0  0  0  0  0  0  0  0  0  0  0
   64.4861   32.2602   49.4787 H   0  0  0  0  0  0  0  0  0  0  0  0
   64.6033   34.3295   48.0882 H   0  0  0  0  0  0  0  0  0  0  0  0
   62.8761   34.7574   46.3388 H   0  0  0  0  0  0  0  0  0  0  0  0
   61.0299   33.1223   45.9740 H   0  0  0  0  0  0  0  0  0  0  0  0
   57.5451   32.0998   47.3488 H   0  0  0  0  0  0  0  0  0  0  0  0
   58.5478   34.1531   48.3470 H   0  0  0  0  0  0  0  0  0  0  0  0
   59.6239   35.8623   46.8827 H   0  0  0  0  0  0  0  0  0  0  0  0
   59.6961   35.5226   44.4126 H   0  0  0  0  0  0  0  0  0  0  0  0
   58.7012   33.4708   43.3994 H   0  0  0  0  0  0  0  0  0  0  0  0
  1  2  2  0
  2  3  1  0
  3  4  1  0
  4  5  2  0
  5  6  1  0
  6  7  2  0
  7  8  1  0
  8  9  2  0
  9 10  1  0
 10 11  1  0
 11 12  2  0
 11 13  1  0
 13 14  2  0
 14 15  1  0
 15 16  2  0
 16 17  1  0
 17 18  2  0
  2 19  1  0
 19 20  2  0
 20 21  1  0
 21 22  2  0
 22 23  1  0
 23 24  2  0
  9  4  1  0
 18 13  1  0
 24 19  1  0
  5 25  1  0
  6 26  1  0
  7 27  1  0
  8 28  1  0
 14 29  1  0
 15 30  1  0
 16 31  1  0
 17 32  1  0
 18 33  1  0
 20 34  1  0
 21 35  1  0
 22 36  1  0
 23 37  1  0
 24 38  1  0
M  END
>  <UniqueID>  (77) 
72

>  <SMILES>  (77) 
O=C(Oc1ccccc1OC(=O)c1ccccc1)c1ccccc1

>  <Energy>  (77) 
51.07487520317386

>  <Genealogy>  (77) 
O=C(Oc1ccccc1OC(=O)c1ccccc1)c1ccccc1 (3D coordinates assigned)
O=C(Oc1ccccc1OC(=O)c1ccccc1)c1ccccc1 (optimized conformer: 51.07487520317386 kcal/mol)

>  <smiles>  (77) 
O=C(Oc1ccccc1OC(=O)c1ccccc1)c1ccccc1

>  <score_type>  (77) 
oracle

>  <origin>  (77) 
adg

>  <m_score__min__energy>  (77) 
-8.3399999999999999

>  <m_primary>  (77) 
energy

$$$$
77:0
     RDKit          3D

 43 46  0  0  0  0  0  0  0  0999 V2000
   58.6460   24.6660   46.1940 C   0  0  0  0  0  0  0  0  0  0  0  0
   57.8890   25.8780   45.8430 N   0  0  0  0  0  0  0  0  0  0  0  0
   56.5220   25.9310   46.0690 C   0  0  0  0  0  0  0  0  0  0  0  0
   55.9160   24.9360   46.5540 O   0  0  0  0  0  0  0  0  0  0  0  0
   55.8110   27.0620   45.7730 N   0  0  0  0  0  0  0  0  0  0  0  0
   56.4720   28.1320   45.2750 C   0  0  0  0  0  0  0  0  0  0  0  0
   55.9430   29.3150   44.9340 N   0  0  0  0  0  0  0  0  0  0  0  0
   57.0440   30.0010   44.5190 C   0  0  0  0  0  0  0  0  0  0  0  0
   56.9670   31.3900   43.9730 C   0  0  0  0  0  0  0  0  0  0  0  0
   57.8030   32.3180   44.8100 C   0  0  0  0  0  0  0  0  0  0  0  0
   58.5770   31.8160   45.8660 C   0  0  0  0  0  0  0  0  0  0  0  0
   59.3240   32.6840   46.6670 C   0  0  0  0  0  0  0  0  0  0  0  0
   59.3110   34.0620   46.4270 C   0  0  0  0  0  0  0  0  0  0  0  0
   60.0690   34.8930   47.2640 O   0  0  0  0  0  0  0  0  0  0  0  0
   60.5390   34.5520   48.5400 C   0  0  0  0  0  0  0  0  0  0  0  0
   59.8060   34.7140   49.5550 O   0  0  0  0  0  0  0  0  0  0  0  0
   61.9240   34.0550   48.7020 C   0  0  0  0  0  0  0  0  0  0  0  0
   62.6520   33.6040   47.5850 C   0  0  0  0  0  0  0  0  0  0  0  0
   63.9590   33.1330   47.7360 C   0  0  0  0  0  0  0  0  0  0  0  0
   64.5530   33.1050   49.0000 C   0  0  0  0  0  0  0  0  0  0  0  0
   63.8400   33.5490   50.1150 C   0  0  0  0  0  0  0  0  0  0  0  0
   62.5330   34.0220   49.9710 C   0  0  0  0  0  0  0  0  0  0  0  0
   58.5090   34.5700   45.3880 C   0  0  0  0  0  0  0  0  0  0  0  0
   57.7620   33.7030   44.5860 C   0  0  0  0  0  0  0  0  0  0  0  0
   58.2080   29.2990   44.5770 N   0  0  0  0  0  0  0  0  0  0  0  0
   57.8020   28.1200   45.0680 C   0  0  0  0  0  0  0  0  0  0  0  0
   58.5470   26.9870   45.3560 C   0  0  0  0  0  0  0  0  0  0  0  0
   59.7960   26.9870   45.1750 O   0  0  0  0  0  0  0  0  0  0  0  0
   58.7036   24.5738   47.2886 H   0  0  0  0  0  0  0  0  0  0  0  0
   58.1384   23.7833   45.7779 H   0  0  0  0  0  0  0  0  0  0  0  0
   59.6619   24.7349   45.7779 H   0  0  0  0  0  0  0  0  0  0  0  0
   54.7790   27.1060   45.9330 H   0  0  0  0  0  0  0  0  0  0  0  0
   57.3407   31.3961   42.9384 H   0  0  0  0  0  0  0  0  0  0  0  0
   55.9207   31.7288   43.9934 H   0  0  0  0  0  0  0  0  0  0  0  0
   58.5963   30.7343   46.0648 H   0  0  0  0  0  0  0  0  0  0  0  0
   59.9274   32.2801   47.4933 H   0  0  0  0  0  0  0  0  0  0  0  0
   62.1894   33.6224   46.5872 H   0  0  0  0  0  0  0  0  0  0  0  0
   64.5213   32.7835   46.8575 H   0  0  0  0  0  0  0  0  0  0  0  0
   65.5817   32.7334   49.1167 H   0  0  0  0  0  0  0  0  0  0  0  0
   64.3084   33.5265   51.1100 H   0  0  0  0  0  0  0  0  0  0  0  0
   61.9770   34.3704   50.8538 H   0  0  0  0  0  0  0  0  0  0  0  0
   58.4700   35.6542   45.2064 H   0  0  0  0  0  0  0  0  0  0  0  0
   57.1388   34.1080   43.7751 H   0  0  0  0  0  0  0  0  0  0  0  0
  1  2  1  0
  2  3  1  0
  3  4  2  0
  3  5  1  0
  5  6  1  0
  6  7  1  0
  7  8  1  0
  8  9  1  0
  9 10  1  0
 10 11  2  0
 11 12  1  0
 12 13  2  0
 13 14  1  0
 14 15  1  0
 15 16  2  0
 15 17  1  0
 17 18  2  0
 18 19  1  0
 19 20  2  0
 20 21  1  0
 21 22  2  0
 13 23  1  0
 23 24  2  0
  8 25  2  0
 25 26  1  0
 26 27  1  0
 27 28  2  0
 27  2  1  0
 26  6  2  0
 24 10  1  0
 22 17  1  0
  1 29  1  0
  1 30  1  0
  1 31  1  0
  5 32  1  0
  9 33  1  0
  9 34  1  0
 11 35  1  0
 12 36  1  0
 18 37  1  0
 19 38  1  0
 20 39  1  0
 21 40  1  0
 22 41  1  0
 23 42  1  0
 24 43  1  0
M  CHG  1   7  -1
M  END
>  <UniqueID>  (78) 
73

>  <SMILES>  (78) 
Cn1c(=O)[nH]c2[n-]c(Cc3ccc(OC(=O)c4ccccc4)cc3)nc2c1=O

>  <Energy>  (78) 
91.28665057385331

>  <Genealogy>  (78) 
Cn1c(=O)[nH]c2[n-]c(Cc3ccc(OC(=O)c4ccccc4)cc3)nc2c1=O (protonated)
Cn1c(=O)[nH]c2[n-]c(Cc3ccc(OC(=O)c4ccccc4)cc3)nc2c1=O (3D coordinates assigned)
Cn1c(=O)[nH]c2[n-]c(Cc3ccc(OC(=O)c4ccccc4)cc3)nc2c1=O (optimized conformer: 91.28665057385331 kcal/mol)

>  <smiles>  (78) 
Cn1c(=O)[nH]c2[nH]c(Cc3ccc(OC(=O)c4ccccc4)cc3)nc2c1=O

>  <score_type>  (78) 
oracle

>  <origin>  (78) 
adg

>  <m_score__min__energy>  (78) 
-10.960000000000001

>  <m_primary>  (78) 
energy

$$$$
78:0
     RDKit          3D

 31 32  0  0  0  0  0  0  0  0999 V2000
   57.5300   24.0880   44.2800 C   0  0  0  0  0  0  0  0  0  0  0  0
   57.3720   25.4160   43.7910 O   0  0  0  0  0  0  0  0  0  0  0  0
   57.7990   26.5760   44.4610 C   0  0  0  0  0  0  0  0  0  0  0  0
   58.8230   27.3870   43.9340 C   0  0  0  0  0  0  0  0  0  0  0  0
   59.2390   28.5360   44.6060 C   0  0  0  0  0  0  0  0  0  0  0  0
   58.6350   28.9070   45.8120 C   0  0  0  0  0  0  0  0  0  0  0  0
   59.1120   30.1260   46.5550 C   0  0  0  0  0  0  0  0  0  0  0  0
   58.4860   31.3650   45.9750 C   0  0  0  0  0  0  0  0  0  0  0  0
   58.3110   31.4890   44.5870 C   0  0  0  0  0  0  0  0  0  0  0  0
   57.7610   32.6570   44.0470 C   0  0  0  0  0  0  0  0  0  0  0  0
   57.3920   33.7100   44.8870 C   0  0  0  0  0  0  0  0  0  0  0  0
   57.5740   33.6000   46.2690 C   0  0  0  0  0  0  0  0  0  0  0  0
   58.1220   32.4340   46.8130 C   0  0  0  0  0  0  0  0  0  0  0  0
   57.6230   28.1020   46.3510 C   0  0  0  0  0  0  0  0  0  0  0  0
   57.1900   26.9370   45.6880 C   0  0  0  0  0  0  0  0  0  0  0  0
   56.1100   26.1210   46.3020 C   0  0  0  0  0  0  0  0  0  0  0  0
   56.3720   25.2170   47.1400 O   0  0  0  0  0  0  0  0  0  0  0  0
   54.7810   26.3430   45.9590 O   0  0  0  0  0  0  0  0  0  0  0  0
   57.5286   24.0997   45.3799 H   0  0  0  0  0  0  0  0  0  0  0  0
   56.6999   23.4631   43.9189 H   0  0  0  0  0  0  0  0  0  0  0  0
   58.4836   23.6753   43.9189 H   0  0  0  0  0  0  0  0  0  0  0  0
   59.2998   27.1110   42.9819 H   0  0  0  0  0  0  0  0  0  0  0  0
   60.0462   29.1537   44.1856 H   0  0  0  0  0  0  0  0  0  0  0  0
   58.8309   30.0388   47.6149 H   0  0  0  0  0  0  0  0  0  0  0  0
   60.2056   30.1986   46.4616 H   0  0  0  0  0  0  0  0  0  0  0  0
   58.6075   30.6647   43.9217 H   0  0  0  0  0  0  0  0  0  0  0  0
   57.6192   32.7458   42.9598 H   0  0  0  0  0  0  0  0  0  0  0  0
   56.9579   34.6266   44.4611 H   0  0  0  0  0  0  0  0  0  0  0  0
   57.2858   34.4315   46.9290 H   0  0  0  0  0  0  0  0  0  0  0  0
   58.2688   32.3528   47.9001 H   0  0  0  0  0  0  0  0  0  0  0  0
   57.1590   28.3843   47.3076 H   0  0  0  0  0  0  0  0  0  0  0  0
  1  2  1  0
  2  3  1  0
  3  4  2  0
  4  5  1  0
  5  6  2  0
  6  7  1  0
  7  8  1  0
  8  9  2  0
  9 10  1  0
 10 11  2  0
 11 12  1  0
 12 13  2  0
  6 14  1  0
 14 15  2  0
 15 16  1  0
 16 17  2  0
 16 18  1  0
 15  3  1  0
 13  8  1  0
  1 19  1  0
  1 20  1  0
  1 21  1  0
  4 22  1  0
  5 23  1  0
  7 24  1  0
  7 25  1  0
  9 26  1  0
 10 27  1  0
 11 28  1  0
 12 29  1  0
 13 30  1  0
 14 31  1  0
M  CHG  1  18  -1
M  END
>  <UniqueID>  (79) 
74

>  <SMILES>  (79) 
COc1ccc(Cc2ccccc2)cc1C(=O)[O-]

>  <Energy>  (79) 
31.94093938525263

>  <Genealogy>  (79) 
COc1ccc(Cc2ccccc2)cc1C(=O)[O-] (protonated)
COc1ccc(Cc2ccccc2)cc1C(=O)[O-] (3D coordinates assigned)
COc1ccc(Cc2ccccc2)cc1C(=O)[O-] (optimized conformer: 31.94093938525263 kcal/mol)

>  <smiles>  (79) 
COc1ccc(Cc2ccccc2)cc1C(=O)O

>  <score_type>  (79) 
oracle

>  <origin>  (79) 
adg

>  <m_score__min__energy>  (79) 
-9.2699999999999996

>  <m_primary>  (79) 
energy

$$$$
79:0
     RDKit          3D

 48 51  0  0  0  0  0  0  0  0999 V2000
   57.3677   27.9262   43.6031 H   0  0  0  0  0  0  0  0  0  0  0  0
   57.5410   28.9370   44.0010 C   0  0  0  0  0  0  0  0  0  0  0  0
   56.4170   29.8880   43.9330 C   0  0  0  0  0  0  0  0  0  0  0  0
   55.4900   29.7220   43.0980 O   0  0  0  0  0  0  0  0  0  0  0  0
   56.3930   30.9810   44.8640 N   0  0  0  0  0  0  0  0  0  0  0  0
   57.3380   32.0470   45.0590 C   0  0  0  0  0  0  0  0  0  0  0  0
   57.8390   32.8360   44.0060 C   0  0  0  0  0  0  0  0  0  0  0  0
   57.4875   32.6659   42.9776 H   0  0  0  0  0  0  0  0  0  0  0  0
   58.7810   33.8340   44.2640 C   0  0  0  0  0  0  0  0  0  0  0  0
   59.1776   34.4391   43.4354 H   0  0  0  0  0  0  0  0  0  0  0  0
   59.2220   34.0680   45.5670 C   0  0  0  0  0  0  0  0  0  0  0  0
   59.9743   34.8477   45.7567 H   0  0  0  0  0  0  0  0  0  0  0  0
   58.7130   33.3160   46.6380 C   0  0  0  0  0  0  0  0  0  0  0  0
   59.1800   33.5870   48.0170 C   0  0  0  0  0  0  0  0  0  0  0  0
   59.7070   34.7590   48.4230 N   0  0  0  0  0  0  0  0  0  0  0  0
   59.9650   34.5970   49.7110 N   0  0  0  0  0  0  0  0  0  0  0  0
   59.6120   33.3780   50.0890 N   0  0  0  0  0  0  0  0  0  0  0  0
   59.1240   32.7270   49.0500 N   0  0  0  0  0  0  0  0  0  0  0  0
   58.7500   31.7540   49.0830 H   0  0  0  0  0  0  0  0  0  0  0  0
   57.7680   32.3070   46.3700 C   0  0  0  0  0  0  0  0  0  0  0  0
   57.3602   31.7130   47.2011 H   0  0  0  0  0  0  0  0  0  0  0  0
   58.7580   29.1960   44.5060 C   0  0  0  0  0  0  0  0  0  0  0  0
   59.4289   29.8213   43.8986 H   0  0  0  0  0  0  0  0  0  0  0  0
   59.2790   28.7160   45.8070 C   0  0  0  0  0  0  0  0  0  0  0  0
   59.6440   27.3730   46.0040 C   0  0  0  0  0  0  0  0  0  0  0  0
   59.5220   26.6464   45.1872 H   0  0  0  0  0  0  0  0  0  0  0  0
   60.1610   26.9580   47.2330 C   0  0  0  0  0  0  0  0  0  0  0  0
   60.4155   25.8997   47.3916 H   0  0  0  0  0  0  0  0  0  0  0  0
   60.3560   27.8830   48.2620 C   0  0  0  0  0  0  0  0  0  0  0  0
   60.7477   27.5473   49.2335 H   0  0  0  0  0  0  0  0  0  0  0  0
   60.0530   29.2430   48.0600 C   0  0  0  0  0  0  0  0  0  0  0  0
   60.2750   30.2230   49.0390 O   0  0  0  0  0  0  0  0  0  0  0  0
   61.5450   30.5540   49.6030 C   0  0  0  0  0  0  0  0  0  0  0  0
   61.4025   30.8671   50.6478 H   0  0  0  0  0  0  0  0  0  0  0  0
   62.1917   29.6659   49.5479 H   0  0  0  0  0  0  0  0  0  0  0  0
   62.2070   31.6730   48.8410 C   0  0  0  0  0  0  0  0  0  0  0  0
   63.1780   32.4760   49.4600 C   0  0  0  0  0  0  0  0  0  0  0  0
   63.4562   32.2905   50.5079 H   0  0  0  0  0  0  0  0  0  0  0  0
   63.7920   33.5100   48.7490 C   0  0  0  0  0  0  0  0  0  0  0  0
   64.5460   34.1424   49.2404 H   0  0  0  0  0  0  0  0  0  0  0  0
   63.4490   33.7420   47.4130 C   0  0  0  0  0  0  0  0  0  0  0  0
   63.9275   34.5619   46.8573 H   0  0  0  0  0  0  0  0  0  0  0  0
   62.5000   32.9340   46.7840 C   0  0  0  0  0  0  0  0  0  0  0  0
   62.2367   33.1125   45.7310 H   0  0  0  0  0  0  0  0  0  0  0  0
   61.8850   31.8990   47.4920 C   0  0  0  0  0  0  0  0  0  0  0  0
   61.1449   31.2576   46.9911 H   0  0  0  0  0  0  0  0  0  0  0  0
   59.5170   29.6460   46.8300 C   0  0  0  0  0  0  0  0  0  0  0  0
   59.2793   30.7071   46.6639 H   0  0  0  0  0  0  0  0  0  0  0  0
  1  2  1  0
  2  3  1  0
  3  4  2  0
  3  5  1  0
  5  6  1  0
  6  7  2  0
  7  8  1  0
  7  9  1  0
  9 10  1  0
  9 11  2  0
 11 12  1  0
 11 13  1  0
 13 14  1  0
 14 15  2  0
 15 16  1  0
 16 17  1  0
 17 18  2  0
 18 19  1  0
 13 20  2  0
 20 21  1  0
  2 22  2  0
 22 23  1  0
 22 24  1  0
 24 25  2  0
 25 26  1  0
 25 27  1  0
 27 28  1  0
 27 29  2  0
 29 30  1  0
 29 31  1  0
 31 32  1  0
 32 33  1  0
 33 34  1  0
 33 35  1  0
 33 36  1  0
 36 37  2  0
 37 38  1  0
 37 39  1  0
 39 40  1  0
 39 41  2  0
 41 42  1  0
 41 43  1  0
 43 44  1  0
 43 45  2  0
 45 46  1  0
 31 47  2  0
 47 48  1  0
 20  6  1  0
 47 24  1  0
 18 14  1  0
 45 36  1  0
M  CHG  3   5  -1  16  -1  18   1
M  END
>  <UniqueID>  (80) 
75

>  <SMILES>  (80) 
O=C(/C=C\c1cccc(OCc2ccccc2)c1)[N-]c1cccc(-c2n[n-]n[nH+]2)c1

>  <Energy>  (80) 
105.60032884397413

>  <Genealogy>  (80) 
O=C(C=Cc1cccc(OCc2ccccc2)c1)[N-]c1cccc(-c2n[n-]n[nH+]2)c1 (protonated)
O=C(/C=C\c1cccc(OCc2ccccc2)c1)[N-]c1cccc(-c2n[n-]n[nH+]2)c1 (cis-trans isomerization)
O=C(/C=C\c1cccc(OCc2ccccc2)c1)[N-]c1cccc(-c2n[n-]n[nH+]2)c1 (3D coordinates assigned)
O=C(/C=C\c1cccc(OCc2ccccc2)c1)[N-]c1cccc(-c2n[n-]n[nH+]2)c1 (optimized conformer: 105.60032884397413 kcal/mol)

>  <smiles>  (80) 
O=C(C=Cc1cccc(OCc2ccccc2)c1)Nc1cccc(-c2nn[nH]n2)c1

>  <score_type>  (80) 
oracle

>  <origin>  (80) 
adg

>  <m_score__min__energy>  (80) 
-12.83

>  <m_primary>  (80) 
energy

$$$$
80:0
     RDKit          3D

 51 53  0  0  0  0  0  0  0  0999 V2000
   60.5930   33.8620   50.2700 C   0  0  0  0  0  0  0  0  0  0  0  0
   60.4750   34.4670   48.9860 O   0  0  0  0  0  0  0  0  0  0  0  0
   59.7900   33.8970   47.9040 C   0  0  0  0  0  0  0  0  0  0  0  0
   58.8120   32.8970   48.0700 C   0  0  0  0  0  0  0  0  0  0  0  0
   58.1630   32.3530   46.9570 C   0  0  0  0  0  0  0  0  0  0  0  0
   58.4720   32.8040   45.6640 C   0  0  0  0  0  0  0  0  0  0  0  0
   57.8150   32.1840   44.4620 C   0  0  0  0  0  0  0  0  0  0  0  0
   56.5690   31.5310   44.8680 N   0  0  0  0  0  0  0  0  0  0  0  0
   56.3860   30.0340   44.0100 S   0  0  0  0  0  0  0  0  0  0  0  0
   55.1400   29.3320   44.4730 O   0  0  0  0  0  0  0  0  0  0  0  0
   56.2780   30.3340   42.5410 O   0  0  0  0  0  0  0  0  0  0  0  0
   57.7660   29.0250   44.2940 N   0  0  0  0  0  0  0  0  0  0  0  0
   58.4530   28.9540   45.5460 C   0  0  0  0  0  0  0  0  0  0  0  0
   57.8350   28.5230   46.5550 O   0  0  0  0  0  0  0  0  0  0  0  0
   59.8390   29.3190   45.6520 N   0  0  0  0  0  0  0  0  0  0  0  0
   60.4660   29.7300   46.8800 C   0  0  0  0  0  0  0  0  0  0  0  0
   61.3920   30.7830   46.8610 C   0  0  0  0  0  0  0  0  0  0  0  0
   61.9840   31.2290   48.0450 C   0  0  0  0  0  0  0  0  0  0  0  0
   61.6600   30.6290   49.2770 C   0  0  0  0  0  0  0  0  0  0  0  0
   62.2530   31.1180   50.5460 C   0  0  0  0  0  0  0  0  0  0  0  0
   61.5680   31.0520   51.6040 O   0  0  0  0  0  0  0  0  0  0  0  0
   63.6180   31.6880   50.6190 C   0  0  0  0  0  0  0  0  0  0  0  0
   64.6560   30.9510   51.2180 C   0  0  0  0  0  0  0  0  0  0  0  0
   65.9520   31.4720   51.2780 C   0  0  0  0  0  0  0  0  0  0  0  0
   66.2300   32.7270   50.7270 C   0  0  0  0  0  0  0  0  0  0  0  0
   68.0000   33.4360   50.8080 Br  0  0  0  0  0  0  0  0  0  0  0  0
   65.2110   33.4580   50.1090 C   0  0  0  0  0  0  0  0  0  0  0  0
   63.9120   32.9420   50.0510 C   0  0  0  0  0  0  0  0  0  0  0  0
   60.7170   29.5890   49.2970 C   0  0  0  0  0  0  0  0  0  0  0  0
   60.1230   29.1440   48.1120 C   0  0  0  0  0  0  0  0  0  0  0  0
   59.4530   33.7950   45.4980 C   0  0  0  0  0  0  0  0  0  0  0  0
   60.1000   34.3390   46.6120 C   0  0  0  0  0  0  0  0  0  0  0  0
   60.4444   34.6239   51.0494 H   0  0  0  0  0  0  0  0  0  0  0  0
   59.8313   33.0755   50.3761 H   0  0  0  0  0  0  0  0  0  0  0  0
   61.5944   33.4194   50.3761 H   0  0  0  0  0  0  0  0  0  0  0  0
   58.5575   32.5423   49.0797 H   0  0  0  0  0  0  0  0  0  0  0  0
   57.4059   31.5671   47.0956 H   0  0  0  0  0  0  0  0  0  0  0  0
   57.5942   32.9662   43.7208 H   0  0  0  0  0  0  0  0  0  0  0  0
   58.4915   31.4385   44.0187 H   0  0  0  0  0  0  0  0  0  0  0  0
   55.7710   32.1420   44.5770 H   0  0  0  0  0  0  0  0  0  0  0  0
   60.4440   29.2080   44.8090 H   0  0  0  0  0  0  0  0  0  0  0  0
   61.6543   31.2616   45.9060 H   0  0  0  0  0  0  0  0  0  0  0  0
   62.7091   32.0556   48.0147 H   0  0  0  0  0  0  0  0  0  0  0  0
   64.4464   29.9579   51.6421 H   0  0  0  0  0  0  0  0  0  0  0  0
   66.7544   30.8938   51.7594 H   0  0  0  0  0  0  0  0  0  0  0  0
   65.4312   34.4411   49.6674 H   0  0  0  0  0  0  0  0  0  0  0  0
   63.1157   33.5195   49.5587 H   0  0  0  0  0  0  0  0  0  0  0  0
   60.4430   29.1200   50.2536 H   0  0  0  0  0  0  0  0  0  0  0  0
   59.3830   28.3307   48.1433 H   0  0  0  0  0  0  0  0  0  0  0  0
   59.7134   34.1446   44.4881 H   0  0  0  0  0  0  0  0  0  0  0  0
   60.8599   35.1219   46.4719 H   0  0  0  0  0  0  0  0  0  0  0  0
  1  2  1  0
  2  3  1  0
  3  4  2  0
  4  5  1  0
  5  6  2  0
  6  7  1  0
  7  8  1  0
  8  9  1  0
  9 10  2  0
  9 11  2  0
  9 12  1  0
 12 13  1  0
 13 14  2  0
 13 15  1  0
 15 16  1  0
 16 17  2  0
 17 18  1  0
 18 19  2  0
 19 20  1  0
 20 21  2  0
 20 22  1  0
 22 23  2  0
 23 24  1  0
 24 25  2  0
 25 26  1  0
 25 27  1  0
 27 28  2  0
 19 29  1  0
 29 30  2  0
  6 31  1  0
 31 32  2  0
 32  3  1  0
 30 16  1  0
 28 22  1  0
  1 33  1  0
  1 34  1  0
  1 35  1  0
  4 36  1  0
  5 37  1  0
  7 38  1  0
  7 39  1  0
  8 40  1  0
 15 41  1  0
 17 42  1  0
 18 43  1  0
 23 44  1  0
 24 45  1  0
 27 46  1  0
 28 47  1  0
 29 48  1  0
 30 49  1  0
 31 50  1  0
 32 51  1  0
M  CHG  1  12  -1
M  END
>  <UniqueID>  (81) 
76

>  <SMILES>  (81) 
COc1ccc(CNS(=O)(=O)[N-]C(=O)Nc2ccc(C(=O)c3ccc(Br)cc3)cc2)cc1

>  <Energy>  (81) 
60.46139372853813

>  <Genealogy>  (81) 
COc1ccc(CNS(=O)(=O)[N-]C(=O)Nc2ccc(C(=O)c3ccc(Br)cc3)cc2)cc1 (protonated)
COc1ccc(CNS(=O)(=O)[N-]C(=O)Nc2ccc(C(=O)c3ccc(Br)cc3)cc2)cc1 (3D coordinates assigned)
COc1ccc(CNS(=O)(=O)[N-]C(=O)Nc2ccc(C(=O)c3ccc(Br)cc3)cc2)cc1 (optimized conformer: 60.46139372853813 kcal/mol)

>  <smiles>  (81) 
COc1ccc(CNS(=O)(=O)NC(=O)Nc2ccc(C(=O)c3ccc(Br)cc3)cc2)cc1

>  <score_type>  (81) 
oracle

>  <origin>  (81) 
adg

>  <m_score__min__energy>  (81) 
-10.02

>  <m_primary>  (81) 
energy

$$$$
81:0
     RDKit          3D

 39 41  0  0  0  0  0  0  0  0999 V2000
   57.2370   33.8180   45.8820 C   0  0  0  0  0  0  0  0  0  0  0  0
   58.5370   33.3050   46.3460 C   0  0  0  0  0  0  0  0  0  0  0  0
   59.3610   34.0350   47.1210 N   0  0  0  0  0  0  0  0  0  0  0  0
   60.5530   33.5140   47.5240 C   0  0  0  0  0  0  0  0  0  0  0  0
   61.3810   34.2510   48.3040 N   0  0  0  0  0  0  0  0  0  0  0  0
   62.5690   33.7860   48.7290 C   0  0  0  0  0  0  0  0  0  0  0  0
   62.9760   32.5370   48.3810 N   0  0  0  0  0  0  0  0  0  0  0  0
   62.1710   31.7750   47.6020 C   0  0  0  0  0  0  0  0  0  0  0  0
   60.9440   32.2390   47.1540 C   0  0  0  0  0  0  0  0  0  0  0  0
   60.1090   31.4680   46.3560 C   0  0  0  0  0  0  0  0  0  0  0  0
   60.4860   30.3250   46.0380 O   0  0  0  0  0  0  0  0  0  0  0  0
   58.9090   32.0270   45.9640 C   0  0  0  0  0  0  0  0  0  0  0  0
   58.0150   31.2290   45.1220 C   0  0  0  0  0  0  0  0  0  0  0  0
   57.8180   31.7070   43.8290 C   0  0  0  0  0  0  0  0  0  0  0  0
   56.9840   30.9880   42.9990 C   0  0  0  0  0  0  0  0  0  0  0  0
   56.3710   29.8240   43.4590 C   0  0  0  0  0  0  0  0  0  0  0  0
   56.5520   29.3370   44.7270 C   0  0  0  0  0  0  0  0  0  0  0  0
   55.9980   28.2160   45.2620 O   0  0  0  0  0  0  0  0  0  0  0  0
   56.6990   27.1370   45.7600 C   0  0  0  0  0  0  0  0  0  0  0  0
   57.8560   26.7150   44.8530 C   0  0  0  0  0  0  0  0  0  0  0  0
   55.8480   25.9050   45.9830 C   0  0  0  0  0  0  0  0  0  0  0  0
   57.4030   30.0840   45.5520 C   0  0  0  0  0  0  0  0  0  0  0  0
   56.6093   34.0657   46.7507 H   0  0  0  0  0  0  0  0  0  0  0  0
   57.3950   34.7212   45.2743 H   0  0  0  0  0  0  0  0  0  0  0  0
   56.7356   33.0503   45.2743 H   0  0  0  0  0  0  0  0  0  0  0  0
   59.0920   35.0050   47.4170 H   0  0  0  0  0  0  0  0  0  0  0  0
   63.2123   34.4176   49.3593 H   0  0  0  0  0  0  0  0  0  0  0  0
   62.4989   30.7641   47.3183 H   0  0  0  0  0  0  0  0  0  0  0  0
   58.3110   32.6269   43.4815 H   0  0  0  0  0  0  0  0  0  0  0  0
   56.8020   31.3342   41.9709 H   0  0  0  0  0  0  0  0  0  0  0  0
   55.7121   29.2712   42.7732 H   0  0  0  0  0  0  0  0  0  0  0  0
   57.0747   27.5055   46.7260 H   0  0  0  0  0  0  0  0  0  0  0  0
   58.7111   26.4031   45.4706 H   0  0  0  0  0  0  0  0  0  0  0  0
   57.5367   25.8754   44.2180 H   0  0  0  0  0  0  0  0  0  0  0  0
   58.1522   27.5630   44.2180 H   0  0  0  0  0  0  0  0  0  0  0  0
   55.7287   25.7323   47.0628 H   0  0  0  0  0  0  0  0  0  0  0  0
   54.8595   26.0542   45.5241 H   0  0  0  0  0  0  0  0  0  0  0  0
   56.3375   25.0333   45.5241 H   0  0  0  0  0  0  0  0  0  0  0  0
   57.5851   29.7379   46.5802 H   0  0  0  0  0  0  0  0  0  0  0  0
  1  2  1  0
  2  3  1  0
  3  4  1  0
  4  5  2  0
  5  6  1  0
  6  7  2  0
  7  8  1  0
  8  9  2  0
  9 10  1  0
 10 11  2  0
 10 12  1  0
 12 13  1  0
 13 14  2  0
 14 15  1  0
 15 16  2  0
 16 17  1  0
 17 18  1  0
 18 19  1  0
 19 20  1  0
 19 21  1  0
 17 22  2  0
 12  2  2  0
 22 13  1  0
  9  4  1  0
  1 23  1  0
  1 24  1  0
  1 25  1  0
  3 26  1  0
  6 27  1  0
  8 28  1  0
 14 29  1  0
 15 30  1  0
 16 31  1  0
 19 32  1  0
 20 33  1  0
 20 34  1  0
 20 35  1  0
 21 36  1  0
 21 37  1  0
 21 38  1  0
 22 39  1  0
M  END
>  <smiles>  (82) 
Cc1[nH]c2ncncc2c(=O)c1-c1cccc(OC(C)C)c1

>  <score_type>  (82) 
oracle

>  <origin>  (82) 
adg

>  <m_score__min__energy>  (82) 
-7.4000000000000004

>  <m_primary>  (82) 
energy

$$$$
82:0
     RDKit          3D

 47 49  0  0  0  0  0  0  0  0999 V2000
   56.4610   29.7120   43.2830 C   0  0  0  0  0  0  0  0  0  0  0  0
   56.2290   30.5050   44.4440 O   0  0  0  0  0  0  0  0  0  0  0  0
   57.1250   31.4600   44.9430 C   0  0  0  0  0  0  0  0  0  0  0  0
   57.4070   32.6630   44.2590 C   0  0  0  0  0  0  0  0  0  0  0  0
   58.3120   33.5830   44.7990 C   0  0  0  0  0  0  0  0  0  0  0  0
   58.9400   33.3190   46.0260 C   0  0  0  0  0  0  0  0  0  0  0  0
   60.1360   34.4480   46.6550 S   0  0  0  0  0  0  0  0  0  0  0  0
   60.0290   35.7410   45.8980 O   0  0  0  0  0  0  0  0  0  0  0  0
   59.8870   34.7150   48.1140 O   0  0  0  0  0  0  0  0  0  0  0  0
   61.7230   33.7890   46.4340 N   0  0  0  0  0  0  0  0  0  0  0  0
   62.4960   33.3180   47.5410 C   0  0  0  0  0  0  0  0  0  0  0  0
   63.3100   34.2290   48.2260 C   0  0  0  0  0  0  0  0  0  0  0  0
   64.1750   33.7860   49.2300 C   0  0  0  0  0  0  0  0  0  0  0  0
   64.2330   32.4270   49.5540 C   0  0  0  0  0  0  0  0  0  0  0  0
   63.4060   31.5180   48.8970 C   0  0  0  0  0  0  0  0  0  0  0  0
   62.5130   31.9520   47.9060 C   0  0  0  0  0  0  0  0  0  0  0  0
   61.6390   30.9910   47.2890 N   0  0  0  0  0  0  0  0  0  0  0  0
   60.9620   29.9660   48.0360 C   0  0  0  0  0  0  0  0  0  0  0  0
   61.2690   29.7730   49.2470 O   0  0  0  0  0  0  0  0  0  0  0  0
   59.9340   29.1050   47.3980 C   0  0  0  0  0  0  0  0  0  0  0  0
   59.8540   28.9780   45.9990 C   0  0  0  0  0  0  0  0  0  0  0  0
   58.8740   28.1730   45.4110 C   0  0  0  0  0  0  0  0  0  0  0  0
   57.9480   27.4760   46.2060 C   0  0  0  0  0  0  0  0  0  0  0  0
   56.9040   26.6240   45.5850 C   0  0  0  0  0  0  0  0  0  0  0  0
   55.5390   26.7410   45.9800 N   0  0  0  0  0  0  0  0  0  0  0  0
   57.2120   25.7820   44.7020 O   0  0  0  0  0  0  0  0  0  0  0  0
   58.0230   27.6080   47.6040 C   0  0  0  0  0  0  0  0  0  0  0  0
   59.0020   28.4160   48.1920 C   0  0  0  0  0  0  0  0  0  0  0  0
   58.6630   32.1210   46.7050 C   0  0  0  0  0  0  0  0  0  0  0  0
   57.7610   31.2000   46.1640 C   0  0  0  0  0  0  0  0  0  0  0  0
   56.7579   28.6970   43.5856 H   0  0  0  0  0  0  0  0  0  0  0  0
   55.5401   29.6612   42.6836 H   0  0  0  0  0  0  0  0  0  0  0  0
   57.2641   30.1656   42.6836 H   0  0  0  0  0  0  0  0  0  0  0  0
   56.9138   32.8771   43.2993 H   0  0  0  0  0  0  0  0  0  0  0  0
   58.5321   34.5164   44.2601 H   0  0  0  0  0  0  0  0  0  0  0  0
   63.2681   35.2985   47.9723 H   0  0  0  0  0  0  0  0  0  0  0  0
   64.8105   34.5066   49.7656 H   0  0  0  0  0  0  0  0  0  0  0  0
   64.9315   32.0754   50.3276 H   0  0  0  0  0  0  0  0  0  0  0  0
   63.4539   30.4504   49.1578 H   0  0  0  0  0  0  0  0  0  0  0  0
   61.6880   30.8940   46.2510 H   0  0  0  0  0  0  0  0  0  0  0  0
   60.5698   29.5176   45.3615 H   0  0  0  0  0  0  0  0  0  0  0  0
   58.8271   28.0842   44.3156 H   0  0  0  0  0  0  0  0  0  0  0  0
   54.7700   26.7150   45.2720 H   0  0  0  0  0  0  0  0  0  0  0  0
   57.3051   27.0708   48.2412 H   0  0  0  0  0  0  0  0  0  0  0  0
   59.0425   28.5128   49.2870 H   0  0  0  0  0  0  0  0  0  0  0  0
   59.1568   31.9070   47.6644 H   0  0  0  0  0  0  0  0  0  0  0  0
   57.5490   30.2638   46.7012 H   0  0  0  0  0  0  0  0  0  0  0  0
  1  2  1  0
  2  3  1  0
  3  4  2  0
  4  5  1  0
  5  6  2  0
  6  7  1  0
  7  8  2  0
  7  9  2  0
  7 10  1  0
 10 11  1  0
 11 12  2  0
 12 13  1  0
 13 14  2  0
 14 15  1  0
 15 16  2  0
 16 17  1  0
 17 18  1  0
 18 19  2  0
 18 20  1  0
 20 21  2  0
 21 22  1  0
 22 23  2  0
 23 24  1  0
 24 25  1  0
 24 26  2  0
 23 27  1  0
 27 28  2  0
  6 29  1  0
 29 30  2  0
 30  3  1  0
 16 11  1  0
 28 20  1  0
  1 31  1  0
  1 32  1  0
  1 33  1  0
  4 34  1  0
  5 35  1  0
 12 36  1  0
 13 37  1  0
 14 38  1  0
 15 39  1  0
 17 40  1  0
 21 41  1  0
 22 42  1  0
 25 43  1  0
 27 44  1  0
 28 45  1  0
 29 46  1  0
 30 47  1  0
M  CHG  2  10  -1  25  -1
M  END
>  <UniqueID>  (83) 
77

>  <SMILES>  (83) 
COc1ccc(S(=O)(=O)[N-]c2ccccc2NC(=O)c2ccc(C([NH-])=O)cc2)cc1

>  <Energy>  (83) 
63.31913592877032

>  <Genealogy>  (83) 
COc1ccc(S(=O)(=O)[N-]c2ccccc2NC(=O)c2ccc(C([NH-])=O)cc2)cc1 (protonated)
COc1ccc(S(=O)(=O)[N-]c2ccccc2NC(=O)c2ccc(C([NH-])=O)cc2)cc1 (3D coordinates assigned)
COc1ccc(S(=O)(=O)[N-]c2ccccc2NC(=O)c2ccc(C([NH-])=O)cc2)cc1 (optimized conformer: 63.31913592877032 kcal/mol)

>  <smiles>  (83) 
COc1ccc(S(=O)(=O)Nc2ccccc2NC(=O)c2ccc(C(N)=O)cc2)cc1

>  <score_type>  (83) 
oracle

>  <origin>  (83) 
adg

>  <m_score__min__energy>  (83) 
-12.01

>  <m_primary>  (83) 
energy

$$$$
83:0
     RDKit          3D

 29 30  0  0  0  0  0  0  0  0999 V2000
   57.5620   29.9920   46.1060 H   0  0  0  0  0  0  0  0  0  0  0  0
   58.2050   30.6320   46.5530 O   0  0  0  0  0  0  0  0  0  0  0  0
   58.3840   31.9520   46.1260 C   0  0  0  0  0  0  0  0  0  0  0  0
   58.6560   32.9810   47.0520 C   0  0  0  0  0  0  0  0  0  0  0  0
   58.7820   32.6610   48.7770 Cl  0  0  0  0  0  0  0  0  0  0  0  0
   58.8350   34.2930   46.6060 C   0  0  0  0  0  0  0  0  0  0  0  0
   59.0543   35.0920   47.3295 H   0  0  0  0  0  0  0  0  0  0  0  0
   58.7370   34.5940   45.2490 C   0  0  0  0  0  0  0  0  0  0  0  0
   58.8735   35.6301   44.9057 H   0  0  0  0  0  0  0  0  0  0  0  0
   58.4660   33.5840   44.3240 C   0  0  0  0  0  0  0  0  0  0  0  0
   58.3830   33.8310   43.2553 H   0  0  0  0  0  0  0  0  0  0  0  0
   58.2980   32.2510   44.7480 C   0  0  0  0  0  0  0  0  0  0  0  0
   57.9930   31.1660   43.7800 C   0  0  0  0  0  0  0  0  0  0  0  0
   58.8229   30.5434   43.4145 H   0  0  0  0  0  0  0  0  0  0  0  0
   56.7580   30.9080   43.3300 C   0  0  0  0  0  0  0  0  0  0  0  0
   56.4023   31.4210   42.4243 H   0  0  0  0  0  0  0  0  0  0  0  0
   55.8570   29.9530   44.0150 C   0  0  0  0  0  0  0  0  0  0  0  0
   54.7590   29.6390   43.4820 O   0  0  0  0  0  0  0  0  0  0  0  0
   56.2290   29.3090   45.2430 N   0  0  0  0  0  0  0  0  0  0  0  0
   56.6340   28.0810   45.3820 C   0  0  0  0  0  0  0  0  0  0  0  0
   55.8810   27.0800   45.8880 N   0  0  0  0  0  0  0  0  0  0  0  0
   56.5510   25.8960   45.8700 C   0  0  0  0  0  0  0  0  0  0  0  0
   55.9520   24.6430   46.4180 C   0  0  0  0  0  0  0  0  0  0  0  0
   55.9691   24.6787   47.5173 H   0  0  0  0  0  0  0  0  0  0  0  0
   54.9125   24.5509   46.0702 H   0  0  0  0  0  0  0  0  0  0  0  0
   56.5331   23.7762   46.0702 H   0  0  0  0  0  0  0  0  0  0  0  0
   57.8430   25.9540   45.3520 C   0  0  0  0  0  0  0  0  0  0  0  0
   58.5428   25.1099   45.2637 H   0  0  0  0  0  0  0  0  0  0  0  0
   58.1450   27.5430   44.8850 S   0  0  0  0  0  0  0  0  0  0  0  0
  1  2  1  0
  2  3  1  0
  3  4  2  0
  4  5  1  0
  4  6  1  0
  6  7  1  0
  6  8  2  0
  8  9  1  0
  8 10  1  0
 10 11  1  0
 10 12  2  0
 12 13  1  0
 13 14  1  0
 13 15  2  0
 15 16  1  0
 15 17  1  0
 17 18  2  0
 17 19  1  0
 19 20  2  3
 20 21  1  0
 21 22  1  0
 22 23  1  0
 23 24  1  0
 23 25  1  0
 23 26  1  0
 22 27  2  0
 27 28  1  0
 27 29  1  0
 12  3  1  0
 29 20  1  0
M  CHG  1  21  -1
M  END
>  <UniqueID>  (84) 
78

>  <SMILES>  (84) 
Cc1csc(=NC(=O)/C=C/c2cccc(Cl)c2O)[n-]1

>  <Energy>  (84) 
66.19640521879471

>  <Genealogy>  (84) 
Cc1csc(=NC(=O)C=Cc2cccc(Cl)c2O)[n-]1 (protonated)
Cc1csc(=NC(=O)/C=C/c2cccc(Cl)c2O)[n-]1 (cis-trans isomerization)
Cc1csc(=NC(=O)/C=C/c2cccc(Cl)c2O)[n-]1 (3D coordinates assigned)
Cc1csc(=NC(=O)/C=C/c2cccc(Cl)c2O)[n-]1 (optimized conformer: 66.19640521879471 kcal/mol)

>  <smiles>  (84) 
Cc1csc(=NC(=O)C=Cc2cccc(Cl)c2O)[nH]1

>  <score_type>  (84) 
oracle

>  <origin>  (84) 
adg

>  <m_score__min__energy>  (84) 
-9.9100000000000001

>  <m_primary>  (84) 
energy

$$$$
84:0
     RDKit          3D

 46 48  0  0  0  0  0  0  0  0999 V2000
   55.1120   24.4640   46.4110 O   0  0  0  0  0  0  0  0  0  0  0  0
   55.7550   25.4700   46.0150 C   0  0  0  0  0  0  0  0  0  0  0  0
   55.1350   26.7130   45.9790 O   0  0  0  0  0  0  0  0  0  0  0  0
   57.1640   25.3230   45.5330 C   0  0  0  0  0  0  0  0  0  0  0  0
   58.1460   25.8450   46.5840 C   0  0  0  0  0  0  0  0  0  0  0  0
   58.2600   27.3340   46.4930 C   0  0  0  0  0  0  0  0  0  0  0  0
   59.0690   28.0610   47.3080 N   0  0  0  0  0  0  0  0  0  0  0  0
   58.7970   29.3260   46.9340 C   0  0  0  0  0  0  0  0  0  0  0  0
   57.8680   29.3430   45.9560 C   0  0  0  0  0  0  0  0  0  0  0  0
   57.5030   28.0890   45.6590 N   0  0  0  0  0  0  0  0  0  0  0  0
   57.4040   30.5400   45.4420 C   0  0  0  0  0  0  0  0  0  0  0  0
   56.5250   30.5440   44.5370 O   0  0  0  0  0  0  0  0  0  0  0  0
   57.9220   31.7120   45.9470 N   0  0  0  0  0  0  0  0  0  0  0  0
   57.4170   33.0070   45.4440 C   0  0  0  0  0  0  0  0  0  0  0  0
   58.4750   33.7330   44.5960 C   0  0  0  0  0  0  0  0  0  0  0  0
   59.1200   34.9220   45.3190 C   0  0  0  0  0  0  0  0  0  0  0  0
   60.3500   34.5600   45.8870 O   0  0  0  0  0  0  0  0  0  0  0  0
   58.8830   31.6710   46.9480 C   0  0  0  0  0  0  0  0  0  0  0  0
   59.3550   32.7500   47.4070 O   0  0  0  0  0  0  0  0  0  0  0  0
   59.3250   30.4660   47.4560 N   0  0  0  0  0  0  0  0  0  0  0  0
   60.2750   30.4000   48.5800 C   0  0  0  0  0  0  0  0  0  0  0  0
   61.4000   31.3800   48.3670 C   0  0  0  0  0  0  0  0  0  0  0  0
   62.2880   31.2190   47.2890 C   0  0  0  0  0  0  0  0  0  0  0  0
   63.3590   32.1010   47.1200 C   0  0  0  0  0  0  0  0  0  0  0  0
   63.5550   33.1460   48.0270 C   0  0  0  0  0  0  0  0  0  0  0  0
   62.6800   33.3100   49.1050 C   0  0  0  0  0  0  0  0  0  0  0  0
   61.6080   32.4290   49.2760 C   0  0  0  0  0  0  0  0  0  0  0  0
   57.3716   24.2602   45.3396 H   0  0  0  0  0  0  0  0  0  0  0  0
   57.2872   25.9072   44.6091 H   0  0  0  0  0  0  0  0  0  0  0  0
   57.7858   25.5691   47.5861 H   0  0  0  0  0  0  0  0  0  0  0  0
   59.1349   25.3984   46.4032 H   0  0  0  0  0  0  0  0  0  0  0  0
   56.7890   27.7700   44.9680 H   0  0  0  0  0  0  0  0  0  0  0  0
   56.5251   32.8272   44.8258 H   0  0  0  0  0  0  0  0  0  0  0  0
   57.1724   33.6416   46.3085 H   0  0  0  0  0  0  0  0  0  0  0  0
   59.2649   33.0141   44.3327 H   0  0  0  0  0  0  0  0  0  0  0  0
   57.9635   34.1306   43.7070 H   0  0  0  0  0  0  0  0  0  0  0  0
   59.2831   35.7359   44.5973 H   0  0  0  0  0  0  0  0  0  0  0  0
   58.4458   35.2490   46.1243 H   0  0  0  0  0  0  0  0  0  0  0  0
   60.1430   33.9680   46.6570 H   0  0  0  0  0  0  0  0  0  0  0  0
   59.7501   30.6466   49.5147 H   0  0  0  0  0  0  0  0  0  0  0  0
   60.6905   29.3833   48.6404 H   0  0  0  0  0  0  0  0  0  0  0  0
   62.1392   30.3952   46.5754 H   0  0  0  0  0  0  0  0  0  0  0  0
   64.0482   31.9725   46.2724 H   0  0  0  0  0  0  0  0  0  0  0  0
   64.3980   33.8397   47.8927 H   0  0  0  0  0  0  0  0  0  0  0  0
   62.8350   34.1324   49.8188 H   0  0  0  0  0  0  0  0  0  0  0  0
   60.9239   32.5587   50.1276 H   0  0  0  0  0  0  0  0  0  0  0  0
  1  2  2  0
  2  3  1  0
  2  4  1  0
  4  5  1  0
  5  6  1  0
  6  7  2  0
  7  8  1  0
  8  9  2  0
  9 10  1  0
  9 11  1  0
 11 12  2  0
 11 13  1  0
 13 14  1  0
 14 15  1  0
 15 16  1  0
 16 17  1  0
 13 18  1  0
 18 19  2  0
 18 20  1  0
 20 21  1  0
 21 22  1  0
 22 23  2  0
 23 24  1  0
 24 25  2  0
 25 26  1  0
 26 27  2  0
 10  6  1  0
 27 22  1  0
 20  8  1  0
  4 28  1  0
  4 29  1  0
  5 30  1  0
  5 31  1  0
 10 32  1  0
 14 33  1  0
 14 34  1  0
 15 35  1  0
 15 36  1  0
 16 37  1  0
 16 38  1  0
 17 39  1  0
 21 40  1  0
 21 41  1  0
 23 42  1  0
 24 43  1  0
 25 44  1  0
 26 45  1  0
 27 46  1  0
M  CHG  1   3  -1
M  END
>  <UniqueID>  (85) 
79

>  <SMILES>  (85) 
O=C([O-])CCc1nc2c([nH]1)c(=O)n(CCCO)c(=O)n2Cc1ccccc1

>  <Energy>  (85) 
81.9125806980646

>  <Genealogy>  (85) 
O=C([O-])CCc1nc2c([nH]1)c(=O)n(CCCO)c(=O)n2Cc1ccccc1 (protonated)
O=C([O-])CCc1nc2c([nH]1)c(=O)n(CCCO)c(=O)n2Cc1ccccc1 (3D coordinates assigned)
O=C([O-])CCc1nc2c([nH]1)c(=O)n(CCCO)c(=O)n2Cc1ccccc1 (optimized conformer: 81.9125806980646 kcal/mol)

>  <smiles>  (85) 
O=C(O)CCc1nc2c([nH]1)c(=O)n(CCCO)c(=O)n2Cc1ccccc1

>  <score_type>  (85) 
oracle

>  <origin>  (85) 
adg

>  <m_score__min__energy>  (85) 
-10.06

>  <m_primary>  (85) 
energy

$$$$
85:0
     RDKit          3D

 55 58  0  0  0  0  0  0  0  0999 V2000
   58.5360   34.5450   46.0380 C   0  0  0  0  0  0  0  0  0  0  0  0
   58.5660   33.0440   46.0140 C   0  0  0  0  0  0  0  0  0  0  0  0
   57.5590   32.3880   45.3790 N   0  0  0  0  0  0  0  0  0  0  0  0
   57.4910   31.0330   45.3130 C   0  0  0  0  0  0  0  0  0  0  0  0
   56.5090   30.4990   44.7340 O   0  0  0  0  0  0  0  0  0  0  0  0
   58.4970   30.2470   45.9090 C   0  0  0  0  0  0  0  0  0  0  0  0
   58.4790   28.7630   45.8540 C   0  0  0  0  0  0  0  0  0  0  0  0
   59.5460   28.1420   45.5930 O   0  0  0  0  0  0  0  0  0  0  0  0
   57.2510   28.0340   46.0180 N   0  0  0  0  0  0  0  0  0  0  0  0
   57.1910   26.6310   46.3360 C   0  0  0  0  0  0  0  0  0  0  0  0
   58.3540   25.9190   46.6780 C   0  0  0  0  0  0  0  0  0  0  0  0
   58.2800   24.5700   47.0240 C   0  0  0  0  0  0  0  0  0  0  0  0
   57.0520   23.9120   47.0210 C   0  0  0  0  0  0  0  0  0  0  0  0
   55.8800   24.5920   46.6690 C   0  0  0  0  0  0  0  0  0  0  0  0
   54.6520   23.8500   46.6590 N   0  0  0  0  0  0  0  0  0  0  0  0
   53.6040   23.6230   45.2940 S   0  0  0  0  0  0  0  0  0  0  0  0
   52.7860   22.3830   45.5200 O   0  0  0  0  0  0  0  0  0  0  0  0
   52.6720   24.7960   45.1590 O   0  0  0  0  0  0  0  0  0  0  0  0
   54.5470   23.4130   43.7880 C   0  0  0  0  0  0  0  0  0  0  0  0
   55.9000   22.8260   44.0810 C   0  0  0  0  0  0  0  0  0  0  0  0
   57.0620   23.5910   43.8730 C   0  0  0  0  0  0  0  0  0  0  0  0
   58.3240   23.0350   44.1100 C   0  0  0  0  0  0  0  0  0  0  0  0
   58.4350   21.7150   44.5580 C   0  0  0  0  0  0  0  0  0  0  0  0
   57.2850   20.9490   44.7730 C   0  0  0  0  0  0  0  0  0  0  0  0
   56.0220   21.5010   44.5390 C   0  0  0  0  0  0  0  0  0  0  0  0
   55.9470   25.9690   46.3610 C   0  0  0  0  0  0  0  0  0  0  0  0
   54.7910   26.6940   46.0970 O   0  0  0  0  0  0  0  0  0  0  0  0
   59.5400   30.9030   46.5830 C   0  0  0  0  0  0  0  0  0  0  0  0
   59.5970   32.3030   46.6300 C   0  0  0  0  0  0  0  0  0  0  0  0
   60.7250   32.9520   47.3330 C   0  0  0  0  0  0  0  0  0  0  0  0
   61.9980   32.9870   46.7400 C   0  0  0  0  0  0  0  0  0  0  0  0
   63.0620   33.6100   47.3970 C   0  0  0  0  0  0  0  0  0  0  0  0
   62.8640   34.2070   48.6450 C   0  0  0  0  0  0  0  0  0  0  0  0
   61.5980   34.1850   49.2360 C   0  0  0  0  0  0  0  0  0  0  0  0
   60.5300   33.5640   48.5840 C   0  0  0  0  0  0  0  0  0  0  0  0
   58.5290   34.8950   47.0808 H   0  0  0  0  0  0  0  0  0  0  0  0
   59.4265   34.9378   45.5254 H   0  0  0  0  0  0  0  0  0  0  0  0
   57.6305   34.9019   45.5254 H   0  0  0  0  0  0  0  0  0  0  0  0
   56.3610   28.5290   45.7900 H   0  0  0  0  0  0  0  0  0  0  0  0
   59.3285   26.4292   46.6727 H   0  0  0  0  0  0  0  0  0  0  0  0
   59.1940   24.0238   47.3001 H   0  0  0  0  0  0  0  0  0  0  0  0
   57.0029   22.8485   47.2977 H   0  0  0  0  0  0  0  0  0  0  0  0
   54.0006   22.7392   43.1117 H   0  0  0  0  0  0  0  0  0  0  0  0
   54.6849   24.3983   43.3188 H   0  0  0  0  0  0  0  0  0  0  0  0
   56.9783   24.6304   43.5227 H   0  0  0  0  0  0  0  0  0  0  0  0
   59.2296   23.6368   43.9437 H   0  0  0  0  0  0  0  0  0  0  0  0
   59.4280   21.2787   44.7415 H   0  0  0  0  0  0  0  0  0  0  0  0
   57.3742   19.9112   45.1266 H   0  0  0  0  0  0  0  0  0  0  0  0
   55.1195   20.8968   44.7137 H   0  0  0  0  0  0  0  0  0  0  0  0
   60.3222   30.3107   47.0804 H   0  0  0  0  0  0  0  0  0  0  0  0
   62.1575   32.5226   45.7557 H   0  0  0  0  0  0  0  0  0  0  0  0
   64.0581   33.6307   46.9308 H   0  0  0  0  0  0  0  0  0  0  0  0
   63.7042   34.6939   49.1617 H   0  0  0  0  0  0  0  0  0  0  0  0
   61.4420   34.6578   50.2169 H   0  0  0  0  0  0  0  0  0  0  0  0
   59.5338   33.5537   49.0504 H   0  0  0  0  0  0  0  0  0  0  0  0
  1  2  1  0
  2  3  1  0
  3  4  1  0
  4  5  2  0
  4  6  1  0
  6  7  1  0
  7  8  2  0
  7  9  1  0
  9 10  1  0
 10 11  2  0
 11 12  1  0
 12 13  2  0
 13 14  1  0
 14 15  1  0
 15 16  1  0
 16 17  2  0
 16 18  2  0
 16 19  1  0
 19 20  1  0
 20 21  2  0
 21 22  1  0
 22 23  2  0
 23 24  1  0
 24 25  2  0
 14 26  2  0
 26 27  1  0
  6 28  2  0
 28 29  1  0
 29 30  1  0
 30 31  2  0
 31 32  1  0
 32 33  2  0
 33 34  1  0
 34 35  2  0
 29  2  2  0
 35 30  1  0
 26 10  1  0
 25 20  1  0
  1 36  1  0
  1 37  1  0
  1 38  1  0
  9 39  1  0
 11 40  1  0
 12 41  1  0
 13 42  1  0
 19 43  1  0
 19 44  1  0
 21 45  1  0
 22 46  1  0
 23 47  1  0
 24 48  1  0
 25 49  1  0
 28 50  1  0
 31 51  1  0
 32 52  1  0
 33 53  1  0
 34 54  1  0
 35 55  1  0
M  CHG  3   3  -1  15  -1  27  -1
M  END
>  <UniqueID>  (86) 
80

>  <SMILES>  (86) 
Cc1[n-]c(=O)c(C(=O)Nc2cccc([N-]S(=O)(=O)Cc3ccccc3)c2[O-])cc1-c1ccccc1

>  <Energy>  (86) 
76.43422623251942

>  <Genealogy>  (86) 
Cc1[n-]c(=O)c(C(=O)Nc2cccc([N-]S(=O)(=O)Cc3ccccc3)c2[O-])cc1-c1ccccc1 (protonated)
Cc1[n-]c(=O)c(C(=O)Nc2cccc([N-]S(=O)(=O)Cc3ccccc3)c2[O-])cc1-c1ccccc1 (3D coordinates assigned)
Cc1[n-]c(=O)c(C(=O)Nc2cccc([N-]S(=O)(=O)Cc3ccccc3)c2[O-])cc1-c1ccccc1 (optimized conformer: 76.43422623251942 kcal/mol)

>  <smiles>  (86) 
Cc1[nH]c(=O)c(C(=O)Nc2cccc(NS(=O)(=O)Cc3ccccc3)c2O)cc1-c1ccccc1

>  <score_type>  (86) 
oracle

>  <origin>  (86) 
adg

>  <m_score__min__energy>  (86) 
-16.57

>  <m_primary>  (86) 
energy

$$$$
86:0
     RDKit          3D

 86 89  0  0  0  0  0  0  0  0999 V2000
   58.6080   28.8520   54.1800 C   0  0  0  0  0  0  0  0  0  0  0  0
   59.4780   30.0470   54.5920 C   0  0  0  0  0  0  0  0  0  0  0  0
   58.5950   31.2210   55.0350 C   0  0  0  0  0  0  0  0  0  0  0  0
   60.4090   30.4510   53.4280 C   0  0  0  0  0  0  0  0  0  0  0  0
   59.7430   31.3970   52.4990 N   0  0  0  0  0  0  0  0  0  0  0  0
   59.3660   30.8410   51.1680 C   0  0  2  0  0  0  0  0  0  0  0  0
   57.8760   31.1180   50.8930 C   0  0  0  0  0  0  0  0  0  0  0  0
   57.5140   32.4190   51.2830 O   0  0  0  0  0  0  0  0  0  0  0  0
   59.7330   29.3360   50.9880 C   0  0  0  0  0  0  0  0  0  0  0  0
   60.5480   29.0530   49.7070 C   0  0  0  0  0  0  0  0  0  0  0  0
   60.0300   29.8660   48.5140 C   0  0  0  0  0  0  0  0  0  0  0  0
   58.7680   29.2650   47.8850 C   0  0  0  0  0  0  0  0  0  0  0  0
   58.1790   30.1280   46.8610 N   0  0  0  0  0  0  0  0  0  0  0  0
   58.8680   30.5570   45.6790 C   0  0  0  0  0  0  0  0  0  0  0  0
   60.0440   30.1480   45.4500 O   0  0  0  0  0  0  0  0  0  0  0  0
   58.2700   31.6180   44.7890 C   0  0  2  0  0  0  0  0  0  0  0  0
   57.8900   32.9210   45.5300 C   0  0  0  0  0  0  0  0  0  0  0  0
   58.6550   33.1210   46.8130 C   0  0  0  0  0  0  0  0  0  0  0  0
   58.1560   33.0510   48.1150 C   0  0  0  0  0  0  0  0  0  0  0  0
   59.1450   33.2710   49.0150 N   0  0  0  0  0  0  0  0  0  0  0  0
   60.2600   33.4830   48.3020 C   0  0  0  0  0  0  0  0  0  0  0  0
   61.5410   33.7340   48.7960 C   0  0  0  0  0  0  0  0  0  0  0  0
   62.5780   33.9150   47.8620 C   0  0  0  0  0  0  0  0  0  0  0  0
   62.3140   33.8350   46.4730 C   0  0  0  0  0  0  0  0  0  0  0  0
   61.0140   33.5700   46.0040 C   0  0  0  0  0  0  0  0  0  0  0  0
   60.0030   33.4050   46.9540 C   0  0  0  0  0  0  0  0  0  0  0  0
   57.1140   31.0740   44.0670 N   0  0  0  0  0  0  0  0  0  0  0  0
   56.3590   29.9230   44.4740 C   0  0  0  0  0  0  0  0  0  0  0  0
   55.1740   30.0830   44.8630 O   0  0  0  0  0  0  0  0  0  0  0  0
   56.9480   28.5670   44.4800 C   0  0  0  0  0  0  0  0  0  0  0  0
   56.7920   27.7310   45.6010 C   0  0  0  0  0  0  0  0  0  0  0  0
   57.3760   26.4580   45.6140 C   0  0  0  0  0  0  0  0  0  0  0  0
   58.1280   26.0220   44.5140 C   0  0  0  0  0  0  0  0  0  0  0  0
   58.3070   26.8590   43.4050 C   0  0  0  0  0  0  0  0  0  0  0  0
   57.7270   28.1290   43.3940 C   0  0  0  0  0  0  0  0  0  0  0  0
   60.5760   32.9480   52.4030 S   0  0  0  0  0  0  0  0  0  0  0  0
   60.7410   33.4910   53.7960 O   0  0  0  0  0  0  0  0  0  0  0  0
   59.7670   33.9530   51.6290 O   0  0  0  0  0  0  0  0  0  0  0  0
   62.1660   32.8200   51.6440 C   0  0  0  0  0  0  0  0  0  0  0  0
   62.5530   31.6300   51.0060 C   0  0  0  0  0  0  0  0  0  0  0  0
   63.8080   31.5320   50.3970 C   0  0  0  0  0  0  0  0  0  0  0  0
   64.6840   32.6280   50.4110 C   0  0  0  0  0  0  0  0  0  0  0  0
   65.9600   32.5360   49.7660 N   0  0  0  0  0  0  0  0  0  0  0  0
   64.3010   33.8150   51.0570 C   0  0  0  0  0  0  0  0  0  0  0  0
   63.0540   33.9050   51.6830 C   0  0  0  0  0  0  0  0  0  0  0  0
   58.2362   28.3413   55.0806 H   0  0  0  0  0  0  0  0  0  0  0  0
   57.7560   29.2076   53.5820 H   0  0  0  0  0  0  0  0  0  0  0  0
   59.2082   28.1504   53.5820 H   0  0  0  0  0  0  0  0  0  0  0  0
   60.1069   29.7580   55.4469 H   0  0  0  0  0  0  0  0  0  0  0  0
   58.5640   31.2623   56.1338 H   0  0  0  0  0  0  0  0  0  0  0  0
   59.0118   32.1611   54.6444 H   0  0  0  0  0  0  0  0  0  0  0  0
   57.5762   31.0813   54.6444 H   0  0  0  0  0  0  0  0  0  0  0  0
   61.3091   30.9300   53.8406 H   0  0  0  0  0  0  0  0  0  0  0  0
   60.6703   29.5427   52.8653 H   0  0  0  0  0  0  0  0  0  0  0  0
   59.9714   31.3619   50.4115 H   0  0  0  0  0  0  0  0  0  0  0  0
   57.6833   31.0008   49.8164 H   0  0  0  0  0  0  0  0  0  0  0  0
   57.2782   30.4032   51.4776 H   0  0  0  0  0  0  0  0  0  0  0  0
   58.1110   32.6540   52.0420 H   0  0  0  0  0  0  0  0  0  0  0  0
   60.3264   29.0154   51.8569 H   0  0  0  0  0  0  0  0  0  0  0  0
   58.7883   28.7792   50.9018 H   0  0  0  0  0  0  0  0  0  0  0  0
   61.6003   29.3170   49.8884 H   0  0  0  0  0  0  0  0  0  0  0  0
   60.4458   27.9850   49.4645 H   0  0  0  0  0  0  0  0  0  0  0  0
   59.7996   30.8853   48.8575 H   0  0  0  0  0  0  0  0  0  0  0  0
   60.8164   29.8609   47.7449 H   0  0  0  0  0  0  0  0  0  0  0  0
   59.0298   28.3011   47.4242 H   0  0  0  0  0  0  0  0  0  0  0  0
   58.0234   29.1455   48.6858 H   0  0  0  0  0  0  0  0  0  0  0  0
   59.0571   31.9040   44.0758 H   0  0  0  0  0  0  0  0  0  0  0  0
   58.0942   33.7732   44.8651 H   0  0  0  0  0  0  0  0  0  0  0  0
   56.8246   32.8475   45.7936 H   0  0  0  0  0  0  0  0  0  0  0  0
   57.1068   32.8459   48.3741 H   0  0  0  0  0  0  0  0  0  0  0  0
   59.0580   33.2500   50.0580 H   0  0  0  0  0  0  0  0  0  0  0  0
   61.7333   33.7884   49.8777 H   0  0  0  0  0  0  0  0  0  0  0  0
   63.6001   34.1199   48.2131 H   0  0  0  0  0  0  0  0  0  0  0  0
   63.1332   33.9814   45.7536 H   0  0  0  0  0  0  0  0  0  0  0  0
   60.8013   33.4954   44.9273 H   0  0  0  0  0  0  0  0  0  0  0  0
   56.2107   28.0776   46.4682 H   0  0  0  0  0  0  0  0  0  0  0  0
   57.2448   25.8010   46.4864 H   0  0  0  0  0  0  0  0  0  0  0  0
   58.5792   25.0188   44.5218 H   0  0  0  0  0  0  0  0  0  0  0  0
   58.9025   26.5168   42.5458 H   0  0  0  0  0  0  0  0  0  0  0  0
   57.8804   28.7918   42.5296 H   0  0  0  0  0  0  0  0  0  0  0  0
   61.8658   30.7713   50.9853 H   0  0  0  0  0  0  0  0  0  0  0  0
   64.1088   30.5946   49.9064 H   0  0  0  0  0  0  0  0  0  0  0  0
   66.0660   32.7900   48.7600 H   0  0  0  0  0  0  0  0  0  0  0  0
   66.7990   32.1840   50.2820 H   0  0  0  0  0  0  0  0  0  0  0  0
   64.9845   34.6768   51.0705 H   0  0  0  0  0  0  0  0  0  0  0  0
   62.7687   34.8289   52.2073 H   0  0  0  0  0  0  0  0  0  0  0  0
  1  2  1  0
  2  3  1  0
  2  4  1  0
  4  5  1  0
  5  6  1  0
  6  7  1  0
  7  8  1  0
  6  9  1  0
  9 10  1  0
 10 11  1  0
 11 12  1  0
 12 13  1  0
 13 14  1  0
 14 15  2  0
 14 16  1  0
 16 17  1  0
 17 18  1  0
 18 19  2  0
 19 20  1  0
 20 21  1  0
 21 22  2  0
 22 23  1  0
 23 24  2  0
 24 25  1  0
 25 26  2  0
 16 27  1  0
 27 28  1  0
 28 29  2  0
 28 30  1  0
 30 31  2  0
 31 32  1  0
 32 33  2  0
 33 34  1  0
 34 35  2  0
  5 36  1  0
 36 37  2  0
 36 38  2  0
 36 39  1  0
 39 40  2  0
 40 41  1  0
 41 42  2  0
 42 43  1  0
 42 44  1  0
 44 45  2  0
 26 18  1  0
 35 30  1  0
 45 39  1  0
 26 21  1  0
  1 46  1  0
  1 47  1  0
  1 48  1  0
  2 49  1  0
  3 50  1  0
  3 51  1  0
  3 52  1  0
  4 53  1  0
  4 54  1  0
  6 55  1  6
  7 56  1  0
  7 57  1  0
  8 58  1  0
  9 59  1  0
  9 60  1  0
 10 61  1  0
 10 62  1  0
 11 63  1  0
 11 64  1  0
 12 65  1  0
 12 66  1  0
 16 67  1  6
 17 68  1  0
 17 69  1  0
 19 70  1  0
 20 71  1  0
 22 72  1  0
 23 73  1  0
 24 74  1  0
 25 75  1  0
 31 76  1  0
 32 77  1  0
 33 78  1  0
 34 79  1  0
 35 80  1  0
 40 81  1  0
 41 82  1  0
 43 83  1  0
 43 84  1  0
 44 85  1  0
 45 86  1  0
M  CHG  2  13  -1  27  -1
M  END
>  <UniqueID>  (87) 
81

>  <SMILES>  (87) 
CC(C)CN([C@H](CO)CCCC[N-]C(=O)[C@H](Cc1c[nH]c2ccccc12)[N-]C(=O)c1ccccc1)S(=O)(=O)c1ccc(N)cc1

>  <Energy>  (87) 
122.40737400068983

>  <Genealogy>  (87) 
CC(C)CN(C(CO)CCCC[N-]C(=O)C(Cc1c[nH]c2ccccc12)[N-]C(=O)c1ccccc1)S(=O)(=O)c1ccc(N)cc1 (protonated)
CC(C)CN([C@H](CO)CCCC[N-]C(=O)[C@H](Cc1c[nH]c2ccccc12)[N-]C(=O)c1ccccc1)S(=O)(=O)c1ccc(N)cc1 (chirality)
CC(C)CN([C@H](CO)CCCC[N-]C(=O)[C@H](Cc1c[nH]c2ccccc12)[N-]C(=O)c1ccccc1)S(=O)(=O)c1ccc(N)cc1 (3D coordinates assigned)
CC(C)CN([C@H](CO)CCCC[N-]C(=O)[C@H](Cc1c[nH]c2ccccc12)[N-]C(=O)c1ccccc1)S(=O)(=O)c1ccc(N)cc1 (optimized conformer: 122.40737400068983 kcal/mol)

>  <smiles>  (87) 
CC(C)CN(C(CO)CCCCNC(=O)C(Cc1c[nH]c2ccccc12)NC(=O)c1ccccc1)S(=O)(=O)c1ccc(N)cc1

>  <score_type>  (87) 
oracle

>  <origin>  (87) 
adg

>  <m_score__min__energy>  (87) 
-13.33

>  <m_primary>  (87) 
energy

$$$$
87:0
     RDKit          3D

 43 45  0  0  0  0  0  0  0  0999 V2000
   63.4570   33.8540   47.2170 C   0  0  0  0  0  0  0  0  0  0  0  0
   62.4400   32.8070   47.5710 C   0  0  0  0  0  0  0  0  0  0  0  0
   62.7360   31.8160   48.5120 C   0  0  0  0  0  0  0  0  0  0  0  0
   61.7780   30.8490   48.8060 C   0  0  0  0  0  0  0  0  0  0  0  0
   60.5420   30.8640   48.1600 C   0  0  0  0  0  0  0  0  0  0  0  0
   60.2610   31.8740   47.2150 C   0  0  0  0  0  0  0  0  0  0  0  0
   59.1390   31.9500   46.5490 N   0  0  0  0  0  0  0  0  0  0  0  0
   58.6940   32.8300   45.4960 C   0  0  0  0  0  0  0  0  0  0  0  0
   58.8040   34.0790   45.6050 O   0  0  0  0  0  0  0  0  0  0  0  0
   58.1080   32.2380   44.2580 C   0  0  0  0  0  0  0  0  0  0  0  0
   58.3310   32.8780   43.0210 C   0  0  0  0  0  0  0  0  0  0  0  0
   57.7730   32.3760   41.8430 C   0  0  0  0  0  0  0  0  0  0  0  0
   56.9820   31.2300   41.8760 C   0  0  0  0  0  0  0  0  0  0  0  0
   56.7480   30.5790   43.0860 C   0  0  0  0  0  0  0  0  0  0  0  0
   57.2910   31.0750   44.2850 C   0  0  0  0  0  0  0  0  0  0  0  0
   57.0200   30.3880   45.5150 N   0  0  0  0  0  0  0  0  0  0  0  0
   56.6510   29.0050   45.5790 C   0  0  0  0  0  0  0  0  0  0  0  0
   55.5630   28.6260   45.0660 O   0  0  0  0  0  0  0  0  0  0  0  0
   57.6000   27.9990   46.1010 C   0  0  0  0  0  0  0  0  0  0  0  0
   58.8690   28.4640   46.4920 C   0  0  0  0  0  0  0  0  0  0  0  0
   59.8270   27.5890   47.0020 C   0  0  0  0  0  0  0  0  0  0  0  0
   59.5290   26.2360   47.1370 C   0  0  0  0  0  0  0  0  0  0  0  0
   58.2700   25.7550   46.7730 C   0  0  0  0  0  0  0  0  0  0  0  0
   57.2800   26.6210   46.2560 C   0  0  0  0  0  0  0  0  0  0  0  0
   55.9330   26.0540   45.9590 C   0  0  0  0  0  0  0  0  0  0  0  0
   55.8310   24.9630   45.3340 O   0  0  0  0  0  0  0  0  0  0  0  0
   54.7660   26.6850   46.3720 O   0  0  0  0  0  0  0  0  0  0  0  0
   61.2200   32.8160   46.9580 N   0  0  0  0  0  0  0  0  0  0  0  0
   63.8756   34.2849   48.1385 H   0  0  0  0  0  0  0  0  0  0  0  0
   64.2644   33.3961   46.6266 H   0  0  0  0  0  0  0  0  0  0  0  0
   62.9759   34.6477   46.6266 H   0  0  0  0  0  0  0  0  0  0  0  0
   63.7145   31.8004   49.0143 H   0  0  0  0  0  0  0  0  0  0  0  0
   61.9971   30.0699   49.5510 H   0  0  0  0  0  0  0  0  0  0  0  0
   59.7905   30.0931   48.3857 H   0  0  0  0  0  0  0  0  0  0  0  0
   58.9527   33.7847   42.9835 H   0  0  0  0  0  0  0  0  0  0  0  0
   57.9587   32.8870   40.8868 H   0  0  0  0  0  0  0  0  0  0  0  0
   56.5419   30.8387   40.9469 H   0  0  0  0  0  0  0  0  0  0  0  0
   56.1322   29.6677   43.1035 H   0  0  0  0  0  0  0  0  0  0  0  0
   59.1086   29.5331   46.3939 H   0  0  0  0  0  0  0  0  0  0  0  0
   60.8168   27.9672   47.2973 H   0  0  0  0  0  0  0  0  0  0  0  0
   60.2876   25.5440   47.5316 H   0  0  0  0  0  0  0  0  0  0  0  0
   58.0449   24.6847   46.8905 H   0  0  0  0  0  0  0  0  0  0  0  0
   61.0190   33.5580   46.2500 H   0  0  0  0  0  0  0  0  0  0  0  0
  1  2  1  0
  2  3  2  0
  3  4  1  0
  4  5  2  0
  5  6  1  0
  6  7  2  3
  7  8  1  0
  8  9  2  0
  8 10  1  0
 10 11  2  0
 11 12  1  0
 12 13  2  0
 13 14  1  0
 14 15  2  0
 15 16  1  0
 16 17  1  0
 17 18  2  0
 17 19  1  0
 19 20  2  0
 20 21  1  0
 21 22  2  0
 22 23  1  0
 23 24  2  0
 24 25  1  0
 25 26  2  0
 25 27  1  0
  6 28  1  0
 28  2  1  0
 15 10  1  0
 24 19  1  0
  1 29  1  0
  1 30  1  0
  1 31  1  0
  3 32  1  0
  4 33  1  0
  5 34  1  0
 11 35  1  0
 12 36  1  0
 13 37  1  0
 14 38  1  0
 20 39  1  0
 21 40  1  0
 22 41  1  0
 23 42  1  0
 28 43  1  0
M  CHG  2  16  -1  27  -1
M  END
>  <UniqueID>  (88) 
82

>  <SMILES>  (88) 
Cc1cccc(=NC(=O)c2ccccc2[N-]C(=O)c2ccccc2C(=O)[O-])[nH]1

>  <Energy>  (88) 
72.76996472449913

>  <Genealogy>  (88) 
Cc1cccc(=NC(=O)c2ccccc2[N-]C(=O)c2ccccc2C(=O)[O-])[nH]1 (protonated)
Cc1cccc(=NC(=O)c2ccccc2[N-]C(=O)c2ccccc2C(=O)[O-])[nH]1 (3D coordinates assigned)
Cc1cccc(=NC(=O)c2ccccc2[N-]C(=O)c2ccccc2C(=O)[O-])[nH]1 (optimized conformer: 72.76996472449913 kcal/mol)

>  <smiles>  (88) 
Cc1cccc(=NC(=O)c2ccccc2NC(=O)c2ccccc2C(=O)O)[nH]1

>  <score_type>  (88) 
oracle

>  <origin>  (88) 
adg

>  <m_score__min__energy>  (88) 
-13.31

>  <m_primary>  (88) 
energy

$$$$
88:0
     RDKit          3D

 38 40  0  0  0  0  0  0  0  0999 V2000
   62.4590   32.0000   47.4690 C   0  0  0  0  0  0  0  0  0  0  0  0
   61.6120   30.9740   47.5700 C   0  0  0  0  0  0  0  0  0  0  0  0
   61.1270   30.5070   48.9120 C   0  0  0  0  0  0  0  0  0  0  0  0
   59.5240   29.6470   48.7590 S   0  0  0  0  0  0  0  0  0  0  0  0
   59.0100   30.5480   47.2920 C   0  0  0  0  0  0  0  0  0  0  0  0
   58.5700   31.8330   47.3510 N   0  0  0  0  0  0  0  0  0  0  0  0
   58.3190   32.1200   46.0630 C   0  0  0  0  0  0  0  0  0  0  0  0
   57.8480   33.3130   45.5300 C   0  0  0  0  0  0  0  0  0  0  0  0
   57.6790   33.3760   44.1370 C   0  0  0  0  0  0  0  0  0  0  0  0
   57.9920   32.2500   43.3390 C   0  0  0  0  0  0  0  0  0  0  0  0
   57.7820   32.3340   41.6000 Cl  0  0  0  0  0  0  0  0  0  0  0  0
   58.4580   31.0980   43.9150 N   0  0  0  0  0  0  0  0  0  0  0  0
   58.6070   31.0530   45.2670 C   0  0  0  0  0  0  0  0  0  0  0  0
   59.0460   30.0370   46.0320 N   0  0  0  0  0  0  0  0  0  0  0  0
   59.6160   28.4530   45.5790 S   0  0  0  0  0  0  0  0  0  0  0  0
   59.9760   28.3810   44.1220 O   0  0  0  0  0  0  0  0  0  0  0  0
   60.8560   28.1570   46.3760 O   0  0  0  0  0  0  0  0  0  0  0  0
   58.3660   27.2490   45.9280 C   0  0  0  0  0  0  0  0  0  0  0  0
   58.7190   26.0930   46.6440 C   0  0  0  0  0  0  0  0  0  0  0  0
   57.7450   25.1700   47.0300 C   0  0  0  0  0  0  0  0  0  0  0  0
   56.4060   25.3930   46.7100 C   0  0  0  0  0  0  0  0  0  0  0  0
   56.0390   26.5310   45.9910 C   0  0  0  0  0  0  0  0  0  0  0  0
   57.0100   27.4610   45.5810 C   0  0  0  0  0  0  0  0  0  0  0  0
   56.5960   28.6170   44.8400 N   0  0  0  0  0  0  0  0  0  0  0  0
   55.6120   29.2830   45.2210 O   0  0  0  0  0  0  0  0  0  0  0  0
   57.1030   28.8390   43.5820 O   0  0  0  0  0  0  0  0  0  0  0  0
   62.8060   32.3313   46.4792 H   0  0  0  0  0  0  0  0  0  0  0  0
   62.8103   32.5145   48.3756 H   0  0  0  0  0  0  0  0  0  0  0  0
   61.2649   30.4642   46.6592 H   0  0  0  0  0  0  0  0  0  0  0  0
   61.8671   29.8164   49.3426 H   0  0  0  0  0  0  0  0  0  0  0  0
   60.9961   31.3832   49.5640 H   0  0  0  0  0  0  0  0  0  0  0  0
   57.6164   34.1746   46.1735 H   0  0  0  0  0  0  0  0  0  0  0  0
   57.3045   34.2978   43.6678 H   0  0  0  0  0  0  0  0  0  0  0  0
   58.6860   30.2840   43.3090 H   0  0  0  0  0  0  0  0  0  0  0  0
   59.7729   25.9133   46.9030 H   0  0  0  0  0  0  0  0  0  0  0  0
   58.0340   24.2664   47.5868 H   0  0  0  0  0  0  0  0  0  0  0  0
   55.6383   24.6708   47.0248 H   0  0  0  0  0  0  0  0  0  0  0  0
   54.9810   26.7018   45.7429 H   0  0  0  0  0  0  0  0  0  0  0  0
  1  2  2  0
  2  3  1  0
  3  4  1  0
  4  5  1  0
  5  6  2  0
  6  7  1  0
  7  8  2  0
  8  9  1  0
  9 10  2  0
 10 11  1  0
 10 12  1  0
 12 13  2  0
 13 14  1  0
 14 15  1  0
 15 16  2  0
 15 17  2  0
 15 18  1  0
 18 19  2  0
 19 20  1  0
 20 21  2  0
 21 22  1  0
 22 23  2  0
 23 24  1  0
 24 25  2  0
 24 26  1  0
 14  5  1  0
 23 18  1  0
 13  7  1  0
  1 27  1  0
  1 28  1  0
  2 29  1  0
  3 30  1  0
  3 31  1  0
  8 32  1  0
  9 33  1  0
 12 34  1  0
 19 35  1  0
 20 36  1  0
 21 37  1  0
 22 38  1  0
M  CHG  3  12   1  24   1  26  -1
M  END
>  <UniqueID>  (89) 
83

>  <SMILES>  (89) 
C=CCSc1nc2ccc(Cl)[nH+]c2n1S(=O)(=O)c1ccccc1[N+](=O)[O-]

>  <Energy>  (89) 
81.3466710326855

>  <Genealogy>  (89) 
C=CCSc1nc2ccc(Cl)[nH+]c2n1S(=O)(=O)c1ccccc1[N+](=O)[O-] (protonated)
C=CCSc1nc2ccc(Cl)[nH+]c2n1S(=O)(=O)c1ccccc1[N+](=O)[O-] (3D coordinates assigned)
C=CCSc1nc2ccc(Cl)[nH+]c2n1S(=O)(=O)c1ccccc1[N+](=O)[O-] (optimized conformer: 81.3466710326855 kcal/mol)

>  <smiles>  (89) 
C=CCSc1nc2ccc(Cl)nc2n1S(=O)(=O)c1ccccc1[N+](=O)[O-]

>  <score_type>  (89) 
oracle

>  <origin>  (89) 
adg

>  <m_score__min__energy>  (89) 
-6.3700000000000001

>  <m_primary>  (89) 
energy

$$$$
89:0
     RDKit          3D

 38 40  0  0  0  0  0  0  0  0999 V2000
   54.8320   26.1620   45.9960 N   0  0  0  0  0  0  0  0  0  0  0  0
   56.5080   25.7530   45.8840 S   0  0  0  0  0  0  0  0  0  0  0  0
   56.8020   25.1960   44.5190 O   0  0  0  0  0  0  0  0  0  0  0  0
   56.8330   24.7070   46.9140 O   0  0  0  0  0  0  0  0  0  0  0  0
   57.4830   27.1930   46.1580 C   0  0  0  0  0  0  0  0  0  0  0  0
   57.6790   28.1110   45.1180 C   0  0  0  0  0  0  0  0  0  0  0  0
   58.4420   29.2630   45.3280 C   0  0  0  0  0  0  0  0  0  0  0  0
   59.0280   29.5080   46.5870 C   0  0  0  0  0  0  0  0  0  0  0  0
   59.8130   30.6800   46.8670 N   0  0  0  0  0  0  0  0  0  0  0  0
   59.3980   31.7690   47.4380 C   0  0  0  0  0  0  0  0  0  0  0  0
   59.5650   33.0860   46.7820 C   0  0  0  0  0  0  0  0  0  0  0  0
   58.6600   33.7900   45.9860 C   0  0  0  0  0  0  0  0  0  0  0  0
   57.3910   33.3520   45.3800 C   0  0  0  0  0  0  0  0  0  0  0  0
   56.5640   34.1840   44.9240 O   0  0  0  0  0  0  0  0  0  0  0  0
   57.0660   32.0010   45.3680 O   0  0  0  0  0  0  0  0  0  0  0  0
   59.1760   35.0210   45.7990 N   0  0  0  0  0  0  0  0  0  0  0  0
   60.3420   35.0850   46.4200 N   0  0  0  0  0  0  0  0  0  0  0  0
   60.6020   33.9290   47.0100 N   0  0  0  0  0  0  0  0  0  0  0  0
   61.7990   33.6880   47.7670 C   0  0  0  0  0  0  0  0  0  0  0  0
   62.9800   33.2730   47.1290 C   0  0  0  0  0  0  0  0  0  0  0  0
   64.1470   33.0690   47.8700 C   0  0  0  0  0  0  0  0  0  0  0  0
   64.1490   33.2930   49.2510 C   0  0  0  0  0  0  0  0  0  0  0  0
   65.6150   33.0400   50.1800 Cl  0  0  0  0  0  0  0  0  0  0  0  0
   62.9830   33.7310   49.8880 C   0  0  0  0  0  0  0  0  0  0  0  0
   61.8150   33.9350   49.1480 C   0  0  0  0  0  0  0  0  0  0  0  0
   58.8100   28.5950   47.6270 C   0  0  0  0  0  0  0  0  0  0  0  0
   58.0450   27.4450   47.4160 C   0  0  0  0  0  0  0  0  0  0  0  0
   54.7770   27.1080   46.4350 H   0  0  0  0  0  0  0  0  0  0  0  0
   57.2302   27.9242   44.1313 H   0  0  0  0  0  0  0  0  0  0  0  0
   58.5860   29.9816   44.5077 H   0  0  0  0  0  0  0  0  0  0  0  0
   58.9147   31.7128   48.4245 H   0  0  0  0  0  0  0  0  0  0  0  0
   58.7580   35.8020   45.2460 H   0  0  0  0  0  0  0  0  0  0  0  0
   62.9860   33.1080   46.0415 H   0  0  0  0  0  0  0  0  0  0  0  0
   65.0653   32.7319   47.3669 H   0  0  0  0  0  0  0  0  0  0  0  0
   62.9855   33.9150   50.9725 H   0  0  0  0  0  0  0  0  0  0  0  0
   60.9037   34.2910   49.6509 H   0  0  0  0  0  0  0  0  0  0  0  0
   59.2452   28.7853   48.6191 H   0  0  0  0  0  0  0  0  0  0  0  0
   57.8835   26.7351   48.2406 H   0  0  0  0  0  0  0  0  0  0  0  0
  1  2  1  0
  2  3  2  0
  2  4  2  0
  2  5  1  0
  5  6  2  0
  6  7  1  0
  7  8  2  0
  8  9  1  0
  9 10  2  3
 10 11  1  0
 11 12  2  0
 12 13  1  0
 13 14  2  0
 13 15  1  0
 12 16  1  0
 16 17  2  0
 17 18  1  0
 18 19  1  0
 19 20  2  0
 20 21  1  0
 21 22  2  0
 22 23  1  0
 22 24  1  0
 24 25  2  0
  8 26  1  0
 26 27  2  0
 27  5  1  0
 18 11  1  0
 25 19  1  0
  1 28  1  0
  6 29  1  0
  7 30  1  0
 10 31  1  0
 16 32  1  0
 20 33  1  0
 21 34  1  0
 24 35  1  0
 25 36  1  0
 26 37  1  0
 27 38  1  0
M  CHG  3   1  -1  15  -1  16   1
M  END
>  <UniqueID>  (90) 
84

>  <SMILES>  (90) 
[NH-]S(=O)(=O)c1ccc(N=Cc2c(C(=O)[O-])[nH+]nn2-c2ccc(Cl)cc2)cc1

>  <Energy>  (90) 
87.94985402839248

>  <Genealogy>  (90) 
[NH-]S(=O)(=O)c1ccc(N=Cc2c(C(=O)[O-])[nH+]nn2-c2ccc(Cl)cc2)cc1 (protonated)
[NH-]S(=O)(=O)c1ccc(N=Cc2c(C(=O)[O-])[nH+]nn2-c2ccc(Cl)cc2)cc1 (3D coordinates assigned)
[NH-]S(=O)(=O)c1ccc(N=Cc2c(C(=O)[O-])[nH+]nn2-c2ccc(Cl)cc2)cc1 (optimized conformer: 87.94985402839248 kcal/mol)

>  <smiles>  (90) 
NS(=O)(=O)c1ccc(N=Cc2c(C(=O)O)nnn2-c2ccc(Cl)cc2)cc1

>  <score_type>  (90) 
oracle

>  <origin>  (90) 
adg

>  <m_score__min__energy>  (90) 
-11.67

>  <m_primary>  (90) 
energy

$$$$
90:0
     RDKit          3D

 47 49  0  0  0  0  0  0  0  0999 V2000
   59.6550   26.9270   46.2210 C   0  0  0  0  0  0  0  0  0  0  0  0
   58.3810   26.1400   46.3720 C   0  0  0  0  0  0  0  0  0  0  0  0
   58.4490   24.8480   46.8100 N   0  0  0  0  0  0  0  0  0  0  0  0
   57.3270   24.0950   46.9610 C   0  0  0  0  0  0  0  0  0  0  0  0
   57.4130   22.9070   47.3680 O   0  0  0  0  0  0  0  0  0  0  0  0
   56.1110   24.6210   46.6740 N   0  0  0  0  0  0  0  0  0  0  0  0
   55.9810   25.8940   46.2280 C   0  0  0  0  0  0  0  0  0  0  0  0
   54.8290   26.3410   45.9810 O   0  0  0  0  0  0  0  0  0  0  0  0
   57.1210   26.7010   46.0490 C   0  0  0  0  0  0  0  0  0  0  0  0
   56.9730   28.1340   45.5720 C   0  0  0  0  0  0  0  0  0  0  0  0
   57.4230   28.2870   44.1420 C   0  0  0  0  0  0  0  0  0  0  0  0
   58.2260   27.4960   43.6710 O   0  0  0  0  0  0  0  0  0  0  0  0
   56.9170   29.4210   43.2920 C   0  0  0  0  0  0  0  0  0  0  0  0
   57.7540   30.5690   43.4260 O   0  0  0  0  0  0  0  0  0  0  0  0
   58.0250   31.2410   44.6300 C   0  0  0  0  0  0  0  0  0  0  0  0
   58.8900   30.7220   45.6120 C   0  0  0  0  0  0  0  0  0  0  0  0
   59.1230   31.4310   46.7940 C   0  0  0  0  0  0  0  0  0  0  0  0
   58.4990   32.6740   47.0110 C   0  0  0  0  0  0  0  0  0  0  0  0
   58.7010   33.4310   48.1770 O   0  0  0  0  0  0  0  0  0  0  0  0
   59.6300   34.5080   48.3110 C   0  0  0  0  0  0  0  0  0  0  0  0
   61.0370   34.0400   48.0510 C   0  0  0  0  0  0  0  0  0  0  0  0
   61.5460   33.9960   46.7420 C   0  0  0  0  0  0  0  0  0  0  0  0
   62.8510   33.5490   46.5080 C   0  0  0  0  0  0  0  0  0  0  0  0
   63.6510   33.1340   47.5760 C   0  0  0  0  0  0  0  0  0  0  0  0
   63.1480   33.1620   48.8790 C   0  0  0  0  0  0  0  0  0  0  0  0
   61.8440   33.6090   49.1180 C   0  0  0  0  0  0  0  0  0  0  0  0
   57.6400   33.1850   46.0330 C   0  0  0  0  0  0  0  0  0  0  0  0
   57.4060   32.4760   44.8520 C   0  0  0  0  0  0  0  0  0  0  0  0
   60.0539   27.1734   47.2161 H   0  0  0  0  0  0  0  0  0  0  0  0
   60.3931   26.3273   45.6683 H   0  0  0  0  0  0  0  0  0  0  0  0
   59.4491   27.8555   45.6683 H   0  0  0  0  0  0  0  0  0  0  0  0
   59.3750   24.4210   47.0400 H   0  0  0  0  0  0  0  0  0  0  0  0
   55.9161   28.4291   45.6481 H   0  0  0  0  0  0  0  0  0  0  0  0
   57.6041   28.7761   46.2040 H   0  0  0  0  0  0  0  0  0  0  0  0
   56.9054   29.1045   42.2386 H   0  0  0  0  0  0  0  0  0  0  0  0
   55.9021   29.6845   43.6245 H   0  0  0  0  0  0  0  0  0  0  0  0
   59.3851   29.7535   45.4483 H   0  0  0  0  0  0  0  0  0  0  0  0
   59.7969   31.0158   47.5579 H   0  0  0  0  0  0  0  0  0  0  0  0
   59.3736   35.2967   47.5884 H   0  0  0  0  0  0  0  0  0  0  0  0
   59.5730   34.8951   49.3390 H   0  0  0  0  0  0  0  0  0  0  0  0
   60.9162   34.3142   45.8982 H   0  0  0  0  0  0  0  0  0  0  0  0
   63.2477   33.5242   45.4823 H   0  0  0  0  0  0  0  0  0  0  0  0
   64.6776   32.7850   47.3906 H   0  0  0  0  0  0  0  0  0  0  0  0
   63.7780   32.8322   49.7182 H   0  0  0  0  0  0  0  0  0  0  0  0
   61.4490   33.6232   50.1445 H   0  0  0  0  0  0  0  0  0  0  0  0
   57.1442   34.1535   46.1949 H   0  0  0  0  0  0  0  0  0  0  0  0
   56.7297   32.8921   44.0907 H   0  0  0  0  0  0  0  0  0  0  0  0
  1  2  1  0
  2  3  1  0
  3  4  1  0
  4  5  2  0
  4  6  1  0
  6  7  1  0
  7  8  2  0
  7  9  1  0
  9 10  1  0
 10 11  1  0
 11 12  2  0
 11 13  1  0
 13 14  1  0
 14 15  1  0
 15 16  2  0
 16 17  1  0
 17 18  2  0
 18 19  1  0
 19 20  1  0
 20 21  1  0
 21 22  2  0
 22 23  1  0
 23 24  2  0
 24 25  1  0
 25 26  2  0
 18 27  1  0
 27 28  2  0
  9  2  2  0
 28 15  1  0
 26 21  1  0
  1 29  1  0
  1 30  1  0
  1 31  1  0
  3 32  1  0
 10 33  1  0
 10 34  1  0
 13 35  1  0
 13 36  1  0
 16 37  1  0
 17 38  1  0
 20 39  1  0
 20 40  1  0
 22 41  1  0
 23 42  1  0
 24 43  1  0
 25 44  1  0
 26 45  1  0
 27 46  1  0
 28 47  1  0
M  CHG  1   6  -1
M  END
>  <UniqueID>  (91) 
85

>  <SMILES>  (91) 
Cc1[nH]c(=O)[n-]c(=O)c1CC(=O)COc1ccc(OCc2ccccc2)cc1

>  <Energy>  (91) 
49.71185904074255

>  <Genealogy>  (91) 
Cc1[nH]c(=O)[n-]c(=O)c1CC(=O)COc1ccc(OCc2ccccc2)cc1 (protonated)
Cc1[nH]c(=O)[n-]c(=O)c1CC(=O)COc1ccc(OCc2ccccc2)cc1 (3D coordinates assigned)
Cc1[nH]c(=O)[n-]c(=O)c1CC(=O)COc1ccc(OCc2ccccc2)cc1 (optimized conformer: 49.71185904074255 kcal/mol)

>  <smiles>  (91) 
Cc1[nH]c(=O)[nH]c(=O)c1CC(=O)COc1ccc(OCc2ccccc2)cc1

>  <score_type>  (91) 
oracle

>  <origin>  (91) 
adg

>  <m_score__min__energy>  (91) 
-10.720000000000001

>  <m_primary>  (91) 
energy

$$$$
91:0
     RDKit          3D

 68 71  0  0  0  0  0  0  0  0999 V2000
   59.7840   28.9070   48.5570 C   0  0  0  0  0  0  0  0  0  0  0  0
   60.9320   29.6370   49.2090 C   0  0  0  0  0  0  0  0  0  0  0  0
   61.3280   29.2430   50.4910 C   0  0  0  0  0  0  0  0  0  0  0  0
   62.4090   29.8500   51.1350 C   0  0  0  0  0  0  0  0  0  0  0  0
   62.8040   29.3420   52.5000 C   0  0  0  0  0  0  0  0  0  0  0  0
   63.1190   30.8920   50.4880 C   0  0  0  0  0  0  0  0  0  0  0  0
   64.3750   31.4490   51.1270 C   0  0  0  0  0  0  0  0  0  0  0  0
   62.6390   31.3970   49.2450 C   0  0  0  0  0  0  0  0  0  0  0  0
   63.2680   32.9360   48.5790 S   0  0  0  0  0  0  0  0  0  0  0  0
   64.4080   33.4690   49.4010 O   0  0  0  0  0  0  0  0  0  0  0  0
   63.7370   32.6840   47.1720 O   0  0  0  0  0  0  0  0  0  0  0  0
   62.0230   34.1470   48.5940 N   0  0  0  0  0  0  0  0  0  0  0  0
   60.9030   34.1310   47.6970 C   0  0  0  0  0  0  0  0  0  0  0  0
   59.6060   34.0280   48.2180 C   0  0  0  0  0  0  0  0  0  0  0  0
   58.5020   33.9760   47.3640 C   0  0  0  0  0  0  0  0  0  0  0  0
   58.6740   34.0560   45.9720 C   0  0  0  0  0  0  0  0  0  0  0  0
   57.5020   33.9490   45.0710 C   0  0  0  0  0  0  0  0  0  0  0  0
   56.5280   34.7330   45.2290 O   0  0  0  0  0  0  0  0  0  0  0  0
   57.4100   32.9360   44.0630 N   0  0  0  0  0  0  0  0  0  0  0  0
   57.7130   31.5430   44.2350 C   0  0  0  0  0  0  0  0  0  0  0  0
   57.1560   30.5570   43.4000 C   0  0  0  0  0  0  0  0  0  0  0  0
   57.4240   29.2040   43.6320 C   0  0  0  0  0  0  0  0  0  0  0  0
   58.2410   28.8230   44.7050 C   0  0  0  0  0  0  0  0  0  0  0  0
   58.5240   27.1230   45.0680 S   0  0  0  0  0  0  0  0  0  0  0  0
   58.3300   26.2700   43.8450 O   0  0  0  0  0  0  0  0  0  0  0  0
   59.9330   26.9530   45.5620 O   0  0  0  0  0  0  0  0  0  0  0  0
   57.4180   26.6190   46.3020 N   0  0  0  0  0  0  0  0  0  0  0  0
   56.2740   26.0750   46.0260 C   0  0  0  0  0  0  0  0  0  0  0  0
   55.1290   26.7150   45.9940 O   0  0  0  0  0  0  0  0  0  0  0  0
   54.1550   25.9030   45.6880 N   0  0  0  0  0  0  0  0  0  0  0  0
   54.6980   24.6780   45.5250 C   0  0  0  0  0  0  0  0  0  0  0  0
   53.9200   23.4720   45.1080 C   0  0  0  0  0  0  0  0  0  0  0  0
   56.0640   24.7470   45.7290 C   0  0  0  0  0  0  0  0  0  0  0  0
   57.0740   23.6490   45.6060 C   0  0  0  0  0  0  0  0  0  0  0  0
   58.7920   29.8040   45.5380 C   0  0  0  0  0  0  0  0  0  0  0  0
   58.5250   31.1550   45.3080 C   0  0  0  0  0  0  0  0  0  0  0  0
   59.9730   34.1920   45.4520 C   0  0  0  0  0  0  0  0  0  0  0  0
   61.0770   34.2420   46.3090 C   0  0  0  0  0  0  0  0  0  0  0  0
   61.6310   30.6740   48.5460 C   0  0  0  0  0  0  0  0  0  0  0  0
   61.3000   30.9790   47.0990 C   0  0  0  0  0  0  0  0  0  0  0  0
   59.1268   28.4891   49.3338 H   0  0  0  0  0  0  0  0  0  0  0  0
   59.2122   29.6077   47.9309 H   0  0  0  0  0  0  0  0  0  0  0  0
   60.1760   28.0919   47.9309 H   0  0  0  0  0  0  0  0  0  0  0  0
   60.7776   28.4395   51.0023 H   0  0  0  0  0  0  0  0  0  0  0  0
   62.3242   29.9591   53.2739 H   0  0  0  0  0  0  0  0  0  0  0  0
   62.4789   28.2970   52.6105 H   0  0  0  0  0  0  0  0  0  0  0  0
   63.8969   29.3996   52.6105 H   0  0  0  0  0  0  0  0  0  0  0  0
   64.2791   31.4065   52.2220 H   0  0  0  0  0  0  0  0  0  0  0  0
   65.2429   30.8514   50.8114 H   0  0  0  0  0  0  0  0  0  0  0  0
   64.5147   32.4935   50.8114 H   0  0  0  0  0  0  0  0  0  0  0  0
   62.0240   34.8260   49.3870 H   0  0  0  0  0  0  0  0  0  0  0  0
   59.4565   33.9878   49.3070 H   0  0  0  0  0  0  0  0  0  0  0  0
   57.4908   33.8717   47.7843 H   0  0  0  0  0  0  0  0  0  0  0  0
   56.5074   30.8513   42.5617 H   0  0  0  0  0  0  0  0  0  0  0  0
   56.9928   28.4377   42.9711 H   0  0  0  0  0  0  0  0  0  0  0  0
   53.5723   22.9330   46.0016 H   0  0  0  0  0  0  0  0  0  0  0  0
   53.0528   23.7846   44.5077 H   0  0  0  0  0  0  0  0  0  0  0  0
   54.5623   22.8108   44.5077 H   0  0  0  0  0  0  0  0  0  0  0  0
   57.3791   23.3173   46.6095 H   0  0  0  0  0  0  0  0  0  0  0  0
   56.6315   22.8034   45.0591 H   0  0  0  0  0  0  0  0  0  0  0  0
   57.9536   24.0195   45.0591 H   0  0  0  0  0  0  0  0  0  0  0  0
   59.4384   29.5090   46.3777 H   0  0  0  0  0  0  0  0  0  0  0  0
   58.9547   31.9186   45.9731 H   0  0  0  0  0  0  0  0  0  0  0  0
   60.1220   34.2595   44.3642 H   0  0  0  0  0  0  0  0  0  0  0  0
   62.0873   34.3690   45.8928 H   0  0  0  0  0  0  0  0  0  0  0  0
   60.4917   31.7239   47.0569 H   0  0  0  0  0  0  0  0  0  0  0  0
   62.1927   31.3778   46.5949 H   0  0  0  0  0  0  0  0  0  0  0  0
   60.9754   30.0568   46.5949 H   0  0  0  0  0  0  0  0  0  0  0  0
  1  2  1  0
  2  3  2  0
  3  4  1  0
  4  5  1  0
  4  6  2  0
  6  7  1  0
  6  8  1  0
  8  9  1  0
  9 10  2  0
  9 11  2  0
  9 12  1  0
 12 13  1  0
 13 14  2  0
 14 15  1  0
 15 16  2  0
 16 17  1  0
 17 18  2  0
 17 19  1  0
 19 20  1  0
 20 21  2  0
 21 22  1  0
 22 23  2  0
 23 24  1  0
 24 25  2  0
 24 26  2  0
 24 27  1  0
 27 28  2  3
 28 29  1  0
 29 30  1  0
 30 31  1  0
 31 32  1  0
 31 33  2  0
 33 34  1  0
 23 35  1  0
 35 36  2  0
 16 37  1  0
 37 38  2  0
  8 39  2  0
 39 40  1  0
 39  2  1  0
 38 13  1  0
 36 20  1  0
 33 28  1  0
  1 41  1  0
  1 42  1  0
  1 43  1  0
  3 44  1  0
  5 45  1  0
  5 46  1  0
  5 47  1  0
  7 48  1  0
  7 49  1  0
  7 50  1  0
 12 51  1  0
 14 52  1  0
 15 53  1  0
 21 54  1  0
 22 55  1  0
 32 56  1  0
 32 57  1  0
 32 58  1  0
 34 59  1  0
 34 60  1  0
 34 61  1  0
 35 62  1  0
 36 63  1  0
 37 64  1  0
 38 65  1  0
 40 66  1  0
 40 67  1  0
 40 68  1  0
M  CHG  2  19  -1  30  -1
M  END
>  <UniqueID>  (92) 
86

>  <SMILES>  (92) 
Cc1cc(C)c(C)c(S(=O)(=O)Nc2ccc(C(=O)[N-]c3ccc(S(=O)(=O)N=c4o[n-]c(C)c4C)cc3)cc2)c1C

>  <Energy>  (92) 
127.00338099291122

>  <Genealogy>  (92) 
Cc1cc(C)c(C)c(S(=O)(=O)Nc2ccc(C(=O)[N-]c3ccc(S(=O)(=O)N=c4o[n-]c(C)c4C)cc3)cc2)c1C (protonated)
Cc1cc(C)c(C)c(S(=O)(=O)Nc2ccc(C(=O)[N-]c3ccc(S(=O)(=O)N=c4o[n-]c(C)c4C)cc3)cc2)c1C (3D coordinates assigned)
Cc1cc(C)c(C)c(S(=O)(=O)Nc2ccc(C(=O)[N-]c3ccc(S(=O)(=O)N=c4o[n-]c(C)c4C)cc3)cc2)c1C (optimized conformer: 127.00338099291122 kcal/mol)

>  <smiles>  (92) 
Cc1cc(C)c(C)c(S(=O)(=O)Nc2ccc(C(=O)Nc3ccc(S(=O)(=O)N=c4o[nH]c(C)c4C)cc3)cc2)c1C

>  <score_type>  (92) 
oracle

>  <origin>  (92) 
adg

>  <m_score__min__energy>  (92) 
-15.369999999999999

>  <m_primary>  (92) 
energy

$$$$
92:0
     RDKit          3D

 51 53  0  0  0  0  0  0  0  0999 V2000
   61.6261   30.8945   50.4785 H   0  0  0  0  0  0  0  0  0  0  0  0
   61.3900   30.6940   49.4230 C   0  0  0  0  0  0  0  0  0  0  0  0
   60.7000   29.5300   49.0710 C   0  0  0  0  0  0  0  0  0  0  0  0
   60.4102   28.8101   49.8506 H   0  0  0  0  0  0  0  0  0  0  0  0
   57.0510   30.9270   44.2950 C   0  0  0  0  0  0  0  0  0  0  0  0
   56.2990   29.8480   44.8700 N   0  0  0  0  0  0  0  0  0  0  0  0
   56.7860   28.8280   45.5200 C   0  0  0  0  0  0  0  0  0  0  0  0
   57.8580   26.7660   46.9260 N   0  0  0  0  0  0  0  0  0  0  0  0
   56.6440   26.6130   46.3420 C   0  0  0  0  0  0  0  0  0  0  0  0
   55.9810   25.3840   46.4980 O   0  0  0  0  0  0  0  0  0  0  0  0
   56.3160   24.1620   45.8360 C   0  0  1  0  0  0  0  0  0  0  0  0
   55.4594   23.4723   45.8611 H   0  0  0  0  0  0  0  0  0  0  0  0
   56.6540   24.4330   44.3650 C   0  0  0  0  0  0  0  0  0  0  0  0
   57.5110   25.1201   44.3063 H   0  0  0  0  0  0  0  0  0  0  0  0
   56.9086   23.4859   43.8668 H   0  0  0  0  0  0  0  0  0  0  0  0
   55.7849   24.8874   43.8668 H   0  0  0  0  0  0  0  0  0  0  0  0
   57.5040   23.5190   46.5630 C   0  0  0  0  0  0  0  0  0  0  0  0
   58.6960   24.0400   46.0890 F   0  0  0  0  0  0  0  0  0  0  0  0
   57.4190   23.7470   47.9260 F   0  0  0  0  0  0  0  0  0  0  0  0
   57.4990   22.1540   46.3380 F   0  0  0  0  0  0  0  0  0  0  0  0
   56.1020   27.6500   45.6380 N   0  0  0  0  0  0  0  0  0  0  0  0
   55.1520   27.5530   45.2210 H   0  0  0  0  0  0  0  0  0  0  0  0
   58.5420   27.9300   46.8140 C   0  0  0  0  0  0  0  0  0  0  0  0
   59.6920   28.0500   47.4100 N   0  0  0  0  0  0  0  0  0  0  0  0
   60.3750   29.2740   47.7320 C   0  0  0  0  0  0  0  0  0  0  0  0
   57.1020   31.0500   42.9020 C   0  0  0  0  0  0  0  0  0  0  0  0
   56.5852   30.3110   42.2720 H   0  0  0  0  0  0  0  0  0  0  0  0
   57.8020   32.1010   42.3010 C   0  0  0  0  0  0  0  0  0  0  0  0
   57.8360   32.1630   40.8990 O   0  0  0  0  0  0  0  0  0  0  0  0
   57.0320   33.0360   40.1130 C   0  0  0  0  0  0  0  0  0  0  0  0
   56.4370   33.6821   40.7752 H   0  0  0  0  0  0  0  0  0  0  0  0
   57.6795   33.6587   39.4782 H   0  0  0  0  0  0  0  0  0  0  0  0
   56.3582   32.4418   39.4782 H   0  0  0  0  0  0  0  0  0  0  0  0
   58.4410   33.0540   43.1140 C   0  0  0  0  0  0  0  0  0  0  0  0
   59.0018   33.8798   42.6519 H   0  0  0  0  0  0  0  0  0  0  0  0
   58.3670   32.9570   44.5060 C   0  0  0  0  0  0  0  0  0  0  0  0
   58.8643   33.7113   45.1334 H   0  0  0  0  0  0  0  0  0  0  0  0
   57.6600   31.9000   45.1110 C   0  0  0  0  0  0  0  0  0  0  0  0
   57.5310   31.7930   46.5050 O   0  0  0  0  0  0  0  0  0  0  0  0
   58.1700   32.6550   47.4420 C   0  0  0  0  0  0  0  0  0  0  0  0
   57.9282   32.3289   48.4643 H   0  0  0  0  0  0  0  0  0  0  0  0
   59.2591   32.6160   47.2926 H   0  0  0  0  0  0  0  0  0  0  0  0
   57.8161   33.6857   47.2926 H   0  0  0  0  0  0  0  0  0  0  0  0
   57.9930   28.9610   46.1210 N   0  0  0  0  0  0  0  0  0  0  0  0
   60.7990   30.1770   46.7390 C   0  0  0  0  0  0  0  0  0  0  0  0
   60.5855   29.9664   45.6807 H   0  0  0  0  0  0  0  0  0  0  0  0
   61.4900   31.3400   47.0910 C   0  0  0  0  0  0  0  0  0  0  0  0
   61.8057   32.0483   46.3108 H   0  0  0  0  0  0  0  0  0  0  0  0
   61.7810   31.6050   48.4340 C   0  0  0  0  0  0  0  0  0  0  0  0
   62.4950   32.8010   48.7970 C   0  0  0  0  0  0  0  0  0  0  0  0
   63.0680   33.7630   49.0880 N   0  0  0  0  0  0  0  0  0  0  0  0
  1  2  1  0
  2  3  2  0
  3  4  1  0
  3  5  1  0
  5  6  1  0
  6  7  2  0
  7  8  1  0
  8  9  2  0
  9 10  1  0
 10 11  1  0
 11 12  1  6
 11 13  1  0
 13 14  1  0
 13 15  1  0
 13 16  1  0
 11 17  1  0
 17 18  1  0
 17 19  1  0
 17 20  1  0
  9 21  1  0
 21 22  1  0
 21 23  1  0
 23 24  2  0
 24 25  1  0
 25 26  2  0
 26 27  1  0
 26 28  1  0
 28 29  1  0
 29 30  1  0
 30 31  1  0
 30 32  1  0
 30 33  1  0
 28 34  2  0
 34 35  1  0
 34 36  1  0
 36 37  1  0
 36 38  2  0
 38 39  1  0
 39 40  1  0
 40 41  1  0
 40 42  1  0
 40 43  1  0
 23 44  1  0
  5 45  2  0
 45 46  1  0
 45 47  1  0
 47 48  1  0
 47 49  2  0
 49 50  1  0
 50 51  3  0
 49  2  1  0
 44  7  1  0
 38 25  1  0
M  CHG  1  44  -1
M  END
>  <UniqueID>  (93) 
87

>  <SMILES>  (93) 
COc1ccc(OC)c(/N=c2/[n-]/c(=N\c3ccc(C#N)cc3)nc(O[C@@H](C)C(F)(F)F)[nH]2)c1

>  <Energy>  (93) 
62.77101798750908

>  <Genealogy>  (93) 
COc1ccc(OC)c(N=c2[n-]c(=Nc3ccc(C#N)cc3)nc(OC(C)C(F)(F)F)[nH]2)c1 (protonated)
COc1ccc(OC)c(N=c2[n-]c(=Nc3ccc(C#N)cc3)nc(O[C@@H](C)C(F)(F)F)[nH]2)c1 (chirality)
COc1ccc(OC)c(/N=c2/[n-]/c(=N\c3ccc(C#N)cc3)nc(O[C@@H](C)C(F)(F)F)[nH]2)c1 (cis-trans isomerization)
COc1ccc(OC)c(/N=c2/[n-]/c(=N\c3ccc(C#N)cc3)nc(O[C@@H](C)C(F)(F)F)[nH]2)c1 (3D coordinates assigned)
COc1ccc(OC)c(/N=c2/[n-]/c(=N\c3ccc(C#N)cc3)nc(O[C@@H](C)C(F)(F)F)[nH]2)c1 (optimized conformer: 62.77101798750908 kcal/mol)

>  <smiles>  (93) 
COc1ccc(OC)c(N=c2[nH]c(OC(C)C(F)(F)F)nc(=Nc3ccc(C#N)cc3)[nH]2)c1

>  <score_type>  (93) 
oracle

>  <origin>  (93) 
adg

>  <m_score__min__energy>  (93) 
-9.0800000000000001

>  <m_primary>  (93) 
energy

$$$$
93:0
     RDKit          3D

 56 59  0  0  0  0  0  0  0  0999 V2000
   55.9570   29.1720   51.6330 H   0  0  0  0  0  0  0  0  0  0  0  0
   56.3530   30.0530   51.9410 O   0  0  0  0  0  0  0  0  0  0  0  0
   57.4280   30.6380   51.2760 C   0  0  0  0  0  0  0  0  0  0  0  0
   57.5420   32.0320   51.1920 C   0  0  0  0  0  0  0  0  0  0  0  0
   56.7825   32.6749   51.6608 H   0  0  0  0  0  0  0  0  0  0  0  0
   58.6200   32.6060   50.5130 C   0  0  0  0  0  0  0  0  0  0  0  0
   58.7043   33.7005   50.4421 H   0  0  0  0  0  0  0  0  0  0  0  0
   59.5910   31.7920   49.9240 C   0  0  0  0  0  0  0  0  0  0  0  0
   60.4296   32.2480   49.3773 H   0  0  0  0  0  0  0  0  0  0  0  0
   59.5010   30.3920   50.0270 C   0  0  0  0  0  0  0  0  0  0  0  0
   60.5040   29.5040   49.3960 C   0  0  0  0  0  0  0  0  0  0  0  0
   61.4683   29.9511   49.1126 H   0  0  0  0  0  0  0  0  0  0  0  0
   60.3310   28.1970   49.1420 C   0  0  0  0  0  0  0  0  0  0  0  0
   60.6480   27.4846   49.9178 H   0  0  0  0  0  0  0  0  0  0  0  0
   59.7480   27.6380   47.9020 C   0  0  0  0  0  0  0  0  0  0  0  0
   60.5070   26.7500   47.1310 C   0  0  0  0  0  0  0  0  0  0  0  0
   61.5134   26.4586   47.4662 H   0  0  0  0  0  0  0  0  0  0  0  0
   59.9960   26.2310   45.9390 C   0  0  0  0  0  0  0  0  0  0  0  0
   60.6008   25.5296   45.3456 H   0  0  0  0  0  0  0  0  0  0  0  0
   58.7120   26.5990   45.4910 C   0  0  0  0  0  0  0  0  0  0  0  0
   58.1990   26.1370   44.2680 O   0  0  0  0  0  0  0  0  0  0  0  0
   58.0090   26.9460   43.1120 C   0  0  0  0  0  0  0  0  0  0  0  0
   57.7675   27.9741   43.4196 H   0  0  0  0  0  0  0  0  0  0  0  0
   58.9307   26.9498   42.5116 H   0  0  0  0  0  0  0  0  0  0  0  0
   57.1820   26.5391   42.5116 H   0  0  0  0  0  0  0  0  0  0  0  0
   57.9390   27.4820   46.2740 C   0  0  0  0  0  0  0  0  0  0  0  0
   56.6270   27.8980   45.8730 N   0  0  0  0  0  0  0  0  0  0  0  0
   56.3130   29.1280   45.2090 C   0  0  0  0  0  0  0  0  0  0  0  0
   55.1680   29.3070   44.7130 O   0  0  0  0  0  0  0  0  0  0  0  0
   57.3040   30.2140   45.1420 C   0  0  0  0  0  0  0  0  0  0  0  0
   58.0830   30.5680   46.1820 N   0  0  0  0  0  0  0  0  0  0  0  0
   58.8290   31.5870   45.7010 C   0  0  0  0  0  0  0  0  0  0  0  0
   59.8600   32.3280   46.4790 C   0  0  0  0  0  0  0  0  0  0  0  0
   61.0380   31.6360   46.8260 C   0  0  0  0  0  0  0  0  0  0  0  0
   61.1606   30.5870   46.5185 H   0  0  0  0  0  0  0  0  0  0  0  0
   62.0500   32.2610   47.5530 C   0  0  0  0  0  0  0  0  0  0  0  0
   62.9628   31.7045   47.8121 H   0  0  0  0  0  0  0  0  0  0  0  0
   61.9090   33.5870   47.9520 C   0  0  0  0  0  0  0  0  0  0  0  0
   62.7086   34.0757   48.5280 H   0  0  0  0  0  0  0  0  0  0  0  0
   60.7550   34.2960   47.6220 C   0  0  0  0  0  0  0  0  0  0  0  0
   60.6511   35.3438   47.9405 H   0  0  0  0  0  0  0  0  0  0  0  0
   59.7210   33.6870   46.8860 C   0  0  0  0  0  0  0  0  0  0  0  0
   58.5020   34.5120   46.5600 C   0  0  0  0  0  0  0  0  0  0  0  0
   58.0198   34.8383   47.4933 H   0  0  0  0  0  0  0  0  0  0  0  0
   58.8018   35.3936   45.9744 H   0  0  0  0  0  0  0  0  0  0  0  0
   57.7950   33.9060   45.9744 H   0  0  0  0  0  0  0  0  0  0  0  0
   58.5450   31.8580   44.4450 O   0  0  0  0  0  0  0  0  0  0  0  0
   57.6060   31.0290   44.0660 C   0  0  0  0  0  0  0  0  0  0  0  0
   57.0050   31.0130   42.6980 C   0  0  0  0  0  0  0  0  0  0  0  0
   55.9084   30.9838   42.7796 H   0  0  0  0  0  0  0  0  0  0  0  0
   57.3082   31.9195   42.1537 H   0  0  0  0  0  0  0  0  0  0  0  0
   57.3560   30.1239   42.1537 H   0  0  0  0  0  0  0  0  0  0  0  0
   58.4790   28.0280   47.4450 C   0  0  0  0  0  0  0  0  0  0  0  0
   57.9018   28.7717   48.0139 H   0  0  0  0  0  0  0  0  0  0  0  0
   58.4010   29.8220   50.6860 C   0  0  0  0  0  0  0  0  0  0  0  0
   58.3025   28.7277   50.7394 H   0  0  0  0  0  0  0  0  0  0  0  0
  1  2  1  0
  2  3  1  0
  3  4  2  0
  4  5  1  0
  4  6  1  0
  6  7  1  0
  6  8  2  0
  8  9  1  0
  8 10  1  0
 10 11  1  0
 11 12  1  0
 11 13  2  0
 13 14  1  0
 13 15  1  0
 15 16  2  0
 16 17  1  0
 16 18  1  0
 18 19  1  0
 18 20  2  0
 20 21  1  0
 21 22  1  0
 22 23  1  0
 22 24  1  0
 22 25  1  0
 20 26  1  0
 26 27  1  0
 27 28  1  0
 28 29  2  0
 28 30  1  0
 30 31  1  0
 31 32  2  0
 32 33  1  0
 33 34  2  0
 34 35  1  0
 34 36  1  0
 36 37  1  0
 36 38  2  0
 38 39  1  0
 38 40  1  0
 40 41  1  0
 40 42  2  0
 42 43  1  0
 43 44  1  0
 43 45  1  0
 43 46  1  0
 32 47  1  0
 47 48  1  0
 48 49  1  0
 49 50  1  0
 49 51  1  0
 49 52  1  0
 26 53  2  0
 53 54  1  0
 10 55  2  0
 55 56  1  0
 55  3  1  0
 53 15  1  0
 48 30  2  0
 42 33  1  0
M  CHG  1  27  -1
M  END
>  <UniqueID>  (94) 
88

>  <SMILES>  (94) 
COc1ccc(/C=C\c2cccc(O)c2)cc1[N-]C(=O)c1nc(-c2ccccc2C)oc1C

>  <Energy>  (94) 
105.84623892718588

>  <Genealogy>  (94) 
COc1ccc(C=Cc2cccc(O)c2)cc1[N-]C(=O)c1nc(-c2ccccc2C)oc1C (protonated)
COc1ccc(/C=C\c2cccc(O)c2)cc1[N-]C(=O)c1nc(-c2ccccc2C)oc1C (cis-trans isomerization)
COc1ccc(/C=C\c2cccc(O)c2)cc1[N-]C(=O)c1nc(-c2ccccc2C)oc1C (3D coordinates assigned)
COc1ccc(/C=C\c2cccc(O)c2)cc1[N-]C(=O)c1nc(-c2ccccc2C)oc1C (optimized conformer: 105.84623892718588 kcal/mol)

>  <smiles>  (94) 
COc1ccc(C=Cc2cccc(O)c2)cc1NC(=O)c1nc(-c2ccccc2C)oc1C

>  <score_type>  (94) 
oracle

>  <origin>  (94) 
adg

>  <m_score__min__energy>  (94) 
-12.960000000000001

>  <m_primary>  (94) 
energy

$$$$
94:0
     RDKit          3D

 55 58  0  0  0  0  0  0  0  0999 V2000
   63.7530   34.4570   51.3550 C   0  0  0  0  0  0  0  0  0  0  0  0
   62.9470   34.6130   50.1920 O   0  0  0  0  0  0  0  0  0  0  0  0
   62.7170   33.6030   49.2470 C   0  0  0  0  0  0  0  0  0  0  0  0
   63.4670   33.6150   48.0640 C   0  0  0  0  0  0  0  0  0  0  0  0
   63.2580   32.6430   47.0830 C   0  0  0  0  0  0  0  0  0  0  0  0
   62.3080   31.6400   47.2820 C   0  0  0  0  0  0  0  0  0  0  0  0
   61.5690   31.5900   48.4710 C   0  0  0  0  0  0  0  0  0  0  0  0
   60.5970   30.5480   48.6570 N   0  0  0  0  0  0  0  0  0  0  0  0
   60.7510   29.4590   49.5870 C   0  0  0  0  0  0  0  0  0  0  0  0
   61.0950   29.7070   50.9290 C   0  0  0  0  0  0  0  0  0  0  0  0
   61.2800   28.6490   51.8210 C   0  0  0  0  0  0  0  0  0  0  0  0
   61.1300   27.3320   51.3840 C   0  0  0  0  0  0  0  0  0  0  0  0
   60.8090   27.0730   50.0510 C   0  0  0  0  0  0  0  0  0  0  0  0
   60.6420   28.1270   49.1370 C   0  0  0  0  0  0  0  0  0  0  0  0
   60.2730   27.8670   47.7750 N   0  0  0  0  0  0  0  0  0  0  0  0
   59.1810   28.4680   47.0690 C   0  0  0  0  0  0  0  0  0  0  0  0
   58.2330   28.9680   47.7320 O   0  0  0  0  0  0  0  0  0  0  0  0
   59.2060   28.5910   45.6370 N   0  0  0  0  0  0  0  0  0  0  0  0
   58.1900   29.2980   44.9050 C   0  0  0  0  0  0  0  0  0  0  0  0
   57.5940   28.6730   43.8000 C   0  0  0  0  0  0  0  0  0  0  0  0
   56.6560   29.3540   43.0210 C   0  0  0  0  0  0  0  0  0  0  0  0
   56.3000   30.6650   43.3420 C   0  0  0  0  0  0  0  0  0  0  0  0
   56.8650   31.2900   44.4560 C   0  0  0  0  0  0  0  0  0  0  0  0
   57.7880   30.6070   45.2620 C   0  0  0  0  0  0  0  0  0  0  0  0
   58.2800   31.2490   46.4470 N   0  0  0  0  0  0  0  0  0  0  0  0
   58.7230   32.6170   46.4790 C   0  0  0  0  0  0  0  0  0  0  0  0
   58.8840   33.2590   47.7160 C   0  0  0  0  0  0  0  0  0  0  0  0
   59.3250   34.5860   47.7720 C   0  0  0  0  0  0  0  0  0  0  0  0
   59.6260   35.2750   46.5950 C   0  0  0  0  0  0  0  0  0  0  0  0
   59.4890   34.6370   45.3580 C   0  0  0  0  0  0  0  0  0  0  0  0
   59.0400   33.3140   45.2970 C   0  0  0  0  0  0  0  0  0  0  0  0
   61.7610   32.5880   49.4450 C   0  0  0  0  0  0  0  0  0  0  0  0
   63.1288   34.5778   52.2526 H   0  0  0  0  0  0  0  0  0  0  0  0
   64.2058   33.4545   51.3555 H   0  0  0  0  0  0  0  0  0  0  0  0
   64.5472   35.2181   51.3555 H   0  0  0  0  0  0  0  0  0  0  0  0
   64.2260   34.3955   47.9065 H   0  0  0  0  0  0  0  0  0  0  0  0
   63.8432   32.6680   46.1519 H   0  0  0  0  0  0  0  0  0  0  0  0
   62.1386   30.8844   46.5007 H   0  0  0  0  0  0  0  0  0  0  0  0
   59.7600   30.5460   48.0310 H   0  0  0  0  0  0  0  0  0  0  0  0
   61.2191   30.7428   51.2779 H   0  0  0  0  0  0  0  0  0  0  0  0
   61.5442   28.8536   52.8690 H   0  0  0  0  0  0  0  0  0  0  0  0
   61.2647   26.4990   52.0897 H   0  0  0  0  0  0  0  0  0  0  0  0
   60.6855   26.0337   49.7125 H   0  0  0  0  0  0  0  0  0  0  0  0
   60.1170   28.4250   45.1540 H   0  0  0  0  0  0  0  0  0  0  0  0
   57.8674   27.6385   43.5449 H   0  0  0  0  0  0  0  0  0  0  0  0
   56.1973   28.8568   42.1536 H   0  0  0  0  0  0  0  0  0  0  0  0
   55.5741   31.2062   42.7173 H   0  0  0  0  0  0  0  0  0  0  0  0
   56.5844   32.3245   44.7030 H   0  0  0  0  0  0  0  0  0  0  0  0
   58.4320   30.6590   47.2950 H   0  0  0  0  0  0  0  0  0  0  0  0
   58.6624   32.7164   48.6469 H   0  0  0  0  0  0  0  0  0  0  0  0
   59.4348   35.0874   48.7449 H   0  0  0  0  0  0  0  0  0  0  0  0
   59.9705   36.3186   46.6409 H   0  0  0  0  0  0  0  0  0  0  0  0
   59.7348   35.1767   44.4316 H   0  0  0  0  0  0  0  0  0  0  0  0
   58.9340   32.8158   44.3220 H   0  0  0  0  0  0  0  0  0  0  0  0
   61.1606   32.5750   50.3666 H   0  0  0  0  0  0  0  0  0  0  0  0
  1  2  1  0
  2  3  1  0
  3  4  2  0
  4  5  1  0
  5  6  2  0
  6  7  1  0
  7  8  1  0
  8  9  1  0
  9 10  2  0
 10 11  1  0
 11 12  2  0
 12 13  1  0
 13 14  2  0
 14 15  1  0
 15 16  1  0
 16 17  2  0
 16 18  1  0
 18 19  1  0
 19 20  2  0
 20 21  1  0
 21 22  2  0
 22 23  1  0
 23 24  2  0
 24 25  1  0
 25 26  1  0
 26 27  2  0
 27 28  1  0
 28 29  2  0
 29 30  1  0
 30 31  2  0
  7 32  2  0
 32  3  1  0
 14  9  1  0
 24 19  1  0
 31 26  1  0
  1 33  1  0
  1 34  1  0
  1 35  1  0
  4 36  1  0
  5 37  1  0
  6 38  1  0
  8 39  1  0
 10 40  1  0
 11 41  1  0
 12 42  1  0
 13 43  1  0
 18 44  1  0
 20 45  1  0
 21 46  1  0
 22 47  1  0
 23 48  1  0
 25 49  1  0
 27 50  1  0
 28 51  1  0
 29 52  1  0
 30 53  1  0
 31 54  1  0
 32 55  1  0
M  CHG  1  15  -1
M  END
>  <UniqueID>  (95) 
89

>  <SMILES>  (95) 
COc1cccc(Nc2ccccc2[N-]C(=O)Nc2ccccc2Nc2ccccc2)c1

>  <Energy>  (95) 
77.9248984111116

>  <Genealogy>  (95) 
COc1cccc(Nc2ccccc2[N-]C(=O)Nc2ccccc2Nc2ccccc2)c1 (protonated)
COc1cccc(Nc2ccccc2[N-]C(=O)Nc2ccccc2Nc2ccccc2)c1 (3D coordinates assigned)
COc1cccc(Nc2ccccc2[N-]C(=O)Nc2ccccc2Nc2ccccc2)c1 (optimized conformer: 77.9248984111116 kcal/mol)

>  <smiles>  (95) 
COc1cccc(Nc2ccccc2NC(=O)Nc2ccccc2Nc2ccccc2)c1

>  <score_type>  (95) 
oracle

>  <origin>  (95) 
adg

>  <m_score__min__energy>  (95) 
-10.4

>  <m_primary>  (95) 
energy

$$$$
