0:0
     RDKit          3D

 43 44  0  0  0  0  0  0  0  0999 V2000
   58.1140   32.3220   42.7110 O   0  0  0  0  0  0  0  0  0  0  0  0
   57.4960   31.7340   43.6390 C   0  0  0  0  0  0  0  0  0  0  0  0
   56.5500   30.6200   43.2970 C   0  0  0  0  0  0  0  0  0  0  0  0
   55.9720   30.0450   44.5080 N   0  0  0  0  0  0  0  0  0  0  0  0
   56.6730   29.1290   45.3530 C   0  0  0  0  0  0  0  0  0  0  0  0
   57.7570   29.4700   45.8990 O   0  0  0  0  0  0  0  0  0  0  0  0
   56.1550   27.8080   45.5400 N   0  0  0  0  0  0  0  0  0  0  0  0
   56.9950   26.7050   45.9980 C   0  0  0  0  0  0  0  0  0  0  0  0
   56.5890   25.4310   45.3050 C   0  0  0  0  0  0  0  0  0  0  0  0
   57.3930   24.8990   44.2840 C   0  0  0  0  0  0  0  0  0  0  0  0
   57.0450   23.6930   43.6690 C   0  0  0  0  0  0  0  0  0  0  0  0
   55.8970   23.0060   44.0740 C   0  0  0  0  0  0  0  0  0  0  0  0
   55.1010   23.5200   45.1000 C   0  0  0  0  0  0  0  0  0  0  0  0
   55.4440   24.7270   45.7170 C   0  0  0  0  0  0  0  0  0  0  0  0
   57.7150   32.1030   45.0120 N   0  0  0  0  0  0  0  0  0  0  0  0
   58.3750   33.3070   45.4210 C   0  0  0  0  0  0  0  0  0  0  0  0
   58.8300   34.1150   44.5650 O   0  0  0  0  0  0  0  0  0  0  0  0
   58.4920   33.5860   46.7880 O   0  0  0  0  0  0  0  0  0  0  0  0
   59.2660   34.6660   47.3030 C   0  0  0  0  0  0  0  0  0  0  0  0
   60.6770   34.2190   47.5710 C   0  0  0  0  0  0  0  0  0  0  0  0
   61.1790   34.1730   48.8820 C   0  0  0  0  0  0  0  0  0  0  0  0
   62.4990   33.7750   49.1160 C   0  0  0  0  0  0  0  0  0  0  0  0
   63.3250   33.4240   48.0460 C   0  0  0  0  0  0  0  0  0  0  0  0
   62.8350   33.4720   46.7390 C   0  0  0  0  0  0  0  0  0  0  0  0
   61.5160   33.8700   46.4990 C   0  0  0  0  0  0  0  0  0  0  0  0
   55.7421   31.0140   42.6630 H   0  0  0  0  0  0  0  0  0  0  0  0
   57.1056   29.8352   42.7627 H   0  0  0  0  0  0  0  0  0  0  0  0
   55.1880   27.5950   45.2040 H   0  0  0  0  0  0  0  0  0  0  0  0
   58.0472   26.9271   45.7665 H   0  0  0  0  0  0  0  0  0  0  0  0
   56.8718   26.5821   47.0842 H   0  0  0  0  0  0  0  0  0  0  0  0
   58.3005   25.4336   43.9668 H   0  0  0  0  0  0  0  0  0  0  0  0
   57.6752   23.2841   42.8655 H   0  0  0  0  0  0  0  0  0  0  0  0
   55.6205   22.0605   43.5846 H   0  0  0  0  0  0  0  0  0  0  0  0
   54.2024   22.9742   45.4234 H   0  0  0  0  0  0  0  0  0  0  0  0
   54.8162   25.1268   46.5270 H   0  0  0  0  0  0  0  0  0  0  0  0
   57.3210   31.4910   45.7610 H   0  0  0  0  0  0  0  0  0  0  0  0
   59.2786   35.4852   46.5690 H   0  0  0  0  0  0  0  0  0  0  0  0
   58.8156   35.0100   48.2458 H   0  0  0  0  0  0  0  0  0  0  0  0
   60.5320   34.4508   49.7271 H   0  0  0  0  0  0  0  0  0  0  0  0
   62.8873   33.7383   50.1445 H   0  0  0  0  0  0  0  0  0  0  0  0
   64.3624   33.1095   48.2328 H   0  0  0  0  0  0  0  0  0  0  0  0
   63.4874   33.1964   45.8973 H   0  0  0  0  0  0  0  0  0  0  0  0
   61.1342   33.9100   45.4682 H   0  0  0  0  0  0  0  0  0  0  0  0
  1  2  2  0
  2  3  1  0
  3  4  1  0
  4  5  1  0
  5  6  2  0
  5  7  1  0
  7  8  1  0
  8  9  1  0
  9 10  2  0
 10 11  1  0
 11 12  2  0
 12 13  1  0
 13 14  2  0
  2 15  1  0
 15 16  1  0
 16 17  2  0
 16 18  1  0
 18 19  1  0
 19 20  1  0
 20 21  2  0
 21 22  1  0
 22 23  2  0
 23 24  1  0
 24 25  2  0
 14  9  1  0
 25 20  1  0
  3 26  1  0
  3 27  1  0
  7 28  1  0
  8 29  1  0
  8 30  1  0
 10 31  1  0
 11 32  1  0
 12 33  1  0
 13 34  1  0
 14 35  1  0
 15 36  1  0
 19 37  1  0
 19 38  1  0
 21 39  1  0
 22 40  1  0
 23 41  1  0
 24 42  1  0
 25 43  1  0
M  CHG  1   4  -1
M  END
>  <UniqueID>  (1) 
1

>  <SMILES>  (1) 
O=C(C[N-]C(=O)NCc1ccccc1)NC(=O)OCc1ccccc1

>  <Energy>  (1) 
33.40114243803791

>  <Genealogy>  (1) 
O=C(C[N-]C(=O)NCc1ccccc1)NC(=O)OCc1ccccc1 (protonated)
O=C(C[N-]C(=O)NCc1ccccc1)NC(=O)OCc1ccccc1 (3D coordinates assigned)
O=C(C[N-]C(=O)NCc1ccccc1)NC(=O)OCc1ccccc1 (optimized conformer: 33.40114243803791 kcal/mol)

>  <smiles>  (1) 
O=C(CNC(=O)NCc1ccccc1)NC(=O)OCc1ccccc1

>  <score_type>  (1) 
oracle

>  <origin>  (1) 
adg

>  <m_score__min__energy>  (1) 
-9.9700000000000006

>  <m_primary>  (1) 
energy

$$$$
1:0
     RDKit          3D

 38 40  0  0  1  0  0  0  0  0999 V2000
   56.4010   29.3850   42.6460 N   0  0  0  0  0  0  0  0  0  0  0  0
   56.3820   29.8510   44.3330 S   0  0  0  0  0  0  0  0  0  0  0  0
   55.1690   29.3490   45.0150 O   0  0  0  0  0  0  0  0  0  0  0  0
   56.5230   31.3280   44.4650 O   0  0  0  0  0  0  0  0  0  0  0  0
   57.8450   29.1240   45.0290 C   0  0  0  0  0  0  0  0  0  0  0  0
   58.2540   27.8580   44.6690 C   0  0  0  0  0  0  0  0  0  0  0  0
   59.3990   27.3490   45.2480 C   0  0  0  0  0  0  0  0  0  0  0  0
   60.1470   28.0730   46.1790 C   0  0  0  0  0  0  0  0  0  0  0  0
   59.7370   29.3360   46.5400 C   0  0  0  0  0  0  0  0  0  0  0  0
   60.3930   30.1700   47.4700 N   0  0  0  0  0  0  0  0  0  0  0  0
   61.4650   30.8210   47.3290 C   0  0  0  0  0  0  0  0  0  0  0  0
   61.7460   32.1320   47.8450 C   0  0  0  0  0  0  0  0  0  0  0  0
   60.9930   33.2790   47.6900 C   0  0  0  0  0  0  0  0  0  0  0  0
   59.7290   33.5010   47.0150 C   0  0  0  0  0  0  0  0  0  0  0  0
   59.7720   34.2080   45.8200 C   0  0  0  0  0  0  0  0  0  0  0  0
   58.6180   34.4800   45.0890 C   0  0  0  0  0  0  0  0  0  0  0  0
   57.3890   34.0550   45.5320 C   0  0  0  0  0  0  0  0  0  0  0  0
   57.3750   33.3510   46.7290 C   0  0  0  0  0  0  0  0  0  0  0  0
   58.5120   33.0800   47.4520 C   0  0  0  0  0  0  0  0  0  0  0  0
   61.6830   34.2350   48.3510 N   0  0  0  0  0  0  0  0  0  0  0  0
   62.7840   33.7270   48.8810 N   0  0  0  0  0  0  0  0  0  0  0  0
   62.8750   32.4260   48.5980 C   0  0  0  0  0  0  0  0  0  0  0  0
   63.8070   31.6520   48.9550 O   0  0  0  0  0  0  0  0  0  0  0  0
   58.5900   29.8170   45.9430 C   0  0  0  0  0  0  0  0  0  0  0  0
   55.4830   29.5630   42.2070 H   0  0  0  0  0  0  0  0  0  0  0  0
   56.5310   28.3360   42.5760 H   0  0  0  0  0  0  0  0  0  0  0  0
   57.6819   27.2676   43.9381 H   0  0  0  0  0  0  0  0  0  0  0  0
   59.7334   26.3395   44.9668 H   0  0  0  0  0  0  0  0  0  0  0  0
   61.0559   27.6375   46.6198 H   0  0  0  0  0  0  0  0  0  0  0  0
   62.2658   30.3351   46.7522 H   0  0  0  0  0  0  0  0  0  0  0  0
   60.7422   34.5621   45.4414 H   0  0  0  0  0  0  0  0  0  0  0  0
   58.6916   35.0416   44.1460 H   0  0  0  0  0  0  0  0  0  0  0  0
   56.4665   34.2611   44.9694 H   0  0  0  0  0  0  0  0  0  0  0  0
   56.4094   32.9938   47.1163 H   0  0  0  0  0  0  0  0  0  0  0  0
   58.4368   32.5168   48.3939 H   0  0  0  0  0  0  0  0  0  0  0  0
   61.4520   35.2570   48.4750 H   0  0  0  0  0  0  0  0  0  0  0  0
   63.5060   34.2320   49.4410 H   0  0  0  0  0  0  0  0  0  0  0  0
   58.2518   30.8261   46.2209 H   0  0  0  0  0  0  0  0  0  0  0  0
  1  2  1  0
  2  3  2  0
  2  4  2  0
  2  5  1  0
  5  6  2  0
  6  7  1  0
  7  8  2  0
  8  9  1  0
  9 10  1  0
 10 11  2  0
 11 12  1  0
 12 13  2  0
 13 14  1  0
 14 15  2  0
 15 16  1  0
 16 17  2  0
 17 18  1  0
 18 19  2  0
 13 20  1  0
 20 21  1  0
 21 22  1  0
 22 23  2  0
  9 24  2  0
 24  5  1  0
 22 12  1  0
 19 14  1  0
  1 25  1  0
  1 26  1  0
  6 27  1  0
  7 28  1  0
  8 29  1  0
 11 30  1  0
 15 31  1  0
 16 32  1  0
 17 33  1  0
 18 34  1  0
 19 35  1  0
 20 36  1  0
 21 37  1  0
 24 38  1  0
M  END
>  <smiles>  (2) 
NS(=O)(=O)c1cccc(N=Cc2c(-c3ccccc3)[nH][nH]c2=O)c1

>  <score_type>  (2) 
oracle

>  <origin>  (2) 
adg

>  <m_score__min__energy>  (2) 
-9.1899999999999995

>  <m_primary>  (2) 
energy

$$$$
2:0
     RDKit          3D

 33 34  0  0  0  0  0  0  0  0999 V2000
   55.0450   26.3310   45.9220 N   0  0  0  0  0  0  0  0  0  0  0  0
   56.6060   25.6230   46.1340 S   0  0  0  0  0  0  0  0  0  0  0  0
   56.6710   24.9300   47.4670 O   0  0  0  0  0  0  0  0  0  0  0  0
   56.8390   24.6090   45.0490 O   0  0  0  0  0  0  0  0  0  0  0  0
   57.8360   26.8810   46.0670 C   0  0  0  0  0  0  0  0  0  0  0  0
   58.8270   26.8620   45.0770 C   0  0  0  0  0  0  0  0  0  0  0  0
   59.8110   27.8540   45.0520 C   0  0  0  0  0  0  0  0  0  0  0  0
   59.8060   28.8720   46.0080 C   0  0  0  0  0  0  0  0  0  0  0  0
   58.8060   28.9190   46.9870 C   0  0  0  0  0  0  0  0  0  0  0  0
   58.8610   29.9540   47.9780 N   0  0  0  0  0  0  0  0  0  0  0  0
   59.1090   31.3440   47.7370 C   0  0  0  0  0  0  0  0  0  0  0  0
   60.2530   31.8390   47.9270 O   0  0  0  0  0  0  0  0  0  0  0  0
   57.9940   32.2160   47.2560 C   0  0  0  0  0  0  0  0  0  0  0  0
   58.4700   33.0960   45.7270 S   0  0  0  0  0  0  0  0  0  0  0  0
   57.6180   31.9680   44.6260 C   0  0  0  0  0  0  0  0  0  0  0  0
   56.9720   30.8840   45.1290 N   0  0  0  0  0  0  0  0  0  0  0  0
   56.3390   30.0040   44.3090 C   0  0  0  0  0  0  0  0  0  0  0  0
   55.6710   28.8710   44.8650 N   0  0  0  0  0  0  0  0  0  0  0  0
   56.3500   30.2130   42.9260 C   0  0  0  0  0  0  0  0  0  0  0  0
   57.0130   31.3370   42.4300 C   0  0  0  0  0  0  0  0  0  0  0  0
   57.0410   31.5620   41.1920 O   0  0  0  0  0  0  0  0  0  0  0  0
   57.6310   32.1910   43.2850 N   0  0  0  0  0  0  0  0  0  0  0  0
   57.8270   27.9090   47.0200 C   0  0  0  0  0  0  0  0  0  0  0  0
   55.1240   27.0190   45.1400 H   0  0  0  0  0  0  0  0  0  0  0  0
   58.8306   26.0654   44.3185 H   0  0  0  0  0  0  0  0  0  0  0  0
   60.5916   27.8329   44.2772 H   0  0  0  0  0  0  0  0  0  0  0  0
   60.5921   29.6413   45.9918 H   0  0  0  0  0  0  0  0  0  0  0  0
   57.1108   31.5926   47.0529 H   0  0  0  0  0  0  0  0  0  0  0  0
   57.7677   32.9596   48.0343 H   0  0  0  0  0  0  0  0  0  0  0  0
   56.0740   27.9150   44.7510 H   0  0  0  0  0  0  0  0  0  0  0  0
   54.7770   28.9810   45.3950 H   0  0  0  0  0  0  0  0  0  0  0  0
   55.8485   29.5089   42.2458 H   0  0  0  0  0  0  0  0  0  0  0  0
   57.0499   27.9261   47.7983 H   0  0  0  0  0  0  0  0  0  0  0  0
  1  2  1  0
  2  3  2  0
  2  4  2  0
  2  5  1  0
  5  6  2  0
  6  7  1  0
  7  8  2  0
  8  9  1  0
  9 10  1  0
 10 11  1  0
 11 12  2  0
 11 13  1  0
 13 14  1  0
 14 15  1  0
 15 16  2  0
 16 17  1  0
 17 18  1  0
 17 19  2  0
 19 20  1  0
 20 21  2  0
 20 22  1  0
  9 23  2  0
 23  5  1  0
 22 15  1  0
  1 24  1  0
  6 25  1  0
  7 26  1  0
  8 27  1  0
 13 28  1  0
 13 29  1  0
 18 30  1  0
 18 31  1  0
 19 32  1  0
 23 33  1  0
M  CHG  3   1  -1  10  -1  22  -1
M  END
>  <UniqueID>  (3) 
2

>  <SMILES>  (3) 
[NH-]S(=O)(=O)c1cccc([N-]C(=O)CSc2nc(N)cc(=O)[n-]2)c1

>  <Energy>  (3) 
29.743898441389646

>  <Genealogy>  (3) 
[NH-]S(=O)(=O)c1cccc([N-]C(=O)CSc2nc(N)cc(=O)[n-]2)c1 (protonated)
[NH-]S(=O)(=O)c1cccc([N-]C(=O)CSc2nc(N)cc(=O)[n-]2)c1 (3D coordinates assigned)
[NH-]S(=O)(=O)c1cccc([N-]C(=O)CSc2nc(N)cc(=O)[n-]2)c1 (optimized conformer: 29.743898441389646 kcal/mol)

>  <smiles>  (3) 
Nc1cc(=O)[nH]c(SCC(=O)Nc2cccc(S(N)(=O)=O)c2)n1

>  <score_type>  (3) 
oracle

>  <origin>  (3) 
adg

>  <m_score__min__energy>  (3) 
-13.9

>  <m_primary>  (3) 
energy

$$$$
3:0
     RDKit          3D

 23 23  0  0  0  0  0  0  0  0999 V2000
   58.2123   30.9905   46.6201 H   0  0  0  0  0  0  0  0  0  0  0  0
   57.7610   31.6200   45.8390 C   0  0  0  0  0  0  0  0  0  0  0  0
   57.1110   31.0650   44.8610 N   0  0  0  0  0  0  0  0  0  0  0  0
   56.5740   29.7340   44.8710 C   0  0  0  0  0  0  0  0  0  0  0  0
   55.3200   29.5950   44.8680 O   0  0  0  0  0  0  0  0  0  0  0  0
   57.4700   28.5170   44.8860 C   0  0  0  0  0  0  0  0  0  0  0  0
   57.6602   28.2058   43.8482 H   0  0  0  0  0  0  0  0  0  0  0  0
   58.4015   28.7933   45.4017 H   0  0  0  0  0  0  0  0  0  0  0  0
   56.8610   27.3670   45.6290 C   0  0  0  0  0  0  0  0  0  0  0  0
   55.5390   27.1030   45.6420 N   0  0  0  0  0  0  0  0  0  0  0  0
   55.3810   25.9980   46.3480 N   0  0  0  0  0  0  0  0  0  0  0  0
   56.6110   25.6230   46.7330 C   0  0  0  0  0  0  0  0  0  0  0  0
   56.8350   24.5960   47.4270 O   0  0  0  0  0  0  0  0  0  0  0  0
   57.5830   26.4470   46.3010 N   0  0  0  0  0  0  0  0  0  0  0  0
   57.8960   33.0490   45.9100 N   0  0  0  0  0  0  0  0  0  0  0  0
   58.6390   33.6260   47.0310 C   0  0  0  0  0  0  0  0  0  0  0  0
   58.1977   33.2833   47.9785 H   0  0  0  0  0  0  0  0  0  0  0  0
   59.6898   33.3048   46.9785 H   0  0  0  0  0  0  0  0  0  0  0  0
   58.5880   34.7236   46.9785 H   0  0  0  0  0  0  0  0  0  0  0  0
   57.3010   33.9040   44.8780 C   0  0  0  0  0  0  0  0  0  0  0  0
   56.7353   34.7169   45.3567 H   0  0  0  0  0  0  0  0  0  0  0  0
   58.0979   34.3313   44.2516 H   0  0  0  0  0  0  0  0  0  0  0  0
   56.6235   33.3052   44.2516 H   0  0  0  0  0  0  0  0  0  0  0  0
  1  2  1  0
  2  3  2  0
  3  4  1  0
  4  5  2  0
  4  6  1  0
  6  7  1  0
  6  8  1  0
  6  9  1  0
  9 10  2  0
 10 11  1  0
 11 12  1  0
 12 13  2  0
 12 14  1  0
  2 15  1  0
 15 16  1  0
 16 17  1  0
 16 18  1  0
 16 19  1  0
 15 20  1  0
 20 21  1  0
 20 22  1  0
 20 23  1  0
 14  9  1  0
M  CHG  2  11  -1  14  -1
M  END
>  <UniqueID>  (4) 
3

>  <SMILES>  (4) 
CN(C)/C=N/C(=O)Cc1n[n-]c(=O)[n-]1

>  <Energy>  (4) 
49.20934077531396

>  <Genealogy>  (4) 
CN(C)C=NC(=O)Cc1n[n-]c(=O)[n-]1 (protonated)
CN(C)/C=N/C(=O)Cc1n[n-]c(=O)[n-]1 (cis-trans isomerization)
CN(C)/C=N/C(=O)Cc1n[n-]c(=O)[n-]1 (3D coordinates assigned)
CN(C)/C=N/C(=O)Cc1n[n-]c(=O)[n-]1 (optimized conformer: 49.20934077531396 kcal/mol)

>  <smiles>  (4) 
CN(C)C=NC(=O)Cc1n[nH]c(=O)[nH]1

>  <score_type>  (4) 
oracle

>  <origin>  (4) 
adg

>  <m_score__min__energy>  (4) 
-9.8200000000000003

>  <m_primary>  (4) 
energy

$$$$
4:0
     RDKit          3D

 43 45  0  0  0  0  0  0  0  0999 V2000
   61.5210   30.4120   49.2120 C   0  0  0  0  0  0  0  0  0  0  0  0
   60.4710   29.8190   48.3210 C   0  0  0  0  0  0  0  0  0  0  0  0
   59.4760   28.9980   48.8690 C   0  0  0  0  0  0  0  0  0  0  0  0
   58.5070   28.4190   48.0450 C   0  0  0  0  0  0  0  0  0  0  0  0
   58.5290   28.6510   46.6640 C   0  0  0  0  0  0  0  0  0  0  0  0
   57.2870   27.9760   45.6150 S   0  0  0  0  0  0  0  0  0  0  0  0
   56.4000   27.0230   46.3710 O   0  0  0  0  0  0  0  0  0  0  0  0
   57.9620   27.2400   44.4900 O   0  0  0  0  0  0  0  0  0  0  0  0
   56.3240   29.2650   44.9600 N   0  0  0  0  0  0  0  0  0  0  0  0
   56.8620   30.3840   44.2470 C   0  0  0  0  0  0  0  0  0  0  0  0
   56.8350   30.4520   42.8440 C   0  0  0  0  0  0  0  0  0  0  0  0
   57.3110   31.5900   42.1850 C   0  0  0  0  0  0  0  0  0  0  0  0
   57.8060   32.6710   42.9200 C   0  0  0  0  0  0  0  0  0  0  0  0
   57.8430   32.6080   44.3210 C   0  0  0  0  0  0  0  0  0  0  0  0
   58.3950   33.9820   45.2720 S   0  0  0  0  0  0  0  0  0  0  0  0
   57.6870   34.0140   46.5990 O   0  0  0  0  0  0  0  0  0  0  0  0
   58.1090   35.2470   44.5120 O   0  0  0  0  0  0  0  0  0  0  0  0
   60.1050   33.8070   45.5250 N   0  0  0  0  0  0  0  0  0  0  0  0
   60.7300   33.8280   46.6680 C   0  0  0  0  0  0  0  0  0  0  0  0
   62.1030   33.5310   46.7800 C   0  0  0  0  0  0  0  0  0  0  0  0
   62.7100   33.5590   48.0360 C   0  0  0  0  0  0  0  0  0  0  0  0
   61.9590   33.8780   49.1650 C   0  0  0  0  0  0  0  0  0  0  0  0
   60.6040   34.1710   49.0220 C   0  0  0  0  0  0  0  0  0  0  0  0
   60.0240   34.1430   47.7930 N   0  0  0  0  0  0  0  0  0  0  0  0
   57.3880   31.4570   44.9760 C   0  0  0  0  0  0  0  0  0  0  0  0
   59.5340   29.4510   46.1130 C   0  0  0  0  0  0  0  0  0  0  0  0
   60.5020   30.0310   46.9350 C   0  0  0  0  0  0  0  0  0  0  0  0
   61.2411   30.2539   50.2640 H   0  0  0  0  0  0  0  0  0  0  0  0
   62.4878   29.9265   49.0128 H   0  0  0  0  0  0  0  0  0  0  0  0
   61.6044   31.4906   49.0128 H   0  0  0  0  0  0  0  0  0  0  0  0
   59.4577   28.8085   49.9524 H   0  0  0  0  0  0  0  0  0  0  0  0
   57.7256   27.7799   48.4819 H   0  0  0  0  0  0  0  0  0  0  0  0
   56.4381   29.6073   42.2618 H   0  0  0  0  0  0  0  0  0  0  0  0
   57.2958   31.6345   41.0860 H   0  0  0  0  0  0  0  0  0  0  0  0
   58.1664   33.5709   42.4000 H   0  0  0  0  0  0  0  0  0  0  0  0
   62.6910   33.2793   45.8851 H   0  0  0  0  0  0  0  0  0  0  0  0
   63.7812   33.3292   48.1346 H   0  0  0  0  0  0  0  0  0  0  0  0
   62.4303   33.8984   50.1587 H   0  0  0  0  0  0  0  0  0  0  0  0
   60.0019   34.4258   49.9066 H   0  0  0  0  0  0  0  0  0  0  0  0
   59.0050   34.3640   47.7210 H   0  0  0  0  0  0  0  0  0  0  0  0
   57.4444   31.3955   46.0728 H   0  0  0  0  0  0  0  0  0  0  0  0
   59.5624   29.6243   45.0271 H   0  0  0  0  0  0  0  0  0  0  0  0
   61.2920   30.6566   46.4939 H   0  0  0  0  0  0  0  0  0  0  0  0
  1  2  1  0
  2  3  2  0
  3  4  1  0
  4  5  2  0
  5  6  1  0
  6  7  2  0
  6  8  2  0
  6  9  1  0
  9 10  1  0
 10 11  2  0
 11 12  1  0
 12 13  2  0
 13 14  1  0
 14 15  1  0
 15 16  2  0
 15 17  2  0
 15 18  1  0
 18 19  2  3
 19 20  1  0
 20 21  2  0
 21 22  1  0
 22 23  2  0
 23 24  1  0
 14 25  2  0
  5 26  1  0
 26 27  2  0
 27  2  1  0
 25 10  1  0
 24 19  1  0
  1 28  1  0
  1 29  1  0
  1 30  1  0
  3 31  1  0
  4 32  1  0
 11 33  1  0
 12 34  1  0
 13 35  1  0
 20 36  1  0
 21 37  1  0
 22 38  1  0
 23 39  1  0
 24 40  1  0
 25 41  1  0
 26 42  1  0
 27 43  1  0
M  CHG  1   9  -1
M  END
>  <UniqueID>  (5) 
4

>  <SMILES>  (5) 
Cc1ccc(S(=O)(=O)[N-]c2cccc(S(=O)(=O)N=c3cccc[nH]3)c2)cc1

>  <Energy>  (5) 
55.467107964453504

>  <Genealogy>  (5) 
Cc1ccc(S(=O)(=O)[N-]c2cccc(S(=O)(=O)N=c3cccc[nH]3)c2)cc1 (protonated)
Cc1ccc(S(=O)(=O)[N-]c2cccc(S(=O)(=O)N=c3cccc[nH]3)c2)cc1 (3D coordinates assigned)
Cc1ccc(S(=O)(=O)[N-]c2cccc(S(=O)(=O)N=c3cccc[nH]3)c2)cc1 (optimized conformer: 55.467107964453504 kcal/mol)

>  <smiles>  (5) 
Cc1ccc(S(=O)(=O)Nc2cccc(S(=O)(=O)N=c3cccc[nH]3)c2)cc1

>  <score_type>  (5) 
oracle

>  <origin>  (5) 
adg

>  <m_score__min__energy>  (5) 
-10.58

>  <m_primary>  (5) 
energy

$$$$
5:0
     RDKit          3D

 48 51  0  0  0  0  0  0  0  0999 V2000
   57.8290   27.1080   42.6170 C   0  0  0  0  0  0  0  0  0  0  0  0
   58.1440   25.9800   43.4260 O   0  0  0  0  0  0  0  0  0  0  0  0
   57.3050   25.4560   44.4250 C   0  0  0  0  0  0  0  0  0  0  0  0
   56.4230   24.3870   44.1690 C   0  0  0  0  0  0  0  0  0  0  0  0
   55.6250   23.8710   45.1920 C   0  0  0  0  0  0  0  0  0  0  0  0
   55.6990   24.4070   46.4770 C   0  0  0  0  0  0  0  0  0  0  0  0
   56.5630   25.4690   46.7440 C   0  0  0  0  0  0  0  0  0  0  0  0
   57.3580   26.0100   45.7200 C   0  0  0  0  0  0  0  0  0  0  0  0
   58.2520   27.1500   46.0260 C   0  0  0  0  0  0  0  0  0  0  0  0
   59.4740   26.9020   46.6740 C   0  0  0  0  0  0  0  0  0  0  0  0
   60.3370   27.9550   46.9880 C   0  0  0  0  0  0  0  0  0  0  0  0
   59.9860   29.2660   46.6640 C   0  0  0  0  0  0  0  0  0  0  0  0
   58.7690   29.5300   46.0320 C   0  0  0  0  0  0  0  0  0  0  0  0
   57.8940   28.4820   45.7140 C   0  0  0  0  0  0  0  0  0  0  0  0
   56.3180   28.8900   44.9430 S   0  0  0  0  0  0  0  0  0  0  0  0
   56.9050   30.4780   44.3720 C   0  0  0  0  0  0  0  0  0  0  0  0
   57.2630   30.6450   43.0730 N   0  0  0  0  0  0  0  0  0  0  0  0
   57.7090   31.8470   42.6220 C   0  0  0  0  0  0  0  0  0  0  0  0
   58.0350   31.9820   41.4140 O   0  0  0  0  0  0  0  0  0  0  0  0
   57.8040   32.9290   43.5010 C   0  0  0  0  0  0  0  0  0  0  0  0
   57.4400   32.7360   44.8380 C   0  0  0  0  0  0  0  0  0  0  0  0
   57.4930   33.8640   45.8250 C   0  0  0  0  0  0  0  0  0  0  0  0
   58.8280   33.8810   46.5170 C   0  0  0  0  0  0  0  0  0  0  0  0
   60.0160   33.8490   45.7660 C   0  0  0  0  0  0  0  0  0  0  0  0
   61.2570   33.8280   46.4110 C   0  0  0  0  0  0  0  0  0  0  0  0
   61.3200   33.8290   47.8080 C   0  0  0  0  0  0  0  0  0  0  0  0
   60.1430   33.8460   48.5620 C   0  0  0  0  0  0  0  0  0  0  0  0
   60.2060   33.8360   49.9160 F   0  0  0  0  0  0  0  0  0  0  0  0
   58.9000   33.8670   47.9200 C   0  0  0  0  0  0  0  0  0  0  0  0
   56.9880   31.5190   45.2390 N   0  0  0  0  0  0  0  0  0  0  0  0
   57.5893   27.9663   43.2619 H   0  0  0  0  0  0  0  0  0  0  0  0
   58.6922   27.3563   41.9820 H   0  0  0  0  0  0  0  0  0  0  0  0
   56.9621   26.8731   41.9820 H   0  0  0  0  0  0  0  0  0  0  0  0
   56.3630   23.9570   43.1583 H   0  0  0  0  0  0  0  0  0  0  0  0
   54.9360   23.0393   44.9835 H   0  0  0  0  0  0  0  0  0  0  0  0
   55.0748   23.9915   47.2818 H   0  0  0  0  0  0  0  0  0  0  0  0
   56.6221   25.8846   47.7607 H   0  0  0  0  0  0  0  0  0  0  0  0
   59.7533   25.8708   46.9361 H   0  0  0  0  0  0  0  0  0  0  0  0
   61.2937   27.7504   47.4909 H   0  0  0  0  0  0  0  0  0  0  0  0
   60.6692   30.0932   46.9069 H   0  0  0  0  0  0  0  0  0  0  0  0
   58.4956   30.5658   45.7824 H   0  0  0  0  0  0  0  0  0  0  0  0
   58.1568   33.9099   43.1499 H   0  0  0  0  0  0  0  0  0  0  0  0
   57.3446   34.8173   45.2967 H   0  0  0  0  0  0  0  0  0  0  0  0
   56.7000   33.7249   46.5746 H   0  0  0  0  0  0  0  0  0  0  0  0
   59.9694   33.8404   44.6670 H   0  0  0  0  0  0  0  0  0  0  0  0
   62.1839   33.8107   45.8190 H   0  0  0  0  0  0  0  0  0  0  0  0
   62.2966   33.8164   48.3140 H   0  0  0  0  0  0  0  0  0  0  0  0
   57.9755   33.8726   48.5161 H   0  0  0  0  0  0  0  0  0  0  0  0
  1  2  1  0
  2  3  1  0
  3  4  2  0
  4  5  1  0
  5  6  2  0
  6  7  1  0
  7  8  2  0
  8  9  1  0
  9 10  2  0
 10 11  1  0
 11 12  2  0
 12 13  1  0
 13 14  2  0
 14 15  1  0
 15 16  1  0
 16 17  2  0
 17 18  1  0
 18 19  2  0
 18 20  1  0
 20 21  2  0
 21 22  1  0
 22 23  1  0
 23 24  2  0
 24 25  1  0
 25 26  2  0
 26 27  1  0
 27 28  1  0
 27 29  2  0
 21 30  1  0
  8  3  1  0
 14  9  1  0
 30 16  1  0
 29 23  1  0
  1 31  1  0
  1 32  1  0
  1 33  1  0
  4 34  1  0
  5 35  1  0
  6 36  1  0
  7 37  1  0
 10 38  1  0
 11 39  1  0
 12 40  1  0
 13 41  1  0
 20 42  1  0
 22 43  1  0
 22 44  1  0
 24 45  1  0
 25 46  1  0
 26 47  1  0
 29 48  1  0
M  CHG  1  30  -1
M  END
>  <UniqueID>  (6) 
5

>  <SMILES>  (6) 
COc1ccccc1-c1ccccc1Sc1nc(=O)cc(Cc2cccc(F)c2)[n-]1

>  <Energy>  (6) 
52.22245982044739

>  <Genealogy>  (6) 
COc1ccccc1-c1ccccc1Sc1nc(=O)cc(Cc2cccc(F)c2)[n-]1 (protonated)
COc1ccccc1-c1ccccc1Sc1nc(=O)cc(Cc2cccc(F)c2)[n-]1 (3D coordinates assigned)
COc1ccccc1-c1ccccc1Sc1nc(=O)cc(Cc2cccc(F)c2)[n-]1 (optimized conformer: 52.22245982044739 kcal/mol)

>  <smiles>  (6) 
COc1ccccc1-c1ccccc1Sc1nc(=O)cc(Cc2cccc(F)c2)[nH]1

>  <score_type>  (6) 
oracle

>  <origin>  (6) 
adg

>  <m_score__min__energy>  (6) 
-9.9600000000000009

>  <m_primary>  (6) 
energy

$$$$
6:0
     RDKit          3D

 58 61  0  0  0  0  0  0  0  0999 V2000
   62.8160   33.2810   47.6030 C   0  0  0  0  0  0  0  0  0  0  0  0
   61.4130   33.8430   47.4010 C   0  0  0  0  0  0  0  0  0  0  0  0
   60.7780   34.2500   48.7380 C   0  0  0  0  0  0  0  0  0  0  0  0
   61.4450   33.5680   49.9460 C   0  0  0  0  0  0  0  0  0  0  0  0
   60.4390   32.8810   50.8550 C   0  0  0  0  0  0  0  0  0  0  0  0
   59.9020   33.6230   51.8600 N   0  0  0  0  0  0  0  0  0  0  0  0
   58.9540   33.1140   52.6800 C   0  0  0  0  0  0  0  0  0  0  0  0
   58.4880   33.8370   53.6030 O   0  0  0  0  0  0  0  0  0  0  0  0
   58.5130   31.8350   52.5060 N   0  0  0  0  0  0  0  0  0  0  0  0
   57.4800   31.2740   53.4000 C   0  0  0  0  0  0  0  0  0  0  0  0
   56.3160   30.7790   52.5990 C   0  0  0  0  0  0  0  0  0  0  0  0
   56.1640   29.3860   52.3450 N   0  0  0  0  0  0  0  0  0  0  0  0
   55.4780   31.5970   52.1310 O   0  0  0  0  0  0  0  0  0  0  0  0
   59.0780   31.0590   51.5290 C   0  0  0  0  0  0  0  0  0  0  0  0
   58.6990   29.8600   51.3980 O   0  0  0  0  0  0  0  0  0  0  0  0
   60.0470   31.5680   50.6940 N   0  0  0  0  0  0  0  0  0  0  0  0
   60.6530   30.6870   49.6640 C   0  0  0  0  0  0  0  0  0  0  0  0
   59.9750   30.8510   48.3250 C   0  0  0  0  0  0  0  0  0  0  0  0
   60.5220   30.2350   47.1870 C   0  0  0  0  0  0  0  0  0  0  0  0
   59.9120   30.3810   45.9400 C   0  0  0  0  0  0  0  0  0  0  0  0
   58.7300   31.1260   45.8100 C   0  0  0  0  0  0  0  0  0  0  0  0
   58.0750   31.2740   44.4870 C   0  0  0  0  0  0  0  0  0  0  0  0
   58.3390   32.4380   43.7420 C   0  0  0  0  0  0  0  0  0  0  0  0
   57.8140   32.5980   42.4600 C   0  0  0  0  0  0  0  0  0  0  0  0
   57.0210   31.6000   41.9010 C   0  0  0  0  0  0  0  0  0  0  0  0
   56.7370   30.4420   42.6250 C   0  0  0  0  0  0  0  0  0  0  0  0
   57.2400   30.2650   43.9280 C   0  0  0  0  0  0  0  0  0  0  0  0
   56.8420   29.0460   44.6730 C   0  0  0  0  0  0  0  0  0  0  0  0
   57.7210   28.0990   45.0760 N   0  0  0  0  0  0  0  0  0  0  0  0
   56.8950   27.2230   45.6730 C   0  0  0  0  0  0  0  0  0  0  0  0
   57.2850   26.1580   46.2190 O   0  0  0  0  0  0  0  0  0  0  0  0
   55.6450   27.6000   45.6230 O   0  0  0  0  0  0  0  0  0  0  0  0
   55.5680   28.7360   44.9990 N   0  0  0  0  0  0  0  0  0  0  0  0
   58.2030   31.7740   46.9370 C   0  0  0  0  0  0  0  0  0  0  0  0
   58.8250   31.6500   48.1830 C   0  0  0  0  0  0  0  0  0  0  0  0
   58.2920   32.3000   49.2490 F   0  0  0  0  0  0  0  0  0  0  0  0
   63.0258   33.1969   48.6795 H   0  0  0  0  0  0  0  0  0  0  0  0
   62.8832   32.2866   47.1376 H   0  0  0  0  0  0  0  0  0  0  0  0
   63.5511   33.9541   47.1376 H   0  0  0  0  0  0  0  0  0  0  0  0
   61.4713   34.7265   46.7482 H   0  0  0  0  0  0  0  0  0  0  0  0
   60.7884   33.0618   46.9432 H   0  0  0  0  0  0  0  0  0  0  0  0
   60.8708   35.3399   48.8540 H   0  0  0  0  0  0  0  0  0  0  0  0
   59.7256   33.9306   48.7162 H   0  0  0  0  0  0  0  0  0  0  0  0
   62.1583   32.8162   49.5772 H   0  0  0  0  0  0  0  0  0  0  0  0
   61.9488   34.3488   50.5346 H   0  0  0  0  0  0  0  0  0  0  0  0
   60.2180   34.6070   52.0100 H   0  0  0  0  0  0  0  0  0  0  0  0
   57.9094   30.4381   53.9717 H   0  0  0  0  0  0  0  0  0  0  0  0
   57.1343   32.0606   54.0869 H   0  0  0  0  0  0  0  0  0  0  0  0
   56.9760   28.8050   52.0430 H   0  0  0  0  0  0  0  0  0  0  0  0
   61.7181   30.9410   49.5585 H   0  0  0  0  0  0  0  0  0  0  0  0
   60.5288   29.6430   49.9874 H   0  0  0  0  0  0  0  0  0  0  0  0
   61.4380   29.6330   47.2794 H   0  0  0  0  0  0  0  0  0  0  0  0
   60.3608   29.9090   45.0535 H   0  0  0  0  0  0  0  0  0  0  0  0
   58.9665   33.2306   44.1756 H   0  0  0  0  0  0  0  0  0  0  0  0
   58.0269   33.5142   41.8897 H   0  0  0  0  0  0  0  0  0  0  0  0
   56.6171   31.7248   40.8855 H   0  0  0  0  0  0  0  0  0  0  0  0
   56.1125   29.6577   42.1724 H   0  0  0  0  0  0  0  0  0  0  0  0
   57.2932   32.3845   46.8397 H   0  0  0  0  0  0  0  0  0  0  0  0
  1  2  1  0
  2  3  1  0
  3  4  1  0
  4  5  1  0
  5  6  2  0
  6  7  1  0
  7  8  2  0
  7  9  1  0
  9 10  1  0
 10 11  1  0
 11 12  1  0
 11 13  2  0
  9 14  1  0
 14 15  2  0
 14 16  1  0
 16 17  1  0
 17 18  1  0
 18 19  2  0
 19 20  1  0
 20 21  2  0
 21 22  1  0
 22 23  2  0
 23 24  1  0
 24 25  2  0
 25 26  1  0
 26 27  2  0
 27 28  1  0
 28 29  2  0
 29 30  1  0
 30 31  2  0
 30 32  1  0
 32 33  1  0
 21 34  1  0
 34 35  2  0
 35 36  1  0
 16  5  1  0
 35 18  1  0
 27 22  1  0
 33 28  1  0
  1 37  1  0
  1 38  1  0
  1 39  1  0
  2 40  1  0
  2 41  1  0
  3 42  1  0
  3 43  1  0
  4 44  1  0
  4 45  1  0
  6 46  1  0
 10 47  1  0
 10 48  1  0
 12 49  1  0
 17 50  1  0
 17 51  1  0
 19 52  1  0
 20 53  1  0
 23 54  1  0
 24 55  1  0
 25 56  1  0
 26 57  1  0
 34 58  1  0
M  CHG  3   6   1  12  -1  33  -1
M  END
>  <UniqueID>  (7) 
6

>  <SMILES>  (7) 
CCCCc1[nH+]c(=O)n(CC([NH-])=O)c(=O)n1Cc1ccc(-c2ccccc2-c2nc(=O)o[n-]2)cc1F

>  <Energy>  (7) 
107.08035143077882

>  <Genealogy>  (7) 
CCCCc1[nH+]c(=O)n(CC([NH-])=O)c(=O)n1Cc1ccc(-c2ccccc2-c2nc(=O)o[n-]2)cc1F (protonated)
CCCCc1[nH+]c(=O)n(CC([NH-])=O)c(=O)n1Cc1ccc(-c2ccccc2-c2nc(=O)o[n-]2)cc1F (3D coordinates assigned)
CCCCc1[nH+]c(=O)n(CC([NH-])=O)c(=O)n1Cc1ccc(-c2ccccc2-c2nc(=O)o[n-]2)cc1F (optimized conformer: 107.08035143077882 kcal/mol)

>  <smiles>  (7) 
CCCCc1nc(=O)n(CC(N)=O)c(=O)n1Cc1ccc(-c2ccccc2-c2nc(=O)o[nH]2)cc1F

>  <score_type>  (7) 
oracle

>  <origin>  (7) 
adg

>  <m_score__min__energy>  (7) 
-11.550000000000001

>  <m_primary>  (7) 
energy

$$$$
7:0
     RDKit          3D

 52 55  0  0  0  0  0  0  0  0999 V2000
   58.2540   34.5540   45.8770 C   0  0  0  0  0  0  0  0  0  0  0  0
   59.5440   33.7830   45.6070 C   0  0  0  0  0  0  0  0  0  0  0  0
   59.6450   32.5540   46.4960 C   0  0  0  0  0  0  0  0  0  0  0  0
   60.4520   32.5790   47.6610 C   0  0  0  0  0  0  0  0  0  0  0  0
   61.2700   33.7180   47.9850 N   0  0  0  0  0  0  0  0  0  0  0  0
   62.4570   33.6120   48.7940 C   0  0  0  0  0  0  0  0  0  0  0  0
   62.4290   34.0200   50.1410 C   0  0  0  0  0  0  0  0  0  0  0  0
   63.5800   33.9540   50.9270 C   0  0  0  0  0  0  0  0  0  0  0  0
   64.7750   33.4910   50.3800 C   0  0  0  0  0  0  0  0  0  0  0  0
   64.8250   33.0930   49.0430 C   0  0  0  0  0  0  0  0  0  0  0  0
   63.6730   33.1450   48.2390 C   0  0  0  0  0  0  0  0  0  0  0  0
   63.7560   32.7060   46.8020 C   0  0  0  0  0  0  0  0  0  0  0  0
   60.4830   31.5280   48.4750 O   0  0  0  0  0  0  0  0  0  0  0  0
   59.8040   30.4120   48.2610 C   0  0  0  0  0  0  0  0  0  0  0  0
   59.8930   29.4760   49.1010 O   0  0  0  0  0  0  0  0  0  0  0  0
   59.0090   30.2750   47.1120 C   0  0  0  0  0  0  0  0  0  0  0  0
   58.2990   29.0860   46.8560 C   0  0  0  0  0  0  0  0  0  0  0  0
   57.5080   28.9590   45.7080 C   0  0  0  0  0  0  0  0  0  0  0  0
   56.8140   27.7250   45.4670 N   0  0  0  0  0  0  0  0  0  0  0  0
   57.3320   26.4280   45.8160 C   0  0  0  0  0  0  0  0  0  0  0  0
   58.4620   26.3220   46.3640 O   0  0  0  0  0  0  0  0  0  0  0  0
   56.5510   25.2020   45.5460 C   0  0  0  0  0  0  0  0  0  0  0  0
   57.2250   24.0290   45.1620 C   0  0  0  0  0  0  0  0  0  0  0  0
   56.5130   22.8540   44.9070 C   0  0  0  0  0  0  0  0  0  0  0  0
   55.1210   22.8400   45.0210 C   0  0  0  0  0  0  0  0  0  0  0  0
   54.4380   24.0030   45.3820 C   0  0  0  0  0  0  0  0  0  0  0  0
   55.1420   25.1860   45.6340 C   0  0  0  0  0  0  0  0  0  0  0  0
   54.4300   26.3420   45.9380 O   0  0  0  0  0  0  0  0  0  0  0  0
   57.4680   30.0130   44.7860 C   0  0  0  0  0  0  0  0  0  0  0  0
   58.1670   31.1970   45.0300 C   0  0  0  0  0  0  0  0  0  0  0  0
   58.9370   31.3570   46.2030 C   0  0  0  0  0  0  0  0  0  0  0  0
   58.1016   34.6451   46.9626 H   0  0  0  0  0  0  0  0  0  0  0  0
   58.3263   35.5571   45.4315 H   0  0  0  0  0  0  0  0  0  0  0  0
   57.4047   34.0152   45.4315 H   0  0  0  0  0  0  0  0  0  0  0  0
   59.5592   33.4664   44.5537 H   0  0  0  0  0  0  0  0  0  0  0  0
   60.3968   34.4426   45.8256 H   0  0  0  0  0  0  0  0  0  0  0  0
   61.0620   34.6330   47.5300 H   0  0  0  0  0  0  0  0  0  0  0  0
   61.4914   34.3942   50.5778 H   0  0  0  0  0  0  0  0  0  0  0  0
   63.5439   34.2681   51.9806 H   0  0  0  0  0  0  0  0  0  0  0  0
   65.6803   33.4391   51.0027 H   0  0  0  0  0  0  0  0  0  0  0  0
   65.7733   32.7358   48.6151 H   0  0  0  0  0  0  0  0  0  0  0  0
   63.9602   31.6259   46.7598 H   0  0  0  0  0  0  0  0  0  0  0  0
   62.8017   32.9187   46.2979 H   0  0  0  0  0  0  0  0  0  0  0  0
   64.5667   33.2524   46.2979 H   0  0  0  0  0  0  0  0  0  0  0  0
   58.3667   28.2482   47.5656 H   0  0  0  0  0  0  0  0  0  0  0  0
   55.9020   27.7800   44.9590 H   0  0  0  0  0  0  0  0  0  0  0  0
   58.3204   24.0365   45.0617 H   0  0  0  0  0  0  0  0  0  0  0  0
   57.0495   21.9388   44.6161 H   0  0  0  0  0  0  0  0  0  0  0  0
   54.5627   21.9124   44.8263 H   0  0  0  0  0  0  0  0  0  0  0  0
   53.3415   23.9894   45.4687 H   0  0  0  0  0  0  0  0  0  0  0  0
   56.8809   29.9070   43.8618 H   0  0  0  0  0  0  0  0  0  0  0  0
   58.1172   32.0167   44.2981 H   0  0  0  0  0  0  0  0  0  0  0  0
  1  2  1  0
  2  3  1  0
  3  4  2  0
  4  5  1  0
  5  6  1  0
  6  7  2  0
  7  8  1  0
  8  9  2  0
  9 10  1  0
 10 11  2  0
 11 12  1  0
  4 13  1  0
 13 14  1  0
 14 15  2  0
 14 16  1  0
 16 17  2  0
 17 18  1  0
 18 19  1  0
 19 20  1  0
 20 21  2  0
 20 22  1  0
 22 23  2  0
 23 24  1  0
 24 25  2  0
 25 26  1  0
 26 27  2  0
 27 28  1  0
 18 29  2  0
 29 30  1  0
 30 31  2  0
 31  3  1  0
 11  6  1  0
 31 16  1  0
 27 22  1  0
  1 32  1  0
  1 33  1  0
  1 34  1  0
  2 35  1  0
  2 36  1  0
  5 37  1  0
  7 38  1  0
  8 39  1  0
  9 40  1  0
 10 41  1  0
 12 42  1  0
 12 43  1  0
 12 44  1  0
 17 45  1  0
 19 46  1  0
 23 47  1  0
 24 48  1  0
 25 49  1  0
 26 50  1  0
 29 51  1  0
 30 52  1  0
M  CHG  1  28  -1
M  END
>  <UniqueID>  (8) 
7

>  <SMILES>  (8) 
CCc1c(Nc2ccccc2C)oc(=O)c2cc(NC(=O)c3ccccc3[O-])ccc12

>  <Energy>  (8) 
77.72037077831517

>  <Genealogy>  (8) 
CCc1c(Nc2ccccc2C)oc(=O)c2cc(NC(=O)c3ccccc3[O-])ccc12 (protonated)
CCc1c(Nc2ccccc2C)oc(=O)c2cc(NC(=O)c3ccccc3[O-])ccc12 (3D coordinates assigned)
CCc1c(Nc2ccccc2C)oc(=O)c2cc(NC(=O)c3ccccc3[O-])ccc12 (optimized conformer: 77.72037077831517 kcal/mol)

>  <smiles>  (8) 
CCc1c(Nc2ccccc2C)oc(=O)c2cc(NC(=O)c3ccccc3O)ccc12

>  <score_type>  (8) 
oracle

>  <origin>  (8) 
adg

>  <m_score__min__energy>  (8) 
-12.960000000000001

>  <m_primary>  (8) 
energy

$$$$
8:0
     RDKit          3D

 53 56  0  0  0  0  0  0  0  0999 V2000
   64.4070   31.9170   50.3680 C   0  0  0  0  0  0  0  0  0  0  0  0
   62.9640   32.4160   50.4180 C   0  0  0  0  0  0  0  0  0  0  0  0
   62.4820   32.8420   49.0490 C   0  0  0  0  0  0  0  0  0  0  0  0
   63.3490   33.6040   48.2480 C   0  0  0  0  0  0  0  0  0  0  0  0
   62.9890   33.9650   46.9520 C   0  0  0  0  0  0  0  0  0  0  0  0
   61.7580   33.5720   46.4330 C   0  0  0  0  0  0  0  0  0  0  0  0
   60.8600   32.8320   47.2150 C   0  0  0  0  0  0  0  0  0  0  0  0
   59.5560   32.4580   46.6250 C   0  0  0  0  0  0  0  0  0  0  0  0
   58.5420   33.1400   46.9280 O   0  0  0  0  0  0  0  0  0  0  0  0
   59.4180   31.3290   45.7390 N   0  0  0  0  0  0  0  0  0  0  0  0
   58.3340   31.3200   44.7440 C   0  0  0  0  0  0  0  0  0  0  0  0
   58.0540   29.9010   44.2260 C   0  0  0  0  0  0  0  0  0  0  0  0
   58.1060   28.8750   45.3870 C   0  0  0  0  0  0  0  0  0  0  0  0
   57.1820   29.3220   46.3600 O   0  0  0  0  0  0  0  0  0  0  0  0
   57.7100   27.4500   44.9540 C   0  0  0  0  0  0  0  0  0  0  0  0
   56.9580   26.5740   45.7740 C   0  0  0  0  0  0  0  0  0  0  0  0
   56.6360   25.2830   45.3370 C   0  0  0  0  0  0  0  0  0  0  0  0
   57.0430   24.8410   44.0790 C   0  0  0  0  0  0  0  0  0  0  0  0
   56.6430   23.2190   43.5400 Cl  0  0  0  0  0  0  0  0  0  0  0  0
   57.7680   25.6960   43.2500 C   0  0  0  0  0  0  0  0  0  0  0  0
   58.0940   26.9870   43.6770 C   0  0  0  0  0  0  0  0  0  0  0  0
   59.5570   28.8550   45.9750 C   0  0  0  0  0  0  0  0  0  0  0  0
   60.3310   30.1790   45.8150 C   0  0  0  0  0  0  0  0  0  0  0  0
   61.2160   32.4590   48.5340 C   0  0  0  0  0  0  0  0  0  0  0  0
   60.3250   31.6380   49.3070 N   0  0  0  0  0  0  0  0  0  0  0  0
   60.6950   30.5180   49.9110 N   0  0  0  0  0  0  0  0  0  0  0  0
   59.5820   30.0200   50.4910 C   0  0  0  0  0  0  0  0  0  0  0  0
   58.5340   30.8720   50.2110 C   0  0  0  0  0  0  0  0  0  0  0  0
   59.0330   31.8740   49.4680 N   0  0  0  0  0  0  0  0  0  0  0  0
   64.7854   31.7861   51.3925 H   0  0  0  0  0  0  0  0  0  0  0  0
   64.4438   30.9540   49.8377 H   0  0  0  0  0  0  0  0  0  0  0  0
   65.0308   32.6516   49.8377 H   0  0  0  0  0  0  0  0  0  0  0  0
   62.3178   31.6071   50.7897 H   0  0  0  0  0  0  0  0  0  0  0  0
   62.9210   33.2874   51.0879 H   0  0  0  0  0  0  0  0  0  0  0  0
   64.3235   33.9191   48.6492 H   0  0  0  0  0  0  0  0  0  0  0  0
   63.6786   34.5619   46.3370 H   0  0  0  0  0  0  0  0  0  0  0  0
   61.4882   33.8442   45.4019 H   0  0  0  0  0  0  0  0  0  0  0  0
   57.4196   31.7174   45.2086 H   0  0  0  0  0  0  0  0  0  0  0  0
   58.6439   31.9426   43.8918 H   0  0  0  0  0  0  0  0  0  0  0  0
   57.0555   29.8750   43.7653 H   0  0  0  0  0  0  0  0  0  0  0  0
   58.8226   29.6364   43.4849 H   0  0  0  0  0  0  0  0  0  0  0  0
   56.6710   30.0900   46.0030 H   0  0  0  0  0  0  0  0  0  0  0  0
   56.6228   26.9115   46.7658 H   0  0  0  0  0  0  0  0  0  0  0  0
   56.0581   24.6132   45.9908 H   0  0  0  0  0  0  0  0  0  0  0  0
   58.0854   25.3530   42.2542 H   0  0  0  0  0  0  0  0  0  0  0  0
   58.6586   27.6523   43.0072 H   0  0  0  0  0  0  0  0  0  0  0  0
   59.4894   28.6243   47.0484 H   0  0  0  0  0  0  0  0  0  0  0  0
   60.1144   28.0965   45.4058 H   0  0  0  0  0  0  0  0  0  0  0  0
   60.9994   30.3093   46.6788 H   0  0  0  0  0  0  0  0  0  0  0  0
   60.9069   30.1321   44.8790 H   0  0  0  0  0  0  0  0  0  0  0  0
   59.5215   29.0954   51.0839 H   0  0  0  0  0  0  0  0  0  0  0  0
   57.4893   30.7537   50.5343 H   0  0  0  0  0  0  0  0  0  0  0  0
   58.5020   32.6730   49.0570 H   0  0  0  0  0  0  0  0  0  0  0  0
  1  2  1  0
  2  3  1  0
  3  4  2  0
  4  5  1  0
  5  6  2  0
  6  7  1  0
  7  8  1  0
  8  9  2  0
  8 10  1  0
 10 11  1  0
 11 12  1  0
 12 13  1  0
 13 14  1  0
 13 15  1  0
 15 16  2  0
 16 17  1  0
 17 18  2  0
 18 19  1  0
 18 20  1  0
 20 21  2  0
 13 22  1  0
 22 23  1  0
  7 24  2  0
 24 25  1  0
 25 26  1  0
 26 27  2  0
 27 28  1  0
 28 29  2  0
 24  3  1  0
 29 25  1  0
 23 10  1  0
 21 15  1  0
  1 30  1  0
  1 31  1  0
  1 32  1  0
  2 33  1  0
  2 34  1  0
  4 35  1  0
  5 36  1  0
  6 37  1  0
 11 38  1  0
 11 39  1  0
 12 40  1  0
 12 41  1  0
 14 42  1  0
 16 43  1  0
 17 44  1  0
 20 45  1  0
 21 46  1  0
 22 47  1  0
 22 48  1  0
 23 49  1  0
 23 50  1  0
 27 51  1  0
 28 52  1  0
 29 53  1  0
M  CHG  1  29   1
M  END
>  <UniqueID>  (9) 
8

>  <SMILES>  (9) 
CCc1cccc(C(=O)N2CCC(O)(c3ccc(Cl)cc3)CC2)c1-n1ncc[nH+]1

>  <Energy>  (9) 
111.75691342703806

>  <Genealogy>  (9) 
CCc1cccc(C(=O)N2CCC(O)(c3ccc(Cl)cc3)CC2)c1-n1ncc[nH+]1 (protonated)
CCc1cccc(C(=O)N2CCC(O)(c3ccc(Cl)cc3)CC2)c1-n1ncc[nH+]1 (3D coordinates assigned)
CCc1cccc(C(=O)N2CCC(O)(c3ccc(Cl)cc3)CC2)c1-n1ncc[nH+]1 (nonaromatic ring conformer: 111.75691342703806 kcal/mol)

>  <smiles>  (9) 
CCc1cccc(C(=O)N2CCC(O)(c3ccc(Cl)cc3)CC2)c1-n1nccn1

>  <score_type>  (9) 
oracle

>  <origin>  (9) 
adg

>  <m_score__min__energy>  (9) 
-7.2800000000000002

>  <m_primary>  (9) 
energy

$$$$
9:0
     RDKit          3D

 70 73  0  0  0  0  0  0  0  0999 V2000
   56.4090   30.5700   43.4650 C   0  0  0  0  0  0  0  0  0  0  0  0
   56.6830   30.4740   44.8570 O   0  0  0  0  0  0  0  0  0  0  0  0
   57.9770   30.2260   45.3250 C   0  0  0  0  0  0  0  0  0  0  0  0
   58.5620   28.9570   45.1230 C   0  0  0  0  0  0  0  0  0  0  0  0
   57.8130   27.8550   44.4290 C   0  0  0  0  0  0  0  0  0  0  0  0
   59.8400   28.6970   45.6380 C   0  0  0  0  0  0  0  0  0  0  0  0
   60.5440   29.6900   46.3160 C   0  0  0  0  0  0  0  0  0  0  0  0
   59.9810   30.9530   46.4920 C   0  0  0  0  0  0  0  0  0  0  0  0
   58.7000   31.2420   45.9900 C   0  0  0  0  0  0  0  0  0  0  0  0
   58.1140   32.6260   46.1890 C   0  0  0  0  0  0  0  0  0  0  0  0
   59.1040   33.6900   45.9650 N   0  0  0  0  0  0  0  0  0  0  0  0
   58.9060   34.6380   44.8630 C   0  0  0  0  0  0  0  0  0  0  0  0
   59.7860   34.2020   47.1190 C   0  0  0  0  0  0  0  0  0  0  0  0
   59.1780   34.9930   47.8890 O   0  0  0  0  0  0  0  0  0  0  0  0
   61.1950   33.8430   47.3960 C   0  0  0  0  0  0  0  0  0  0  0  0
   62.1450   33.8030   46.3640 C   0  0  0  0  0  0  0  0  0  0  0  0
   63.4720   33.4630   46.6370 C   0  0  0  0  0  0  0  0  0  0  0  0
   63.8700   33.1770   47.9440 C   0  0  0  0  0  0  0  0  0  0  0  0
   62.9350   33.2210   48.9880 C   0  0  0  0  0  0  0  0  0  0  0  0
   63.4300   32.9140   50.6520 S   0  0  0  0  0  0  0  0  0  0  0  0
   62.1930   32.7860   51.4990 O   0  0  0  0  0  0  0  0  0  0  0  0
   64.2430   34.0710   51.1680 O   0  0  0  0  0  0  0  0  0  0  0  0
   64.3660   31.4390   50.7440 N   0  0  0  0  0  0  0  0  0  0  0  0
   65.5740   31.6220   51.5940 C   0  0  0  0  0  0  0  0  0  0  0  0
   65.3790   31.0790   53.0210 C   0  0  0  0  0  0  0  0  0  0  0  0
   65.0080   29.6410   53.0400 N   0  0  0  0  0  0  0  0  0  0  0  0
   66.1620   28.7730   53.3580 C   0  0  0  0  0  0  0  0  0  0  0  0
   66.6850   28.1070   52.1120 C   0  0  0  0  0  0  0  0  0  0  0  0
   67.5060   28.8090   51.2140 C   0  0  0  0  0  0  0  0  0  0  0  0
   67.9430   28.1980   50.0350 C   0  0  0  0  0  0  0  0  0  0  0  0
   67.5600   26.8880   49.7420 C   0  0  0  0  0  0  0  0  0  0  0  0
   66.7420   26.1820   50.6270 C   0  0  0  0  0  0  0  0  0  0  0  0
   66.3020   26.7890   51.8080 C   0  0  0  0  0  0  0  0  0  0  0  0
   64.3200   29.1930   51.8030 C   0  0  0  0  0  0  0  0  0  0  0  0
   63.4970   30.3250   51.1860 C   0  0  0  0  0  0  0  0  0  0  0  0
   61.5980   33.5360   48.7080 C   0  0  0  0  0  0  0  0  0  0  0  0
   55.3802   30.9304   43.3178 H   0  0  0  0  0  0  0  0  0  0  0  0
   57.1144   31.2745   43.0002 H   0  0  0  0  0  0  0  0  0  0  0  0
   56.5204   29.5793   43.0002 H   0  0  0  0  0  0  0  0  0  0  0  0
   57.3609   27.1898   45.1794 H   0  0  0  0  0  0  0  0  0  0  0  0
   57.0220   28.2890   43.7997 H   0  0  0  0  0  0  0  0  0  0  0  0
   58.5077   27.2793   43.7997 H   0  0  0  0  0  0  0  0  0  0  0  0
   60.2900   27.7020   45.5058 H   0  0  0  0  0  0  0  0  0  0  0  0
   61.5472   29.4766   46.7136 H   0  0  0  0  0  0  0  0  0  0  0  0
   60.5442   31.7307   47.0286 H   0  0  0  0  0  0  0  0  0  0  0  0
   57.2822   32.7626   45.4823 H   0  0  0  0  0  0  0  0  0  0  0  0
   57.7721   32.6993   47.2319 H   0  0  0  0  0  0  0  0  0  0  0  0
   58.6972   35.6375   45.2722 H   0  0  0  0  0  0  0  0  0  0  0  0
   59.8153   34.6773   44.2453 H   0  0  0  0  0  0  0  0  0  0  0  0
   58.0570   34.3100   44.2453 H   0  0  0  0  0  0  0  0  0  0  0  0
   61.8427   34.0409   45.3334 H   0  0  0  0  0  0  0  0  0  0  0  0
   64.2062   33.4205   45.8189 H   0  0  0  0  0  0  0  0  0  0  0  0
   64.9178   32.9169   48.1551 H   0  0  0  0  0  0  0  0  0  0  0  0
   64.6880   31.2290   49.7700 H   0  0  0  0  0  0  0  0  0  0  0  0
   66.4173   31.0920   51.1272 H   0  0  0  0  0  0  0  0  0  0  0  0
   65.7676   32.7021   51.6712 H   0  0  0  0  0  0  0  0  0  0  0  0
   66.3187   31.2076   53.5782 H   0  0  0  0  0  0  0  0  0  0  0  0
   64.5536   31.6418   53.4813 H   0  0  0  0  0  0  0  0  0  0  0  0
   66.9611   29.3833   53.8041 H   0  0  0  0  0  0  0  0  0  0  0  0
   65.8364   27.9958   54.0651 H   0  0  0  0  0  0  0  0  0  0  0  0
   67.8061   29.8430   51.4393 H   0  0  0  0  0  0  0  0  0  0  0  0
   68.5896   28.7503   49.3372 H   0  0  0  0  0  0  0  0  0  0  0  0
   67.9031   26.4108   48.8122 H   0  0  0  0  0  0  0  0  0  0  0  0
   66.4438   25.1488   50.3953 H   0  0  0  0  0  0  0  0  0  0  0  0
   65.6539   26.2329   52.5014 H   0  0  0  0  0  0  0  0  0  0  0  0
   65.0734   28.8590   51.0744 H   0  0  0  0  0  0  0  0  0  0  0  0
   63.6389   28.3691   52.0625 H   0  0  0  0  0  0  0  0  0  0  0  0
   62.9442   29.9352   50.3185 H   0  0  0  0  0  0  0  0  0  0  0  0
   62.8024   30.7065   51.9489 H   0  0  0  0  0  0  0  0  0  0  0  0
   60.8576   33.5431   49.5215 H   0  0  0  0  0  0  0  0  0  0  0  0
  1  2  1  0
  2  3  1  0
  3  4  2  0
  4  5  1  0
  4  6  1  0
  6  7  2  0
  7  8  1  0
  8  9  2  0
  9 10  1  0
 10 11  1  0
 11 12  1  0
 11 13  1  0
 13 14  2  0
 13 15  1  0
 15 16  2  0
 16 17  1  0
 17 18  2  0
 18 19  1  0
 19 20  1  0
 20 21  2  0
 20 22  2  0
 20 23  1  0
 23 24  1  0
 24 25  1  0
 25 26  1  0
 26 27  1  0
 27 28  1  0
 28 29  2  0
 29 30  1  0
 30 31  2  0
 31 32  1  0
 32 33  2  0
 26 34  1  0
 34 35  1  0
 19 36  2  0
  9  3  1  0
 36 15  1  0
 35 23  1  0
 33 28  1  0
  1 37  1  0
  1 38  1  0
  1 39  1  0
  5 40  1  0
  5 41  1  0
  5 42  1  0
  6 43  1  0
  7 44  1  0
  8 45  1  0
 10 46  1  0
 10 47  1  0
 12 48  1  0
 12 49  1  0
 12 50  1  0
 16 51  1  0
 17 52  1  0
 18 53  1  0
 23 54  1  0
 24 55  1  0
 24 56  1  0
 25 57  1  0
 25 58  1  0
 27 59  1  0
 27 60  1  0
 29 61  1  0
 30 62  1  0
 31 63  1  0
 32 64  1  0
 33 65  1  0
 34 66  1  0
 34 67  1  0
 35 68  1  0
 35 69  1  0
 36 70  1  0
M  CHG  1  23   1
M  END
>  <UniqueID>  (10) 
9

>  <SMILES>  (10) 
COc1c(C)cccc1CN(C)C(=O)c1cccc(S(=O)(=O)[NH+]2CCN(Cc3ccccc3)CC2)c1

>  <Energy>  (10) 
98.68708014551004

>  <Genealogy>  (10) 
COc1c(C)cccc1CN(C)C(=O)c1cccc(S(=O)(=O)[NH+]2CCN(Cc3ccccc3)CC2)c1 (protonated)
COc1c(C)cccc1CN(C)C(=O)c1cccc(S(=O)(=O)[NH+]2CCN(Cc3ccccc3)CC2)c1 (3D coordinates assigned)
COc1c(C)cccc1CN(C)C(=O)c1cccc(S(=O)(=O)[NH+]2CCN(Cc3ccccc3)CC2)c1 (nonaromatic ring conformer: 98.68708014551004 kcal/mol)

>  <smiles>  (10) 
COc1c(C)cccc1CN(C)C(=O)c1cccc(S(=O)(=O)N2CCN(Cc3ccccc3)CC2)c1

>  <score_type>  (10) 
oracle

>  <origin>  (10) 
adg

>  <m_score__min__energy>  (10) 
-8.9600000000000009

>  <m_primary>  (10) 
energy

$$$$
10:0
     RDKit          3D

 67 70  0  0  0  0  0  0  0  0999 V2000
   56.7311   31.8269   42.9532 H   0  0  0  0  0  0  0  0  0  0  0  0
   56.9530   30.9380   43.5620 C   0  0  0  0  0  0  0  0  0  0  0  0
   55.9080   30.1600   44.0700 C   0  0  0  0  0  0  0  0  0  0  0  0
   54.8644   30.4352   43.8574 H   0  0  0  0  0  0  0  0  0  0  0  0
   56.1890   29.0310   44.8490 C   0  0  0  0  0  0  0  0  0  0  0  0
   55.3650   28.4191   45.2448 H   0  0  0  0  0  0  0  0  0  0  0  0
   57.5210   28.6770   45.1270 C   0  0  0  0  0  0  0  0  0  0  0  0
   57.8220   27.4380   45.9290 C   0  0  0  0  0  0  0  0  0  0  0  0
   58.2170   26.6600   45.2591 H   0  0  0  0  0  0  0  0  0  0  0  0
   56.8951   27.0902   46.4084 H   0  0  0  0  0  0  0  0  0  0  0  0
   58.8590   27.7420   47.0160 C   0  0  0  0  0  0  0  0  0  0  0  0
   59.7269   28.2368   46.5556 H   0  0  0  0  0  0  0  0  0  0  0  0
   59.1577   26.7940   47.4872 H   0  0  0  0  0  0  0  0  0  0  0  0
   58.3030   28.6170   48.0480 N   0  0  0  0  0  0  0  0  0  0  0  0
   59.2970   30.0240   48.3200 S   0  0  0  0  0  0  0  0  0  0  0  0
   58.4980   31.2960   48.2510 O   0  0  0  0  0  0  0  0  0  0  0  0
   60.3560   30.0630   47.2540 O   0  0  0  0  0  0  0  0  0  0  0  0
   60.0510   29.9090   49.9190 C   0  0  0  0  0  0  0  0  0  0  0  0
   61.4180   29.6050   50.0040 C   0  0  0  0  0  0  0  0  0  0  0  0
   61.9949   29.4288   49.0842 H   0  0  0  0  0  0  0  0  0  0  0  0
   62.0530   29.5240   51.2440 C   0  0  0  0  0  0  0  0  0  0  0  0
   63.1245   29.2797   51.2919 H   0  0  0  0  0  0  0  0  0  0  0  0
   61.3420   29.7500   52.4250 C   0  0  0  0  0  0  0  0  0  0  0  0
   62.0370   29.6730   53.6430 O   0  0  0  0  0  0  0  0  0  0  0  0
   62.3970   30.7880   54.4580 C   0  0  0  0  0  0  0  0  0  0  0  0
   61.9560   30.6579   55.4573 H   0  0  0  0  0  0  0  0  0  0  0  0
   63.4945   30.8325   54.5179 H   0  0  0  0  0  0  0  0  0  0  0  0
   61.9020   32.0830   53.8690 C   0  0  0  0  0  0  0  0  0  0  0  0
   60.9570   32.6870   54.4410 O   0  0  0  0  0  0  0  0  0  0  0  0
   62.4360   32.6270   52.6530 N   0  0  0  0  0  0  0  0  0  0  0  0
   61.6900   32.9890   51.4840 C   0  0  0  0  0  0  0  0  0  0  0  0
   60.3850   33.4720   51.6330 C   0  0  0  0  0  0  0  0  0  0  0  0
   59.9422   33.5529   52.6367 H   0  0  0  0  0  0  0  0  0  0  0  0
   59.6420   33.8520   50.5120 C   0  0  0  0  0  0  0  0  0  0  0  0
   58.6105   34.2138   50.6350 H   0  0  0  0  0  0  0  0  0  0  0  0
   60.2050   33.7740   49.2350 C   0  0  0  0  0  0  0  0  0  0  0  0
   59.6133   34.0651   48.3546 H   0  0  0  0  0  0  0  0  0  0  0  0
   61.5230   33.3250   49.0760 C   0  0  0  0  0  0  0  0  0  0  0  0
   62.2470   33.2210   47.4750 S   0  0  0  0  0  0  0  0  0  0  0  0
   62.1930   31.7940   47.0000 O   0  0  0  0  0  0  0  0  0  0  0  0
   63.6800   33.6700   47.5350 O   0  0  0  0  0  0  0  0  0  0  0  0
   61.3530   34.2450   46.3960 N   0  0  0  0  0  0  0  0  0  0  0  0
   60.1210   34.0370   46.0440 C   0  0  0  0  0  0  0  0  0  0  0  0
   59.4750   32.8080   46.2910 N   0  0  0  0  0  0  0  0  0  0  0  0
   59.9090   31.9890   46.7720 H   0  0  0  0  0  0  0  0  0  0  0  0
   58.0940   32.8740   45.8590 C   0  0  0  0  0  0  0  0  0  0  0  0
   57.4194   32.7999   46.7247 H   0  0  0  0  0  0  0  0  0  0  0  0
   57.8461   32.0459   45.1787 H   0  0  0  0  0  0  0  0  0  0  0  0
   57.9270   34.2390   45.1670 C   0  0  0  0  0  0  0  0  0  0  0  0
   57.0791   34.7834   45.6082 H   0  0  0  0  0  0  0  0  0  0  0  0
   57.7275   34.1091   44.0931 H   0  0  0  0  0  0  0  0  0  0  0  0
   59.2290   35.0260   45.3870 C   0  0  0  0  0  0  0  0  0  0  0  0
   59.0581   35.8958   46.0383 H   0  0  0  0  0  0  0  0  0  0  0  0
   59.6492   35.4310   44.4546 H   0  0  0  0  0  0  0  0  0  0  0  0
   62.2640   32.9370   50.2020 C   0  0  0  0  0  0  0  0  0  0  0  0
   63.3008   32.5899   50.0810 H   0  0  0  0  0  0  0  0  0  0  0  0
   59.9700   30.0480   52.3520 C   0  0  0  0  0  0  0  0  0  0  0  0
   59.3989   30.2066   53.2786 H   0  0  0  0  0  0  0  0  0  0  0  0
   59.3180   30.1460   51.1090 C   0  0  0  0  0  0  0  0  0  0  0  0
   57.8470   30.4690   51.0840 C   0  0  0  0  0  0  0  0  0  0  0  0
   57.4721   30.5513   52.1149 H   0  0  0  0  0  0  0  0  0  0  0  0
   57.6899   31.4230   50.5594 H   0  0  0  0  0  0  0  0  0  0  0  0
   57.3047   29.6685   50.5594 H   0  0  0  0  0  0  0  0  0  0  0  0
   58.5660   29.4560   44.6030 C   0  0  0  0  0  0  0  0  0  0  0  0
   59.6112   29.1771   44.8024 H   0  0  0  0  0  0  0  0  0  0  0  0
   58.2810   30.5860   43.8280 C   0  0  0  0  0  0  0  0  0  0  0  0
   59.1022   31.1984   43.4273 H   0  0  0  0  0  0  0  0  0  0  0  0
  1  2  1  0
  2  3  2  0
  3  4  1  0
  3  5  1  0
  5  6  1  0
  5  7  2  0
  7  8  1  0
  8  9  1  0
  8 10  1  0
  8 11  1  0
 11 12  1  0
 11 13  1  0
 11 14  1  0
 14 15  1  0
 15 16  2  0
 15 17  2  0
 15 18  1  0
 18 19  2  0
 19 20  1  0
 19 21  1  0
 21 22  1  0
 21 23  2  0
 23 24  1  0
 24 25  1  0
 25 26  1  0
 25 27  1  0
 25 28  1  0
 28 29  2  0
 28 30  1  0
 30 31  1  0
 31 32  2  0
 32 33  1  0
 32 34  1  0
 34 35  1  0
 34 36  2  0
 36 37  1  0
 36 38  1  0
 38 39  1  0
 39 40  2  0
 39 41  2  0
 39 42  1  0
 42 43  2  0
 43 44  1  0
 44 45  1  0
 44 46  1  0
 46 47  1  0
 46 48  1  0
 46 49  1  0
 49 50  1  0
 49 51  1  0
 49 52  1  0
 52 53  1  0
 52 54  1  0
 38 55  2  0
 55 56  1  0
 23 57  1  0
 57 58  1  0
 57 59  2  0
 59 60  1  0
 60 61  1  0
 60 62  1  0
 60 63  1  0
  7 64  1  0
 64 65  1  0
 64 66  2  0
 66 67  1  0
 66  2  1  0
 59 18  1  0
 55 31  1  0
 52 43  1  0
M  CHG  2  14  -1  30  -1
M  END
>  <UniqueID>  (11) 
10

>  <SMILES>  (11) 
Cc1cc(OCC(=O)[N-]c2cccc(S(=O)(=O)/N=C3\CCCN3)c2)ccc1S(=O)(=O)[N-]CCc1ccccc1

>  <Energy>  (11) 
81.85672360106126

>  <Genealogy>  (11) 
Cc1cc(OCC(=O)[N-]c2cccc(S(=O)(=O)N=C3CCCN3)c2)ccc1S(=O)(=O)[N-]CCc1ccccc1 (protonated)
Cc1cc(OCC(=O)[N-]c2cccc(S(=O)(=O)/N=C3\CCCN3)c2)ccc1S(=O)(=O)[N-]CCc1ccccc1 (cis-trans isomerization)
Cc1cc(OCC(=O)[N-]c2cccc(S(=O)(=O)/N=C3\CCCN3)c2)ccc1S(=O)(=O)[N-]CCc1ccccc1 (3D coordinates assigned)
Cc1cc(OCC(=O)[N-]c2cccc(S(=O)(=O)/N=C3\CCCN3)c2)ccc1S(=O)(=O)[N-]CCc1ccccc1 (nonaromatic ring conformer: 81.85672360106126 kcal/mol)

>  <smiles>  (11) 
Cc1cc(OCC(=O)Nc2cccc(S(=O)(=O)N=C3CCCN3)c2)ccc1S(=O)(=O)NCCc1ccccc1

>  <score_type>  (11) 
oracle

>  <origin>  (11) 
adg

>  <m_score__min__energy>  (11) 
-12.51

>  <m_primary>  (11) 
energy

$$$$
11:0
     RDKit          3D

 55 57  0  0  0  0  0  0  0  0999 V2000
   55.3540   29.5890   45.0750 N   0  0  0  0  0  0  0  0  0  0  0  0
   56.6560   30.1630   44.0910 S   0  0  0  0  0  0  0  0  0  0  0  0
   57.6290   29.0400   43.8640 O   0  0  0  0  0  0  0  0  0  0  0  0
   56.0890   30.6150   42.7740 O   0  0  0  0  0  0  0  0  0  0  0  0
   57.4880   31.5200   44.8750 C   0  0  0  0  0  0  0  0  0  0  0  0
   57.0610   32.8330   44.6150 C   0  0  0  0  0  0  0  0  0  0  0  0
   57.7080   33.9200   45.2090 C   0  0  0  0  0  0  0  0  0  0  0  0
   58.7850   33.7100   46.0730 C   0  0  0  0  0  0  0  0  0  0  0  0
   59.2200   32.4120   46.3420 C   0  0  0  0  0  0  0  0  0  0  0  0
   58.5810   31.3110   45.7500 C   0  0  0  0  0  0  0  0  0  0  0  0
   59.0850   29.9590   46.0470 C   0  0  0  0  0  0  0  0  0  0  0  0
   60.0320   29.3640   45.2030 C   0  0  0  0  0  0  0  0  0  0  0  0
   60.4630   28.0580   45.4430 C   0  0  0  0  0  0  0  0  0  0  0  0
   59.9510   27.3300   46.5300 C   0  0  0  0  0  0  0  0  0  0  0  0
   60.3520   25.8940   46.7370 C   0  0  0  0  0  0  0  0  0  0  0  0
   59.0520   24.7590   46.2490 S   0  0  0  0  0  0  0  0  0  0  0  0
   58.1970   24.4930   47.4570 O   0  0  0  0  0  0  0  0  0  0  0  0
   59.6480   23.4560   45.7910 O   0  0  0  0  0  0  0  0  0  0  0  0
   57.9950   25.4260   44.9640 C   0  0  0  0  0  0  0  0  0  0  0  0
   57.0010   26.4640   45.5080 C   0  0  0  0  0  0  0  0  0  0  0  0
   55.7300   25.8390   46.0080 C   0  0  0  0  0  0  0  0  0  0  0  0
   54.6020   26.3330   45.7170 O   0  0  0  0  0  0  0  0  0  0  0  0
   55.8080   24.6290   46.7660 N   0  0  0  0  0  0  0  0  0  0  0  0
   55.1740   23.3880   46.3440 C   0  0  0  0  0  0  0  0  0  0  0  0
   55.9460   22.7920   45.1990 C   0  0  0  0  0  0  0  0  0  0  0  0
   55.5060   22.9830   43.8780 C   0  0  0  0  0  0  0  0  0  0  0  0
   56.2190   22.4340   42.8090 C   0  0  0  0  0  0  0  0  0  0  0  0
   57.3800   21.6950   43.0470 C   0  0  0  0  0  0  0  0  0  0  0  0
   57.8380   21.5120   44.3560 C   0  0  0  0  0  0  0  0  0  0  0  0
   57.1290   22.0610   45.4350 C   0  0  0  0  0  0  0  0  0  0  0  0
   57.5950   21.8820   46.7380 O   0  0  0  0  0  0  0  0  0  0  0  0
   59.0470   27.9500   47.4070 C   0  0  0  0  0  0  0  0  0  0  0  0
   58.6110   29.2560   47.1630 C   0  0  0  0  0  0  0  0  0  0  0  0
   55.1760   28.5970   44.8000 H   0  0  0  0  0  0  0  0  0  0  0  0
   56.2110   33.0067   43.9388 H   0  0  0  0  0  0  0  0  0  0  0  0
   57.3680   34.9441   44.9954 H   0  0  0  0  0  0  0  0  0  0  0  0
   59.2901   34.5677   46.5412 H   0  0  0  0  0  0  0  0  0  0  0  0
   60.0691   32.2502   47.0223 H   0  0  0  0  0  0  0  0  0  0  0  0
   60.4368   29.9272   44.3493 H   0  0  0  0  0  0  0  0  0  0  0  0
   61.2074   27.5965   44.7775 H   0  0  0  0  0  0  0  0  0  0  0  0
   61.2498   25.6855   46.1367 H   0  0  0  0  0  0  0  0  0  0  0  0
   60.5485   25.7463   47.8092 H   0  0  0  0  0  0  0  0  0  0  0  0
   58.6254   25.9057   44.2008 H   0  0  0  0  0  0  0  0  0  0  0  0
   57.4144   24.5937   44.5396 H   0  0  0  0  0  0  0  0  0  0  0  0
   57.4771   27.0067   46.3379 H   0  0  0  0  0  0  0  0  0  0  0  0
   56.7375   27.1391   44.6804 H   0  0  0  0  0  0  0  0  0  0  0  0
   55.1606   22.6791   47.1850 H   0  0  0  0  0  0  0  0  0  0  0  0
   54.1430   23.5954   46.0213 H   0  0  0  0  0  0  0  0  0  0  0  0
   54.5949   23.5682   43.6844 H   0  0  0  0  0  0  0  0  0  0  0  0
   55.8653   22.5841   41.7783 H   0  0  0  0  0  0  0  0  0  0  0  0
   57.9347   21.2565   42.2044 H   0  0  0  0  0  0  0  0  0  0  0  0
   58.7568   20.9359   44.5399 H   0  0  0  0  0  0  0  0  0  0  0  0
   58.1510   22.5910   47.2050 H   0  0  0  0  0  0  0  0  0  0  0  0
   58.6801   27.4061   48.2899 H   0  0  0  0  0  0  0  0  0  0  0  0
   57.8946   29.7326   47.8483 H   0  0  0  0  0  0  0  0  0  0  0  0
  1  2  1  0
  2  3  2  0
  2  4  2  0
  2  5  1  0
  5  6  2  0
  6  7  1  0
  7  8  2  0
  8  9  1  0
  9 10  2  0
 10 11  1  0
 11 12  2  0
 12 13  1  0
 13 14  2  0
 14 15  1  0
 15 16  1  0
 16 17  2  0
 16 18  2  0
 16 19  1  0
 19 20  1  0
 20 21  1  0
 21 22  2  0
 21 23  1  0
 23 24  1  0
 24 25  1  0
 25 26  2  0
 26 27  1  0
 27 28  2  0
 28 29  1  0
 29 30  2  0
 30 31  1  0
 14 32  1  0
 32 33  2  0
 10  5  1  0
 33 11  1  0
 30 25  1  0
  1 34  1  0
  6 35  1  0
  7 36  1  0
  8 37  1  0
  9 38  1  0
 12 39  1  0
 13 40  1  0
 15 41  1  0
 15 42  1  0
 19 43  1  0
 19 44  1  0
 20 45  1  0
 20 46  1  0
 24 47  1  0
 24 48  1  0
 26 49  1  0
 27 50  1  0
 28 51  1  0
 29 52  1  0
 31 53  1  0
 32 54  1  0
 33 55  1  0
M  CHG  2   1  -1  23  -1
M  END
>  <UniqueID>  (12) 
11

>  <SMILES>  (12) 
[NH-]S(=O)(=O)c1ccccc1-c1ccc(CS(=O)(=O)CCC(=O)[N-]Cc2ccccc2O)cc1

>  <Energy>  (12) 
50.482863862726724

>  <Genealogy>  (12) 
[NH-]S(=O)(=O)c1ccccc1-c1ccc(CS(=O)(=O)CCC(=O)[N-]Cc2ccccc2O)cc1 (protonated)
[NH-]S(=O)(=O)c1ccccc1-c1ccc(CS(=O)(=O)CCC(=O)[N-]Cc2ccccc2O)cc1 (3D coordinates assigned)
[NH-]S(=O)(=O)c1ccccc1-c1ccc(CS(=O)(=O)CCC(=O)[N-]Cc2ccccc2O)cc1 (optimized conformer: 50.482863862726724 kcal/mol)

>  <smiles>  (12) 
NS(=O)(=O)c1ccccc1-c1ccc(CS(=O)(=O)CCC(=O)NCc2ccccc2O)cc1

>  <score_type>  (12) 
oracle

>  <origin>  (12) 
adg

>  <m_score__min__energy>  (12) 
-14.460000000000001

>  <m_primary>  (12) 
energy

$$$$
12:0
     RDKit          3D

 60 64  0  0  0  0  0  0  0  0999 V2000
   57.9620   32.6660   48.9530 O   0  0  0  0  0  0  0  0  0  0  0  0
   58.5290   31.9880   48.0530 C   0  0  0  0  0  0  0  0  0  0  0  0
   57.8790   31.7860   46.8770 N   0  0  0  0  0  0  0  0  0  0  0  0
   58.4350   31.0540   45.8790 C   0  0  0  0  0  0  0  0  0  0  0  0
   57.7270   30.8990   44.6420 N   0  0  0  0  0  0  0  0  0  0  0  0
   56.7990   29.7800   44.4760 C   0  0  0  0  0  0  0  0  0  0  0  0
   56.6500   29.4530   42.9870 C   0  0  0  0  0  0  0  0  0  0  0  0
   56.3330   30.6180   42.2460 O   0  0  0  0  0  0  0  0  0  0  0  0
   57.4160   31.5290   42.2970 C   0  0  0  0  0  0  0  0  0  0  0  0
   57.6330   32.0360   43.7260 C   0  0  0  0  0  0  0  0  0  0  0  0
   59.6880   30.4640   46.0640 C   0  0  0  0  0  0  0  0  0  0  0  0
   60.2320   29.6050   45.0470 N   0  0  0  0  0  0  0  0  0  0  0  0
   60.3450   28.3340   45.1280 N   0  0  0  0  0  0  0  0  0  0  0  0
   59.3230   27.4230   45.5630 C   0  0  0  0  0  0  0  0  0  0  0  0
   59.1600   27.1890   46.9340 C   0  0  0  0  0  0  0  0  0  0  0  0
   58.1410   26.3480   47.3920 C   0  0  0  0  0  0  0  0  0  0  0  0
   57.2600   25.7570   46.4810 C   0  0  0  0  0  0  0  0  0  0  0  0
   56.2620   24.9560   46.9280 F   0  0  0  0  0  0  0  0  0  0  0  0
   57.4000   26.0040   45.1140 C   0  0  0  0  0  0  0  0  0  0  0  0
   58.4230   26.8380   44.6520 C   0  0  0  0  0  0  0  0  0  0  0  0
   60.3290   30.6410   47.2990 C   0  0  0  0  0  0  0  0  0  0  0  0
   61.4050   30.0240   47.5310 O   0  0  0  0  0  0  0  0  0  0  0  0
   59.7790   31.4570   48.2580 N   0  0  0  0  0  0  0  0  0  0  0  0
   60.5320   31.7370   49.5000 C   0  0  0  0  0  0  0  0  0  0  0  0
   61.9240   32.2550   49.1900 C   0  0  0  0  0  0  0  0  0  0  0  0
   63.0200   31.7360   49.9040 C   0  0  0  0  0  0  0  0  0  0  0  0
   64.3210   32.1520   49.6140 C   0  0  0  0  0  0  0  0  0  0  0  0
   64.5480   33.0910   48.6090 C   0  0  0  0  0  0  0  0  0  0  0  0
   63.4750   33.6150   47.8870 C   0  0  0  0  0  0  0  0  0  0  0  0
   62.1600   33.2120   48.1720 C   0  0  0  0  0  0  0  0  0  0  0  0
   61.0630   33.8180   47.3960 C   0  0  0  0  0  0  0  0  0  0  0  0
   60.0920   34.6010   48.0400 C   0  0  0  0  0  0  0  0  0  0  0  0
   59.0430   35.1630   47.3060 C   0  0  0  0  0  0  0  0  0  0  0  0
   58.9510   34.9360   45.9290 C   0  0  0  0  0  0  0  0  0  0  0  0
   59.9070   34.1430   45.2860 C   0  0  0  0  0  0  0  0  0  0  0  0
   60.9600   33.5840   46.0160 C   0  0  0  0  0  0  0  0  0  0  0  0
   56.9360   32.2110   46.7310 H   0  0  0  0  0  0  0  0  0  0  0  0
   57.1889   28.8991   45.0071 H   0  0  0  0  0  0  0  0  0  0  0  0
   55.8175   30.0547   44.8898 H   0  0  0  0  0  0  0  0  0  0  0  0
   57.5959   29.0340   42.6133 H   0  0  0  0  0  0  0  0  0  0  0  0
   55.8346   28.7248   42.8655 H   0  0  0  0  0  0  0  0  0  0  0  0
   58.3295   31.0231   41.9512 H   0  0  0  0  0  0  0  0  0  0  0  0
   57.1854   32.3877   41.6493 H   0  0  0  0  0  0  0  0  0  0  0  0
   58.5646   32.6192   43.7699 H   0  0  0  0  0  0  0  0  0  0  0  0
   56.7854   32.6725   44.0201 H   0  0  0  0  0  0  0  0  0  0  0  0
   59.8376   27.6696   47.6550 H   0  0  0  0  0  0  0  0  0  0  0  0
   58.0325   26.1514   48.4688 H   0  0  0  0  0  0  0  0  0  0  0  0
   56.7040   25.5415   44.3987 H   0  0  0  0  0  0  0  0  0  0  0  0
   58.5247   27.0373   43.5750 H   0  0  0  0  0  0  0  0  0  0  0  0
   59.9895   32.4934   50.0862 H   0  0  0  0  0  0  0  0  0  0  0  0
   60.6265   30.8008   50.0698 H   0  0  0  0  0  0  0  0  0  0  0  0
   62.8500   30.9949   50.6989 H   0  0  0  0  0  0  0  0  0  0  0  0
   65.1686   31.7379   50.1798 H   0  0  0  0  0  0  0  0  0  0  0  0
   65.5737   33.4191   48.3849 H   0  0  0  0  0  0  0  0  0  0  0  0
   63.6603   34.3490   47.0889 H   0  0  0  0  0  0  0  0  0  0  0  0
   60.1566   34.7728   49.1246 H   0  0  0  0  0  0  0  0  0  0  0  0
   58.2894   35.7843   47.8120 H   0  0  0  0  0  0  0  0  0  0  0  0
   58.1270   35.3810   45.3519 H   0  0  0  0  0  0  0  0  0  0  0  0
   59.8302   33.9589   44.2042 H   0  0  0  0  0  0  0  0  0  0  0  0
   61.7094   32.9594   45.5078 H   0  0  0  0  0  0  0  0  0  0  0  0
  1  2  2  0
  2  3  1  0
  3  4  1  0
  4  5  1  0
  5  6  1  0
  6  7  1  0
  7  8  1  0
  8  9  1  0
  9 10  1  0
  4 11  2  0
 11 12  1  0
 12 13  2  3
 13 14  1  0
 14 15  2  0
 15 16  1  0
 16 17  2  0
 17 18  1  0
 17 19  1  0
 19 20  2  0
 11 21  1  0
 21 22  2  0
 21 23  1  0
 23 24  1  0
 24 25  1  0
 25 26  2  0
 26 27  1  0
 27 28  2  0
 28 29  1  0
 29 30  2  0
 30 31  1  0
 31 32  2  0
 32 33  1  0
 33 34  2  0
 34 35  1  0
 35 36  2  0
 23  2  1  0
 30 25  1  0
 36 31  1  0
 10  5  1  0
 20 14  1  0
  3 37  1  0
  6 38  1  0
  6 39  1  0
  7 40  1  0
  7 41  1  0
  9 42  1  0
  9 43  1  0
 10 44  1  0
 10 45  1  0
 15 46  1  0
 16 47  1  0
 19 48  1  0
 20 49  1  0
 24 50  1  0
 24 51  1  0
 26 52  1  0
 27 53  1  0
 28 54  1  0
 29 55  1  0
 32 56  1  0
 33 57  1  0
 34 58  1  0
 35 59  1  0
 36 60  1  0
M  END
>  <UniqueID>  (13) 
12

>  <SMILES>  (13) 
O=c1[nH]c(N2CCOCC2)c(N=Nc2ccc(F)cc2)c(=O)n1Cc1ccccc1-c1ccccc1

>  <Energy>  (13) 
92.79852016713481

>  <Genealogy>  (13) 
O=c1[nH]c(N2CCOCC2)c(N=Nc2ccc(F)cc2)c(=O)n1Cc1ccccc1-c1ccccc1 (3D coordinates assigned)
O=c1[nH]c(N2CCOCC2)c(N=Nc2ccc(F)cc2)c(=O)n1Cc1ccccc1-c1ccccc1 (nonaromatic ring conformer: 92.79852016713481 kcal/mol)

>  <smiles>  (13) 
O=c1[nH]c(N2CCOCC2)c(N=Nc2ccc(F)cc2)c(=O)n1Cc1ccccc1-c1ccccc1

>  <score_type>  (13) 
oracle

>  <origin>  (13) 
adg

>  <m_score__min__energy>  (13) 
-8.9600000000000009

>  <m_primary>  (13) 
energy

$$$$
13:0
     RDKit          3D

 61 65  0  0  0  0  0  0  0  0999 V2000
   57.4950   33.3520   47.3440 O   0  0  0  0  0  0  0  0  0  0  0  0
   58.5890   33.6400   46.7870 C   0  0  0  0  0  0  0  0  0  0  0  0
   58.8800   33.1670   45.3940 C   0  0  0  0  0  0  0  0  0  0  0  0
   58.8330   31.7050   45.3040 N   0  0  0  0  0  0  0  0  0  0  0  0
   59.6120   30.7740   45.9450 C   0  0  0  0  0  0  0  0  0  0  0  0
   60.8110   31.1250   46.7920 C   0  0  0  0  0  0  0  0  0  0  0  0
   60.5540   30.9050   48.2640 C   0  0  0  0  0  0  0  0  0  0  0  0
   59.2760   31.1110   48.8150 C   0  0  0  0  0  0  0  0  0  0  0  0
   59.0600   30.9310   50.1850 C   0  0  0  0  0  0  0  0  0  0  0  0
   60.1180   30.5570   51.0180 C   0  0  0  0  0  0  0  0  0  0  0  0
   61.3940   30.3680   50.4830 C   0  0  0  0  0  0  0  0  0  0  0  0
   61.6150   30.5470   49.1140 C   0  0  0  0  0  0  0  0  0  0  0  0
   59.1340   29.4990   45.7820 N   0  0  0  0  0  0  0  0  0  0  0  0
   59.5830   28.2410   46.3840 C   0  0  0  0  0  0  0  0  0  0  0  0
   60.7870   27.6700   45.6330 C   0  0  0  0  0  0  0  0  0  0  0  0
   61.1620   28.5190   44.5820 O   0  0  0  0  0  0  0  0  0  0  0  0
   58.0580   29.6800   45.0020 C   0  0  0  0  0  0  0  0  0  0  0  0
   56.7670   28.7350   44.5120 S   0  0  0  0  0  0  0  0  0  0  0  0
   55.9340   30.0970   43.8810 C   0  0  0  0  0  0  0  0  0  0  0  0
   56.6690   31.2740   44.1020 C   0  0  0  0  0  0  0  0  0  0  0  0
   57.8660   30.9670   44.7340 C   0  0  0  0  0  0  0  0  0  0  0  0
   59.5690   34.4320   47.4680 N   0  0  0  0  0  0  0  0  0  0  0  0
   60.9770   34.1670   47.5490 C   0  0  0  0  0  0  0  0  0  0  0  0
   61.7860   34.0850   46.4020 C   0  0  0  0  0  0  0  0  0  0  0  0
   63.1560   33.8430   46.5260 C   0  0  0  0  0  0  0  0  0  0  0  0
   63.7340   33.7000   47.7890 C   0  0  0  0  0  0  0  0  0  0  0  0
   62.9470   33.8190   48.9480 C   0  0  0  0  0  0  0  0  0  0  0  0
   63.5460   33.6650   50.2960 C   0  0  0  0  0  0  0  0  0  0  0  0
   63.0760   34.3430   51.2510 O   0  0  0  0  0  0  0  0  0  0  0  0
   64.6770   32.7450   50.5620 C   0  0  0  0  0  0  0  0  0  0  0  0
   64.4570   31.4580   51.0910 C   0  0  0  0  0  0  0  0  0  0  0  0
   65.5310   30.5940   51.3200 C   0  0  0  0  0  0  0  0  0  0  0  0
   66.8330   30.9980   51.0150 C   0  0  0  0  0  0  0  0  0  0  0  0
   67.0620   32.2660   50.4750 C   0  0  0  0  0  0  0  0  0  0  0  0
   65.9900   33.1340   50.2450 C   0  0  0  0  0  0  0  0  0  0  0  0
   61.5660   34.0470   48.8150 C   0  0  0  0  0  0  0  0  0  0  0  0
   58.1320   33.5918   44.7084 H   0  0  0  0  0  0  0  0  0  0  0  0
   59.8929   33.4979   45.1210 H   0  0  0  0  0  0  0  0  0  0  0  0
   61.6593   30.4967   46.4828 H   0  0  0  0  0  0  0  0  0  0  0  0
   61.0285   32.1930   46.6432 H   0  0  0  0  0  0  0  0  0  0  0  0
   58.4424   31.4152   48.1649 H   0  0  0  0  0  0  0  0  0  0  0  0
   58.0560   31.0840   50.6075 H   0  0  0  0  0  0  0  0  0  0  0  0
   59.9457   30.4116   52.0946 H   0  0  0  0  0  0  0  0  0  0  0  0
   62.2271   30.0777   51.1400 H   0  0  0  0  0  0  0  0  0  0  0  0
   62.6244   30.4070   48.6999 H   0  0  0  0  0  0  0  0  0  0  0  0
   59.8667   28.4248   47.4308 H   0  0  0  0  0  0  0  0  0  0  0  0
   58.7596   27.5137   46.3285 H   0  0  0  0  0  0  0  0  0  0  0  0
   61.6309   27.5640   46.3306 H   0  0  0  0  0  0  0  0  0  0  0  0
   60.5121   26.6900   45.2159 H   0  0  0  0  0  0  0  0  0  0  0  0
   61.9260   28.0850   44.1220 H   0  0  0  0  0  0  0  0  0  0  0  0
   54.9590   30.0542   43.3735 H   0  0  0  0  0  0  0  0  0  0  0  0
   56.3447   32.2858   43.8172 H   0  0  0  0  0  0  0  0  0  0  0  0
   61.3391   34.2117   45.4049 H   0  0  0  0  0  0  0  0  0  0  0  0
   63.7822   33.7647   45.6250 H   0  0  0  0  0  0  0  0  0  0  0  0
   64.8107   33.4932   47.8777 H   0  0  0  0  0  0  0  0  0  0  0  0
   63.4331   31.1312   51.3253 H   0  0  0  0  0  0  0  0  0  0  0  0
   65.3509   29.5939   51.7412 H   0  0  0  0  0  0  0  0  0  0  0  0
   67.6776   30.3180   51.1999 H   0  0  0  0  0  0  0  0  0  0  0  0
   68.0869   32.5820   50.2304 H   0  0  0  0  0  0  0  0  0  0  0  0
   66.1756   34.1284   49.8129 H   0  0  0  0  0  0  0  0  0  0  0  0
   60.9402   34.1322   49.7156 H   0  0  0  0  0  0  0  0  0  0  0  0
  1  2  2  0
  2  3  1  0
  3  4  1  0
  4  5  1  0
  5  6  1  0
  6  7  1  0
  7  8  2  0
  8  9  1  0
  9 10  2  0
 10 11  1  0
 11 12  2  0
  5 13  2  0
 13 14  1  0
 14 15  1  0
 15 16  1  0
 13 17  1  0
 17 18  1  0
 18 19  1  0
 19 20  2  0
 20 21  1  0
  2 22  1  0
 22 23  1  0
 23 24  2  0
 24 25  1  0
 25 26  2  0
 26 27  1  0
 27 28  1  0
 28 29  2  0
 28 30  1  0
 30 31  2  0
 31 32  1  0
 32 33  2  0
 33 34  1  0
 34 35  2  0
 27 36  2  0
 21  4  1  0
 36 23  1  0
 12  7  1  0
 21 17  2  0
 35 30  1  0
  3 37  1  0
  3 38  1  0
  6 39  1  0
  6 40  1  0
  8 41  1  0
  9 42  1  0
 10 43  1  0
 11 44  1  0
 12 45  1  0
 14 46  1  0
 14 47  1  0
 15 48  1  0
 15 49  1  0
 16 50  1  0
 19 51  1  0
 20 52  1  0
 24 53  1  0
 25 54  1  0
 26 55  1  0
 31 56  1  0
 32 57  1  0
 33 58  1  0
 34 59  1  0
 35 60  1  0
 36 61  1  0
M  CHG  2  13   1  22  -1
M  END
>  <UniqueID>  (14) 
13

>  <SMILES>  (14) 
O=C(Cn1c(Cc2ccccc2)[n+](CCO)c2sccc21)[N-]c1cccc(C(=O)c2ccccc2)c1

>  <Energy>  (14) 
154.94222333938168

>  <Genealogy>  (14) 
O=C(Cn1c(Cc2ccccc2)[n+](CCO)c2sccc21)[N-]c1cccc(C(=O)c2ccccc2)c1 (protonated)
O=C(Cn1c(Cc2ccccc2)[n+](CCO)c2sccc21)[N-]c1cccc(C(=O)c2ccccc2)c1 (3D coordinates assigned)
O=C(Cn1c(Cc2ccccc2)[n+](CCO)c2sccc21)[N-]c1cccc(C(=O)c2ccccc2)c1 (optimized conformer: 154.94222333938168 kcal/mol)

>  <smiles>  (14) 
O=C(Cn1c(Cc2ccccc2)[n+](CCO)c2sccc21)Nc1cccc(C(=O)c2ccccc2)c1

>  <score_type>  (14) 
oracle

>  <origin>  (14) 
adg

>  <m_score__min__energy>  (14) 
-9.6199999999999992

>  <m_primary>  (14) 
energy

$$$$
14:0
     RDKit          3D

 54 55  0  0  0  0  0  0  0  0999 V2000
   60.8741   29.3857   47.9792 H   0  0  0  0  0  0  0  0  0  0  0  0
   60.3930   30.2640   47.5240 C   0  0  0  0  0  0  0  0  0  0  0  0
   61.1360   31.4290   47.3080 C   0  0  0  0  0  0  0  0  0  0  0  0
   62.1925   31.4682   47.6117 H   0  0  0  0  0  0  0  0  0  0  0  0
   60.5410   32.5480   46.7060 C   0  0  0  0  0  0  0  0  0  0  0  0
   61.3370   33.8120   46.4980 C   0  0  0  0  0  0  0  0  0  0  0  0
   60.7845   34.6533   46.9418 H   0  0  0  0  0  0  0  0  0  0  0  0
   61.4756   33.9440   45.4148 H   0  0  0  0  0  0  0  0  0  0  0  0
   62.7100   33.7460   47.1310 C   0  0  0  0  0  0  0  0  0  0  0  0
   63.7260   33.6120   46.3930 O   0  0  0  0  0  0  0  0  0  0  0  0
   62.8780   33.8000   48.5680 N   0  0  0  0  0  0  0  0  0  0  0  0
   61.7860   34.2290   49.4560 C   0  0  0  0  0  0  0  0  0  0  0  0
   60.9876   34.6865   48.8533 H   0  0  0  0  0  0  0  0  0  0  0  0
   62.1802   34.9586   50.1787 H   0  0  0  0  0  0  0  0  0  0  0  0
   61.2190   33.0360   50.2180 C   0  0  0  0  0  0  0  0  0  0  0  0
   61.3051   33.2172   51.2995 H   0  0  0  0  0  0  0  0  0  0  0  0
   60.1603   32.9006   49.9521 H   0  0  0  0  0  0  0  0  0  0  0  0
   61.7826   32.1296   49.9521 H   0  0  0  0  0  0  0  0  0  0  0  0
   64.1930   33.5060   49.1580 C   0  0  0  0  0  0  0  0  0  0  0  0
   64.9819   33.8144   48.4562 H   0  0  0  0  0  0  0  0  0  0  0  0
   64.2903   34.0586   50.1041 H   0  0  0  0  0  0  0  0  0  0  0  0
   64.3290   32.0130   49.4420 C   0  0  0  0  0  0  0  0  0  0  0  0
   64.3442   31.8465   50.5292 H   0  0  0  0  0  0  0  0  0  0  0  0
   63.4760   31.4766   49.0008 H   0  0  0  0  0  0  0  0  0  0  0  0
   65.2649   31.6396   49.0008 H   0  0  0  0  0  0  0  0  0  0  0  0
   59.1870   32.4930   46.3390 C   0  0  0  0  0  0  0  0  0  0  0  0
   58.7082   33.3706   45.8801 H   0  0  0  0  0  0  0  0  0  0  0  0
   58.4440   31.3280   46.5540 C   0  0  0  0  0  0  0  0  0  0  0  0
   57.3892   31.2871   46.2445 H   0  0  0  0  0  0  0  0  0  0  0  0
   59.0380   30.2080   47.1640 C   0  0  0  0  0  0  0  0  0  0  0  0
   58.3060   28.9880   47.3710 N   0  0  0  0  0  0  0  0  0  0  0  0
   57.6600   28.9330   48.1910 H   0  0  0  0  0  0  0  0  0  0  0  0
   58.3200   27.8700   46.4720 C   0  0  0  0  0  0  0  0  0  0  0  0
   58.8170   27.9850   45.3160 O   0  0  0  0  0  0  0  0  0  0  0  0
   57.7060   26.6390   46.8820 N   0  0  0  0  0  0  0  0  0  0  0  0
   56.6210   26.1370   46.3760 C   0  0  0  0  0  0  0  0  0  0  0  0
   55.4490   26.7260   46.3630 O   0  0  0  0  0  0  0  0  0  0  0  0
   54.5640   25.9660   45.7870 N   0  0  0  0  0  0  0  0  0  0  0  0
   55.1980   24.8370   45.3950 C   0  0  0  0  0  0  0  0  0  0  0  0
   54.5010   23.6420   44.7670 C   0  0  0  0  0  0  0  0  0  0  0  0
   52.9970   23.9520   44.6400 C   0  0  0  0  0  0  0  0  0  0  0  0
   52.5554   24.0430   45.6433 H   0  0  0  0  0  0  0  0  0  0  0  0
   52.8623   24.8968   44.0930 H   0  0  0  0  0  0  0  0  0  0  0  0
   52.4997   23.1375   44.0930 H   0  0  0  0  0  0  0  0  0  0  0  0
   54.6970   22.3860   45.6460 C   0  0  0  0  0  0  0  0  0  0  0  0
   54.6526   22.6708   46.7076 H   0  0  0  0  0  0  0  0  0  0  0  0
   53.9016   21.6581   45.4280 H   0  0  0  0  0  0  0  0  0  0  0  0
   55.6764   21.9351   45.4280 H   0  0  0  0  0  0  0  0  0  0  0  0
   55.0830   23.3610   43.3650 C   0  0  0  0  0  0  0  0  0  0  0  0
   56.0694   22.8848   43.4662 H   0  0  0  0  0  0  0  0  0  0  0  0
   54.4066   22.6902   42.8149 H   0  0  0  0  0  0  0  0  0  0  0  0
   55.1877   24.3078   42.8149 H   0  0  0  0  0  0  0  0  0  0  0  0
   56.5300   24.9070   45.7750 C   0  0  0  0  0  0  0  0  0  0  0  0
   57.3220   24.1576   45.6297 H   0  0  0  0  0  0  0  0  0  0  0  0
  1  2  1  0
  2  3  2  0
  3  4  1  0
  3  5  1  0
  5  6  1  0
  6  7  1  0
  6  8  1  0
  6  9  1  0
  9 10  2  0
  9 11  1  0
 11 12  1  0
 12 13  1  0
 12 14  1  0
 12 15  1  0
 15 16  1  0
 15 17  1  0
 15 18  1  0
 11 19  1  0
 19 20  1  0
 19 21  1  0
 19 22  1  0
 22 23  1  0
 22 24  1  0
 22 25  1  0
  5 26  2  0
 26 27  1  0
 26 28  1  0
 28 29  1  0
 28 30  2  0
 30 31  1  0
 31 32  1  0
 31 33  1  0
 33 34  2  0
 33 35  1  0
 35 36  2  0
 36 37  1  0
 37 38  1  0
 38 39  1  0
 39 40  1  0
 40 41  1  0
 41 42  1  0
 41 43  1  0
 41 44  1  0
 40 45  1  0
 45 46  1  0
 45 47  1  0
 45 48  1  0
 40 49  1  0
 49 50  1  0
 49 51  1  0
 49 52  1  0
 39 53  2  0
 53 54  1  0
 30  2  1  0
 53 36  1  0
M  CHG  1  38  -1
M  END
>  <UniqueID>  (15) 
14

>  <SMILES>  (15) 
CCN(CC)C(=O)Cc1ccc(NC(=O)/N=c2/cc(C(C)(C)C)[n-]o2)cc1

>  <Energy>  (15) 
78.79747043290922

>  <Genealogy>  (15) 
CCN(CC)C(=O)Cc1ccc(NC(=O)N=c2cc(C(C)(C)C)[n-]o2)cc1 (protonated)
CCN(CC)C(=O)Cc1ccc(NC(=O)/N=c2/cc(C(C)(C)C)[n-]o2)cc1 (cis-trans isomerization)
CCN(CC)C(=O)Cc1ccc(NC(=O)/N=c2/cc(C(C)(C)C)[n-]o2)cc1 (3D coordinates assigned)
CCN(CC)C(=O)Cc1ccc(NC(=O)/N=c2/cc(C(C)(C)C)[n-]o2)cc1 (optimized conformer: 78.79747043290922 kcal/mol)

>  <smiles>  (15) 
CCN(CC)C(=O)Cc1ccc(NC(=O)N=c2cc(C(C)(C)C)[nH]o2)cc1

>  <score_type>  (15) 
oracle

>  <origin>  (15) 
adg

>  <m_score__min__energy>  (15) 
-9.8900000000000006

>  <m_primary>  (15) 
energy

$$$$
15:0
     RDKit          3D

 32 34  0  0  0  0  0  0  0  0999 V2000
   64.0880   32.4370   46.7580 N   0  0  0  0  0  0  0  0  0  0  0  0
   63.0130   32.8140   48.0580 S   0  0  0  0  0  0  0  0  0  0  0  0
   62.9960   31.6760   49.0390 O   0  0  0  0  0  0  0  0  0  0  0  0
   63.4890   34.0530   48.7640 O   0  0  0  0  0  0  0  0  0  0  0  0
   61.3940   33.0790   47.4190 C   0  0  0  0  0  0  0  0  0  0  0  0
   60.3450   32.2200   47.7710 C   0  0  0  0  0  0  0  0  0  0  0  0
   59.0660   32.4190   47.2430 C   0  0  0  0  0  0  0  0  0  0  0  0
   58.8230   33.4790   46.3560 C   0  0  0  0  0  0  0  0  0  0  0  0
   57.4580   33.6600   45.7500 C   0  0  0  0  0  0  0  0  0  0  0  0
   57.4030   33.0080   44.0430 S   0  0  0  0  0  0  0  0  0  0  0  0
   57.3950   31.2880   44.5410 C   0  0  0  0  0  0  0  0  0  0  0  0
   58.5400   30.5980   44.7970 N   0  0  0  0  0  0  0  0  0  0  0  0
   58.0740   29.3780   45.0920 C   0  0  0  0  0  0  0  0  0  0  0  0
   58.7910   28.2360   45.4280 C   0  0  0  0  0  0  0  0  0  0  0  0
   58.0530   27.0660   45.6840 C   0  0  0  0  0  0  0  0  0  0  0  0
   56.6410   27.0930   45.5920 C   0  0  0  0  0  0  0  0  0  0  0  0
   55.9900   28.2470   45.2540 N   0  0  0  0  0  0  0  0  0  0  0  0
   56.7210   29.3630   45.0130 C   0  0  0  0  0  0  0  0  0  0  0  0
   56.2480   30.5660   44.6630 N   0  0  0  0  0  0  0  0  0  0  0  0
   59.8780   34.3350   46.0020 C   0  0  0  0  0  0  0  0  0  0  0  0
   61.1570   34.1340   46.5280 C   0  0  0  0  0  0  0  0  0  0  0  0
   64.4700   31.4820   46.9430 H   0  0  0  0  0  0  0  0  0  0  0  0
   64.8910   33.1020   46.8220 H   0  0  0  0  0  0  0  0  0  0  0  0
   60.5282   31.3864   48.4649 H   0  0  0  0  0  0  0  0  0  0  0  0
   58.2462   31.7415   47.5241 H   0  0  0  0  0  0  0  0  0  0  0  0
   56.7189   33.1237   46.3632 H   0  0  0  0  0  0  0  0  0  0  0  0
   57.2291   34.7355   45.7204 H   0  0  0  0  0  0  0  0  0  0  0  0
   59.8891   28.2464   45.4911 H   0  0  0  0  0  0  0  0  0  0  0  0
   58.5712   26.1342   45.9545 H   0  0  0  0  0  0  0  0  0  0  0  0
   56.0631   26.1791   45.7938 H   0  0  0  0  0  0  0  0  0  0  0  0
   59.6969   35.1682   45.3070 H   0  0  0  0  0  0  0  0  0  0  0  0
   61.9797   34.8057   46.2418 H   0  0  0  0  0  0  0  0  0  0  0  0
  1  2  1  0
  2  3  2  0
  2  4  2  0
  2  5  1  0
  5  6  2  0
  6  7  1  0
  7  8  2  0
  8  9  1  0
  9 10  1  0
 10 11  1  0
 11 12  2  0
 12 13  1  0
 13 14  2  0
 14 15  1  0
 15 16  2  0
 16 17  1  0
 17 18  2  0
 18 19  1  0
  8 20  1  0
 20 21  2  0
 21  5  1  0
 19 11  1  0
 18 13  1  0
  1 22  1  0
  1 23  1  0
  6 24  1  0
  7 25  1  0
  9 26  1  0
  9 27  1  0
 14 28  1  0
 15 29  1  0
 16 30  1  0
 20 31  1  0
 21 32  1  0
M  CHG  1  19  -1
M  END
>  <UniqueID>  (16) 
15

>  <SMILES>  (16) 
NS(=O)(=O)c1ccc(CSc2nc3cccnc3[n-]2)cc1

>  <Energy>  (16) 
65.21609172474298

>  <Genealogy>  (16) 
NS(=O)(=O)c1ccc(CSc2nc3cccnc3[n-]2)cc1 (protonated)
NS(=O)(=O)c1ccc(CSc2nc3cccnc3[n-]2)cc1 (3D coordinates assigned)
NS(=O)(=O)c1ccc(CSc2nc3cccnc3[n-]2)cc1 (optimized conformer: 65.21609172474298 kcal/mol)

>  <smiles>  (16) 
NS(=O)(=O)c1ccc(CSc2nc3cccnc3[nH]2)cc1

>  <score_type>  (16) 
oracle

>  <origin>  (16) 
adg

>  <m_score__min__energy>  (16) 
-9.7799999999999994

>  <m_primary>  (16) 
energy

$$$$
16:0
     RDKit          3D

 42 44  0  0  0  0  0  0  0  0999 V2000
   60.3610   34.5760   48.7910 C   0  0  0  0  0  0  0  0  0  0  0  0
   59.7550   34.0800   47.5570 N   0  0  0  0  0  0  0  0  0  0  0  0
   59.3940   34.7900   46.4610 C   0  0  0  0  0  0  0  0  0  0  0  0
   59.6010   36.0280   46.3390 O   0  0  0  0  0  0  0  0  0  0  0  0
   58.7780   34.0550   45.5000 N   0  0  0  0  0  0  0  0  0  0  0  0
   58.7520   32.8240   46.0500 C   0  0  0  0  0  0  0  0  0  0  0  0
   58.2030   31.6660   45.5060 C   0  0  0  0  0  0  0  0  0  0  0  0
   58.2390   30.4860   46.2760 C   0  0  0  0  0  0  0  0  0  0  0  0
   57.6550   29.3270   45.7380 O   0  0  0  0  0  0  0  0  0  0  0  0
   57.9690   28.7690   44.4580 C   0  0  2  0  0  0  0  0  0  0  0  0
   57.1360   29.4610   43.3620 C   0  0  0  0  0  0  0  0  0  0  0  0
   55.6740   29.7230   43.7490 C   0  0  0  0  0  0  0  0  0  0  0  0
   55.3270   28.9670   44.8760 O   0  0  0  0  0  0  0  0  0  0  0  0
   57.7550   27.2800   44.4720 C   0  0  0  0  0  0  0  0  0  0  0  0
   57.7840   26.6320   43.3910 O   0  0  0  0  0  0  0  0  0  0  0  0
   57.5480   26.6070   45.7160 N   0  0  0  0  0  0  0  0  0  0  0  0
   56.2420   25.5070   45.9810 S   0  0  0  0  0  0  0  0  0  0  0  0
   54.9270   26.1810   45.6980 O   0  0  0  0  0  0  0  0  0  0  0  0
   56.2510   25.0580   47.4150 O   0  0  0  0  0  0  0  0  0  0  0  0
   56.4540   24.1190   44.9330 C   0  0  0  0  0  0  0  0  0  0  0  0
   57.5810   23.3140   44.8820 C   0  0  0  0  0  0  0  0  0  0  0  0
   57.4900   22.3120   43.9100 C   0  0  0  0  0  0  0  0  0  0  0  0
   56.3020   22.3380   43.1910 C   0  0  0  0  0  0  0  0  0  0  0  0
   55.3600   23.6100   43.7650 S   0  0  0  0  0  0  0  0  0  0  0  0
   58.8430   30.5080   47.5670 C   0  0  0  0  0  0  0  0  0  0  0  0
   59.3950   31.6930   48.0820 C   0  0  0  0  0  0  0  0  0  0  0  0
   59.3290   32.8360   47.2870 C   0  0  0  0  0  0  0  0  0  0  0  0
   59.8354   34.1458   49.6563 H   0  0  0  0  0  0  0  0  0  0  0  0
   61.4207   34.2827   48.8227 H   0  0  0  0  0  0  0  0  0  0  0  0
   60.2830   35.6728   48.8227 H   0  0  0  0  0  0  0  0  0  0  0  0
   57.7532   31.6718   44.5022 H   0  0  0  0  0  0  0  0  0  0  0  0
   59.0307   28.9464   44.2317 H   0  0  0  0  0  0  0  0  0  0  0  0
   57.6086   30.4264   43.1284 H   0  0  0  0  0  0  0  0  0  0  0  0
   57.1157   28.7751   42.5023 H   0  0  0  0  0  0  0  0  0  0  0  0
   55.5442   30.7917   43.9748 H   0  0  0  0  0  0  0  0  0  0  0  0
   55.0242   29.4338   42.9099 H   0  0  0  0  0  0  0  0  0  0  0  0
   55.9190   28.1700   44.8650 H   0  0  0  0  0  0  0  0  0  0  0  0
   58.4547   23.4487   45.5366 H   0  0  0  0  0  0  0  0  0  0  0  0
   58.2849   21.5728   43.7319 H   0  0  0  0  0  0  0  0  0  0  0  0
   56.0237   21.6450   42.3834 H   0  0  0  0  0  0  0  0  0  0  0  0
   58.8773   29.5866   48.1669 H   0  0  0  0  0  0  0  0  0  0  0  0
   59.8627   31.7178   49.0773 H   0  0  0  0  0  0  0  0  0  0  0  0
  1  2  1  0
  2  3  1  0
  3  4  2  0
  3  5  1  0
  5  6  1  0
  6  7  2  0
  7  8  1  0
  8  9  1  0
  9 10  1  0
 10 11  1  0
 11 12  1  0
 12 13  1  0
 10 14  1  0
 14 15  2  0
 14 16  1  0
 16 17  1  0
 17 18  2  0
 17 19  2  0
 17 20  1  0
 20 21  2  0
 21 22  1  0
 22 23  2  0
 23 24  1  0
  8 25  2  0
 25 26  1  0
 26 27  2  0
 27  2  1  0
 27  6  1  0
 24 20  1  0
  1 28  1  0
  1 29  1  0
  1 30  1  0
  7 31  1  0
 10 32  1  6
 11 33  1  0
 11 34  1  0
 12 35  1  0
 12 36  1  0
 13 37  1  0
 21 38  1  0
 22 39  1  0
 23 40  1  0
 25 41  1  0
 26 42  1  0
M  CHG  2   5  -1  16  -1
M  END
>  <UniqueID>  (17) 
16

>  <SMILES>  (17) 
Cn1c(=O)[n-]c2cc(O[C@H](CCO)C(=O)[N-]S(=O)(=O)c3cccs3)ccc21

>  <Energy>  (17) 
103.13717418712955

>  <Genealogy>  (17) 
Cn1c(=O)[n-]c2cc(OC(CCO)C(=O)[N-]S(=O)(=O)c3cccs3)ccc21 (protonated)
Cn1c(=O)[n-]c2cc(O[C@H](CCO)C(=O)[N-]S(=O)(=O)c3cccs3)ccc21 (chirality)
Cn1c(=O)[n-]c2cc(O[C@H](CCO)C(=O)[N-]S(=O)(=O)c3cccs3)ccc21 (3D coordinates assigned)
Cn1c(=O)[n-]c2cc(O[C@H](CCO)C(=O)[N-]S(=O)(=O)c3cccs3)ccc21 (optimized conformer: 103.13717418712955 kcal/mol)

>  <smiles>  (17) 
Cn1c(=O)[nH]c2cc(OC(CCO)C(=O)NS(=O)(=O)c3cccs3)ccc21

>  <score_type>  (17) 
oracle

>  <origin>  (17) 
adg

>  <m_score__min__energy>  (17) 
-11.460000000000001

>  <m_primary>  (17) 
energy

$$$$
17:0
     RDKit          3D

 40 42  0  0  0  0  0  0  0  0999 V2000
   60.1300   30.2620   47.3030 O   0  0  0  0  0  0  0  0  0  0  0  0
   59.1070   30.9220   47.6340 C   0  0  0  0  0  0  0  0  0  0  0  0
   58.5160   30.7260   48.9260 N   0  0  0  0  0  0  0  0  0  0  0  0
   58.5790   31.6180   50.0490 C   0  0  0  0  0  0  0  0  0  0  0  0
   59.2950   32.8290   49.9970 C   0  0  0  0  0  0  0  0  0  0  0  0
   59.3130   33.6850   51.1030 C   0  0  0  0  0  0  0  0  0  0  0  0
   58.6080   33.3490   52.2600 C   0  0  0  0  0  0  0  0  0  0  0  0
   57.8740   32.1620   52.3120 C   0  0  0  0  0  0  0  0  0  0  0  0
   57.8510   31.3020   51.2080 C   0  0  0  0  0  0  0  0  0  0  0  0
   57.1070   30.1300   51.2690 O   0  0  0  0  0  0  0  0  0  0  0  0
   58.5120   31.8830   46.6680 C   0  0  0  0  0  0  0  0  0  0  0  0
   58.5360   33.2570   46.9760 C   0  0  0  0  0  0  0  0  0  0  0  0
   57.9740   34.1940   46.1080 C   0  0  0  0  0  0  0  0  0  0  0  0
   57.3910   33.7780   44.9130 C   0  0  0  0  0  0  0  0  0  0  0  0
   57.3650   32.4230   44.5830 C   0  0  0  0  0  0  0  0  0  0  0  0
   57.9080   31.4610   45.4560 C   0  0  0  0  0  0  0  0  0  0  0  0
   57.9460   30.0750   45.0790 N   0  0  0  0  0  0  0  0  0  0  0  0
   56.9710   29.0730   45.4030 C   0  0  0  0  0  0  0  0  0  0  0  0
   55.7460   29.3160   45.2370 O   0  0  0  0  0  0  0  0  0  0  0  0
   57.4130   27.7750   45.9810 C   0  0  0  0  0  0  0  0  0  0  0  0
   58.7730   27.5830   46.2790 C   0  0  0  0  0  0  0  0  0  0  0  0
   59.2210   26.3830   46.8260 C   0  0  0  0  0  0  0  0  0  0  0  0
   58.3210   25.3500   47.0800 C   0  0  0  0  0  0  0  0  0  0  0  0
   56.9540   25.4990   46.7880 C   0  0  0  0  0  0  0  0  0  0  0  0
   56.0450   24.4100   47.0540 N   0  0  0  0  0  0  0  0  0  0  0  0
   56.3710   23.4920   47.8370 O   0  0  0  0  0  0  0  0  0  0  0  0
   54.8270   24.3260   46.4190 O   0  0  0  0  0  0  0  0  0  0  0  0
   56.5000   26.7240   46.2440 C   0  0  0  0  0  0  0  0  0  0  0  0
   55.1440   26.9040   45.9850 O   0  0  0  0  0  0  0  0  0  0  0  0
   59.8424   33.1031   49.0831 H   0  0  0  0  0  0  0  0  0  0  0  0
   59.8836   34.6245   51.0610 H   0  0  0  0  0  0  0  0  0  0  0  0
   58.6306   34.0197   53.1315 H   0  0  0  0  0  0  0  0  0  0  0  0
   57.3131   31.9026   53.2220 H   0  0  0  0  0  0  0  0  0  0  0  0
   59.0035   33.5957   47.9123 H   0  0  0  0  0  0  0  0  0  0  0  0
   57.9913   35.2628   46.3677 H   0  0  0  0  0  0  0  0  0  0  0  0
   56.9508   34.5187   44.2292 H   0  0  0  0  0  0  0  0  0  0  0  0
   56.9158   32.1028   43.6313 H   0  0  0  0  0  0  0  0  0  0  0  0
   59.4925   28.3904   46.0778 H   0  0  0  0  0  0  0  0  0  0  0  0
   60.2880   26.2504   47.0581 H   0  0  0  0  0  0  0  0  0  0  0  0
   58.6844   24.4069   47.5141 H   0  0  0  0  0  0  0  0  0  0  0  0
  1  2  2  0
  2  3  1  0
  3  4  1  0
  4  5  2  0
  5  6  1  0
  6  7  2  0
  7  8  1  0
  8  9  2  0
  9 10  1  0
  2 11  1  0
 11 12  2  0
 12 13  1  0
 13 14  2  0
 14 15  1  0
 15 16  2  0
 16 17  1  0
 17 18  1  0
 18 19  2  0
 18 20  1  0
 20 21  2  0
 21 22  1  0
 22 23  2  0
 23 24  1  0
 24 25  1  0
 25 26  2  0
 25 27  1  0
 24 28  2  0
 28 29  1  0
  9  4  1  0
 16 11  1  0
 28 20  1  0
  5 30  1  0
  6 31  1  0
  7 32  1  0
  8 33  1  0
 12 34  1  0
 13 35  1  0
 14 36  1  0
 15 37  1  0
 21 38  1  0
 22 39  1  0
 23 40  1  0
M  CHG  6   3  -1  10  -1  17  -1  25   1  27  -1  29  -1
M  END
>  <UniqueID>  (18) 
17

>  <SMILES>  (18) 
O=C([N-]c1ccccc1[O-])c1ccccc1[N-]C(=O)c1cccc([N+](=O)[O-])c1[O-]

>  <Energy>  (18) 
59.511945398686194

>  <Genealogy>  (18) 
O=C([N-]c1ccccc1[O-])c1ccccc1[N-]C(=O)c1cccc([N+](=O)[O-])c1[O-] (protonated)
O=C([N-]c1ccccc1[O-])c1ccccc1[N-]C(=O)c1cccc([N+](=O)[O-])c1[O-] (3D coordinates assigned)
O=C([N-]c1ccccc1[O-])c1ccccc1[N-]C(=O)c1cccc([N+](=O)[O-])c1[O-] (optimized conformer: 59.511945398686194 kcal/mol)

>  <smiles>  (18) 
O=C(Nc1ccccc1O)c1ccccc1NC(=O)c1cccc([N+](=O)[O-])c1O

>  <score_type>  (18) 
oracle

>  <origin>  (18) 
adg

>  <m_score__min__energy>  (18) 
-16.829999999999998

>  <m_primary>  (18) 
energy

$$$$
18:0
     RDKit          3D

 54 55  0  0  0  0  0  0  0  0999 V2000
   58.9820   29.5390   49.0310 C   0  0  0  0  0  0  0  0  0  0  0  0
   59.5420   30.2630   47.9380 O   0  0  0  0  0  0  0  0  0  0  0  0
   60.0760   31.5590   48.0290 C   0  0  0  0  0  0  0  0  0  0  0  0
   59.4230   32.6700   47.4680 C   0  0  0  0  0  0  0  0  0  0  0  0
   59.9850   33.9470   47.5640 C   0  0  0  0  0  0  0  0  0  0  0  0
   59.2630   35.1410   46.9980 C   0  0  0  0  0  0  0  0  0  0  0  0
   59.0400   34.9680   45.4920 C   0  0  0  0  0  0  0  0  0  0  0  0
   57.9140   34.0260   45.1920 C   0  0  0  0  0  0  0  0  0  0  0  0
   56.7370   34.4750   45.1220 O   0  0  0  0  0  0  0  0  0  0  0  0
   58.1770   32.6760   44.9170 O   0  0  0  0  0  0  0  0  0  0  0  0
   57.4700   31.9250   43.9340 C   0  0  0  0  0  0  0  0  0  0  0  0
   57.7010   30.4580   44.1350 C   0  0  0  0  0  0  0  0  0  0  0  0
   57.3600   29.6470   43.2300 O   0  0  0  0  0  0  0  0  0  0  0  0
   58.3620   29.9970   45.3240 N   0  0  0  0  0  0  0  0  0  0  0  0
   58.5570   28.6110   45.6490 C   0  0  0  0  0  0  0  0  0  0  0  0
   59.8460   28.0620   45.7680 C   0  0  0  0  0  0  0  0  0  0  0  0
   60.0060   26.7060   46.0620 C   0  0  0  0  0  0  0  0  0  0  0  0
   58.8880   25.8860   46.2330 C   0  0  0  0  0  0  0  0  0  0  0  0
   57.5990   26.4170   46.0970 C   0  0  0  0  0  0  0  0  0  0  0  0
   56.1830   25.3880   46.2710 S   0  0  0  0  0  0  0  0  0  0  0  0
   54.7570   26.3220   45.9880 N   0  0  0  0  0  0  0  0  0  0  0  0
   56.1430   24.8200   47.6620 O   0  0  0  0  0  0  0  0  0  0  0  0
   56.2390   24.2540   45.2860 O   0  0  0  0  0  0  0  0  0  0  0  0
   57.4400   27.7760   45.7960 C   0  0  0  0  0  0  0  0  0  0  0  0
   61.1930   34.1190   48.2490 C   0  0  0  0  0  0  0  0  0  0  0  0
   61.8620   33.0220   48.8250 C   0  0  0  0  0  0  0  0  0  0  0  0
   63.0710   33.2000   49.5160 O   0  0  0  0  0  0  0  0  0  0  0  0
   64.3460   32.7590   49.0600 C   0  0  0  0  0  0  0  0  0  0  0  0
   61.2950   31.7260   48.7070 C   0  0  0  0  0  0  0  0  0  0  0  0
   61.8850   30.5640   49.2400 O   0  0  0  0  0  0  0  0  0  0  0  0
   62.1620   30.3040   50.6120 C   0  0  0  0  0  0  0  0  0  0  0  0
   59.3244   29.9817   49.9780 H   0  0  0  0  0  0  0  0  0  0  0  0
   57.8843   29.5878   48.9792 H   0  0  0  0  0  0  0  0  0  0  0  0
   59.3052   28.4888   48.9792 H   0  0  0  0  0  0  0  0  0  0  0  0
   58.4625   32.5340   46.9494 H   0  0  0  0  0  0  0  0  0  0  0  0
   58.2891   35.2461   47.4986 H   0  0  0  0  0  0  0  0  0  0  0  0
   59.8745   36.0397   47.1665 H   0  0  0  0  0  0  0  0  0  0  0  0
   58.8075   35.9495   45.0531 H   0  0  0  0  0  0  0  0  0  0  0  0
   59.9590   34.5446   45.0606 H   0  0  0  0  0  0  0  0  0  0  0  0
   56.3942   32.1380   44.0190 H   0  0  0  0  0  0  0  0  0  0  0  0
   57.8329   32.2110   42.9357 H   0  0  0  0  0  0  0  0  0  0  0  0
   58.8310   30.7110   45.9260 H   0  0  0  0  0  0  0  0  0  0  0  0
   60.7301   28.7017   45.6293 H   0  0  0  0  0  0  0  0  0  0  0  0
   61.0163   26.2820   46.1593 H   0  0  0  0  0  0  0  0  0  0  0  0
   59.0202   24.8211   46.4750 H   0  0  0  0  0  0  0  0  0  0  0  0
   54.7370   27.0740   46.7130 H   0  0  0  0  0  0  0  0  0  0  0  0
   56.4291   28.1921   45.6738 H   0  0  0  0  0  0  0  0  0  0  0  0
   61.6264   35.1260   48.3388 H   0  0  0  0  0  0  0  0  0  0  0  0
   64.9881   32.5369   49.9251 H   0  0  0  0  0  0  0  0  0  0  0  0
   64.2238   31.8509   48.4513 H   0  0  0  0  0  0  0  0  0  0  0  0
   64.8110   33.5485   48.4513 H   0  0  0  0  0  0  0  0  0  0  0  0
   61.5046   30.9211   51.2421 H   0  0  0  0  0  0  0  0  0  0  0  0
   61.9831   29.2402   50.8270 H   0  0  0  0  0  0  0  0  0  0  0  0
   63.2124   30.5499   50.8270 H   0  0  0  0  0  0  0  0  0  0  0  0
  1  2  1  0
  2  3  1  0
  3  4  2  0
  4  5  1  0
  5  6  1  0
  6  7  1  0
  7  8  1  0
  8  9  2  0
  8 10  1  0
 10 11  1  0
 11 12  1  0
 12 13  2  0
 12 14  1  0
 14 15  1  0
 15 16  2  0
 16 17  1  0
 17 18  2  0
 18 19  1  0
 19 20  1  0
 20 21  1  0
 20 22  2  0
 20 23  2  0
 19 24  2  0
  5 25  2  0
 25 26  1  0
 26 27  1  0
 27 28  1  0
 26 29  2  0
 29 30  1  0
 30 31  1  0
 29  3  1  0
 24 15  1  0
  1 32  1  0
  1 33  1  0
  1 34  1  0
  4 35  1  0
  6 36  1  0
  6 37  1  0
  7 38  1  0
  7 39  1  0
 11 40  1  0
 11 41  1  0
 14 42  1  0
 16 43  1  0
 17 44  1  0
 18 45  1  0
 21 46  1  0
 24 47  1  0
 25 48  1  0
 28 49  1  0
 28 50  1  0
 28 51  1  0
 31 52  1  0
 31 53  1  0
 31 54  1  0
M  CHG  1  21  -1
M  END
>  <UniqueID>  (19) 
18

>  <SMILES>  (19) 
COc1cc(CCC(=O)OCC(=O)Nc2cccc(S([NH-])(=O)=O)c2)cc(OC)c1OC

>  <Energy>  (19) 
52.531145343324035

>  <Genealogy>  (19) 
COc1cc(CCC(=O)OCC(=O)Nc2cccc(S([NH-])(=O)=O)c2)cc(OC)c1OC (protonated)
COc1cc(CCC(=O)OCC(=O)Nc2cccc(S([NH-])(=O)=O)c2)cc(OC)c1OC (3D coordinates assigned)
COc1cc(CCC(=O)OCC(=O)Nc2cccc(S([NH-])(=O)=O)c2)cc(OC)c1OC (optimized conformer: 52.531145343324035 kcal/mol)

>  <smiles>  (19) 
COc1cc(CCC(=O)OCC(=O)Nc2cccc(S(N)(=O)=O)c2)cc(OC)c1OC

>  <score_type>  (19) 
oracle

>  <origin>  (19) 
adg

>  <m_score__min__energy>  (19) 
-10.77

>  <m_primary>  (19) 
energy

$$$$
19:0
     RDKit          3D

 37 38  0  0  0  0  0  0  0  0999 V2000
   55.1590   29.3410   44.8630 N   0  0  0  0  0  0  0  0  0  0  0  0
   56.6140   30.0550   44.2660 S   0  0  0  0  0  0  0  0  0  0  0  0
   56.5920   31.5340   44.5320 O   0  0  0  0  0  0  0  0  0  0  0  0
   56.7080   29.8350   42.7820 O   0  0  0  0  0  0  0  0  0  0  0  0
   58.0010   29.3280   45.0710 C   0  0  0  0  0  0  0  0  0  0  0  0
   58.1970   27.9420   45.0260 C   0  0  0  0  0  0  0  0  0  0  0  0
   59.2830   27.3660   45.6900 C   0  0  0  0  0  0  0  0  0  0  0  0
   60.1790   28.1700   46.3980 C   0  0  0  0  0  0  0  0  0  0  0  0
   60.0050   29.5610   46.4390 C   0  0  0  0  0  0  0  0  0  0  0  0
   60.9290   30.3640   47.1910 N   0  0  0  0  0  0  0  0  0  0  0  0
   61.1780   30.1970   48.5960 C   0  0  0  0  0  0  0  0  0  0  0  0
   60.5450   29.3330   49.2630 O   0  0  0  0  0  0  0  0  0  0  0  0
   62.1250   31.1140   49.3080 C   0  0  0  0  0  0  0  0  0  0  0  0
   62.5140   32.2080   48.4250 N   0  0  0  0  0  0  0  0  0  0  0  0
   61.5900   33.1630   47.9000 C   0  0  0  0  0  0  0  0  0  0  0  0
   61.3110   34.2060   48.5530 O   0  0  0  0  0  0  0  0  0  0  0  0
   60.9820   32.9160   46.6650 O   0  0  0  0  0  0  0  0  0  0  0  0
   59.6890   33.3450   46.3380 C   0  0  0  0  0  0  0  0  0  0  0  0
   59.5110   34.0890   45.1650 C   0  0  0  0  0  0  0  0  0  0  0  0
   58.2380   34.5320   44.7950 C   0  0  0  0  0  0  0  0  0  0  0  0
   57.1350   34.2450   45.6040 C   0  0  0  0  0  0  0  0  0  0  0  0
   57.3050   33.5250   46.7880 C   0  0  0  0  0  0  0  0  0  0  0  0
   58.5770   33.0770   47.1670 C   0  0  0  0  0  0  0  0  0  0  0  0
   58.7510   32.2680   48.7210 Cl  0  0  0  0  0  0  0  0  0  0  0  0
   58.8970   30.1340   45.7880 C   0  0  0  0  0  0  0  0  0  0  0  0
   55.4360   28.6620   45.6070 H   0  0  0  0  0  0  0  0  0  0  0  0
   57.4949   27.3059   44.4670 H   0  0  0  0  0  0  0  0  0  0  0  0
   59.4326   26.2768   45.6551 H   0  0  0  0  0  0  0  0  0  0  0  0
   61.0265   27.7094   46.9268 H   0  0  0  0  0  0  0  0  0  0  0  0
   61.3420   31.1990   46.7170 H   0  0  0  0  0  0  0  0  0  0  0  0
   61.6328   31.5242   50.2021 H   0  0  0  0  0  0  0  0  0  0  0  0
   63.0221   30.5502   49.6035 H   0  0  0  0  0  0  0  0  0  0  0  0
   60.3781   34.3262   44.5311 H   0  0  0  0  0  0  0  0  0  0  0  0
   58.1042   35.1068   43.8667 H   0  0  0  0  0  0  0  0  0  0  0  0
   56.1323   34.5866   45.3076 H   0  0  0  0  0  0  0  0  0  0  0  0
   56.4358   33.3084   47.4264 H   0  0  0  0  0  0  0  0  0  0  0  0
   58.7327   31.2203   45.8418 H   0  0  0  0  0  0  0  0  0  0  0  0
  1  2  1  0
  2  3  2  0
  2  4  2  0
  2  5  1  0
  5  6  2  0
  6  7  1  0
  7  8  2  0
  8  9  1  0
  9 10  1  0
 10 11  1  0
 11 12  2  0
 11 13  1  0
 13 14  1  0
 14 15  1  0
 15 16  2  0
 15 17  1  0
 17 18  1  0
 18 19  2  0
 19 20  1  0
 20 21  2  0
 21 22  1  0
 22 23  2  0
 23 24  1  0
  9 25  2  0
 25  5  1  0
 23 18  1  0
  1 26  1  0
  6 27  1  0
  7 28  1  0
  8 29  1  0
 10 30  1  0
 13 31  1  0
 13 32  1  0
 19 33  1  0
 20 34  1  0
 21 35  1  0
 22 36  1  0
 25 37  1  0
M  CHG  2   1  -1  14  -1
M  END
>  <UniqueID>  (20) 
19

>  <SMILES>  (20) 
[NH-]S(=O)(=O)c1cccc(NC(=O)C[N-]C(=O)Oc2ccccc2Cl)c1

>  <Energy>  (20) 
44.245667470033695

>  <Genealogy>  (20) 
[NH-]S(=O)(=O)c1cccc(NC(=O)C[N-]C(=O)Oc2ccccc2Cl)c1 (protonated)
[NH-]S(=O)(=O)c1cccc(NC(=O)C[N-]C(=O)Oc2ccccc2Cl)c1 (3D coordinates assigned)
[NH-]S(=O)(=O)c1cccc(NC(=O)C[N-]C(=O)Oc2ccccc2Cl)c1 (optimized conformer: 44.245667470033695 kcal/mol)

>  <smiles>  (20) 
NS(=O)(=O)c1cccc(NC(=O)CNC(=O)Oc2ccccc2Cl)c1

>  <score_type>  (20) 
oracle

>  <origin>  (20) 
adg

>  <m_score__min__energy>  (20) 
-11.949999999999999

>  <m_primary>  (20) 
energy

$$$$
20:0
     RDKit          3D

 43 45  0  0  0  0  0  0  0  0999 V2000
   55.4520   30.1360   44.8290 O   0  0  0  0  0  0  0  0  0  0  0  0
   56.6220   29.7050   45.0220 C   0  0  0  0  0  0  0  0  0  0  0  0
   57.0470   28.4150   44.3950 C   0  0  0  0  0  0  0  0  0  0  0  0
   57.4560   27.4280   45.4570 C   0  0  0  0  0  0  0  0  0  0  0  0
   58.8070   27.3280   45.8390 C   0  0  0  0  0  0  0  0  0  0  0  0
   59.1950   26.4270   46.8350 C   0  0  0  0  0  0  0  0  0  0  0  0
   58.2400   25.6280   47.4690 C   0  0  0  0  0  0  0  0  0  0  0  0
   56.8930   25.7320   47.1100 C   0  0  0  0  0  0  0  0  0  0  0  0
   56.4960   26.6280   46.1100 C   0  0  0  0  0  0  0  0  0  0  0  0
   55.1490   26.7170   45.7730 O   0  0  0  0  0  0  0  0  0  0  0  0
   57.5580   30.4540   45.8080 N   0  0  0  0  0  0  0  0  0  0  0  0
   57.9170   31.8280   45.5990 C   0  0  0  0  0  0  0  0  0  0  0  0
   56.9900   32.7540   45.0880 C   0  0  0  0  0  0  0  0  0  0  0  0
   57.3550   34.0900   44.9080 C   0  0  0  0  0  0  0  0  0  0  0  0
   58.6380   34.5150   45.2470 C   0  0  0  0  0  0  0  0  0  0  0  0
   59.5590   33.6090   45.7780 C   0  0  0  0  0  0  0  0  0  0  0  0
   59.2030   32.2620   45.9680 C   0  0  0  0  0  0  0  0  0  0  0  0
   60.1250   31.3080   46.5180 N   0  0  0  0  0  0  0  0  0  0  0  0
   61.1150   31.5600   47.9180 S   0  0  0  0  0  0  0  0  0  0  0  0
   62.1360   32.6210   47.6150 O   0  0  0  0  0  0  0  0  0  0  0  0
   61.8320   30.2810   48.2500 O   0  0  0  0  0  0  0  0  0  0  0  0
   60.1090   32.0200   49.2920 C   0  0  0  0  0  0  0  0  0  0  0  0
   60.5050   33.0680   50.1380 C   0  0  0  0  0  0  0  0  0  0  0  0
   59.7110   33.4350   51.2280 C   0  0  0  0  0  0  0  0  0  0  0  0
   58.5180   32.7590   51.4820 C   0  0  0  0  0  0  0  0  0  0  0  0
   58.1150   31.7140   50.6460 C   0  0  0  0  0  0  0  0  0  0  0  0
   58.9070   31.3390   49.5510 C   0  0  0  0  0  0  0  0  0  0  0  0
   58.5030   30.2910   48.7230 O   0  0  0  0  0  0  0  0  0  0  0  0
   56.2089   27.9992   43.8164 H   0  0  0  0  0  0  0  0  0  0  0  0
   57.9046   28.6042   43.7327 H   0  0  0  0  0  0  0  0  0  0  0  0
   59.5617   27.9623   45.3511 H   0  0  0  0  0  0  0  0  0  0  0  0
   60.2544   26.3469   47.1202 H   0  0  0  0  0  0  0  0  0  0  0  0
   58.5480   24.9175   48.2502 H   0  0  0  0  0  0  0  0  0  0  0  0
   56.1417   25.1073   47.6153 H   0  0  0  0  0  0  0  0  0  0  0  0
   55.9730   32.4245   44.8290 H   0  0  0  0  0  0  0  0  0  0  0  0
   56.6289   34.8075   44.4982 H   0  0  0  0  0  0  0  0  0  0  0  0
   58.9260   35.5659   45.0962 H   0  0  0  0  0  0  0  0  0  0  0  0
   60.5686   33.9512   46.0491 H   0  0  0  0  0  0  0  0  0  0  0  0
   61.4457   33.6034   49.9418 H   0  0  0  0  0  0  0  0  0  0  0  0
   60.0273   34.2577   51.8861 H   0  0  0  0  0  0  0  0  0  0  0  0
   57.8940   33.0483   52.3405 H   0  0  0  0  0  0  0  0  0  0  0  0
   57.1727   31.1835   50.8477 H   0  0  0  0  0  0  0  0  0  0  0  0
   58.6030   30.3450   47.7160 H   0  0  0  0  0  0  0  0  0  0  0  0
  1  2  2  0
  2  3  1  0
  3  4  1  0
  4  5  2  0
  5  6  1  0
  6  7  2  0
  7  8  1  0
  8  9  2  0
  9 10  1  0
  2 11  1  0
 11 12  1  0
 12 13  2  0
 13 14  1  0
 14 15  2  0
 15 16  1  0
 16 17  2  0
 17 18  1  0
 18 19  1  0
 19 20  2  0
 19 21  2  0
 19 22  1  0
 22 23  2  0
 23 24  1  0
 24 25  2  0
 25 26  1  0
 26 27  2  0
 27 28  1  0
  9  4  1  0
 17 12  1  0
 27 22  1  0
  3 29  1  0
  3 30  1  0
  5 31  1  0
  6 32  1  0
  7 33  1  0
  8 34  1  0
 13 35  1  0
 14 36  1  0
 15 37  1  0
 16 38  1  0
 23 39  1  0
 24 40  1  0
 25 41  1  0
 26 42  1  0
 28 43  1  0
M  CHG  3  10  -1  11  -1  18  -1
M  END
>  <UniqueID>  (21) 
20

>  <SMILES>  (21) 
O=C(Cc1ccccc1[O-])[N-]c1ccccc1[N-]S(=O)(=O)c1ccccc1O

>  <Energy>  (21) 
51.97329778377464

>  <Genealogy>  (21) 
O=C(Cc1ccccc1[O-])[N-]c1ccccc1[N-]S(=O)(=O)c1ccccc1O (protonated)
O=C(Cc1ccccc1[O-])[N-]c1ccccc1[N-]S(=O)(=O)c1ccccc1O (3D coordinates assigned)
O=C(Cc1ccccc1[O-])[N-]c1ccccc1[N-]S(=O)(=O)c1ccccc1O (optimized conformer: 51.97329778377464 kcal/mol)

>  <smiles>  (21) 
O=C(Cc1ccccc1O)Nc1ccccc1NS(=O)(=O)c1ccccc1O

>  <score_type>  (21) 
oracle

>  <origin>  (21) 
adg

>  <m_score__min__energy>  (21) 
-14.1

>  <m_primary>  (21) 
energy

$$$$
21:0
     RDKit          3D

 53 56  0  0  0  0  0  0  0  0999 V2000
   54.6581   31.1510   53.5895 H   0  0  0  0  0  0  0  0  0  0  0  0
   55.1410   30.5010   52.8450 C   0  0  0  0  0  0  0  0  0  0  0  0
   56.6150   30.3930   52.8540 C   0  0  0  0  0  0  0  0  0  0  0  0
   57.1340   29.3730   53.3820 O   0  0  0  0  0  0  0  0  0  0  0  0
   57.5050   31.4340   52.2910 C   0  0  0  0  0  0  0  0  0  0  0  0
   57.6760   32.6290   53.0110 C   0  0  0  0  0  0  0  0  0  0  0  0
   57.2003   32.7453   53.9960 H   0  0  0  0  0  0  0  0  0  0  0  0
   58.4450   33.6700   52.4860 C   0  0  0  0  0  0  0  0  0  0  0  0
   58.5870   34.8230   53.1850 F   0  0  0  0  0  0  0  0  0  0  0  0
   59.0510   33.5310   51.2360 C   0  0  0  0  0  0  0  0  0  0  0  0
   59.7870   34.5480   50.7230 F   0  0  0  0  0  0  0  0  0  0  0  0
   58.9100   32.3410   50.5180 C   0  0  0  0  0  0  0  0  0  0  0  0
   59.5240   32.2060   49.3150 F   0  0  0  0  0  0  0  0  0  0  0  0
   58.1670   31.2760   51.0480 C   0  0  0  0  0  0  0  0  0  0  0  0
   58.1050   30.0540   50.3040 N   0  0  0  0  0  0  0  0  0  0  0  0
   59.5100   29.2310   49.7070 S   0  0  0  0  0  0  0  0  0  0  0  0
   60.6680   30.1880   49.6650 O   0  0  0  0  0  0  0  0  0  0  0  0
   59.8400   28.0790   50.6120 O   0  0  0  0  0  0  0  0  0  0  0  0
   59.2030   28.6370   48.0790 C   0  0  0  0  0  0  0  0  0  0  0  0
   58.4850   29.4290   47.1720 C   0  0  0  0  0  0  0  0  0  0  0  0
   58.1221   30.4213   47.4779 H   0  0  0  0  0  0  0  0  0  0  0  0
   58.2290   28.9610   45.8800 C   0  0  0  0  0  0  0  0  0  0  0  0
   57.6639   29.5845   45.1716 H   0  0  0  0  0  0  0  0  0  0  0  0
   58.6910   27.7000   45.4870 C   0  0  0  0  0  0  0  0  0  0  0  0
   58.3520   27.0930   43.8350 S   0  0  0  0  0  0  0  0  0  0  0  0
   57.3720   25.7190   44.4420 C   0  0  0  0  0  0  0  0  0  0  0  0
   57.3560   24.5050   43.7420 C   0  0  0  0  0  0  0  0  0  0  0  0
   57.9396   24.3962   42.8159 H   0  0  0  0  0  0  0  0  0  0  0  0
   56.5980   23.4320   44.2210 C   0  0  0  0  0  0  0  0  0  0  0  0
   56.5879   22.4784   43.6728 H   0  0  0  0  0  0  0  0  0  0  0  0
   55.8530   23.5700   45.3960 C   0  0  0  0  0  0  0  0  0  0  0  0
   55.2576   22.7251   45.7723 H   0  0  0  0  0  0  0  0  0  0  0  0
   55.8650   24.7830   46.0930 C   0  0  0  0  0  0  0  0  0  0  0  0
   55.2780   24.8917   47.0169 H   0  0  0  0  0  0  0  0  0  0  0  0
   56.6230   25.8580   45.6160 C   0  0  0  0  0  0  0  0  0  0  0  0
   56.6302   26.8120   46.1635 H   0  0  0  0  0  0  0  0  0  0  0  0
   59.4220   26.9140   46.3850 C   0  0  0  0  0  0  0  0  0  0  0  0
   59.7965   25.9279   46.0729 H   0  0  0  0  0  0  0  0  0  0  0  0
   59.6770   27.3800   47.6780 C   0  0  0  0  0  0  0  0  0  0  0  0
   60.2506   26.7593   48.3821 H   0  0  0  0  0  0  0  0  0  0  0  0
   54.3650   29.8430   51.9710 C   0  0  0  0  0  0  0  0  0  0  0  0
   54.5777   28.7800   51.7847 H   0  0  0  0  0  0  0  0  0  0  0  0
   53.2360   30.4700   51.2420 C   0  0  0  0  0  0  0  0  0  0  0  0
   52.7180   29.9360   50.0450 C   0  0  0  0  0  0  0  0  0  0  0  0
   53.1544   29.0198   49.6206 H   0  0  0  0  0  0  0  0  0  0  0  0
   51.6520   30.5650   49.3940 C   0  0  0  0  0  0  0  0  0  0  0  0
   51.2585   30.1461   48.4561 H   0  0  0  0  0  0  0  0  0  0  0  0
   51.0850   31.7240   49.9310 C   0  0  0  0  0  0  0  0  0  0  0  0
   50.0280   32.3450   49.2760 O   0  0  0  0  0  0  0  0  0  0  0  0
   51.5810   32.2530   51.1280 C   0  0  0  0  0  0  0  0  0  0  0  0
   51.0190   33.4040   51.6680 O   0  0  0  0  0  0  0  0  0  0  0  0
   52.6460   31.6260   51.7820 C   0  0  0  0  0  0  0  0  0  0  0  0
   53.0255   32.0410   52.7274 H   0  0  0  0  0  0  0  0  0  0  0  0
  1  2  1  0
  2  3  1  0
  3  4  2  0
  3  5  1  0
  5  6  2  0
  6  7  1  0
  6  8  1  0
  8  9  1  0
  8 10  2  0
 10 11  1  0
 10 12  1  0
 12 13  1  0
 12 14  2  0
 14 15  1  0
 15 16  1  0
 16 17  2  0
 16 18  2  0
 16 19  1  0
 19 20  2  0
 20 21  1  0
 20 22  1  0
 22 23  1  0
 22 24  2  0
 24 25  1  0
 25 26  1  0
 26 27  2  0
 27 28  1  0
 27 29  1  0
 29 30  1  0
 29 31  2  0
 31 32  1  0
 31 33  1  0
 33 34  1  0
 33 35  2  0
 35 36  1  0
 24 37  1  0
 37 38  1  0
 37 39  2  0
 39 40  1  0
  2 41  2  0
 41 42  1  0
 41 43  1  0
 43 44  2  0
 44 45  1  0
 44 46  1  0
 46 47  1  0
 46 48  2  0
 48 49  1  0
 48 50  1  0
 50 51  1  0
 50 52  2  0
 52 53  1  0
 14  5  1  0
 39 19  1  0
 52 43  1  0
 35 26  1  0
M  CHG  3  15  -1  49  -1  51  -1
M  END
>  <UniqueID>  (22) 
21

>  <SMILES>  (22) 
O=C(/C=C/c1ccc([O-])c([O-])c1)c1cc(F)c(F)c(F)c1[N-]S(=O)(=O)c1ccc(Sc2ccccc2)cc1

>  <Energy>  (22) 
71.50847142911158

>  <Genealogy>  (22) 
O=C(C=Cc1ccc([O-])c([O-])c1)c1cc(F)c(F)c(F)c1[N-]S(=O)(=O)c1ccc(Sc2ccccc2)cc1 (protonated)
O=C(/C=C/c1ccc([O-])c([O-])c1)c1cc(F)c(F)c(F)c1[N-]S(=O)(=O)c1ccc(Sc2ccccc2)cc1 (cis-trans isomerization)
O=C(/C=C/c1ccc([O-])c([O-])c1)c1cc(F)c(F)c(F)c1[N-]S(=O)(=O)c1ccc(Sc2ccccc2)cc1 (3D coordinates assigned)
O=C(/C=C/c1ccc([O-])c([O-])c1)c1cc(F)c(F)c(F)c1[N-]S(=O)(=O)c1ccc(Sc2ccccc2)cc1 (optimized conformer: 71.50847142911158 kcal/mol)

>  <smiles>  (22) 
O=C(C=Cc1ccc(O)c(O)c1)c1cc(F)c(F)c(F)c1NS(=O)(=O)c1ccc(Sc2ccccc2)cc1

>  <score_type>  (22) 
oracle

>  <origin>  (22) 
adg

>  <m_score__min__energy>  (22) 
-19.68

>  <m_primary>  (22) 
energy

$$$$
22:0
     RDKit          3D

 35 37  0  0  0  0  0  0  0  0999 V2000
   56.0870   28.2270   45.2310 N   0  0  0  0  0  0  0  0  0  0  0  0
   57.1900   27.0300   45.8130 S   0  0  0  0  0  0  0  0  0  0  0  0
   57.7420   26.2470   44.6540 O   0  0  0  0  0  0  0  0  0  0  0  0
   56.4640   26.0860   46.7300 O   0  0  0  0  0  0  0  0  0  0  0  0
   58.5100   27.8150   46.6740 C   0  0  0  0  0  0  0  0  0  0  0  0
   59.0000   27.2780   47.8720 C   0  0  0  0  0  0  0  0  0  0  0  0
   60.0510   27.9090   48.5460 C   0  0  0  0  0  0  0  0  0  0  0  0
   60.6040   29.0860   48.0350 C   0  0  0  0  0  0  0  0  0  0  0  0
   60.0950   29.6540   46.8600 C   0  0  0  0  0  0  0  0  0  0  0  0
   60.6810   30.8600   46.3580 N   0  0  0  0  0  0  0  0  0  0  0  0
   60.8520   32.0830   47.0870 C   0  0  0  0  0  0  0  0  0  0  0  0
   61.9280   32.7220   46.9500 O   0  0  0  0  0  0  0  0  0  0  0  0
   59.8240   32.5880   48.0640 C   0  0  0  0  0  0  0  0  0  0  0  0
   58.8830   33.9990   47.3830 S   0  0  0  0  0  0  0  0  0  0  0  0
   58.2570   33.0860   45.9740 C   0  0  0  0  0  0  0  0  0  0  0  0
   58.5740   33.4120   44.6930 N   0  0  0  0  0  0  0  0  0  0  0  0
   57.8980   32.4910   43.9930 C   0  0  0  0  0  0  0  0  0  0  0  0
   57.8370   32.3250   42.6130 C   0  0  0  0  0  0  0  0  0  0  0  0
   57.0450   31.2680   42.1290 C   0  0  0  0  0  0  0  0  0  0  0  0
   56.3570   30.4310   43.0390 C   0  0  0  0  0  0  0  0  0  0  0  0
   56.4550   30.6440   44.3870 N   0  0  0  0  0  0  0  0  0  0  0  0
   57.2240   31.6680   44.8330 C   0  0  0  0  0  0  0  0  0  0  0  0
   57.4300   32.0160   46.1090 N   0  0  0  0  0  0  0  0  0  0  0  0
   59.0650   28.9980   46.1670 C   0  0  0  0  0  0  0  0  0  0  0  0
   55.1500   27.7720   45.1670 H   0  0  0  0  0  0  0  0  0  0  0  0
   56.3770   28.4580   44.2540 H   0  0  0  0  0  0  0  0  0  0  0  0
   58.5575   26.3587   48.2832 H   0  0  0  0  0  0  0  0  0  0  0  0
   60.4425   27.4781   49.4793 H   0  0  0  0  0  0  0  0  0  0  0  0
   61.4428   29.5688   48.5577 H   0  0  0  0  0  0  0  0  0  0  0  0
   59.1242   31.7725   48.2989 H   0  0  0  0  0  0  0  0  0  0  0  0
   60.3483   32.9293   48.9688 H   0  0  0  0  0  0  0  0  0  0  0  0
   58.3843   32.9914   41.9301 H   0  0  0  0  0  0  0  0  0  0  0  0
   56.9608   31.0927   41.0463 H   0  0  0  0  0  0  0  0  0  0  0  0
   55.7392   29.6035   42.6602 H   0  0  0  0  0  0  0  0  0  0  0  0
   58.6913   29.4151   45.2202 H   0  0  0  0  0  0  0  0  0  0  0  0
  1  2  1  0
  2  3  2  0
  2  4  2  0
  2  5  1  0
  5  6  2  0
  6  7  1  0
  7  8  2  0
  8  9  1  0
  9 10  1  0
 10 11  1  0
 11 12  2  0
 11 13  1  0
 13 14  1  0
 14 15  1  0
 15 16  2  0
 16 17  1  0
 17 18  2  0
 18 19  1  0
 19 20  2  0
 20 21  1  0
 21 22  2  0
 22 23  1  0
  9 24  2  0
 24  5  1  0
 23 15  1  0
 22 17  1  0
  1 25  1  0
  1 26  1  0
  6 27  1  0
  7 28  1  0
  8 29  1  0
 13 30  1  0
 13 31  1  0
 18 32  1  0
 19 33  1  0
 20 34  1  0
 24 35  1  0
M  CHG  2  10  -1  23  -1
M  END
>  <UniqueID>  (23) 
22

>  <SMILES>  (23) 
NS(=O)(=O)c1cccc([N-]C(=O)CSc2nc3cccnc3[n-]2)c1

>  <Energy>  (23) 
73.87955503180123

>  <Genealogy>  (23) 
NS(=O)(=O)c1cccc([N-]C(=O)CSc2nc3cccnc3[n-]2)c1 (protonated)
NS(=O)(=O)c1cccc([N-]C(=O)CSc2nc3cccnc3[n-]2)c1 (3D coordinates assigned)
NS(=O)(=O)c1cccc([N-]C(=O)CSc2nc3cccnc3[n-]2)c1 (optimized conformer: 73.87955503180123 kcal/mol)

>  <smiles>  (23) 
NS(=O)(=O)c1cccc(NC(=O)CSc2nc3cccnc3[nH]2)c1

>  <score_type>  (23) 
oracle

>  <origin>  (23) 
adg

>  <m_score__min__energy>  (23) 
-11.380000000000001

>  <m_primary>  (23) 
energy

$$$$
23:0
     RDKit          3D

 60 63  0  0  0  0  0  0  0  0999 V2000
   60.7590   30.0460   46.7710 C   0  0  0  0  0  0  0  0  0  0  0  0
   59.9480   29.1900   45.8060 C   0  0  0  0  0  0  0  0  0  0  0  0
   58.6190   29.8350   45.4960 C   0  0  0  0  0  0  0  0  0  0  0  0
   58.5760   31.1920   45.3950 N   0  0  0  0  0  0  0  0  0  0  0  0
   57.4360   31.8430   45.0540 C   0  0  0  0  0  0  0  0  0  0  0  0
   57.4220   33.6300   44.9460 S   0  0  0  0  0  0  0  0  0  0  0  0
   57.7470   33.8880   46.7230 C   0  0  0  0  0  0  0  0  0  0  0  0
   59.2080   33.6990   47.0270 C   0  0  0  0  0  0  0  0  0  0  0  0
   60.1880   34.0980   46.1050 C   0  0  0  0  0  0  0  0  0  0  0  0
   61.5410   33.9100   46.3930 C   0  0  0  0  0  0  0  0  0  0  0  0
   61.9290   33.3060   47.5920 C   0  0  0  0  0  0  0  0  0  0  0  0
   60.9620   32.8880   48.5240 C   0  0  0  0  0  0  0  0  0  0  0  0
   61.3710   32.2270   49.7840 C   0  0  0  0  0  0  0  0  0  0  0  0
   61.3230   30.9690   49.8850 O   0  0  0  0  0  0  0  0  0  0  0  0
   61.8060   33.0140   50.9020 N   0  0  0  0  0  0  0  0  0  0  0  0
   60.9750   33.2860   52.0700 C   0  0  0  0  0  0  0  0  0  0  0  0
   59.7380   32.4300   52.0440 C   0  0  0  0  0  0  0  0  0  0  0  0
   58.4910   32.9800   51.7040 C   0  0  0  0  0  0  0  0  0  0  0  0
   57.3440   32.1800   51.7070 C   0  0  0  0  0  0  0  0  0  0  0  0
   57.4230   30.8240   52.0420 C   0  0  0  0  0  0  0  0  0  0  0  0
   56.2410   30.0660   52.0320 O   0  0  0  0  0  0  0  0  0  0  0  0
   54.9310   30.6220   52.0080 C   0  0  0  0  0  0  0  0  0  0  0  0
   58.6740   30.2700   52.3730 C   0  0  0  0  0  0  0  0  0  0  0  0
   59.8210   31.0680   52.3730 C   0  0  0  0  0  0  0  0  0  0  0  0
   59.5990   33.0930   48.2320 C   0  0  0  0  0  0  0  0  0  0  0  0
   56.3030   31.1420   44.7970 N   0  0  0  0  0  0  0  0  0  0  0  0
   56.2840   29.7870   44.8710 C   0  0  0  0  0  0  0  0  0  0  0  0
   55.2110   29.1710   44.6220 O   0  0  0  0  0  0  0  0  0  0  0  0
   57.4490   29.0830   45.2250 C   0  0  0  0  0  0  0  0  0  0  0  0
   57.4270   27.6030   45.3010 C   0  0  0  0  0  0  0  0  0  0  0  0
   57.0970   26.9630   46.5070 C   0  0  0  0  0  0  0  0  0  0  0  0
   57.0980   25.5660   46.5850 C   0  0  0  0  0  0  0  0  0  0  0  0
   57.4320   24.8030   45.4630 C   0  0  0  0  0  0  0  0  0  0  0  0
   57.7760   25.4340   44.2640 C   0  0  0  0  0  0  0  0  0  0  0  0
   57.7820   26.8300   44.1830 C   0  0  0  0  0  0  0  0  0  0  0  0
   60.5024   29.7752   47.8058 H   0  0  0  0  0  0  0  0  0  0  0  0
   61.8320   29.8727   46.6019 H   0  0  0  0  0  0  0  0  0  0  0  0
   60.5280   31.1081   46.6019 H   0  0  0  0  0  0  0  0  0  0  0  0
   60.5147   29.0667   44.8713 H   0  0  0  0  0  0  0  0  0  0  0  0
   59.7620   28.2130   46.2759 H   0  0  0  0  0  0  0  0  0  0  0  0
   57.4493   34.9100   47.0003 H   0  0  0  0  0  0  0  0  0  0  0  0
   57.1668   33.1529   47.3000 H   0  0  0  0  0  0  0  0  0  0  0  0
   59.8891   34.5602   45.1526 H   0  0  0  0  0  0  0  0  0  0  0  0
   62.3050   34.2387   45.6731 H   0  0  0  0  0  0  0  0  0  0  0  0
   62.9971   33.1566   47.8082 H   0  0  0  0  0  0  0  0  0  0  0  0
   61.5489   33.0661   52.9823 H   0  0  0  0  0  0  0  0  0  0  0  0
   60.6768   34.3447   52.0572 H   0  0  0  0  0  0  0  0  0  0  0  0
   58.4164   34.0438   51.4344 H   0  0  0  0  0  0  0  0  0  0  0  0
   56.3712   32.6208   51.4437 H   0  0  0  0  0  0  0  0  0  0  0  0
   54.5774   30.7721   53.0388 H   0  0  0  0  0  0  0  0  0  0  0  0
   54.9525   31.5886   51.4833 H   0  0  0  0  0  0  0  0  0  0  0  0
   54.2507   29.9351   51.4833 H   0  0  0  0  0  0  0  0  0  0  0  0
   58.7490   29.2038   52.6329 H   0  0  0  0  0  0  0  0  0  0  0  0
   60.7945   30.6263   52.6323 H   0  0  0  0  0  0  0  0  0  0  0  0
   58.8334   32.7752   48.9551 H   0  0  0  0  0  0  0  0  0  0  0  0
   56.8371   27.5617   47.3925 H   0  0  0  0  0  0  0  0  0  0  0  0
   56.8357   25.0681   47.5301 H   0  0  0  0  0  0  0  0  0  0  0  0
   57.4242   23.7047   45.5233 H   0  0  0  0  0  0  0  0  0  0  0  0
   58.0423   24.8316   43.3830 H   0  0  0  0  0  0  0  0  0  0  0  0
   58.0653   27.3239   43.2418 H   0  0  0  0  0  0  0  0  0  0  0  0
  1  2  1  0
  2  3  1  0
  3  4  1  0
  4  5  1  0
  5  6  1  0
  6  7  1  0
  7  8  1  0
  8  9  2  0
  9 10  1  0
 10 11  2  0
 11 12  1  0
 12 13  1  0
 13 14  2  0
 13 15  1  0
 15 16  1  0
 16 17  1  0
 17 18  2  0
 18 19  1  0
 19 20  2  0
 20 21  1  0
 21 22  1  0
 20 23  1  0
 23 24  2  0
 12 25  2  0
  5 26  2  0
 26 27  1  0
 27 28  2  0
 27 29  1  0
 29 30  1  0
 30 31  2  0
 31 32  1  0
 32 33  2  0
 33 34  1  0
 34 35  2  0
 29  3  2  0
 35 30  1  0
 25  8  1  0
 24 17  1  0
  1 36  1  0
  1 37  1  0
  1 38  1  0
  2 39  1  0
  2 40  1  0
  7 41  1  0
  7 42  1  0
  9 43  1  0
 10 44  1  0
 11 45  1  0
 16 46  1  0
 16 47  1  0
 18 48  1  0
 19 49  1  0
 22 50  1  0
 22 51  1  0
 22 52  1  0
 23 53  1  0
 24 54  1  0
 25 55  1  0
 31 56  1  0
 32 57  1  0
 33 58  1  0
 34 59  1  0
 35 60  1  0
M  CHG  2   4  -1  15  -1
M  END
>  <UniqueID>  (24) 
23

>  <SMILES>  (24) 
CCc1[n-]c(SCc2cccc(C(=O)[N-]Cc3ccc(OC)cc3)c2)nc(=O)c1-c1ccccc1

>  <Energy>  (24) 
62.99215871255705

>  <Genealogy>  (24) 
CCc1[n-]c(SCc2cccc(C(=O)[N-]Cc3ccc(OC)cc3)c2)nc(=O)c1-c1ccccc1 (protonated)
CCc1[n-]c(SCc2cccc(C(=O)[N-]Cc3ccc(OC)cc3)c2)nc(=O)c1-c1ccccc1 (3D coordinates assigned)
CCc1[n-]c(SCc2cccc(C(=O)[N-]Cc3ccc(OC)cc3)c2)nc(=O)c1-c1ccccc1 (optimized conformer: 62.99215871255705 kcal/mol)

>  <smiles>  (24) 
CCc1[nH]c(SCc2cccc(C(=O)NCc3ccc(OC)cc3)c2)nc(=O)c1-c1ccccc1

>  <score_type>  (24) 
oracle

>  <origin>  (24) 
adg

>  <m_score__min__energy>  (24) 
-12.859999999999999

>  <m_primary>  (24) 
energy

$$$$
24:0
     RDKit          3D

 42 44  0  0  0  0  0  0  0  0999 V2000
   54.5930   26.0960   45.9910 N   0  0  0  0  0  0  0  0  0  0  0  0
   54.8150   24.3960   45.7800 S   0  0  0  0  0  0  0  0  0  0  0  0
   54.0680   23.9540   44.5530 O   0  0  0  0  0  0  0  0  0  0  0  0
   54.2740   23.6590   46.9730 O   0  0  0  0  0  0  0  0  0  0  0  0
   56.5320   24.0430   45.6110 C   0  0  0  0  0  0  0  0  0  0  0  0
   56.9690   22.8290   45.0630 C   0  0  0  0  0  0  0  0  0  0  0  0
   58.3350   22.5520   44.9750 C   0  0  0  0  0  0  0  0  0  0  0  0
   59.2710   23.4860   45.4260 C   0  0  0  0  0  0  0  0  0  0  0  0
   58.8510   24.7130   45.9520 C   0  0  0  0  0  0  0  0  0  0  0  0
   59.8390   25.6310   46.4430 N   0  0  0  0  0  0  0  0  0  0  0  0
   59.7440   27.0600   46.4230 C   0  0  0  0  0  0  0  0  0  0  0  0
   59.7070   27.7190   47.4960 O   0  0  0  0  0  0  0  0  0  0  0  0
   59.6480   27.7760   45.1120 C   0  0  0  0  0  0  0  0  0  0  0  0
   57.9700   27.6170   44.4070 S   0  0  0  0  0  0  0  0  0  0  0  0
   57.5600   29.3510   44.5890 C   0  0  0  0  0  0  0  0  0  0  0  0
   56.2990   29.8080   44.7460 N   0  0  0  0  0  0  0  0  0  0  0  0
   56.2360   31.1340   44.8660 N   0  0  0  0  0  0  0  0  0  0  0  0
   57.4500   31.7260   44.7980 C   0  0  0  0  0  0  0  0  0  0  0  0
   57.6510   33.0060   44.8980 N   0  0  0  0  0  0  0  0  0  0  0  0
   57.8770   33.7360   46.1140 C   0  0  0  0  0  0  0  0  0  0  0  0
   57.0530   33.6800   47.0650 O   0  0  0  0  0  0  0  0  0  0  0  0
   59.0170   34.5940   46.2420 N   0  0  0  0  0  0  0  0  0  0  0  0
   60.2080   34.3170   46.9910 C   0  0  0  0  0  0  0  0  0  0  0  0
   61.3780   33.8280   46.3770 C   0  0  0  0  0  0  0  0  0  0  0  0
   62.5050   33.5350   47.1510 C   0  0  0  0  0  0  0  0  0  0  0  0
   62.4740   33.7160   48.5360 C   0  0  0  0  0  0  0  0  0  0  0  0
   61.3080   34.1790   49.1520 C   0  0  0  0  0  0  0  0  0  0  0  0
   60.1770   34.4690   48.3830 C   0  0  0  0  0  0  0  0  0  0  0  0
   58.6840   30.6060   44.5780 S   0  0  0  0  0  0  0  0  0  0  0  0
   57.4730   24.9820   46.0540 C   0  0  0  0  0  0  0  0  0  0  0  0
   53.6280   26.3240   45.6640 H   0  0  0  0  0  0  0  0  0  0  0  0
   56.2350   22.0936   44.7018 H   0  0  0  0  0  0  0  0  0  0  0  0
   58.6748   21.5962   44.5496 H   0  0  0  0  0  0  0  0  0  0  0  0
   60.3450   23.2555   45.3673 H   0  0  0  0  0  0  0  0  0  0  0  0
   59.8752   28.8413   45.2654 H   0  0  0  0  0  0  0  0  0  0  0  0
   60.3684   27.3277   44.4119 H   0  0  0  0  0  0  0  0  0  0  0  0
   61.4049   33.6766   45.2878 H   0  0  0  0  0  0  0  0  0  0  0  0
   63.4194   33.1606   46.6677 H   0  0  0  0  0  0  0  0  0  0  0  0
   63.3658   33.4945   49.1406 H   0  0  0  0  0  0  0  0  0  0  0  0
   61.2801   34.3154   50.2432 H   0  0  0  0  0  0  0  0  0  0  0  0
   59.2570   34.8187   48.8743 H   0  0  0  0  0  0  0  0  0  0  0  0
   57.1327   25.9355   46.4842 H   0  0  0  0  0  0  0  0  0  0  0  0
  1  2  1  0
  2  3  2  0
  2  4  2  0
  2  5  1  0
  5  6  2  0
  6  7  1  0
  7  8  2  0
  8  9  1  0
  9 10  1  0
 10 11  1  0
 11 12  2  0
 11 13  1  0
 13 14  1  0
 14 15  1  0
 15 16  2  0
 16 17  1  0
 17 18  1  0
 18 19  2  3
 19 20  1  0
 20 21  2  0
 20 22  1  0
 22 23  1  0
 23 24  2  0
 24 25  1  0
 25 26  2  0
 26 27  1  0
 27 28  2  0
 18 29  1  0
  9 30  2  0
 30  5  1  0
 29 15  1  0
 28 23  1  0
  1 31  1  0
  6 32  1  0
  7 33  1  0
  8 34  1  0
 13 35  1  0
 13 36  1  0
 24 37  1  0
 25 38  1  0
 26 39  1  0
 27 40  1  0
 28 41  1  0
 30 42  1  0
M  CHG  4   1  -1  10  -1  17  -1  22  -1
M  END
>  <UniqueID>  (25) 
24

>  <SMILES>  (25) 
[NH-]S(=O)(=O)c1cccc([N-]C(=O)CSc2n[n-]c(=NC(=O)[N-]c3ccccc3)s2)c1

>  <Energy>  (25) 
80.0350836243729

>  <Genealogy>  (25) 
[NH-]S(=O)(=O)c1cccc([N-]C(=O)CSc2n[n-]c(=NC(=O)[N-]c3ccccc3)s2)c1 (protonated)
[NH-]S(=O)(=O)c1cccc([N-]C(=O)CSc2n[n-]c(=NC(=O)[N-]c3ccccc3)s2)c1 (3D coordinates assigned)
[NH-]S(=O)(=O)c1cccc([N-]C(=O)CSc2n[n-]c(=NC(=O)[N-]c3ccccc3)s2)c1 (optimized conformer: 80.0350836243729 kcal/mol)

>  <smiles>  (25) 
NS(=O)(=O)c1cccc(NC(=O)CSc2n[nH]c(=NC(=O)Nc3ccccc3)s2)c1

>  <score_type>  (25) 
oracle

>  <origin>  (25) 
adg

>  <m_score__min__energy>  (25) 
-14.83

>  <m_primary>  (25) 
energy

$$$$
25:0
     RDKit          3D

 58 60  0  0  0  0  0  0  0  0999 V2000
   66.4560   32.7470   50.1400 C   0  0  0  0  0  0  0  0  0  0  0  0
   65.0570   32.9570   49.9830 O   0  0  0  0  0  0  0  0  0  0  0  0
   64.0770   31.9680   50.1710 C   0  0  0  0  0  0  0  0  0  0  0  0
   64.2170   30.9570   51.1370 C   0  0  0  0  0  0  0  0  0  0  0  0
   63.2300   29.9840   51.2900 C   0  0  0  0  0  0  0  0  0  0  0  0
   62.0770   30.0050   50.4920 C   0  0  0  0  0  0  0  0  0  0  0  0
   61.0080   28.9630   50.7180 C   0  0  0  0  0  0  0  0  0  0  0  0
   60.2650   28.7210   49.4820 N   0  0  0  0  0  0  0  0  0  0  0  0
   60.1640   27.4240   48.8700 C   0  0  0  0  0  0  0  0  0  0  0  0
   60.6050   26.4090   49.4740 O   0  0  0  0  0  0  0  0  0  0  0  0
   59.5520   27.2570   47.5320 C   0  0  0  0  0  0  0  0  0  0  0  0
   59.5440   26.0070   46.8830 C   0  0  0  0  0  0  0  0  0  0  0  0
   58.9490   25.8670   45.6240 C   0  0  0  0  0  0  0  0  0  0  0  0
   58.3520   26.9670   45.0040 C   0  0  0  0  0  0  0  0  0  0  0  0
   58.3430   28.2090   45.6430 C   0  0  0  0  0  0  0  0  0  0  0  0
   57.7360   29.3330   45.0140 N   0  0  0  0  0  0  0  0  0  0  0  0
   56.9730   30.6860   44.2670 S   0  0  0  0  0  0  0  0  0  0  0  0
   55.5030   30.6740   44.5780 O   0  0  0  0  0  0  0  0  0  0  0  0
   57.1590   30.6070   42.7780 O   0  0  0  0  0  0  0  0  0  0  0  0
   57.7160   32.1590   44.8780 C   0  0  0  0  0  0  0  0  0  0  0  0
   57.7510   32.4110   46.2560 C   0  0  0  0  0  0  0  0  0  0  0  0
   58.3800   33.5580   46.7460 C   0  0  0  0  0  0  0  0  0  0  0  0
   59.0000   34.4570   45.8640 C   0  0  0  0  0  0  0  0  0  0  0  0
   59.6500   35.7020   46.3870 C   0  0  0  0  0  0  0  0  0  0  0  0
   58.9520   34.2090   44.4830 C   0  0  0  0  0  0  0  0  0  0  0  0
   58.3220   33.0620   43.9940 C   0  0  0  0  0  0  0  0  0  0  0  0
   58.9360   28.3540   46.9020 C   0  0  0  0  0  0  0  0  0  0  0  0
   61.9100   31.0400   49.5450 C   0  0  0  0  0  0  0  0  0  0  0  0
   60.7150   31.1330   48.8310 O   0  0  0  0  0  0  0  0  0  0  0  0
   60.7100   31.1570   47.4090 C   0  0  0  0  0  0  0  0  0  0  0  0
   62.9370   31.9960   49.3520 C   0  0  0  0  0  0  0  0  0  0  0  0
   62.8730   32.9940   48.3660 O   0  0  0  0  0  0  0  0  0  0  0  0
   63.6370   32.9970   47.1630 C   0  0  0  0  0  0  0  0  0  0  0  0
   66.7033   32.7099   51.2112 H   0  0  0  0  0  0  0  0  0  0  0  0
   66.7396   31.7962   49.6651 H   0  0  0  0  0  0  0  0  0  0  0  0
   67.0063   33.5726   49.6651 H   0  0  0  0  0  0  0  0  0  0  0  0
   65.1114   30.9331   51.7769 H   0  0  0  0  0  0  0  0  0  0  0  0
   63.3569   29.1927   52.0435 H   0  0  0  0  0  0  0  0  0  0  0  0
   61.4793   28.0253   51.0475 H   0  0  0  0  0  0  0  0  0  0  0  0
   60.3119   29.3262   51.4884 H   0  0  0  0  0  0  0  0  0  0  0  0
   59.8050   29.5440   49.0310 H   0  0  0  0  0  0  0  0  0  0  0  0
   60.0081   25.1358   47.3685 H   0  0  0  0  0  0  0  0  0  0  0  0
   58.9515   24.8884   45.1216 H   0  0  0  0  0  0  0  0  0  0  0  0
   57.8889   26.8552   44.0125 H   0  0  0  0  0  0  0  0  0  0  0  0
   57.2814   31.7029   46.9546 H   0  0  0  0  0  0  0  0  0  0  0  0
   58.3895   33.7576   47.8277 H   0  0  0  0  0  0  0  0  0  0  0  0
   59.6415   35.6858   47.4868 H   0  0  0  0  0  0  0  0  0  0  0  0
   60.6889   35.7513   46.0290 H   0  0  0  0  0  0  0  0  0  0  0  0
   59.0966   36.5827   46.0290 H   0  0  0  0  0  0  0  0  0  0  0  0
   59.4127   34.9212   43.7826 H   0  0  0  0  0  0  0  0  0  0  0  0
   58.3015   32.8670   42.9116 H   0  0  0  0  0  0  0  0  0  0  0  0
   58.9205   29.3331   47.4031 H   0  0  0  0  0  0  0  0  0  0  0  0
   60.4972   32.1783   47.0603 H   0  0  0  0  0  0  0  0  0  0  0  0
   61.6937   30.8388   47.0334 H   0  0  0  0  0  0  0  0  0  0  0  0
   59.9352   30.4724   47.0334 H   0  0  0  0  0  0  0  0  0  0  0  0
   64.7090   33.0012   47.4095 H   0  0  0  0  0  0  0  0  0  0  0  0
   63.3994   32.0979   46.5755 H   0  0  0  0  0  0  0  0  0  0  0  0
   63.3923   33.8942   46.5755 H   0  0  0  0  0  0  0  0  0  0  0  0
  1  2  1  0
  2  3  1  0
  3  4  2  0
  4  5  1  0
  5  6  2  0
  6  7  1  0
  7  8  1  0
  8  9  1  0
  9 10  2  0
  9 11  1  0
 11 12  2  0
 12 13  1  0
 13 14  2  0
 14 15  1  0
 15 16  1  0
 16 17  1  0
 17 18  2  0
 17 19  2  0
 17 20  1  0
 20 21  2  0
 21 22  1  0
 22 23  2  0
 23 24  1  0
 23 25  1  0
 25 26  2  0
 15 27  2  0
  6 28  1  0
 28 29  1  0
 29 30  1  0
 28 31  2  0
 31 32  1  0
 32 33  1  0
 31  3  1  0
 27 11  1  0
 26 20  1  0
  1 34  1  0
  1 35  1  0
  1 36  1  0
  4 37  1  0
  5 38  1  0
  7 39  1  0
  7 40  1  0
  8 41  1  0
 12 42  1  0
 13 43  1  0
 14 44  1  0
 21 45  1  0
 22 46  1  0
 24 47  1  0
 24 48  1  0
 24 49  1  0
 25 50  1  0
 26 51  1  0
 27 52  1  0
 30 53  1  0
 30 54  1  0
 30 55  1  0
 33 56  1  0
 33 57  1  0
 33 58  1  0
M  CHG  1  16  -1
M  END
>  <UniqueID>  (26) 
25

>  <SMILES>  (26) 
COc1ccc(CNC(=O)c2cccc([N-]S(=O)(=O)c3ccc(C)cc3)c2)c(OC)c1OC

>  <Energy>  (26) 
118.15611921201699

>  <Genealogy>  (26) 
COc1ccc(CNC(=O)c2cccc([N-]S(=O)(=O)c3ccc(C)cc3)c2)c(OC)c1OC (protonated)
COc1ccc(CNC(=O)c2cccc([N-]S(=O)(=O)c3ccc(C)cc3)c2)c(OC)c1OC (3D coordinates assigned)
COc1ccc(CNC(=O)c2cccc([N-]S(=O)(=O)c3ccc(C)cc3)c2)c(OC)c1OC (optimized conformer: 118.15611921201699 kcal/mol)

>  <smiles>  (26) 
COc1ccc(CNC(=O)c2cccc(NS(=O)(=O)c3ccc(C)cc3)c2)c(OC)c1OC

>  <score_type>  (26) 
oracle

>  <origin>  (26) 
adg

>  <m_score__min__energy>  (26) 
-10.25

>  <m_primary>  (26) 
energy

$$$$
26:0
     RDKit          3D

 58 61  0  0  1  0  0  0  0  0999 V2000
   53.9450   21.7070   50.8410 C   0  0  0  0  0  0  0  0  0  0  0  0
   54.2820   21.1150   49.5880 O   0  0  0  0  0  0  0  0  0  0  0  0
   54.3020   21.9210   48.4620 C   0  0  0  0  0  0  0  0  0  0  0  0
   55.2730   22.8880   48.3470 C   0  0  0  0  0  0  0  0  0  0  0  0
   55.3140   23.6980   47.2420 C   0  0  0  0  0  0  0  0  0  0  0  0
   56.2270   24.5860   47.1670 N   0  0  0  0  0  0  0  0  0  0  0  0
   56.4180   25.7720   45.9660 S   0  0  0  0  0  0  0  0  0  0  0  0
   55.1430   26.6080   45.9510 O   0  0  0  0  0  0  0  0  0  0  0  0
   56.5180   25.2030   44.5600 O   0  0  0  0  0  0  0  0  0  0  0  0
   57.7260   26.8890   46.2690 C   0  0  0  0  0  0  0  0  0  0  0  0
   58.8050   26.6260   47.0510 C   0  0  0  0  0  0  0  0  0  0  0  0
   59.7890   27.5740   47.2380 C   0  0  0  0  0  0  0  0  0  0  0  0
   59.7480   28.8190   46.6620 C   0  0  0  0  0  0  0  0  0  0  0  0
   60.7540   29.8080   46.8460 N   0  0  0  0  0  0  0  0  0  0  0  0
   60.5750   30.7960   47.8220 C   0  0  0  0  0  0  0  0  0  0  0  0
   59.4930   30.6970   48.4950 O   0  0  0  0  0  0  0  0  0  0  0  0
   61.4490   31.8930   48.1420 C   0  0  0  0  0  0  0  0  0  0  0  0
   62.8270   31.6380   48.0850 C   0  0  0  0  0  0  0  0  0  0  0  0
   63.7650   32.6340   48.2300 C   0  0  0  0  0  0  0  0  0  0  0  0
   63.4020   33.9390   48.4400 C   0  0  0  0  0  0  0  0  0  0  0  0
   62.0560   34.2120   48.5020 C   0  0  0  0  0  0  0  0  0  0  0  0
   61.0920   33.1940   48.3570 C   0  0  0  0  0  0  0  0  0  0  0  0
   59.7840   33.6420   48.4570 O   0  0  0  0  0  0  0  0  0  0  0  0
   59.1100   33.8190   47.2210 C   0  0  0  0  0  0  0  0  0  0  0  0
   59.6460   34.5620   46.2030 C   0  0  0  0  0  0  0  0  0  0  0  0
   58.9100   34.6730   45.0420 C   0  0  0  0  0  0  0  0  0  0  0  0
   57.6680   34.0580   44.8980 C   0  0  0  0  0  0  0  0  0  0  0  0
   57.1330   33.3050   45.9420 C   0  0  0  0  0  0  0  0  0  0  0  0
   57.8830   33.2000   47.1060 C   0  0  0  0  0  0  0  0  0  0  0  0
   58.6460   29.0950   45.8590 C   0  0  0  0  0  0  0  0  0  0  0  0
   57.6670   28.1470   45.6740 C   0  0  0  0  0  0  0  0  0  0  0  0
   54.3900   23.5290   46.2740 N   0  0  0  0  0  0  0  0  0  0  0  0
   53.4370   22.5820   46.3830 C   0  0  0  0  0  0  0  0  0  0  0  0
   52.5180   22.4630   45.3510 O   0  0  0  0  0  0  0  0  0  0  0  0
   51.4450   23.3770   45.2720 C   0  0  0  0  0  0  0  0  0  0  0  0
   53.4060   21.7900   47.4770 N   0  0  0  0  0  0  0  0  0  0  0  0
   54.3091   21.0674   51.6585 H   0  0  0  0  0  0  0  0  0  0  0  0
   54.4135   22.6994   50.9155 H   0  0  0  0  0  0  0  0  0  0  0  0
   52.8524   21.8108   50.9155 H   0  0  0  0  0  0  0  0  0  0  0  0
   56.0198   23.0120   49.1450 H   0  0  0  0  0  0  0  0  0  0  0  0
   58.8950   25.6453   47.5409 H   0  0  0  0  0  0  0  0  0  0  0  0
   60.6465   27.3205   47.8786 H   0  0  0  0  0  0  0  0  0  0  0  0
   61.5990   29.7390   46.2770 H   0  0  0  0  0  0  0  0  0  0  0  0
   63.1696   30.6060   47.9186 H   0  0  0  0  0  0  0  0  0  0  0  0
   64.8331   32.3766   48.1761 H   0  0  0  0  0  0  0  0  0  0  0  0
   64.1547   34.7330   48.5539 H   0  0  0  0  0  0  0  0  0  0  0  0
   61.7242   35.2475   48.6684 H   0  0  0  0  0  0  0  0  0  0  0  0
   60.6256   35.0513   46.3074 H   0  0  0  0  0  0  0  0  0  0  0  0
   59.3146   35.2633   44.2066 H   0  0  0  0  0  0  0  0  0  0  0  0
   57.1079   34.1670   43.9576 H   0  0  0  0  0  0  0  0  0  0  0  0
   56.1539   32.8127   45.8474 H   0  0  0  0  0  0  0  0  0  0  0  0
   57.4919   32.6134   47.9503 H   0  0  0  0  0  0  0  0  0  0  0  0
   58.5573   30.0762   45.3697 H   0  0  0  0  0  0  0  0  0  0  0  0
   56.8067   28.3909   45.0333 H   0  0  0  0  0  0  0  0  0  0  0  0
   54.4470   24.1510   45.4580 H   0  0  0  0  0  0  0  0  0  0  0  0
   51.1221   23.6520   46.2869 H   0  0  0  0  0  0  0  0  0  0  0  0
   51.7708   24.2793   44.7337 H   0  0  0  0  0  0  0  0  0  0  0  0
   50.6060   22.9119   44.7337 H   0  0  0  0  0  0  0  0  0  0  0  0
  1  2  1  0
  2  3  1  0
  3  4  2  0
  4  5  1  0
  5  6  2  0
  6  7  1  0
  7  8  2  0
  7  9  2  0
  7 10  1  0
 10 11  2  0
 11 12  1  0
 12 13  2  0
 13 14  1  0
 14 15  1  0
 15 16  2  0
 15 17  1  0
 17 18  2  0
 18 19  1  0
 19 20  2  0
 20 21  1  0
 21 22  2  0
 22 23  1  0
 23 24  1  0
 24 25  2  0
 25 26  1  0
 26 27  2  0
 27 28  1  0
 28 29  2  0
 13 30  1  0
 30 31  2  0
  5 32  1  0
 32 33  1  0
 33 34  1  0
 34 35  1  0
 33 36  2  0
 36  3  1  0
 31 10  1  0
 22 17  1  0
 29 24  1  0
  1 37  1  0
  1 38  1  0
  1 39  1  0
  4 40  1  0
 11 41  1  0
 12 42  1  0
 14 43  1  0
 18 44  1  0
 19 45  1  0
 20 46  1  0
 21 47  1  0
 25 48  1  0
 26 49  1  0
 27 50  1  0
 28 51  1  0
 29 52  1  0
 30 53  1  0
 31 54  1  0
 32 55  1  0
 35 56  1  0
 35 57  1  0
 35 58  1  0
M  END
>  <smiles>  (27) 
COc1cc(=NS(=O)(=O)c2ccc(NC(=O)c3ccccc3Oc3ccccc3)cc2)[nH]c(OC)n1

>  <score_type>  (27) 
oracle

>  <origin>  (27) 
adg

>  <m_score__min__energy>  (27) 
-10.08

>  <m_primary>  (27) 
energy

$$$$
27:0
     RDKit          3D

 66 69  0  0  0  0  0  0  0  0999 V2000
   57.1522   26.0111   42.8170 H   0  0  0  0  0  0  0  0  0  0  0  0
   57.4400   25.5750   43.7850 C   0  0  0  0  0  0  0  0  0  0  0  0
   57.7960   26.4140   44.7670 C   0  0  0  0  0  0  0  0  0  0  0  0
   58.8702   26.5969   44.9174 H   0  0  0  0  0  0  0  0  0  0  0  0
   56.6650   27.2480   45.8380 S   0  0  0  0  0  0  0  0  0  0  0  0
   57.4010   27.7250   47.0590 O   0  0  0  0  0  0  0  0  0  0  0  0
   55.5420   26.3460   46.2710 O   0  0  0  0  0  0  0  0  0  0  0  0
   55.9910   28.6180   45.0160 N   0  0  0  0  0  0  0  0  0  0  0  0
   56.7710   29.6390   44.3780 C   0  0  0  0  0  0  0  0  0  0  0  0
   56.9360   29.5900   43.1310 O   0  0  0  0  0  0  0  0  0  0  0  0
   57.3930   30.7360   45.1420 C   0  0  0  0  0  0  0  0  0  0  0  0
   57.0040   32.0600   44.9110 C   0  0  0  0  0  0  0  0  0  0  0  0
   56.2256   32.2822   44.1662 H   0  0  0  0  0  0  0  0  0  0  0  0
   57.6030   33.0990   45.6250 C   0  0  0  0  0  0  0  0  0  0  0  0
   57.3340   34.1413   45.3985 H   0  0  0  0  0  0  0  0  0  0  0  0
   58.5460   32.8270   46.6300 C   0  0  0  0  0  0  0  0  0  0  0  0
   59.2100   33.9840   47.3440 C   0  0  0  0  0  0  0  0  0  0  0  0
   58.4540   34.7556   47.5516 H   0  0  0  0  0  0  0  0  0  0  0  0
   59.6516   33.6027   48.2765 H   0  0  0  0  0  0  0  0  0  0  0  0
   60.2480   34.5560   46.5660 O   0  0  0  0  0  0  0  0  0  0  0  0
   61.2870   33.6230   46.3130 C   0  0  0  0  0  0  0  0  0  0  0  0
   60.8443   32.6648   46.0034 H   0  0  0  0  0  0  0  0  0  0  0  0
   61.9327   34.0205   45.5161 H   0  0  0  0  0  0  0  0  0  0  0  0
   62.1210   33.4060   47.5490 C   0  0  0  0  0  0  0  0  0  0  0  0
   61.9420   34.2220   48.6790 C   0  0  0  0  0  0  0  0  0  0  0  0
   61.1911   35.0256   48.6608 H   0  0  0  0  0  0  0  0  0  0  0  0
   62.7140   34.0170   49.8260 C   0  0  0  0  0  0  0  0  0  0  0  0
   62.5576   34.6475   50.7137 H   0  0  0  0  0  0  0  0  0  0  0  0
   63.6850   33.0110   49.8460 C   0  0  0  0  0  0  0  0  0  0  0  0
   64.2858   32.8445   50.7523 H   0  0  0  0  0  0  0  0  0  0  0  0
   63.8920   32.2180   48.7160 C   0  0  0  0  0  0  0  0  0  0  0  0
   64.6677   31.4381   48.7267 H   0  0  0  0  0  0  0  0  0  0  0  0
   63.1140   32.4140   47.5700 C   0  0  0  0  0  0  0  0  0  0  0  0
   63.2812   31.7879   46.6812 H   0  0  0  0  0  0  0  0  0  0  0  0
   58.9130   31.4900   46.9000 C   0  0  0  0  0  0  0  0  0  0  0  0
   59.8290   31.2330   47.9380 O   0  0  0  0  0  0  0  0  0  0  0  0
   59.9170   30.0460   48.7320 C   0  0  0  0  0  0  0  0  0  0  0  0
   59.8387   29.1698   48.0716 H   0  0  0  0  0  0  0  0  0  0  0  0
   60.8820   30.0599   49.2599 H   0  0  0  0  0  0  0  0  0  0  0  0
   58.7980   29.9760   49.7860 C   0  0  0  0  0  0  0  0  0  0  0  0
   57.8360   29.8365   49.2712 H   0  0  0  0  0  0  0  0  0  0  0  0
   59.0217   29.1338   50.4573 H   0  0  0  0  0  0  0  0  0  0  0  0
   58.7210   31.2240   50.6250 C   0  0  0  0  0  0  0  0  0  0  0  0
   57.5820   31.4840   51.4070 C   0  0  0  0  0  0  0  0  0  0  0  0
   56.7732   30.7404   51.4610 H   0  0  0  0  0  0  0  0  0  0  0  0
   57.4730   32.6850   52.1170 C   0  0  0  0  0  0  0  0  0  0  0  0
   56.5749   32.8882   52.7188 H   0  0  0  0  0  0  0  0  0  0  0  0
   58.5050   33.6270   52.0620 C   0  0  0  0  0  0  0  0  0  0  0  0
   58.4145   34.5746   52.6133 H   0  0  0  0  0  0  0  0  0  0  0  0
   59.6510   33.3650   51.3070 C   0  0  0  0  0  0  0  0  0  0  0  0
   60.4671   34.1017   51.2728 H   0  0  0  0  0  0  0  0  0  0  0  0
   59.7610   32.1670   50.5950 C   0  0  0  0  0  0  0  0  0  0  0  0
   60.6680   31.9617   50.0075 H   0  0  0  0  0  0  0  0  0  0  0  0
   58.3550   30.4600   46.1200 C   0  0  0  0  0  0  0  0  0  0  0  0
   58.6802   29.4217   46.2817 H   0  0  0  0  0  0  0  0  0  0  0  0
   57.4080   24.1080   43.9140 C   0  0  0  0  0  0  0  0  0  0  0  0
   56.6010   23.3600   43.0440 C   0  0  0  0  0  0  0  0  0  0  0  0
   56.0124   23.8706   42.2676 H   0  0  0  0  0  0  0  0  0  0  0  0
   56.5420   21.9680   43.1600 C   0  0  0  0  0  0  0  0  0  0  0  0
   55.8917   21.3874   42.4892 H   0  0  0  0  0  0  0  0  0  0  0  0
   57.3090   21.3140   44.1280 C   0  0  0  0  0  0  0  0  0  0  0  0
   57.2578   20.2193   44.2225 H   0  0  0  0  0  0  0  0  0  0  0  0
   58.1420   22.0510   44.9770 C   0  0  0  0  0  0  0  0  0  0  0  0
   58.7517   21.5337   45.7325 H   0  0  0  0  0  0  0  0  0  0  0  0
   58.2010   23.4440   44.8670 C   0  0  0  0  0  0  0  0  0  0  0  0
   59.0340   24.1430   45.6800 F   0  0  0  0  0  0  0  0  0  0  0  0
  1  2  1  0
  2  3  2  0
  3  4  1  0
  3  5  1  0
  5  6  2  0
  5  7  2  0
  5  8  1  0
  8  9  1  0
  9 10  2  0
  9 11  1  0
 11 12  2  0
 12 13  1  0
 12 14  1  0
 14 15  1  0
 14 16  2  0
 16 17  1  0
 17 18  1  0
 17 19  1  0
 17 20  1  0
 20 21  1  0
 21 22  1  0
 21 23  1  0
 21 24  1  0
 24 25  2  0
 25 26  1  0
 25 27  1  0
 27 28  1  0
 27 29  2  0
 29 30  1  0
 29 31  1  0
 31 32  1  0
 31 33  2  0
 33 34  1  0
 16 35  1  0
 35 36  1  0
 36 37  1  0
 37 38  1  0
 37 39  1  0
 37 40  1  0
 40 41  1  0
 40 42  1  0
 40 43  1  0
 43 44  2  0
 44 45  1  0
 44 46  1  0
 46 47  1  0
 46 48  2  0
 48 49  1  0
 48 50  1  0
 50 51  1  0
 50 52  2  0
 52 53  1  0
 35 54  2  0
 54 55  1  0
  2 56  1  0
 56 57  2  0
 57 58  1  0
 57 59  1  0
 59 60  1  0
 59 61  2  0
 61 62  1  0
 61 63  1  0
 63 64  1  0
 63 65  2  0
 65 66  1  0
 54 11  1  0
 65 56  1  0
 33 24  1  0
 52 43  1  0
M  CHG  1   8  -1
M  END
>  <UniqueID>  (28) 
26

>  <SMILES>  (28) 
O=C([N-]S(=O)(=O)/C=C\c1ccccc1F)c1ccc(COCc2ccccc2)c(OCCc2ccccc2)c1

>  <Energy>  (28) 
81.24131772318779

>  <Genealogy>  (28) 
O=C([N-]S(=O)(=O)C=Cc1ccccc1F)c1ccc(COCc2ccccc2)c(OCCc2ccccc2)c1 (protonated)
O=C([N-]S(=O)(=O)/C=C\c1ccccc1F)c1ccc(COCc2ccccc2)c(OCCc2ccccc2)c1 (cis-trans isomerization)
O=C([N-]S(=O)(=O)/C=C\c1ccccc1F)c1ccc(COCc2ccccc2)c(OCCc2ccccc2)c1 (3D coordinates assigned)
O=C([N-]S(=O)(=O)/C=C\c1ccccc1F)c1ccc(COCc2ccccc2)c(OCCc2ccccc2)c1 (optimized conformer: 81.24131772318779 kcal/mol)

>  <smiles>  (28) 
O=C(NS(=O)(=O)C=Cc1ccccc1F)c1ccc(COCc2ccccc2)c(OCCc2ccccc2)c1

>  <score_type>  (28) 
oracle

>  <origin>  (28) 
adg

>  <m_score__min__energy>  (28) 
-12.050000000000001

>  <m_primary>  (28) 
energy

$$$$
28:0
     RDKit          3D

 41 43  0  0  0  0  0  0  0  0999 V2000
   55.5150   29.0290   44.8710 O   0  0  0  0  0  0  0  0  0  0  0  0
   56.5300   29.7720   44.7880 C   0  0  0  0  0  0  0  0  0  0  0  0
   56.3680   31.1700   44.5180 N   0  0  0  0  0  0  0  0  0  0  0  0
   57.3900   31.9950   43.8880 C   0  0  0  0  0  0  0  0  0  0  0  0
   58.0360   32.8950   44.9070 C   0  0  0  0  0  0  0  0  0  0  0  0
   57.6620   32.8060   46.2580 C   0  0  0  0  0  0  0  0  0  0  0  0
   58.2460   33.6530   47.2060 C   0  0  0  0  0  0  0  0  0  0  0  0
   59.1970   34.5990   46.8110 C   0  0  0  0  0  0  0  0  0  0  0  0
   59.5680   34.6960   45.4670 C   0  0  0  0  0  0  0  0  0  0  0  0
   58.9890   33.8520   44.5160 C   0  0  0  0  0  0  0  0  0  0  0  0
   57.8850   29.2010   44.9730 C   0  0  0  0  0  0  0  0  0  0  0  0
   58.2350   27.9740   44.3870 C   0  0  0  0  0  0  0  0  0  0  0  0
   59.4840   27.4660   44.5550 N   0  0  0  0  0  0  0  0  0  0  0  0
   60.4300   28.1110   45.2830 C   0  0  0  0  0  0  0  0  0  0  0  0
   60.1420   29.3400   45.8910 C   0  0  0  0  0  0  0  0  0  0  0  0
   61.1660   30.0130   46.6490 N   0  0  0  0  0  0  0  0  0  0  0  0
   60.9250   30.7670   47.8800 C   0  0  0  0  0  0  0  0  0  0  0  0
   61.8260   31.9690   47.9500 C   0  0  0  0  0  0  0  0  0  0  0  0
   61.5860   32.9930   48.8780 C   0  0  0  0  0  0  0  0  0  0  0  0
   62.4460   34.0940   48.9210 C   0  0  0  0  0  0  0  0  0  0  0  0
   63.5360   34.1580   48.0510 C   0  0  0  0  0  0  0  0  0  0  0  0
   63.7530   33.1130   47.1490 C   0  0  0  0  0  0  0  0  0  0  0  0
   62.9030   32.0520   47.1190 N   0  0  0  0  0  0  0  0  0  0  0  0
   58.8520   29.8780   45.7330 C   0  0  0  0  0  0  0  0  0  0  0  0
   58.1562   31.3449   43.4404 H   0  0  0  0  0  0  0  0  0  0  0  0
   56.9203   32.6146   43.1099 H   0  0  0  0  0  0  0  0  0  0  0  0
   56.9082   32.0687   46.5713 H   0  0  0  0  0  0  0  0  0  0  0  0
   57.9565   33.5746   48.2643 H   0  0  0  0  0  0  0  0  0  0  0  0
   59.6527   35.2662   47.5574 H   0  0  0  0  0  0  0  0  0  0  0  0
   60.3178   35.4388   45.1571 H   0  0  0  0  0  0  0  0  0  0  0  0
   59.2795   33.9364   43.4584 H   0  0  0  0  0  0  0  0  0  0  0  0
   57.4949   27.4216   43.7894 H   0  0  0  0  0  0  0  0  0  0  0  0
   61.4296   27.6661   45.3966 H   0  0  0  0  0  0  0  0  0  0  0  0
   62.1520   29.9730   46.3010 H   0  0  0  0  0  0  0  0  0  0  0  0
   59.8766   31.0994   47.9008 H   0  0  0  0  0  0  0  0  0  0  0  0
   61.1352   30.1159   48.7413 H   0  0  0  0  0  0  0  0  0  0  0  0
   60.7294   32.9302   49.5652 H   0  0  0  0  0  0  0  0  0  0  0  0
   62.2645   34.9079   49.6384 H   0  0  0  0  0  0  0  0  0  0  0  0
   64.2167   35.0218   48.0753 H   0  0  0  0  0  0  0  0  0  0  0  0
   64.6120   33.1487   46.4628 H   0  0  0  0  0  0  0  0  0  0  0  0
   58.5988   30.8369   46.2088 H   0  0  0  0  0  0  0  0  0  0  0  0
  1  2  2  0
  2  3  1  0
  3  4  1  0
  4  5  1  0
  5  6  2  0
  6  7  1  0
  7  8  2  0
  8  9  1  0
  9 10  2  0
  2 11  1  0
 11 12  2  0
 12 13  1  0
 13 14  2  0
 14 15  1  0
 15 16  1  0
 16 17  1  0
 17 18  1  0
 18 19  2  0
 19 20  1  0
 20 21  2  0
 21 22  1  0
 22 23  2  0
 15 24  2  0
 10  5  1  0
 24 11  1  0
 23 18  1  0
  4 25  1  0
  4 26  1  0
  6 27  1  0
  7 28  1  0
  8 29  1  0
  9 30  1  0
 10 31  1  0
 12 32  1  0
 14 33  1  0
 16 34  1  0
 17 35  1  0
 17 36  1  0
 19 37  1  0
 20 38  1  0
 21 39  1  0
 22 40  1  0
 24 41  1  0
M  CHG  1   3  -1
M  END
>  <UniqueID>  (29) 
27

>  <SMILES>  (29) 
O=C([N-]Cc1ccccc1)c1cncc(NCc2ccccn2)c1

>  <Energy>  (29) 
42.22755538274015

>  <Genealogy>  (29) 
O=C([N-]Cc1ccccc1)c1cncc(NCc2ccccn2)c1 (protonated)
O=C([N-]Cc1ccccc1)c1cncc(NCc2ccccn2)c1 (3D coordinates assigned)
O=C([N-]Cc1ccccc1)c1cncc(NCc2ccccn2)c1 (optimized conformer: 42.22755538274015 kcal/mol)

>  <smiles>  (29) 
O=C(NCc1ccccc1)c1cncc(NCc2ccccn2)c1

>  <score_type>  (29) 
oracle

>  <origin>  (29) 
adg

>  <m_score__min__energy>  (29) 
-9.7699999999999996

>  <m_primary>  (29) 
energy

$$$$
29:0
     RDKit          3D

 36 37  0  0  0  0  0  0  0  0999 V2000
   55.0710   26.3420   45.9550 N   0  0  0  0  0  0  0  0  0  0  0  0
   56.6790   25.7160   46.0620 S   0  0  0  0  0  0  0  0  0  0  0  0
   56.9550   24.8440   44.8700 O   0  0  0  0  0  0  0  0  0  0  0  0
   56.8110   24.8870   47.3090 O   0  0  0  0  0  0  0  0  0  0  0  0
   57.8270   27.0490   46.1140 C   0  0  0  0  0  0  0  0  0  0  0  0
   58.7920   27.1830   45.1070 C   0  0  0  0  0  0  0  0  0  0  0  0
   59.7150   28.2310   45.1490 C   0  0  0  0  0  0  0  0  0  0  0  0
   59.6830   29.1600   46.2020 C   0  0  0  0  0  0  0  0  0  0  0  0
   60.6880   30.2780   46.2700 C   0  0  0  0  0  0  0  0  0  0  0  0
   60.0120   31.5720   46.2090 N   0  0  0  0  0  0  0  0  0  0  0  0
   60.1520   32.5620   47.2410 C   0  0  0  0  0  0  0  0  0  0  0  0
   60.9190   32.3510   48.2200 O   0  0  0  0  0  0  0  0  0  0  0  0
   59.4080   33.8280   47.1700 C   0  0  0  0  0  0  0  0  0  0  0  0
   59.8400   34.8520   47.7660 O   0  0  0  0  0  0  0  0  0  0  0  0
   58.1910   33.8940   46.4210 N   0  0  0  0  0  0  0  0  0  0  0  0
   58.1610   33.9310   44.9670 C   0  0  0  0  0  0  0  0  0  0  0  0
   57.7040   32.6080   44.4480 C   0  0  0  0  0  0  0  0  0  0  0  0
   57.7530   32.1970   43.1300 C   0  0  0  0  0  0  0  0  0  0  0  0
   57.2640   30.9090   43.1280 C   0  0  0  0  0  0  0  0  0  0  0  0
   56.9540   30.6130   44.4400 C   0  0  0  0  0  0  0  0  0  0  0  0
   57.2310   31.6450   45.2040 O   0  0  0  0  0  0  0  0  0  0  0  0
   58.7210   29.0190   47.2150 C   0  0  0  0  0  0  0  0  0  0  0  0
   57.8000   27.9690   47.1720 C   0  0  0  0  0  0  0  0  0  0  0  0
   55.1410   27.3790   46.0620 H   0  0  0  0  0  0  0  0  0  0  0  0
   58.8231   26.4594   44.2791 H   0  0  0  0  0  0  0  0  0  0  0  0
   60.4695   28.3289   44.3545 H   0  0  0  0  0  0  0  0  0  0  0  0
   61.2482   30.2054   47.2139 H   0  0  0  0  0  0  0  0  0  0  0  0
   61.3760   30.1931   45.4159 H   0  0  0  0  0  0  0  0  0  0  0  0
   59.4090   31.7730   45.3800 H   0  0  0  0  0  0  0  0  0  0  0  0
   57.4662   34.7161   44.6339 H   0  0  0  0  0  0  0  0  0  0  0  0
   59.1688   34.1486   44.5835 H   0  0  0  0  0  0  0  0  0  0  0  0
   58.1077   32.7760   42.2646 H   0  0  0  0  0  0  0  0  0  0  0  0
   57.1446   30.2491   42.2560 H   0  0  0  0  0  0  0  0  0  0  0  0
   56.5380   29.6576   44.7924 H   0  0  0  0  0  0  0  0  0  0  0  0
   58.6922   29.7386   48.0465 H   0  0  0  0  0  0  0  0  0  0  0  0
   57.0512   27.8637   47.9709 H   0  0  0  0  0  0  0  0  0  0  0  0
  1  2  1  0
  2  3  2  0
  2  4  2  0
  2  5  1  0
  5  6  2  0
  6  7  1  0
  7  8  2  0
  8  9  1  0
  9 10  1  0
 10 11  1  0
 11 12  2  0
 11 13  1  0
 13 14  2  0
 13 15  1  0
 15 16  1  0
 16 17  1  0
 17 18  2  0
 18 19  1  0
 19 20  2  0
 20 21  1  0
  8 22  1  0
 22 23  2  0
 23  5  1  0
 21 17  1  0
  1 24  1  0
  6 25  1  0
  7 26  1  0
  9 27  1  0
  9 28  1  0
 10 29  1  0
 16 30  1  0
 16 31  1  0
 18 32  1  0
 19 33  1  0
 20 34  1  0
 22 35  1  0
 23 36  1  0
M  CHG  2   1  -1  15  -1
M  END
>  <UniqueID>  (30) 
28

>  <SMILES>  (30) 
[NH-]S(=O)(=O)c1ccc(CNC(=O)C(=O)[N-]Cc2ccco2)cc1

>  <Energy>  (30) 
54.608942468626054

>  <Genealogy>  (30) 
[NH-]S(=O)(=O)c1ccc(CNC(=O)C(=O)[N-]Cc2ccco2)cc1 (protonated)
[NH-]S(=O)(=O)c1ccc(CNC(=O)C(=O)[N-]Cc2ccco2)cc1 (3D coordinates assigned)
[NH-]S(=O)(=O)c1ccc(CNC(=O)C(=O)[N-]Cc2ccco2)cc1 (optimized conformer: 54.608942468626054 kcal/mol)

>  <smiles>  (30) 
NS(=O)(=O)c1ccc(CNC(=O)C(=O)NCc2ccco2)cc1

>  <score_type>  (30) 
oracle

>  <origin>  (30) 
adg

>  <m_score__min__energy>  (30) 
-11.06

>  <m_primary>  (30) 
energy

$$$$
30:0
     RDKit          3D

 39 41  0  0  0  0  0  0  0  0999 V2000
   58.4040   33.8590   45.7730 C   0  0  0  0  0  0  0  0  0  0  0  0
   58.0230   32.8150   44.7650 C   0  0  0  0  0  0  0  0  0  0  0  0
   58.1980   33.0570   43.3960 C   0  0  0  0  0  0  0  0  0  0  0  0
   57.8140   32.0960   42.4570 C   0  0  0  0  0  0  0  0  0  0  0  0
   57.2350   30.8960   42.8770 C   0  0  0  0  0  0  0  0  0  0  0  0
   57.0190   30.6520   44.2440 C   0  0  0  0  0  0  0  0  0  0  0  0
   56.3910   29.3820   44.6820 C   0  0  0  0  0  0  0  0  0  0  0  0
   55.1440   29.3400   44.8600 O   0  0  0  0  0  0  0  0  0  0  0  0
   57.1510   28.1790   44.8640 N   0  0  0  0  0  0  0  0  0  0  0  0
   58.1010   27.9270   45.9090 C   0  0  0  0  0  0  0  0  0  0  0  0
   58.1090   26.7170   46.6230 C   0  0  0  0  0  0  0  0  0  0  0  0
   59.0480   26.5060   47.6350 C   0  0  0  0  0  0  0  0  0  0  0  0
   59.9990   27.4860   47.9270 C   0  0  0  0  0  0  0  0  0  0  0  0
   60.0330   28.6830   47.1890 C   0  0  0  0  0  0  0  0  0  0  0  0
   60.9930   29.7150   47.4780 N   0  0  0  0  0  0  0  0  0  0  0  0
   60.7300   31.1190   47.3160 C   0  0  0  0  0  0  0  0  0  0  0  0
   59.5450   31.5370   47.2230 O   0  0  0  0  0  0  0  0  0  0  0  0
   61.8310   32.0970   47.3010 C   0  0  0  0  0  0  0  0  0  0  0  0
   61.8010   33.3680   46.7550 C   0  0  0  0  0  0  0  0  0  0  0  0
   63.0500   33.9020   46.9890 C   0  0  0  0  0  0  0  0  0  0  0  0
   63.7630   32.9320   47.6610 C   0  0  0  0  0  0  0  0  0  0  0  0
   63.0100   31.8700   47.8330 O   0  0  0  0  0  0  0  0  0  0  0  0
   59.0720   28.8970   46.1900 C   0  0  0  0  0  0  0  0  0  0  0  0
   57.4260   31.6160   45.1850 C   0  0  0  0  0  0  0  0  0  0  0  0
   58.2582   33.4596   46.7875 H   0  0  0  0  0  0  0  0  0  0  0  0
   59.4603   34.1335   45.6352 H   0  0  0  0  0  0  0  0  0  0  0  0
   57.7728   34.7493   45.6352 H   0  0  0  0  0  0  0  0  0  0  0  0
   58.6392   34.0067   43.0593 H   0  0  0  0  0  0  0  0  0  0  0  0
   57.9680   32.2849   41.3843 H   0  0  0  0  0  0  0  0  0  0  0  0
   56.9466   30.1381   42.1337 H   0  0  0  0  0  0  0  0  0  0  0  0
   57.3740   25.9341   46.3844 H   0  0  0  0  0  0  0  0  0  0  0  0
   59.0385   25.5647   48.2040 H   0  0  0  0  0  0  0  0  0  0  0  0
   60.7244   27.3212   48.7373 H   0  0  0  0  0  0  0  0  0  0  0  0
   61.8930   29.4290   47.9230 H   0  0  0  0  0  0  0  0  0  0  0  0
   60.9568   33.8513   46.2415 H   0  0  0  0  0  0  0  0  0  0  0  0
   63.4063   34.9012   46.6981 H   0  0  0  0  0  0  0  0  0  0  0  0
   64.8042   33.0324   48.0013 H   0  0  0  0  0  0  0  0  0  0  0  0
   59.0808   29.8379   45.6202 H   0  0  0  0  0  0  0  0  0  0  0  0
   57.2751   31.4284   46.2583 H   0  0  0  0  0  0  0  0  0  0  0  0
  1  2  1  0
  2  3  2  0
  3  4  1  0
  4  5  2  0
  5  6  1  0
  6  7  1  0
  7  8  2  0
  7  9  1  0
  9 10  1  0
 10 11  2  0
 11 12  1  0
 12 13  2  0
 13 14  1  0
 14 15  1  0
 15 16  1  0
 16 17  2  0
 16 18  1  0
 18 19  2  0
 19 20  1  0
 20 21  2  0
 21 22  1  0
 14 23  2  0
  6 24  2  0
 24  2  1  0
 23 10  1  0
 22 18  1  0
  1 25  1  0
  1 26  1  0
  1 27  1  0
  3 28  1  0
  4 29  1  0
  5 30  1  0
 11 31  1  0
 12 32  1  0
 13 33  1  0
 15 34  1  0
 19 35  1  0
 20 36  1  0
 21 37  1  0
 23 38  1  0
 24 39  1  0
M  CHG  1   9  -1
M  END
>  <UniqueID>  (31) 
29

>  <SMILES>  (31) 
Cc1cccc(C(=O)[N-]c2cccc(NC(=O)c3ccco3)c2)c1

>  <Energy>  (31) 
76.30543019770516

>  <Genealogy>  (31) 
Cc1cccc(C(=O)[N-]c2cccc(NC(=O)c3ccco3)c2)c1 (protonated)
Cc1cccc(C(=O)[N-]c2cccc(NC(=O)c3ccco3)c2)c1 (3D coordinates assigned)
Cc1cccc(C(=O)[N-]c2cccc(NC(=O)c3ccco3)c2)c1 (optimized conformer: 76.30543019770516 kcal/mol)

>  <smiles>  (31) 
Cc1cccc(C(=O)Nc2cccc(NC(=O)c3ccco3)c2)c1

>  <score_type>  (31) 
oracle

>  <origin>  (31) 
adg

>  <m_score__min__energy>  (31) 
-9.5600000000000005

>  <m_primary>  (31) 
energy

$$$$
31:0
     RDKit          3D

 47 49  0  0  0  0  0  0  0  0999 V2000
   61.7280   31.9480   47.3690 C   0  0  0  0  0  0  0  0  0  0  0  0
   60.9270   31.0430   48.2490 C   0  0  0  0  0  0  0  0  0  0  0  0
   59.9170   31.5630   49.0650 C   0  0  0  0  0  0  0  0  0  0  0  0
   59.1840   30.6820   49.8670 C   0  0  0  0  0  0  0  0  0  0  0  0
   58.0970   31.2130   50.7510 C   0  0  0  0  0  0  0  0  0  0  0  0
   59.4580   29.3480   49.8290 N   0  0  0  0  0  0  0  0  0  0  0  0
   60.4410   28.8610   49.0230 C   0  0  0  0  0  0  0  0  0  0  0  0
   60.7780   27.1030   48.9700 S   0  0  0  0  0  0  0  0  0  0  0  0
   60.7660   27.0120   47.1460 C   0  0  0  0  0  0  0  0  0  0  0  0
   59.5860   27.7560   46.5800 C   0  0  0  0  0  0  0  0  0  0  0  0
   59.7730   28.8880   45.7730 C   0  0  0  0  0  0  0  0  0  0  0  0
   58.6730   29.5520   45.2190 C   0  0  0  0  0  0  0  0  0  0  0  0
   57.3650   29.1030   45.4790 C   0  0  0  0  0  0  0  0  0  0  0  0
   56.1890   29.7420   44.8360 C   0  0  0  0  0  0  0  0  0  0  0  0
   55.2080   29.0260   44.5030 O   0  0  0  0  0  0  0  0  0  0  0  0
   56.1490   31.1390   44.5200 N   0  0  0  0  0  0  0  0  0  0  0  0
   57.1550   32.1190   44.8200 C   0  0  0  0  0  0  0  0  0  0  0  0
   57.4020   32.4100   46.1680 C   0  0  0  0  0  0  0  0  0  0  0  0
   58.3860   33.3310   46.5290 C   0  0  0  0  0  0  0  0  0  0  0  0
   59.1580   33.9470   45.5440 C   0  0  0  0  0  0  0  0  0  0  0  0
   58.9510   33.6410   44.1980 C   0  0  0  0  0  0  0  0  0  0  0  0
   57.9630   32.7170   43.8170 C   0  0  0  0  0  0  0  0  0  0  0  0
   57.7990   32.3940   42.3570 C   0  0  0  0  0  0  0  0  0  0  0  0
   57.1840   27.9820   46.3060 C   0  0  0  0  0  0  0  0  0  0  0  0
   58.2830   27.3170   46.8540 C   0  0  0  0  0  0  0  0  0  0  0  0
   61.1650   29.7060   48.2460 N   0  0  0  0  0  0  0  0  0  0  0  0
   62.3290   32.6271   47.9916 H   0  0  0  0  0  0  0  0  0  0  0  0
   62.3947   31.3461   46.7340 H   0  0  0  0  0  0  0  0  0  0  0  0
   61.0496   32.5367   46.7340 H   0  0  0  0  0  0  0  0  0  0  0  0
   59.7036   32.6420   49.0758 H   0  0  0  0  0  0  0  0  0  0  0  0
   58.3808   31.0744   51.8047 H   0  0  0  0  0  0  0  0  0  0  0  0
   57.9503   32.2842   50.5487 H   0  0  0  0  0  0  0  0  0  0  0  0
   57.1619   30.6702   50.5487 H   0  0  0  0  0  0  0  0  0  0  0  0
   58.9080   28.6820   50.4180 H   0  0  0  0  0  0  0  0  0  0  0  0
   61.6934   27.4576   46.7568 H   0  0  0  0  0  0  0  0  0  0  0  0
   60.6928   25.9560   46.8467 H   0  0  0  0  0  0  0  0  0  0  0  0
   60.7905   29.2559   45.5745 H   0  0  0  0  0  0  0  0  0  0  0  0
   58.8317   30.4304   44.5762 H   0  0  0  0  0  0  0  0  0  0  0  0
   56.8140   31.9071   46.9499 H   0  0  0  0  0  0  0  0  0  0  0  0
   58.5528   33.5711   47.5894 H   0  0  0  0  0  0  0  0  0  0  0  0
   59.9315   34.6754   45.8286 H   0  0  0  0  0  0  0  0  0  0  0  0
   59.5673   34.1279   43.4278 H   0  0  0  0  0  0  0  0  0  0  0  0
   57.3033   31.4178   42.2509 H   0  0  0  0  0  0  0  0  0  0  0  0
   57.1860   33.1706   41.8762 H   0  0  0  0  0  0  0  0  0  0  0  0
   58.7877   32.3574   41.8762 H   0  0  0  0  0  0  0  0  0  0  0  0
   56.1668   27.6245   46.5241 H   0  0  0  0  0  0  0  0  0  0  0  0
   58.1254   26.4439   47.5043 H   0  0  0  0  0  0  0  0  0  0  0  0
  1  2  1  0
  2  3  2  0
  3  4  1  0
  4  5  1  0
  4  6  2  0
  6  7  1  0
  7  8  1  0
  8  9  1  0
  9 10  1  0
 10 11  2  0
 11 12  1  0
 12 13  2  0
 13 14  1  0
 14 15  2  0
 14 16  1  0
 16 17  1  0
 17 18  2  0
 18 19  1  0
 19 20  2  0
 20 21  1  0
 21 22  2  0
 22 23  1  0
 13 24  1  0
 24 25  2  0
  7 26  2  0
 26  2  1  0
 25 10  1  0
 22 17  1  0
  1 27  1  0
  1 28  1  0
  1 29  1  0
  3 30  1  0
  5 31  1  0
  5 32  1  0
  5 33  1  0
  6 34  1  0
  9 35  1  0
  9 36  1  0
 11 37  1  0
 12 38  1  0
 18 39  1  0
 19 40  1  0
 20 41  1  0
 21 42  1  0
 23 43  1  0
 23 44  1  0
 23 45  1  0
 24 46  1  0
 25 47  1  0
M  CHG  2   6   1  16  -1
M  END
>  <UniqueID>  (32) 
30

>  <SMILES>  (32) 
Cc1cc(C)[nH+]c(SCc2ccc(C(=O)[N-]c3ccccc3C)cc2)n1

>  <Energy>  (32) 
49.75238784851038

>  <Genealogy>  (32) 
Cc1cc(C)[nH+]c(SCc2ccc(C(=O)[N-]c3ccccc3C)cc2)n1 (protonated)
Cc1cc(C)[nH+]c(SCc2ccc(C(=O)[N-]c3ccccc3C)cc2)n1 (3D coordinates assigned)
Cc1cc(C)[nH+]c(SCc2ccc(C(=O)[N-]c3ccccc3C)cc2)n1 (optimized conformer: 49.75238784851038 kcal/mol)

>  <smiles>  (32) 
Cc1cc(C)nc(SCc2ccc(C(=O)Nc3ccccc3C)cc2)n1

>  <score_type>  (32) 
oracle

>  <origin>  (32) 
adg

>  <m_score__min__energy>  (32) 
-9.0500000000000007

>  <m_primary>  (32) 
energy

$$$$
32:0
     RDKit          3D

 69 71  0  0  0  0  0  0  0  0999 V2000
   56.2760   29.7140   43.0200 C   0  0  0  0  0  0  0  0  0  0  0  0
   57.3450   30.5280   43.7510 C   0  0  0  0  0  0  0  0  0  0  0  0
   57.5950   31.9000   43.0930 C   0  0  0  0  0  0  0  0  0  0  0  0
   58.1890   32.9480   44.0510 C   0  0  0  0  0  0  0  0  0  0  0  0
   57.6630   32.8140   45.4870 C   0  0  0  0  0  0  0  0  0  0  0  0
   58.7790   32.3740   46.4480 C   0  0  0  0  0  0  0  0  0  0  0  0
   58.6440   33.0030   47.8450 C   0  0  0  0  0  0  0  0  0  0  0  0
   59.5270   34.2420   48.0880 C   0  0  0  0  0  0  0  0  0  0  0  0
   59.7480   34.5760   49.5800 C   0  0  0  0  0  0  0  0  0  0  0  0
   59.2930   33.4730   50.5520 C   0  0  0  0  0  0  0  0  0  0  0  0
   59.9980   33.5510   51.9180 C   0  0  0  0  0  0  0  0  0  0  0  0
   61.4940   33.8360   51.7760 C   0  0  0  0  0  0  0  0  0  0  0  0
   62.1580   32.7020   51.2190 O   0  0  0  0  0  0  0  0  0  0  0  0
   62.2340   32.4010   49.8470 C   0  0  0  0  0  0  0  0  0  0  0  0
   63.1340   33.0770   49.0000 C   0  0  0  0  0  0  0  0  0  0  0  0
   63.2430   32.7270   47.6480 C   0  0  0  0  0  0  0  0  0  0  0  0
   64.1410   33.3890   46.8150 O   0  0  0  0  0  0  0  0  0  0  0  0
   62.4500   31.7050   47.1280 C   0  0  0  0  0  0  0  0  0  0  0  0
   61.5330   31.0370   47.9430 C   0  0  0  0  0  0  0  0  0  0  0  0
   60.7800   30.0770   47.4160 O   0  0  0  0  0  0  0  0  0  0  0  0
   59.8670   29.4020   48.1080 C   0  0  0  0  0  0  0  0  0  0  0  0
   59.0870   28.3590   47.4060 C   0  0  0  0  0  0  0  0  0  0  0  0
   57.9930   28.6890   46.5890 C   0  0  0  0  0  0  0  0  0  0  0  0
   57.2930   27.6900   45.9060 C   0  0  0  0  0  0  0  0  0  0  0  0
   57.6790   26.3490   46.0130 C   0  0  0  0  0  0  0  0  0  0  0  0
   56.9480   25.3900   45.2970 O   0  0  0  0  0  0  0  0  0  0  0  0
   55.3290   24.9520   45.6340 S   0  0  0  0  0  0  0  0  0  0  0  0
   54.7670   24.1610   44.4860 O   0  0  0  0  0  0  0  0  0  0  0  0
   55.2950   24.1110   46.8790 O   0  0  0  0  0  0  0  0  0  0  0  0
   54.4060   26.3340   45.8770 O   0  0  0  0  0  0  0  0  0  0  0  0
   58.7830   26.0170   46.8200 C   0  0  0  0  0  0  0  0  0  0  0  0
   59.4850   27.0170   47.5010 C   0  0  0  0  0  0  0  0  0  0  0  0
   59.6780   29.6880   49.4720 C   0  0  0  0  0  0  0  0  0  0  0  0
   58.7620   28.9690   50.2370 O   0  0  0  0  0  0  0  0  0  0  0  0
   60.4400   30.6950   50.0690 C   0  0  0  0  0  0  0  0  0  0  0  0
   60.2450   30.9740   51.2830 O   0  0  0  0  0  0  0  0  0  0  0  0
   61.4060   31.3860   49.3070 C   0  0  0  0  0  0  0  0  0  0  0  0
   55.6254   29.2186   43.7558 H   0  0  0  0  0  0  0  0  0  0  0  0
   55.6728   30.3836   42.3893 H   0  0  0  0  0  0  0  0  0  0  0  0
   56.7610   28.9544   42.3893 H   0  0  0  0  0  0  0  0  0  0  0  0
   57.0177   30.6889   44.7888 H   0  0  0  0  0  0  0  0  0  0  0  0
   58.2859   29.9598   43.7072 H   0  0  0  0  0  0  0  0  0  0  0  0
   58.2935   31.7607   42.2547 H   0  0  0  0  0  0  0  0  0  0  0  0
   56.6167   32.2821   42.7660 H   0  0  0  0  0  0  0  0  0  0  0  0
   59.2825   32.8296   44.0657 H   0  0  0  0  0  0  0  0  0  0  0  0
   57.8884   33.9395   43.6815 H   0  0  0  0  0  0  0  0  0  0  0  0
   57.2679   33.7862   45.8168 H   0  0  0  0  0  0  0  0  0  0  0  0
   56.8716   32.0501   45.4986 H   0  0  0  0  0  0  0  0  0  0  0  0
   58.7435   31.2794   46.5504 H   0  0  0  0  0  0  0  0  0  0  0  0
   59.7352   32.7129   46.0229 H   0  0  0  0  0  0  0  0  0  0  0  0
   57.5940   33.2990   47.9862 H   0  0  0  0  0  0  0  0  0  0  0  0
   58.9818   32.2390   48.5607 H   0  0  0  0  0  0  0  0  0  0  0  0
   60.5086   34.0629   47.6250 H   0  0  0  0  0  0  0  0  0  0  0  0
   58.9989   35.0996   47.6457 H   0  0  0  0  0  0  0  0  0  0  0  0
   60.8223   34.7520   49.7378 H   0  0  0  0  0  0  0  0  0  0  0  0
   59.1321   35.4609   49.7984 H   0  0  0  0  0  0  0  0  0  0  0  0
   58.2088   33.5700   50.7104 H   0  0  0  0  0  0  0  0  0  0  0  0
   59.5554   32.5052   50.0996 H   0  0  0  0  0  0  0  0  0  0  0  0
   59.5378   34.3562   52.5096 H   0  0  0  0  0  0  0  0  0  0  0  0
   59.8838   32.5764   52.4151 H   0  0  0  0  0  0  0  0  0  0  0  0
   61.6381   34.7032   51.1148 H   0  0  0  0  0  0  0  0  0  0  0  0
   61.9161   34.0488   52.7693 H   0  0  0  0  0  0  0  0  0  0  0  0
   63.7575   33.8880   49.4044 H   0  0  0  0  0  0  0  0  0  0  0  0
   64.9090   32.9010   46.3680 H   0  0  0  0  0  0  0  0  0  0  0  0
   62.5470   31.4229   46.0692 H   0  0  0  0  0  0  0  0  0  0  0  0
   57.6852   29.7400   46.4860 H   0  0  0  0  0  0  0  0  0  0  0  0
   56.4308   27.9605   45.2787 H   0  0  0  0  0  0  0  0  0  0  0  0
   59.0953   24.9666   46.9157 H   0  0  0  0  0  0  0  0  0  0  0  0
   60.3565   26.7489   48.1163 H   0  0  0  0  0  0  0  0  0  0  0  0
  1  2  1  0
  2  3  1  0
  3  4  1  0
  4  5  1  0
  5  6  1  0
  6  7  1  0
  7  8  1  0
  8  9  1  0
  9 10  1  0
 10 11  1  0
 11 12  1  0
 12 13  1  0
 13 14  1  0
 14 15  2  0
 15 16  1  0
 16 17  1  0
 16 18  2  0
 18 19  1  0
 19 20  1  0
 20 21  1  0
 21 22  1  0
 22 23  2  0
 23 24  1  0
 24 25  2  0
 25 26  1  0
 26 27  1  0
 27 28  2  0
 27 29  2  0
 27 30  1  0
 25 31  1  0
 31 32  2  0
 21 33  2  0
 33 34  1  0
 33 35  1  0
 35 36  2  0
 35 37  1  0
 37 14  1  0
 37 19  2  0
 32 22  1  0
  1 38  1  0
  1 39  1  0
  1 40  1  0
  2 41  1  0
  2 42  1  0
  3 43  1  0
  3 44  1  0
  4 45  1  0
  4 46  1  0
  5 47  1  0
  5 48  1  0
  6 49  1  0
  6 50  1  0
  7 51  1  0
  7 52  1  0
  8 53  1  0
  8 54  1  0
  9 55  1  0
  9 56  1  0
 10 57  1  0
 10 58  1  0
 11 59  1  0
 11 60  1  0
 12 61  1  0
 12 62  1  0
 15 63  1  0
 17 64  1  0
 18 65  1  0
 23 66  1  0
 24 67  1  0
 31 68  1  0
 32 69  1  0
M  CHG  2  30  -1  34  -1
M  END
>  <UniqueID>  (33) 
31

>  <SMILES>  (33) 
CCCCCCCCCCCCOc1cc(O)cc2oc(-c3ccc(OS(=O)(=O)[O-])cc3)c([O-])c(=O)c12

>  <Energy>  (33) 
64.7003689555802

>  <Genealogy>  (33) 
CCCCCCCCCCCCOc1cc(O)cc2oc(-c3ccc(OS(=O)(=O)[O-])cc3)c([O-])c(=O)c12 (protonated)
CCCCCCCCCCCCOc1cc(O)cc2oc(-c3ccc(OS(=O)(=O)[O-])cc3)c([O-])c(=O)c12 (3D coordinates assigned)
CCCCCCCCCCCCOc1cc(O)cc2oc(-c3ccc(OS(=O)(=O)[O-])cc3)c([O-])c(=O)c12 (optimized conformer: 64.7003689555802 kcal/mol)

>  <smiles>  (33) 
CCCCCCCCCCCCOc1cc(O)cc2oc(-c3ccc(OS(=O)(=O)O)cc3)c(O)c(=O)c12

>  <score_type>  (33) 
oracle

>  <origin>  (33) 
adg

>  <m_score__min__energy>  (33) 
-12.109999999999999

>  <m_primary>  (33) 
energy

$$$$
33:0
     RDKit          3D

 31 32  0  0  0  0  0  0  0  0999 V2000
   58.6727   24.6895   46.7296 H   0  0  0  0  0  0  0  0  0  0  0  0
   58.1010   25.5670   46.3930 C   0  0  0  0  0  0  0  0  0  0  0  0
   56.7030   25.5570   46.4310 C   0  0  0  0  0  0  0  0  0  0  0  0
   55.9680   24.3560   46.9330 C   0  0  0  0  0  0  0  0  0  0  0  0
   55.9695   24.3585   48.0330 H   0  0  0  0  0  0  0  0  0  0  0  0
   54.9307   24.3817   46.5677 H   0  0  0  0  0  0  0  0  0  0  0  0
   56.4629   23.4441   46.5677 H   0  0  0  0  0  0  0  0  0  0  0  0
   56.0100   26.6600   46.0370 N   0  0  0  0  0  0  0  0  0  0  0  0
   56.6240   27.7910   45.5960 C   0  0  0  0  0  0  0  0  0  0  0  0
   55.8800   28.8030   45.2450 N   0  0  0  0  0  0  0  0  0  0  0  0
   56.0760   29.7080   44.1460 C   0  0  0  0  0  0  0  0  0  0  0  0
   55.2370   29.7170   43.2090 O   0  0  0  0  0  0  0  0  0  0  0  0
   57.1940   30.7200   44.1270 C   0  0  0  0  0  0  0  0  0  0  0  0
   58.1449   30.2029   44.3230 H   0  0  0  0  0  0  0  0  0  0  0  0
   57.2005   31.2017   43.1381 H   0  0  0  0  0  0  0  0  0  0  0  0
   57.0100   31.7360   45.1120 O   0  0  0  0  0  0  0  0  0  0  0  0
   57.9590   32.7100   45.4690 C   0  0  0  0  0  0  0  0  0  0  0  0
   57.9730   33.9950   44.8910 C   0  0  0  0  0  0  0  0  0  0  0  0
   57.2261   34.2602   44.1282 H   0  0  0  0  0  0  0  0  0  0  0  0
   58.9310   34.9340   45.2820 C   0  0  0  0  0  0  0  0  0  0  0  0
   58.9361   35.9352   44.8264 H   0  0  0  0  0  0  0  0  0  0  0  0
   59.8820   34.6040   46.2500 C   0  0  0  0  0  0  0  0  0  0  0  0
   60.6353   35.3447   46.5565 H   0  0  0  0  0  0  0  0  0  0  0  0
   59.8760   33.3320   46.8290 C   0  0  0  0  0  0  0  0  0  0  0  0
   60.6250   33.0728   47.5917 H   0  0  0  0  0  0  0  0  0  0  0  0
   58.9200   32.3880   46.4410 C   0  0  0  0  0  0  0  0  0  0  0  0
   58.9180   30.8040   47.2030 Cl  0  0  0  0  0  0  0  0  0  0  0  0
   58.0310   27.8170   45.5150 C   0  0  0  0  0  0  0  0  0  0  0  0
   58.5483   28.7093   45.1327 H   0  0  0  0  0  0  0  0  0  0  0  0
   58.7620   26.7010   45.9240 C   0  0  0  0  0  0  0  0  0  0  0  0
   59.8609   26.7162   45.8763 H   0  0  0  0  0  0  0  0  0  0  0  0
  1  2  1  0
  2  3  2  0
  3  4  1  0
  4  5  1  0
  4  6  1  0
  4  7  1  0
  3  8  1  0
  8  9  1  0
  9 10  2  0
 10 11  1  0
 11 12  2  0
 11 13  1  0
 13 14  1  0
 13 15  1  0
 13 16  1  0
 16 17  1  0
 17 18  2  0
 18 19  1  0
 18 20  1  0
 20 21  1  0
 20 22  2  0
 22 23  1  0
 22 24  1  0
 24 25  1  0
 24 26  2  0
 26 27  1  0
  9 28  1  0
 28 29  1  0
 28 30  2  0
 30 31  1  0
 30  2  1  0
 26 17  1  0
M  CHG  1   8  -1
M  END
>  <UniqueID>  (34) 
32

>  <SMILES>  (34) 
Cc1ccc/c(=N\C(=O)COc2ccccc2Cl)[n-]1

>  <Energy>  (34) 
39.04877881777373

>  <Genealogy>  (34) 
Cc1cccc(=NC(=O)COc2ccccc2Cl)[n-]1 (protonated)
Cc1ccc/c(=N\C(=O)COc2ccccc2Cl)[n-]1 (cis-trans isomerization)
Cc1ccc/c(=N\C(=O)COc2ccccc2Cl)[n-]1 (3D coordinates assigned)
Cc1ccc/c(=N\C(=O)COc2ccccc2Cl)[n-]1 (optimized conformer: 39.04877881777373 kcal/mol)

>  <smiles>  (34) 
Cc1cccc(=NC(=O)COc2ccccc2Cl)[nH]1

>  <score_type>  (34) 
oracle

>  <origin>  (34) 
adg

>  <m_score__min__energy>  (34) 
-9.2699999999999996

>  <m_primary>  (34) 
energy

$$$$
34:0
     RDKit          3D

 37 39  0  0  0  0  0  0  0  0999 V2000
   59.6500   35.8210   46.7110 O   0  0  0  0  0  0  0  0  0  0  0  0
   59.8580   34.6060   46.9700 C   0  0  0  0  0  0  0  0  0  0  0  0
   58.7550   33.6900   46.8910 N   0  0  0  0  0  0  0  0  0  0  0  0
   58.3760   32.9140   45.7460 C   0  0  0  0  0  0  0  0  0  0  0  0
   58.4100   33.5120   44.4820 C   0  0  0  0  0  0  0  0  0  0  0  0
   58.0370   32.7870   43.3480 C   0  0  0  0  0  0  0  0  0  0  0  0
   57.6460   31.4520   43.4660 C   0  0  0  0  0  0  0  0  0  0  0  0
   57.6490   30.8190   44.7180 C   0  0  0  0  0  0  0  0  0  0  0  0
   57.2220   29.4490   44.8170 N   0  0  0  0  0  0  0  0  0  0  0  0
   57.8390   28.4770   45.6790 C   0  0  0  0  0  0  0  0  0  0  0  0
   59.0010   28.6790   46.1270 O   0  0  0  0  0  0  0  0  0  0  0  0
   57.1320   27.2220   46.0120 C   0  0  0  0  0  0  0  0  0  0  0  0
   57.7840   26.1790   46.6880 C   0  0  0  0  0  0  0  0  0  0  0  0
   57.0640   25.0200   46.9830 C   0  0  0  0  0  0  0  0  0  0  0  0
   57.6190   24.0670   47.5870 O   0  0  0  0  0  0  0  0  0  0  0  0
   55.7590   24.9200   46.6170 N   0  0  0  0  0  0  0  0  0  0  0  0
   55.1390   25.9380   45.9650 C   0  0  0  0  0  0  0  0  0  0  0  0
   53.9300   25.8270   45.6350 O   0  0  0  0  0  0  0  0  0  0  0  0
   55.8230   27.0730   45.6690 N   0  0  0  0  0  0  0  0  0  0  0  0
   58.0100   31.5590   45.8590 C   0  0  0  0  0  0  0  0  0  0  0  0
   61.2110   34.1750   47.3930 C   0  0  0  0  0  0  0  0  0  0  0  0
   62.1790   33.8000   46.4440 C   0  0  0  0  0  0  0  0  0  0  0  0
   63.4560   33.4030   46.8560 C   0  0  0  0  0  0  0  0  0  0  0  0
   63.7730   33.3660   48.2150 C   0  0  0  0  0  0  0  0  0  0  0  0
   62.8140   33.7200   49.1670 C   0  0  0  0  0  0  0  0  0  0  0  0
   61.5360   34.1170   48.7610 C   0  0  0  0  0  0  0  0  0  0  0  0
   58.7322   34.5588   44.3805 H   0  0  0  0  0  0  0  0  0  0  0  0
   58.0513   33.2691   42.3594 H   0  0  0  0  0  0  0  0  0  0  0  0
   57.3336   30.8929   42.5717 H   0  0  0  0  0  0  0  0  0  0  0  0
   56.4660   29.1270   44.1710 H   0  0  0  0  0  0  0  0  0  0  0  0
   58.8406   26.2729   46.9793 H   0  0  0  0  0  0  0  0  0  0  0  0
   58.0063   31.0753   46.8469 H   0  0  0  0  0  0  0  0  0  0  0  0
   61.9309   33.8189   45.3725 H   0  0  0  0  0  0  0  0  0  0  0  0
   64.2111   33.1197   46.1080 H   0  0  0  0  0  0  0  0  0  0  0  0
   64.7788   33.0578   48.5365 H   0  0  0  0  0  0  0  0  0  0  0  0
   63.0644   33.6864   50.2376 H   0  0  0  0  0  0  0  0  0  0  0  0
   60.7810   34.3853   49.5147 H   0  0  0  0  0  0  0  0  0  0  0  0
  1  2  2  0
  2  3  1  0
  3  4  1  0
  4  5  2  0
  5  6  1  0
  6  7  2  0
  7  8  1  0
  8  9  1  0
  9 10  1  0
 10 11  2  0
 10 12  1  0
 12 13  2  0
 13 14  1  0
 14 15  2  0
 14 16  1  0
 16 17  1  0
 17 18  2  0
 17 19  1  0
  8 20  2  0
  2 21  1  0
 21 22  2  0
 22 23  1  0
 23 24  2  0
 24 25  1  0
 25 26  2  0
 20  4  1  0
 26 21  1  0
 19 12  1  0
  5 27  1  0
  6 28  1  0
  7 29  1  0
  9 30  1  0
 13 31  1  0
 20 32  1  0
 22 33  1  0
 23 34  1  0
 24 35  1  0
 25 36  1  0
 26 37  1  0
M  CHG  3   3  -1  16  -1  19  -1
M  END
>  <UniqueID>  (35) 
33

>  <SMILES>  (35) 
O=C([N-]c1cccc(NC(=O)c2cc(=O)[n-]c(=O)[n-]2)c1)c1ccccc1

>  <Energy>  (35) 
51.564965019247694

>  <Genealogy>  (35) 
O=C([N-]c1cccc(NC(=O)c2cc(=O)[n-]c(=O)[n-]2)c1)c1ccccc1 (protonated)
O=C([N-]c1cccc(NC(=O)c2cc(=O)[n-]c(=O)[n-]2)c1)c1ccccc1 (3D coordinates assigned)
O=C([N-]c1cccc(NC(=O)c2cc(=O)[n-]c(=O)[n-]2)c1)c1ccccc1 (optimized conformer: 51.564965019247694 kcal/mol)

>  <smiles>  (35) 
O=C(Nc1cccc(NC(=O)c2cc(=O)[nH]c(=O)[nH]2)c1)c1ccccc1

>  <score_type>  (35) 
oracle

>  <origin>  (35) 
adg

>  <m_score__min__energy>  (35) 
-13.85

>  <m_primary>  (35) 
energy

$$$$
35:0
     RDKit          3D

 54 56  0  0  0  0  0  0  0  0999 V2000
   57.7330   22.5060   46.9540 N   0  0  0  0  0  0  0  0  0  0  0  0
   58.4430   23.3650   45.6330 S   0  0  0  0  0  0  0  0  0  0  0  0
   59.9240   23.4860   45.8560 O   0  0  0  0  0  0  0  0  0  0  0  0
   58.2070   22.6080   44.3580 O   0  0  0  0  0  0  0  0  0  0  0  0
   57.7150   24.9640   45.5120 C   0  0  0  0  0  0  0  0  0  0  0  0
   56.4560   25.2020   46.0770 C   0  0  0  0  0  0  0  0  0  0  0  0
   55.8750   26.4720   45.9980 C   0  0  0  0  0  0  0  0  0  0  0  0
   56.5450   27.5170   45.3350 C   0  0  0  0  0  0  0  0  0  0  0  0
   56.0010   28.8420   45.2460 N   0  0  0  0  0  0  0  0  0  0  0  0
   56.6460   30.0060   44.7130 C   0  0  0  0  0  0  0  0  0  0  0  0
   56.3550   30.4410   43.5670 O   0  0  0  0  0  0  0  0  0  0  0  0
   57.7320   30.6730   45.5010 C   0  0  0  0  0  0  0  0  0  0  0  0
   57.4300   32.1050   45.6940 N   0  0  0  0  0  0  0  0  0  0  0  0
   57.7730   32.9190   44.4940 C   0  0  0  0  0  0  0  0  0  0  0  0
   59.1330   33.6180   44.6200 C   0  0  0  0  0  0  0  0  0  0  0  0
   59.1670   34.5760   45.8340 C   0  0  0  0  0  0  0  0  0  0  0  0
   60.5270   34.6460   46.3700 N   0  0  0  0  0  0  0  0  0  0  0  0
   61.0640   33.8580   47.4420 C   0  0  0  0  0  0  0  0  0  0  0  0
   60.8360   34.2190   48.6260 O   0  0  0  0  0  0  0  0  0  0  0  0
   61.9260   32.6470   47.2090 C   0  0  0  0  0  0  0  0  0  0  0  0
   61.1300   31.3910   47.4440 C   0  0  0  0  0  0  0  0  0  0  0  0
   60.4100   31.2200   48.6380 C   0  0  0  0  0  0  0  0  0  0  0  0
   59.6540   30.0630   48.8460 C   0  0  0  0  0  0  0  0  0  0  0  0
   59.6050   29.0680   47.8630 C   0  0  0  0  0  0  0  0  0  0  0  0
   58.8530   27.9170   48.0870 O   0  0  0  0  0  0  0  0  0  0  0  0
   60.3110   29.2400   46.6640 C   0  0  0  0  0  0  0  0  0  0  0  0
   61.0650   30.3980   46.4530 C   0  0  0  0  0  0  0  0  0  0  0  0
   58.2050   34.1220   46.9510 C   0  0  0  0  0  0  0  0  0  0  0  0
   58.0430   32.5980   46.9520 C   0  0  0  0  0  0  0  0  0  0  0  0
   57.8170   27.2800   44.7990 C   0  0  0  0  0  0  0  0  0  0  0  0
   58.4000   26.0130   44.8830 C   0  0  0  0  0  0  0  0  0  0  0  0
   57.7520   23.1460   47.7800 H   0  0  0  0  0  0  0  0  0  0  0  0
   55.9213   24.3862   46.5855 H   0  0  0  0  0  0  0  0  0  0  0  0
   54.8914   26.6544   46.4555 H   0  0  0  0  0  0  0  0  0  0  0  0
   57.8168   30.1859   46.4836 H   0  0  0  0  0  0  0  0  0  0  0  0
   58.6784   30.5818   44.9478 H   0  0  0  0  0  0  0  0  0  0  0  0
   57.7977   32.2573   43.6156 H   0  0  0  0  0  0  0  0  0  0  0  0
   57.0061   33.7012   44.3935 H   0  0  0  0  0  0  0  0  0  0  0  0
   59.9166   32.8560   44.7438 H   0  0  0  0  0  0  0  0  0  0  0  0
   59.3031   34.2096   43.7083 H   0  0  0  0  0  0  0  0  0  0  0  0
   58.8423   35.5671   45.4842 H   0  0  0  0  0  0  0  0  0  0  0  0
   62.2932   32.6561   46.1721 H   0  0  0  0  0  0  0  0  0  0  0  0
   62.7753   32.6704   47.9077 H   0  0  0  0  0  0  0  0  0  0  0  0
   60.4413   32.0002   49.4128 H   0  0  0  0  0  0  0  0  0  0  0  0
   59.0959   29.9341   49.7851 H   0  0  0  0  0  0  0  0  0  0  0  0
   58.0820   27.6610   47.4790 H   0  0  0  0  0  0  0  0  0  0  0  0
   60.2715   28.4619   45.8875 H   0  0  0  0  0  0  0  0  0  0  0  0
   61.6097   30.5321   45.5068 H   0  0  0  0  0  0  0  0  0  0  0  0
   58.6072   34.4414   47.9237 H   0  0  0  0  0  0  0  0  0  0  0  0
   57.2204   34.5785   46.7718 H   0  0  0  0  0  0  0  0  0  0  0  0
   59.0340   32.1353   47.0697 H   0  0  0  0  0  0  0  0  0  0  0  0
   57.3769   32.3270   47.7844 H   0  0  0  0  0  0  0  0  0  0  0  0
   58.3622   28.0991   44.3072 H   0  0  0  0  0  0  0  0  0  0  0  0
   59.3981   25.8383   44.4549 H   0  0  0  0  0  0  0  0  0  0  0  0
  1  2  1  0
  2  3  2  0
  2  4  2  0
  2  5  1  0
  5  6  2  0
  6  7  1  0
  7  8  2  0
  8  9  1  0
  9 10  1  0
 10 11  2  0
 10 12  1  0
 12 13  1  0
 13 14  1  0
 14 15  1  0
 15 16  1  0
 16 17  1  0
 17 18  1  0
 18 19  2  0
 18 20  1  0
 20 21  1  0
 21 22  2  0
 22 23  1  0
 23 24  2  0
 24 25  1  0
 24 26  1  0
 26 27  2  0
 16 28  1  0
 28 29  1  0
  8 30  1  0
 30 31  2  0
 31  5  1  0
 29 13  1  0
 27 21  1  0
  1 32  1  0
  6 33  1  0
  7 34  1  0
 12 35  1  0
 12 36  1  0
 14 37  1  0
 14 38  1  0
 15 39  1  0
 15 40  1  0
 16 41  1  0
 20 42  1  0
 20 43  1  0
 22 44  1  0
 23 45  1  0
 25 46  1  0
 26 47  1  0
 27 48  1  0
 28 49  1  0
 28 50  1  0
 29 51  1  0
 29 52  1  0
 30 53  1  0
 31 54  1  0
M  CHG  3   1  -1   9  -1  17  -1
M  END
>  <UniqueID>  (36) 
34

>  <SMILES>  (36) 
[NH-]S(=O)(=O)c1ccc([N-]C(=O)CN2CCC([N-]C(=O)Cc3ccc(O)cc3)CC2)cc1

>  <Energy>  (36) 
63.49888250008696

>  <Genealogy>  (36) 
[NH-]S(=O)(=O)c1ccc([N-]C(=O)CN2CCC([N-]C(=O)Cc3ccc(O)cc3)CC2)cc1 (protonated)
[NH-]S(=O)(=O)c1ccc([N-]C(=O)CN2CCC([N-]C(=O)Cc3ccc(O)cc3)CC2)cc1 (3D coordinates assigned)
[NH-]S(=O)(=O)c1ccc([N-]C(=O)CN2CCC([N-]C(=O)Cc3ccc(O)cc3)CC2)cc1 (nonaromatic ring conformer: 63.49888250008696 kcal/mol)

>  <smiles>  (36) 
NS(=O)(=O)c1ccc(NC(=O)CN2CCC(NC(=O)Cc3ccc(O)cc3)CC2)cc1

>  <score_type>  (36) 
oracle

>  <origin>  (36) 
adg

>  <m_score__min__energy>  (36) 
-13.48

>  <m_primary>  (36) 
energy

$$$$
36:0
     RDKit          3D

 51 54  0  0  0  0  0  0  0  0999 V2000
   57.0760   27.2240   46.0220 C   0  0  0  0  0  0  0  0  0  0  0  0
   58.2800   28.0480   46.0490 N   0  0  0  0  0  0  0  0  0  0  0  0
   58.8590   28.5740   47.1450 C   0  0  0  0  0  0  0  0  0  0  0  0
   59.9810   29.2990   46.7730 C   0  0  0  0  0  0  0  0  0  0  0  0
   60.8830   30.0580   47.6610 C   0  0  0  0  0  0  0  0  0  0  0  0
   61.1090   29.6280   48.8230 O   0  0  0  0  0  0  0  0  0  0  0  0
   61.5560   31.2450   47.2210 N   0  0  0  0  0  0  0  0  0  0  0  0
   62.0590   32.2910   48.0660 C   0  0  0  0  0  0  0  0  0  0  0  0
   63.2930   32.1580   48.7280 C   0  0  0  0  0  0  0  0  0  0  0  0
   63.7640   33.1810   49.5550 C   0  0  0  0  0  0  0  0  0  0  0  0
   63.0160   34.3490   49.7200 C   0  0  0  0  0  0  0  0  0  0  0  0
   61.8010   34.5000   49.0490 C   0  0  0  0  0  0  0  0  0  0  0  0
   61.3220   33.4820   48.2110 C   0  0  0  0  0  0  0  0  0  0  0  0
   60.0700   33.6570   47.5320 N   0  0  0  0  0  0  0  0  0  0  0  0
   59.9530   34.6550   46.4630 C   0  0  0  0  0  0  0  0  0  0  0  0
   59.3710   34.0080   45.2000 C   0  0  0  0  0  0  0  0  0  0  0  0
   58.2570   33.1000   45.5200 N   0  0  0  0  0  0  0  0  0  0  0  0
   57.7210   32.2460   44.4920 C   0  0  0  0  0  0  0  0  0  0  0  0
   57.9160   32.5570   43.1340 C   0  0  0  0  0  0  0  0  0  0  0  0
   57.3810   31.7350   42.1370 C   0  0  0  0  0  0  0  0  0  0  0  0
   56.6460   30.5980   42.4860 C   0  0  0  0  0  0  0  0  0  0  0  0
   56.4420   30.2840   43.8310 C   0  0  0  0  0  0  0  0  0  0  0  0
   56.9730   31.1050   44.8320 C   0  0  0  0  0  0  0  0  0  0  0  0
   57.7670   33.0070   46.9030 C   0  0  0  0  0  0  0  0  0  0  0  0
   58.9470   32.7630   47.8490 C   0  0  0  0  0  0  0  0  0  0  0  0
   60.0750   29.2270   45.3930 C   0  0  0  0  0  0  0  0  0  0  0  0
   59.0140   28.4440   44.9900 C   0  0  0  0  0  0  0  0  0  0  0  0
   58.7370   28.1120   43.6660 O   0  0  0  0  0  0  0  0  0  0  0  0
   56.7576   27.0061   47.0521 H   0  0  0  0  0  0  0  0  0  0  0  0
   56.2741   27.7636   45.4968 H   0  0  0  0  0  0  0  0  0  0  0  0
   57.2886   26.2812   45.4968 H   0  0  0  0  0  0  0  0  0  0  0  0
   58.4977   28.4480   48.1763 H   0  0  0  0  0  0  0  0  0  0  0  0
   63.8902   31.2440   48.5939 H   0  0  0  0  0  0  0  0  0  0  0  0
   64.7255   33.0663   50.0770 H   0  0  0  0  0  0  0  0  0  0  0  0
   63.3841   35.1496   50.3784 H   0  0  0  0  0  0  0  0  0  0  0  0
   61.2159   35.4225   49.1782 H   0  0  0  0  0  0  0  0  0  0  0  0
   59.2895   35.4673   46.7945 H   0  0  0  0  0  0  0  0  0  0  0  0
   60.9511   35.0570   46.2346 H   0  0  0  0  0  0  0  0  0  0  0  0
   59.0050   34.7996   44.5297 H   0  0  0  0  0  0  0  0  0  0  0  0
   60.1657   33.4205   44.7170 H   0  0  0  0  0  0  0  0  0  0  0  0
   58.4923   33.4514   42.8548 H   0  0  0  0  0  0  0  0  0  0  0  0
   57.5387   31.9833   41.0771 H   0  0  0  0  0  0  0  0  0  0  0  0
   56.2284   29.9507   41.7007 H   0  0  0  0  0  0  0  0  0  0  0  0
   55.8628   29.3896   44.1043 H   0  0  0  0  0  0  0  0  0  0  0  0
   56.8044   30.8565   45.8902 H   0  0  0  0  0  0  0  0  0  0  0  0
   57.2652   33.9465   47.1779 H   0  0  0  0  0  0  0  0  0  0  0  0
   57.0546   32.1728   46.9836 H   0  0  0  0  0  0  0  0  0  0  0  0
   58.6223   32.9464   48.8839 H   0  0  0  0  0  0  0  0  0  0  0  0
   59.2829   31.7224   47.7291 H   0  0  0  0  0  0  0  0  0  0  0  0
   60.8365   29.6962   44.7527 H   0  0  0  0  0  0  0  0  0  0  0  0
   58.4610   28.8140   42.9910 H   0  0  0  0  0  0  0  0  0  0  0  0
  1  2  1  0
  2  3  1  0
  3  4  2  0
  4  5  1  0
  5  6  2  0
  5  7  1  0
  7  8  1  0
  8  9  2  0
  9 10  1  0
 10 11  2  0
 11 12  1  0
 12 13  2  0
 13 14  1  0
 14 15  1  0
 15 16  1  0
 16 17  1  0
 17 18  1  0
 18 19  2  0
 19 20  1  0
 20 21  2  0
 21 22  1  0
 22 23  2  0
 17 24  1  0
 24 25  1  0
  4 26  1  0
 26 27  2  0
 27 28  1  0
 27  2  1  0
 13  8  1  0
 25 14  1  0
 23 18  1  0
  1 29  1  0
  1 30  1  0
  1 31  1  0
  3 32  1  0
  9 33  1  0
 10 34  1  0
 11 35  1  0
 12 36  1  0
 15 37  1  0
 15 38  1  0
 16 39  1  0
 16 40  1  0
 19 41  1  0
 20 42  1  0
 21 43  1  0
 22 44  1  0
 23 45  1  0
 24 46  1  0
 24 47  1  0
 25 48  1  0
 25 49  1  0
 26 50  1  0
 28 51  1  0
M  CHG  1   7  -1
M  END
>  <UniqueID>  (37) 
35

>  <SMILES>  (37) 
Cn1cc(C(=O)[N-]c2ccccc2N2CCN(c3ccccc3)CC2)cc1O

>  <Energy>  (37) 
95.13904478786368

>  <Genealogy>  (37) 
Cn1cc(C(=O)[N-]c2ccccc2N2CCN(c3ccccc3)CC2)cc1O (protonated)
Cn1cc(C(=O)[N-]c2ccccc2N2CCN(c3ccccc3)CC2)cc1O (3D coordinates assigned)
Cn1cc(C(=O)[N-]c2ccccc2N2CCN(c3ccccc3)CC2)cc1O (nonaromatic ring conformer: 95.13904478786368 kcal/mol)

>  <smiles>  (37) 
Cn1cc(C(=O)Nc2ccccc2N2CCN(c3ccccc3)CC2)cc1O

>  <score_type>  (37) 
oracle

>  <origin>  (37) 
adg

>  <m_score__min__energy>  (37) 
-9.5500000000000007

>  <m_primary>  (37) 
energy

$$$$
37:0
     RDKit          3D

 39 41  0  0  0  0  0  0  0  0999 V2000
   58.4421   33.9803   42.7847 H   0  0  0  0  0  0  0  0  0  0  0  0
   58.4150   33.4610   43.7540 C   0  0  0  0  0  0  0  0  0  0  0  0
   58.9430   34.0570   44.8540 N   0  0  0  0  0  0  0  0  0  0  0  0
   58.9500   33.4480   46.0700 C   0  0  0  0  0  0  0  0  0  0  0  0
   59.4980   34.1140   47.2190 N   0  0  0  0  0  0  0  0  0  0  0  0
   58.8960   34.8070   47.7180 H   0  0  0  0  0  0  0  0  0  0  0  0
   60.8600   33.9710   47.6580 C   0  0  0  0  0  0  0  0  0  0  0  0
   61.8670   33.5180   46.7880 C   0  0  0  0  0  0  0  0  0  0  0  0
   61.6221   33.2852   45.7412 H   0  0  0  0  0  0  0  0  0  0  0  0
   63.1780   33.3620   47.2470 C   0  0  0  0  0  0  0  0  0  0  0  0
   63.9630   33.0275   46.5528 H   0  0  0  0  0  0  0  0  0  0  0  0
   63.5000   33.6280   48.5830 C   0  0  0  0  0  0  0  0  0  0  0  0
   64.8310   33.4770   48.9980 O   0  0  0  0  0  0  0  0  0  0  0  0
   65.3020   32.4850   49.8710 C   0  0  0  0  0  0  0  0  0  0  0  0
   66.6610   32.3870   50.2250 C   0  0  0  0  0  0  0  0  0  0  0  0
   67.3896   33.0947   49.8027 H   0  0  0  0  0  0  0  0  0  0  0  0
   67.0880   31.3940   51.1110 C   0  0  0  0  0  0  0  0  0  0  0  0
   68.1527   31.3148   51.3759 H   0  0  0  0  0  0  0  0  0  0  0  0
   66.1630   30.5010   51.6610 C   0  0  0  0  0  0  0  0  0  0  0  0
   66.5003   29.7173   52.3553 H   0  0  0  0  0  0  0  0  0  0  0  0
   64.8100   30.6050   51.3280 C   0  0  0  0  0  0  0  0  0  0  0  0
   64.0819   29.9050   51.7638 H   0  0  0  0  0  0  0  0  0  0  0  0
   64.3800   31.5970   50.4420 C   0  0  0  0  0  0  0  0  0  0  0  0
   63.3122   31.6812   50.1915 H   0  0  0  0  0  0  0  0  0  0  0  0
   62.4930   34.0790   49.4550 C   0  0  0  0  0  0  0  0  0  0  0  0
   62.7388   34.3108   50.5018 H   0  0  0  0  0  0  0  0  0  0  0  0
   61.1820   34.2340   48.9980 C   0  0  0  0  0  0  0  0  0  0  0  0
   60.3966   34.5646   49.6936 H   0  0  0  0  0  0  0  0  0  0  0  0
   58.3700   32.1810   46.2080 C   0  0  0  0  0  0  0  0  0  0  0  0
   58.3717   31.6826   47.1886 H   0  0  0  0  0  0  0  0  0  0  0  0
   57.7870   31.5440   45.1030 C   0  0  0  0  0  0  0  0  0  0  0  0
   57.2560   30.3660   45.2930 N   0  0  0  0  0  0  0  0  0  0  0  0
   56.4040   29.6070   44.4240 C   0  0  0  0  0  0  0  0  0  0  0  0
   55.2120   29.3580   44.7460 O   0  0  0  0  0  0  0  0  0  0  0  0
   56.9470   29.0280   43.2400 N   0  0  0  0  0  0  0  0  0  0  0  0
   57.9470   29.1930   42.9840 H   0  0  0  0  0  0  0  0  0  0  0  0
   56.3520   28.4380   42.6180 H   0  0  0  0  0  0  0  0  0  0  0  0
   57.8380   32.1930   43.8460 C   0  0  0  0  0  0  0  0  0  0  0  0
   57.4260   31.5980   42.7000 F   0  0  0  0  0  0  0  0  0  0  0  0
  1  2  1  0
  2  3  1  0
  3  4  1  0
  4  5  1  0
  5  6  1  0
  5  7  1  0
  7  8  2  0
  8  9  1  0
  8 10  1  0
 10 11  1  0
 10 12  2  0
 12 13  1  0
 13 14  1  0
 14 15  2  0
 15 16  1  0
 15 17  1  0
 17 18  1  0
 17 19  2  0
 19 20  1  0
 19 21  1  0
 21 22  1  0
 21 23  2  0
 23 24  1  0
 12 25  1  0
 25 26  1  0
 25 27  2  0
 27 28  1  0
  4 29  2  0
 29 30  1  0
 29 31  1  0
 31 32  2  0
 32 33  1  0
 33 34  2  0
 33 35  1  0
 35 36  1  0
 35 37  1  0
 31 38  1  0
 38 39  1  0
 38  2  2  0
 27  7  1  0
 23 14  1  0
M  CHG  1   3  -1
M  END
>  <UniqueID>  (38) 
36

>  <SMILES>  (38) 
NC(=O)/N=c1/cc(Nc2ccc(Oc3ccccc3)cc2)[n-]cc1F

>  <Energy>  (38) 
62.035956007362465

>  <Genealogy>  (38) 
NC(=O)N=c1cc(Nc2ccc(Oc3ccccc3)cc2)[n-]cc1F (protonated)
NC(=O)/N=c1/cc(Nc2ccc(Oc3ccccc3)cc2)[n-]cc1F (cis-trans isomerization)
NC(=O)/N=c1/cc(Nc2ccc(Oc3ccccc3)cc2)[n-]cc1F (3D coordinates assigned)
NC(=O)/N=c1/cc(Nc2ccc(Oc3ccccc3)cc2)[n-]cc1F (optimized conformer: 62.035956007362465 kcal/mol)

>  <smiles>  (38) 
NC(=O)N=c1cc(Nc2ccc(Oc3ccccc3)cc2)[nH]cc1F

>  <score_type>  (38) 
oracle

>  <origin>  (38) 
adg

>  <m_score__min__energy>  (38) 
-10.029999999999999

>  <m_primary>  (38) 
energy

$$$$
38:0
     RDKit          3D

 45 47  0  0  0  0  0  0  0  0999 V2000
   58.6490   21.9940   44.4670 C   0  0  0  0  0  0  0  0  0  0  0  0
   56.9470   22.2780   43.8870 S   0  0  0  0  0  0  0  0  0  0  0  0
   56.9030   23.9730   44.4720 C   0  0  0  0  0  0  0  0  0  0  0  0
   57.7200   24.9410   43.8800 C   0  0  0  0  0  0  0  0  0  0  0  0
   57.6820   26.2630   44.3330 C   0  0  0  0  0  0  0  0  0  0  0  0
   56.8390   26.6280   45.3910 C   0  0  0  0  0  0  0  0  0  0  0  0
   56.8160   28.0000   45.8110 N   0  0  0  0  0  0  0  0  0  0  0  0
   56.3700   29.1220   45.0400 C   0  0  0  0  0  0  0  0  0  0  0  0
   55.1400   29.3300   44.8620 O   0  0  0  0  0  0  0  0  0  0  0  0
   57.3480   30.0040   44.4750 N   0  0  0  0  0  0  0  0  0  0  0  0
   58.0790   31.0270   45.1660 C   0  0  0  0  0  0  0  0  0  0  0  0
   58.7450   30.6910   46.3490 C   0  0  0  0  0  0  0  0  0  0  0  0
   59.4440   31.6600   47.0690 C   0  0  0  0  0  0  0  0  0  0  0  0
   59.4680   32.9900   46.6330 C   0  0  0  0  0  0  0  0  0  0  0  0
   60.1820   33.9610   47.4120 N   0  0  0  0  0  0  0  0  0  0  0  0
   61.5180   33.7590   47.9070 C   0  0  0  0  0  0  0  0  0  0  0  0
   62.5550   33.3150   47.0640 C   0  0  0  0  0  0  0  0  0  0  0  0
   63.8470   33.1370   47.5690 C   0  0  0  0  0  0  0  0  0  0  0  0
   64.1180   33.4110   48.9130 C   0  0  0  0  0  0  0  0  0  0  0  0
   63.0970   33.8660   49.7520 C   0  0  0  0  0  0  0  0  0  0  0  0
   61.8040   34.0440   49.2510 C   0  0  0  0  0  0  0  0  0  0  0  0
   58.8160   33.3420   45.4270 C   0  0  0  0  0  0  0  0  0  0  0  0
   58.8460   34.7500   44.8940 C   0  0  0  0  0  0  0  0  0  0  0  0
   58.0990   32.3610   44.7210 C   0  0  0  0  0  0  0  0  0  0  0  0
   55.9970   25.6560   45.9640 C   0  0  0  0  0  0  0  0  0  0  0  0
   56.0360   24.3340   45.5080 C   0  0  0  0  0  0  0  0  0  0  0  0
   58.6659   21.9912   45.5669 H   0  0  0  0  0  0  0  0  0  0  0  0
   59.0070   21.0237   44.0923 H   0  0  0  0  0  0  0  0  0  0  0  0
   59.3026   22.7955   44.0923 H   0  0  0  0  0  0  0  0  0  0  0  0
   58.3937   24.6619   43.0565 H   0  0  0  0  0  0  0  0  0  0  0  0
   58.3186   27.0223   43.8553 H   0  0  0  0  0  0  0  0  0  0  0  0
   58.7174   29.6540   46.7148 H   0  0  0  0  0  0  0  0  0  0  0  0
   59.9805   31.3768   47.9866 H   0  0  0  0  0  0  0  0  0  0  0  0
   59.7420   34.9020   47.5310 H   0  0  0  0  0  0  0  0  0  0  0  0
   62.3479   33.1073   46.0038 H   0  0  0  0  0  0  0  0  0  0  0  0
   64.6510   32.7810   46.9080 H   0  0  0  0  0  0  0  0  0  0  0  0
   65.1340   33.2686   49.3098 H   0  0  0  0  0  0  0  0  0  0  0  0
   63.3112   34.0845   50.8086 H   0  0  0  0  0  0  0  0  0  0  0  0
   61.0062   34.4096   49.9142 H   0  0  0  0  0  0  0  0  0  0  0  0
   58.8611   35.4599   45.7342 H   0  0  0  0  0  0  0  0  0  0  0  0
   59.7473   34.8902   44.2792 H   0  0  0  0  0  0  0  0  0  0  0  0
   57.9515   34.9285   44.2792 H   0  0  0  0  0  0  0  0  0  0  0  0
   57.5476   32.6394   43.8108 H   0  0  0  0  0  0  0  0  0  0  0  0
   55.3063   25.9369   46.7727 H   0  0  0  0  0  0  0  0  0  0  0  0
   55.3828   23.5764   45.9657 H   0  0  0  0  0  0  0  0  0  0  0  0
  1  2  1  0
  2  3  1  0
  3  4  2  0
  4  5  1  0
  5  6  2  0
  6  7  1  0
  7  8  1  0
  8  9  2  0
  8 10  1  0
 10 11  1  0
 11 12  2  0
 12 13  1  0
 13 14  2  0
 14 15  1  0
 15 16  1  0
 16 17  2  0
 17 18  1  0
 18 19  2  0
 19 20  1  0
 20 21  2  0
 14 22  1  0
 22 23  1  0
 22 24  2  0
  6 25  1  0
 25 26  2  0
 26  3  1  0
 24 11  1  0
 21 16  1  0
  1 27  1  0
  1 28  1  0
  1 29  1  0
  4 30  1  0
  5 31  1  0
 12 32  1  0
 13 33  1  0
 15 34  1  0
 17 35  1  0
 18 36  1  0
 19 37  1  0
 20 38  1  0
 21 39  1  0
 23 40  1  0
 23 41  1  0
 23 42  1  0
 24 43  1  0
 25 44  1  0
 26 45  1  0
M  CHG  2   7  -1  10  -1
M  END
>  <UniqueID>  (39) 
37

>  <SMILES>  (39) 
CSc1ccc([N-]C(=O)[N-]c2ccc(Nc3ccccc3)c(C)c2)cc1

>  <Energy>  (39) 
57.17937647381157

>  <Genealogy>  (39) 
CSc1ccc([N-]C(=O)[N-]c2ccc(Nc3ccccc3)c(C)c2)cc1 (protonated)
CSc1ccc([N-]C(=O)[N-]c2ccc(Nc3ccccc3)c(C)c2)cc1 (3D coordinates assigned)
CSc1ccc([N-]C(=O)[N-]c2ccc(Nc3ccccc3)c(C)c2)cc1 (optimized conformer: 57.17937647381157 kcal/mol)

>  <smiles>  (39) 
CSc1ccc(NC(=O)Nc2ccc(Nc3ccccc3)c(C)c2)cc1

>  <score_type>  (39) 
oracle

>  <origin>  (39) 
adg

>  <m_score__min__energy>  (39) 
-11.41

>  <m_primary>  (39) 
energy

$$$$
39:0
     RDKit          3D

 38 39  0  0  0  0  0  0  0  0999 V2000
   57.4808   32.1400   42.8534 H   0  0  0  0  0  0  0  0  0  0  0  0
   57.7580   32.4140   43.8820 C   0  0  0  0  0  0  0  0  0  0  0  0
   58.4780   33.5900   44.1200 C   0  0  0  0  0  0  0  0  0  0  0  0
   58.7558   34.2419   43.2787 H   0  0  0  0  0  0  0  0  0  0  0  0
   58.8470   33.9410   45.4270 C   0  0  0  0  0  0  0  0  0  0  0  0
   59.6570   35.1790   45.6740 C   0  0  0  0  0  0  0  0  0  0  0  0
   59.7615   35.3387   46.7573 H   0  0  0  0  0  0  0  0  0  0  0  0
   60.6533   35.0614   45.2229 H   0  0  0  0  0  0  0  0  0  0  0  0
   59.1502   36.0448   45.2229 H   0  0  0  0  0  0  0  0  0  0  0  0
   58.5220   33.0830   46.4880 C   0  0  0  0  0  0  0  0  0  0  0  0
   58.8366   33.3343   47.5116 H   0  0  0  0  0  0  0  0  0  0  0  0
   57.8000   31.9100   46.2500 C   0  0  0  0  0  0  0  0  0  0  0  0
   57.5544   31.2409   47.0879 H   0  0  0  0  0  0  0  0  0  0  0  0
   57.3870   31.5800   44.9540 C   0  0  0  0  0  0  0  0  0  0  0  0
   56.6690   30.3500   44.7500 N   0  0  0  0  0  0  0  0  0  0  0  0
   56.9430   29.1940   45.2800 C   0  0  0  0  0  0  0  0  0  0  0  0
   58.1870   28.9110   45.7550 N   0  0  0  0  0  0  0  0  0  0  0  0
   58.4800   27.7070   46.3120 C   0  0  0  0  0  0  0  0  0  0  0  0
   59.8700   27.4310   46.8110 C   0  0  0  0  0  0  0  0  0  0  0  0
   60.5525   27.3523   45.9519 H   0  0  0  0  0  0  0  0  0  0  0  0
   59.8598   26.4895   47.3797 H   0  0  0  0  0  0  0  0  0  0  0  0
   60.3290   28.5050   47.6910 N   0  0  0  0  0  0  0  0  0  0  0  0
   60.3520   28.3370   48.7220 H   0  0  0  0  0  0  0  0  0  0  0  0
   60.7760   29.7710   47.1920 C   0  0  0  0  0  0  0  0  0  0  0  0
   60.7170   30.0230   45.9570 O   0  0  0  0  0  0  0  0  0  0  0  0
   61.2800   30.7200   48.0880 O   0  0  0  0  0  0  0  0  0  0  0  0
   62.4100   31.5430   47.8060 C   0  0  0  0  0  0  0  0  0  0  0  0
   63.1000   30.9957   47.1469 H   0  0  0  0  0  0  0  0  0  0  0  0
   62.9082   31.7968   48.7533 H   0  0  0  0  0  0  0  0  0  0  0  0
   61.9780   32.8330   47.1180 C   0  0  0  0  0  0  0  0  0  0  0  0
   61.7255   33.5871   47.8780 H   0  0  0  0  0  0  0  0  0  0  0  0
   62.8001   33.2066   46.4898 H   0  0  0  0  0  0  0  0  0  0  0  0
   61.0968   32.6362   46.4898 H   0  0  0  0  0  0  0  0  0  0  0  0
   57.4940   26.7160   46.3590 C   0  0  0  0  0  0  0  0  0  0  0  0
   57.7123   25.7258   46.7854 H   0  0  0  0  0  0  0  0  0  0  0  0
   56.2270   27.0110   45.8530 C   0  0  0  0  0  0  0  0  0  0  0  0
   55.3150   26.1450   45.8820 O   0  0  0  0  0  0  0  0  0  0  0  0
   55.9780   28.2380   45.3250 N   0  0  0  0  0  0  0  0  0  0  0  0
  1  2  1  0
  2  3  2  0
  3  4  1  0
  3  5  1  0
  5  6  1  0
  6  7  1  0
  6  8  1  0
  6  9  1  0
  5 10  2  0
 10 11  1  0
 10 12  1  0
 12 13  1  0
 12 14  2  0
 14 15  1  0
 15 16  2  0
 16 17  1  0
 17 18  1  0
 18 19  1  0
 19 20  1  0
 19 21  1  0
 19 22  1  0
 22 23  1  0
 22 24  1  0
 24 25  2  0
 24 26  1  0
 26 27  1  0
 27 28  1  0
 27 29  1  0
 27 30  1  0
 30 31  1  0
 30 32  1  0
 30 33  1  0
 18 34  2  0
 34 35  1  0
 34 36  1  0
 36 37  2  0
 36 38  1  0
 14  2  1  0
 38 16  1  0
M  CHG  2  17  -1  38  -1
M  END
>  <UniqueID>  (40) 
38

>  <SMILES>  (40) 
CCOC(=O)NCc1cc(=O)[n-]/c(=N/c2ccc(C)cc2)[n-]1

>  <Energy>  (40) 
35.69582172422267

>  <Genealogy>  (40) 
CCOC(=O)NCc1cc(=O)[n-]c(=Nc2ccc(C)cc2)[n-]1 (protonated)
CCOC(=O)NCc1cc(=O)[n-]/c(=N/c2ccc(C)cc2)[n-]1 (cis-trans isomerization)
CCOC(=O)NCc1cc(=O)[n-]/c(=N/c2ccc(C)cc2)[n-]1 (3D coordinates assigned)
CCOC(=O)NCc1cc(=O)[n-]/c(=N/c2ccc(C)cc2)[n-]1 (optimized conformer: 35.69582172422267 kcal/mol)

>  <smiles>  (40) 
CCOC(=O)NCc1cc(=O)[nH]c(=Nc2ccc(C)cc2)[nH]1

>  <score_type>  (40) 
oracle

>  <origin>  (40) 
adg

>  <m_score__min__energy>  (40) 
-9.9100000000000001

>  <m_primary>  (40) 
energy

$$$$
40:0
     RDKit          3D

 65 69  0  0  0  0  0  0  0  0999 V2000
   58.2850   30.6200   44.8150 C   0  0  0  0  0  0  0  0  0  0  0  0
   58.8970   31.8570   45.1770 O   0  0  0  0  0  0  0  0  0  0  0  0
   59.4440   32.1390   46.4350 C   0  0  0  0  0  0  0  0  0  0  0  0
   60.7510   31.7460   46.7930 C   0  0  0  0  0  0  0  0  0  0  0  0
   61.2480   32.0340   48.0730 C   0  0  0  0  0  0  0  0  0  0  0  0
   60.4430   32.6930   49.0050 C   0  0  0  0  0  0  0  0  0  0  0  0
   59.1580   33.1120   48.6470 C   0  0  0  0  0  0  0  0  0  0  0  0
   58.6510   32.8370   47.3650 C   0  0  0  0  0  0  0  0  0  0  0  0
   57.3620   33.2330   46.9740 O   0  0  0  0  0  0  0  0  0  0  0  0
   57.0650   33.9060   45.7540 C   0  0  0  0  0  0  0  0  0  0  0  0
   61.0070   32.9580   50.3690 C   0  0  0  0  0  0  0  0  0  0  0  0
   61.7790   31.7990   50.8690 N   0  0  0  0  0  0  0  0  0  0  0  0
   61.0470   30.9240   51.8140 C   0  0  0  0  0  0  0  0  0  0  0  0
   59.6360   30.4850   51.3480 C   0  0  0  0  0  0  0  0  0  0  0  0
   59.6710   29.4890   50.2170 C   0  0  0  0  0  0  0  0  0  0  0  0
   58.8820   29.6770   49.0710 C   0  0  0  0  0  0  0  0  0  0  0  0
   59.0190   28.8230   47.9730 C   0  0  0  0  0  0  0  0  0  0  0  0
   59.9360   27.7580   48.0170 C   0  0  0  0  0  0  0  0  0  0  0  0
   60.1140   26.8730   46.9070 N   0  0  0  0  0  0  0  0  0  0  0  0
   59.1260   25.9830   46.3800 C   0  0  0  0  0  0  0  0  0  0  0  0
   59.4070   24.7750   46.1420 O   0  0  0  0  0  0  0  0  0  0  0  0
   57.7520   26.4590   46.1950 C   0  0  0  0  0  0  0  0  0  0  0  0
   57.3930   27.7210   45.7570 C   0  0  0  0  0  0  0  0  0  0  0  0
   56.0560   27.8180   45.6170 N   0  0  0  0  0  0  0  0  0  0  0  0
   55.5690   26.6140   45.9790 C   0  0  0  0  0  0  0  0  0  0  0  0
   54.2100   26.3190   45.9960 O   0  0  0  0  0  0  0  0  0  0  0  0
   56.5770   25.7370   46.3360 C   0  0  0  0  0  0  0  0  0  0  0  0
   56.4050   24.3580   46.8560 C   0  0  0  0  0  0  0  0  0  0  0  0
   55.4730   23.4890   46.2660 C   0  0  0  0  0  0  0  0  0  0  0  0
   55.2740   22.2060   46.7880 C   0  0  0  0  0  0  0  0  0  0  0  0
   56.0050   21.7780   47.8990 C   0  0  0  0  0  0  0  0  0  0  0  0
   56.9430   22.6350   48.4870 C   0  0  0  0  0  0  0  0  0  0  0  0
   57.6700   22.2120   49.5930 O   0  0  0  0  0  0  0  0  0  0  0  0
   57.1410   23.9200   47.9720 C   0  0  0  0  0  0  0  0  0  0  0  0
   60.6560   27.5180   49.1920 C   0  0  0  0  0  0  0  0  0  0  0  0
   60.5270   28.3770   50.2840 C   0  0  0  0  0  0  0  0  0  0  0  0
   62.6580   31.0860   49.8990 C   0  0  0  0  0  0  0  0  0  0  0  0
   62.6470   31.6870   48.4800 C   0  0  0  0  0  0  0  0  0  0  0  0
   58.0110   30.0663   45.7251 H   0  0  0  0  0  0  0  0  0  0  0  0
   57.3811   30.8183   44.2204 H   0  0  0  0  0  0  0  0  0  0  0  0
   58.9911   30.0218   44.2204 H   0  0  0  0  0  0  0  0  0  0  0  0
   61.3818   31.2125   46.0667 H   0  0  0  0  0  0  0  0  0  0  0  0
   58.5398   33.6603   49.3731 H   0  0  0  0  0  0  0  0  0  0  0  0
   56.6300   34.8917   45.9755 H   0  0  0  0  0  0  0  0  0  0  0  0
   57.9895   34.0356   45.1722 H   0  0  0  0  0  0  0  0  0  0  0  0
   56.3462   33.3103   45.1722 H   0  0  0  0  0  0  0  0  0  0  0  0
   61.6699   33.8343   50.3180 H   0  0  0  0  0  0  0  0  0  0  0  0
   60.1706   33.1406   51.0597 H   0  0  0  0  0  0  0  0  0  0  0  0
   61.6495   30.0179   51.9752 H   0  0  0  0  0  0  0  0  0  0  0  0
   60.8959   31.5191   52.7267 H   0  0  0  0  0  0  0  0  0  0  0  0
   59.1118   30.0285   52.2006 H   0  0  0  0  0  0  0  0  0  0  0  0
   59.1179   31.3826   50.9792 H   0  0  0  0  0  0  0  0  0  0  0  0
   58.1529   30.4999   49.0371 H   0  0  0  0  0  0  0  0  0  0  0  0
   58.4081   28.9844   47.0726 H   0  0  0  0  0  0  0  0  0  0  0  0
   58.1029   28.5355   45.5508 H   0  0  0  0  0  0  0  0  0  0  0  0
   54.8964   23.8185   45.3891 H   0  0  0  0  0  0  0  0  0  0  0  0
   54.5397   21.5323   46.3221 H   0  0  0  0  0  0  0  0  0  0  0  0
   55.8440   20.7707   48.3105 H   0  0  0  0  0  0  0  0  0  0  0  0
   57.8753   24.5911   48.4415 H   0  0  0  0  0  0  0  0  0  0  0  0
   61.3267   26.6484   49.2554 H   0  0  0  0  0  0  0  0  0  0  0  0
   61.0991   28.1823   51.2031 H   0  0  0  0  0  0  0  0  0  0  0  0
   63.6896   31.1179   50.2796 H   0  0  0  0  0  0  0  0  0  0  0  0
   62.2685   30.0609   49.8122 H   0  0  0  0  0  0  0  0  0  0  0  0
   63.2650   32.5969   48.4665 H   0  0  0  0  0  0  0  0  0  0  0  0
   63.0514   30.9461   47.7746 H   0  0  0  0  0  0  0  0  0  0  0  0
  1  2  1  0
  2  3  1  0
  3  4  2  0
  4  5  1  0
  5  6  2  0
  6  7  1  0
  7  8  2  0
  8  9  1  0
  9 10  1  0
  6 11  1  0
 11 12  1  0
 12 13  1  0
 13 14  1  0
 14 15  1  0
 15 16  2  0
 16 17  1  0
 17 18  2  0
 18 19  1  0
 19 20  1  0
 20 21  2  0
 20 22  1  0
 22 23  2  0
 23 24  1  0
 24 25  1  0
 25 26  1  0
 25 27  2  0
 27 28  1  0
 28 29  2  0
 29 30  1  0
 30 31  2  0
 31 32  1  0
 32 33  1  0
 32 34  2  0
 18 35  1  0
 35 36  2  0
 12 37  1  0
 37 38  1  0
  8  3  1  0
 36 15  1  0
 38  5  1  0
 27 22  1  0
 34 28  1  0
  1 39  1  0
  1 40  1  0
  1 41  1  0
  4 42  1  0
  7 43  1  0
 10 44  1  0
 10 45  1  0
 10 46  1  0
 11 47  1  0
 11 48  1  0
 13 49  1  0
 13 50  1  0
 14 51  1  0
 14 52  1  0
 16 53  1  0
 17 54  1  0
 23 55  1  0
 29 56  1  0
 30 57  1  0
 31 58  1  0
 34 59  1  0
 35 60  1  0
 36 61  1  0
 37 62  1  0
 37 63  1  0
 38 64  1  0
 38 65  1  0
M  CHG  4  19  -1  24  -1  26  -1  33  -1
M  END
>  <UniqueID>  (41) 
39

>  <SMILES>  (41) 
COc1cc2c(cc1OC)CN(CCc1ccc([N-]C(=O)c3c[n-]c([O-])c3-c3cccc([O-])c3)cc1)CC2

>  <Energy>  (41) 
118.06510236262963

>  <Genealogy>  (41) 
COc1cc2c(cc1OC)CN(CCc1ccc([N-]C(=O)c3c[n-]c([O-])c3-c3cccc([O-])c3)cc1)CC2 (protonated)
COc1cc2c(cc1OC)CN(CCc1ccc([N-]C(=O)c3c[n-]c([O-])c3-c3cccc([O-])c3)cc1)CC2 (3D coordinates assigned)
COc1cc2c(cc1OC)CN(CCc1ccc([N-]C(=O)c3c[n-]c([O-])c3-c3cccc([O-])c3)cc1)CC2 (nonaromatic ring conformer: 118.06510236262963 kcal/mol)

>  <smiles>  (41) 
COc1cc2c(cc1OC)CN(CCc1ccc(NC(=O)c3c[nH]c(O)c3-c3cccc(O)c3)cc1)CC2

>  <score_type>  (41) 
oracle

>  <origin>  (41) 
adg

>  <m_score__min__energy>  (41) 
-18.289999999999999

>  <m_primary>  (41) 
energy

$$$$
41:0
     RDKit          3D

 53 55  0  0  0  0  0  0  0  0999 V2000
   59.1160   29.1800   46.9350 H   0  0  0  0  0  0  0  0  0  0  0  0
   59.0970   28.4280   47.6130 O   0  0  0  0  0  0  0  0  0  0  0  0
   59.6130   28.5640   48.8870 N   0  0  0  0  0  0  0  0  0  0  0  0
   59.8270   29.7100   49.4650 C   0  0  0  0  0  0  0  0  0  0  0  0
   60.9170   30.5940   48.9740 C   0  0  0  0  0  0  0  0  0  0  0  0
   62.0210   30.8640   49.7960 C   0  0  0  0  0  0  0  0  0  0  0  0
   62.0788   30.4129   50.7976 H   0  0  0  0  0  0  0  0  0  0  0  0
   63.0450   31.6990   49.3540 C   0  0  0  0  0  0  0  0  0  0  0  0
   63.9169   31.8933   49.9959 H   0  0  0  0  0  0  0  0  0  0  0  0
   62.9570   32.2880   48.0900 C   0  0  0  0  0  0  0  0  0  0  0  0
   64.0660   33.1630   47.5870 C   0  0  0  0  0  0  0  0  0  0  0  0
   64.6103   33.5924   48.4410 H   0  0  0  0  0  0  0  0  0  0  0  0
   64.7569   32.5641   46.9755 H   0  0  0  0  0  0  0  0  0  0  0  0
   63.6443   33.9743   46.9755 H   0  0  0  0  0  0  0  0  0  0  0  0
   61.8910   32.0080   47.2880 N   0  0  0  0  0  0  0  0  0  0  0  0
   61.8320   32.4400   46.3370 H   0  0  0  0  0  0  0  0  0  0  0  0
   60.8840   31.1820   47.6880 C   0  0  0  0  0  0  0  0  0  0  0  0
   59.7840   30.9920   46.8480 O   0  0  0  0  0  0  0  0  0  0  0  0
   58.9540   31.9780   46.2730 C   0  0  0  0  0  0  0  0  0  0  0  0
   58.2830   31.6060   45.0840 C   0  0  0  0  0  0  0  0  0  0  0  0
   58.4870   30.2340   44.5000 C   0  0  0  0  0  0  0  0  0  0  0  0
   58.5959   29.5017   45.3136 H   0  0  0  0  0  0  0  0  0  0  0  0
   57.6187   29.9667   43.8798 H   0  0  0  0  0  0  0  0  0  0  0  0
   59.3955   30.2309   43.8798 H   0  0  0  0  0  0  0  0  0  0  0  0
   57.4600   32.5230   44.4150 C   0  0  0  0  0  0  0  0  0  0  0  0
   56.9492   32.2254   43.4873 H   0  0  0  0  0  0  0  0  0  0  0  0
   57.2870   33.8060   44.9190 C   0  0  0  0  0  0  0  0  0  0  0  0
   56.6390   34.5196   44.3890 H   0  0  0  0  0  0  0  0  0  0  0  0
   57.9300   34.1930   46.0920 C   0  0  0  0  0  0  0  0  0  0  0  0
   57.7778   35.2097   46.4834 H   0  0  0  0  0  0  0  0  0  0  0  0
   58.7730   33.3010   46.7850 C   0  0  0  0  0  0  0  0  0  0  0  0
   59.4360   33.8130   48.0390 C   0  0  0  0  0  0  0  0  0  0  0  0
   58.9147   33.4104   48.9200 H   0  0  0  0  0  0  0  0  0  0  0  0
   60.4874   33.4902   48.0559 H   0  0  0  0  0  0  0  0  0  0  0  0
   59.3895   34.9119   48.0559 H   0  0  0  0  0  0  0  0  0  0  0  0
   59.0080   30.1240   50.5710 N   0  0  0  0  0  0  0  0  0  0  0  0
   58.1560   31.3060   50.4190 C   0  0  0  0  0  0  0  0  0  0  0  0
   58.7896   32.2042   50.3773 H   0  0  0  0  0  0  0  0  0  0  0  0
   57.5743   31.2042   49.4910 H   0  0  0  0  0  0  0  0  0  0  0  0
   57.1860   31.4310   51.5940 C   0  0  0  0  0  0  0  0  0  0  0  0
   57.6953   31.9079   52.4444 H   0  0  0  0  0  0  0  0  0  0  0  0
   56.3226   32.0464   51.3012 H   0  0  0  0  0  0  0  0  0  0  0  0
   56.7320   30.0860   51.9810 N   0  0  0  0  0  0  0  0  0  0  0  0
   55.5720   30.1680   52.8830 C   0  0  0  0  0  0  0  0  0  0  0  0
   55.9170   30.1436   53.9272 H   0  0  0  0  0  0  0  0  0  0  0  0
   55.0293   31.1067   52.6980 H   0  0  0  0  0  0  0  0  0  0  0  0
   54.9026   29.3149   52.6980 H   0  0  0  0  0  0  0  0  0  0  0  0
   57.8310   29.3270   52.6210 C   0  0  0  0  0  0  0  0  0  0  0  0
   57.9511   29.6861   53.6538 H   0  0  0  0  0  0  0  0  0  0  0  0
   57.5602   28.2614   52.5881 H   0  0  0  0  0  0  0  0  0  0  0  0
   59.1790   29.4870   51.8830 C   0  0  0  0  0  0  0  0  0  0  0  0
   59.8494   30.1075   52.4958 H   0  0  0  0  0  0  0  0  0  0  0  0
   59.6042   28.4849   51.7247 H   0  0  0  0  0  0  0  0  0  0  0  0
  1  2  1  0
  2  3  1  0
  3  4  2  0
  4  5  1  0
  5  6  2  0
  6  7  1  0
  6  8  1  0
  8  9  1  0
  8 10  2  0
 10 11  1  0
 11 12  1  0
 11 13  1  0
 11 14  1  0
 10 15  1  0
 15 16  1  0
 15 17  2  0
 17 18  1  0
 18 19  1  0
 19 20  2  0
 20 21  1  0
 21 22  1  0
 21 23  1  0
 21 24  1  0
 20 25  1  0
 25 26  1  0
 25 27  2  0
 27 28  1  0
 27 29  1  0
 29 30  1  0
 29 31  2  0
 31 32  1  0
 32 33  1  0
 32 34  1  0
 32 35  1  0
  4 36  1  0
 36 37  1  0
 37 38  1  0
 37 39  1  0
 37 40  1  0
 40 41  1  0
 40 42  1  0
 40 43  1  0
 43 44  1  0
 44 45  1  0
 44 46  1  0
 44 47  1  0
 43 48  1  0
 48 49  1  0
 48 50  1  0
 48 51  1  0
 51 52  1  0
 51 53  1  0
 17  5  1  0
 31 19  1  0
 51 36  1  0
M  CHG  1  15   1
M  END
>  <UniqueID>  (42) 
40

>  <SMILES>  (42) 
Cc1ccc(/C(=N/O)N2CCN(C)CC2)c(Oc2c(C)cccc2C)[nH+]1

>  <Energy>  (42) 
79.81713271994366

>  <Genealogy>  (42) 
Cc1ccc(C(=NO)N2CCN(C)CC2)c(Oc2c(C)cccc2C)[nH+]1 (protonated)
Cc1ccc(/C(=N/O)N2CCN(C)CC2)c(Oc2c(C)cccc2C)[nH+]1 (cis-trans isomerization)
Cc1ccc(/C(=N/O)N2CCN(C)CC2)c(Oc2c(C)cccc2C)[nH+]1 (3D coordinates assigned)
Cc1ccc(/C(=N/O)N2CCN(C)CC2)c(Oc2c(C)cccc2C)[nH+]1 (nonaromatic ring conformer: 79.81713271994366 kcal/mol)

>  <smiles>  (42) 
Cc1ccc(C(=NO)N2CCN(C)CC2)c(Oc2c(C)cccc2C)n1

>  <score_type>  (42) 
oracle

>  <origin>  (42) 
adg

>  <m_score__min__energy>  (42) 
-7.1699999999999999

>  <m_primary>  (42) 
energy

$$$$
42:0
     RDKit          3D

 54 57  0  0  0  0  0  0  0  0999 V2000
   59.2020   34.3940   44.8330 C   0  0  0  0  0  0  0  0  0  0  0  0
   59.6990   33.6300   45.9910 N   0  0  0  0  0  0  0  0  0  0  0  0
   60.5390   34.4610   46.8830 C   0  0  0  0  0  0  0  0  0  0  0  0
   61.8720   33.8360   47.2060 C   0  0  0  0  0  0  0  0  0  0  0  0
   62.9650   33.7170   46.3690 C   0  0  0  0  0  0  0  0  0  0  0  0
   63.9790   33.1410   47.0460 N   0  0  0  0  0  0  0  0  0  0  0  0
   63.5470   32.8860   48.2710 N   0  0  0  0  0  0  0  0  0  0  0  0
   64.3810   32.3300   49.3270 C   0  0  0  0  0  0  0  0  0  0  0  0
   62.2770   33.3060   48.4130 C   0  0  0  0  0  0  0  0  0  0  0  0
   58.6010   32.9610   46.7190 C   0  0  0  0  0  0  0  0  0  0  0  0
   58.1350   31.7550   45.9640 C   0  0  0  0  0  0  0  0  0  0  0  0
   57.5670   31.7550   44.6960 C   0  0  0  0  0  0  0  0  0  0  0  0
   57.2760   30.4690   44.2200 C   0  0  0  0  0  0  0  0  0  0  0  0
   57.6230   29.4490   45.1100 C   0  0  0  0  0  0  0  0  0  0  0  0
   57.4510   27.9880   44.8980 C   0  0  0  0  0  0  0  0  0  0  0  0
   56.7900   27.2040   45.8620 C   0  0  0  0  0  0  0  0  0  0  0  0
   56.6240   25.8300   45.6700 C   0  0  0  0  0  0  0  0  0  0  0  0
   57.1190   25.2060   44.5140 C   0  0  0  0  0  0  0  0  0  0  0  0
   56.9380   23.7920   44.3100 N   0  0  0  0  0  0  0  0  0  0  0  0
   57.2320   22.8290   45.3800 C   0  0  0  0  0  0  0  0  0  0  0  0
   58.1020   21.6700   44.8500 C   0  0  0  0  0  0  0  0  0  0  0  0
   57.9960   21.4800   43.3900 N   0  0  0  0  0  0  0  0  0  0  0  0
   56.6520   21.7910   42.8920 C   0  0  0  0  0  0  0  0  0  0  0  0
   56.3950   23.2930   43.0390 C   0  0  0  0  0  0  0  0  0  0  0  0
   57.7680   25.9870   43.5450 C   0  0  0  0  0  0  0  0  0  0  0  0
   57.9340   27.3620   43.7350 C   0  0  0  0  0  0  0  0  0  0  0  0
   58.2950   30.1670   46.4830 S   0  0  0  0  0  0  0  0  0  0  0  0
   58.6340   35.2672   45.1863 H   0  0  0  0  0  0  0  0  0  0  0  0
   60.0534   34.7323   44.2242 H   0  0  0  0  0  0  0  0  0  0  0  0
   58.5477   33.7528   44.2242 H   0  0  0  0  0  0  0  0  0  0  0  0
   60.7179   35.4286   46.3913 H   0  0  0  0  0  0  0  0  0  0  0  0
   59.9939   34.5705   47.8322 H   0  0  0  0  0  0  0  0  0  0  0  0
   63.0020   34.0405   45.3183 H   0  0  0  0  0  0  0  0  0  0  0  0
   63.9652   32.6072   50.3069 H   0  0  0  0  0  0  0  0  0  0  0  0
   64.4058   31.2341   49.2360 H   0  0  0  0  0  0  0  0  0  0  0  0
   65.4022   32.7287   49.2360 H   0  0  0  0  0  0  0  0  0  0  0  0
   61.6702   33.2387   49.3280 H   0  0  0  0  0  0  0  0  0  0  0  0
   58.9598   32.6513   47.7117 H   0  0  0  0  0  0  0  0  0  0  0  0
   57.7612   33.6637   46.8238 H   0  0  0  0  0  0  0  0  0  0  0  0
   57.3658   32.6722   44.1231 H   0  0  0  0  0  0  0  0  0  0  0  0
   56.8175   30.2804   43.2380 H   0  0  0  0  0  0  0  0  0  0  0  0
   56.4004   27.6774   46.7753 H   0  0  0  0  0  0  0  0  0  0  0  0
   56.1011   25.2322   46.4310 H   0  0  0  0  0  0  0  0  0  0  0  0
   57.7704   23.3430   46.1899 H   0  0  0  0  0  0  0  0  0  0  0  0
   56.2833   22.4158   45.7530 H   0  0  0  0  0  0  0  0  0  0  0  0
   59.1526   21.8799   45.0993 H   0  0  0  0  0  0  0  0  0  0  0  0
   57.7393   20.7468   45.3256 H   0  0  0  0  0  0  0  0  0  0  0  0
   58.2010   20.4760   43.1740 H   0  0  0  0  0  0  0  0  0  0  0  0
   56.5778   21.5072   41.8318 H   0  0  0  0  0  0  0  0  0  0  0  0
   55.9043   21.2299   43.4719 H   0  0  0  0  0  0  0  0  0  0  0  0
   56.8784   23.8250   42.2064 H   0  0  0  0  0  0  0  0  0  0  0  0
   55.3092   23.4685   43.0257 H   0  0  0  0  0  0  0  0  0  0  0  0
   58.1492   25.5131   42.6284 H   0  0  0  0  0  0  0  0  0  0  0  0
   58.4473   27.9600   42.9675 H   0  0  0  0  0  0  0  0  0  0  0  0
  1  2  1  0
  2  3  1  0
  3  4  1  0
  4  5  1  0
  5  6  2  0
  6  7  1  0
  7  8  1  0
  7  9  1  0
  2 10  1  0
 10 11  1  0
 11 12  2  0
 12 13  1  0
 13 14  2  0
 14 15  1  0
 15 16  2  0
 16 17  1  0
 17 18  2  0
 18 19  1  0
 19 20  1  0
 20 21  1  0
 21 22  1  0
 22 23  1  0
 23 24  1  0
 18 25  1  0
 25 26  2  0
 14 27  1  0
  9  4  2  0
 27 11  1  0
 26 15  1  0
 24 19  1  0
  1 28  1  0
  1 29  1  0
  1 30  1  0
  3 31  1  0
  3 32  1  0
  5 33  1  0
  8 34  1  0
  8 35  1  0
  8 36  1  0
  9 37  1  0
 10 38  1  0
 10 39  1  0
 12 40  1  0
 13 41  1  0
 16 42  1  0
 17 43  1  0
 20 44  1  0
 20 45  1  0
 21 46  1  0
 21 47  1  0
 22 48  1  0
 23 49  1  0
 23 50  1  0
 24 51  1  0
 24 52  1  0
 25 53  1  0
 26 54  1  0
M  END
>  <UniqueID>  (43) 
41

>  <SMILES>  (43) 
CN(Cc1cnn(C)c1)Cc1ccc(-c2ccc(N3CCNCC3)cc2)s1

>  <Energy>  (43) 
122.70385158697796

>  <Genealogy>  (43) 
CN(Cc1cnn(C)c1)Cc1ccc(-c2ccc(N3CCNCC3)cc2)s1 (3D coordinates assigned)
CN(Cc1cnn(C)c1)Cc1ccc(-c2ccc(N3CCNCC3)cc2)s1 (nonaromatic ring conformer: 122.70385158697796 kcal/mol)

>  <smiles>  (43) 
CN(Cc1cnn(C)c1)Cc1ccc(-c2ccc(N3CCNCC3)cc2)s1

>  <score_type>  (43) 
oracle

>  <origin>  (43) 
adg

>  <m_score__min__energy>  (43) 
-8.2899999999999991

>  <m_primary>  (43) 
energy

$$$$
43:0
     RDKit          3D

 38 40  0  0  0  0  0  0  0  0999 V2000
   57.6430   19.4330   46.7220 N   0  0  0  0  0  0  0  0  0  0  0  0
   57.3800   20.3060   46.0090 C   0  0  0  0  0  0  0  0  0  0  0  0
   57.0510   21.3950   45.1200 C   0  0  0  0  0  0  0  0  0  0  0  0
   57.4790   22.6910   45.4320 C   0  0  0  0  0  0  0  0  0  0  0  0
   57.1670   23.7640   44.5810 C   0  0  0  0  0  0  0  0  0  0  0  0
   57.6080   25.1430   44.9020 C   0  0  0  0  0  0  0  0  0  0  0  0
   58.0580   25.9920   43.8750 C   0  0  0  0  0  0  0  0  0  0  0  0
   58.4720   27.2950   44.1630 C   0  0  0  0  0  0  0  0  0  0  0  0
   58.4580   27.7660   45.4820 C   0  0  0  0  0  0  0  0  0  0  0  0
   58.8910   29.1450   45.7880 C   0  0  0  0  0  0  0  0  0  0  0  0
   60.1190   29.3270   46.4430 C   0  0  0  0  0  0  0  0  0  0  0  0
   60.5610   30.6080   46.7770 C   0  0  0  0  0  0  0  0  0  0  0  0
   59.7830   31.7200   46.4570 C   0  0  0  0  0  0  0  0  0  0  0  0
   58.5650   31.5570   45.7940 C   0  0  0  0  0  0  0  0  0  0  0  0
   58.1080   30.2750   45.4420 C   0  0  0  0  0  0  0  0  0  0  0  0
   56.5860   30.1220   44.5480 S   0  0  0  0  0  0  0  0  0  0  0  0
   56.8830   29.5810   42.9310 N   0  0  0  0  0  0  0  0  0  0  0  0
   55.6980   29.1140   45.2250 O   0  0  0  0  0  0  0  0  0  0  0  0
   55.8900   31.4530   44.5020 O   0  0  0  0  0  0  0  0  0  0  0  0
   58.0010   26.9290   46.5090 C   0  0  0  0  0  0  0  0  0  0  0  0
   57.5830   25.6240   46.2260 C   0  0  0  0  0  0  0  0  0  0  0  0
   57.1930   24.8240   47.2510 F   0  0  0  0  0  0  0  0  0  0  0  0
   56.4130   23.5050   43.4260 C   0  0  0  0  0  0  0  0  0  0  0  0
   56.0080   22.2400   43.1400 N   0  0  0  0  0  0  0  0  0  0  0  0
   56.3040   21.1850   43.9480 C   0  0  0  0  0  0  0  0  0  0  0  0
   55.8930   19.9980   43.6300 N   0  0  0  0  0  0  0  0  0  0  0  0
   58.0621   22.8697   46.3475 H   0  0  0  0  0  0  0  0  0  0  0  0
   58.0842   25.6275   42.8375 H   0  0  0  0  0  0  0  0  0  0  0  0
   58.8105   27.9541   43.3500 H   0  0  0  0  0  0  0  0  0  0  0  0
   60.7378   28.4532   46.6950 H   0  0  0  0  0  0  0  0  0  0  0  0
   61.5235   30.7404   47.2929 H   0  0  0  0  0  0  0  0  0  0  0  0
   60.1297   32.7283   46.7276 H   0  0  0  0  0  0  0  0  0  0  0  0
   57.9576   32.4396   45.5449 H   0  0  0  0  0  0  0  0  0  0  0  0
   56.6160   28.5720   42.8900 H   0  0  0  0  0  0  0  0  0  0  0  0
   57.9150   29.6190   42.7810 H   0  0  0  0  0  0  0  0  0  0  0  0
   57.9707   27.3003   47.5440 H   0  0  0  0  0  0  0  0  0  0  0  0
   56.1485   24.3304   42.7487 H   0  0  0  0  0  0  0  0  0  0  0  0
   56.4980   19.1560   43.7600 H   0  0  0  0  0  0  0  0  0  0  0  0
  1  2  3  0
  2  3  1  0
  3  4  2  0
  4  5  1  0
  5  6  1  0
  6  7  2  0
  7  8  1  0
  8  9  2  0
  9 10  1  0
 10 11  2  0
 11 12  1  0
 12 13  2  0
 13 14  1  0
 14 15  2  0
 15 16  1  0
 16 17  1  0
 16 18  2  0
 16 19  2  0
  9 20  1  0
 20 21  2  0
 21 22  1  0
  5 23  2  0
 23 24  1  0
 24 25  1  0
 25 26  2  3
 25  3  1  0
 21  6  1  0
 15 10  1  0
  4 27  1  0
  7 28  1  0
  8 29  1  0
 11 30  1  0
 12 31  1  0
 13 32  1  0
 14 33  1  0
 17 34  1  0
 17 35  1  0
 20 36  1  0
 23 37  1  0
 26 38  1  0
M  CHG  1  24  -1
M  END
>  <UniqueID>  (44) 
42

>  <SMILES>  (44) 
N#Cc1cc(-c2ccc(-c3ccccc3S(N)(=O)=O)cc2F)c[n-]c1=N

>  <Energy>  (44) 
55.518385312440195

>  <Genealogy>  (44) 
N#Cc1cc(-c2ccc(-c3ccccc3S(N)(=O)=O)cc2F)c[n-]c1=N (protonated)
N#Cc1cc(-c2ccc(-c3ccccc3S(N)(=O)=O)cc2F)c[n-]c1=N (3D coordinates assigned)
N#Cc1cc(-c2ccc(-c3ccccc3S(N)(=O)=O)cc2F)c[n-]c1=N (optimized conformer: 55.518385312440195 kcal/mol)

>  <smiles>  (44) 
N#Cc1cc(-c2ccc(-c3ccccc3S(N)(=O)=O)cc2F)c[nH]c1=N

>  <score_type>  (44) 
oracle

>  <origin>  (44) 
adg

>  <m_score__min__energy>  (44) 
-10.43

>  <m_primary>  (44) 
energy

$$$$
44:0
     RDKit          3D

 45 47  0  0  0  0  0  0  0  0999 V2000
   55.8760   25.1820   45.7330 C   0  0  0  0  0  0  0  0  0  0  0  0
   55.7350   26.5580   46.0720 O   0  0  0  0  0  0  0  0  0  0  0  0
   56.8060   27.4540   46.2160 C   0  0  0  0  0  0  0  0  0  0  0  0
   57.9600   27.1270   46.9550 C   0  0  0  0  0  0  0  0  0  0  0  0
   59.0040   28.0460   47.0760 C   0  0  0  0  0  0  0  0  0  0  0  0
   58.9120   29.3020   46.4700 C   0  0  0  0  0  0  0  0  0  0  0  0
   60.2300   30.4560   46.6530 S   0  0  0  0  0  0  0  0  0  0  0  0
   59.9190   31.7420   45.9380 O   0  0  0  0  0  0  0  0  0  0  0  0
   61.4760   29.8600   46.0660 O   0  0  0  0  0  0  0  0  0  0  0  0
   60.4890   30.7890   48.3360 N   0  0  0  0  0  0  0  0  0  0  0  0
   59.4340   30.8010   49.3140 C   0  0  0  0  0  0  0  0  0  0  0  0
   58.9950   29.6170   49.9340 C   0  0  0  0  0  0  0  0  0  0  0  0
   58.0010   29.6520   50.8590 N   0  0  0  0  0  0  0  0  0  0  0  0
   57.3990   30.8140   51.2190 C   0  0  0  0  0  0  0  0  0  0  0  0
   57.7910   32.0150   50.6290 C   0  0  0  0  0  0  0  0  0  0  0  0
   58.8040   32.0140   49.6550 C   0  0  0  0  0  0  0  0  0  0  0  0
   59.2400   33.2070   49.0570 O   0  0  0  0  0  0  0  0  0  0  0  0
   58.8960   33.6470   47.7700 C   0  0  0  0  0  0  0  0  0  0  0  0
   57.7030   33.2450   47.1400 C   0  0  0  0  0  0  0  0  0  0  0  0
   57.4050   33.6940   45.8500 C   0  0  0  0  0  0  0  0  0  0  0  0
   58.2950   34.5350   45.1770 C   0  0  0  0  0  0  0  0  0  0  0  0
   59.4900   34.9200   45.7900 C   0  0  0  0  0  0  0  0  0  0  0  0
   59.7920   34.4720   47.0800 C   0  0  0  0  0  0  0  0  0  0  0  0
   57.7700   29.6330   45.7280 C   0  0  0  0  0  0  0  0  0  0  0  0
   56.7120   28.7120   45.5980 C   0  0  0  0  0  0  0  0  0  0  0  0
   55.5510   29.0090   44.8670 O   0  0  0  0  0  0  0  0  0  0  0  0
   55.5310   29.7430   43.6460 C   0  0  0  0  0  0  0  0  0  0  0  0
   55.9375   24.5822   46.6530 H   0  0  0  0  0  0  0  0  0  0  0  0
   55.0063   24.8590   45.1421 H   0  0  0  0  0  0  0  0  0  0  0  0
   56.7932   25.0421   45.1421 H   0  0  0  0  0  0  0  0  0  0  0  0
   58.0389   26.1425   47.4392 H   0  0  0  0  0  0  0  0  0  0  0  0
   59.9033   27.7802   47.6510 H   0  0  0  0  0  0  0  0  0  0  0  0
   61.4830   30.8700   48.6480 H   0  0  0  0  0  0  0  0  0  0  0  0
   59.4599   28.6563   49.6679 H   0  0  0  0  0  0  0  0  0  0  0  0
   56.6015   30.8082   51.9766 H   0  0  0  0  0  0  0  0  0  0  0  0
   57.3096   32.9589   50.9246 H   0  0  0  0  0  0  0  0  0  0  0  0
   57.0040   32.5763   47.6637 H   0  0  0  0  0  0  0  0  0  0  0  0
   56.4680   33.3846   45.3639 H   0  0  0  0  0  0  0  0  0  0  0  0
   58.0550   34.8937   44.1652 H   0  0  0  0  0  0  0  0  0  0  0  0
   60.1941   35.5762   45.2574 H   0  0  0  0  0  0  0  0  0  0  0  0
   60.7386   34.7695   47.5549 H   0  0  0  0  0  0  0  0  0  0  0  0
   57.6994   30.6183   45.2440 H   0  0  0  0  0  0  0  0  0  0  0  0
   55.5016   30.8203   43.8663 H   0  0  0  0  0  0  0  0  0  0  0  0
   56.4358   29.5121   43.0645 H   0  0  0  0  0  0  0  0  0  0  0  0
   54.6401   29.4632   43.0645 H   0  0  0  0  0  0  0  0  0  0  0  0
  1  2  1  0
  2  3  1  0
  3  4  2  0
  4  5  1  0
  5  6  2  0
  6  7  1  0
  7  8  2  0
  7  9  2  0
  7 10  1  0
 10 11  1  0
 11 12  2  0
 12 13  1  0
 13 14  2  0
 14 15  1  0
 15 16  2  0
 16 17  1  0
 17 18  1  0
 18 19  2  0
 19 20  1  0
 20 21  2  0
 21 22  1  0
 22 23  2  0
  6 24  1  0
 24 25  2  0
 25 26  1  0
 26 27  1  0
 25  3  1  0
 16 11  1  0
 23 18  1  0
  1 28  1  0
  1 29  1  0
  1 30  1  0
  4 31  1  0
  5 32  1  0
 10 33  1  0
 12 34  1  0
 14 35  1  0
 15 36  1  0
 19 37  1  0
 20 38  1  0
 21 39  1  0
 22 40  1  0
 23 41  1  0
 24 42  1  0
 27 43  1  0
 27 44  1  0
 27 45  1  0
M  END
>  <UniqueID>  (45) 
43

>  <SMILES>  (45) 
COc1ccc(S(=O)(=O)Nc2cnccc2Oc2ccccc2)cc1OC

>  <Energy>  (45) 
57.032270280293375

>  <Genealogy>  (45) 
COc1ccc(S(=O)(=O)Nc2cnccc2Oc2ccccc2)cc1OC (3D coordinates assigned)
COc1ccc(S(=O)(=O)Nc2cnccc2Oc2ccccc2)cc1OC (optimized conformer: 57.032270280293375 kcal/mol)

>  <smiles>  (45) 
COc1ccc(S(=O)(=O)Nc2cnccc2Oc2ccccc2)cc1OC

>  <score_type>  (45) 
oracle

>  <origin>  (45) 
adg

>  <m_score__min__energy>  (45) 
-8.0500000000000007

>  <m_primary>  (45) 
energy

$$$$
45:0
     RDKit          3D

 37 39  0  0  0  0  0  0  0  0999 V2000
   55.1370   29.3370   44.7760 O   0  0  0  0  0  0  0  0  0  0  0  0
   56.3890   29.4460   44.8540 C   0  0  0  0  0  0  0  0  0  0  0  0
   57.1400   28.3490   45.3970 N   0  0  0  0  0  0  0  0  0  0  0  0
   58.1680   28.4550   46.1860 C   0  0  0  0  0  0  0  0  0  0  0  0
   58.1630   28.1030   47.4920 N   0  0  0  0  0  0  0  0  0  0  0  0
   59.3830   28.2910   48.0610 C   0  0  0  0  0  0  0  0  0  0  0  0
   60.3630   28.7830   47.2050 C   0  0  0  0  0  0  0  0  0  0  0  0
   59.6750   28.9890   45.6820 S   0  0  0  0  0  0  0  0  0  0  0  0
   57.0420   30.6720   44.3350 C   0  0  0  0  0  0  0  0  0  0  0  0
   57.1290   30.9100   42.9530 C   0  0  0  0  0  0  0  0  0  0  0  0
   57.7440   32.0700   42.4750 C   0  0  0  0  0  0  0  0  0  0  0  0
   58.2650   33.0080   43.3680 C   0  0  0  0  0  0  0  0  0  0  0  0
   58.1640   32.7960   44.7490 C   0  0  0  0  0  0  0  0  0  0  0  0
   58.8510   33.9670   45.8710 S   0  0  0  0  0  0  0  0  0  0  0  0
   59.4640   35.0980   45.0940 O   0  0  0  0  0  0  0  0  0  0  0  0
   57.7650   34.5240   46.7510 O   0  0  0  0  0  0  0  0  0  0  0  0
   60.0780   33.1870   46.8370 N   0  0  0  0  0  0  0  0  0  0  0  0
   61.4280   33.5390   46.3900 C   0  0  0  0  0  0  0  0  0  0  0  0
   62.3360   33.4120   47.6060 C   0  0  0  0  0  0  0  0  0  0  0  0
   61.4080   33.4380   48.8120 C   0  0  0  0  0  0  0  0  0  0  0  0
   60.0050   33.5910   48.2420 C   0  0  0  0  0  0  0  0  0  0  0  0
   57.5510   31.6300   45.2290 C   0  0  0  0  0  0  0  0  0  0  0  0
   59.5808   28.0704   49.1203 H   0  0  0  0  0  0  0  0  0  0  0  0
   61.4068   28.9999   47.4761 H   0  0  0  0  0  0  0  0  0  0  0  0
   56.7111   30.1799   42.2442 H   0  0  0  0  0  0  0  0  0  0  0  0
   57.8179   32.2447   41.3915 H   0  0  0  0  0  0  0  0  0  0  0  0
   58.7559   33.9155   42.9865 H   0  0  0  0  0  0  0  0  0  0  0  0
   59.9490   32.1490   46.7670 H   0  0  0  0  0  0  0  0  0  0  0  0
   61.7568   32.8509   45.5973 H   0  0  0  0  0  0  0  0  0  0  0  0
   61.4563   34.5588   45.9786 H   0  0  0  0  0  0  0  0  0  0  0  0
   62.8946   32.4650   47.5713 H   0  0  0  0  0  0  0  0  0  0  0  0
   63.0795   34.2217   47.6461 H   0  0  0  0  0  0  0  0  0  0  0  0
   61.4915   32.5007   49.3816 H   0  0  0  0  0  0  0  0  0  0  0  0
   61.6594   34.2562   49.5029 H   0  0  0  0  0  0  0  0  0  0  0  0
   59.3014   32.9443   48.7868 H   0  0  0  0  0  0  0  0  0  0  0  0
   59.6483   34.6271   48.3388 H   0  0  0  0  0  0  0  0  0  0  0  0
   57.4677   31.4636   46.3132 H   0  0  0  0  0  0  0  0  0  0  0  0
  1  2  2  0
  2  3  1  0
  3  4  2  3
  4  5  1  0
  5  6  1  0
  6  7  2  0
  7  8  1  0
  2  9  1  0
  9 10  2  0
 10 11  1  0
 11 12  2  0
 12 13  1  0
 13 14  1  0
 14 15  2  0
 14 16  2  0
 14 17  1  0
 17 18  1  0
 18 19  1  0
 19 20  1  0
 20 21  1  0
 13 22  2  0
  8  4  1  0
 22  9  1  0
 21 17  1  0
  6 23  1  0
  7 24  1  0
 10 25  1  0
 11 26  1  0
 12 27  1  0
 17 28  1  0
 18 29  1  0
 18 30  1  0
 19 31  1  0
 19 32  1  0
 20 33  1  0
 20 34  1  0
 21 35  1  0
 21 36  1  0
 22 37  1  0
M  CHG  2   5  -1  17   1
M  END
>  <UniqueID>  (46) 
44

>  <SMILES>  (46) 
O=C(N=c1[n-]ccs1)c1cccc(S(=O)(=O)[NH+]2CCCC2)c1

>  <Energy>  (46) 
75.95973027953303

>  <Genealogy>  (46) 
O=C(N=c1[n-]ccs1)c1cccc(S(=O)(=O)[NH+]2CCCC2)c1 (protonated)
O=C(N=c1[n-]ccs1)c1cccc(S(=O)(=O)[NH+]2CCCC2)c1 (3D coordinates assigned)
O=C(N=c1[n-]ccs1)c1cccc(S(=O)(=O)[NH+]2CCCC2)c1 (nonaromatic ring conformer: 75.95973027953303 kcal/mol)

>  <smiles>  (46) 
O=C(N=c1[nH]ccs1)c1cccc(S(=O)(=O)N2CCCC2)c1

>  <score_type>  (46) 
oracle

>  <origin>  (46) 
adg

>  <m_score__min__energy>  (46) 
-9.1799999999999997

>  <m_primary>  (46) 
energy

$$$$
46:0
     RDKit          3D

 80 85  0  0  0  0  0  0  0  0999 V2000
   59.9410   35.6710   46.4780 O   0  0  0  0  0  0  0  0  0  0  0  0
   59.4830   34.6700   47.0960 C   0  0  0  0  0  0  0  0  0  0  0  0
   59.6760   34.5470   48.5140 N   0  0  0  0  0  0  0  0  0  0  0  0
   60.9040   34.1280   49.1880 C   0  0  2  0  0  0  0  0  0  0  0  0
   61.5560   32.9440   48.4470 C   0  0  0  0  0  0  0  0  0  0  0  0
   62.9640   32.7020   48.9150 C   0  0  0  0  0  0  0  0  0  0  0  0
   64.1060   33.3520   48.4570 C   0  0  0  0  0  0  0  0  0  0  0  0
   65.2020   32.9020   49.1090 N   0  0  0  0  0  0  0  0  0  0  0  0
   64.7620   31.9730   49.9740 C   0  0  0  0  0  0  0  0  0  0  0  0
   65.5290   31.2180   50.8590 C   0  0  0  0  0  0  0  0  0  0  0  0
   64.8620   30.2870   51.6760 C   0  0  0  0  0  0  0  0  0  0  0  0
   63.4600   30.1340   51.5910 C   0  0  0  0  0  0  0  0  0  0  0  0
   62.7130   30.9080   50.6850 C   0  0  0  0  0  0  0  0  0  0  0  0
   63.4010   31.8240   49.8870 C   0  0  0  0  0  0  0  0  0  0  0  0
   60.6360   33.8400   50.6410 C   0  0  0  0  0  0  0  0  0  0  0  0
   59.4490   33.7380   51.0490 O   0  0  0  0  0  0  0  0  0  0  0  0
   61.6820   33.6450   51.5350 O   0  0  0  0  0  0  0  0  0  0  0  0
   58.7340   33.6260   46.3590 C   0  0  0  0  0  0  0  0  0  0  0  0
   59.3490   32.4080   46.0200 C   0  0  0  0  0  0  0  0  0  0  0  0
   58.6510   31.4360   45.2960 C   0  0  0  0  0  0  0  0  0  0  0  0
   57.3270   31.6700   44.8910 C   0  0  0  0  0  0  0  0  0  0  0  0
   56.5950   30.6560   44.0480 C   0  0  0  0  0  0  0  0  0  0  0  0
   56.9350   29.2070   44.4350 C   0  0  0  0  0  0  0  0  0  0  0  0
   55.8840   28.5840   45.2450 N   0  0  0  0  0  0  0  0  0  0  0  0
   56.3340   27.0120   45.8420 S   0  0  0  0  0  0  0  0  0  0  0  0
   57.0510   27.0840   47.1620 O   0  0  0  0  0  0  0  0  0  0  0  0
   55.0850   26.1970   46.0150 O   0  0  0  0  0  0  0  0  0  0  0  0
   57.3360   26.2340   44.6640 N   0  0  0  0  0  0  0  0  0  0  0  0
   57.6350   24.8350   44.6900 C   0  0  0  0  0  0  0  0  0  0  0  0
   56.8870   23.9780   43.8700 C   0  0  0  0  0  0  0  0  0  0  0  0
   57.1460   22.6070   43.8580 C   0  0  0  0  0  0  0  0  0  0  0  0
   58.1420   22.0780   44.6800 C   0  0  0  0  0  0  0  0  0  0  0  0
   58.8720   22.9170   45.5270 C   0  0  0  0  0  0  0  0  0  0  0  0
   58.6140   24.3030   45.5560 C   0  0  0  0  0  0  0  0  0  0  0  0
   59.2840   25.1670   46.4380 O   0  0  0  0  0  0  0  0  0  0  0  0
   60.2840   26.1220   46.0760 C   0  0  0  0  0  0  0  0  0  0  0  0
   59.8450   27.5310   46.4780 C   0  0  0  0  0  0  0  0  0  0  0  0
   60.0890   27.7690   47.9360 C   0  0  0  0  0  0  0  0  0  0  0  0
   60.6590   26.8790   48.8400 C   0  0  0  0  0  0  0  0  0  0  0  0
   60.6660   27.4100   50.0830 N   0  0  0  0  0  0  0  0  0  0  0  0
   60.0970   28.6230   49.9720 C   0  0  0  0  0  0  0  0  0  0  0  0
   59.8650   29.5440   50.9930 C   0  0  0  0  0  0  0  0  0  0  0  0
   59.2340   30.7550   50.6540 C   0  0  0  0  0  0  0  0  0  0  0  0
   58.8540   31.0190   49.3190 C   0  0  0  0  0  0  0  0  0  0  0  0
   58.2290   32.2240   49.0110 O   0  0  0  0  0  0  0  0  0  0  0  0
   59.1060   30.0660   48.3090 C   0  0  0  0  0  0  0  0  0  0  0  0
   59.7310   28.8770   48.6770 C   0  0  0  0  0  0  0  0  0  0  0  0
   56.7050   32.8770   45.2410 C   0  0  0  0  0  0  0  0  0  0  0  0
   57.4010   33.8470   45.9660 C   0  0  0  0  0  0  0  0  0  0  0  0
   61.6324   34.9518   49.1592 H   0  0  0  0  0  0  0  0  0  0  0  0
   60.9594   32.0379   48.6285 H   0  0  0  0  0  0  0  0  0  0  0  0
   61.5883   33.1867   47.3746 H   0  0  0  0  0  0  0  0  0  0  0  0
   64.1159   34.1243   47.6737 H   0  0  0  0  0  0  0  0  0  0  0  0
   66.1880   33.2130   48.9660 H   0  0  0  0  0  0  0  0  0  0  0  0
   66.6200   31.3457   50.9169 H   0  0  0  0  0  0  0  0  0  0  0  0
   65.4361   29.6737   52.3861 H   0  0  0  0  0  0  0  0  0  0  0  0
   62.9496   29.4050   52.2375 H   0  0  0  0  0  0  0  0  0  0  0  0
   61.6215   30.7953   50.6076 H   0  0  0  0  0  0  0  0  0  0  0  0
   60.3881   32.2179   46.3268 H   0  0  0  0  0  0  0  0  0  0  0  0
   59.1412   30.4844   45.0428 H   0  0  0  0  0  0  0  0  0  0  0  0
   55.5130   30.8092   44.1735 H   0  0  0  0  0  0  0  0  0  0  0  0
   56.9081   30.8035   43.0039 H   0  0  0  0  0  0  0  0  0  0  0  0
   57.0686   28.6178   43.5157 H   0  0  0  0  0  0  0  0  0  0  0  0
   57.8551   29.2277   45.0375 H   0  0  0  0  0  0  0  0  0  0  0  0
   56.0908   24.3893   43.2320 H   0  0  0  0  0  0  0  0  0  0  0  0
   56.5652   21.9432   43.2007 H   0  0  0  0  0  0  0  0  0  0  0  0
   58.3531   20.9986   44.6614 H   0  0  0  0  0  0  0  0  0  0  0  0
   59.6530   22.4931   46.1753 H   0  0  0  0  0  0  0  0  0  0  0  0
   61.2245   25.8747   46.5901 H   0  0  0  0  0  0  0  0  0  0  0  0
   60.4299   26.0907   44.9862 H   0  0  0  0  0  0  0  0  0  0  0  0
   60.4151   28.2671   45.8922 H   0  0  0  0  0  0  0  0  0  0  0  0
   58.7680   27.6345   46.2796 H   0  0  0  0  0  0  0  0  0  0  0  0
   61.0490   25.8838   48.5802 H   0  0  0  0  0  0  0  0  0  0  0  0
   61.0290   26.9610   50.9530 H   0  0  0  0  0  0  0  0  0  0  0  0
   60.1655   29.3307   52.0295 H   0  0  0  0  0  0  0  0  0  0  0  0
   59.0347   31.5031   51.4354 H   0  0  0  0  0  0  0  0  0  0  0  0
   58.7010   33.1130   49.1410 H   0  0  0  0  0  0  0  0  0  0  0  0
   58.8180   30.2562   47.2645 H   0  0  0  0  0  0  0  0  0  0  0  0
   55.6623   33.0611   44.9427 H   0  0  0  0  0  0  0  0  0  0  0  0
   56.9032   34.7912   46.2319 H   0  0  0  0  0  0  0  0  0  0  0  0
  1  2  2  0
  2  3  1  0
  3  4  1  0
  4  5  1  0
  5  6  1  0
  6  7  2  0
  7  8  1  0
  8  9  1  0
  9 10  2  0
 10 11  1  0
 11 12  2  0
 12 13  1  0
 13 14  2  0
  4 15  1  0
 15 16  2  0
 15 17  1  0
  2 18  1  0
 18 19  2  0
 19 20  1  0
 20 21  2  0
 21 22  1  0
 22 23  1  0
 23 24  1  0
 24 25  1  0
 25 26  2  0
 25 27  2  0
 25 28  1  0
 28 29  1  0
 29 30  2  0
 30 31  1  0
 31 32  2  0
 32 33  1  0
 33 34  2  0
 34 35  1  0
 35 36  1  0
 36 37  1  0
 37 38  1  0
 38 39  2  0
 39 40  1  0
 40 41  1  0
 41 42  2  0
 42 43  1  0
 43 44  2  0
 44 45  1  0
 44 46  1  0
 46 47  2  0
 21 48  1  0
 48 49  2  0
 14  6  1  0
 49 18  1  0
 14  9  1  0
 34 29  1  0
 47 38  1  0
 47 41  1  0
  4 50  1  1
  5 51  1  0
  5 52  1  0
  7 53  1  0
  8 54  1  0
 10 55  1  0
 11 56  1  0
 12 57  1  0
 13 58  1  0
 19 59  1  0
 20 60  1  0
 22 61  1  0
 22 62  1  0
 23 63  1  0
 23 64  1  0
 30 65  1  0
 31 66  1  0
 32 67  1  0
 33 68  1  0
 36 69  1  0
 36 70  1  0
 37 71  1  0
 37 72  1  0
 39 73  1  0
 40 74  1  0
 42 75  1  0
 43 76  1  0
 45 77  1  0
 46 78  1  0
 48 79  1  0
 49 80  1  0
M  CHG  4   3  -1  17  -1  24  -1  28  -1
M  END
>  <UniqueID>  (47) 
45

>  <SMILES>  (47) 
O=C([N-][C@H](Cc1c[nH]c2ccccc12)C(=O)[O-])c1ccc(CC[N-]S(=O)(=O)[N-]c2ccccc2OCCc2c[nH]c3ccc(O)cc23)cc1

>  <Energy>  (47) 
154.8732234805726

>  <Genealogy>  (47) 
O=C([N-]C(Cc1c[nH]c2ccccc12)C(=O)[O-])c1ccc(CC[N-]S(=O)(=O)[N-]c2ccccc2OCCc2c[nH]c3ccc(O)cc23)cc1 (protonated)
O=C([N-][C@H](Cc1c[nH]c2ccccc12)C(=O)[O-])c1ccc(CC[N-]S(=O)(=O)[N-]c2ccccc2OCCc2c[nH]c3ccc(O)cc23)cc1 (chirality)
O=C([N-][C@H](Cc1c[nH]c2ccccc12)C(=O)[O-])c1ccc(CC[N-]S(=O)(=O)[N-]c2ccccc2OCCc2c[nH]c3ccc(O)cc23)cc1 (3D coordinates assigned)
O=C([N-][C@H](Cc1c[nH]c2ccccc12)C(=O)[O-])c1ccc(CC[N-]S(=O)(=O)[N-]c2ccccc2OCCc2c[nH]c3ccc(O)cc23)cc1 (optimized conformer: 154.8732234805726 kcal/mol)

>  <smiles>  (47) 
O=C(NC(Cc1c[nH]c2ccccc12)C(=O)O)c1ccc(CCNS(=O)(=O)Nc2ccccc2OCCc2c[nH]c3ccc(O)cc23)cc1

>  <score_type>  (47) 
oracle

>  <origin>  (47) 
adg

>  <m_score__min__energy>  (47) 
-15.970000000000001

>  <m_primary>  (47) 
energy

$$$$
47:0
     RDKit          3D

 55 58  0  0  0  0  0  0  0  0999 V2000
   57.4310   28.3410   43.7100 N   0  0  0  0  0  0  0  0  0  0  0  0
   56.4260   29.7280   43.9420 S   0  0  0  0  0  0  0  0  0  0  0  0
   55.8900   30.1970   42.6170 O   0  0  0  0  0  0  0  0  0  0  0  0
   55.2680   29.3570   44.8270 O   0  0  0  0  0  0  0  0  0  0  0  0
   57.3700   31.0160   44.6830 C   0  0  0  0  0  0  0  0  0  0  0  0
   57.7380   32.1330   43.9240 C   0  0  0  0  0  0  0  0  0  0  0  0
   58.5000   33.1560   44.4970 C   0  0  0  0  0  0  0  0  0  0  0  0
   58.9160   33.0660   45.8350 C   0  0  0  0  0  0  0  0  0  0  0  0
   59.7080   34.1570   46.4410 C   0  0  0  0  0  0  0  0  0  0  0  0
   59.3730   35.3540   46.2210 O   0  0  0  0  0  0  0  0  0  0  0  0
   60.8470   33.8830   47.2760 N   0  0  0  0  0  0  0  0  0  0  0  0
   62.1300   33.4430   46.7480 C   0  0  0  0  0  0  0  0  0  0  0  0
   63.1550   33.7860   47.8180 C   0  0  0  0  0  0  0  0  0  0  0  0
   62.3600   33.9820   49.1050 C   0  0  0  0  0  0  0  0  0  0  0  0
   60.9410   34.3380   48.6560 C   0  0  2  0  0  0  0  0  0  0  0  0
   59.8850   33.6640   49.5040 C   0  0  0  0  0  0  0  0  0  0  0  0
   59.3910   34.2830   50.4840 O   0  0  0  0  0  0  0  0  0  0  0  0
   59.4940   32.3030   49.2800 N   0  0  0  0  0  0  0  0  0  0  0  0
   58.8530   31.4610   50.2450 C   0  0  0  0  0  0  0  0  0  0  0  0
   57.7580   31.9670   50.9560 C   0  0  0  0  0  0  0  0  0  0  0  0
   57.1530   31.2030   51.9570 C   0  0  0  0  0  0  0  0  0  0  0  0
   57.6340   29.9250   52.2480 C   0  0  0  0  0  0  0  0  0  0  0  0
   58.7050   29.3980   51.5230 C   0  0  0  0  0  0  0  0  0  0  0  0
   59.3000   30.1410   50.4960 C   0  0  0  0  0  0  0  0  0  0  0  0
   60.3330   29.5470   49.7570 O   0  0  0  0  0  0  0  0  0  0  0  0
   60.2660   29.2270   48.3920 C   0  0  0  0  0  0  0  0  0  0  0  0
   60.9210   29.9940   47.4100 C   0  0  0  0  0  0  0  0  0  0  0  0
   60.8290   29.6370   46.0610 C   0  0  0  0  0  0  0  0  0  0  0  0
   60.0770   28.5210   45.6820 C   0  0  0  0  0  0  0  0  0  0  0  0
   59.4080   27.7680   46.6500 C   0  0  0  0  0  0  0  0  0  0  0  0
   59.4950   28.1260   47.9990 C   0  0  0  0  0  0  0  0  0  0  0  0
   58.5310   31.9520   46.5980 C   0  0  0  0  0  0  0  0  0  0  0  0
   57.7700   30.9310   46.0240 C   0  0  0  0  0  0  0  0  0  0  0  0
   58.1450   28.5980   42.9910 H   0  0  0  0  0  0  0  0  0  0  0  0
   56.8330   27.5960   43.2870 H   0  0  0  0  0  0  0  0  0  0  0  0
   57.4263   32.2065   42.8717 H   0  0  0  0  0  0  0  0  0  0  0  0
   58.7749   34.0357   43.8965 H   0  0  0  0  0  0  0  0  0  0  0  0
   62.1170   32.3588   46.5628 H   0  0  0  0  0  0  0  0  0  0  0  0
   62.3639   33.9312   45.7904 H   0  0  0  0  0  0  0  0  0  0  0  0
   63.8769   32.9643   47.9347 H   0  0  0  0  0  0  0  0  0  0  0  0
   63.7298   34.6863   47.5553 H   0  0  0  0  0  0  0  0  0  0  0  0
   62.3548   33.0561   49.6989 H   0  0  0  0  0  0  0  0  0  0  0  0
   62.7970   34.7666   49.7402 H   0  0  0  0  0  0  0  0  0  0  0  0
   60.7614   35.4184   48.7583 H   0  0  0  0  0  0  0  0  0  0  0  0
   57.3722   32.9710   50.7253 H   0  0  0  0  0  0  0  0  0  0  0  0
   56.2971   31.6086   52.5163 H   0  0  0  0  0  0  0  0  0  0  0  0
   57.1687   29.3324   53.0494 H   0  0  0  0  0  0  0  0  0  0  0  0
   59.0836   28.3928   51.7602 H   0  0  0  0  0  0  0  0  0  0  0  0
   61.5071   30.8770   47.7047 H   0  0  0  0  0  0  0  0  0  0  0  0
   61.3486   30.2347   45.2976 H   0  0  0  0  0  0  0  0  0  0  0  0
   60.0121   28.2358   44.6216 H   0  0  0  0  0  0  0  0  0  0  0  0
   58.8124   26.8929   46.3509 H   0  0  0  0  0  0  0  0  0  0  0  0
   58.9544   27.5391   48.7562 H   0  0  0  0  0  0  0  0  0  0  0  0
   58.8305   31.8829   47.6542 H   0  0  0  0  0  0  0  0  0  0  0  0
   57.4833   30.0566   46.6267 H   0  0  0  0  0  0  0  0  0  0  0  0
  1  2  1  0
  2  3  2  0
  2  4  2  0
  2  5  1  0
  5  6  2  0
  6  7  1  0
  7  8  2  0
  8  9  1  0
  9 10  2  0
  9 11  1  0
 11 12  1  0
 12 13  1  0
 13 14  1  0
 14 15  1  0
 15 16  1  0
 16 17  2  0
 16 18  1  0
 18 19  1  0
 19 20  2  0
 20 21  1  0
 21 22  2  0
 22 23  1  0
 23 24  2  0
 24 25  1  0
 25 26  1  0
 26 27  2  0
 27 28  1  0
 28 29  2  0
 29 30  1  0
 30 31  2  0
  8 32  1  0
 32 33  2  0
 33  5  1  0
 15 11  1  0
 24 19  1  0
 31 26  1  0
  1 34  1  0
  1 35  1  0
  6 36  1  0
  7 37  1  0
 12 38  1  0
 12 39  1  0
 13 40  1  0
 13 41  1  0
 14 42  1  0
 14 43  1  0
 15 44  1  6
 20 45  1  0
 21 46  1  0
 22 47  1  0
 23 48  1  0
 27 49  1  0
 28 50  1  0
 29 51  1  0
 30 52  1  0
 31 53  1  0
 32 54  1  0
 33 55  1  0
M  CHG  1  18  -1
M  END
>  <UniqueID>  (48) 
46

>  <SMILES>  (48) 
NS(=O)(=O)c1ccc(C(=O)N2CCC[C@@H]2C(=O)[N-]c2ccccc2Oc2ccccc2)cc1

>  <Energy>  (48) 
74.11315117580733

>  <Genealogy>  (48) 
NS(=O)(=O)c1ccc(C(=O)N2CCCC2C(=O)[N-]c2ccccc2Oc2ccccc2)cc1 (protonated)
NS(=O)(=O)c1ccc(C(=O)N2CCC[C@@H]2C(=O)[N-]c2ccccc2Oc2ccccc2)cc1 (chirality)
NS(=O)(=O)c1ccc(C(=O)N2CCC[C@@H]2C(=O)[N-]c2ccccc2Oc2ccccc2)cc1 (3D coordinates assigned)
NS(=O)(=O)c1ccc(C(=O)N2CCC[C@@H]2C(=O)[N-]c2ccccc2Oc2ccccc2)cc1 (nonaromatic ring conformer: 74.11315117580733 kcal/mol)

>  <smiles>  (48) 
NS(=O)(=O)c1ccc(C(=O)N2CCCC2C(=O)Nc2ccccc2Oc2ccccc2)cc1

>  <score_type>  (48) 
oracle

>  <origin>  (48) 
adg

>  <m_score__min__energy>  (48) 
-12.970000000000001

>  <m_primary>  (48) 
energy

$$$$
48:0
     RDKit          3D

 66 69  0  0  0  0  0  0  0  0999 V2000
   63.7671   34.9176   52.3940 H   0  0  0  0  0  0  0  0  0  0  0  0
   63.7730   34.6030   51.3400 C   0  0  0  0  0  0  0  0  0  0  0  0
   63.1987   35.1710   50.5933 H   0  0  0  0  0  0  0  0  0  0  0  0
   64.4810   33.5260   50.9650 C   0  0  0  0  0  0  0  0  0  0  0  0
   64.5940   32.9940   49.6670 C   0  0  0  0  0  0  0  0  0  0  0  0
   63.9680   33.3160   48.5170 C   0  0  0  0  0  0  0  0  0  0  0  0
   64.5995   33.5041   47.6362 H   0  0  0  0  0  0  0  0  0  0  0  0
   62.5160   33.4370   48.3400 C   0  0  0  0  0  0  0  0  0  0  0  0
   61.7620   33.8770   46.9090 S   0  0  0  0  0  0  0  0  0  0  0  0
   60.2070   33.6710   47.5410 C   0  0  0  0  0  0  0  0  0  0  0  0
   59.0940   33.8650   46.8900 N   0  0  0  0  0  0  0  0  0  0  0  0
   58.5180   33.0020   45.8980 C   0  0  0  0  0  0  0  0  0  0  0  0
   58.2800   31.6390   46.1570 C   0  0  0  0  0  0  0  0  0  0  0  0
   58.4974   31.2239   47.1522 H   0  0  0  0  0  0  0  0  0  0  0  0
   57.7680   30.8110   45.1530 C   0  0  0  0  0  0  0  0  0  0  0  0
   57.5665   29.7507   45.3654 H   0  0  0  0  0  0  0  0  0  0  0  0
   57.5120   31.3280   43.8810 C   0  0  0  0  0  0  0  0  0  0  0  0
   57.0992   30.6780   43.0954 H   0  0  0  0  0  0  0  0  0  0  0  0
   57.7810   32.6730   43.6070 C   0  0  0  0  0  0  0  0  0  0  0  0
   57.5906   33.0781   42.6022 H   0  0  0  0  0  0  0  0  0  0  0  0
   58.2920   33.5030   44.6100 C   0  0  0  0  0  0  0  0  0  0  0  0
   58.5178   34.5560   44.3857 H   0  0  0  0  0  0  0  0  0  0  0  0
   60.2460   33.2190   48.8240 N   0  0  0  0  0  0  0  0  0  0  0  0
   59.0480   32.9590   49.6510 C   0  0  0  0  0  0  0  0  0  0  0  0
   58.1982   33.5049   49.2153 H   0  0  0  0  0  0  0  0  0  0  0  0
   59.2450   33.5070   51.0780 C   0  0  0  0  0  0  0  0  0  0  0  0
   60.1827   33.1095   51.4936 H   0  0  0  0  0  0  0  0  0  0  0  0
   59.2878   34.6054   51.0378 H   0  0  0  0  0  0  0  0  0  0  0  0
   58.0760   33.0850   51.9730 C   0  0  0  0  0  0  0  0  0  0  0  0
   58.2416   33.4889   52.9827 H   0  0  0  0  0  0  0  0  0  0  0  0
   57.1529   33.4806   51.5242 H   0  0  0  0  0  0  0  0  0  0  0  0
   57.9280   31.5520   52.0720 C   0  0  0  0  0  0  0  0  0  0  0  0
   58.2932   31.2323   53.0591 H   0  0  0  0  0  0  0  0  0  0  0  0
   56.8624   31.3248   51.9205 H   0  0  0  0  0  0  0  0  0  0  0  0
   58.7060   30.7770   50.9940 C   0  0  0  0  0  0  0  0  0  0  0  0
   59.7599   30.7065   51.3010 H   0  0  0  0  0  0  0  0  0  0  0  0
   58.2467   29.7820   50.8988 H   0  0  0  0  0  0  0  0  0  0  0  0
   58.6370   31.4590   49.6180 C   0  0  0  0  0  0  0  0  0  0  0  0
   59.3120   30.9275   48.9311 H   0  0  0  0  0  0  0  0  0  0  0  0
   57.5890   31.4165   49.2865 H   0  0  0  0  0  0  0  0  0  0  0  0
   61.5370   33.0740   49.2600 C   0  0  0  0  0  0  0  0  0  0  0  0
   61.8540   32.5820   50.5210 O   0  0  0  0  0  0  0  0  0  0  0  0
   65.5120   31.9630   49.7500 C   0  0  0  0  0  0  0  0  0  0  0  0
   65.8749   31.3414   48.9181 H   0  0  0  0  0  0  0  0  0  0  0  0
   65.8860   31.8620   51.0730 C   0  0  0  0  0  0  0  0  0  0  0  0
   66.8110   30.8090   51.6060 C   0  0  0  0  0  0  0  0  0  0  0  0
   66.7939   30.8285   52.7057 H   0  0  0  0  0  0  0  0  0  0  0  0
   66.4841   29.8203   51.2516 H   0  0  0  0  0  0  0  0  0  0  0  0
   67.8336   31.0058   51.2516 H   0  0  0  0  0  0  0  0  0  0  0  0
   65.2760   32.8160   51.8140 N   0  0  0  0  0  0  0  0  0  0  0  0
   65.4510   33.0340   53.2620 C   0  0  0  0  0  0  0  0  0  0  0  0
   66.2528   32.3731   53.6230 H   0  0  0  0  0  0  0  0  0  0  0  0
   65.7006   34.0950   53.4105 H   0  0  0  0  0  0  0  0  0  0  0  0
   64.1650   32.7390   54.0700 C   0  0  0  0  0  0  0  0  0  0  0  0
   64.4247   32.0737   54.9066 H   0  0  0  0  0  0  0  0  0  0  0  0
   63.7698   33.7067   54.4126 H   0  0  0  0  0  0  0  0  0  0  0  0
   63.0950   32.0900   53.2680 N   0  0  0  0  0  0  0  0  0  0  0  0
   63.0910   32.4700   52.2940 H   0  0  0  0  0  0  0  0  0  0  0  0
   63.2820   30.6270   53.2020 C   0  0  0  0  0  0  0  0  0  0  0  0
   63.3343   30.2177   54.2217 H   0  0  0  0  0  0  0  0  0  0  0  0
   62.4346   30.1728   52.6676 H   0  0  0  0  0  0  0  0  0  0  0  0
   64.2164   30.4005   52.6676 H   0  0  0  0  0  0  0  0  0  0  0  0
   61.7700   32.3790   53.8470 C   0  0  0  0  0  0  0  0  0  0  0  0
   61.8384   32.3641   54.9448 H   0  0  0  0  0  0  0  0  0  0  0  0
   61.4330   33.3718   53.5141 H   0  0  0  0  0  0  0  0  0  0  0  0
   61.0502   31.6167   53.5141 H   0  0  0  0  0  0  0  0  0  0  0  0
  1  2  1  0
  2  3  1  0
  2  4  2  0
  4  5  1  0
  5  6  2  0
  6  7  1  0
  6  8  1  0
  8  9  1  0
  9 10  1  0
 10 11  2  0
 11 12  1  0
 12 13  2  0
 13 14  1  0
 13 15  1  0
 15 16  1  0
 15 17  2  0
 17 18  1  0
 17 19  1  0
 19 20  1  0
 19 21  2  0
 21 22  1  0
 10 23  1  0
 23 24  1  0
 24 25  1  0
 24 26  1  0
 26 27  1  0
 26 28  1  0
 26 29  1  0
 29 30  1  0
 29 31  1  0
 29 32  1  0
 32 33  1  0
 32 34  1  0
 32 35  1  0
 35 36  1  0
 35 37  1  0
 35 38  1  0
 38 39  1  0
 38 40  1  0
 23 41  1  0
 41 42  1  0
  5 43  1  0
 43 44  1  0
 43 45  2  0
 45 46  1  0
 46 47  1  0
 46 48  1  0
 46 49  1  0
 45 50  1  0
 50 51  1  0
 51 52  1  0
 51 53  1  0
 51 54  1  0
 54 55  1  0
 54 56  1  0
 54 57  1  0
 57 58  1  0
 57 59  1  0
 59 60  1  0
 59 61  1  0
 59 62  1  0
 57 63  1  0
 63 64  1  0
 63 65  1  0
 63 66  1  0
 50  4  1  0
 41  8  2  0
 21 12  1  0
 38 24  1  0
M  CHG  2  42  -1  57   1
M  END
>  <UniqueID>  (49) 
47

>  <SMILES>  (49) 
C=c1/c(=C\c2s/c(=N\c3ccccc3)n(C3CCCCC3)c2[O-])cc(C)n1CC[NH+](C)C

>  <Energy>  (49) 
152.1354585552558

>  <Genealogy>  (49) 
C=c1c(=Cc2sc(=Nc3ccccc3)n(C3CCCCC3)c2[O-])cc(C)n1CC[NH+](C)C (protonated)
C=c1/c(=C\c2s/c(=N\c3ccccc3)n(C3CCCCC3)c2[O-])cc(C)n1CC[NH+](C)C (cis-trans isomerization)
C=c1/c(=C\c2s/c(=N\c3ccccc3)n(C3CCCCC3)c2[O-])cc(C)n1CC[NH+](C)C (3D coordinates assigned)
C=c1/c(=C\c2s/c(=N\c3ccccc3)n(C3CCCCC3)c2[O-])cc(C)n1CC[NH+](C)C (nonaromatic ring conformer: 152.1354585552558 kcal/mol)

>  <smiles>  (49) 
C=c1c(=Cc2sc(=Nc3ccccc3)n(C3CCCCC3)c2O)cc(C)n1CCN(C)C

>  <score_type>  (49) 
oracle

>  <origin>  (49) 
adg

>  <m_score__min__energy>  (49) 
-10.1

>  <m_primary>  (49) 
energy

$$$$
49:0
     RDKit          3D

 37 40  0  0  0  0  0  0  0  0999 V2000
   51.3880   32.6470   50.1340 O   0  0  0  0  0  0  0  0  0  0  0  0
   51.2440   32.3290   51.3430 C   0  0  0  0  0  0  0  0  0  0  0  0
   50.1080   32.7370   52.0310 O   0  0  0  0  0  0  0  0  0  0  0  0
   52.2680   31.5340   52.0290 C   0  0  0  0  0  0  0  0  0  0  0  0
   53.5650   31.3100   51.5710 C   0  0  0  0  0  0  0  0  0  0  0  0
   54.1360   30.5180   52.5420 C   0  0  0  0  0  0  0  0  0  0  0  0
   55.4180   29.9770   52.6410 C   0  0  0  0  0  0  0  0  0  0  0  0
   56.3530   30.2260   51.6250 O   0  0  0  0  0  0  0  0  0  0  0  0
   57.4260   31.1650   51.7110 C   0  0  0  0  0  0  0  0  0  0  0  0
   58.3310   31.0500   50.5130 C   0  0  0  0  0  0  0  0  0  0  0  0
   59.3400   32.0020   50.3100 C   0  0  0  0  0  0  0  0  0  0  0  0
   60.1810   31.8940   49.2030 C   0  0  0  0  0  0  0  0  0  0  0  0
   60.0080   30.8410   48.2970 C   0  0  0  0  0  0  0  0  0  0  0  0
   60.8410   30.7080   47.1760 C   0  0  0  0  0  0  0  0  0  0  0  0
   60.6490   29.6480   46.2850 C   0  0  0  0  0  0  0  0  0  0  0  0
   59.6270   28.7190   46.5070 C   0  0  0  0  0  0  0  0  0  0  0  0
   58.7920   28.8440   47.6210 C   0  0  0  0  0  0  0  0  0  0  0  0
   58.9750   29.9040   48.5240 C   0  0  0  0  0  0  0  0  0  0  0  0
   58.1650   30.0330   49.6160 N   0  0  0  0  0  0  0  0  0  0  0  0
   55.7010   29.1930   53.7860 C   0  0  0  0  0  0  0  0  0  0  0  0
   54.7150   28.9850   54.7760 C   0  0  0  0  0  0  0  0  0  0  0  0
   53.4360   29.5510   54.6390 C   0  0  0  0  0  0  0  0  0  0  0  0
   53.1810   30.3150   53.5040 C   0  0  0  0  0  0  0  0  0  0  0  0
   52.0680   30.9280   53.1850 O   0  0  0  0  0  0  0  0  0  0  0  0
   54.0274   31.6814   50.6446 H   0  0  0  0  0  0  0  0  0  0  0  0
   57.0122   32.1833   51.7545 H   0  0  0  0  0  0  0  0  0  0  0  0
   58.0109   30.9517   52.6179 H   0  0  0  0  0  0  0  0  0  0  0  0
   59.4678   32.8312   51.0215 H   0  0  0  0  0  0  0  0  0  0  0  0
   60.9784   32.6344   49.0421 H   0  0  0  0  0  0  0  0  0  0  0  0
   61.6449   31.4375   46.9982 H   0  0  0  0  0  0  0  0  0  0  0  0
   61.3034   29.5442   45.4069 H   0  0  0  0  0  0  0  0  0  0  0  0
   59.4799   27.8872   45.8024 H   0  0  0  0  0  0  0  0  0  0  0  0
   57.9899   28.1106   47.7908 H   0  0  0  0  0  0  0  0  0  0  0  0
   57.4020   29.3360   49.7710 H   0  0  0  0  0  0  0  0  0  0  0  0
   56.6972   28.7421   53.9055 H   0  0  0  0  0  0  0  0  0  0  0  0
   54.9501   28.3753   55.6609 H   0  0  0  0  0  0  0  0  0  0  0  0
   52.6613   29.3952   55.4042 H   0  0  0  0  0  0  0  0  0  0  0  0
  1  2  2  0
  2  3  1  0
  2  4  1  0
  4  5  2  0
  5  6  1  0
  6  7  2  0
  7  8  1  0
  8  9  1  0
  9 10  1  0
 10 11  2  0
 11 12  1  0
 12 13  2  0
 13 14  1  0
 14 15  2  0
 15 16  1  0
 16 17  2  0
 17 18  1  0
 18 19  2  0
  7 20  1  0
 20 21  2  0
 21 22  1  0
 22 23  2  0
 23 24  1  0
 24  4  1  0
 23  6  1  0
 19 10  1  0
 18 13  1  0
  5 25  1  0
  9 26  1  0
  9 27  1  0
 11 28  1  0
 12 29  1  0
 14 30  1  0
 15 31  1  0
 16 32  1  0
 17 33  1  0
 19 34  1  0
 20 35  1  0
 21 36  1  0
 22 37  1  0
M  CHG  2   3  -1  19   1
M  END
>  <UniqueID>  (50) 
48

>  <SMILES>  (50) 
O=C([O-])c1cc2c(OCc3ccc4ccccc4[nH+]3)cccc2o1

>  <Energy>  (50) 
76.6330098655635

>  <Genealogy>  (50) 
O=C([O-])c1cc2c(OCc3ccc4ccccc4[nH+]3)cccc2o1 (protonated)
O=C([O-])c1cc2c(OCc3ccc4ccccc4[nH+]3)cccc2o1 (3D coordinates assigned)
O=C([O-])c1cc2c(OCc3ccc4ccccc4[nH+]3)cccc2o1 (optimized conformer: 76.6330098655635 kcal/mol)

>  <smiles>  (50) 
O=C(O)c1cc2c(OCc3ccc4ccccc4n3)cccc2o1

>  <score_type>  (50) 
oracle

>  <origin>  (50) 
adg

>  <m_score__min__energy>  (50) 
-9.8599999999999994

>  <m_primary>  (50) 
energy

$$$$
50:0
     RDKit          3D

 48 51  0  0  0  0  0  0  0  0999 V2000
   55.1790   24.3570   46.2490 O   0  0  0  0  0  0  0  0  0  0  0  0
   55.7470   25.4750   46.3660 C   0  0  0  0  0  0  0  0  0  0  0  0
   55.0410   26.6380   46.0860 O   0  0  0  0  0  0  0  0  0  0  0  0
   57.1620   25.5520   46.8430 C   0  0  0  0  0  0  0  0  0  0  0  0
   57.9030   26.6470   46.1160 C   0  0  0  0  0  0  0  0  0  0  0  0
   57.6430   26.8590   44.7500 C   0  0  0  0  0  0  0  0  0  0  0  0
   58.3680   27.8120   44.0300 C   0  0  0  0  0  0  0  0  0  0  0  0
   59.3700   28.5520   44.6590 C   0  0  0  0  0  0  0  0  0  0  0  0
   59.6470   28.3450   46.0100 C   0  0  0  0  0  0  0  0  0  0  0  0
   58.9140   27.4090   46.7500 C   0  0  0  0  0  0  0  0  0  0  0  0
   59.2330   27.2310   48.1010 O   0  0  0  0  0  0  0  0  0  0  0  0
   59.7850   28.2120   48.9430 C   0  0  0  0  0  0  0  0  0  0  0  0
   60.8120   27.9350   49.8700 C   0  0  0  0  0  0  0  0  0  0  0  0
   61.3120   26.6490   50.0340 O   0  0  0  0  0  0  0  0  0  0  0  0
   61.3400   28.9620   50.6520 C   0  0  0  0  0  0  0  0  0  0  0  0
   60.8420   30.2660   50.5500 C   0  0  0  0  0  0  0  0  0  0  0  0
   61.4150   31.2800   51.3180 O   0  0  0  0  0  0  0  0  0  0  0  0
   59.7720   30.5490   49.6760 C   0  0  0  0  0  0  0  0  0  0  0  0
   59.2160   31.9580   49.5670 C   0  0  0  0  0  0  0  0  0  0  0  0
   59.8620   32.7550   48.4460 C   0  0  0  0  0  0  0  0  0  0  0  0
   61.2390   33.0340   48.5380 C   0  0  0  0  0  0  0  0  0  0  0  0
   61.8860   33.7870   47.5600 C   0  0  0  0  0  0  0  0  0  0  0  0
   61.1770   34.2760   46.4660 C   0  0  0  0  0  0  0  0  0  0  0  0
   59.8100   34.0050   46.3320 C   0  0  0  0  0  0  0  0  0  0  0  0
   59.1070   34.4950   45.2210 C   0  0  0  0  0  0  0  0  0  0  0  0
   57.7480   34.2200   45.0700 C   0  0  0  0  0  0  0  0  0  0  0  0
   57.0800   33.4520   46.0230 C   0  0  0  0  0  0  0  0  0  0  0  0
   57.7640   32.9570   47.1360 C   0  0  0  0  0  0  0  0  0  0  0  0
   59.1360   33.2310   47.3190 C   0  0  0  0  0  0  0  0  0  0  0  0
   59.2730   29.5140   48.8520 C   0  0  0  0  0  0  0  0  0  0  0  0
   58.2680   29.7730   47.9250 O   0  0  0  0  0  0  0  0  0  0  0  0
   57.1697   25.7639   47.9224 H   0  0  0  0  0  0  0  0  0  0  0  0
   57.6589   24.5912   46.6431 H   0  0  0  0  0  0  0  0  0  0  0  0
   56.8632   26.2702   44.2449 H   0  0  0  0  0  0  0  0  0  0  0  0
   58.1485   27.9793   42.9652 H   0  0  0  0  0  0  0  0  0  0  0  0
   59.9417   29.2990   44.0888 H   0  0  0  0  0  0  0  0  0  0  0  0
   60.4470   28.9211   46.4979 H   0  0  0  0  0  0  0  0  0  0  0  0
   62.1565   28.7449   51.3564 H   0  0  0  0  0  0  0  0  0  0  0  0
   61.1970   31.3940   52.3010 H   0  0  0  0  0  0  0  0  0  0  0  0
   58.1342   31.8964   49.3776 H   0  0  0  0  0  0  0  0  0  0  0  0
   59.4329   32.4763   50.5127 H   0  0  0  0  0  0  0  0  0  0  0  0
   61.8129   32.6517   49.3950 H   0  0  0  0  0  0  0  0  0  0  0  0
   62.9620   33.9960   47.6528 H   0  0  0  0  0  0  0  0  0  0  0  0
   61.6932   34.8779   45.7036 H   0  0  0  0  0  0  0  0  0  0  0  0
   59.6303   35.0991   44.4652 H   0  0  0  0  0  0  0  0  0  0  0  0
   57.2024   34.6095   44.1979 H   0  0  0  0  0  0  0  0  0  0  0  0
   56.0090   33.2348   45.8978 H   0  0  0  0  0  0  0  0  0  0  0  0
   57.2273   32.3471   47.8776 H   0  0  0  0  0  0  0  0  0  0  0  0
  1  2  2  0
  2  3  1  0
  2  4  1  0
  4  5  1  0
  5  6  2  0
  6  7  1  0
  7  8  2  0
  8  9  1  0
  9 10  2  0
 10 11  1  0
 11 12  1  0
 12 13  2  0
 13 14  1  0
 13 15  1  0
 15 16  2  0
 16 17  1  0
 16 18  1  0
 18 19  1  0
 19 20  1  0
 20 21  2  0
 21 22  1  0
 22 23  2  0
 23 24  1  0
 24 25  2  0
 25 26  1  0
 26 27  2  0
 27 28  1  0
 28 29  2  0
 18 30  2  0
 30 31  1  0
 10  5  1  0
 30 12  1  0
 29 20  1  0
 29 24  1  0
  4 32  1  0
  4 33  1  0
  6 34  1  0
  7 35  1  0
  8 36  1  0
  9 37  1  0
 15 38  1  0
 17 39  1  0
 19 40  1  0
 19 41  1  0
 21 42  1  0
 22 43  1  0
 23 44  1  0
 25 45  1  0
 26 46  1  0
 27 47  1  0
 28 48  1  0
M  CHG  3   3  -1  14  -1  31  -1
M  END
>  <UniqueID>  (51) 
49

>  <SMILES>  (51) 
O=C([O-])Cc1ccccc1Oc1c([O-])cc(O)c(Cc2cccc3ccccc23)c1[O-]

>  <Energy>  (51) 
69.92867701753438

>  <Genealogy>  (51) 
O=C([O-])Cc1ccccc1Oc1c([O-])cc(O)c(Cc2cccc3ccccc23)c1[O-] (protonated)
O=C([O-])Cc1ccccc1Oc1c([O-])cc(O)c(Cc2cccc3ccccc23)c1[O-] (3D coordinates assigned)
O=C([O-])Cc1ccccc1Oc1c([O-])cc(O)c(Cc2cccc3ccccc23)c1[O-] (optimized conformer: 69.92867701753438 kcal/mol)

>  <smiles>  (51) 
O=C(O)Cc1ccccc1Oc1c(O)cc(O)c(Cc2cccc3ccccc23)c1O

>  <score_type>  (51) 
oracle

>  <origin>  (51) 
adg

>  <m_score__min__energy>  (51) 
-14.869999999999999

>  <m_primary>  (51) 
energy

$$$$
51:0
     RDKit          3D

 69 72  0  0  1  0  0  0  0  0999 V2000
   56.0930   30.4980   44.8510 O   0  0  0  0  0  0  0  0  0  0  0  0
   56.9310   30.4030   43.9390 C   0  0  0  0  0  0  0  0  0  0  0  0
   57.8880   29.3700   43.8180 N   0  0  0  0  0  0  0  0  0  0  0  0
   58.0430   28.2640   44.7350 C   0  0  1  0  0  0  0  0  0  0  0  0
   58.4370   26.9800   44.0720 C   0  0  0  0  0  0  0  0  0  0  0  0
   57.5650   25.8280   44.4200 C   0  0  0  0  0  0  0  0  0  0  0  0
   57.3980   24.7950   43.5250 C   0  0  0  0  0  0  0  0  0  0  0  0
   56.5720   23.7130   43.8390 C   0  0  0  0  0  0  0  0  0  0  0  0
   55.9210   23.6890   45.0560 C   0  0  0  0  0  0  0  0  0  0  0  0
   56.0730   24.7160   45.9710 C   0  0  0  0  0  0  0  0  0  0  0  0
   56.8990   25.7760   45.6340 C   0  0  0  0  0  0  0  0  0  0  0  0
   58.9570   28.6420   45.8710 C   0  0  0  0  0  0  0  0  0  0  0  0
   59.9120   27.8710   46.0750 O   0  0  0  0  0  0  0  0  0  0  0  0
   58.6580   29.8100   46.5890 N   0  0  0  0  0  0  0  0  0  0  0  0
   59.3460   30.3770   47.7060 C   0  0  1  0  0  0  0  0  0  0  0  0
   59.5840   31.8550   47.6860 C   0  0  0  0  0  0  0  0  0  0  0  0
   61.0010   32.2590   47.7610 C   0  0  0  0  0  0  0  0  0  0  0  0
   62.0940   31.6080   47.3060 C   0  0  0  0  0  0  0  0  0  0  0  0
   63.3830   32.1420   47.4850 C   0  0  0  0  0  0  0  0  0  0  0  0
   63.5920   33.3350   48.1210 C   0  0  0  0  0  0  0  0  0  0  0  0
   62.4820   34.0070   48.5880 C   0  0  0  0  0  0  0  0  0  0  0  0
   61.2330   33.4860   48.4140 C   0  0  0  0  0  0  0  0  0  0  0  0
   58.9750   29.7740   48.9710 C   0  0  0  0  0  0  0  0  0  0  0  0
   58.9750   28.4850   49.0050 O   0  0  0  0  0  0  0  0  0  0  0  0
   58.6100   30.4350   50.1930 C   0  0  0  0  0  0  0  0  0  0  0  0
   57.6280   30.1230   50.9240 O   0  0  0  0  0  0  0  0  0  0  0  0
   59.3830   31.5540   50.6840 N   0  0  0  0  0  0  0  0  0  0  0  0
   58.9090   32.4880   51.4050 C   0  0  0  0  0  0  0  0  0  0  0  0
   59.5830   33.4150   52.1300 C   0  0  0  0  0  0  0  0  0  0  0  0
   58.6400   34.2020   52.7460 C   0  0  0  0  0  0  0  0  0  0  0  0
   57.4300   33.7230   52.3710 N   0  0  0  0  0  0  0  0  0  0  0  0
   57.5740   32.6900   51.5620 N   0  0  0  0  0  0  0  0  0  0  0  0
   56.9430   31.3780   42.9500 O   0  0  0  0  0  0  0  0  0  0  0  0
   57.9580   32.3490   42.8090 C   0  0  0  0  0  0  0  0  0  0  0  0
   58.1500   33.1140   44.0760 C   0  0  0  0  0  0  0  0  0  0  0  0
   59.2890   33.8550   44.3250 C   0  0  0  0  0  0  0  0  0  0  0  0
   59.4920   34.5660   45.4680 C   0  0  0  0  0  0  0  0  0  0  0  0
   58.5380   34.5800   46.4580 C   0  0  0  0  0  0  0  0  0  0  0  0
   57.3880   33.8430   46.2280 C   0  0  0  0  0  0  0  0  0  0  0  0
   57.1810   33.1230   45.0720 C   0  0  0  0  0  0  0  0  0  0  0  0
   58.5600   29.3810   43.0010 H   0  0  0  0  0  0  0  0  0  0  0  0
   57.0483   28.0565   45.1564 H   0  0  0  0  0  0  0  0  0  0  0  0
   58.3977   27.1269   42.9826 H   0  0  0  0  0  0  0  0  0  0  0  0
   59.4476   26.7339   44.4299 H   0  0  0  0  0  0  0  0  0  0  0  0
   57.9185   24.8219   42.5563 H   0  0  0  0  0  0  0  0  0  0  0  0
   56.4416   22.8880   43.1232 H   0  0  0  0  0  0  0  0  0  0  0  0
   55.2694   22.8379   45.3030 H   0  0  0  0  0  0  0  0  0  0  0  0
   55.5522   24.6914   46.9396 H   0  0  0  0  0  0  0  0  0  0  0  0
   57.0299   26.6001   46.3508 H   0  0  0  0  0  0  0  0  0  0  0  0
   57.7980   30.3570   46.2580 H   0  0  0  0  0  0  0  0  0  0  0  0
   60.3905   30.0619   47.5657 H   0  0  0  0  0  0  0  0  0  0  0  0
   59.1638   32.2558   46.7518 H   0  0  0  0  0  0  0  0  0  0  0  0
   59.1014   32.2565   48.5893 H   0  0  0  0  0  0  0  0  0  0  0  0
   61.9740   30.6453   46.7875 H   0  0  0  0  0  0  0  0  0  0  0  0
   64.2495   31.5831   47.1018 H   0  0  0  0  0  0  0  0  0  0  0  0
   64.6051   33.7421   48.2546 H   0  0  0  0  0  0  0  0  0  0  0  0
   62.6045   34.9703   49.1047 H   0  0  0  0  0  0  0  0  0  0  0  0
   60.3699   34.0481   48.8001 H   0  0  0  0  0  0  0  0  0  0  0  0
   60.6753   33.5173   52.2097 H   0  0  0  0  0  0  0  0  0  0  0  0
   58.8308   35.0551   53.4138 H   0  0  0  0  0  0  0  0  0  0  0  0
   56.5140   34.1100   52.6750 H   0  0  0  0  0  0  0  0  0  0  0  0
   56.7990   32.1310   51.1260 H   0  0  0  0  0  0  0  0  0  0  0  0
   58.9009   31.8473   42.5459 H   0  0  0  0  0  0  0  0  0  0  0  0
   57.6604   33.0529   42.0178 H   0  0  0  0  0  0  0  0  0  0  0  0
   60.0760   33.8714   43.5566 H   0  0  0  0  0  0  0  0  0  0  0  0
   60.4253   35.1330   45.6004 H   0  0  0  0  0  0  0  0  0  0  0  0
   58.6812   35.1493   47.3883 H   0  0  0  0  0  0  0  0  0  0  0  0
   56.6063   33.8322   47.0018 H   0  0  0  0  0  0  0  0  0  0  0  0
   56.2486   32.5551   44.9373 H   0  0  0  0  0  0  0  0  0  0  0  0
  1  2  2  0
  2  3  1  0
  3  4  1  0
  4  5  1  0
  5  6  1  0
  6  7  2  0
  7  8  1  0
  8  9  2  0
  9 10  1  0
 10 11  2  0
  4 12  1  0
 12 13  2  0
 12 14  1  0
 14 15  1  0
 15 16  1  0
 16 17  1  0
 17 18  2  0
 18 19  1  0
 19 20  2  0
 20 21  1  0
 21 22  2  0
 15 23  1  0
 23 24  2  0
 23 25  1  0
 25 26  2  0
 25 27  1  0
 27 28  2  0
 28 29  1  0
 29 30  2  0
 30 31  1  0
 31 32  1  0
  2 33  1  0
 33 34  1  0
 34 35  1  0
 35 36  2  0
 36 37  1  0
 37 38  2  0
 38 39  1  0
 39 40  2  0
 11  6  1  0
 22 17  1  0
 32 28  1  0
 40 35  1  0
  3 41  1  0
  4 42  1  1
  5 43  1  0
  5 44  1  0
  7 45  1  0
  8 46  1  0
  9 47  1  0
 10 48  1  0
 11 49  1  0
 14 50  1  0
 15 51  1  6
 16 52  1  0
 16 53  1  0
 18 54  1  0
 19 55  1  0
 20 56  1  0
 21 57  1  0
 22 58  1  0
 29 59  1  0
 30 60  1  0
 31 61  1  0
 32 62  1  0
 34 63  1  0
 34 64  1  0
 36 65  1  0
 37 66  1  0
 38 67  1  0
 39 68  1  0
 40 69  1  0
M  END
>  <smiles>  (52) 
O=C(NC(Cc1ccccc1)C(=O)NC(Cc1ccccc1)C(=O)C(=O)N=c1cc[nH][nH]1)OCc1ccccc1

>  <score_type>  (52) 
oracle

>  <origin>  (52) 
adg

>  <m_score__min__energy>  (52) 
-10.08

>  <m_primary>  (52) 
energy

$$$$
52:0
     RDKit          3D

 49 51  0  0  0  0  0  0  0  0999 V2000
   58.5400   27.5590   43.3560 C   0  0  0  0  0  0  0  0  0  0  0  0
   59.6970   27.8510   44.1350 O   0  0  0  0  0  0  0  0  0  0  0  0
   59.6680   28.3940   45.4290 C   0  0  0  0  0  0  0  0  0  0  0  0
   60.6380   29.3140   45.8740 C   0  0  0  0  0  0  0  0  0  0  0  0
   60.5800   29.8430   47.1720 C   0  0  0  0  0  0  0  0  0  0  0  0
   61.5910   30.8600   47.6150 C   0  0  0  0  0  0  0  0  0  0  0  0
   61.4490   32.0610   46.7980 N   0  0  0  0  0  0  0  0  0  0  0  0
   62.0390   33.4500   47.6610 S   0  0  0  0  0  0  0  0  0  0  0  0
   63.0840   34.1610   46.8450 O   0  0  0  0  0  0  0  0  0  0  0  0
   62.6620   32.9900   48.9490 O   0  0  0  0  0  0  0  0  0  0  0  0
   60.7030   34.5800   48.0280 C   0  0  0  0  0  0  0  0  0  0  0  0
   59.5560   34.3750   47.0770 C   0  0  0  0  0  0  0  0  0  0  0  0
   59.5860   34.9570   45.7970 C   0  0  0  0  0  0  0  0  0  0  0  0
   58.5050   34.7940   44.9260 C   0  0  0  0  0  0  0  0  0  0  0  0
   57.3890   34.0510   45.3230 C   0  0  0  0  0  0  0  0  0  0  0  0
   57.3530   33.4680   46.5910 C   0  0  0  0  0  0  0  0  0  0  0  0
   58.4320   33.6270   47.4670 C   0  0  0  0  0  0  0  0  0  0  0  0
   59.5260   29.4750   48.0180 C   0  0  0  0  0  0  0  0  0  0  0  0
   58.5630   28.5590   47.5870 C   0  0  0  0  0  0  0  0  0  0  0  0
   58.6400   27.9990   46.3010 C   0  0  0  0  0  0  0  0  0  0  0  0
   57.6420   27.0830   45.8250 N   0  0  0  0  0  0  0  0  0  0  0  0
   56.2580   27.3840   45.6170 C   0  0  0  0  0  0  0  0  0  0  0  0
   55.4060   26.4770   45.8150 O   0  0  0  0  0  0  0  0  0  0  0  0
   55.8450   28.7330   45.3370 N   0  0  0  0  0  0  0  0  0  0  0  0
   56.2940   29.5560   44.4300 C   0  0  0  0  0  0  0  0  0  0  0  0
   55.9700   29.4520   43.0600 C   0  0  0  0  0  0  0  0  0  0  0  0
   56.4900   30.3490   42.1810 N   0  0  0  0  0  0  0  0  0  0  0  0
   57.3210   31.3430   42.5880 C   0  0  0  0  0  0  0  0  0  0  0  0
   57.8450   32.2770   41.6300 C   0  0  0  0  0  0  0  0  0  0  0  0
   58.2660   33.0300   40.8590 N   0  0  0  0  0  0  0  0  0  0  0  0
   57.6640   31.4360   43.9380 C   0  0  0  0  0  0  0  0  0  0  0  0
   57.1480   30.5410   44.8200 N   0  0  0  0  0  0  0  0  0  0  0  0
   57.6926   27.3451   44.0240 H   0  0  0  0  0  0  0  0  0  0  0  0
   58.2974   28.4241   42.7213 H   0  0  0  0  0  0  0  0  0  0  0  0
   58.7369   26.6824   42.7213 H   0  0  0  0  0  0  0  0  0  0  0  0
   61.4489   29.6205   45.1968 H   0  0  0  0  0  0  0  0  0  0  0  0
   61.4216   31.1115   48.6724 H   0  0  0  0  0  0  0  0  0  0  0  0
   62.6050   30.4500   47.4984 H   0  0  0  0  0  0  0  0  0  0  0  0
   60.3547   34.4052   49.0566 H   0  0  0  0  0  0  0  0  0  0  0  0
   61.0720   35.6106   47.9196 H   0  0  0  0  0  0  0  0  0  0  0  0
   60.4622   35.5419   45.4806 H   0  0  0  0  0  0  0  0  0  0  0  0
   58.5323   35.2513   43.9259 H   0  0  0  0  0  0  0  0  0  0  0  0
   56.5391   33.9258   44.6360 H   0  0  0  0  0  0  0  0  0  0  0  0
   56.4749   32.8828   46.9017 H   0  0  0  0  0  0  0  0  0  0  0  0
   58.4006   33.1649   48.4647 H   0  0  0  0  0  0  0  0  0  0  0  0
   59.4561   29.9091   49.0263 H   0  0  0  0  0  0  0  0  0  0  0  0
   57.7396   28.2747   48.2587 H   0  0  0  0  0  0  0  0  0  0  0  0
   55.3026   28.6521   42.7069 H   0  0  0  0  0  0  0  0  0  0  0  0
   58.3458   32.2267   44.2843 H   0  0  0  0  0  0  0  0  0  0  0  0
  1  2  1  0
  2  3  1  0
  3  4  2  0
  4  5  1  0
  5  6  1  0
  6  7  1  0
  7  8  1  0
  8  9  2  0
  8 10  2  0
  8 11  1  0
 11 12  1  0
 12 13  2  0
 13 14  1  0
 14 15  2  0
 15 16  1  0
 16 17  2  0
  5 18  2  0
 18 19  1  0
 19 20  2  0
 20 21  1  0
 21 22  1  0
 22 23  2  0
 22 24  1  0
 24 25  2  3
 25 26  1  0
 26 27  2  0
 27 28  1  0
 28 29  1  0
 29 30  3  0
 28 31  2  0
 31 32  1  0
 20  3  1  0
 32 25  1  0
 17 12  1  0
  1 33  1  0
  1 34  1  0
  1 35  1  0
  4 36  1  0
  6 37  1  0
  6 38  1  0
 11 39  1  0
 11 40  1  0
 13 41  1  0
 14 42  1  0
 15 43  1  0
 16 44  1  0
 17 45  1  0
 18 46  1  0
 19 47  1  0
 26 48  1  0
 31 49  1  0
M  CHG  3   7  -1  21  -1  32  -1
M  END
>  <UniqueID>  (53) 
50

>  <SMILES>  (53) 
COc1cc(C[N-]S(=O)(=O)Cc2ccccc2)ccc1[N-]C(=O)N=c1cnc(C#N)c[n-]1

>  <Energy>  (53) 
53.245764489132

>  <Genealogy>  (53) 
COc1cc(C[N-]S(=O)(=O)Cc2ccccc2)ccc1[N-]C(=O)N=c1cnc(C#N)c[n-]1 (protonated)
COc1cc(C[N-]S(=O)(=O)Cc2ccccc2)ccc1[N-]C(=O)N=c1cnc(C#N)c[n-]1 (3D coordinates assigned)
COc1cc(C[N-]S(=O)(=O)Cc2ccccc2)ccc1[N-]C(=O)N=c1cnc(C#N)c[n-]1 (optimized conformer: 53.245764489132 kcal/mol)

>  <smiles>  (53) 
COc1cc(CNS(=O)(=O)Cc2ccccc2)ccc1NC(=O)N=c1cnc(C#N)c[nH]1

>  <score_type>  (53) 
oracle

>  <origin>  (53) 
adg

>  <m_score__min__energy>  (53) 
-12.1

>  <m_primary>  (53) 
energy

$$$$
53:0
     RDKit          3D

 53 56  0  0  0  0  0  0  0  0999 V2000
   61.4610   29.6580   51.9080 O   0  0  0  0  0  0  0  0  0  0  0  0
   60.3910   30.3210   51.8830 C   0  0  0  0  0  0  0  0  0  0  0  0
   59.3810   30.0390   52.8580 N   0  0  0  0  0  0  0  0  0  0  0  0
   57.9710   30.2300   52.6840 C   0  0  0  0  0  0  0  0  0  0  0  0
   57.4440   31.4410   52.2020 C   0  0  0  0  0  0  0  0  0  0  0  0
   56.0650   31.5840   52.0190 C   0  0  0  0  0  0  0  0  0  0  0  0
   55.2050   30.5170   52.2980 C   0  0  0  0  0  0  0  0  0  0  0  0
   53.4770   30.6960   52.0550 Cl  0  0  0  0  0  0  0  0  0  0  0  0
   55.7270   29.3020   52.7530 C   0  0  0  0  0  0  0  0  0  0  0  0
   57.1050   29.1570   52.9360 C   0  0  0  0  0  0  0  0  0  0  0  0
   60.2340   31.4040   50.9530 N   0  0  0  0  0  0  0  0  0  0  0  0
   61.0390   31.5560   49.7700 C   0  0  0  0  0  0  0  0  0  0  0  0
   62.0020   32.5730   49.7160 C   0  0  0  0  0  0  0  0  0  0  0  0
   62.7880   32.7400   48.5740 C   0  0  0  0  0  0  0  0  0  0  0  0
   62.6190   31.8930   47.4760 C   0  0  0  0  0  0  0  0  0  0  0  0
   61.6590   30.8750   47.5090 C   0  0  0  0  0  0  0  0  0  0  0  0
   61.5070   30.0570   46.3790 O   0  0  0  0  0  0  0  0  0  0  0  0
   60.2860   29.6570   45.8130 C   0  0  0  0  0  0  0  0  0  0  0  0
   60.0520   28.2930   45.6260 C   0  0  0  0  0  0  0  0  0  0  0  0
   58.8390   27.8670   45.0830 C   0  0  0  0  0  0  0  0  0  0  0  0
   57.8880   28.7760   44.7430 N   0  0  0  0  0  0  0  0  0  0  0  0
   58.0720   30.1140   44.9190 C   0  0  0  0  0  0  0  0  0  0  0  0
   57.0040   31.0470   44.5180 C   0  0  0  0  0  0  0  0  0  0  0  0
   55.8010   30.6730   44.5700 O   0  0  0  0  0  0  0  0  0  0  0  0
   57.3260   32.3660   44.0570 N   0  0  0  0  0  0  0  0  0  0  0  0
   57.0200   33.5830   44.8020 C   0  0  0  0  0  0  0  0  0  0  0  0
   58.0460   33.8140   45.8790 C   0  0  0  0  0  0  0  0  0  0  0  0
   57.9160   33.1950   47.1340 C   0  0  0  0  0  0  0  0  0  0  0  0
   58.8550   33.4390   48.1410 C   0  0  0  0  0  0  0  0  0  0  0  0
   59.9270   34.3060   47.9040 C   0  0  0  0  0  0  0  0  0  0  0  0
   60.0630   34.9250   46.6580 C   0  0  0  0  0  0  0  0  0  0  0  0
   59.1280   34.6800   45.6480 C   0  0  0  0  0  0  0  0  0  0  0  0
   59.2770   30.5770   45.4760 C   0  0  0  0  0  0  0  0  0  0  0  0
   60.8460   30.7320   48.6480 C   0  0  0  0  0  0  0  0  0  0  0  0
   58.1181   32.2782   51.9682 H   0  0  0  0  0  0  0  0  0  0  0  0
   55.6558   32.5379   51.6548 H   0  0  0  0  0  0  0  0  0  0  0  0
   55.0525   28.4598   52.9670 H   0  0  0  0  0  0  0  0  0  0  0  0
   57.5125   28.1949   53.2799 H   0  0  0  0  0  0  0  0  0  0  0  0
   59.5770   32.1760   51.2070 H   0  0  0  0  0  0  0  0  0  0  0  0
   62.1393   33.2430   50.5776 H   0  0  0  0  0  0  0  0  0  0  0  0
   63.5419   33.5402   48.5389 H   0  0  0  0  0  0  0  0  0  0  0  0
   63.2438   32.0269   46.5806 H   0  0  0  0  0  0  0  0  0  0  0  0
   60.8206   27.5574   45.9055 H   0  0  0  0  0  0  0  0  0  0  0  0
   58.6525   26.7938   44.9300 H   0  0  0  0  0  0  0  0  0  0  0  0
   57.0205   34.4396   44.1119 H   0  0  0  0  0  0  0  0  0  0  0  0
   56.0308   33.4740   45.2706 H   0  0  0  0  0  0  0  0  0  0  0  0
   57.0721   32.5158   47.3249 H   0  0  0  0  0  0  0  0  0  0  0  0
   58.7507   32.9489   49.1202 H   0  0  0  0  0  0  0  0  0  0  0  0
   60.6629   34.5006   48.6981 H   0  0  0  0  0  0  0  0  0  0  0  0
   60.9068   35.6057   46.4720 H   0  0  0  0  0  0  0  0  0  0  0  0
   59.2399   35.1673   44.6682 H   0  0  0  0  0  0  0  0  0  0  0  0
   59.4298   31.6528   45.6473 H   0  0  0  0  0  0  0  0  0  0  0  0
   60.0532   29.9695   48.6606 H   0  0  0  0  0  0  0  0  0  0  0  0
  1  2  2  0
  2  3  1  0
  3  4  1  0
  4  5  2  0
  5  6  1  0
  6  7  2  0
  7  8  1  0
  7  9  1  0
  9 10  2  0
  2 11  1  0
 11 12  1  0
 12 13  2  0
 13 14  1  0
 14 15  2  0
 15 16  1  0
 16 17  1  0
 17 18  1  0
 18 19  2  0
 19 20  1  0
 20 21  2  0
 21 22  1  0
 22 23  1  0
 23 24  2  0
 23 25  1  0
 25 26  1  0
 26 27  1  0
 27 28  2  0
 28 29  1  0
 29 30  2  0
 30 31  1  0
 31 32  2  0
 22 33  2  0
 16 34  2  0
 10  4  1  0
 34 12  1  0
 33 18  1  0
 32 27  1  0
  5 35  1  0
  6 36  1  0
  9 37  1  0
 10 38  1  0
 11 39  1  0
 13 40  1  0
 14 41  1  0
 15 42  1  0
 19 43  1  0
 20 44  1  0
 26 45  1  0
 26 46  1  0
 28 47  1  0
 29 48  1  0
 30 49  1  0
 31 50  1  0
 32 51  1  0
 33 52  1  0
 34 53  1  0
M  CHG  2   3  -1  25  -1
M  END
>  <UniqueID>  (54) 
51

>  <SMILES>  (54) 
O=C([N-]c1ccc(Cl)cc1)Nc1cccc(Oc2ccnc(C(=O)[N-]Cc3ccccc3)c2)c1

>  <Energy>  (54) 
67.69614950103788

>  <Genealogy>  (54) 
O=C([N-]c1ccc(Cl)cc1)Nc1cccc(Oc2ccnc(C(=O)[N-]Cc3ccccc3)c2)c1 (protonated)
O=C([N-]c1ccc(Cl)cc1)Nc1cccc(Oc2ccnc(C(=O)[N-]Cc3ccccc3)c2)c1 (3D coordinates assigned)
O=C([N-]c1ccc(Cl)cc1)Nc1cccc(Oc2ccnc(C(=O)[N-]Cc3ccccc3)c2)c1 (optimized conformer: 67.69614950103788 kcal/mol)

>  <smiles>  (54) 
O=C(Nc1ccc(Cl)cc1)Nc1cccc(Oc2ccnc(C(=O)NCc3ccccc3)c2)c1

>  <score_type>  (54) 
oracle

>  <origin>  (54) 
adg

>  <m_score__min__energy>  (54) 
-12.6

>  <m_primary>  (54) 
energy

$$$$
54:0
     RDKit          3D

 66 71  0  0  0  0  0  0  0  0999 V2000
   64.5800   30.6190   53.7480 O   0  0  0  0  0  0  0  0  0  0  0  0
   64.3590   31.6990   53.1360 C   0  0  0  0  0  0  0  0  0  0  0  0
   63.1090   32.3670   53.3550 N   0  0  0  0  0  0  0  0  0  0  0  0
   61.9380   32.3040   52.5270 C   0  0  0  0  0  0  0  0  0  0  0  0
   61.3810   31.0810   52.1140 C   0  0  0  0  0  0  0  0  0  0  0  0
   60.2560   31.0620   51.2850 C   0  0  0  0  0  0  0  0  0  0  0  0
   59.6950   32.2680   50.8210 C   0  0  0  0  0  0  0  0  0  0  0  0
   58.5320   32.2970   49.9760 N   0  0  0  0  0  0  0  0  0  0  0  0
   58.4800   32.0250   48.7040 C   0  0  0  0  0  0  0  0  0  0  0  0
   58.2270   32.9950   47.7840 N   0  0  0  0  0  0  0  0  0  0  0  0
   58.1440   32.7100   46.4610 C   0  0  0  0  0  0  0  0  0  0  0  0
   57.8780   33.7330   45.5450 C   0  0  0  0  0  0  0  0  0  0  0  0
   57.7630   33.4450   44.1830 C   0  0  0  0  0  0  0  0  0  0  0  0
   57.9070   32.1310   43.7320 C   0  0  0  0  0  0  0  0  0  0  0  0
   58.1740   31.0990   44.6370 C   0  0  0  0  0  0  0  0  0  0  0  0
   58.3140   31.3800   46.0120 C   0  0  0  0  0  0  0  0  0  0  0  0
   58.5810   30.3870   46.9830 C   0  0  0  0  0  0  0  0  0  0  0  0
   58.8040   28.9680   46.6380 C   0  0  0  0  0  0  0  0  0  0  0  0
   60.0910   28.4170   46.7390 C   0  0  0  0  0  0  0  0  0  0  0  0
   60.3160   27.0810   46.3900 C   0  0  0  0  0  0  0  0  0  0  0  0
   59.2600   26.2940   45.9210 C   0  0  0  0  0  0  0  0  0  0  0  0
   57.9800   26.8410   45.7980 C   0  0  0  0  0  0  0  0  0  0  0  0
   57.7520   28.1750   46.1480 C   0  0  0  0  0  0  0  0  0  0  0  0
   58.6410   30.7410   48.2950 N   0  0  0  0  0  0  0  0  0  0  0  0
   60.2440   33.4820   51.2480 C   0  0  0  0  0  0  0  0  0  0  0  0
   61.3670   33.5000   52.0790 C   0  0  0  0  0  0  0  0  0  0  0  0
   65.3870   32.2160   52.2000 C   0  0  0  0  0  0  0  0  0  0  0  0
   66.5670   32.7560   52.7420 C   0  0  0  0  0  0  0  0  0  0  0  0
   67.5360   33.3260   51.9130 C   0  0  0  0  0  0  0  0  0  0  0  0
   67.3410   33.3590   50.5320 C   0  0  0  0  0  0  0  0  0  0  0  0
   66.1880   32.8080   49.9740 C   0  0  0  0  0  0  0  0  0  0  0  0
   65.2130   32.2110   50.7910 C   0  0  0  0  0  0  0  0  0  0  0  0
   64.0590   31.5570   50.1320 C   0  0  0  0  0  0  0  0  0  0  0  0
   63.7400   30.3940   50.4970 O   0  0  0  0  0  0  0  0  0  0  0  0
   63.2820   32.2250   49.1160 N   0  0  0  0  0  0  0  0  0  0  0  0
   63.3060   33.6870   48.9580 C   0  0  0  0  0  0  0  0  0  0  0  0
   61.8880   34.2350   48.7160 C   0  0  0  0  0  0  0  0  0  0  0  0
   61.0440   33.4010   47.8330 N   0  0  0  0  0  0  0  0  0  0  0  0
   61.7670   32.3100   47.1660 C   0  0  0  0  0  0  0  0  0  0  0  0
   62.4730   31.4200   48.1930 C   0  0  0  0  0  0  0  0  0  0  0  0
   61.8329   30.1343   52.4450 H   0  0  0  0  0  0  0  0  0  0  0  0
   59.8067   30.1012   50.9936 H   0  0  0  0  0  0  0  0  0  0  0  0
   57.7590   34.7679   45.8984 H   0  0  0  0  0  0  0  0  0  0  0  0
   57.5590   34.2534   43.4654 H   0  0  0  0  0  0  0  0  0  0  0  0
   57.8099   31.9068   42.6595 H   0  0  0  0  0  0  0  0  0  0  0  0
   58.2751   30.0650   44.2755 H   0  0  0  0  0  0  0  0  0  0  0  0
   60.9264   29.0383   47.0941 H   0  0  0  0  0  0  0  0  0  0  0  0
   61.3236   26.6499   46.4846 H   0  0  0  0  0  0  0  0  0  0  0  0
   59.4369   25.2431   45.6485 H   0  0  0  0  0  0  0  0  0  0  0  0
   57.1511   26.2213   45.4254 H   0  0  0  0  0  0  0  0  0  0  0  0
   56.7457   28.6057   46.0396 H   0  0  0  0  0  0  0  0  0  0  0  0
   59.7878   34.4300   50.9268 H   0  0  0  0  0  0  0  0  0  0  0  0
   61.8055   34.4618   52.3833 H   0  0  0  0  0  0  0  0  0  0  0  0
   66.7285   32.7292   53.8298 H   0  0  0  0  0  0  0  0  0  0  0  0
   68.4530   33.7489   52.3491 H   0  0  0  0  0  0  0  0  0  0  0  0
   68.0986   33.8208   49.8818 H   0  0  0  0  0  0  0  0  0  0  0  0
   66.0404   32.8410   48.8845 H   0  0  0  0  0  0  0  0  0  0  0  0
   63.7171   34.1416   49.8714 H   0  0  0  0  0  0  0  0  0  0  0  0
   63.9332   33.9371   48.0896 H   0  0  0  0  0  0  0  0  0  0  0  0
   61.3836   34.3217   49.6897 H   0  0  0  0  0  0  0  0  0  0  0  0
   62.0120   35.2009   48.2045 H   0  0  0  0  0  0  0  0  0  0  0  0
   60.2710   32.9790   48.4000 H   0  0  0  0  0  0  0  0  0  0  0  0
   61.0527   31.7018   46.5917 H   0  0  0  0  0  0  0  0  0  0  0  0
   62.5234   32.7451   46.4962 H   0  0  0  0  0  0  0  0  0  0  0  0
   61.7175   30.8640   48.7675 H   0  0  0  0  0  0  0  0  0  0  0  0
   63.1372   30.7252   47.6581 H   0  0  0  0  0  0  0  0  0  0  0  0
  1  2  2  0
  2  3  1  0
  3  4  1  0
  4  5  2  0
  5  6  1  0
  6  7  2  0
  7  8  1  0
  8  9  2  3
  9 10  1  0
 10 11  2  0
 11 12  1  0
 12 13  2  0
 13 14  1  0
 14 15  2  0
 15 16  1  0
 16 17  2  0
 17 18  1  0
 18 19  2  0
 19 20  1  0
 20 21  2  0
 21 22  1  0
 22 23  2  0
 17 24  1  0
  7 25  1  0
 25 26  2  0
  2 27  1  0
 27 28  2  0
 28 29  1  0
 29 30  2  0
 30 31  1  0
 31 32  2  0
 32 33  1  0
 33 34  2  0
 33 35  1  0
 35 36  1  0
 36 37  1  0
 37 38  1  0
 38 39  1  0
 39 40  1  0
 26  4  1  0
 32 27  1  0
 40 35  1  0
 24  9  1  0
 16 11  1  0
 23 18  1  0
  5 41  1  0
  6 42  1  0
 12 43  1  0
 13 44  1  0
 14 45  1  0
 15 46  1  0
 19 47  1  0
 20 48  1  0
 21 49  1  0
 22 50  1  0
 23 51  1  0
 25 52  1  0
 26 53  1  0
 28 54  1  0
 29 55  1  0
 30 56  1  0
 31 57  1  0
 36 58  1  0
 36 59  1  0
 37 60  1  0
 37 61  1  0
 38 62  1  0
 39 63  1  0
 39 64  1  0
 40 65  1  0
 40 66  1  0
M  CHG  2   3  -1  24  -1
M  END
>  <UniqueID>  (55) 
52

>  <SMILES>  (55) 
O=C([N-]c1ccc(N=c2nc3ccccc3c(-c3ccccc3)[n-]2)cc1)c1ccccc1C(=O)N1CCNCC1

>  <Energy>  (55) 
109.53484970292939

>  <Genealogy>  (55) 
O=C([N-]c1ccc(N=c2nc3ccccc3c(-c3ccccc3)[n-]2)cc1)c1ccccc1C(=O)N1CCNCC1 (protonated)
O=C([N-]c1ccc(N=c2nc3ccccc3c(-c3ccccc3)[n-]2)cc1)c1ccccc1C(=O)N1CCNCC1 (3D coordinates assigned)
O=C([N-]c1ccc(N=c2nc3ccccc3c(-c3ccccc3)[n-]2)cc1)c1ccccc1C(=O)N1CCNCC1 (nonaromatic ring conformer: 109.53484970292939 kcal/mol)

>  <smiles>  (55) 
O=C(Nc1ccc(N=c2nc3ccccc3c(-c3ccccc3)[nH]2)cc1)c1ccccc1C(=O)N1CCNCC1

>  <score_type>  (55) 
oracle

>  <origin>  (55) 
adg

>  <m_score__min__energy>  (55) 
-13.289999999999999

>  <m_primary>  (55) 
energy

$$$$
55:0
     RDKit          3D

 41 43  0  0  0  0  0  0  0  0999 V2000
   62.6690   34.8650   50.1020 O   0  0  0  0  0  0  0  0  0  0  0  0
   62.7760   34.1200   49.0890 C   0  0  0  0  0  0  0  0  0  0  0  0
   64.0160   33.4500   48.8170 N   0  0  0  0  0  0  0  0  0  0  0  0
   64.7150   32.5530   49.6920 C   0  0  0  0  0  0  0  0  0  0  0  0
   66.0830   32.7620   49.9110 C   0  0  0  0  0  0  0  0  0  0  0  0
   66.7980   31.9230   50.7730 C   0  0  0  0  0  0  0  0  0  0  0  0
   66.1450   30.8790   51.4330 C   0  0  0  0  0  0  0  0  0  0  0  0
   64.7760   30.6770   51.2390 C   0  0  0  0  0  0  0  0  0  0  0  0
   64.0580   31.5140   50.3780 C   0  0  0  0  0  0  0  0  0  0  0  0
   61.6030   33.8970   48.2100 C   0  0  0  0  0  0  0  0  0  0  0  0
   60.3140   33.7560   48.7560 C   0  0  0  0  0  0  0  0  0  0  0  0
   59.2100   33.5440   47.9260 C   0  0  0  0  0  0  0  0  0  0  0  0
   59.3770   33.4650   46.5370 C   0  0  0  0  0  0  0  0  0  0  0  0
   57.9990   33.2070   45.4750 S   0  0  0  0  0  0  0  0  0  0  0  0
   56.9260   34.2080   45.8040 O   0  0  0  0  0  0  0  0  0  0  0  0
   58.3950   33.3840   44.0360 O   0  0  0  0  0  0  0  0  0  0  0  0
   57.4080   31.5940   45.6990 N   0  0  0  0  0  0  0  0  0  0  0  0
   58.1530   30.4520   45.2720 C   0  0  0  0  0  0  0  0  0  0  0  0
   59.4890   30.3370   45.6780 C   0  0  0  0  0  0  0  0  0  0  0  0
   60.2370   29.2080   45.3420 C   0  0  0  0  0  0  0  0  0  0  0  0
   59.6560   28.1840   44.5940 C   0  0  0  0  0  0  0  0  0  0  0  0
   58.3310   28.2930   44.1650 C   0  0  0  0  0  0  0  0  0  0  0  0
   57.5670   29.4310   44.4810 C   0  0  0  0  0  0  0  0  0  0  0  0
   56.2250   29.5470   43.9700 N   0  0  0  0  0  0  0  0  0  0  0  0
   56.0170   29.6960   42.7490 O   0  0  0  0  0  0  0  0  0  0  0  0
   55.1490   29.3520   44.8060 O   0  0  0  0  0  0  0  0  0  0  0  0
   60.6560   33.6030   45.9860 C   0  0  0  0  0  0  0  0  0  0  0  0
   61.7620   33.8180   46.8140 C   0  0  0  0  0  0  0  0  0  0  0  0
   66.5979   33.5904   49.4024 H   0  0  0  0  0  0  0  0  0  0  0  0
   67.8744   32.0855   50.9310 H   0  0  0  0  0  0  0  0  0  0  0  0
   66.7087   30.2158   52.1056 H   0  0  0  0  0  0  0  0  0  0  0  0
   64.2619   29.8585   51.7641 H   0  0  0  0  0  0  0  0  0  0  0  0
   62.9780   31.3599   50.2368 H   0  0  0  0  0  0  0  0  0  0  0  0
   60.1741   33.8131   49.8456 H   0  0  0  0  0  0  0  0  0  0  0  0
   58.2066   33.4388   48.3644 H   0  0  0  0  0  0  0  0  0  0  0  0
   59.9519   31.1430   46.2662 H   0  0  0  0  0  0  0  0  0  0  0  0
   61.2847   29.1255   45.6669 H   0  0  0  0  0  0  0  0  0  0  0  0
   60.2426   27.2884   44.3413 H   0  0  0  0  0  0  0  0  0  0  0  0
   57.8809   27.4813   43.5746 H   0  0  0  0  0  0  0  0  0  0  0  0
   60.7919   33.5420   44.8961 H   0  0  0  0  0  0  0  0  0  0  0  0
   62.7631   33.9261   46.3712 H   0  0  0  0  0  0  0  0  0  0  0  0
  1  2  2  0
  2  3  1  0
  3  4  1  0
  4  5  2  0
  5  6  1  0
  6  7  2  0
  7  8  1  0
  8  9  2  0
  2 10  1  0
 10 11  2  0
 11 12  1  0
 12 13  2  0
 13 14  1  0
 14 15  2  0
 14 16  2  0
 14 17  1  0
 17 18  1  0
 18 19  2  0
 19 20  1  0
 20 21  2  0
 21 22  1  0
 22 23  2  0
 23 24  1  0
 24 25  2  0
 24 26  1  0
 13 27  1  0
 27 28  2  0
  9  4  1  0
 28 10  1  0
 23 18  1  0
  5 29  1  0
  6 30  1  0
  7 31  1  0
  8 32  1  0
  9 33  1  0
 11 34  1  0
 12 35  1  0
 19 36  1  0
 20 37  1  0
 21 38  1  0
 22 39  1  0
 27 40  1  0
 28 41  1  0
M  CHG  4   3  -1  17  -1  24   1  26  -1
M  END
>  <UniqueID>  (56) 
53

>  <SMILES>  (56) 
O=C([N-]c1ccccc1)c1ccc(S(=O)(=O)[N-]c2ccccc2[N+](=O)[O-])cc1

>  <Energy>  (56) 
61.74827821390598

>  <Genealogy>  (56) 
O=C([N-]c1ccccc1)c1ccc(S(=O)(=O)[N-]c2ccccc2[N+](=O)[O-])cc1 (protonated)
O=C([N-]c1ccccc1)c1ccc(S(=O)(=O)[N-]c2ccccc2[N+](=O)[O-])cc1 (3D coordinates assigned)
O=C([N-]c1ccccc1)c1ccc(S(=O)(=O)[N-]c2ccccc2[N+](=O)[O-])cc1 (optimized conformer: 61.74827821390598 kcal/mol)

>  <smiles>  (56) 
O=C(Nc1ccccc1)c1ccc(S(=O)(=O)Nc2ccccc2[N+](=O)[O-])cc1

>  <score_type>  (56) 
oracle

>  <origin>  (56) 
adg

>  <m_score__min__energy>  (56) 
-13

>  <m_primary>  (56) 
energy

$$$$
56:0
     RDKit          3D

 22 23  0  0  0  0  0  0  0  0999 V2000
   55.1890   26.6390   45.9970 N   0  0  0  0  0  0  0  0  0  0  0  0
   56.8750   26.9950   45.8560 S   0  0  0  0  0  0  0  0  0  0  0  0
   57.5790   26.5540   47.1080 O   0  0  0  0  0  0  0  0  0  0  0  0
   57.4280   26.2430   44.6780 O   0  0  0  0  0  0  0  0  0  0  0  0
   57.1250   28.7300   45.6260 C   0  0  0  0  0  0  0  0  0  0  0  0
   58.2820   29.3460   46.1230 C   0  0  0  0  0  0  0  0  0  0  0  0
   58.4810   30.7200   45.9340 C   0  0  0  0  0  0  0  0  0  0  0  0
   59.6260   31.3640   46.4260 C   0  0  0  0  0  0  0  0  0  0  0  0
   59.8000   32.7410   46.2230 C   0  0  0  0  0  0  0  0  0  0  0  0
   60.9350   33.3870   46.7080 O   0  0  0  0  0  0  0  0  0  0  0  0
   58.8270   33.4730   45.5280 C   0  0  0  0  0  0  0  0  0  0  0  0
   58.9950   34.8380   45.3250 O   0  0  0  0  0  0  0  0  0  0  0  0
   57.6840   32.8350   45.0350 C   0  0  0  0  0  0  0  0  0  0  0  0
   57.5050   31.4620   45.2360 C   0  0  0  0  0  0  0  0  0  0  0  0
   56.3960   30.8400   44.7540 N   0  0  0  0  0  0  0  0  0  0  0  0
   56.1850   29.5080   44.9270 C   0  0  0  0  0  0  0  0  0  0  0  0
   55.1430   28.9840   44.4530 O   0  0  0  0  0  0  0  0  0  0  0  0
   54.7790   26.7170   45.0400 H   0  0  0  0  0  0  0  0  0  0  0  0
   59.0339   28.7505   46.6615 H   0  0  0  0  0  0  0  0  0  0  0  0
   60.3883   30.7885   46.9716 H   0  0  0  0  0  0  0  0  0  0  0  0
   61.0760   34.3820   46.5790 H   0  0  0  0  0  0  0  0  0  0  0  0
   56.9247   33.4136   44.4885 H   0  0  0  0  0  0  0  0  0  0  0  0
  1  2  1  0
  2  3  2  0
  2  4  2  0
  2  5  1  0
  5  6  2  0
  6  7  1  0
  7  8  2  0
  8  9  1  0
  9 10  1  0
  9 11  2  0
 11 12  1  0
 11 13  1  0
 13 14  2  0
 14 15  1  0
 15 16  1  0
 16 17  2  0
 16  5  1  0
 14  7  1  0
  1 18  1  0
  6 19  1  0
  8 20  1  0
 10 21  1  0
 13 22  1  0
M  CHG  3   1  -1  12  -1  15  -1
M  END
>  <UniqueID>  (57) 
54

>  <SMILES>  (57) 
[NH-]S(=O)(=O)c1cc2cc(O)c([O-])cc2[n-]c1=O

>  <Energy>  (57) 
26.87076665799285

>  <Genealogy>  (57) 
[NH-]S(=O)(=O)c1cc2cc(O)c([O-])cc2[n-]c1=O (protonated)
[NH-]S(=O)(=O)c1cc2cc(O)c([O-])cc2[n-]c1=O (3D coordinates assigned)
[NH-]S(=O)(=O)c1cc2cc(O)c([O-])cc2[n-]c1=O (optimized conformer: 26.87076665799285 kcal/mol)

>  <smiles>  (57) 
NS(=O)(=O)c1cc2cc(O)c(O)cc2[nH]c1=O

>  <score_type>  (57) 
oracle

>  <origin>  (57) 
adg

>  <m_score__min__energy>  (57) 
-11.09

>  <m_primary>  (57) 
energy

$$$$
57:0
     RDKit          3D

 42 44  0  0  0  0  0  0  0  0999 V2000
   54.8770   29.3440   45.6140 H   0  0  0  0  0  0  0  0  0  0  0  0
   55.1420   29.2790   44.6050 N   0  0  0  0  0  0  0  0  0  0  0  0
   56.7680   29.8480   44.4730 S   0  0  0  0  0  0  0  0  0  0  0  0
   56.8940   31.1590   45.1970 O   0  0  0  0  0  0  0  0  0  0  0  0
   57.0990   30.0720   43.0250 O   0  0  0  0  0  0  0  0  0  0  0  0
   57.8620   28.6530   45.1920 C   0  0  0  0  0  0  0  0  0  0  0  0
   57.4830   27.3010   45.1880 C   0  0  0  0  0  0  0  0  0  0  0  0
   56.4869   27.0153   44.8191 H   0  0  0  0  0  0  0  0  0  0  0  0
   58.3590   26.3160   45.6480 C   0  0  0  0  0  0  0  0  0  0  0  0
   58.0432   25.2624   45.6613 H   0  0  0  0  0  0  0  0  0  0  0  0
   59.6350   26.6670   46.0910 C   0  0  0  0  0  0  0  0  0  0  0  0
   60.3308   25.8876   46.4350 H   0  0  0  0  0  0  0  0  0  0  0  0
   60.0290   28.0050   46.0980 C   0  0  0  0  0  0  0  0  0  0  0  0
   61.0477   28.2735   46.4145 H   0  0  0  0  0  0  0  0  0  0  0  0
   59.1320   29.0120   45.7030 C   0  0  0  0  0  0  0  0  0  0  0  0
   59.6080   30.4040   45.6510 C   0  0  0  0  0  0  0  0  0  0  0  0
   60.2268   30.6728   44.7822 H   0  0  0  0  0  0  0  0  0  0  0  0
   59.3750   31.3890   46.5430 C   0  0  0  0  0  0  0  0  0  0  0  0
   59.4080   31.0610   48.1900 S   0  0  0  0  0  0  0  0  0  0  0  0
   59.0840   32.6310   48.6870 C   0  0  0  0  0  0  0  0  0  0  0  0
   58.9870   33.0270   49.9780 C   0  0  0  0  0  0  0  0  0  0  0  0
   59.5430   34.2380   50.3980 O   0  0  0  0  0  0  0  0  0  0  0  0
   59.6010   35.0600   49.8080 H   0  0  0  0  0  0  0  0  0  0  0  0
   58.3120   32.2270   51.0180 C   0  0  0  0  0  0  0  0  0  0  0  0
   58.0180   30.8760   50.9460 C   0  0  0  0  0  0  0  0  0  0  0  0
   58.1557   30.2164   50.0765 H   0  0  0  0  0  0  0  0  0  0  0  0
   57.5180   30.5220   52.1820 C   0  0  0  0  0  0  0  0  0  0  0  0
   57.1637   29.5263   52.4872 H   0  0  0  0  0  0  0  0  0  0  0  0
   57.5490   31.6610   52.9610 C   0  0  0  0  0  0  0  0  0  0  0  0
   57.2159   31.7180   54.0078 H   0  0  0  0  0  0  0  0  0  0  0  0
   58.0460   32.6910   52.2530 N   0  0  0  0  0  0  0  0  0  0  0  0
   58.2060   33.6620   52.6040 H   0  0  0  0  0  0  0  0  0  0  0  0
   58.9920   33.4050   47.5180 C   0  0  0  0  0  0  0  0  0  0  0  0
   58.8510   34.6580   47.5440 O   0  0  0  0  0  0  0  0  0  0  0  0
   59.1270   32.7230   46.3310 N   0  0  0  0  0  0  0  0  0  0  0  0
   59.1160   33.4480   45.0460 C   0  0  0  0  0  0  0  0  0  0  0  0
   59.3151   32.7370   44.2306 H   0  0  0  0  0  0  0  0  0  0  0  0
   59.8920   34.2270   45.0777 H   0  0  0  0  0  0  0  0  0  0  0  0
   57.7680   34.1170   44.8050 C   0  0  0  0  0  0  0  0  0  0  0  0
   57.2968   34.3509   45.7711 H   0  0  0  0  0  0  0  0  0  0  0  0
   57.9164   35.0460   44.2350 H   0  0  0  0  0  0  0  0  0  0  0  0
   57.1179   33.4370   44.2350 H   0  0  0  0  0  0  0  0  0  0  0  0
  1  2  1  0
  2  3  1  0
  3  4  2  0
  3  5  2  0
  3  6  1  0
  6  7  2  0
  7  8  1  0
  7  9  1  0
  9 10  1  0
  9 11  2  0
 11 12  1  0
 11 13  1  0
 13 14  1  0
 13 15  2  0
 15 16  1  0
 16 17  1  0
 16 18  2  0
 18 19  1  0
 19 20  1  0
 20 21  2  3
 21 22  1  0
 22 23  1  0
 21 24  1  0
 24 25  2  0
 25 26  1  0
 25 27  1  0
 27 28  1  0
 27 29  2  0
 29 30  1  0
 29 31  1  0
 31 32  1  0
 20 33  1  0
 33 34  2  0
 33 35  1  0
 35 36  1  0
 36 37  1  0
 36 38  1  0
 36 39  1  0
 39 40  1  0
 39 41  1  0
 39 42  1  0
 15  6  1  0
 35 18  1  0
 31 24  1  0
M  CHG  1   2  -1
M  END
>  <UniqueID>  (58) 
55

>  <SMILES>  (58) 
CCn1c(=O)c(=C(O)c2ccc[nH]2)s/c1=C/c1ccccc1S([NH-])(=O)=O

>  <Energy>  (58) 
124.05686030075957

>  <Genealogy>  (58) 
CCn1c(=Cc2ccccc2S([NH-])(=O)=O)sc(=C(O)c2ccc[nH]2)c1=O (protonated)
CCn1c(=O)c(=C(O)c2ccc[nH]2)s/c1=C/c1ccccc1S([NH-])(=O)=O (cis-trans isomerization)
CCn1c(=O)c(=C(O)c2ccc[nH]2)s/c1=C/c1ccccc1S([NH-])(=O)=O (3D coordinates assigned)
CCn1c(=O)c(=C(O)c2ccc[nH]2)s/c1=C/c1ccccc1S([NH-])(=O)=O (optimized conformer: 124.05686030075957 kcal/mol)

>  <smiles>  (58) 
CCn1c(=Cc2ccccc2S(N)(=O)=O)sc(=C(O)c2ccc[nH]2)c1=O

>  <score_type>  (58) 
oracle

>  <origin>  (58) 
adg

>  <m_score__min__energy>  (58) 
-11.73

>  <m_primary>  (58) 
energy

$$$$
58:0
     RDKit          3D

 39 41  0  0  0  0  0  0  0  0999 V2000
   59.3580   34.1960   44.3200 O   0  0  0  0  0  0  0  0  0  0  0  0
   58.8520   33.6170   45.3200 C   0  0  0  0  0  0  0  0  0  0  0  0
   58.7530   34.2890   46.5460 O   0  0  0  0  0  0  0  0  0  0  0  0
   59.3080   33.7880   47.7600 C   0  0  0  0  0  0  0  0  0  0  0  0
   60.7510   33.4110   47.5620 C   0  0  0  0  0  0  0  0  0  0  0  0
   61.5940   34.1990   46.7600 C   0  0  0  0  0  0  0  0  0  0  0  0
   62.9390   33.8500   46.5980 C   0  0  0  0  0  0  0  0  0  0  0  0
   63.4500   32.7170   47.2380 C   0  0  0  0  0  0  0  0  0  0  0  0
   62.6170   31.9320   48.0410 C   0  0  0  0  0  0  0  0  0  0  0  0
   61.2730   32.2780   48.2050 C   0  0  0  0  0  0  0  0  0  0  0  0
   58.3610   32.2260   45.2020 C   0  0  0  0  0  0  0  0  0  0  0  0
   59.0610   31.1650   45.8010 C   0  0  0  0  0  0  0  0  0  0  0  0
   58.5950   29.8520   45.6840 C   0  0  0  0  0  0  0  0  0  0  0  0
   57.4260   29.5740   44.9540 C   0  0  0  0  0  0  0  0  0  0  0  0
   56.9130   28.2360   44.8390 N   0  0  0  0  0  0  0  0  0  0  0  0
   56.9120   27.2830   45.9150 C   0  0  0  0  0  0  0  0  0  0  0  0
   57.6500   27.4620   46.9220 O   0  0  0  0  0  0  0  0  0  0  0  0
   56.0880   26.0650   45.8470 C   0  0  0  0  0  0  0  0  0  0  0  0
   56.5280   24.7610   45.9780 C   0  0  0  0  0  0  0  0  0  0  0  0
   55.4040   23.9740   45.8350 C   0  0  0  0  0  0  0  0  0  0  0  0
   54.3530   24.8410   45.6240 C   0  0  0  0  0  0  0  0  0  0  0  0
   54.7910   26.0800   45.6360 O   0  0  0  0  0  0  0  0  0  0  0  0
   56.7160   30.6360   44.3760 C   0  0  0  0  0  0  0  0  0  0  0  0
   57.1820   31.9490   44.4910 C   0  0  0  0  0  0  0  0  0  0  0  0
   59.2396   34.5638   48.5369 H   0  0  0  0  0  0  0  0  0  0  0  0
   58.7451   32.8942   48.0670 H   0  0  0  0  0  0  0  0  0  0  0  0
   61.1951   35.0929   46.2581 H   0  0  0  0  0  0  0  0  0  0  0  0
   63.5949   34.4674   45.9667 H   0  0  0  0  0  0  0  0  0  0  0  0
   64.5076   32.4431   47.1098 H   0  0  0  0  0  0  0  0  0  0  0  0
   63.0201   31.0408   48.5443 H   0  0  0  0  0  0  0  0  0  0  0  0
   60.6217   31.6599   48.8405 H   0  0  0  0  0  0  0  0  0  0  0  0
   59.9824   31.3689   46.3661 H   0  0  0  0  0  0  0  0  0  0  0  0
   59.1464   29.0313   46.1661 H   0  0  0  0  0  0  0  0  0  0  0  0
   56.6180   27.9090   43.8910 H   0  0  0  0  0  0  0  0  0  0  0  0
   57.5587   24.4219   46.1585 H   0  0  0  0  0  0  0  0  0  0  0  0
   55.3560   22.8760   45.8802 H   0  0  0  0  0  0  0  0  0  0  0  0
   53.3061   24.5410   45.4690 H   0  0  0  0  0  0  0  0  0  0  0  0
   55.7842   30.4343   43.8273 H   0  0  0  0  0  0  0  0  0  0  0  0
   56.6214   32.7707   44.0214 H   0  0  0  0  0  0  0  0  0  0  0  0
  1  2  2  0
  2  3  1  0
  3  4  1  0
  4  5  1  0
  5  6  2  0
  6  7  1  0
  7  8  2  0
  8  9  1  0
  9 10  2  0
  2 11  1  0
 11 12  2  0
 12 13  1  0
 13 14  2  0
 14 15  1  0
 15 16  1  0
 16 17  2  0
 16 18  1  0
 18 19  2  0
 19 20  1  0
 20 21  2  0
 21 22  1  0
 14 23  1  0
 23 24  2  0
 10  5  1  0
 24 11  1  0
 22 18  1  0
  4 25  1  0
  4 26  1  0
  6 27  1  0
  7 28  1  0
  8 29  1  0
  9 30  1  0
 10 31  1  0
 12 32  1  0
 13 33  1  0
 15 34  1  0
 19 35  1  0
 20 36  1  0
 21 37  1  0
 23 38  1  0
 24 39  1  0
M  END
>  <UniqueID>  (59) 
56

>  <SMILES>  (59) 
O=C(OCc1ccccc1)c1ccc(NC(=O)c2ccco2)cc1

>  <Energy>  (59) 
69.1272989295981

>  <Genealogy>  (59) 
O=C(OCc1ccccc1)c1ccc(NC(=O)c2ccco2)cc1 (3D coordinates assigned)
O=C(OCc1ccccc1)c1ccc(NC(=O)c2ccco2)cc1 (optimized conformer: 69.1272989295981 kcal/mol)

>  <smiles>  (59) 
O=C(OCc1ccccc1)c1ccc(NC(=O)c2ccco2)cc1

>  <score_type>  (59) 
oracle

>  <origin>  (59) 
adg

>  <m_score__min__energy>  (59) 
-8.25

>  <m_primary>  (59) 
energy

$$$$
59:0
     RDKit          3D

 36 37  0  0  0  0  0  0  0  0999 V2000
   55.1070   21.3120   45.6440 C   0  0  0  0  0  0  0  0  0  0  0  0
   55.0080   22.5670   45.1920 C   0  0  0  0  0  0  0  0  0  0  0  0
   54.7090   23.7170   46.1150 C   0  0  0  0  0  0  0  0  0  0  0  0
   55.9320   24.4720   46.4050 N   0  0  0  0  0  0  0  0  0  0  0  0
   56.1020   25.8040   46.3660 C   0  0  0  0  0  0  0  0  0  0  0  0
   55.1290   26.7150   45.9690 O   0  0  0  0  0  0  0  0  0  0  0  0
   57.3870   26.1010   46.7700 C   0  0  0  0  0  0  0  0  0  0  0  0
   58.0100   27.4610   46.8280 C   0  0  0  0  0  0  0  0  0  0  0  0
   57.6470   28.2490   45.5980 C   0  0  0  0  0  0  0  0  0  0  0  0
   57.7340   27.6590   44.3280 C   0  0  0  0  0  0  0  0  0  0  0  0
   57.4290   28.4040   43.1840 C   0  0  0  0  0  0  0  0  0  0  0  0
   57.0460   29.7460   43.2990 C   0  0  0  0  0  0  0  0  0  0  0  0
   56.9690   30.3550   44.5660 C   0  0  0  0  0  0  0  0  0  0  0  0
   56.5860   31.7280   44.7350 N   0  0  0  0  0  0  0  0  0  0  0  0
   57.5550   32.9730   45.4580 S   0  0  0  0  0  0  0  0  0  0  0  0
   59.1470   32.3240   45.9230 C   0  0  0  0  0  0  0  0  0  0  0  0
   56.8580   33.4670   46.6960 O   0  0  0  0  0  0  0  0  0  0  0  0
   57.7160   34.1230   44.5020 O   0  0  0  0  0  0  0  0  0  0  0  0
   57.2750   29.6010   45.7080 C   0  0  0  0  0  0  0  0  0  0  0  0
   58.0440   24.9550   47.0590 N   0  0  0  0  0  0  0  0  0  0  0  0
   57.1220   23.9940   46.8300 C   0  0  0  0  0  0  0  0  0  0  0  0
   57.3590   22.7660   46.9970 O   0  0  0  0  0  0  0  0  0  0  0  0
   55.3266   20.4914   44.9451 H   0  0  0  0  0  0  0  0  0  0  0  0
   54.9688   21.1005   46.7146 H   0  0  0  0  0  0  0  0  0  0  0  0
   55.1487   22.7632   44.1188 H   0  0  0  0  0  0  0  0  0  0  0  0
   53.9762   24.3839   45.6373 H   0  0  0  0  0  0  0  0  0  0  0  0
   54.3025   23.3213   47.0574 H   0  0  0  0  0  0  0  0  0  0  0  0
   57.6450   27.9907   47.7203 H   0  0  0  0  0  0  0  0  0  0  0  0
   59.1037   27.3542   46.8775 H   0  0  0  0  0  0  0  0  0  0  0  0
   58.0429   26.6077   44.2316 H   0  0  0  0  0  0  0  0  0  0  0  0
   57.4902   27.9343   42.1912 H   0  0  0  0  0  0  0  0  0  0  0  0
   56.8045   30.3264   42.3963 H   0  0  0  0  0  0  0  0  0  0  0  0
   59.2240   32.2926   47.0199 H   0  0  0  0  0  0  0  0  0  0  0  0
   59.2611   31.3076   45.5182 H   0  0  0  0  0  0  0  0  0  0  0  0
   59.9392   32.9710   45.5182 H   0  0  0  0  0  0  0  0  0  0  0  0
   57.2236   30.0720   46.7007 H   0  0  0  0  0  0  0  0  0  0  0  0
  1  2  2  0
  2  3  1  0
  3  4  1  0
  4  5  1  0
  5  6  1  0
  5  7  2  0
  7  8  1  0
  8  9  1  0
  9 10  2  0
 10 11  1  0
 11 12  2  0
 12 13  1  0
 13 14  1  0
 14 15  1  0
 15 16  1  0
 15 17  2  0
 15 18  2  0
 13 19  2  0
  7 20  1  0
 20 21  1  0
 21 22  2  0
 21  4  1  0
 19  9  1  0
  1 23  1  0
  1 24  1  0
  2 25  1  0
  3 26  1  0
  3 27  1  0
  8 28  1  0
  8 29  1  0
 10 30  1  0
 11 31  1  0
 12 32  1  0
 16 33  1  0
 16 34  1  0
 16 35  1  0
 19 36  1  0
M  CHG  3   6  -1  14  -1  20  -1
M  END
>  <UniqueID>  (60) 
57

>  <SMILES>  (60) 
C=CCn1c([O-])c(Cc2cccc([N-]S(C)(=O)=O)c2)[n-]c1=O

>  <Energy>  (60) 
62.231290927146574

>  <Genealogy>  (60) 
C=CCn1c([O-])c(Cc2cccc([N-]S(C)(=O)=O)c2)[n-]c1=O (protonated)
C=CCn1c([O-])c(Cc2cccc([N-]S(C)(=O)=O)c2)[n-]c1=O (3D coordinates assigned)
C=CCn1c([O-])c(Cc2cccc([N-]S(C)(=O)=O)c2)[n-]c1=O (optimized conformer: 62.231290927146574 kcal/mol)

>  <smiles>  (60) 
C=CCn1c(O)c(Cc2cccc(NS(C)(=O)=O)c2)[nH]c1=O

>  <score_type>  (60) 
oracle

>  <origin>  (60) 
adg

>  <m_score__min__energy>  (60) 
-13.34

>  <m_primary>  (60) 
energy

$$$$
60:0
     RDKit          3D

 50 52  0  0  0  0  0  0  0  0999 V2000
   55.8960   30.1060   43.6880 C   0  0  0  0  0  0  0  0  0  0  0  0
   55.5500   29.3030   44.8510 N   0  0  0  0  0  0  0  0  0  0  0  0
   56.3840   28.2510   45.3380 C   0  0  0  0  0  0  0  0  0  0  0  0
   55.8860   27.1270   45.6190 O   0  0  0  0  0  0  0  0  0  0  0  0
   57.7630   28.4740   45.4440 O   0  0  0  0  0  0  0  0  0  0  0  0
   58.6000   27.9230   46.4280 C   0  0  0  0  0  0  0  0  0  0  0  0
   58.8910   26.5460   46.4590 C   0  0  0  0  0  0  0  0  0  0  0  0
   59.7350   26.0230   47.4400 C   0  0  0  0  0  0  0  0  0  0  0  0
   60.3030   26.8620   48.4000 C   0  0  0  0  0  0  0  0  0  0  0  0
   61.1670   26.3310   49.3540 O   0  0  0  0  0  0  0  0  0  0  0  0
   59.9950   28.2280   48.3990 C   0  0  0  0  0  0  0  0  0  0  0  0
   59.1260   28.7630   47.4310 C   0  0  0  0  0  0  0  0  0  0  0  0
   58.7950   30.2360   47.4620 C   0  0  0  0  0  0  0  0  0  0  0  0
   59.6340   31.0390   46.4570 C   0  0  0  0  0  0  0  0  0  0  0  0
   58.8420   32.1620   45.8230 C   0  0  0  0  0  0  0  0  0  0  0  0
   58.5160   32.0800   44.4570 C   0  0  0  0  0  0  0  0  0  0  0  0
   57.7670   33.0850   43.8450 C   0  0  0  0  0  0  0  0  0  0  0  0
   57.3440   34.1870   44.5840 C   0  0  0  0  0  0  0  0  0  0  0  0
   57.6710   34.2920   45.9370 C   0  0  0  0  0  0  0  0  0  0  0  0
   58.4220   33.2830   46.5740 C   0  0  0  0  0  0  0  0  0  0  0  0
   58.7800   33.3700   47.9320 O   0  0  0  0  0  0  0  0  0  0  0  0
   59.7810   34.2310   48.4780 C   0  0  0  0  0  0  0  0  0  0  0  0
   61.1550   33.7900   48.0560 C   0  0  0  0  0  0  0  0  0  0  0  0
   61.6380   34.1330   46.7840 C   0  0  0  0  0  0  0  0  0  0  0  0
   62.9210   33.7460   46.3880 C   0  0  0  0  0  0  0  0  0  0  0  0
   63.7310   33.0100   47.2580 C   0  0  0  0  0  0  0  0  0  0  0  0
   63.2620   32.6720   48.5310 C   0  0  0  0  0  0  0  0  0  0  0  0
   61.9820   33.0670   48.9330 C   0  0  0  0  0  0  0  0  0  0  0  0
   56.3112   31.0696   44.0181 H   0  0  0  0  0  0  0  0  0  0  0  0
   56.6440   29.5723   43.0833 H   0  0  0  0  0  0  0  0  0  0  0  0
   54.9943   30.2831   43.0833 H   0  0  0  0  0  0  0  0  0  0  0  0
   58.4501   25.8775   45.7048 H   0  0  0  0  0  0  0  0  0  0  0  0
   59.9534   24.9450   47.4566 H   0  0  0  0  0  0  0  0  0  0  0  0
   61.2320   26.7210   50.2860 H   0  0  0  0  0  0  0  0  0  0  0  0
   60.4359   28.8876   49.1609 H   0  0  0  0  0  0  0  0  0  0  0  0
   57.7302   30.3653   47.2181 H   0  0  0  0  0  0  0  0  0  0  0  0
   59.0227   30.6127   48.4701 H   0  0  0  0  0  0  0  0  0  0  0  0
   60.5005   31.4682   46.9813 H   0  0  0  0  0  0  0  0  0  0  0  0
   59.9508   30.3541   45.6566 H   0  0  0  0  0  0  0  0  0  0  0  0
   58.8547   31.2160   43.8665 H   0  0  0  0  0  0  0  0  0  0  0  0
   57.5103   33.0071   42.7782 H   0  0  0  0  0  0  0  0  0  0  0  0
   56.7506   34.9768   44.1002 H   0  0  0  0  0  0  0  0  0  0  0  0
   57.3398   35.1698   46.5113 H   0  0  0  0  0  0  0  0  0  0  0  0
   59.6068   35.2572   48.1221 H   0  0  0  0  0  0  0  0  0  0  0  0
   59.7199   34.1899   49.5755 H   0  0  0  0  0  0  0  0  0  0  0  0
   61.0033   34.7096   46.0949 H   0  0  0  0  0  0  0  0  0  0  0  0
   63.2942   34.0208   45.3904 H   0  0  0  0  0  0  0  0  0  0  0  0
   64.7368   32.6970   46.9411 H   0  0  0  0  0  0  0  0  0  0  0  0
   63.9000   32.0951   49.2167 H   0  0  0  0  0  0  0  0  0  0  0  0
   61.6209   32.8107   49.9399 H   0  0  0  0  0  0  0  0  0  0  0  0
  1  2  1  0
  2  3  1  0
  3  4  2  0
  3  5  1  0
  5  6  1  0
  6  7  2  0
  7  8  1  0
  8  9  2  0
  9 10  1  0
  9 11  1  0
 11 12  2  0
 12 13  1  0
 13 14  1  0
 14 15  1  0
 15 16  2  0
 16 17  1  0
 17 18  2  0
 18 19  1  0
 19 20  2  0
 20 21  1  0
 21 22  1  0
 22 23  1  0
 23 24  2  0
 24 25  1  0
 25 26  2  0
 26 27  1  0
 27 28  2  0
 12  6  1  0
 20 15  1  0
 28 23  1  0
  1 29  1  0
  1 30  1  0
  1 31  1  0
  7 32  1  0
  8 33  1  0
 10 34  1  0
 11 35  1  0
 13 36  1  0
 13 37  1  0
 14 38  1  0
 14 39  1  0
 16 40  1  0
 17 41  1  0
 18 42  1  0
 19 43  1  0
 22 44  1  0
 22 45  1  0
 24 46  1  0
 25 47  1  0
 26 48  1  0
 27 49  1  0
 28 50  1  0
M  CHG  1   2  -1
M  END
>  <UniqueID>  (61) 
58

>  <SMILES>  (61) 
C[N-]C(=O)Oc1ccc(O)cc1CCc1ccccc1OCc1ccccc1

>  <Energy>  (61) 
47.83050281172858

>  <Genealogy>  (61) 
C[N-]C(=O)Oc1ccc(O)cc1CCc1ccccc1OCc1ccccc1 (protonated)
C[N-]C(=O)Oc1ccc(O)cc1CCc1ccccc1OCc1ccccc1 (3D coordinates assigned)
C[N-]C(=O)Oc1ccc(O)cc1CCc1ccccc1OCc1ccccc1 (optimized conformer: 47.83050281172858 kcal/mol)

>  <smiles>  (61) 
CNC(=O)Oc1ccc(O)cc1CCc1ccccc1OCc1ccccc1

>  <score_type>  (61) 
oracle

>  <origin>  (61) 
adg

>  <m_score__min__energy>  (61) 
-10.289999999999999

>  <m_primary>  (61) 
energy

$$$$
61:0
     RDKit          3D

 25 25  0  0  0  0  0  0  0  0999 V2000
   56.5090   29.6420   42.4350 N   0  0  0  0  0  0  0  0  0  0  0  0
   56.2030   29.8930   43.8090 C   0  0  0  0  0  0  0  0  0  0  0  0
   55.1780   29.3620   44.3140 O   0  0  0  0  0  0  0  0  0  0  0  0
   57.0770   30.7660   44.6260 C   0  0  0  0  0  0  0  0  0  0  0  0
   57.2850   30.4600   45.8300 O   0  0  0  0  0  0  0  0  0  0  0  0
   57.7170   31.9840   44.0720 C   0  0  0  0  0  0  0  0  0  0  0  0
   58.4480   31.9100   43.0480 O   0  0  0  0  0  0  0  0  0  0  0  0
   57.5490   33.3160   44.7450 C   0  0  0  0  0  0  0  0  0  0  0  0
   57.9690   33.2160   46.1830 C   0  0  0  0  0  0  0  0  0  0  0  0
   57.0830   33.1970   47.0790 O   0  0  0  0  0  0  0  0  0  0  0  0
   59.3980   33.2150   46.5670 C   0  0  0  0  0  0  0  0  0  0  0  0
   60.2610   34.1910   46.0400 C   0  0  0  0  0  0  0  0  0  0  0  0
   61.6140   34.2070   46.3890 C   0  0  0  0  0  0  0  0  0  0  0  0
   62.1200   33.2490   47.2700 C   0  0  0  0  0  0  0  0  0  0  0  0
   63.8190   33.2730   47.7100 Cl  0  0  0  0  0  0  0  0  0  0  0  0
   61.2730   32.2740   47.8030 C   0  0  0  0  0  0  0  0  0  0  0  0
   59.9160   32.2490   47.4580 C   0  0  0  0  0  0  0  0  0  0  0  0
   58.8890   31.0310   48.2090 Cl  0  0  0  0  0  0  0  0  0  0  0  0
   55.8880   29.0250   41.8650 H   0  0  0  0  0  0  0  0  0  0  0  0
   57.3470   30.0640   41.9790 H   0  0  0  0  0  0  0  0  0  0  0  0
   58.1721   34.0646   44.2338 H   0  0  0  0  0  0  0  0  0  0  0  0
   56.4922   33.6172   44.6955 H   0  0  0  0  0  0  0  0  0  0  0  0
   59.8679   34.9491   45.3466 H   0  0  0  0  0  0  0  0  0  0  0  0
   62.2808   34.9747   45.9695 H   0  0  0  0  0  0  0  0  0  0  0  0
   61.6745   31.5216   48.4977 H   0  0  0  0  0  0  0  0  0  0  0  0
  1  2  1  0
  2  3  2  0
  2  4  1  0
  4  5  2  0
  4  6  1  0
  6  7  2  0
  6  8  1  0
  8  9  1  0
  9 10  2  0
  9 11  1  0
 11 12  2  0
 12 13  1  0
 13 14  2  0
 14 15  1  0
 14 16  1  0
 16 17  2  0
 17 18  1  0
 17 11  1  0
  1 19  1  0
  1 20  1  0
  8 21  1  0
  8 22  1  0
 12 23  1  0
 13 24  1  0
 16 25  1  0
M  END
>  <UniqueID>  (62) 
59

>  <SMILES>  (62) 
NC(=O)C(=O)C(=O)CC(=O)c1ccc(Cl)cc1Cl

>  <Energy>  (62) 
25.66958613772819

>  <Genealogy>  (62) 
NC(=O)C(=O)C(=O)CC(=O)c1ccc(Cl)cc1Cl (3D coordinates assigned)
NC(=O)C(=O)C(=O)CC(=O)c1ccc(Cl)cc1Cl (optimized conformer: 25.66958613772819 kcal/mol)

>  <smiles>  (62) 
NC(=O)C(=O)C(=O)CC(=O)c1ccc(Cl)cc1Cl

>  <score_type>  (62) 
oracle

>  <origin>  (62) 
adg

>  <m_score__min__energy>  (62) 
-7.8200000000000003

>  <m_primary>  (62) 
energy

$$$$
62:0
     RDKit          3D

 59 62  0  0  0  0  0  0  0  0999 V2000
   55.4550   29.1220   52.7880 C   0  0  0  0  0  0  0  0  0  0  0  0
   56.6220   29.3960   52.0290 O   0  0  0  0  0  0  0  0  0  0  0  0
   57.2930   30.6010   52.1770 C   0  0  0  0  0  0  0  0  0  0  0  0
   56.6540   31.8220   52.2240 C   0  0  0  0  0  0  0  0  0  0  0  0
   57.4230   32.9770   52.3730 C   0  0  0  0  0  0  0  0  0  0  0  0
   58.8040   32.9150   52.4740 C   0  0  0  0  0  0  0  0  0  0  0  0
   59.6150   34.1740   52.6360 C   0  0  0  0  0  0  0  0  0  0  0  0
   61.2900   33.7700   52.1510 S   0  0  0  0  0  0  0  0  0  0  0  0
   61.4990   33.5860   50.3880 C   0  0  0  0  0  0  0  0  0  0  0  0
   60.5170   33.0040   49.6760 N   0  0  0  0  0  0  0  0  0  0  0  0
   60.5950   32.8280   48.3410 C   0  0  0  0  0  0  0  0  0  0  0  0
   59.5320   32.1930   47.5370 C   0  0  0  0  0  0  0  0  0  0  0  0
   59.1680   32.9730   46.2910 C   0  0  0  0  0  0  0  0  0  0  0  0
   57.9680   32.3390   45.6950 C   0  0  0  0  0  0  0  0  0  0  0  0
   57.7830   30.9660   45.8170 N   0  0  0  0  0  0  0  0  0  0  0  0
   56.9940   30.2140   44.4830 S   0  0  0  0  0  0  0  0  0  0  0  0
   55.5180   30.4930   44.5240 O   0  0  0  0  0  0  0  0  0  0  0  0
   57.5470   30.8110   43.2150 O   0  0  0  0  0  0  0  0  0  0  0  0
   57.2820   28.4980   44.4350 C   0  0  0  0  0  0  0  0  0  0  0  0
   57.8800   27.8530   43.3740 C   0  0  0  0  0  0  0  0  0  0  0  0
   58.0670   26.4730   43.4310 C   0  0  0  0  0  0  0  0  0  0  0  0
   57.6550   25.7450   44.5500 C   0  0  0  0  0  0  0  0  0  0  0  0
   57.8300   24.2830   44.6590 C   0  0  0  0  0  0  0  0  0  0  0  0
   57.0590   26.4000   45.6020 C   0  0  0  0  0  0  0  0  0  0  0  0
   56.8780   27.7600   45.5390 C   0  0  0  0  0  0  0  0  0  0  0  0
   58.7610   30.1460   46.4180 C   0  0  0  0  0  0  0  0  0  0  0  0
   59.9370   30.8330   47.0230 C   0  0  0  0  0  0  0  0  0  0  0  0
   61.6960   33.2480   47.7060 N   0  0  0  0  0  0  0  0  0  0  0  0
   62.7000   33.8390   48.4110 C   0  0  0  0  0  0  0  0  0  0  0  0
   63.7440   34.2380   47.8030 O   0  0  0  0  0  0  0  0  0  0  0  0
   62.6100   34.0130   49.7540 N   0  0  0  0  0  0  0  0  0  0  0  0
   59.4460   31.6940   52.4270 C   0  0  0  0  0  0  0  0  0  0  0  0
   58.6660   30.5540   52.2780 C   0  0  0  0  0  0  0  0  0  0  0  0
   55.6935   29.1780   53.8604 H   0  0  0  0  0  0  0  0  0  0  0  0
   54.6781   29.8622   52.5460 H   0  0  0  0  0  0  0  0  0  0  0  0
   55.0887   28.1134   52.5460 H   0  0  0  0  0  0  0  0  0  0  0  0
   55.5586   31.8845   52.1455 H   0  0  0  0  0  0  0  0  0  0  0  0
   56.9232   33.9562   52.4111 H   0  0  0  0  0  0  0  0  0  0  0  0
   59.2143   34.9692   51.9902 H   0  0  0  0  0  0  0  0  0  0  0  0
   59.5794   34.5378   53.6735 H   0  0  0  0  0  0  0  0  0  0  0  0
   58.6853   32.1431   48.2374 H   0  0  0  0  0  0  0  0  0  0  0  0
   58.9474   34.0179   46.5546 H   0  0  0  0  0  0  0  0  0  0  0  0
   60.0029   32.9652   45.5748 H   0  0  0  0  0  0  0  0  0  0  0  0
   57.0916   32.8211   46.1527 H   0  0  0  0  0  0  0  0  0  0  0  0
   58.1114   32.4836   44.6140 H   0  0  0  0  0  0  0  0  0  0  0  0
   58.2065   28.4217   42.4909 H   0  0  0  0  0  0  0  0  0  0  0  0
   58.5433   25.9523   42.5872 H   0  0  0  0  0  0  0  0  0  0  0  0
   57.8644   23.9960   45.7203 H   0  0  0  0  0  0  0  0  0  0  0  0
   56.9862   23.7752   44.1689 H   0  0  0  0  0  0  0  0  0  0  0  0
   58.7698   23.9887   44.1689 H   0  0  0  0  0  0  0  0  0  0  0  0
   56.7293   25.8383   46.4884 H   0  0  0  0  0  0  0  0  0  0  0  0
   56.4010   28.2773   46.3845 H   0  0  0  0  0  0  0  0  0  0  0  0
   58.2675   29.5688   47.2138 H   0  0  0  0  0  0  0  0  0  0  0  0
   59.1730   29.5416   45.5965 H   0  0  0  0  0  0  0  0  0  0  0  0
   60.3228   30.2284   47.8570 H   0  0  0  0  0  0  0  0  0  0  0  0
   60.7177   30.9540   46.2576 H   0  0  0  0  0  0  0  0  0  0  0  0
   63.3680   34.4630   50.3170 H   0  0  0  0  0  0  0  0  0  0  0  0
   60.5411   31.6257   52.5051 H   0  0  0  0  0  0  0  0  0  0  0  0
   59.1649   29.5744   52.2391 H   0  0  0  0  0  0  0  0  0  0  0  0
  1  2  1  0
  2  3  1  0
  3  4  2  0
  4  5  1  0
  5  6  2  0
  6  7  1  0
  7  8  1  0
  8  9  1  0
  9 10  2  0
 10 11  1  0
 11 12  1  0
 12 13  1  0
 13 14  1  0
 14 15  1  0
 15 16  1  0
 16 17  2  0
 16 18  2  0
 16 19  1  0
 19 20  2  0
 20 21  1  0
 21 22  2  0
 22 23  1  0
 22 24  1  0
 24 25  2  0
 15 26  1  0
 26 27  1  0
 11 28  2  0
 28 29  1  0
 29 30  2  0
 29 31  1  0
  6 32  1  0
 32 33  2  0
 33  3  1  0
 31  9  1  0
 27 12  1  0
 25 19  1  0
  1 34  1  0
  1 35  1  0
  1 36  1  0
  4 37  1  0
  5 38  1  0
  7 39  1  0
  7 40  1  0
 12 41  1  0
 13 42  1  0
 13 43  1  0
 14 44  1  0
 14 45  1  0
 20 46  1  0
 21 47  1  0
 23 48  1  0
 23 49  1  0
 23 50  1  0
 24 51  1  0
 25 52  1  0
 26 53  1  0
 26 54  1  0
 27 55  1  0
 27 56  1  0
 31 57  1  0
 32 58  1  0
 33 59  1  0
M  END
>  <smiles>  (63) 
COc1ccc(CSc2nc(C3CCN(S(=O)(=O)c4ccc(C)cc4)CC3)nc(=O)[nH]2)cc1

>  <score_type>  (63) 
oracle

>  <origin>  (63) 
adg

>  <m_score__min__energy>  (63) 
-9.8200000000000003

>  <m_primary>  (63) 
energy

$$$$
63:0
     RDKit          3D

 49 51  0  0  0  0  0  0  0  0999 V2000
   54.0980   24.1950   44.8420 C   0  0  0  0  0  0  0  0  0  0  0  0
   53.6510   22.7270   45.7420 S   0  0  0  0  0  0  0  0  0  0  0  0
   52.3260   22.2080   45.2500 O   0  0  0  0  0  0  0  0  0  0  0  0
   53.5230   23.0700   47.1940 O   0  0  0  0  0  0  0  0  0  0  0  0
   54.8760   21.5100   45.5540 N   0  0  0  0  0  0  0  0  0  0  0  0
   56.2100   21.7170   45.0600 C   0  0  0  0  0  0  0  0  0  0  0  0
   56.6250   21.1520   43.8410 C   0  0  0  0  0  0  0  0  0  0  0  0
   57.9190   21.3590   43.3630 C   0  0  0  0  0  0  0  0  0  0  0  0
   58.8180   22.1280   44.0920 C   0  0  0  0  0  0  0  0  0  0  0  0
   58.4320   22.6830   45.3110 C   0  0  0  0  0  0  0  0  0  0  0  0
   57.1300   22.4920   45.8140 C   0  0  0  0  0  0  0  0  0  0  0  0
   56.7610   23.1280   47.1060 C   0  0  0  0  0  0  0  0  0  0  0  0
   56.9860   22.5430   48.2030 O   0  0  0  0  0  0  0  0  0  0  0  0
   56.1850   24.4400   47.1120 N   0  0  0  0  0  0  0  0  0  0  0  0
   56.8610   25.6240   46.6730 C   0  0  0  0  0  0  0  0  0  0  0  0
   58.2590   25.6580   46.7160 C   0  0  0  0  0  0  0  0  0  0  0  0
   58.9490   26.7850   46.2700 C   0  0  0  0  0  0  0  0  0  0  0  0
   58.2500   27.8740   45.7360 C   0  0  0  0  0  0  0  0  0  0  0  0
   56.8500   27.8310   45.6280 C   0  0  0  0  0  0  0  0  0  0  0  0
   56.1070   28.8850   45.0000 N   0  0  0  0  0  0  0  0  0  0  0  0
   56.7800   30.2860   44.2330 S   0  0  0  0  0  0  0  0  0  0  0  0
   55.9230   31.4950   44.5040 O   0  0  0  0  0  0  0  0  0  0  0  0
   56.8620   30.0540   42.7480 O   0  0  0  0  0  0  0  0  0  0  0  0
   58.4030   30.6110   44.8900 C   0  0  0  0  0  0  0  0  0  0  0  0
   58.4830   31.9980   45.4660 C   0  0  0  0  0  0  0  0  0  0  0  0
   58.5150   32.1940   46.8600 C   0  0  0  0  0  0  0  0  0  0  0  0
   58.5980   33.4860   47.3920 C   0  0  0  0  0  0  0  0  0  0  0  0
   58.6320   34.5920   46.5360 C   0  0  0  0  0  0  0  0  0  0  0  0
   58.5840   34.4070   45.1510 C   0  0  0  0  0  0  0  0  0  0  0  0
   58.5120   33.1160   44.6150 C   0  0  0  0  0  0  0  0  0  0  0  0
   56.1570   26.7120   46.1180 C   0  0  0  0  0  0  0  0  0  0  0  0
   54.7700   26.6700   46.0210 O   0  0  0  0  0  0  0  0  0  0  0  0
   54.3430   24.9995   45.5511 H   0  0  0  0  0  0  0  0  0  0  0  0
   54.9729   23.9850   44.2092 H   0  0  0  0  0  0  0  0  0  0  0  0
   53.2545   24.5082   44.2092 H   0  0  0  0  0  0  0  0  0  0  0  0
   55.9213   20.5399   43.2578 H   0  0  0  0  0  0  0  0  0  0  0  0
   58.2286   20.9124   42.4066 H   0  0  0  0  0  0  0  0  0  0  0  0
   59.8342   22.2988   43.7071 H   0  0  0  0  0  0  0  0  0  0  0  0
   59.1543   23.2786   45.8885 H   0  0  0  0  0  0  0  0  0  0  0  0
   58.8163   24.7922   47.1032 H   0  0  0  0  0  0  0  0  0  0  0  0
   60.0464   26.8183   46.3381 H   0  0  0  0  0  0  0  0  0  0  0  0
   58.7987   28.7662   45.3999 H   0  0  0  0  0  0  0  0  0  0  0  0
   58.6240   29.8795   45.6813 H   0  0  0  0  0  0  0  0  0  0  0  0
   59.1351   30.5278   44.0732 H   0  0  0  0  0  0  0  0  0  0  0  0
   58.4745   31.3264   47.5351 H   0  0  0  0  0  0  0  0  0  0  0  0
   58.6364   33.6315   48.4817 H   0  0  0  0  0  0  0  0  0  0  0  0
   58.6965   35.6079   46.9529 H   0  0  0  0  0  0  0  0  0  0  0  0
   58.6029   35.2788   44.4804 H   0  0  0  0  0  0  0  0  0  0  0  0
   58.4780   32.9761   43.5245 H   0  0  0  0  0  0  0  0  0  0  0  0
  1  2  1  0
  2  3  2  0
  2  4  2  0
  2  5  1  0
  5  6  1  0
  6  7  2  0
  7  8  1  0
  8  9  2  0
  9 10  1  0
 10 11  2  0
 11 12  1  0
 12 13  2  0
 12 14  1  0
 14 15  1  0
 15 16  2  0
 16 17  1  0
 17 18  2  0
 18 19  1  0
 19 20  1  0
 20 21  1  0
 21 22  2  0
 21 23  2  0
 21 24  1  0
 24 25  1  0
 25 26  2  0
 26 27  1  0
 27 28  2  0
 28 29  1  0
 29 30  2  0
 19 31  2  0
 31 32  1  0
 11  6  1  0
 31 15  1  0
 30 25  1  0
  1 33  1  0
  1 34  1  0
  1 35  1  0
  7 36  1  0
  8 37  1  0
  9 38  1  0
 10 39  1  0
 16 40  1  0
 17 41  1  0
 18 42  1  0
 24 43  1  0
 24 44  1  0
 26 45  1  0
 27 46  1  0
 28 47  1  0
 29 48  1  0
 30 49  1  0
M  CHG  4   5  -1  14  -1  20  -1  32  -1
M  END
>  <UniqueID>  (64) 
60

>  <SMILES>  (64) 
CS(=O)(=O)[N-]c1ccccc1C(=O)[N-]c1cccc([N-]S(=O)(=O)Cc2ccccc2)c1[O-]

>  <Energy>  (64) 
60.05218050640151

>  <Genealogy>  (64) 
CS(=O)(=O)[N-]c1ccccc1C(=O)[N-]c1cccc([N-]S(=O)(=O)Cc2ccccc2)c1[O-] (protonated)
CS(=O)(=O)[N-]c1ccccc1C(=O)[N-]c1cccc([N-]S(=O)(=O)Cc2ccccc2)c1[O-] (3D coordinates assigned)
CS(=O)(=O)[N-]c1ccccc1C(=O)[N-]c1cccc([N-]S(=O)(=O)Cc2ccccc2)c1[O-] (optimized conformer: 60.05218050640151 kcal/mol)

>  <smiles>  (64) 
CS(=O)(=O)Nc1ccccc1C(=O)Nc1cccc(NS(=O)(=O)Cc2ccccc2)c1O

>  <score_type>  (64) 
oracle

>  <origin>  (64) 
adg

>  <m_score__min__energy>  (64) 
-18.960000000000001

>  <m_primary>  (64) 
energy

$$$$
64:0
     RDKit          3D

 55 58  0  0  0  0  0  0  0  0999 V2000
   55.4960   29.2040   44.7880 N   0  0  0  0  0  0  0  0  0  0  0  0
   56.5800   29.4760   44.1320 C   0  0  0  0  0  0  0  0  0  0  0  0
   57.1450   28.4880   43.2620 N   0  0  0  0  0  0  0  0  0  0  0  0
   57.2100   30.8120   44.2790 C   0  0  0  0  0  0  0  0  0  0  0  0
   57.5100   31.6050   43.1370 C   0  0  0  0  0  0  0  0  0  0  0  0
   58.1150   32.8670   43.2730 C   0  0  0  0  0  0  0  0  0  0  0  0
   58.4100   33.3160   44.5570 C   0  0  0  0  0  0  0  0  0  0  0  0
   59.0020   34.4740   44.8980 N   0  0  0  0  0  0  0  0  0  0  0  0
   59.1040   34.4580   46.2470 C   0  0  0  0  0  0  0  0  0  0  0  0
   58.5590   33.2850   46.7600 C   0  0  0  0  0  0  0  0  0  0  0  0
   58.5460   32.8600   48.1970 C   0  0  0  0  0  0  0  0  0  0  0  0
   59.7610   31.9830   48.5090 C   0  0  0  0  0  0  0  0  0  0  0  0
   59.4740   30.5850   48.1970 N   0  0  0  0  0  0  0  0  0  0  0  0
   60.0700   29.9080   47.0760 C   0  0  0  0  0  0  0  0  0  0  0  0
   60.9420   30.5010   46.3840 O   0  0  0  0  0  0  0  0  0  0  0  0
   59.6890   28.5180   46.7280 C   0  0  0  0  0  0  0  0  0  0  0  0
   59.4310   28.1770   45.3870 C   0  0  0  0  0  0  0  0  0  0  0  0
   59.0700   26.8720   45.0440 C   0  0  0  0  0  0  0  0  0  0  0  0
   58.9610   25.8840   46.0320 C   0  0  0  0  0  0  0  0  0  0  0  0
   58.5710   24.5080   45.6660 C   0  0  0  0  0  0  0  0  0  0  0  0
   59.5780   23.6120   45.2710 C   0  0  0  0  0  0  0  0  0  0  0  0
   59.2560   22.3090   44.8860 C   0  0  0  0  0  0  0  0  0  0  0  0
   57.9270   21.8870   44.8910 C   0  0  0  0  0  0  0  0  0  0  0  0
   56.9160   22.7620   45.2940 C   0  0  0  0  0  0  0  0  0  0  0  0
   57.2220   24.0720   45.6970 C   0  0  0  0  0  0  0  0  0  0  0  0
   55.9060   25.1170   46.2570 S   0  0  0  0  0  0  0  0  0  0  0  0
   56.1030   26.7130   45.6210 N   0  0  0  0  0  0  0  0  0  0  0  0
   54.5840   24.5810   45.7850 O   0  0  0  0  0  0  0  0  0  0  0  0
   55.9170   25.1820   47.7580 O   0  0  0  0  0  0  0  0  0  0  0  0
   59.1870   26.2250   47.3730 C   0  0  0  0  0  0  0  0  0  0  0  0
   59.5510   27.5300   47.7190 C   0  0  0  0  0  0  0  0  0  0  0  0
   58.1310   32.5610   45.6640 C   0  0  0  0  0  0  0  0  0  0  0  0
   57.5380   31.3030   45.5670 C   0  0  0  0  0  0  0  0  0  0  0  0
   55.1470   28.2250   44.8950 H   0  0  0  0  0  0  0  0  0  0  0  0
   56.7360   27.5280   43.2130 H   0  0  0  0  0  0  0  0  0  0  0  0
   57.9200   28.7200   42.6020 H   0  0  0  0  0  0  0  0  0  0  0  0
   57.2654   31.2259   42.1338 H   0  0  0  0  0  0  0  0  0  0  0  0
   58.3482   33.4812   42.3908 H   0  0  0  0  0  0  0  0  0  0  0  0
   59.3340   35.2270   44.2560 H   0  0  0  0  0  0  0  0  0  0  0  0
   59.5539   35.2587   46.8524 H   0  0  0  0  0  0  0  0  0  0  0  0
   58.5702   33.7532   48.8386 H   0  0  0  0  0  0  0  0  0  0  0  0
   57.6310   32.2800   48.3876 H   0  0  0  0  0  0  0  0  0  0  0  0
   60.6163   32.3208   47.9054 H   0  0  0  0  0  0  0  0  0  0  0  0
   59.9968   32.0683   49.5800 H   0  0  0  0  0  0  0  0  0  0  0  0
   58.8270   30.0710   48.8340 H   0  0  0  0  0  0  0  0  0  0  0  0
   59.5143   28.9441   44.6031 H   0  0  0  0  0  0  0  0  0  0  0  0
   58.8701   26.6183   43.9925 H   0  0  0  0  0  0  0  0  0  0  0  0
   60.6282   23.9392   45.2649 H   0  0  0  0  0  0  0  0  0  0  0  0
   60.0517   21.6146   44.5784 H   0  0  0  0  0  0  0  0  0  0  0  0
   57.6746   20.8634   44.5771 H   0  0  0  0  0  0  0  0  0  0  0  0
   55.8699   22.4219   45.2958 H   0  0  0  0  0  0  0  0  0  0  0  0
   55.1500   27.0650   45.3790 H   0  0  0  0  0  0  0  0  0  0  0  0
   59.0774   25.4616   48.1574 H   0  0  0  0  0  0  0  0  0  0  0  0
   59.7306   27.7855   48.7737 H   0  0  0  0  0  0  0  0  0  0  0  0
   57.3300   30.7067   46.4676 H   0  0  0  0  0  0  0  0  0  0  0  0
  1  2  2  3
  2  3  1  0
  2  4  1  0
  4  5  2  0
  5  6  1  0
  6  7  2  0
  7  8  1  0
  8  9  1  0
  9 10  2  0
 10 11  1  0
 11 12  1  0
 12 13  1  0
 13 14  1  0
 14 15  2  0
 14 16  1  0
 16 17  2  0
 17 18  1  0
 18 19  2  0
 19 20  1  0
 20 21  2  0
 21 22  1  0
 22 23  2  0
 23 24  1  0
 24 25  2  0
 25 26  1  0
 26 27  1  0
 26 28  2  0
 26 29  2  0
 19 30  1  0
 30 31  2  0
 10 32  1  0
 32 33  2  0
 33  4  1  0
 32  7  1  0
 31 16  1  0
 25 20  1  0
  1 34  1  0
  3 35  1  0
  3 36  1  0
  5 37  1  0
  6 38  1  0
  8 39  1  0
  9 40  1  0
 11 41  1  0
 11 42  1  0
 12 43  1  0
 12 44  1  0
 13 45  1  0
 17 46  1  0
 18 47  1  0
 21 48  1  0
 22 49  1  0
 23 50  1  0
 24 51  1  0
 27 52  1  0
 30 53  1  0
 31 54  1  0
 33 55  1  0
M  CHG  1  27  -1
M  END
>  <UniqueID>  (65) 
61

>  <SMILES>  (65) 
N=C(N)c1ccc2[nH]cc(CCNC(=O)c3ccc(-c4ccccc4S([NH-])(=O)=O)cc3)c2c1

>  <Energy>  (65) 
99.45373367731868

>  <Genealogy>  (65) 
N=C(N)c1ccc2[nH]cc(CCNC(=O)c3ccc(-c4ccccc4S([NH-])(=O)=O)cc3)c2c1 (protonated)
N=C(N)c1ccc2[nH]cc(CCNC(=O)c3ccc(-c4ccccc4S([NH-])(=O)=O)cc3)c2c1 (3D coordinates assigned)
N=C(N)c1ccc2[nH]cc(CCNC(=O)c3ccc(-c4ccccc4S([NH-])(=O)=O)cc3)c2c1 (optimized conformer: 99.45373367731868 kcal/mol)

>  <smiles>  (65) 
N=C(N)c1ccc2[nH]cc(CCNC(=O)c3ccc(-c4ccccc4S(N)(=O)=O)cc3)c2c1

>  <score_type>  (65) 
oracle

>  <origin>  (65) 
adg

>  <m_score__min__energy>  (65) 
-13.08

>  <m_primary>  (65) 
energy

$$$$
65:0
     RDKit          3D

 61 64  0  0  0  0  0  0  0  0999 V2000
   60.0170   28.2340   45.5180 C   0  0  0  0  0  0  0  0  0  0  0  0
   58.5440   28.5600   45.7440 C   0  0  0  0  0  0  0  0  0  0  0  0
   58.0630   29.6040   44.7640 C   0  0  0  0  0  0  0  0  0  0  0  0
   57.1370   29.2310   43.7760 C   0  0  0  0  0  0  0  0  0  0  0  0
   56.6570   30.1700   42.8660 C   0  0  0  0  0  0  0  0  0  0  0  0
   57.0840   31.4950   42.9330 C   0  0  0  0  0  0  0  0  0  0  0  0
   57.9860   31.9060   43.9270 C   0  0  0  0  0  0  0  0  0  0  0  0
   58.4760   33.3340   43.9270 C   0  0  0  0  0  0  0  0  0  0  0  0
   57.6590   34.1870   44.8930 C   0  0  0  0  0  0  0  0  0  0  0  0
   58.4770   30.9550   44.8540 C   0  0  0  0  0  0  0  0  0  0  0  0
   59.4120   31.3510   45.8650 N   0  0  0  0  0  0  0  0  0  0  0  0
   58.9920   32.0610   47.0400 C   0  0  0  0  0  0  0  0  0  0  0  0
   57.7700   32.3220   47.2130 O   0  0  0  0  0  0  0  0  0  0  0  0
   59.9730   32.4510   48.0780 C   0  0  0  0  0  0  0  0  0  0  0  0
   59.5360   32.6470   49.3910 C   0  0  0  0  0  0  0  0  0  0  0  0
   60.4030   32.9700   50.4000 N   0  0  0  0  0  0  0  0  0  0  0  0
   59.8410   33.1010   51.7610 C   0  0  0  0  0  0  0  0  0  0  0  0
   58.7120   32.1220   51.9770 C   0  0  0  0  0  0  0  0  0  0  0  0
   58.9560   30.7400   51.9360 C   0  0  0  0  0  0  0  0  0  0  0  0
   57.9090   29.8320   52.1230 C   0  0  0  0  0  0  0  0  0  0  0  0
   56.6040   30.2850   52.3400 C   0  0  0  0  0  0  0  0  0  0  0  0
   55.5900   29.3340   52.5230 O   0  0  0  0  0  0  0  0  0  0  0  0
   55.3860   28.5980   53.7240 C   0  0  0  0  0  0  0  0  0  0  0  0
   56.3540   31.6700   52.3620 C   0  0  0  0  0  0  0  0  0  0  0  0
   57.4000   32.5790   52.1760 C   0  0  0  0  0  0  0  0  0  0  0  0
   61.7520   33.1230   50.1360 C   0  0  0  0  0  0  0  0  0  0  0  0
   62.6850   33.4430   51.1510 C   0  0  0  0  0  0  0  0  0  0  0  0
   64.0400   33.6000   50.8560 C   0  0  0  0  0  0  0  0  0  0  0  0
   64.4980   33.4440   49.5520 C   0  0  0  0  0  0  0  0  0  0  0  0
   63.6060   33.1260   48.5320 C   0  0  0  0  0  0  0  0  0  0  0  0
   62.2340   32.9590   48.8070 C   0  0  0  0  0  0  0  0  0  0  0  0
   61.3310   32.6290   47.7800 C   0  0  0  0  0  0  0  0  0  0  0  0
   61.7380   32.5140   46.5900 O   0  0  0  0  0  0  0  0  0  0  0  0
   60.5211   28.1224   46.4893 H   0  0  0  0  0  0  0  0  0  0  0  0
   60.1020   27.2953   44.9509 H   0  0  0  0  0  0  0  0  0  0  0  0
   60.4901   29.0492   44.9509 H   0  0  0  0  0  0  0  0  0  0  0  0
   57.9490   27.6439   45.6143 H   0  0  0  0  0  0  0  0  0  0  0  0
   58.4256   28.9560   46.7634 H   0  0  0  0  0  0  0  0  0  0  0  0
   56.7881   28.1893   43.7204 H   0  0  0  0  0  0  0  0  0  0  0  0
   55.9381   29.8646   42.0915 H   0  0  0  0  0  0  0  0  0  0  0  0
   56.7107   32.2255   42.2002 H   0  0  0  0  0  0  0  0  0  0  0  0
   59.5322   33.3529   44.2339 H   0  0  0  0  0  0  0  0  0  0  0  0
   58.3646   33.7451   42.9128 H   0  0  0  0  0  0  0  0  0  0  0  0
   57.9168   33.9178   45.9279 H   0  0  0  0  0  0  0  0  0  0  0  0
   57.8842   35.2503   44.7237 H   0  0  0  0  0  0  0  0  0  0  0  0
   56.5870   34.0078   44.7237 H   0  0  0  0  0  0  0  0  0  0  0  0
   60.3780   30.9570   45.8230 H   0  0  0  0  0  0  0  0  0  0  0  0
   58.4656   32.5387   49.6200 H   0  0  0  0  0  0  0  0  0  0  0  0
   60.6336   32.9042   52.4979 H   0  0  0  0  0  0  0  0  0  0  0  0
   59.4478   34.1213   51.8810 H   0  0  0  0  0  0  0  0  0  0  0  0
   59.9760   30.3695   51.7559 H   0  0  0  0  0  0  0  0  0  0  0  0
   58.1139   28.7515   52.0992 H   0  0  0  0  0  0  0  0  0  0  0  0
   55.5672   29.2517   54.5899 H   0  0  0  0  0  0  0  0  0  0  0  0
   54.3511   28.2266   53.7551 H   0  0  0  0  0  0  0  0  0  0  0  0
   56.0821   27.7468   53.7551 H   0  0  0  0  0  0  0  0  0  0  0  0
   55.3308   32.0390   52.5263 H   0  0  0  0  0  0  0  0  0  0  0  0
   57.1933   33.6594   52.1857 H   0  0  0  0  0  0  0  0  0  0  0  0
   62.3373   33.5697   52.1869 H   0  0  0  0  0  0  0  0  0  0  0  0
   64.7495   33.8484   51.6590 H   0  0  0  0  0  0  0  0  0  0  0  0
   65.5670   33.5722   49.3265 H   0  0  0  0  0  0  0  0  0  0  0  0
   63.9749   33.0040   47.5029 H   0  0  0  0  0  0  0  0  0  0  0  0
  1  2  1  0
  2  3  1  0
  3  4  2  0
  4  5  1  0
  5  6  2  0
  6  7  1  0
  7  8  1  0
  8  9  1  0
  7 10  2  0
 10 11  1  0
 11 12  1  0
 12 13  2  0
 12 14  1  0
 14 15  2  0
 15 16  1  0
 16 17  1  0
 17 18  1  0
 18 19  2  0
 19 20  1  0
 20 21  2  0
 21 22  1  0
 22 23  1  0
 21 24  1  0
 24 25  2  0
 16 26  1  0
 26 27  2  0
 27 28  1  0
 28 29  2  0
 29 30  1  0
 30 31  2  0
 31 32  1  0
 32 33  2  0
 10  3  1  0
 32 14  1  0
 25 18  1  0
 31 26  1  0
  1 34  1  0
  1 35  1  0
  1 36  1  0
  2 37  1  0
  2 38  1  0
  4 39  1  0
  5 40  1  0
  6 41  1  0
  8 42  1  0
  8 43  1  0
  9 44  1  0
  9 45  1  0
  9 46  1  0
 11 47  1  0
 15 48  1  0
 17 49  1  0
 17 50  1  0
 19 51  1  0
 20 52  1  0
 23 53  1  0
 23 54  1  0
 23 55  1  0
 24 56  1  0
 25 57  1  0
 27 58  1  0
 28 59  1  0
 29 60  1  0
 30 61  1  0
M  END
>  <UniqueID>  (66) 
62

>  <SMILES>  (66) 
CCc1cccc(CC)c1NC(=O)c1cn(Cc2ccc(OC)cc2)c2ccccc2c1=O

>  <Energy>  (66) 
78.4784526971377

>  <Genealogy>  (66) 
CCc1cccc(CC)c1NC(=O)c1cn(Cc2ccc(OC)cc2)c2ccccc2c1=O (3D coordinates assigned)
CCc1cccc(CC)c1NC(=O)c1cn(Cc2ccc(OC)cc2)c2ccccc2c1=O (optimized conformer: 78.4784526971377 kcal/mol)

>  <smiles>  (66) 
CCc1cccc(CC)c1NC(=O)c1cn(Cc2ccc(OC)cc2)c2ccccc2c1=O

>  <score_type>  (66) 
oracle

>  <origin>  (66) 
adg

>  <m_score__min__energy>  (66) 
-8.3000000000000007

>  <m_primary>  (66) 
energy

$$$$
66:0
     RDKit          3D

 39 41  0  0  0  0  0  0  0  0999 V2000
   55.3520   29.7820   44.8080 O   0  0  0  0  0  0  0  0  0  0  0  0
   56.6200   29.9270   44.0130 S   0  0  0  0  0  0  0  0  0  0  0  0
   56.4150   29.3260   42.6520 O   0  0  0  0  0  0  0  0  0  0  0  0
   56.9930   31.6140   43.8430 N   0  0  0  0  0  0  0  0  0  0  0  0
   57.8010   32.3550   44.7750 C   0  0  0  0  0  0  0  0  0  0  0  0
   58.5340   33.4610   44.3150 C   0  0  0  0  0  0  0  0  0  0  0  0
   59.3370   34.1960   45.1900 C   0  0  0  0  0  0  0  0  0  0  0  0
   59.4310   33.8320   46.5440 C   0  0  0  0  0  0  0  0  0  0  0  0
   60.2300   34.5900   47.4680 N   0  0  0  0  0  0  0  0  0  0  0  0
   61.5150   34.1740   47.9600 C   0  0  0  0  0  0  0  0  0  0  0  0
   62.5070   33.7770   47.0490 C   0  0  0  0  0  0  0  0  0  0  0  0
   63.7730   33.3950   47.5040 C   0  0  0  0  0  0  0  0  0  0  0  0
   64.0650   33.4210   48.8700 C   0  0  0  0  0  0  0  0  0  0  0  0
   63.0920   33.8380   49.7830 C   0  0  0  0  0  0  0  0  0  0  0  0
   61.8250   34.2210   49.3320 C   0  0  0  0  0  0  0  0  0  0  0  0
   58.6740   32.7490   47.0120 C   0  0  0  0  0  0  0  0  0  0  0  0
   57.8710   32.0120   46.1370 C   0  0  0  0  0  0  0  0  0  0  0  0
   57.9510   29.0930   44.8060 C   0  0  0  0  0  0  0  0  0  0  0  0
   57.6870   28.0920   45.7530 C   0  0  0  0  0  0  0  0  0  0  0  0
   58.7400   27.4180   46.3760 C   0  0  0  0  0  0  0  0  0  0  0  0
   60.0630   27.7430   46.0620 C   0  0  0  0  0  0  0  0  0  0  0  0
   60.3320   28.7440   45.1240 C   0  0  0  0  0  0  0  0  0  0  0  0
   59.2800   29.4190   44.4970 C   0  0  0  0  0  0  0  0  0  0  0  0
   56.6710   32.0830   42.9660 H   0  0  0  0  0  0  0  0  0  0  0  0
   58.4752   33.7512   43.2556 H   0  0  0  0  0  0  0  0  0  0  0  0
   59.8991   35.0649   44.8171 H   0  0  0  0  0  0  0  0  0  0  0  0
   59.8490   35.5020   47.8090 H   0  0  0  0  0  0  0  0  0  0  0  0
   62.2871   33.7664   45.9713 H   0  0  0  0  0  0  0  0  0  0  0  0
   64.5406   33.0733   46.7848 H   0  0  0  0  0  0  0  0  0  0  0  0
   65.0592   33.1138   49.2266 H   0  0  0  0  0  0  0  0  0  0  0  0
   63.3234   33.8649   50.8580 H   0  0  0  0  0  0  0  0  0  0  0  0
   61.0669   34.5607   50.0531 H   0  0  0  0  0  0  0  0  0  0  0  0
   58.7123   32.4768   48.0771 H   0  0  0  0  0  0  0  0  0  0  0  0
   57.2901   31.1583   46.5161 H   0  0  0  0  0  0  0  0  0  0  0  0
   56.6472   27.8371   46.0057 H   0  0  0  0  0  0  0  0  0  0  0  0
   58.5281   26.6307   47.1144 H   0  0  0  0  0  0  0  0  0  0  0  0
   60.8917   27.2114   46.5527 H   0  0  0  0  0  0  0  0  0  0  0  0
   61.3730   29.0011   44.8787 H   0  0  0  0  0  0  0  0  0  0  0  0
   59.4949   30.2070   43.7602 H   0  0  0  0  0  0  0  0  0  0  0  0
  1  2  2  0
  2  3  2  0
  2  4  1  0
  4  5  1  0
  5  6  2  0
  6  7  1  0
  7  8  2  0
  8  9  1  0
  9 10  1  0
 10 11  2  0
 11 12  1  0
 12 13  2  0
 13 14  1  0
 14 15  2  0
  8 16  1  0
 16 17  2  0
  2 18  1  0
 18 19  2  0
 19 20  1  0
 20 21  2  0
 21 22  1  0
 22 23  2  0
 17  5  1  0
 23 18  1  0
 15 10  1  0
  4 24  1  0
  6 25  1  0
  7 26  1  0
  9 27  1  0
 11 28  1  0
 12 29  1  0
 13 30  1  0
 14 31  1  0
 15 32  1  0
 16 33  1  0
 17 34  1  0
 19 35  1  0
 20 36  1  0
 21 37  1  0
 22 38  1  0
 23 39  1  0
M  END
>  <UniqueID>  (67) 
63

>  <SMILES>  (67) 
O=S(=O)(Nc1ccc(Nc2ccccc2)cc1)c1ccccc1

>  <Energy>  (67) 
49.721737095395696

>  <Genealogy>  (67) 
O=S(=O)(Nc1ccc(Nc2ccccc2)cc1)c1ccccc1 (3D coordinates assigned)
O=S(=O)(Nc1ccc(Nc2ccccc2)cc1)c1ccccc1 (optimized conformer: 49.721737095395696 kcal/mol)

>  <smiles>  (67) 
O=S(=O)(Nc1ccc(Nc2ccccc2)cc1)c1ccccc1

>  <score_type>  (67) 
oracle

>  <origin>  (67) 
adg

>  <m_score__min__energy>  (67) 
-8.5800000000000001

>  <m_primary>  (67) 
energy

$$$$
67:0
     RDKit          3D

 34 35  0  0  0  0  0  0  0  0999 V2000
   64.1650   31.9090   46.8950 H   0  0  0  0  0  0  0  0  0  0  0  0
   63.5720   32.4830   47.4850 O   0  0  0  0  0  0  0  0  0  0  0  0
   62.1960   32.5740   47.2670 C   0  0  0  0  0  0  0  0  0  0  0  0
   61.3950   31.4200   47.2570 C   0  0  0  0  0  0  0  0  0  0  0  0
   61.8511   30.4339   47.4290 H   0  0  0  0  0  0  0  0  0  0  0  0
   60.0200   31.5220   47.0290 C   0  0  0  0  0  0  0  0  0  0  0  0
   59.3976   30.6151   47.0193 H   0  0  0  0  0  0  0  0  0  0  0  0
   59.4290   32.7790   46.8120 C   0  0  0  0  0  0  0  0  0  0  0  0
   57.9460   32.8840   46.5400 C   0  0  0  0  0  0  0  0  0  0  0  0
   57.6043   33.8891   46.8280 H   0  0  0  0  0  0  0  0  0  0  0  0
   57.4411   32.1030   47.1275 H   0  0  0  0  0  0  0  0  0  0  0  0
   57.6060   32.6530   45.0680 C   0  0  0  0  0  0  0  0  0  0  0  0
   58.5170   32.7700   44.4627 H   0  0  0  0  0  0  0  0  0  0  0  0
   56.8490   33.3878   44.7566 H   0  0  0  0  0  0  0  0  0  0  0  0
   57.0680   31.3050   44.8750 N   0  0  0  0  0  0  0  0  0  0  0  0
   57.6790   30.3220   44.2800 C   0  0  0  0  0  0  0  0  0  0  0  0
   58.0354   30.4719   43.2502 H   0  0  0  0  0  0  0  0  0  0  0  0
   57.9160   29.0130   44.9250 C   0  0  0  0  0  0  0  0  0  0  0  0
   59.2250   28.5130   45.0200 C   0  0  0  0  0  0  0  0  0  0  0  0
   60.0692   29.1112   44.6467 H   0  0  0  0  0  0  0  0  0  0  0  0
   59.4570   27.2610   45.5860 C   0  0  0  0  0  0  0  0  0  0  0  0
   60.4859   26.8842   45.6825 H   0  0  0  0  0  0  0  0  0  0  0  0
   58.3830   26.4820   46.0320 C   0  0  0  0  0  0  0  0  0  0  0  0
   58.5741   25.4868   46.4599 H   0  0  0  0  0  0  0  0  0  0  0  0
   57.0560   26.9590   45.9390 C   0  0  0  0  0  0  0  0  0  0  0  0
   55.9610   26.1300   46.3940 N   0  0  0  0  0  0  0  0  0  0  0  0
   54.7980   26.3130   45.9880 O   0  0  0  0  0  0  0  0  0  0  0  0
   56.2010   25.0640   47.2300 O   0  0  0  0  0  0  0  0  0  0  0  0
   56.8290   28.2370   45.3730 C   0  0  0  0  0  0  0  0  0  0  0  0
   55.5320   28.7400   45.2450 O   0  0  0  0  0  0  0  0  0  0  0  0
   60.2310   33.9330   46.8600 C   0  0  0  0  0  0  0  0  0  0  0  0
   59.7716   34.9240   46.7301 H   0  0  0  0  0  0  0  0  0  0  0  0
   61.6100   33.8280   47.0720 C   0  0  0  0  0  0  0  0  0  0  0  0
   62.2340   34.7338   47.0852 H   0  0  0  0  0  0  0  0  0  0  0  0
  1  2  1  0
  2  3  1  0
  3  4  2  0
  4  5  1  0
  4  6  1  0
  6  7  1  0
  6  8  2  0
  8  9  1  0
  9 10  1  0
  9 11  1  0
  9 12  1  0
 12 13  1  0
 12 14  1  0
 12 15  1  0
 15 16  2  0
 16 17  1  0
 16 18  1  0
 18 19  2  0
 19 20  1  0
 19 21  1  0
 21 22  1  0
 21 23  2  0
 23 24  1  0
 23 25  1  0
 25 26  1  0
 26 27  2  0
 26 28  1  0
 25 29  2  0
 29 30  1  0
  8 31  1  0
 31 32  1  0
 31 33  2  0
 33 34  1  0
 33  3  1  0
 29 18  1  0
M  CHG  3  26   1  28  -1  30  -1
M  END
>  <UniqueID>  (68) 
64

>  <SMILES>  (68) 
O=[N+]([O-])c1cccc(/C=N\CCc2ccc(O)cc2)c1[O-]

>  <Energy>  (68) 
43.67767011368704

>  <Genealogy>  (68) 
O=[N+]([O-])c1cccc(C=NCCc2ccc(O)cc2)c1[O-] (protonated)
O=[N+]([O-])c1cccc(/C=N\CCc2ccc(O)cc2)c1[O-] (cis-trans isomerization)
O=[N+]([O-])c1cccc(/C=N\CCc2ccc(O)cc2)c1[O-] (3D coordinates assigned)
O=[N+]([O-])c1cccc(/C=N\CCc2ccc(O)cc2)c1[O-] (optimized conformer: 43.67767011368704 kcal/mol)

>  <smiles>  (68) 
O=[N+]([O-])c1cccc(C=NCCc2ccc(O)cc2)c1O

>  <score_type>  (68) 
oracle

>  <origin>  (68) 
adg

>  <m_score__min__energy>  (68) 
-11.859999999999999

>  <m_primary>  (68) 
energy

$$$$
68:0
     RDKit          3D

 44 47  0  0  0  0  0  0  0  0999 V2000
   61.5080   27.4310   51.3590 C   0  0  0  0  0  0  0  0  0  0  0  0
   61.1120   28.3570   50.2900 N   0  0  0  0  0  0  0  0  0  0  0  0
   60.4120   27.8820   49.2170 C   0  0  0  0  0  0  0  0  0  0  0  0
   60.0590   28.7410   48.1680 C   0  0  0  0  0  0  0  0  0  0  0  0
   59.3040   28.2650   46.9810 C   0  0  0  0  0  0  0  0  0  0  0  0
   59.4550   26.9530   46.4930 C   0  0  0  0  0  0  0  0  0  0  0  0
   58.7460   26.5300   45.3660 C   0  0  0  0  0  0  0  0  0  0  0  0
   57.8820   27.4080   44.7090 C   0  0  0  0  0  0  0  0  0  0  0  0
   57.7210   28.7170   45.1780 C   0  0  0  0  0  0  0  0  0  0  0  0
   56.6490   29.8350   44.3390 S   0  0  0  0  0  0  0  0  0  0  0  0
   57.0130   29.8310   42.6490 N   0  0  0  0  0  0  0  0  0  0  0  0
   56.8320   31.2220   44.8900 O   0  0  0  0  0  0  0  0  0  0  0  0
   55.2180   29.4220   44.5430 O   0  0  0  0  0  0  0  0  0  0  0  0
   58.4390   29.1460   46.3040 C   0  0  0  0  0  0  0  0  0  0  0  0
   60.4030   30.0520   48.2580 N   0  0  0  0  0  0  0  0  0  0  0  0
   61.0870   30.5610   49.3140 C   0  0  0  0  0  0  0  0  0  0  0  0
   61.3600   31.8380   49.3010 N   0  0  0  0  0  0  0  0  0  0  0  0
   61.3420   32.7370   48.1850 C   0  0  0  0  0  0  0  0  0  0  0  0
   62.4500   33.1170   47.4410 C   0  0  0  0  0  0  0  0  0  0  0  0
   62.0570   33.8130   46.3490 N   0  0  0  0  0  0  0  0  0  0  0  0
   60.7120   33.8350   46.3830 C   0  0  0  0  0  0  0  0  0  0  0  0
   59.8530   34.3850   45.4320 C   0  0  0  0  0  0  0  0  0  0  0  0
   58.4680   34.2340   45.6310 C   0  0  0  0  0  0  0  0  0  0  0  0
   57.9780   33.5310   46.7550 C   0  0  0  0  0  0  0  0  0  0  0  0
   56.6410   33.3800   46.9250 F   0  0  0  0  0  0  0  0  0  0  0  0
   58.8690   32.9790   47.6940 C   0  0  0  0  0  0  0  0  0  0  0  0
   60.2350   33.1700   47.4830 C   0  0  0  0  0  0  0  0  0  0  0  0
   61.4880   29.6750   50.3460 C   0  0  0  0  0  0  0  0  0  0  0  0
   62.2160   30.0750   51.2970 O   0  0  0  0  0  0  0  0  0  0  0  0
   61.3101   27.8939   52.3370 H   0  0  0  0  0  0  0  0  0  0  0  0
   60.9295   26.4996   51.2703 H   0  0  0  0  0  0  0  0  0  0  0  0
   62.5811   27.2059   51.2703 H   0  0  0  0  0  0  0  0  0  0  0  0
   60.1245   26.8210   49.1766 H   0  0  0  0  0  0  0  0  0  0  0  0
   60.1362   26.2559   47.0029 H   0  0  0  0  0  0  0  0  0  0  0  0
   58.8689   25.5017   44.9951 H   0  0  0  0  0  0  0  0  0  0  0  0
   57.3269   27.0706   43.8213 H   0  0  0  0  0  0  0  0  0  0  0  0
   57.8380   30.4570   42.5140 H   0  0  0  0  0  0  0  0  0  0  0  0
   57.3250   28.8640   42.4080 H   0  0  0  0  0  0  0  0  0  0  0  0
   58.3253   30.1801   46.6614 H   0  0  0  0  0  0  0  0  0  0  0  0
   63.4938   32.8865   47.7006 H   0  0  0  0  0  0  0  0  0  0  0  0
   62.6760   34.2130   45.6100 H   0  0  0  0  0  0  0  0  0  0  0  0
   60.2454   34.9197   44.5544 H   0  0  0  0  0  0  0  0  0  0  0  0
   57.7619   34.6661   44.9067 H   0  0  0  0  0  0  0  0  0  0  0  0
   58.5012   32.4162   48.5646 H   0  0  0  0  0  0  0  0  0  0  0  0
  1  2  1  0
  2  3  1  0
  3  4  2  0
  4  5  1  0
  5  6  2  0
  6  7  1  0
  7  8  2  0
  8  9  1  0
  9 10  1  0
 10 11  1  0
 10 12  2  0
 10 13  2  0
  9 14  2  0
  4 15  1  0
 15 16  1  0
 16 17  2  3
 17 18  1  0
 18 19  2  0
 19 20  1  0
 20 21  1  0
 21 22  2  0
 22 23  1  0
 23 24  2  0
 24 25  1  0
 24 26  1  0
 26 27  2  0
 16 28  1  0
 28 29  2  0
 28  2  1  0
 14  5  1  0
 27 18  1  0
 27 21  1  0
  1 30  1  0
  1 31  1  0
  1 32  1  0
  3 33  1  0
  6 34  1  0
  7 35  1  0
  8 36  1  0
 11 37  1  0
 11 38  1  0
 14 39  1  0
 19 40  1  0
 20 41  1  0
 22 42  1  0
 23 43  1  0
 26 44  1  0
M  CHG  1  15  -1
M  END
>  <UniqueID>  (69) 
65

>  <SMILES>  (69) 
Cn1cc(-c2cccc(S(N)(=O)=O)c2)[n-]c(=Nc2c[nH]c3ccc(F)cc23)c1=O

>  <Energy>  (69) 
100.90995742341221

>  <Genealogy>  (69) 
Cn1cc(-c2cccc(S(N)(=O)=O)c2)[n-]c(=Nc2c[nH]c3ccc(F)cc23)c1=O (protonated)
Cn1cc(-c2cccc(S(N)(=O)=O)c2)[n-]c(=Nc2c[nH]c3ccc(F)cc23)c1=O (3D coordinates assigned)
Cn1cc(-c2cccc(S(N)(=O)=O)c2)[n-]c(=Nc2c[nH]c3ccc(F)cc23)c1=O (optimized conformer: 100.90995742341221 kcal/mol)

>  <smiles>  (69) 
Cn1cc(-c2cccc(S(N)(=O)=O)c2)[nH]c(=Nc2c[nH]c3ccc(F)cc23)c1=O

>  <score_type>  (69) 
oracle

>  <origin>  (69) 
adg

>  <m_score__min__energy>  (69) 
-10.68

>  <m_primary>  (69) 
energy

$$$$
69:0
     RDKit          3D

 27 29  0  0  0  0  0  0  0  0999 V2000
   55.4050   29.5980   44.8800 N   0  0  0  0  0  0  0  0  0  0  0  0
   56.4540   30.3480   44.2680 C   0  0  0  0  0  0  0  0  0  0  0  0
   56.2610   30.8460   43.1270 O   0  0  0  0  0  0  0  0  0  0  0  0
   57.6940   30.5800   44.9670 N   0  0  0  0  0  0  0  0  0  0  0  0
   58.1580   31.9170   45.2580 C   0  0  0  0  0  0  0  0  0  0  0  0
   58.2540   32.8860   44.2460 C   0  0  0  0  0  0  0  0  0  0  0  0
   58.8620   34.1180   44.5070 C   0  0  0  0  0  0  0  0  0  0  0  0
   59.4020   34.3820   45.7700 C   0  0  0  0  0  0  0  0  0  0  0  0
   59.3270   33.4180   46.7790 C   0  0  0  0  0  0  0  0  0  0  0  0
   58.6970   32.1940   46.5300 C   0  0  0  0  0  0  0  0  0  0  0  0
   58.5190   30.9810   47.8440 S   0  0  0  0  0  0  0  0  0  0  0  0
   59.0260   29.6160   46.7910 C   0  0  0  0  0  0  0  0  0  0  0  0
   59.9350   28.6590   47.2500 C   0  0  0  0  0  0  0  0  0  0  0  0
   60.2680   27.5940   46.4630 N   0  0  0  0  0  0  0  0  0  0  0  0
   61.1570   26.6450   46.9200 O   0  0  0  0  0  0  0  0  0  0  0  0
   59.7360   27.4510   45.2160 C   0  0  0  0  0  0  0  0  0  0  0  0
   58.8410   28.3990   44.7120 C   0  0  0  0  0  0  0  0  0  0  0  0
   58.4700   29.4900   45.5090 C   0  0  0  0  0  0  0  0  0  0  0  0
   54.5340   30.0670   45.2140 H   0  0  0  0  0  0  0  0  0  0  0  0
   57.8497   32.6752   43.2449 H   0  0  0  0  0  0  0  0  0  0  0  0
   58.9157   34.8815   43.7169 H   0  0  0  0  0  0  0  0  0  0  0  0
   59.8862   35.3494   45.9693 H   0  0  0  0  0  0  0  0  0  0  0  0
   59.7630   33.6215   47.7682 H   0  0  0  0  0  0  0  0  0  0  0  0
   60.3838   28.7640   48.2488 H   0  0  0  0  0  0  0  0  0  0  0  0
   61.9300   26.3250   46.3470 H   0  0  0  0  0  0  0  0  0  0  0  0
   60.0135   26.5821   44.6012 H   0  0  0  0  0  0  0  0  0  0  0  0
   58.4310   28.2893   43.6972 H   0  0  0  0  0  0  0  0  0  0  0  0
  1  2  1  0
  2  3  2  0
  2  4  1  0
  4  5  1  0
  5  6  2  0
  6  7  1  0
  7  8  2  0
  8  9  1  0
  9 10  2  0
 10 11  1  0
 11 12  1  0
 12 13  2  0
 13 14  1  0
 14 15  1  0
 14 16  2  0
 16 17  1  0
 17 18  2  0
 18  4  1  0
 10  5  1  0
 18 12  1  0
  1 19  1  0
  6 20  1  0
  7 21  1  0
  8 22  1  0
  9 23  1  0
 13 24  1  0
 15 25  1  0
 16 26  1  0
 17 27  1  0
M  CHG  2   1  -1  14   1
M  END
>  <UniqueID>  (70) 
66

>  <SMILES>  (70) 
[NH-]C(=O)N1c2ccccc2Sc2c[n+](O)ccc21

>  <Energy>  (70) 
49.849443067818996

>  <Genealogy>  (70) 
[NH-]C(=O)N1c2ccccc2Sc2c[n+](O)ccc21 (protonated)
[NH-]C(=O)N1c2ccccc2Sc2c[n+](O)ccc21 (3D coordinates assigned)
[NH-]C(=O)N1c2ccccc2Sc2c[n+](O)ccc21 (nonaromatic ring conformer: 49.849443067818996 kcal/mol)

>  <smiles>  (70) 
NC(=O)N1c2ccccc2Sc2c[n+]([O-])ccc21

>  <score_type>  (70) 
oracle

>  <origin>  (70) 
adg

>  <m_score__min__energy>  (70) 
-6.7599999999999998

>  <m_primary>  (70) 
energy

$$$$
70:0
     RDKit          3D

 67 71  0  0  0  0  0  0  0  0999 V2000
   62.5630   33.3220   47.1520 C   0  0  0  0  0  0  0  0  0  0  0  0
   61.9430   33.0980   48.4710 N   0  0  2  0  0  0  0  0  0  0  0  0
   62.0750   31.6830   48.8950 C   0  0  0  0  0  0  0  0  0  0  0  0
   61.0810   30.7840   48.1960 C   0  0  0  0  0  0  0  0  0  0  0  0
   61.2700   30.4240   46.8490 C   0  0  0  0  0  0  0  0  0  0  0  0
   60.3600   29.5750   46.2120 C   0  0  0  0  0  0  0  0  0  0  0  0
   59.2580   29.0770   46.9130 C   0  0  0  0  0  0  0  0  0  0  0  0
   59.0650   29.4270   48.2530 C   0  0  0  0  0  0  0  0  0  0  0  0
   59.9740   30.2750   48.8940 C   0  0  0  0  0  0  0  0  0  0  0  0
   60.5450   33.4830   48.4040 C   0  0  0  0  0  0  0  0  0  0  0  0
   59.8460   33.4670   49.4570 O   0  0  0  0  0  0  0  0  0  0  0  0
   59.8740   33.8180   47.1120 C   0  0  0  0  0  0  0  0  0  0  0  0
   60.0260   35.0750   46.4930 C   0  0  0  0  0  0  0  0  0  0  0  0
   59.4400   35.3330   45.2510 C   0  0  0  0  0  0  0  0  0  0  0  0
   58.7050   34.3420   44.6000 C   0  0  0  0  0  0  0  0  0  0  0  0
   58.5330   33.0860   45.1980 C   0  0  0  0  0  0  0  0  0  0  0  0
   57.7920   32.0180   44.4950 C   0  0  0  0  0  0  0  0  0  0  0  0
   57.6630   32.0490   43.0970 C   0  0  0  0  0  0  0  0  0  0  0  0
   57.0350   30.9970   42.4240 C   0  0  0  0  0  0  0  0  0  0  0  0
   56.5140   29.9180   43.1400 C   0  0  0  0  0  0  0  0  0  0  0  0
   56.5970   29.8930   44.5350 C   0  0  0  0  0  0  0  0  0  0  0  0
   56.0530   28.8060   45.2300 O   0  0  0  0  0  0  0  0  0  0  0  0
   56.6630   27.5480   45.3380 C   0  0  0  0  0  0  0  0  0  0  0  0
   56.2200   26.5840   46.2610 C   0  0  0  0  0  0  0  0  0  0  0  0
   56.8160   25.3200   46.3030 C   0  0  0  0  0  0  0  0  0  0  0  0
   57.8470   24.9980   45.4120 C   0  0  0  0  0  0  0  0  0  0  0  0
   58.5290   23.3720   45.4050 S   0  0  0  0  0  0  0  0  0  0  0  0
   60.0040   23.4600   45.6800 O   0  0  0  0  0  0  0  0  0  0  0  0
   58.3190   22.7150   44.0690 O   0  0  0  0  0  0  0  0  0  0  0  0
   57.7770   22.4050   46.6400 N   0  0  0  0  0  0  0  0  0  0  0  0
   56.5160   22.4070   46.9670 C   0  0  0  0  0  0  0  0  0  0  0  0
   55.4830   22.2920   46.0130 C   0  0  0  0  0  0  0  0  0  0  0  0
   54.1510   22.3250   46.4350 C   0  0  0  0  0  0  0  0  0  0  0  0
   53.8510   22.4690   47.7890 C   0  0  0  0  0  0  0  0  0  0  0  0
   54.8950   22.5720   48.7080 C   0  0  0  0  0  0  0  0  0  0  0  0
   56.1860   22.5370   48.2810 N   0  0  0  0  0  0  0  0  0  0  0  0
   58.2940   25.9580   44.4960 C   0  0  0  0  0  0  0  0  0  0  0  0
   57.7030   27.2240   44.4590 C   0  0  0  0  0  0  0  0  0  0  0  0
   57.2540   30.9360   45.2110 C   0  0  0  0  0  0  0  0  0  0  0  0
   59.1090   32.8340   46.4550 C   0  0  0  0  0  0  0  0  0  0  0  0
   63.5897   33.6929   47.2877 H   0  0  0  0  0  0  0  0  0  0  0  0
   62.5861   32.3754   46.5922 H   0  0  0  0  0  0  0  0  0  0  0  0
   61.9757   34.0648   46.5922 H   0  0  0  0  0  0  0  0  0  0  0  0
   62.4330   33.6860   49.1840 H   0  0  0  0  0  0  0  0  0  0  0  0
   63.0923   31.3362   48.6610 H   0  0  0  0  0  0  0  0  0  0  0  0
   61.8746   31.6334   49.9755 H   0  0  0  0  0  0  0  0  0  0  0  0
   62.1373   30.8121   46.2948 H   0  0  0  0  0  0  0  0  0  0  0  0
   60.5114   29.2986   45.1581 H   0  0  0  0  0  0  0  0  0  0  0  0
   58.5424   28.4096   46.4104 H   0  0  0  0  0  0  0  0  0  0  0  0
   58.1972   29.0349   48.8037 H   0  0  0  0  0  0  0  0  0  0  0  0
   59.8210   30.5443   49.9495 H   0  0  0  0  0  0  0  0  0  0  0  0
   60.6117   35.8607   46.9925 H   0  0  0  0  0  0  0  0  0  0  0  0
   59.5588   36.3221   44.7845 H   0  0  0  0  0  0  0  0  0  0  0  0
   58.2595   34.5467   43.6153 H   0  0  0  0  0  0  0  0  0  0  0  0
   58.0577   32.9045   42.5293 H   0  0  0  0  0  0  0  0  0  0  0  0
   56.9512   31.0195   41.3274 H   0  0  0  0  0  0  0  0  0  0  0  0
   56.0364   29.0843   42.6044 H   0  0  0  0  0  0  0  0  0  0  0  0
   55.4003   26.8257   46.9536 H   0  0  0  0  0  0  0  0  0  0  0  0
   56.4740   24.5765   47.0380 H   0  0  0  0  0  0  0  0  0  0  0  0
   55.7239   22.1773   44.9459 H   0  0  0  0  0  0  0  0  0  0  0  0
   53.3388   22.2373   45.6984 H   0  0  0  0  0  0  0  0  0  0  0  0
   52.8050   22.5009   48.1278 H   0  0  0  0  0  0  0  0  0  0  0  0
   54.6740   22.6817   49.7800 H   0  0  0  0  0  0  0  0  0  0  0  0
   59.1131   25.7150   43.8031 H   0  0  0  0  0  0  0  0  0  0  0  0
   58.0577   27.9712   43.7338 H   0  0  0  0  0  0  0  0  0  0  0  0
   57.3472   30.9045   46.3066 H   0  0  0  0  0  0  0  0  0  0  0  0
   58.9604   31.8544   46.9328 H   0  0  0  0  0  0  0  0  0  0  0  0
  1  2  1  0
  2  3  1  0
  3  4  1  0
  4  5  2  0
  5  6  1  0
  6  7  2  0
  7  8  1  0
  8  9  2  0
  2 10  1  0
 10 11  2  0
 10 12  1  0
 12 13  2  0
 13 14  1  0
 14 15  2  0
 15 16  1  0
 16 17  1  0
 17 18  2  0
 18 19  1  0
 19 20  2  0
 20 21  1  0
 21 22  1  0
 22 23  1  0
 23 24  2  0
 24 25  1  0
 25 26  2  0
 26 27  1  0
 27 28  2  0
 27 29  2  0
 27 30  1  0
 30 31  2  3
 31 32  1  0
 32 33  2  0
 33 34  1  0
 34 35  2  0
 35 36  1  0
 26 37  1  0
 37 38  2  0
 21 39  2  0
 16 40  2  0
  9  4  1  0
 40 12  1  0
 39 17  1  0
 38 23  1  0
 36 31  1  0
  1 41  1  0
  1 42  1  0
  1 43  1  0
  2 44  1  1
  3 45  1  0
  3 46  1  0
  5 47  1  0
  6 48  1  0
  7 49  1  0
  8 50  1  0
  9 51  1  0
 13 52  1  0
 14 53  1  0
 15 54  1  0
 18 55  1  0
 19 56  1  0
 20 57  1  0
 24 58  1  0
 25 59  1  0
 32 60  1  0
 33 61  1  0
 34 62  1  0
 35 63  1  0
 37 64  1  0
 38 65  1  0
 39 66  1  0
 40 67  1  0
M  CHG  2   2   1  36  -1
M  END
>  <UniqueID>  (71) 
67

>  <SMILES>  (71) 
C[N@H+](Cc1ccccc1)C(=O)c1cccc(-c2cccc(Oc3ccc(S(=O)(=O)N=c4cccc[n-]4)cc3)c2)c1

>  <Energy>  (71) 
98.20247074175342

>  <Genealogy>  (71) 
C[NH+](Cc1ccccc1)C(=O)c1cccc(-c2cccc(Oc3ccc(S(=O)(=O)N=c4cccc[n-]4)cc3)c2)c1 (protonated)
C[N@H+](Cc1ccccc1)C(=O)c1cccc(-c2cccc(Oc3ccc(S(=O)(=O)N=c4cccc[n-]4)cc3)c2)c1 (chirality)
C[N@H+](Cc1ccccc1)C(=O)c1cccc(-c2cccc(Oc3ccc(S(=O)(=O)N=c4cccc[n-]4)cc3)c2)c1 (3D coordinates assigned)
C[N@H+](Cc1ccccc1)C(=O)c1cccc(-c2cccc(Oc3ccc(S(=O)(=O)N=c4cccc[n-]4)cc3)c2)c1 (optimized conformer: 98.20247074175342 kcal/mol)

>  <smiles>  (71) 
CN(Cc1ccccc1)C(=O)c1cccc(-c2cccc(Oc3ccc(S(=O)(=O)N=c4cccc[nH]4)cc3)c2)c1

>  <score_type>  (71) 
oracle

>  <origin>  (71) 
adg

>  <m_score__min__energy>  (71) 
-11.359999999999999

>  <m_primary>  (71) 
energy

$$$$
71:0
     RDKit          3D

 32 33  0  0  0  0  0  0  0  0999 V2000
   59.8660   28.3950   48.3770 C   0  0  0  0  0  0  0  0  0  0  0  0
   59.4540   28.4380   46.9360 C   0  0  0  0  0  0  0  0  0  0  0  0
   60.3900   28.1850   45.9220 C   0  0  0  0  0  0  0  0  0  0  0  0
   60.0040   28.2400   44.5800 C   0  0  0  0  0  0  0  0  0  0  0  0
   58.6830   28.5490   44.2400 C   0  0  0  0  0  0  0  0  0  0  0  0
   57.7400   28.8180   45.2430 C   0  0  0  0  0  0  0  0  0  0  0  0
   56.3070   29.1000   44.8750 C   0  0  0  0  0  0  0  0  0  0  0  0
   56.0960   30.5330   44.6830 N   0  0  0  0  0  0  0  0  0  0  0  0
   57.0680   31.4590   44.1780 C   0  0  0  0  0  0  0  0  0  0  0  0
   57.3440   31.4450   42.9500 O   0  0  0  0  0  0  0  0  0  0  0  0
   57.7200   32.4570   45.0460 C   0  0  0  0  0  0  0  0  0  0  0  0
   57.8040   32.2540   46.4280 C   0  0  0  0  0  0  0  0  0  0  0  0
   58.3880   33.2350   47.2310 C   0  0  0  0  0  0  0  0  0  0  0  0
   58.8800   34.3810   46.6810 N   0  0  0  0  0  0  0  0  0  0  0  0
   59.4350   35.3250   47.5240 O   0  0  0  0  0  0  0  0  0  0  0  0
   58.8250   34.5890   45.3290 C   0  0  0  0  0  0  0  0  0  0  0  0
   59.2830   35.6500   44.8260 O   0  0  0  0  0  0  0  0  0  0  0  0
   58.2540   33.6250   44.4920 C   0  0  0  0  0  0  0  0  0  0  0  0
   58.1380   28.7810   46.5900 C   0  0  0  0  0  0  0  0  0  0  0  0
   58.9754   28.4879   49.0159 H   0  0  0  0  0  0  0  0  0  0  0  0
   60.3692   27.4395   48.5861 H   0  0  0  0  0  0  0  0  0  0  0  0
   60.5557   29.2260   48.5861 H   0  0  0  0  0  0  0  0  0  0  0  0
   61.4305   27.9427   46.1840 H   0  0  0  0  0  0  0  0  0  0  0  0
   60.7414   28.0397   43.7887 H   0  0  0  0  0  0  0  0  0  0  0  0
   58.3825   28.5812   43.1823 H   0  0  0  0  0  0  0  0  0  0  0  0
   56.0628   28.5708   43.9421 H   0  0  0  0  0  0  0  0  0  0  0  0
   55.6570   28.7529   45.6917 H   0  0  0  0  0  0  0  0  0  0  0  0
   57.4132   31.3293   46.8776 H   0  0  0  0  0  0  0  0  0  0  0  0
   58.4518   33.0818   48.3184 H   0  0  0  0  0  0  0  0  0  0  0  0
   59.6100   36.2760   47.2240 H   0  0  0  0  0  0  0  0  0  0  0  0
   58.2250   33.7845   43.4040 H   0  0  0  0  0  0  0  0  0  0  0  0
   57.4118   29.0230   47.3800 H   0  0  0  0  0  0  0  0  0  0  0  0
  1  2  1  0
  2  3  2  0
  3  4  1  0
  4  5  2  0
  5  6  1  0
  6  7  1  0
  7  8  1  0
  8  9  1  0
  9 10  2  0
  9 11  1  0
 11 12  1  0
 12 13  2  0
 13 14  1  0
 14 15  1  0
 14 16  1  0
 16 17  2  0
 16 18  1  0
  6 19  2  0
 19  2  1  0
 18 11  2  0
  1 20  1  0
  1 21  1  0
  1 22  1  0
  3 23  1  0
  4 24  1  0
  5 25  1  0
  7 26  1  0
  7 27  1  0
 12 28  1  0
 13 29  1  0
 15 30  1  0
 18 31  1  0
 19 32  1  0
M  CHG  1   8  -1
M  END
>  <UniqueID>  (72) 
68

>  <SMILES>  (72) 
Cc1cccc(C[N-]C(=O)c2ccn(O)c(=O)c2)c1

>  <Energy>  (72) 
34.385956248431086

>  <Genealogy>  (72) 
Cc1cccc(C[N-]C(=O)c2ccn(O)c(=O)c2)c1 (protonated)
Cc1cccc(C[N-]C(=O)c2ccn(O)c(=O)c2)c1 (3D coordinates assigned)
Cc1cccc(C[N-]C(=O)c2ccn(O)c(=O)c2)c1 (optimized conformer: 34.385956248431086 kcal/mol)

>  <smiles>  (72) 
Cc1cccc(CNC(=O)c2ccn(O)c(=O)c2)c1

>  <score_type>  (72) 
oracle

>  <origin>  (72) 
adg

>  <m_score__min__energy>  (72) 
-9.1199999999999992

>  <m_primary>  (72) 
energy

$$$$
72:0
     RDKit          3D

 42 44  0  0  0  0  0  0  0  0999 V2000
   54.7580   23.7680   44.7550 C   0  0  0  0  0  0  0  0  0  0  0  0
   56.1070   23.1220   44.5680 C   0  0  0  0  0  0  0  0  0  0  0  0
   56.2870   22.2200   43.5050 C   0  0  0  0  0  0  0  0  0  0  0  0
   57.5160   21.5850   43.3110 C   0  0  0  0  0  0  0  0  0  0  0  0
   58.5770   21.8370   44.1790 C   0  0  0  0  0  0  0  0  0  0  0  0
   58.4140   22.7220   45.2450 C   0  0  0  0  0  0  0  0  0  0  0  0
   57.1850   23.3750   45.4550 C   0  0  0  0  0  0  0  0  0  0  0  0
   57.0480   24.3090   46.6370 C   0  0  0  0  0  0  0  0  0  0  0  0
   57.5300   25.6460   46.2960 N   0  0  0  0  0  0  0  0  0  0  0  0
   56.6420   26.7130   45.9270 C   0  0  0  0  0  0  0  0  0  0  0  0
   55.3950   26.5490   46.0070 O   0  0  0  0  0  0  0  0  0  0  0  0
   57.1610   28.0090   45.4550 C   0  0  0  0  0  0  0  0  0  0  0  0
   58.4800   28.4110   45.4050 C   0  0  0  0  0  0  0  0  0  0  0  0
   58.5020   29.6250   44.9160 O   0  0  0  0  0  0  0  0  0  0  0  0
   57.2590   29.9650   44.6650 C   0  0  0  0  0  0  0  0  0  0  0  0
   56.8590   31.2930   44.1200 C   0  0  0  0  0  0  0  0  0  0  0  0
   56.6890   32.2080   45.1980 O   0  0  0  0  0  0  0  0  0  0  0  0
   57.6930   33.0600   45.6820 C   0  0  0  0  0  0  0  0  0  0  0  0
   57.8740   33.3080   47.0570 C   0  0  0  0  0  0  0  0  0  0  0  0
   58.8900   34.1670   47.4890 C   0  0  0  0  0  0  0  0  0  0  0  0
   59.7310   34.7820   46.5590 C   0  0  0  0  0  0  0  0  0  0  0  0
   59.5580   34.5400   45.1940 C   0  0  0  0  0  0  0  0  0  0  0  0
   58.5430   33.6830   44.7560 C   0  0  0  0  0  0  0  0  0  0  0  0
   58.3850   33.4560   43.4290 F   0  0  0  0  0  0  0  0  0  0  0  0
   56.3750   28.9960   44.9840 N   0  0  0  0  0  0  0  0  0  0  0  0
   54.5459   23.8696   45.8296 H   0  0  0  0  0  0  0  0  0  0  0  0
   54.7597   24.7630   44.2860 H   0  0  0  0  0  0  0  0  0  0  0  0
   53.9839   23.1429   44.2860 H   0  0  0  0  0  0  0  0  0  0  0  0
   55.4522   22.0122   42.8195 H   0  0  0  0  0  0  0  0  0  0  0  0
   57.6466   20.8853   42.4723 H   0  0  0  0  0  0  0  0  0  0  0  0
   59.5445   21.3372   44.0232 H   0  0  0  0  0  0  0  0  0  0  0  0
   59.2548   22.9115   45.9285 H   0  0  0  0  0  0  0  0  0  0  0  0
   55.9891   24.3701   46.9284 H   0  0  0  0  0  0  0  0  0  0  0  0
   57.6504   23.9171   47.4698 H   0  0  0  0  0  0  0  0  0  0  0  0
   58.5560   25.8230   46.3610 H   0  0  0  0  0  0  0  0  0  0  0  0
   59.3530   27.8197   45.7186 H   0  0  0  0  0  0  0  0  0  0  0  0
   57.6420   31.6639   43.4423 H   0  0  0  0  0  0  0  0  0  0  0  0
   55.9146   31.1960   43.5643 H   0  0  0  0  0  0  0  0  0  0  0  0
   57.2145   32.8248   47.7929 H   0  0  0  0  0  0  0  0  0  0  0  0
   59.0268   34.3585   48.5635 H   0  0  0  0  0  0  0  0  0  0  0  0
   60.5295   35.4568   46.9012 H   0  0  0  0  0  0  0  0  0  0  0  0
   60.2213   35.0244   44.4623 H   0  0  0  0  0  0  0  0  0  0  0  0
  1  2  1  0
  2  3  2  0
  3  4  1  0
  4  5  2  0
  5  6  1  0
  6  7  2  0
  7  8  1  0
  8  9  1  0
  9 10  1  0
 10 11  2  0
 10 12  1  0
 12 13  2  0
 13 14  1  0
 14 15  1  0
 15 16  1  0
 16 17  1  0
 17 18  1  0
 18 19  2  0
 19 20  1  0
 20 21  2  0
 21 22  1  0
 22 23  2  0
 23 24  1  0
 15 25  2  0
  7  2  1  0
 25 12  1  0
 23 18  1  0
  1 26  1  0
  1 27  1  0
  1 28  1  0
  3 29  1  0
  4 30  1  0
  5 31  1  0
  6 32  1  0
  8 33  1  0
  8 34  1  0
  9 35  1  0
 13 36  1  0
 16 37  1  0
 16 38  1  0
 19 39  1  0
 20 40  1  0
 21 41  1  0
 22 42  1  0
M  END
>  <UniqueID>  (73) 
69

>  <SMILES>  (73) 
Cc1ccccc1CNC(=O)c1coc(COc2ccccc2F)n1

>  <Energy>  (73) 
70.48525131492353

>  <Genealogy>  (73) 
Cc1ccccc1CNC(=O)c1coc(COc2ccccc2F)n1 (3D coordinates assigned)
Cc1ccccc1CNC(=O)c1coc(COc2ccccc2F)n1 (optimized conformer: 70.48525131492353 kcal/mol)

>  <smiles>  (73) 
Cc1ccccc1CNC(=O)c1coc(COc2ccccc2F)n1

>  <score_type>  (73) 
oracle

>  <origin>  (73) 
adg

>  <m_score__min__energy>  (73) 
-8.6999999999999993

>  <m_primary>  (73) 
energy

$$$$
73:0
     RDKit          3D

 61 64  0  0  0  0  0  0  0  0999 V2000
   63.1470   32.4530   48.5000 H   0  0  0  0  0  0  0  0  0  0  0  0
   62.7150   31.5970   48.1700 O   0  0  0  0  0  0  0  0  0  0  0  0
   61.4830   31.1660   48.6610 C   0  0  0  0  0  0  0  0  0  0  0  0
   60.8890   30.0020   48.1520 C   0  0  0  0  0  0  0  0  0  0  0  0
   61.3897   29.4399   47.3499 H   0  0  0  0  0  0  0  0  0  0  0  0
   56.0450   24.9040   45.2510 C   0  0  0  0  0  0  0  0  0  0  0  0
   55.6640   26.0760   45.9830 N   0  0  0  0  0  0  0  0  0  0  0  0
   56.4250   27.1230   46.1040 C   0  0  0  0  0  0  0  0  0  0  0  0
   56.2950   28.1510   45.2290 N   0  0  0  0  0  0  0  0  0  0  0  0
   57.0960   29.2470   45.3320 C   0  0  0  0  0  0  0  0  0  0  0  0
   56.9880   30.2390   44.4980 N   0  0  0  0  0  0  0  0  0  0  0  0
   56.6400   31.6200   44.8480 C   0  0  0  0  0  0  0  0  0  0  0  0
   56.1926   32.1085   43.9698 H   0  0  0  0  0  0  0  0  0  0  0  0
   55.9301   31.5928   45.6878 H   0  0  0  0  0  0  0  0  0  0  0  0
   57.8790   32.4250   45.2910 C   0  0  2  0  0  0  0  0  0  0  0  0
   58.7476   31.9633   44.7988 H   0  0  0  0  0  0  0  0  0  0  0  0
   58.1340   32.3270   46.8200 C   0  0  0  0  0  0  0  0  0  0  0  0
   57.1776   32.1131   47.3196 H   0  0  0  0  0  0  0  0  0  0  0  0
   58.8731   31.5270   46.9743 H   0  0  0  0  0  0  0  0  0  0  0  0
   58.7250   33.6140   47.4280 C   0  0  0  0  0  0  0  0  0  0  0  0
   57.9030   34.3164   47.6302 H   0  0  0  0  0  0  0  0  0  0  0  0
   59.2566   33.3307   48.3484 H   0  0  0  0  0  0  0  0  0  0  0  0
   59.7450   34.3040   46.4970 C   0  0  1  0  0  0  0  0  0  0  0  0
   60.0141   35.2718   46.9452 H   0  0  0  0  0  0  0  0  0  0  0  0
   61.0480   33.4700   46.3900 C   0  0  0  0  0  0  0  0  0  0  0  0
   60.8106   32.4147   46.5901 H   0  0  0  0  0  0  0  0  0  0  0  0
   61.4524   33.6039   45.3758 H   0  0  0  0  0  0  0  0  0  0  0  0
   62.0680   33.9130   47.3430 N   0  0  0  0  0  0  0  0  0  0  0  0
   62.9840   33.4750   47.0920 H   0  0  0  0  0  0  0  0  0  0  0  0
   61.8140   33.5950   48.3050 H   0  0  0  0  0  0  0  0  0  0  0  0
   59.1270   34.6250   45.1010 C   0  0  0  0  0  0  0  0  0  0  0  0
   58.9382   35.7073   45.0469 H   0  0  0  0  0  0  0  0  0  0  0  0
   59.8506   34.2831   44.3463 H   0  0  0  0  0  0  0  0  0  0  0  0
   57.8050   33.8880   44.8170 C   0  0  0  0  0  0  0  0  0  0  0  0
   56.9873   34.3976   45.3477 H   0  0  0  0  0  0  0  0  0  0  0  0
   57.6234   33.8973   43.7321 H   0  0  0  0  0  0  0  0  0  0  0  0
   58.0280   29.3070   46.3170 N   0  0  0  0  0  0  0  0  0  0  0  0
   58.1630   28.2860   47.2000 C   0  0  0  0  0  0  0  0  0  0  0  0
   59.0890   28.3480   48.1130 N   0  0  0  0  0  0  0  0  0  0  0  0
   59.6650   29.5500   48.6560 C   0  0  0  0  0  0  0  0  0  0  0  0
   59.0050   30.3090   49.6380 C   0  0  0  0  0  0  0  0  0  0  0  0
   58.0192   29.9885   50.0061 H   0  0  0  0  0  0  0  0  0  0  0  0
   57.7840   23.5770   44.2010 C   0  0  0  0  0  0  0  0  0  0  0  0
   58.8382   23.4450   43.9158 H   0  0  0  0  0  0  0  0  0  0  0  0
   56.8480   22.5880   43.8890 C   0  0  0  0  0  0  0  0  0  0  0  0
   57.1675   21.6730   43.3687 H   0  0  0  0  0  0  0  0  0  0  0  0
   55.5050   22.7610   44.2380 C   0  0  0  0  0  0  0  0  0  0  0  0
   54.7679   21.9856   43.9825 H   0  0  0  0  0  0  0  0  0  0  0  0
   55.0960   23.9170   44.9110 C   0  0  0  0  0  0  0  0  0  0  0  0
   53.3910   24.1290   45.2830 Cl  0  0  0  0  0  0  0  0  0  0  0  0
   57.3660   27.1930   47.0830 N   0  0  0  0  0  0  0  0  0  0  0  0
   57.3830   24.7340   44.8750 C   0  0  0  0  0  0  0  0  0  0  0  0
   58.1216   25.5142   45.1110 H   0  0  0  0  0  0  0  0  0  0  0  0
   59.5940   31.4680   50.1490 C   0  0  0  0  0  0  0  0  0  0  0  0
   59.0781   32.0447   50.9308 H   0  0  0  0  0  0  0  0  0  0  0  0
   60.8440   31.9020   49.6690 C   0  0  0  0  0  0  0  0  0  0  0  0
   61.4760   33.0540   50.1620 O   0  0  0  0  0  0  0  0  0  0  0  0
   62.6430   33.0460   50.9780 C   0  0  0  0  0  0  0  0  0  0  0  0
   62.3492   33.0480   52.0380 H   0  0  0  0  0  0  0  0  0  0  0  0
   63.2345   32.1438   50.7631 H   0  0  0  0  0  0  0  0  0  0  0  0
   63.2468   33.9400   50.7631 H   0  0  0  0  0  0  0  0  0  0  0  0
  1  2  1  0
  2  3  1  0
  3  4  2  0
  4  5  1  0
  4  6  1  0
  6  7  1  0
  7  8  2  0
  8  9  1  0
  9 10  1  0
 10 11  2  3
 11 12  1  0
 12 13  1  0
 12 14  1  0
 12 15  1  0
 15 16  1  6
 15 17  1  0
 17 18  1  0
 17 19  1  0
 17 20  1  0
 20 21  1  0
 20 22  1  0
 20 23  1  0
 23 24  1  1
 23 25  1  0
 25 26  1  0
 25 27  1  0
 25 28  1  0
 28 29  1  0
 28 30  1  0
 23 31  1  0
 31 32  1  0
 31 33  1  0
 31 34  1  0
 34 35  1  0
 34 36  1  0
 10 37  1  0
 37 38  1  0
 38 39  2  0
 39 40  1  0
 40 41  2  0
 41 42  1  0
 41 43  1  0
 43 44  1  0
 43 45  2  0
 45 46  1  0
 45 47  1  0
 47 48  1  0
 47 49  2  0
 49 50  1  0
 38 51  1  0
  6 52  2  0
 52 53  1  0
 52 54  1  0
 54 55  1  0
 54 56  2  0
 56 57  1  0
 57 58  1  0
 58 59  1  0
 58 60  1  0
 58 61  1  0
 56  3  1  0
 51  8  1  0
 34 15  1  0
 49 40  1  0
M  CHG  3   9  -1  37  -1  51  -1
M  END
>  <UniqueID>  (74) 
70

>  <SMILES>  (74) 
COc1ccc(/N=c2/[n-]c(=NCC3CCC(CN)CC3)[n-]/c(=N/c3ccccc3Cl)[n-]2)cc1O

>  <Energy>  (74) 
81.25114275816702

>  <Genealogy>  (74) 
COc1ccc(N=c2[n-]c(=NCC3CCC(CN)CC3)[n-]c(=Nc3ccccc3Cl)[n-]2)cc1O (protonated)
COc1ccc(/N=c2/[n-]c(=NCC3CCC(CN)CC3)[n-]/c(=N/c3ccccc3Cl)[n-]2)cc1O (cis-trans isomerization)
COc1ccc(/N=c2/[n-]c(=NCC3CCC(CN)CC3)[n-]/c(=N/c3ccccc3Cl)[n-]2)cc1O (3D coordinates assigned)
COc1ccc(/N=c2/[n-]c(=NCC3CCC(CN)CC3)[n-]/c(=N/c3ccccc3Cl)[n-]2)cc1O (nonaromatic ring conformer: 81.25114275816702 kcal/mol)

>  <smiles>  (74) 
COc1ccc(N=c2[nH]c(=NCC3CCC(CN)CC3)[nH]c(=Nc3ccccc3Cl)[nH]2)cc1O

>  <score_type>  (74) 
oracle

>  <origin>  (74) 
adg

>  <m_score__min__energy>  (74) 
-13.15

>  <m_primary>  (74) 
energy

$$$$
74:0
     RDKit          3D

 43 45  0  0  0  0  0  0  0  0999 V2000
   56.6053   21.3684   43.5997 H   0  0  0  0  0  0  0  0  0  0  0  0
   56.3760   22.3240   44.0940 C   0  0  0  0  0  0  0  0  0  0  0  0
   55.3700   22.3870   45.0610 C   0  0  0  0  0  0  0  0  0  0  0  0
   54.8133   21.4783   45.3339 H   0  0  0  0  0  0  0  0  0  0  0  0
   55.0690   23.6030   45.6830 C   0  0  0  0  0  0  0  0  0  0  0  0
   54.2872   23.6447   46.4557 H   0  0  0  0  0  0  0  0  0  0  0  0
   55.7640   24.7750   45.3230 C   0  0  0  0  0  0  0  0  0  0  0  0
   55.5120   26.0390   45.9610 N   0  0  0  0  0  0  0  0  0  0  0  0
   56.2770   27.0900   45.9430 C   0  0  0  0  0  0  0  0  0  0  0  0
   55.8750   28.1890   45.2570 N   0  0  0  0  0  0  0  0  0  0  0  0
   56.6410   29.3130   45.2420 C   0  0  0  0  0  0  0  0  0  0  0  0
   56.2670   30.3700   44.5870 N   0  0  0  0  0  0  0  0  0  0  0  0
   57.1250   31.1050   43.6600 C   0  0  0  0  0  0  0  0  0  0  0  0
   56.5339   31.4120   42.7846 H   0  0  0  0  0  0  0  0  0  0  0  0
   57.9533   30.4527   43.3462 H   0  0  0  0  0  0  0  0  0  0  0  0
   57.7040   32.3530   44.3430 C   0  0  0  0  0  0  0  0  0  0  0  0
   57.0399   33.2046   44.1341 H   0  0  0  0  0  0  0  0  0  0  0  0
   58.7153   32.5053   43.9379 H   0  0  0  0  0  0  0  0  0  0  0  0
   57.8370   32.2120   45.8020 N   0  0  0  0  0  0  0  0  0  0  0  0
   57.2580   31.4100   46.1440 H   0  0  0  0  0  0  0  0  0  0  0  0
   57.4350   33.4260   46.5180 C   0  0  0  0  0  0  0  0  0  0  0  0
   57.4937   33.2487   47.6020 H   0  0  0  0  0  0  0  0  0  0  0  0
   58.1074   34.2525   46.2447 H   0  0  0  0  0  0  0  0  0  0  0  0
   56.4022   33.6879   46.2447 H   0  0  0  0  0  0  0  0  0  0  0  0
   57.8110   29.3340   45.9270 N   0  0  0  0  0  0  0  0  0  0  0  0
   58.2250   28.2380   46.6200 C   0  0  0  0  0  0  0  0  0  0  0  0
   59.3320   28.2500   47.3020 N   0  0  0  0  0  0  0  0  0  0  0  0
   60.0620   29.4210   47.7000 C   0  0  0  0  0  0  0  0  0  0  0  0
   60.6810   30.2000   46.7130 C   0  0  0  0  0  0  0  0  0  0  0  0
   60.6158   29.8978   45.6573 H   0  0  0  0  0  0  0  0  0  0  0  0
   61.3810   31.3590   47.0620 C   0  0  0  0  0  0  0  0  0  0  0  0
   61.8793   31.9554   46.2836 H   0  0  0  0  0  0  0  0  0  0  0  0
   61.4480   31.7600   48.3980 C   0  0  0  0  0  0  0  0  0  0  0  0
   62.0067   32.6669   48.6725 H   0  0  0  0  0  0  0  0  0  0  0  0
   60.8050   31.0090   49.3870 C   0  0  0  0  0  0  0  0  0  0  0  0
   60.8510   31.3314   50.4377 H   0  0  0  0  0  0  0  0  0  0  0  0
   60.1030   29.8480   49.0430 C   0  0  0  0  0  0  0  0  0  0  0  0
   59.4280   29.1770   50.0090 F   0  0  0  0  0  0  0  0  0  0  0  0
   57.4480   27.1260   46.6350 N   0  0  0  0  0  0  0  0  0  0  0  0
   56.7930   24.6940   44.3750 C   0  0  0  0  0  0  0  0  0  0  0  0
   57.3701   25.5941   44.1168 H   0  0  0  0  0  0  0  0  0  0  0  0
   57.0910   23.4760   43.7550 C   0  0  0  0  0  0  0  0  0  0  0  0
   57.8891   23.4248   42.9997 H   0  0  0  0  0  0  0  0  0  0  0  0
  1  2  1  0
  2  3  2  0
  3  4  1  0
  3  5  1  0
  5  6  1  0
  5  7  2  0
  7  8  1  0
  8  9  2  0
  9 10  1  0
 10 11  1  0
 11 12  2  3
 12 13  1  0
 13 14  1  0
 13 15  1  0
 13 16  1  0
 16 17  1  0
 16 18  1  0
 16 19  1  0
 19 20  1  0
 19 21  1  0
 21 22  1  0
 21 23  1  0
 21 24  1  0
 11 25  1  0
 25 26  1  0
 26 27  2  0
 27 28  1  0
 28 29  2  0
 29 30  1  0
 29 31  1  0
 31 32  1  0
 31 33  2  0
 33 34  1  0
 33 35  1  0
 35 36  1  0
 35 37  2  0
 37 38  1  0
 26 39  1  0
  7 40  1  0
 40 41  1  0
 40 42  2  0
 42 43  1  0
 42  2  1  0
 39  9  1  0
 37 28  1  0
M  CHG  3  10  -1  25  -1  39  -1
M  END
>  <UniqueID>  (75) 
71

>  <SMILES>  (75) 
CNCCN=c1[n-]/c(=N/c2ccccc2)[n-]/c(=N/c2ccccc2F)[n-]1

>  <Energy>  (75) 
57.358452084427135

>  <Genealogy>  (75) 
CNCCN=c1[n-]c(=Nc2ccccc2)[n-]c(=Nc2ccccc2F)[n-]1 (protonated)
CNCCN=c1[n-]/c(=N/c2ccccc2)[n-]/c(=N/c2ccccc2F)[n-]1 (cis-trans isomerization)
CNCCN=c1[n-]/c(=N/c2ccccc2)[n-]/c(=N/c2ccccc2F)[n-]1 (3D coordinates assigned)
CNCCN=c1[n-]/c(=N/c2ccccc2)[n-]/c(=N/c2ccccc2F)[n-]1 (optimized conformer: 57.358452084427135 kcal/mol)

>  <smiles>  (75) 
CNCCN=c1[nH]c(=Nc2ccccc2)[nH]c(=Nc2ccccc2F)[nH]1

>  <score_type>  (75) 
oracle

>  <origin>  (75) 
adg

>  <m_score__min__energy>  (75) 
-11.710000000000001

>  <m_primary>  (75) 
energy

$$$$
75:0
     RDKit          3D

 63 66  0  0  0  0  0  0  0  0999 V2000
   59.1050   33.4510   53.1190 C   0  0  0  0  0  0  0  0  0  0  0  0
   59.9630   33.0850   52.0420 O   0  0  0  0  0  0  0  0  0  0  0  0
   59.5940   33.1040   50.6870 C   0  0  0  0  0  0  0  0  0  0  0  0
   59.8770   34.2060   49.8600 C   0  0  0  0  0  0  0  0  0  0  0  0
   59.4850   34.2060   48.5230 C   0  0  0  0  0  0  0  0  0  0  0  0
   58.7890   33.1150   47.9890 C   0  0  0  0  0  0  0  0  0  0  0  0
   58.3230   33.1420   46.5890 C   0  0  0  0  0  0  0  0  0  0  0  0
   57.7150   34.2190   46.0500 N   0  0  0  0  0  0  0  0  0  0  0  0
   57.4840   33.8660   44.7690 C   0  0  0  0  0  0  0  0  0  0  0  0
   57.9470   32.5870   44.5510 C   0  0  0  0  0  0  0  0  0  0  0  0
   58.4640   32.1290   45.7030 N   0  0  0  0  0  0  0  0  0  0  0  0
   59.0620   30.8120   45.9070 C   0  0  0  0  0  0  0  0  0  0  0  0
   58.4910   32.0170   48.8110 C   0  0  0  0  0  0  0  0  0  0  0  0
   58.9120   31.9940   50.1490 C   0  0  0  0  0  0  0  0  0  0  0  0
   58.6630   30.5500   51.1390 S   0  0  0  0  0  0  0  0  0  0  0  0
   58.3260   29.3670   50.2820 O   0  0  0  0  0  0  0  0  0  0  0  0
   59.9760   30.2370   51.7990 O   0  0  0  0  0  0  0  0  0  0  0  0
   57.4910   30.7990   52.4110 N   0  0  0  0  0  0  0  0  0  0  0  0
   56.5680   29.7140   52.8120 C   0  0  2  0  0  0  0  0  0  0  0  0
   55.3080   30.0810   53.6550 C   0  0  0  0  0  0  0  0  0  0  0  0
   54.0510   30.5700   52.9470 C   0  0  0  0  0  0  0  0  0  0  0  0
   54.0650   31.0070   51.6070 C   0  0  0  0  0  0  0  0  0  0  0  0
   52.9270   31.5770   51.0290 C   0  0  0  0  0  0  0  0  0  0  0  0
   51.7710   31.7650   51.7900 C   0  0  0  0  0  0  0  0  0  0  0  0
   50.6470   32.3450   51.2170 O   0  0  0  0  0  0  0  0  0  0  0  0
   51.7560   31.3890   53.1320 C   0  0  0  0  0  0  0  0  0  0  0  0
   52.8930   30.8210   53.7130 C   0  0  0  0  0  0  0  0  0  0  0  0
   57.2810   28.4520   53.2290 C   0  0  0  0  0  0  0  0  0  0  0  0
   56.6150   27.5490   53.8040 O   0  0  0  0  0  0  0  0  0  0  0  0
   58.6830   28.2640   53.0030 N   0  0  0  0  0  0  0  0  0  0  0  0
   59.4570   27.2480   53.7210 C   0  0  0  0  0  0  0  0  0  0  0  0
   60.6480   27.8620   54.4340 C   0  0  0  0  0  0  0  0  0  0  0  0
   61.6520   26.7300   54.5590 C   0  0  0  0  0  0  0  0  0  0  0  0
   61.3790   25.7860   53.3900 C   0  0  0  0  0  0  0  0  0  0  0  0
   60.0540   26.2220   52.7650 C   0  0  0  0  0  0  0  0  0  0  0  0
   59.6053   33.2376   54.0751 H   0  0  0  0  0  0  0  0  0  0  0  0
   58.8761   34.5251   53.0567 H   0  0  0  0  0  0  0  0  0  0  0  0
   58.1713   32.8729   53.0567 H   0  0  0  0  0  0  0  0  0  0  0  0
   60.4119   35.0744   50.2720 H   0  0  0  0  0  0  0  0  0  0  0  0
   59.7238   35.0684   47.8832 H   0  0  0  0  0  0  0  0  0  0  0  0
   56.9998   34.5023   44.0136 H   0  0  0  0  0  0  0  0  0  0  0  0
   57.9013   32.0368   43.5996 H   0  0  0  0  0  0  0  0  0  0  0  0
   59.1522   30.6133   46.9851 H   0  0  0  0  0  0  0  0  0  0  0  0
   58.4243   30.0441   45.4447 H   0  0  0  0  0  0  0  0  0  0  0  0
   60.0598   30.7868   45.4447 H   0  0  0  0  0  0  0  0  0  0  0  0
   57.9230   31.1680   48.4029 H   0  0  0  0  0  0  0  0  0  0  0  0
   56.0652   29.4845   51.8609 H   0  0  0  0  0  0  0  0  0  0  0  0
   55.0273   29.1802   54.2205 H   0  0  0  0  0  0  0  0  0  0  0  0
   55.6326   30.9542   54.2399 H   0  0  0  0  0  0  0  0  0  0  0  0
   54.9820   30.8982   51.0092 H   0  0  0  0  0  0  0  0  0  0  0  0
   52.9420   31.8785   49.9712 H   0  0  0  0  0  0  0  0  0  0  0  0
   50.8481   31.5395   53.7346 H   0  0  0  0  0  0  0  0  0  0  0  0
   52.8850   30.5659   54.7830 H   0  0  0  0  0  0  0  0  0  0  0  0
   59.1340   28.7580   52.2070 H   0  0  0  0  0  0  0  0  0  0  0  0
   58.7510   26.7853   54.4263 H   0  0  0  0  0  0  0  0  0  0  0  0
   61.0686   28.6894   53.8436 H   0  0  0  0  0  0  0  0  0  0  0  0
   60.3738   28.2833   55.4124 H   0  0  0  0  0  0  0  0  0  0  0  0
   62.6780   27.1223   54.5005 H   0  0  0  0  0  0  0  0  0  0  0  0
   61.5527   26.2115   55.5240 H   0  0  0  0  0  0  0  0  0  0  0  0
   62.1885   25.8584   52.6487 H   0  0  0  0  0  0  0  0  0  0  0  0
   61.3275   24.7417   53.7319 H   0  0  0  0  0  0  0  0  0  0  0  0
   60.2277   26.6750   51.7777 H   0  0  0  0  0  0  0  0  0  0  0  0
   59.3775   25.3674   52.6169 H   0  0  0  0  0  0  0  0  0  0  0  0
  1  2  1  0
  2  3  1  0
  3  4  2  0
  4  5  1  0
  5  6  2  0
  6  7  1  0
  7  8  2  0
  8  9  1  0
  9 10  2  0
 10 11  1  0
 11 12  1  0
  6 13  1  0
 13 14  2  0
 14 15  1  0
 15 16  2  0
 15 17  2  0
 15 18  1  0
 18 19  1  0
 19 20  1  0
 20 21  1  0
 21 22  2  0
 22 23  1  0
 23 24  2  0
 24 25  1  0
 24 26  1  0
 26 27  2  0
 19 28  1  0
 28 29  2  0
 28 30  1  0
 30 31  1  0
 31 32  1  0
 32 33  1  0
 33 34  1  0
 34 35  1  0
 14  3  1  0
 27 21  1  0
 35 31  1  0
 11  7  1  0
  1 36  1  0
  1 37  1  0
  1 38  1  0
  4 39  1  0
  5 40  1  0
  9 41  1  0
 10 42  1  0
 12 43  1  0
 12 44  1  0
 12 45  1  0
 13 46  1  0
 19 47  1  6
 20 48  1  0
 20 49  1  0
 22 50  1  0
 23 51  1  0
 26 52  1  0
 27 53  1  0
 30 54  1  0
 31 55  1  0
 32 56  1  0
 32 57  1  0
 33 58  1  0
 33 59  1  0
 34 60  1  0
 34 61  1  0
 35 62  1  0
 35 63  1  0
M  CHG  2  18  -1  25  -1
M  END
>  <UniqueID>  (76) 
72

>  <SMILES>  (76) 
COc1ccc(-c2nccn2C)cc1S(=O)(=O)[N-][C@H](Cc1ccc([O-])cc1)C(=O)NC1CCCC1

>  <Energy>  (76) 
114.02797339897991

>  <Genealogy>  (76) 
COc1ccc(-c2nccn2C)cc1S(=O)(=O)[N-]C(Cc1ccc([O-])cc1)C(=O)NC1CCCC1 (protonated)
COc1ccc(-c2nccn2C)cc1S(=O)(=O)[N-][C@H](Cc1ccc([O-])cc1)C(=O)NC1CCCC1 (chirality)
COc1ccc(-c2nccn2C)cc1S(=O)(=O)[N-][C@H](Cc1ccc([O-])cc1)C(=O)NC1CCCC1 (3D coordinates assigned)
COc1ccc(-c2nccn2C)cc1S(=O)(=O)[N-][C@H](Cc1ccc([O-])cc1)C(=O)NC1CCCC1 (nonaromatic ring conformer: 114.02797339897991 kcal/mol)

>  <smiles>  (76) 
COc1ccc(-c2nccn2C)cc1S(=O)(=O)NC(Cc1ccc(O)cc1)C(=O)NC1CCCC1

>  <score_type>  (76) 
oracle

>  <origin>  (76) 
adg

>  <m_score__min__energy>  (76) 
-12.67

>  <m_primary>  (76) 
energy

$$$$
76:0
     RDKit          3D

 59 62  0  0  0  0  0  0  0  0999 V2000
   62.7480   30.8130   51.9120 C   0  0  0  0  0  0  0  0  0  0  0  0
   61.8340   30.4490   50.7380 C   0  0  2  0  0  0  0  0  0  0  0  0
   61.8050   28.9960   50.5360 N   0  0  0  0  0  0  0  0  0  0  0  0
   60.6660   28.3330   49.9640 C   0  0  0  0  0  0  0  0  0  0  0  0
   59.6370   28.9940   49.6590 O   0  0  0  0  0  0  0  0  0  0  0  0
   60.6840   26.8800   49.7290 C   0  0  0  0  0  0  0  0  0  0  0  0
   61.3110   26.1240   50.5180 O   0  0  0  0  0  0  0  0  0  0  0  0
   60.0310   26.3440   48.5710 N   0  0  0  0  0  0  0  0  0  0  0  0
   59.5570   27.0850   47.4360 C   0  0  0  0  0  0  0  0  0  0  0  0
   60.4280   27.7990   46.5980 C   0  0  0  0  0  0  0  0  0  0  0  0
   59.9280   28.4990   45.5000 C   0  0  0  0  0  0  0  0  0  0  0  0
   58.5600   28.4940   45.2150 C   0  0  0  0  0  0  0  0  0  0  0  0
   58.1040   29.2680   44.1410 O   0  0  0  0  0  0  0  0  0  0  0  0
   57.9620   30.6640   44.1700 C   0  0  0  0  0  0  0  0  0  0  0  0
   57.9890   31.3640   42.9580 C   0  0  0  0  0  0  0  0  0  0  0  0
   57.8450   32.7540   42.9400 C   0  0  0  0  0  0  0  0  0  0  0  0
   57.6900   33.4580   44.1360 C   0  0  0  0  0  0  0  0  0  0  0  0
   57.6930   32.7740   45.3640 C   0  0  0  0  0  0  0  0  0  0  0  0
   57.5290   33.4430   46.5860 O   0  0  0  0  0  0  0  0  0  0  0  0
   58.4850   33.5100   47.6110 C   0  0  0  0  0  0  0  0  0  0  0  0
   58.4110   32.6900   48.7520 C   0  0  0  0  0  0  0  0  0  0  0  0
   59.3710   32.8020   49.7620 C   0  0  0  0  0  0  0  0  0  0  0  0
   60.4030   33.7390   49.6470 C   0  0  0  0  0  0  0  0  0  0  0  0
   60.4710   34.5680   48.5240 C   0  0  0  0  0  0  0  0  0  0  0  0
   59.5110   34.4580   47.5130 C   0  0  0  0  0  0  0  0  0  0  0  0
   57.8170   31.3800   45.3740 C   0  0  0  0  0  0  0  0  0  0  0  0
   57.6810   27.7150   46.0060 C   0  0  0  0  0  0  0  0  0  0  0  0
   56.2870   27.5850   45.6760 N   0  0  0  0  0  0  0  0  0  0  0  0
   55.6470   26.5660   46.0080 O   0  0  0  0  0  0  0  0  0  0  0  0
   55.6040   28.6440   45.1230 O   0  0  0  0  0  0  0  0  0  0  0  0
   58.1950   27.0290   47.1200 C   0  0  0  0  0  0  0  0  0  0  0  0
   62.2980   31.1490   49.4780 C   0  0  0  0  0  0  0  0  0  0  0  0
   63.3720   32.0590   49.5160 C   0  0  0  0  0  0  0  0  0  0  0  0
   63.7830   32.7130   48.3510 C   0  0  0  0  0  0  0  0  0  0  0  0
   63.1230   32.4750   47.1430 C   0  0  0  0  0  0  0  0  0  0  0  0
   62.0490   31.5830   47.0970 C   0  0  0  0  0  0  0  0  0  0  0  0
   61.6350   30.9250   48.2590 C   0  0  0  0  0  0  0  0  0  0  0  0
   62.2283   30.6060   52.8591 H   0  0  0  0  0  0  0  0  0  0  0  0
   63.6683   30.2128   51.8600 H   0  0  0  0  0  0  0  0  0  0  0  0
   63.0037   31.8816   51.8600 H   0  0  0  0  0  0  0  0  0  0  0  0
   60.8131   30.7846   50.9730 H   0  0  0  0  0  0  0  0  0  0  0  0
   62.6360   28.4270   50.8090 H   0  0  0  0  0  0  0  0  0  0  0  0
   61.5078   27.8065   46.8078 H   0  0  0  0  0  0  0  0  0  0  0  0
   60.6173   29.0604   44.8521 H   0  0  0  0  0  0  0  0  0  0  0  0
   58.1244   30.8164   42.0136 H   0  0  0  0  0  0  0  0  0  0  0  0
   57.8538   33.2945   41.9820 H   0  0  0  0  0  0  0  0  0  0  0  0
   57.5652   34.5507   44.1171 H   0  0  0  0  0  0  0  0  0  0  0  0
   57.5952   31.9586   48.8496 H   0  0  0  0  0  0  0  0  0  0  0  0
   59.3147   32.1526   50.6480 H   0  0  0  0  0  0  0  0  0  0  0  0
   61.1606   33.8233   50.4400 H   0  0  0  0  0  0  0  0  0  0  0  0
   61.2803   35.3077   48.4352 H   0  0  0  0  0  0  0  0  0  0  0  0
   59.5621   35.1199   46.6359 H   0  0  0  0  0  0  0  0  0  0  0  0
   57.8011   30.8385   46.3313 H   0  0  0  0  0  0  0  0  0  0  0  0
   57.5160   26.4390   47.7532 H   0  0  0  0  0  0  0  0  0  0  0  0
   63.8896   32.2560   50.4664 H   0  0  0  0  0  0  0  0  0  0  0  0
   64.6279   33.4165   48.3855 H   0  0  0  0  0  0  0  0  0  0  0  0
   63.4492   32.9903   46.2275 H   0  0  0  0  0  0  0  0  0  0  0  0
   61.5285   31.3981   46.1457 H   0  0  0  0  0  0  0  0  0  0  0  0
   60.7852   30.2277   48.2190 H   0  0  0  0  0  0  0  0  0  0  0  0
  1  2  1  0
  2  3  1  0
  3  4  1  0
  4  5  2  0
  4  6  1  0
  6  7  2  0
  6  8  1  0
  8  9  1  0
  9 10  2  0
 10 11  1  0
 11 12  2  0
 12 13  1  0
 13 14  1  0
 14 15  2  0
 15 16  1  0
 16 17  2  0
 17 18  1  0
 18 19  1  0
 19 20  1  0
 20 21  2  0
 21 22  1  0
 22 23  2  0
 23 24  1  0
 24 25  2  0
 18 26  2  0
 12 27  1  0
 27 28  1  0
 28 29  2  0
 28 30  1  0
 27 31  2  0
  2 32  1  0
 32 33  2  0
 33 34  1  0
 34 35  2  0
 35 36  1  0
 36 37  2  0
 31  9  1  0
 37 32  1  0
 26 14  1  0
 25 20  1  0
  1 38  1  0
  1 39  1  0
  1 40  1  0
  2 41  1  1
  3 42  1  0
 10 43  1  0
 11 44  1  0
 15 45  1  0
 16 46  1  0
 17 47  1  0
 21 48  1  0
 22 49  1  0
 23 50  1  0
 24 51  1  0
 25 52  1  0
 26 53  1  0
 31 54  1  0
 33 55  1  0
 34 56  1  0
 35 57  1  0
 36 58  1  0
 37 59  1  0
M  CHG  3   8  -1  28   1  30  -1
M  END
>  <UniqueID>  (77) 
73

>  <SMILES>  (77) 
C[C@H](NC(=O)C(=O)[N-]c1ccc(Oc2cccc(Oc3ccccc3)c2)c([N+](=O)[O-])c1)c1ccccc1

>  <Energy>  (77) 
80.55094042563167

>  <Genealogy>  (77) 
CC(NC(=O)C(=O)[N-]c1ccc(Oc2cccc(Oc3ccccc3)c2)c([N+](=O)[O-])c1)c1ccccc1 (protonated)
C[C@H](NC(=O)C(=O)[N-]c1ccc(Oc2cccc(Oc3ccccc3)c2)c([N+](=O)[O-])c1)c1ccccc1 (chirality)
C[C@H](NC(=O)C(=O)[N-]c1ccc(Oc2cccc(Oc3ccccc3)c2)c([N+](=O)[O-])c1)c1ccccc1 (3D coordinates assigned)
C[C@H](NC(=O)C(=O)[N-]c1ccc(Oc2cccc(Oc3ccccc3)c2)c([N+](=O)[O-])c1)c1ccccc1 (optimized conformer: 80.55094042563167 kcal/mol)

>  <smiles>  (77) 
CC(NC(=O)C(=O)Nc1ccc(Oc2cccc(Oc3ccccc3)c2)c([N+](=O)[O-])c1)c1ccccc1

>  <score_type>  (77) 
oracle

>  <origin>  (77) 
adg

>  <m_score__min__energy>  (77) 
-10.77

>  <m_primary>  (77) 
energy

$$$$
77:0
     RDKit          3D

 30 31  0  0  0  0  0  0  0  0999 V2000
   55.1450   29.7320   43.8920 C   0  0  0  0  0  0  0  0  0  0  0  0
   56.1330   28.9480   44.6220 N   0  0  0  0  0  0  0  0  0  0  0  0
   57.2770   29.5600   45.2360 C   0  0  0  0  0  0  0  0  0  0  0  0
   57.3890   30.8150   45.2200 O   0  0  0  0  0  0  0  0  0  0  0  0
   58.3250   28.7240   45.8750 C   0  0  0  0  0  0  0  0  0  0  0  0
   59.6730   29.1080   45.7430 C   0  0  0  0  0  0  0  0  0  0  0  0
   60.6970   28.3110   46.2580 C   0  0  0  0  0  0  0  0  0  0  0  0
   60.3940   27.1120   46.9020 C   0  0  0  0  0  0  0  0  0  0  0  0
   59.0630   26.7180   47.0500 C   0  0  0  0  0  0  0  0  0  0  0  0
   58.0210   27.5280   46.5770 C   0  0  0  0  0  0  0  0  0  0  0  0
   56.6780   27.0610   46.7410 N   0  0  0  0  0  0  0  0  0  0  0  0
   55.9970   26.1380   45.8810 C   0  0  0  0  0  0  0  0  0  0  0  0
   54.7650   26.3070   45.6770 O   0  0  0  0  0  0  0  0  0  0  0  0
   56.6690   24.9810   45.2500 C   0  0  0  0  0  0  0  0  0  0  0  0
   57.2700   23.9480   45.9450 C   0  0  0  0  0  0  0  0  0  0  0  0
   57.7480   23.0670   44.9980 C   0  0  0  0  0  0  0  0  0  0  0  0
   57.4070   23.5890   43.7680 C   0  0  0  0  0  0  0  0  0  0  0  0
   56.7480   24.7500   43.9240 N   0  0  0  0  0  0  0  0  0  0  0  0
   54.4895   30.2522   44.6059 H   0  0  0  0  0  0  0  0  0  0  0  0
   55.6582   30.4713   43.2595 H   0  0  0  0  0  0  0  0  0  0  0  0
   54.5416   29.0642   43.2595 H   0  0  0  0  0  0  0  0  0  0  0  0
   55.9740   27.9210   44.7230 H   0  0  0  0  0  0  0  0  0  0  0  0
   59.9224   30.0474   45.2279 H   0  0  0  0  0  0  0  0  0  0  0  0
   61.7449   28.6295   46.1555 H   0  0  0  0  0  0  0  0  0  0  0  0
   61.2029   26.4773   47.2930 H   0  0  0  0  0  0  0  0  0  0  0  0
   58.8294   25.7626   47.5426 H   0  0  0  0  0  0  0  0  0  0  0  0
   57.3509   23.8485   47.0375 H   0  0  0  0  0  0  0  0  0  0  0  0
   58.2943   22.1311   45.1867 H   0  0  0  0  0  0  0  0  0  0  0  0
   57.6405   23.1227   42.7995 H   0  0  0  0  0  0  0  0  0  0  0  0
   56.3390   25.3180   43.1510 H   0  0  0  0  0  0  0  0  0  0  0  0
  1  2  1  0
  2  3  1  0
  3  4  2  0
  3  5  1  0
  5  6  2  0
  6  7  1  0
  7  8  2  0
  8  9  1  0
  9 10  2  0
 10 11  1  0
 11 12  1  0
 12 13  2  0
 12 14  1  0
 14 15  2  0
 15 16  1  0
 16 17  2  0
 17 18  1  0
 10  5  1  0
 18 14  1  0
  1 19  1  0
  1 20  1  0
  1 21  1  0
  2 22  1  0
  6 23  1  0
  7 24  1  0
  8 25  1  0
  9 26  1  0
 15 27  1  0
 16 28  1  0
 17 29  1  0
 18 30  1  0
M  CHG  1  11  -1
M  END
>  <UniqueID>  (78) 
74

>  <SMILES>  (78) 
CNC(=O)c1ccccc1[N-]C(=O)c1ccc[nH]1

>  <Energy>  (78) 
67.62600110023813

>  <Genealogy>  (78) 
CNC(=O)c1ccccc1[N-]C(=O)c1ccc[nH]1 (protonated)
CNC(=O)c1ccccc1[N-]C(=O)c1ccc[nH]1 (3D coordinates assigned)
CNC(=O)c1ccccc1[N-]C(=O)c1ccc[nH]1 (optimized conformer: 67.62600110023813 kcal/mol)

>  <smiles>  (78) 
CNC(=O)c1ccccc1NC(=O)c1ccc[nH]1

>  <score_type>  (78) 
oracle

>  <origin>  (78) 
adg

>  <m_score__min__energy>  (78) 
-9.0399999999999991

>  <m_primary>  (78) 
energy

$$$$
78:0
     RDKit          3D

 43 45  0  0  0  0  0  0  0  0999 V2000
   56.1880   30.7720   44.4920 O   0  0  0  0  0  0  0  0  0  0  0  0
   57.3300   30.5810   44.9880 C   0  0  0  0  0  0  0  0  0  0  0  0
   58.1950   29.5400   44.4040 C   0  0  0  0  0  0  0  0  0  0  0  0
   58.7670   28.5830   45.1490 C   0  0  0  0  0  0  0  0  0  0  0  0
   58.0090   27.5010   45.8240 C   0  0  0  0  0  0  0  0  0  0  0  0
   58.6330   26.5320   46.6360 C   0  0  0  0  0  0  0  0  0  0  0  0
   57.8770   25.5190   47.2340 C   0  0  0  0  0  0  0  0  0  0  0  0
   56.4970   25.4470   47.0250 C   0  0  0  0  0  0  0  0  0  0  0  0
   55.7690   24.4250   47.6330 O   0  0  0  0  0  0  0  0  0  0  0  0
   55.8690   26.3990   46.2070 C   0  0  0  0  0  0  0  0  0  0  0  0
   54.4990   26.3420   45.9820 O   0  0  0  0  0  0  0  0  0  0  0  0
   56.6240   27.4150   45.6090 C   0  0  0  0  0  0  0  0  0  0  0  0
   57.7590   31.3260   46.1370 N   0  0  0  0  0  0  0  0  0  0  0  0
   58.3840   32.6170   46.1380 C   0  0  0  0  0  0  0  0  0  0  0  0
   58.3250   33.4770   45.0270 C   0  0  0  0  0  0  0  0  0  0  0  0
   58.9610   34.7210   45.0660 C   0  0  0  0  0  0  0  0  0  0  0  0
   59.6780   35.1080   46.2010 C   0  0  0  0  0  0  0  0  0  0  0  0
   59.7820   34.2380   47.3010 C   0  0  0  0  0  0  0  0  0  0  0  0
   60.4880   34.5890   48.4610 O   0  0  0  0  0  0  0  0  0  0  0  0
   61.7300   34.0660   48.8480 C   0  0  0  0  0  0  0  0  0  0  0  0
   62.2380   34.2360   50.1470 C   0  0  0  0  0  0  0  0  0  0  0  0
   63.4880   33.7110   50.4910 C   0  0  0  0  0  0  0  0  0  0  0  0
   64.2590   33.0210   49.5380 C   0  0  0  0  0  0  0  0  0  0  0  0
   65.5460   32.4800   49.8880 N   0  0  0  0  0  0  0  0  0  0  0  0
   66.5890   33.1340   49.6820 O   0  0  0  0  0  0  0  0  0  0  0  0
   65.6490   31.2300   50.4530 O   0  0  0  0  0  0  0  0  0  0  0  0
   63.7550   32.8740   48.2340 C   0  0  0  0  0  0  0  0  0  0  0  0
   62.5040   33.3970   47.8940 C   0  0  0  0  0  0  0  0  0  0  0  0
   59.1260   33.0020   47.2620 C   0  0  0  0  0  0  0  0  0  0  0  0
   58.3776   29.5485   43.3193 H   0  0  0  0  0  0  0  0  0  0  0  0
   59.8606   28.6012   45.2663 H   0  0  0  0  0  0  0  0  0  0  0  0
   59.7199   26.5730   46.7999 H   0  0  0  0  0  0  0  0  0  0  0  0
   58.3720   24.7734   47.8735 H   0  0  0  0  0  0  0  0  0  0  0  0
   54.7600   24.4500   47.7010 H   0  0  0  0  0  0  0  0  0  0  0  0
   56.1268   28.1541   44.9636 H   0  0  0  0  0  0  0  0  0  0  0  0
   57.7766   33.1697   44.1243 H   0  0  0  0  0  0  0  0  0  0  0  0
   58.8969   35.3972   44.2008 H   0  0  0  0  0  0  0  0  0  0  0  0
   60.1621   36.0952   46.2343 H   0  0  0  0  0  0  0  0  0  0  0  0
   61.6497   34.7847   50.8972 H   0  0  0  0  0  0  0  0  0  0  0  0
   63.8709   33.8386   51.5143 H   0  0  0  0  0  0  0  0  0  0  0  0
   64.3494   32.3435   47.4755 H   0  0  0  0  0  0  0  0  0  0  0  0
   62.1251   33.2815   46.8678 H   0  0  0  0  0  0  0  0  0  0  0  0
   59.1941   32.3240   48.1255 H   0  0  0  0  0  0  0  0  0  0  0  0
  1  2  2  0
  2  3  1  0
  3  4  2  3
  4  5  1  0
  5  6  2  0
  6  7  1  0
  7  8  2  0
  8  9  1  0
  8 10  1  0
 10 11  1  0
 10 12  2  0
  2 13  1  0
 13 14  1  0
 14 15  2  0
 15 16  1  0
 16 17  2  0
 17 18  1  0
 18 19  1  0
 19 20  1  0
 20 21  2  0
 21 22  1  0
 22 23  2  0
 23 24  1  0
 24 25  2  0
 24 26  1  0
 23 27  1  0
 27 28  2  0
 18 29  2  0
 12  5  1  0
 29 14  1  0
 28 20  1  0
  3 30  1  0
  4 31  1  0
  6 32  1  0
  7 33  1  0
  9 34  1  0
 12 35  1  0
 15 36  1  0
 16 37  1  0
 17 38  1  0
 21 39  1  0
 22 40  1  0
 27 41  1  0
 28 42  1  0
 29 43  1  0
M  CHG  4  11  -1  13  -1  24   1  26  -1
M  END
>  <UniqueID>  (79) 
75

>  <SMILES>  (79) 
O=C(C=Cc1ccc(O)c([O-])c1)[N-]c1cccc(Oc2ccc([N+](=O)[O-])cc2)c1

>  <Energy>  (79) 
58.77906623883483

>  <Genealogy>  (79) 
O=C(C=Cc1ccc(O)c([O-])c1)[N-]c1cccc(Oc2ccc([N+](=O)[O-])cc2)c1 (protonated)
O=C(C=Cc1ccc(O)c([O-])c1)[N-]c1cccc(Oc2ccc([N+](=O)[O-])cc2)c1 (3D coordinates assigned)
O=C(C=Cc1ccc(O)c([O-])c1)[N-]c1cccc(Oc2ccc([N+](=O)[O-])cc2)c1 (optimized conformer: 58.77906623883483 kcal/mol)

>  <smiles>  (79) 
O=C(C=Cc1ccc(O)c(O)c1)Nc1cccc(Oc2ccc([N+](=O)[O-])cc2)c1

>  <score_type>  (79) 
oracle

>  <origin>  (79) 
adg

>  <m_score__min__energy>  (79) 
-14.44

>  <m_primary>  (79) 
energy

$$$$
79:0
     RDKit          3D

 42 44  0  0  0  0  0  0  0  0999 V2000
   60.2850   24.8500   46.1490 H   0  0  0  0  0  0  0  0  0  0  0  0
   59.2820   24.7840   46.0380 O   0  0  0  0  0  0  0  0  0  0  0  0
   58.4290   25.8930   45.9780 C   0  0  0  0  0  0  0  0  0  0  0  0
   58.9250   27.2140   45.8170 C   0  0  0  0  0  0  0  0  0  0  0  0
   58.0160   28.2800   45.6680 C   0  0  0  0  0  0  0  0  0  0  0  0
   56.6420   28.0440   45.7110 C   0  0  0  0  0  0  0  0  0  0  0  0
   55.9409   28.8805   45.5740 H   0  0  0  0  0  0  0  0  0  0  0  0
   56.1490   26.7580   45.9260 C   0  0  0  0  0  0  0  0  0  0  0  0
   54.7720   26.5690   46.0130 O   0  0  0  0  0  0  0  0  0  0  0  0
   57.0340   25.6710   46.0500 C   0  0  0  0  0  0  0  0  0  0  0  0
   56.4950   24.2820   46.3220 C   0  0  0  0  0  0  0  0  0  0  0  0
   55.6277   24.3550   46.9946 H   0  0  0  0  0  0  0  0  0  0  0  0
   57.2860   23.6774   46.7898 H   0  0  0  0  0  0  0  0  0  0  0  0
   56.0720   23.6230   45.0370 C   0  0  0  0  0  0  0  0  0  0  0  0
   55.0481   23.7914   44.6720 H   0  0  0  0  0  0  0  0  0  0  0  0
   56.8930   22.8350   44.3130 C   0  0  0  0  0  0  0  0  0  0  0  0
   56.5090   22.5030   42.9250 C   0  0  0  0  0  0  0  0  0  0  0  0
   56.7197   23.2236   42.1210 H   0  0  0  0  0  0  0  0  0  0  0  0
   55.9470   21.4150   42.6440 O   0  0  0  0  0  0  0  0  0  0  0  0
   58.2280   22.3650   44.8530 C   0  0  0  0  0  0  0  0  0  0  0  0
   58.2024   22.3740   45.9527 H   0  0  0  0  0  0  0  0  0  0  0  0
   58.4272   21.3427   44.4992 H   0  0  0  0  0  0  0  0  0  0  0  0
   59.0238   23.0370   44.4992 H   0  0  0  0  0  0  0  0  0  0  0  0
   58.4690   29.5970   45.4870 O   0  0  0  0  0  0  0  0  0  0  0  0
   59.8400   30.0000   45.6040 C   0  0  1  0  0  0  0  0  0  0  0  0
   60.0204   30.8103   44.8823 H   0  0  0  0  0  0  0  0  0  0  0  0
   60.1170   30.5460   46.9940 C   0  0  0  0  0  0  0  0  0  0  0  0
   61.0600   31.5740   47.2030 C   0  0  0  0  0  0  0  0  0  0  0  0
   61.5949   32.0077   46.3452 H   0  0  0  0  0  0  0  0  0  0  0  0
   61.3190   32.0450   48.4930 C   0  0  0  0  0  0  0  0  0  0  0  0
   62.0597   32.8434   48.6475 H   0  0  0  0  0  0  0  0  0  0  0  0
   60.6380   31.5030   49.5880 C   0  0  0  0  0  0  0  0  0  0  0  0
   60.8554   31.8636   50.6042 H   0  0  0  0  0  0  0  0  0  0  0  0
   59.6810   30.5030   49.3910 C   0  0  0  0  0  0  0  0  0  0  0  0
   59.1325   30.0918   50.2513 H   0  0  0  0  0  0  0  0  0  0  0  0
   59.4190   30.0240   48.1040 C   0  0  0  0  0  0  0  0  0  0  0  0
   58.6653   29.2366   47.9558 H   0  0  0  0  0  0  0  0  0  0  0  0
   60.8050   28.8600   45.2280 C   0  0  0  0  0  0  0  0  0  0  0  0
   61.8138   29.1073   45.5901 H   0  0  0  0  0  0  0  0  0  0  0  0
   60.8081   28.7470   44.1338 H   0  0  0  0  0  0  0  0  0  0  0  0
   60.3650   27.5650   45.8440 C   0  0  0  0  0  0  0  0  0  0  0  0
   61.2130   26.8380   46.4280 O   0  0  0  0  0  0  0  0  0  0  0  0
  1  2  1  0
  2  3  1  0
  3  4  2  0
  4  5  1  0
  5  6  2  0
  6  7  1  0
  6  8  1  0
  8  9  1  0
  8 10  2  0
 10 11  1  0
 11 12  1  0
 11 13  1  0
 11 14  1  0
 14 15  1  0
 14 16  2  0
 16 17  1  0
 17 18  1  0
 17 19  2  0
 16 20  1  0
 20 21  1  0
 20 22  1  0
 20 23  1  0
  5 24  1  0
 24 25  1  0
 25 26  1  6
 25 27  1  0
 27 28  2  0
 28 29  1  0
 28 30  1  0
 30 31  1  0
 30 32  2  0
 32 33  1  0
 32 34  1  0
 34 35  1  0
 34 36  2  0
 36 37  1  0
 25 38  1  0
 38 39  1  0
 38 40  1  0
 38 41  1  0
 41 42  2  0
 10  3  1  0
 36 27  1  0
 41  4  1  0
M  CHG  1   9  -1
M  END
>  <UniqueID>  (80) 
76

>  <SMILES>  (80) 
C/C(C=O)=C\Cc1c([O-])cc2c(c1O)C(=O)C[C@H](c1ccccc1)O2

>  <Energy>  (80) 
51.883239645380165

>  <Genealogy>  (80) 
CC(C=O)=CCc1c([O-])cc2c(c1O)C(=O)CC(c1ccccc1)O2 (protonated)
CC(C=O)=CCc1c([O-])cc2c(c1O)C(=O)C[C@H](c1ccccc1)O2 (chirality)
C/C(C=O)=C\Cc1c([O-])cc2c(c1O)C(=O)C[C@H](c1ccccc1)O2 (cis-trans isomerization)
C/C(C=O)=C\Cc1c([O-])cc2c(c1O)C(=O)C[C@H](c1ccccc1)O2 (3D coordinates assigned)
C/C(C=O)=C\Cc1c([O-])cc2c(c1O)C(=O)C[C@H](c1ccccc1)O2 (nonaromatic ring conformer: 51.883239645380165 kcal/mol)

>  <smiles>  (80) 
CC(C=O)=CCc1c(O)cc2c(c1O)C(=O)CC(c1ccccc1)O2

>  <score_type>  (80) 
oracle

>  <origin>  (80) 
adg

>  <m_score__min__energy>  (80) 
-10.44

>  <m_primary>  (80) 
energy

$$$$
80:0
     RDKit          3D

 52 54  0  0  0  0  0  0  0  0999 V2000
   55.1660   27.3700   46.0520 H   0  0  0  0  0  0  0  0  0  0  0  0
   54.9790   26.3450   45.9830 N   0  0  0  0  0  0  0  0  0  0  0  0
   56.4640   25.5360   46.3290 S   0  0  0  0  0  0  0  0  0  0  0  0
   56.8830   24.7180   45.1400 O   0  0  0  0  0  0  0  0  0  0  0  0
   56.2480   24.6210   47.5040 O   0  0  0  0  0  0  0  0  0  0  0  0
   57.7190   26.7250   46.7010 C   0  0  0  0  0  0  0  0  0  0  0  0
   58.6140   26.4660   47.7500 C   0  0  0  0  0  0  0  0  0  0  0  0
   58.5431   25.5193   48.3056 H   0  0  0  0  0  0  0  0  0  0  0  0
   59.5930   27.3980   48.0950 C   0  0  0  0  0  0  0  0  0  0  0  0
   60.2872   27.1848   48.9213 H   0  0  0  0  0  0  0  0  0  0  0  0
   59.6930   28.5980   47.3950 C   0  0  0  0  0  0  0  0  0  0  0  0
   60.4641   29.3326   47.6703 H   0  0  0  0  0  0  0  0  0  0  0  0
   58.8140   28.8690   46.3430 C   0  0  0  0  0  0  0  0  0  0  0  0
   58.9016   29.8157   45.7898 H   0  0  0  0  0  0  0  0  0  0  0  0
   57.8180   27.9420   45.9850 C   0  0  0  0  0  0  0  0  0  0  0  0
   56.9260   28.2330   44.8970 N   0  0  0  0  0  0  0  0  0  0  0  0
   56.2140   27.5280   44.6050 H   0  0  0  0  0  0  0  0  0  0  0  0
   56.8600   29.7850   44.1220 S   0  0  0  0  0  0  0  0  0  0  0  0
   56.3950   29.6190   42.7040 O   0  0  0  0  0  0  0  0  0  0  0  0
   55.8770   30.6510   44.8580 O   0  0  0  0  0  0  0  0  0  0  0  0
   58.4590   30.5910   44.1430 C   0  0  0  0  0  0  0  0  0  0  0  0
   59.1601   29.9817   44.7322 H   0  0  0  0  0  0  0  0  0  0  0  0
   58.8109   30.6935   43.1059 H   0  0  0  0  0  0  0  0  0  0  0  0
   58.3690   31.9630   44.7530 C   0  0  0  0  0  0  0  0  0  0  0  0
   57.3570   32.8530   44.3570 C   0  0  0  0  0  0  0  0  0  0  0  0
   56.6142   32.5397   43.6086 H   0  0  0  0  0  0  0  0  0  0  0  0
   57.2900   34.1330   44.9090 C   0  0  0  0  0  0  0  0  0  0  0  0
   56.4981   34.8269   44.5905 H   0  0  0  0  0  0  0  0  0  0  0  0
   58.2250   34.5350   45.8640 C   0  0  0  0  0  0  0  0  0  0  0  0
   58.1649   35.5445   46.2969 H   0  0  0  0  0  0  0  0  0  0  0  0
   59.2380   33.6620   46.2740 C   0  0  0  0  0  0  0  0  0  0  0  0
   60.1800   34.1190   47.2520 N   0  0  0  0  0  0  0  0  0  0  0  0
   60.9170   33.1360   48.4750 S   0  0  0  0  0  0  0  0  0  0  0  0
   60.7100   33.7770   49.8190 O   0  0  0  0  0  0  0  0  0  0  0  0
   60.3140   31.7580   48.4730 O   0  0  0  0  0  0  0  0  0  0  0  0
   62.6480   33.0280   48.1630 C   0  0  0  0  0  0  0  0  0  0  0  0
   62.9796   32.5488   47.2300 H   0  0  0  0  0  0  0  0  0  0  0  0
   63.5800   33.4970   48.9990 C   0  0  0  0  0  0  0  0  0  0  0  0
   63.6702   34.5868   49.1178 H   0  0  0  0  0  0  0  0  0  0  0  0
   64.4930   32.6350   49.7700 C   0  0  0  0  0  0  0  0  0  0  0  0
   65.8600   32.9360   49.8180 C   0  0  0  0  0  0  0  0  0  0  0  0
   66.2472   33.8180   49.2869 H   0  0  0  0  0  0  0  0  0  0  0  0
   66.7330   32.1170   50.5400 C   0  0  0  0  0  0  0  0  0  0  0  0
   67.8090   32.3448   50.5578 H   0  0  0  0  0  0  0  0  0  0  0  0
   66.2440   31.0090   51.2400 C   0  0  0  0  0  0  0  0  0  0  0  0
   67.3750   29.9970   52.1290 Cl  0  0  0  0  0  0  0  0  0  0  0  0
   64.8700   30.7180   51.2180 C   0  0  0  0  0  0  0  0  0  0  0  0
   64.2100   29.3460   52.0990 Cl  0  0  0  0  0  0  0  0  0  0  0  0
   63.9990   31.5320   50.4820 C   0  0  0  0  0  0  0  0  0  0  0  0
   62.9228   31.3051   50.4624 H   0  0  0  0  0  0  0  0  0  0  0  0
   59.3060   32.3720   45.7170 C   0  0  0  0  0  0  0  0  0  0  0  0
   60.0977   31.6791   46.0381 H   0  0  0  0  0  0  0  0  0  0  0  0
  1  2  1  0
  2  3  1  0
  3  4  2  0
  3  5  2  0
  3  6  1  0
  6  7  2  0
  7  8  1  0
  7  9  1  0
  9 10  1  0
  9 11  2  0
 11 12  1  0
 11 13  1  0
 13 14  1  0
 13 15  2  0
 15 16  1  0
 16 17  1  0
 16 18  1  0
 18 19  2  0
 18 20  2  0
 18 21  1  0
 21 22  1  0
 21 23  1  0
 21 24  1  0
 24 25  2  0
 25 26  1  0
 25 27  1  0
 27 28  1  0
 27 29  2  0
 29 30  1  0
 29 31  1  0
 31 32  1  0
 32 33  1  0
 33 34  2  0
 33 35  2  0
 33 36  1  0
 36 37  1  0
 36 38  2  0
 38 39  1  0
 38 40  1  0
 40 41  2  0
 41 42  1  0
 41 43  1  0
 43 44  1  0
 43 45  2  0
 45 46  1  0
 45 47  1  0
 47 48  1  0
 47 49  2  0
 49 50  1  0
 31 51  2  0
 51 52  1  0
 15  6  1  0
 51 24  1  0
 49 40  1  0
M  CHG  2   2  -1  32  -1
M  END
>  <UniqueID>  (81) 
77

>  <SMILES>  (81) 
[NH-]S(=O)(=O)c1ccccc1NS(=O)(=O)Cc1cccc([N-]S(=O)(=O)/C=C\c2ccc(Cl)c(Cl)c2)c1

>  <Energy>  (81) 
59.48776249045907

>  <Genealogy>  (81) 
[NH-]S(=O)(=O)c1ccccc1NS(=O)(=O)Cc1cccc([N-]S(=O)(=O)C=Cc2ccc(Cl)c(Cl)c2)c1 (protonated)
[NH-]S(=O)(=O)c1ccccc1NS(=O)(=O)Cc1cccc([N-]S(=O)(=O)/C=C\c2ccc(Cl)c(Cl)c2)c1 (cis-trans isomerization)
[NH-]S(=O)(=O)c1ccccc1NS(=O)(=O)Cc1cccc([N-]S(=O)(=O)/C=C\c2ccc(Cl)c(Cl)c2)c1 (3D coordinates assigned)
[NH-]S(=O)(=O)c1ccccc1NS(=O)(=O)Cc1cccc([N-]S(=O)(=O)/C=C\c2ccc(Cl)c(Cl)c2)c1 (optimized conformer: 59.48776249045907 kcal/mol)

>  <smiles>  (81) 
NS(=O)(=O)c1ccccc1NS(=O)(=O)Cc1cccc(NS(=O)(=O)C=Cc2ccc(Cl)c(Cl)c2)c1

>  <score_type>  (81) 
oracle

>  <origin>  (81) 
adg

>  <m_score__min__energy>  (81) 
-14.890000000000001

>  <m_primary>  (81) 
energy

$$$$
81:0
     RDKit          3D

 41 44  0  0  0  0  0  0  0  0999 V2000
   55.1660   26.5470   45.9620 N   0  0  0  0  0  0  0  0  0  0  0  0
   56.8640   26.8740   45.9200 S   0  0  0  0  0  0  0  0  0  0  0  0
   57.5160   25.9850   44.8980 O   0  0  0  0  0  0  0  0  0  0  0  0
   57.4660   26.5850   47.2680 O   0  0  0  0  0  0  0  0  0  0  0  0
   57.1260   28.5670   45.5130 C   0  0  0  0  0  0  0  0  0  0  0  0
   56.5430   29.1250   44.3680 C   0  0  0  0  0  0  0  0  0  0  0  0
   56.7500   30.4730   44.0580 C   0  0  0  0  0  0  0  0  0  0  0  0
   57.5410   31.2850   44.8910 C   0  0  0  0  0  0  0  0  0  0  0  0
   57.7630   32.7130   44.5640 C   0  0  0  0  0  0  0  0  0  0  0  0
   57.6360   33.1130   43.3750 O   0  0  0  0  0  0  0  0  0  0  0  0
   58.0690   33.6490   45.6090 N   0  0  0  0  0  0  0  0  0  0  0  0
   59.1980   33.6070   46.4930 C   0  0  0  0  0  0  0  0  0  0  0  0
   60.4710   33.8580   45.9680 C   0  0  0  0  0  0  0  0  0  0  0  0
   61.5970   33.8500   46.7970 C   0  0  0  0  0  0  0  0  0  0  0  0
   61.4640   33.6050   48.1750 C   0  0  0  0  0  0  0  0  0  0  0  0
   62.6540   33.5990   49.0550 C   0  0  0  0  0  0  0  0  0  0  0  0
   62.7040   34.2750   50.2350 N   0  0  0  0  0  0  0  0  0  0  0  0
   63.9350   33.9930   50.6840 C   0  0  0  0  0  0  0  0  0  0  0  0
   64.5320   34.4280   51.8650 C   0  0  0  0  0  0  0  0  0  0  0  0
   65.8470   33.9980   52.1270 C   0  0  0  0  0  0  0  0  0  0  0  0
   66.5190   33.1550   51.2130 C   0  0  0  0  0  0  0  0  0  0  0  0
   65.8820   32.7360   50.0290 C   0  0  0  0  0  0  0  0  0  0  0  0
   64.5820   33.1830   49.8040 C   0  0  0  0  0  0  0  0  0  0  0  0
   63.7910   32.9130   48.7560 N   0  0  0  0  0  0  0  0  0  0  0  0
   60.1830   33.3760   48.7050 C   0  0  0  0  0  0  0  0  0  0  0  0
   59.0580   33.3830   47.8740 C   0  0  0  0  0  0  0  0  0  0  0  0
   58.1160   30.7180   46.0440 C   0  0  0  0  0  0  0  0  0  0  0  0
   57.9090   29.3700   46.3510 C   0  0  0  0  0  0  0  0  0  0  0  0
   54.7730   27.0760   46.7730 H   0  0  0  0  0  0  0  0  0  0  0  0
   55.9202   28.5008   43.7104 H   0  0  0  0  0  0  0  0  0  0  0  0
   56.2904   30.9018   43.1553 H   0  0  0  0  0  0  0  0  0  0  0  0
   60.5867   34.0634   44.8936 H   0  0  0  0  0  0  0  0  0  0  0  0
   62.5928   34.0365   46.3685 H   0  0  0  0  0  0  0  0  0  0  0  0
   63.9958   35.0834   52.5672 H   0  0  0  0  0  0  0  0  0  0  0  0
   66.3542   34.3201   53.0484 H   0  0  0  0  0  0  0  0  0  0  0  0
   67.5458   32.8242   51.4278 H   0  0  0  0  0  0  0  0  0  0  0  0
   66.3922   32.0799   49.3084 H   0  0  0  0  0  0  0  0  0  0  0  0
   60.0639   33.1897   49.7825 H   0  0  0  0  0  0  0  0  0  0  0  0
   58.0594   33.2125   48.3027 H   0  0  0  0  0  0  0  0  0  0  0  0
   58.7330   31.3405   46.7086 H   0  0  0  0  0  0  0  0  0  0  0  0
   58.3633   28.9383   47.2550 H   0  0  0  0  0  0  0  0  0  0  0  0
  1  2  1  0
  2  3  2  0
  2  4  2  0
  2  5  1  0
  5  6  2  0
  6  7  1  0
  7  8  2  0
  8  9  1  0
  9 10  2  0
  9 11  1  0
 11 12  1  0
 12 13  2  0
 13 14  1  0
 14 15  2  0
 15 16  1  0
 16 17  2  0
 17 18  1  0
 18 19  2  0
 19 20  1  0
 20 21  2  0
 21 22  1  0
 22 23  2  0
 23 24  1  0
 15 25  1  0
 25 26  2  0
  8 27  1  0
 27 28  2  0
 28  5  1  0
 26 12  1  0
 24 16  1  0
 23 18  1  0
  1 29  1  0
  6 30  1  0
  7 31  1  0
 13 32  1  0
 14 33  1  0
 19 34  1  0
 20 35  1  0
 21 36  1  0
 22 37  1  0
 25 38  1  0
 26 39  1  0
 27 40  1  0
 28 41  1  0
M  CHG  3   1  -1  11  -1  24  -1
M  END
>  <UniqueID>  (82) 
78

>  <SMILES>  (82) 
[NH-]S(=O)(=O)c1ccc(C(=O)[N-]c2ccc(-c3nc4ccccc4[n-]3)cc2)cc1

>  <Energy>  (82) 
85.67104961041655

>  <Genealogy>  (82) 
[NH-]S(=O)(=O)c1ccc(C(=O)[N-]c2ccc(-c3nc4ccccc4[n-]3)cc2)cc1 (protonated)
[NH-]S(=O)(=O)c1ccc(C(=O)[N-]c2ccc(-c3nc4ccccc4[n-]3)cc2)cc1 (3D coordinates assigned)
[NH-]S(=O)(=O)c1ccc(C(=O)[N-]c2ccc(-c3nc4ccccc4[n-]3)cc2)cc1 (optimized conformer: 85.67104961041655 kcal/mol)

>  <smiles>  (82) 
NS(=O)(=O)c1ccc(C(=O)Nc2ccc(-c3nc4ccccc4[nH]3)cc2)cc1

>  <score_type>  (82) 
oracle

>  <origin>  (82) 
adg

>  <m_score__min__energy>  (82) 
-13.17

>  <m_primary>  (82) 
energy

$$$$
82:0
     RDKit          3D

 40 42  0  0  0  0  0  0  0  0999 V2000
   56.2000   31.5760   44.5300 O   0  0  0  0  0  0  0  0  0  0  0  0
   57.3950   31.2370   44.7510 C   0  0  0  0  0  0  0  0  0  0  0  0
   57.8420   29.8380   44.4220 C   0  0  0  0  0  0  0  0  0  0  0  0
   56.9820   28.8650   45.0130 O   0  0  0  0  0  0  0  0  0  0  0  0
   57.3900   27.9930   46.0310 C   0  0  0  0  0  0  0  0  0  0  0  0
   57.9220   28.4590   47.0770 O   0  0  0  0  0  0  0  0  0  0  0  0
   57.2020   26.5270   45.8880 C   0  0  0  0  0  0  0  0  0  0  0  0
   58.3270   25.6920   45.7270 C   0  0  0  0  0  0  0  0  0  0  0  0
   58.1750   24.3100   45.5910 C   0  0  0  0  0  0  0  0  0  0  0  0
   56.9030   23.7390   45.6130 C   0  0  0  0  0  0  0  0  0  0  0  0
   55.7770   24.5500   45.7710 C   0  0  0  0  0  0  0  0  0  0  0  0
   55.9170   25.9350   45.9090 C   0  0  0  0  0  0  0  0  0  0  0  0
   54.7690   26.7060   46.0670 O   0  0  0  0  0  0  0  0  0  0  0  0
   58.3440   32.2350   45.2930 C   0  0  0  0  0  0  0  0  0  0  0  0
   58.1560   33.6100   45.1390 C   0  0  0  0  0  0  0  0  0  0  0  0
   59.4330   34.4000   45.8980 S   0  0  0  0  0  0  0  0  0  0  0  0
   60.1830   32.9710   46.3810 C   0  0  0  0  0  0  0  0  0  0  0  0
   61.4090   32.8970   47.1350 N   0  0  0  0  0  0  0  0  0  0  0  0
   61.4190   32.2040   48.4280 C   0  0  0  0  0  0  0  0  0  0  0  0
   62.8410   31.7510   48.7720 C   0  0  0  0  0  0  0  0  0  0  0  0
   63.7500   32.8290   48.6750 O   0  0  0  0  0  0  0  0  0  0  0  0
   63.8330   33.2600   47.3310 C   0  0  0  0  0  0  0  0  0  0  0  0
   62.4970   33.8450   46.8630 C   0  0  0  0  0  0  0  0  0  0  0  0
   59.4700   31.8920   45.9830 N   0  0  0  0  0  0  0  0  0  0  0  0
   57.8337   29.7070   43.3299 H   0  0  0  0  0  0  0  0  0  0  0  0
   58.8557   29.6945   44.8242 H   0  0  0  0  0  0  0  0  0  0  0  0
   59.3344   26.1334   45.7083 H   0  0  0  0  0  0  0  0  0  0  0  0
   59.0612   23.6704   45.4662 H   0  0  0  0  0  0  0  0  0  0  0  0
   56.7865   22.6504   45.5060 H   0  0  0  0  0  0  0  0  0  0  0  0
   54.7746   24.0972   45.7870 H   0  0  0  0  0  0  0  0  0  0  0  0
   57.3190   34.0926   44.6132 H   0  0  0  0  0  0  0  0  0  0  0  0
   61.0558   32.8874   49.2097 H   0  0  0  0  0  0  0  0  0  0  0  0
   60.7648   31.3217   48.3684 H   0  0  0  0  0  0  0  0  0  0  0  0
   62.8556   31.3587   49.7996 H   0  0  0  0  0  0  0  0  0  0  0  0
   63.1438   30.9701   48.0589 H   0  0  0  0  0  0  0  0  0  0  0  0
   64.6132   34.0309   47.2472 H   0  0  0  0  0  0  0  0  0  0  0  0
   64.0796   32.3947   46.6982 H   0  0  0  0  0  0  0  0  0  0  0  0
   62.3033   34.7852   47.4001 H   0  0  0  0  0  0  0  0  0  0  0  0
   62.5465   34.0359   45.7808 H   0  0  0  0  0  0  0  0  0  0  0  0
   59.7370   30.9080   46.1990 H   0  0  0  0  0  0  0  0  0  0  0  0
  1  2  2  0
  2  3  1  0
  3  4  1  0
  4  5  1  0
  5  6  2  0
  5  7  1  0
  7  8  2  0
  8  9  1  0
  9 10  2  0
 10 11  1  0
 11 12  2  0
 12 13  1  0
  2 14  1  0
 14 15  2  0
 15 16  1  0
 16 17  1  0
 17 18  1  0
 18 19  1  0
 19 20  1  0
 20 21  1  0
 21 22  1  0
 22 23  1  0
 17 24  2  0
 12  7  1  0
 24 14  1  0
 23 18  1  0
  3 25  1  0
  3 26  1  0
  8 27  1  0
  9 28  1  0
 10 29  1  0
 11 30  1  0
 15 31  1  0
 19 32  1  0
 19 33  1  0
 20 34  1  0
 20 35  1  0
 22 36  1  0
 22 37  1  0
 23 38  1  0
 23 39  1  0
 24 40  1  0
M  CHG  2  13  -1  24   1
M  END
>  <UniqueID>  (83) 
79

>  <SMILES>  (83) 
O=C(COC(=O)c1ccccc1[O-])c1csc(N2CCOCC2)[nH+]1

>  <Energy>  (83) 
75.00791726991659

>  <Genealogy>  (83) 
O=C(COC(=O)c1ccccc1[O-])c1csc(N2CCOCC2)[nH+]1 (protonated)
O=C(COC(=O)c1ccccc1[O-])c1csc(N2CCOCC2)[nH+]1 (3D coordinates assigned)
O=C(COC(=O)c1ccccc1[O-])c1csc(N2CCOCC2)[nH+]1 (nonaromatic ring conformer: 75.00791726991659 kcal/mol)

>  <smiles>  (83) 
O=C(COC(=O)c1ccccc1O)c1csc(N2CCOCC2)n1

>  <score_type>  (83) 
oracle

>  <origin>  (83) 
adg

>  <m_score__min__energy>  (83) 
-10.34

>  <m_primary>  (83) 
energy

$$$$
83:0
     RDKit          3D

 39 41  0  0  0  0  0  0  0  0999 V2000
   59.4590   31.2080   49.3020 N   0  0  0  0  0  0  0  0  0  0  0  0
   60.2080   29.8570   48.5220 S   0  0  0  0  0  0  0  0  0  0  0  0
   61.4520   30.3180   47.8150 O   0  0  0  0  0  0  0  0  0  0  0  0
   60.5900   28.8240   49.5470 O   0  0  0  0  0  0  0  0  0  0  0  0
   59.0800   29.1520   47.3670 C   0  0  0  0  0  0  0  0  0  0  0  0
   58.9310   27.7600   47.3010 C   0  0  0  0  0  0  0  0  0  0  0  0
   58.0120   27.1950   46.4140 C   0  0  0  0  0  0  0  0  0  0  0  0
   57.2440   28.0140   45.5830 C   0  0  0  0  0  0  0  0  0  0  0  0
   57.4030   29.4100   45.6250 C   0  0  0  0  0  0  0  0  0  0  0  0
   56.5960   30.2770   44.8190 N   0  0  0  0  0  0  0  0  0  0  0  0
   57.0630   31.1230   43.7620 C   0  0  0  0  0  0  0  0  0  0  0  0
   56.6160   30.9460   42.5990 O   0  0  0  0  0  0  0  0  0  0  0  0
   57.9540   32.3040   44.0300 C   0  0  0  0  0  0  0  0  0  0  0  0
   57.0170   33.6240   44.8750 S   0  0  0  0  0  0  0  0  0  0  0  0
   58.1580   33.7690   46.2480 C   0  0  0  0  0  0  0  0  0  0  0  0
   57.9250   33.2450   47.4710 N   0  0  0  0  0  0  0  0  0  0  0  0
   58.9150   33.4710   48.3340 N   0  0  0  0  0  0  0  0  0  0  0  0
   59.9370   34.1690   47.7900 C   0  0  0  0  0  0  0  0  0  0  0  0
   61.0060   34.5400   48.4340 N   0  0  0  0  0  0  0  0  0  0  0  0
   62.0840   33.7030   48.8860 C   0  0  0  0  0  0  0  0  0  0  0  0
   61.9290   33.0440   49.9490 O   0  0  0  0  0  0  0  0  0  0  0  0
   63.3840   33.5780   48.1370 C   0  0  0  0  0  0  0  0  0  0  0  0
   63.2900   33.8400   46.6380 C   0  0  0  0  0  0  0  0  0  0  0  0
   63.4380   32.4190   47.1530 C   0  0  0  0  0  0  0  0  0  0  0  0
   59.6470   34.5550   46.1780 S   0  0  0  0  0  0  0  0  0  0  0  0
   58.3030   29.9730   46.5380 C   0  0  0  0  0  0  0  0  0  0  0  0
   60.1680   31.9770   49.3280 H   0  0  0  0  0  0  0  0  0  0  0  0
   58.6860   31.5310   48.6800 H   0  0  0  0  0  0  0  0  0  0  0  0
   59.5389   27.1114   47.9489 H   0  0  0  0  0  0  0  0  0  0  0  0
   57.8927   26.1024   46.3697 H   0  0  0  0  0  0  0  0  0  0  0  0
   56.5131   27.5655   44.8941 H   0  0  0  0  0  0  0  0  0  0  0  0
   58.7928   31.9887   44.6680 H   0  0  0  0  0  0  0  0  0  0  0  0
   58.3340   32.6907   43.0729 H   0  0  0  0  0  0  0  0  0  0  0  0
   64.0250   33.9433   48.9529 H   0  0  0  0  0  0  0  0  0  0  0  0
   62.3379   34.1684   46.1957 H   0  0  0  0  0  0  0  0  0  0  0  0
   63.8394   34.4692   45.9223 H   0  0  0  0  0  0  0  0  0  0  0  0
   62.5930   31.7182   47.0825 H   0  0  0  0  0  0  0  0  0  0  0  0
   64.1396   31.5933   46.9633 H   0  0  0  0  0  0  0  0  0  0  0  0
   58.4010   31.0666   46.6052 H   0  0  0  0  0  0  0  0  0  0  0  0
  1  2  1  0
  2  3  2  0
  2  4  2  0
  2  5  1  0
  5  6  2  0
  6  7  1  0
  7  8  2  0
  8  9  1  0
  9 10  1  0
 10 11  1  0
 11 12  2  0
 11 13  1  0
 13 14  1  0
 14 15  1  0
 15 16  2  0
 16 17  1  0
 17 18  1  0
 18 19  2  3
 19 20  1  0
 20 21  2  0
 20 22  1  0
 22 23  1  0
 23 24  1  0
 18 25  1  0
  9 26  2  0
 26  5  1  0
 25 15  1  0
 24 22  1  0
  1 27  1  0
  1 28  1  0
  6 29  1  0
  7 30  1  0
  8 31  1  0
 13 32  1  0
 13 33  1  0
 22 34  1  0
 23 35  1  0
 23 36  1  0
 24 37  1  0
 24 38  1  0
 26 39  1  0
M  CHG  2  10  -1  17  -1
M  END
>  <UniqueID>  (84) 
80

>  <SMILES>  (84) 
NS(=O)(=O)c1cccc([N-]C(=O)CSc2n[n-]c(=NC(=O)C3CC3)s2)c1

>  <Energy>  (84) 
341.2438799162154

>  <Genealogy>  (84) 
NS(=O)(=O)c1cccc([N-]C(=O)CSc2n[n-]c(=NC(=O)C3CC3)s2)c1 (protonated)
NS(=O)(=O)c1cccc([N-]C(=O)CSc2n[n-]c(=NC(=O)C3CC3)s2)c1 (3D coordinates assigned)
NS(=O)(=O)c1cccc([N-]C(=O)CSc2n[n-]c(=NC(=O)C3CC3)s2)c1 (nonaromatic ring conformer: 341.2438799162154 kcal/mol)

>  <smiles>  (84) 
NS(=O)(=O)c1cccc(NC(=O)CSc2n[nH]c(=NC(=O)C3CC3)s2)c1

>  <score_type>  (84) 
oracle

>  <origin>  (84) 
adg

>  <m_score__min__energy>  (84) 
-10.02

>  <m_primary>  (84) 
energy

$$$$
84:0
     RDKit          3D

 60 63  0  0  0  0  0  0  0  0999 V2000
   62.6030   31.2070   50.2780 C   0  0  0  0  0  0  0  0  0  0  0  0
   61.5520   31.7580   51.1480 N   0  0  2  0  0  0  0  0  0  0  0  0
   60.2980   30.9760   51.0040 C   0  0  0  0  0  0  0  0  0  0  0  0
   60.3280   30.0690   49.7960 C   0  0  0  0  0  0  0  0  0  0  0  0
   60.1430   30.5820   48.5030 C   0  0  0  0  0  0  0  0  0  0  0  0
   60.1540   29.7310   47.3960 C   0  0  0  0  0  0  0  0  0  0  0  0
   60.3800   28.3520   47.5560 C   0  0  0  0  0  0  0  0  0  0  0  0
   60.4090   27.4590   46.3690 C   0  0  0  0  0  0  0  0  0  0  0  0
   60.8710   26.2940   46.4860 O   0  0  0  0  0  0  0  0  0  0  0  0
   59.8780   27.8570   45.0970 N   0  0  0  0  0  0  0  0  0  0  0  0
   58.7100   28.6600   44.8740 C   0  0  0  0  0  0  0  0  0  0  0  0
   58.8170   29.9650   44.3580 C   0  0  0  0  0  0  0  0  0  0  0  0
   57.6680   30.7230   44.1110 C   0  0  0  0  0  0  0  0  0  0  0  0
   57.8070   32.3560   43.4850 Cl  0  0  0  0  0  0  0  0  0  0  0  0
   56.4050   30.1770   44.3540 C   0  0  0  0  0  0  0  0  0  0  0  0
   56.2890   28.8770   44.8470 C   0  0  0  0  0  0  0  0  0  0  0  0
   57.4340   28.1120   45.1120 C   0  0  0  0  0  0  0  0  0  0  0  0
   57.2890   26.7890   45.6450 N   0  0  0  0  0  0  0  0  0  0  0  0
   57.3930   26.5770   47.0920 C   0  0  0  0  0  0  0  0  0  0  0  0
   56.9220   25.1720   47.4560 C   0  0  0  0  0  0  0  0  0  0  0  0
   55.7640   24.8670   46.7110 O   0  0  0  0  0  0  0  0  0  0  0  0
   56.1100   24.6030   45.3610 C   0  0  0  0  0  0  0  0  0  0  0  0
   57.0490   25.6620   44.7340 C   0  0  0  0  0  0  0  0  0  0  0  0
   60.6250   27.8510   48.8480 C   0  0  0  0  0  0  0  0  0  0  0  0
   60.5850   28.7000   49.9570 C   0  0  0  0  0  0  0  0  0  0  0  0
   61.3060   33.4420   50.7400 S   0  0  0  0  0  0  0  0  0  0  0  0
   60.1510   33.9910   51.5340 O   0  0  0  0  0  0  0  0  0  0  0  0
   62.5400   34.2310   51.0880 O   0  0  0  0  0  0  0  0  0  0  0  0
   60.9320   33.6390   49.0290 C   0  0  0  0  0  0  0  0  0  0  0  0
   61.9560   33.5420   48.0760 C   0  0  0  0  0  0  0  0  0  0  0  0
   61.6710   33.7130   46.7190 C   0  0  0  0  0  0  0  0  0  0  0  0
   60.3630   33.9840   46.3060 C   0  0  0  0  0  0  0  0  0  0  0  0
   59.3370   34.0700   47.2490 C   0  0  0  0  0  0  0  0  0  0  0  0
   59.6170   33.8940   48.6080 C   0  0  0  0  0  0  0  0  0  0  0  0
   63.4080   30.7850   50.8976 H   0  0  0  0  0  0  0  0  0  0  0  0
   62.1763   30.4166   49.6430 H   0  0  0  0  0  0  0  0  0  0  0  0
   63.0104   32.0075   49.6430 H   0  0  0  0  0  0  0  0  0  0  0  0
   61.9070   31.7130   52.1320 H   0  0  0  0  0  0  0  0  0  0  0  0
   60.1581   30.3613   51.9054 H   0  0  0  0  0  0  0  0  0  0  0  0
   59.4691   31.6871   50.8725 H   0  0  0  0  0  0  0  0  0  0  0  0
   59.9883   31.6617   48.3606 H   0  0  0  0  0  0  0  0  0  0  0  0
   59.9844   30.1426   46.3901 H   0  0  0  0  0  0  0  0  0  0  0  0
   59.8092   30.3908   44.1480 H   0  0  0  0  0  0  0  0  0  0  0  0
   55.5015   30.7725   44.1565 H   0  0  0  0  0  0  0  0  0  0  0  0
   55.2922   28.4490   45.0291 H   0  0  0  0  0  0  0  0  0  0  0  0
   58.4410   26.7003   47.4025 H   0  0  0  0  0  0  0  0  0  0  0  0
   56.7583   27.3124   47.6081 H   0  0  0  0  0  0  0  0  0  0  0  0
   57.7136   24.4454   47.2206 H   0  0  0  0  0  0  0  0  0  0  0  0
   56.6948   25.1238   48.5312 H   0  0  0  0  0  0  0  0  0  0  0  0
   56.6127   23.6256   45.3174 H   0  0  0  0  0  0  0  0  0  0  0  0
   55.1747   24.6239   44.7824 H   0  0  0  0  0  0  0  0  0  0  0  0
   58.0118   25.1867   44.4949 H   0  0  0  0  0  0  0  0  0  0  0  0
   56.5642   26.0536   43.8275 H   0  0  0  0  0  0  0  0  0  0  0  0
   60.8497   26.7831   48.9859 H   0  0  0  0  0  0  0  0  0  0  0  0
   60.7564   28.2914   50.9638 H   0  0  0  0  0  0  0  0  0  0  0  0
   62.9865   33.3307   48.3977 H   0  0  0  0  0  0  0  0  0  0  0  0
   62.4769   33.6343   45.9744 H   0  0  0  0  0  0  0  0  0  0  0  0
   60.1423   34.1294   45.2382 H   0  0  0  0  0  0  0  0  0  0  0  0
   58.3070   34.2765   46.9227 H   0  0  0  0  0  0  0  0  0  0  0  0
   58.8057   33.9555   49.3482 H   0  0  0  0  0  0  0  0  0  0  0  0
  1  2  1  0
  2  3  1  0
  3  4  1  0
  4  5  2  0
  5  6  1  0
  6  7  2  0
  7  8  1  0
  8  9  2  0
  8 10  1  0
 10 11  1  0
 11 12  2  0
 12 13  1  0
 13 14  1  0
 13 15  2  0
 15 16  1  0
 16 17  2  0
 17 18  1  0
 18 19  1  0
 19 20  1  0
 20 21  1  0
 21 22  1  0
 22 23  1  0
  7 24  1  0
 24 25  2  0
  2 26  1  0
 26 27  2  0
 26 28  2  0
 26 29  1  0
 29 30  2  0
 30 31  1  0
 31 32  2  0
 32 33  1  0
 33 34  2  0
 25  4  1  0
 34 29  1  0
 17 11  1  0
 23 18  1  0
  1 35  1  0
  1 36  1  0
  1 37  1  0
  2 38  1  1
  3 39  1  0
  3 40  1  0
  5 41  1  0
  6 42  1  0
 12 43  1  0
 15 44  1  0
 16 45  1  0
 19 46  1  0
 19 47  1  0
 20 48  1  0
 20 49  1  0
 22 50  1  0
 22 51  1  0
 23 52  1  0
 23 53  1  0
 24 54  1  0
 25 55  1  0
 30 56  1  0
 31 57  1  0
 32 58  1  0
 33 59  1  0
 34 60  1  0
M  CHG  2   2   1  10  -1
M  END
>  <UniqueID>  (85) 
81

>  <SMILES>  (85) 
C[N@H+](Cc1ccc(C(=O)[N-]c2cc(Cl)ccc2N2CCOCC2)cc1)S(=O)(=O)c1ccccc1

>  <Energy>  (85) 
77.73044130042082

>  <Genealogy>  (85) 
C[NH+](Cc1ccc(C(=O)[N-]c2cc(Cl)ccc2N2CCOCC2)cc1)S(=O)(=O)c1ccccc1 (protonated)
C[N@H+](Cc1ccc(C(=O)[N-]c2cc(Cl)ccc2N2CCOCC2)cc1)S(=O)(=O)c1ccccc1 (chirality)
C[N@H+](Cc1ccc(C(=O)[N-]c2cc(Cl)ccc2N2CCOCC2)cc1)S(=O)(=O)c1ccccc1 (3D coordinates assigned)
C[N@H+](Cc1ccc(C(=O)[N-]c2cc(Cl)ccc2N2CCOCC2)cc1)S(=O)(=O)c1ccccc1 (nonaromatic ring conformer: 77.73044130042082 kcal/mol)

>  <smiles>  (85) 
CN(Cc1ccc(C(=O)Nc2cc(Cl)ccc2N2CCOCC2)cc1)S(=O)(=O)c1ccccc1

>  <score_type>  (85) 
oracle

>  <origin>  (85) 
adg

>  <m_score__min__energy>  (85) 
-9.1099999999999994

>  <m_primary>  (85) 
energy

$$$$
85:0
     RDKit          3D

 48 51  0  0  0  0  0  0  0  0999 V2000
   66.2990   32.6680   50.1860 C   0  0  0  0  0  0  0  0  0  0  0  0
   64.9150   33.1420   49.8540 C   0  0  0  0  0  0  0  0  0  0  0  0
   64.4300   33.0740   48.5390 C   0  0  0  0  0  0  0  0  0  0  0  0
   63.1490   33.5440   48.2350 C   0  0  0  0  0  0  0  0  0  0  0  0
   62.3440   34.1080   49.2400 C   0  0  0  0  0  0  0  0  0  0  0  0
   61.0470   34.5770   48.9780 O   0  0  0  0  0  0  0  0  0  0  0  0
   60.0710   33.8930   48.2380 C   0  0  0  0  0  0  0  0  0  0  0  0
   59.2400   34.6240   47.3840 C   0  0  0  0  0  0  0  0  0  0  0  0
   58.2530   33.9800   46.6360 C   0  0  0  0  0  0  0  0  0  0  0  0
   58.0820   32.5950   46.7260 C   0  0  0  0  0  0  0  0  0  0  0  0
   57.0310   32.0070   46.0070 O   0  0  0  0  0  0  0  0  0  0  0  0
   57.0500   31.7480   44.6270 C   0  0  0  0  0  0  0  0  0  0  0  0
   57.7890   32.5450   43.7320 C   0  0  0  0  0  0  0  0  0  0  0  0
   57.7670   32.2700   42.3620 C   0  0  0  0  0  0  0  0  0  0  0  0
   57.0170   31.1960   41.8750 C   0  0  0  0  0  0  0  0  0  0  0  0
   56.2970   30.3880   42.7600 C   0  0  0  0  0  0  0  0  0  0  0  0
   56.3180   30.6590   44.1320 C   0  0  0  0  0  0  0  0  0  0  0  0
   55.5930   29.8530   45.0030 O   0  0  0  0  0  0  0  0  0  0  0  0
   58.9720   31.8340   47.5240 C   0  0  0  0  0  0  0  0  0  0  0  0
   58.9120   30.4010   47.5700 N   0  0  0  0  0  0  0  0  0  0  0  0
   59.0910   29.5770   46.4090 C   0  0  0  0  0  0  0  0  0  0  0  0
   59.6740   30.0420   45.3920 O   0  0  0  0  0  0  0  0  0  0  0  0
   58.5780   28.1980   46.3860 C   0  0  0  0  0  0  0  0  0  0  0  0
   57.5900   27.7120   45.5390 C   0  0  0  0  0  0  0  0  0  0  0  0
   57.2560   26.3750   45.7890 C   0  0  0  0  0  0  0  0  0  0  0  0
   57.9730   25.8070   46.8330 C   0  0  0  0  0  0  0  0  0  0  0  0
   59.0200   26.9700   47.4470 S   0  0  0  0  0  0  0  0  0  0  0  0
   59.9430   32.4940   48.2920 C   0  0  0  0  0  0  0  0  0  0  0  0
   62.8260   34.1680   50.5520 C   0  0  0  0  0  0  0  0  0  0  0  0
   64.1080   33.6980   50.8570 C   0  0  0  0  0  0  0  0  0  0  0  0
   66.4201   32.6265   51.2785 H   0  0  0  0  0  0  0  0  0  0  0  0
   66.4549   31.6653   49.7615 H   0  0  0  0  0  0  0  0  0  0  0  0
   67.0369   33.3647   49.7615 H   0  0  0  0  0  0  0  0  0  0  0  0
   65.0604   32.6491   47.7440 H   0  0  0  0  0  0  0  0  0  0  0  0
   62.7694   33.4722   47.2051 H   0  0  0  0  0  0  0  0  0  0  0  0
   59.3647   35.7137   47.3009 H   0  0  0  0  0  0  0  0  0  0  0  0
   57.6039   34.5672   45.9698 H   0  0  0  0  0  0  0  0  0  0  0  0
   58.3858   33.3871   44.1125 H   0  0  0  0  0  0  0  0  0  0  0  0
   58.3407   32.8997   41.6661 H   0  0  0  0  0  0  0  0  0  0  0  0
   56.9932   30.9864   40.7954 H   0  0  0  0  0  0  0  0  0  0  0  0
   55.7132   29.5381   42.3768 H   0  0  0  0  0  0  0  0  0  0  0  0
   58.8400   29.9400   48.5060 H   0  0  0  0  0  0  0  0  0  0  0  0
   57.1173   28.3166   44.7509 H   0  0  0  0  0  0  0  0  0  0  0  0
   56.4968   25.8266   45.2122 H   0  0  0  0  0  0  0  0  0  0  0  0
   57.8732   24.7735   47.1962 H   0  0  0  0  0  0  0  0  0  0  0  0
   60.6110   31.9109   48.9430 H   0  0  0  0  0  0  0  0  0  0  0  0
   62.1934   34.5871   51.3483 H   0  0  0  0  0  0  0  0  0  0  0  0
   64.4846   33.7649   51.8883 H   0  0  0  0  0  0  0  0  0  0  0  0
  1  2  1  0
  2  3  2  0
  3  4  1  0
  4  5  2  0
  5  6  1  0
  6  7  1  0
  7  8  2  0
  8  9  1  0
  9 10  2  0
 10 11  1  0
 11 12  1  0
 12 13  2  0
 13 14  1  0
 14 15  2  0
 15 16  1  0
 16 17  2  0
 17 18  1  0
 10 19  1  0
 19 20  1  0
 20 21  1  0
 21 22  2  0
 21 23  1  0
 23 24  2  0
 24 25  1  0
 25 26  2  0
 26 27  1  0
 19 28  2  0
  5 29  1  0
 29 30  2  0
 30  2  1  0
 28  7  1  0
 17 12  1  0
 27 23  1  0
  1 31  1  0
  1 32  1  0
  1 33  1  0
  3 34  1  0
  4 35  1  0
  8 36  1  0
  9 37  1  0
 13 38  1  0
 14 39  1  0
 15 40  1  0
 16 41  1  0
 20 42  1  0
 24 43  1  0
 25 44  1  0
 26 45  1  0
 28 46  1  0
 29 47  1  0
 30 48  1  0
M  CHG  1  18  -1
M  END
>  <UniqueID>  (86) 
82

>  <SMILES>  (86) 
Cc1ccc(Oc2ccc(Oc3ccccc3[O-])c(NC(=O)c3cccs3)c2)cc1

>  <Energy>  (86) 
93.6825208604648

>  <Genealogy>  (86) 
Cc1ccc(Oc2ccc(Oc3ccccc3[O-])c(NC(=O)c3cccs3)c2)cc1 (protonated)
Cc1ccc(Oc2ccc(Oc3ccccc3[O-])c(NC(=O)c3cccs3)c2)cc1 (3D coordinates assigned)
Cc1ccc(Oc2ccc(Oc3ccccc3[O-])c(NC(=O)c3cccs3)c2)cc1 (optimized conformer: 93.6825208604648 kcal/mol)

>  <smiles>  (86) 
Cc1ccc(Oc2ccc(Oc3ccccc3O)c(NC(=O)c3cccs3)c2)cc1

>  <score_type>  (86) 
oracle

>  <origin>  (86) 
adg

>  <m_score__min__energy>  (86) 
-11.619999999999999

>  <m_primary>  (86) 
energy

$$$$
86:0
     RDKit          3D

 63 67  0  0  0  0  0  0  0  0999 V2000
   66.9310   32.6570   50.4600 C   0  0  0  0  0  0  0  0  0  0  0  0
   65.4920   32.3110   50.2450 C   0  0  0  0  0  0  0  0  0  0  0  0
   64.6750   33.1330   49.4630 C   0  0  0  0  0  0  0  0  0  0  0  0
   63.3420   32.7630   49.2670 C   0  0  0  0  0  0  0  0  0  0  0  0
   62.4990   33.5370   48.3960 N   0  0  0  0  0  0  0  0  0  0  0  0
   61.3750   34.3100   48.9430 C   0  0  0  0  0  0  0  0  0  0  0  0
   60.0570   33.7440   48.4050 C   0  0  0  0  0  0  0  0  0  0  0  0
   60.1610   33.4400   46.9700 N   0  0  0  0  0  0  0  0  0  0  0  0
   59.2220   32.5370   46.3710 C   0  0  0  0  0  0  0  0  0  0  0  0
   58.2750   33.0080   45.4520 C   0  0  0  0  0  0  0  0  0  0  0  0
   57.3690   32.1220   44.8550 C   0  0  0  0  0  0  0  0  0  0  0  0
   57.3900   30.7580   45.1930 C   0  0  0  0  0  0  0  0  0  0  0  0
   56.4750   29.8110   44.5340 C   0  0  0  0  0  0  0  0  0  0  0  0
   56.1350   30.0410   43.3430 O   0  0  0  0  0  0  0  0  0  0  0  0
   55.9760   28.6220   45.1720 N   0  0  0  0  0  0  0  0  0  0  0  0
   56.6890   27.4200   45.6280 C   0  0  1  0  0  0  0  0  0  0  0  0
   55.7550   26.2530   46.0000 C   0  0  0  0  0  0  0  0  0  0  0  0
   56.5970   24.9840   46.1020 C   0  0  0  0  0  0  0  0  0  0  0  0
   57.9410   25.2180   44.9730 S   0  0  0  0  0  0  0  0  0  0  0  0
   59.2640   24.9360   45.6280 O   0  0  0  0  0  0  0  0  0  0  0  0
   57.7730   24.3820   43.7330 O   0  0  0  0  0  0  0  0  0  0  0  0
   57.7400   26.9390   44.6250 C   0  0  0  0  0  0  0  0  0  0  0  0
   58.3890   30.2770   46.0510 C   0  0  0  0  0  0  0  0  0  0  0  0
   59.2890   31.1640   46.6490 C   0  0  0  0  0  0  0  0  0  0  0  0
   61.3540   33.8470   46.2160 C   0  0  0  0  0  0  0  0  0  0  0  0
   62.6040   33.3370   46.9420 C   0  0  0  0  0  0  0  0  0  0  0  0
   62.8650   31.6270   49.8540 N   0  0  0  0  0  0  0  0  0  0  0  0
   63.6740   30.8330   50.6230 C   0  0  0  0  0  0  0  0  0  0  0  0
   63.1660   29.5800   51.2450 C   0  0  0  0  0  0  0  0  0  0  0  0
   61.8370   29.1770   51.0240 C   0  0  0  0  0  0  0  0  0  0  0  0
   61.3620   27.9990   51.6040 C   0  0  0  0  0  0  0  0  0  0  0  0
   62.1800   27.2390   52.3770 N   0  0  0  0  0  0  0  0  0  0  0  0
   63.4710   27.5940   52.6040 C   0  0  0  0  0  0  0  0  0  0  0  0
   63.9900   28.7620   52.0400 C   0  0  0  0  0  0  0  0  0  0  0  0
   64.9780   31.1820   50.7970 N   0  0  0  0  0  0  0  0  0  0  0  0
   67.1388   32.7070   51.5390 H   0  0  0  0  0  0  0  0  0  0  0  0
   67.5663   31.8860   49.9996 H   0  0  0  0  0  0  0  0  0  0  0  0
   67.1463   33.6325   49.9996 H   0  0  0  0  0  0  0  0  0  0  0  0
   65.0739   34.0531   49.0109 H   0  0  0  0  0  0  0  0  0  0  0  0
   61.3826   34.2415   50.0408 H   0  0  0  0  0  0  0  0  0  0  0  0
   61.4725   35.3632   48.6409 H   0  0  0  0  0  0  0  0  0  0  0  0
   59.8121   32.8213   48.9514 H   0  0  0  0  0  0  0  0  0  0  0  0
   59.2680   34.4971   48.5475 H   0  0  0  0  0  0  0  0  0  0  0  0
   58.2429   34.0779   45.1983 H   0  0  0  0  0  0  0  0  0  0  0  0
   56.6399   32.4945   44.1204 H   0  0  0  0  0  0  0  0  0  0  0  0
   57.2020   27.7424   46.5461 H   0  0  0  0  0  0  0  0  0  0  0  0
   55.2702   26.4571   46.9661 H   0  0  0  0  0  0  0  0  0  0  0  0
   54.9745   26.1313   45.2344 H   0  0  0  0  0  0  0  0  0  0  0  0
   56.9740   24.8538   47.1272 H   0  0  0  0  0  0  0  0  0  0  0  0
   56.0117   24.0847   45.8599 H   0  0  0  0  0  0  0  0  0  0  0  0
   58.6885   27.4770   44.7695 H   0  0  0  0  0  0  0  0  0  0  0  0
   57.4339   27.1193   43.5839 H   0  0  0  0  0  0  0  0  0  0  0  0
   58.4649   29.1986   46.2542 H   0  0  0  0  0  0  0  0  0  0  0  0
   60.0540   30.7829   47.3415 H   0  0  0  0  0  0  0  0  0  0  0  0
   61.3146   33.4174   45.2041 H   0  0  0  0  0  0  0  0  0  0  0  0
   61.3897   34.9440   46.1424 H   0  0  0  0  0  0  0  0  0  0  0  0
   62.7244   32.2632   46.7361 H   0  0  0  0  0  0  0  0  0  0  0  0
   63.4726   33.9042   46.5762 H   0  0  0  0  0  0  0  0  0  0  0  0
   61.8840   31.3380   49.6530 H   0  0  0  0  0  0  0  0  0  0  0  0
   61.1729   29.7885   50.3955 H   0  0  0  0  0  0  0  0  0  0  0  0
   60.3214   27.6854   51.4342 H   0  0  0  0  0  0  0  0  0  0  0  0
   64.1108   26.9592   53.2346 H   0  0  0  0  0  0  0  0  0  0  0  0
   65.0392   29.0413   52.2168 H   0  0  0  0  0  0  0  0  0  0  0  0
  1  2  1  0
  2  3  2  0
  3  4  1  0
  4  5  1  0
  5  6  1  0
  6  7  1  0
  7  8  1  0
  8  9  1  0
  9 10  2  0
 10 11  1  0
 11 12  2  0
 12 13  1  0
 13 14  2  0
 13 15  1  0
 15 16  1  0
 16 17  1  0
 17 18  1  0
 18 19  1  0
 19 20  2  0
 19 21  2  0
 19 22  1  0
 12 23  1  0
 23 24  2  0
  8 25  1  0
 25 26  1  0
  4 27  2  0
 27 28  1  0
 28 29  1  0
 29 30  2  0
 30 31  1  0
 31 32  2  0
 32 33  1  0
 33 34  2  0
 28 35  2  0
 35  2  1  0
 26  5  1  0
 34 29  1  0
 24  9  1  0
 22 16  1  0
  1 36  1  0
  1 37  1  0
  1 38  1  0
  3 39  1  0
  6 40  1  0
  6 41  1  0
  7 42  1  0
  7 43  1  0
 10 44  1  0
 11 45  1  0
 16 46  1  1
 17 47  1  0
 17 48  1  0
 18 49  1  0
 18 50  1  0
 22 51  1  0
 22 52  1  0
 23 53  1  0
 24 54  1  0
 25 55  1  0
 25 56  1  0
 26 57  1  0
 26 58  1  0
 27 59  1  0
 30 60  1  0
 31 61  1  0
 33 62  1  0
 34 63  1  0
M  CHG  2  15  -1  27   1
M  END
>  <UniqueID>  (87) 
83

>  <SMILES>  (87) 
Cc1cc(N2CCN(c3ccc(C(=O)[N-][C@H]4CCS(=O)(=O)C4)cc3)CC2)[nH+]c(-c2ccncc2)n1

>  <Energy>  (87) 
88.9273462455938

>  <Genealogy>  (87) 
Cc1cc(N2CCN(c3ccc(C(=O)[N-]C4CCS(=O)(=O)C4)cc3)CC2)[nH+]c(-c2ccncc2)n1 (protonated)
Cc1cc(N2CCN(c3ccc(C(=O)[N-][C@H]4CCS(=O)(=O)C4)cc3)CC2)[nH+]c(-c2ccncc2)n1 (chirality)
Cc1cc(N2CCN(c3ccc(C(=O)[N-][C@H]4CCS(=O)(=O)C4)cc3)CC2)[nH+]c(-c2ccncc2)n1 (3D coordinates assigned)
Cc1cc(N2CCN(c3ccc(C(=O)[N-][C@H]4CCS(=O)(=O)C4)cc3)CC2)[nH+]c(-c2ccncc2)n1 (nonaromatic ring conformer: 88.9273462455938 kcal/mol)

>  <smiles>  (87) 
Cc1cc(N2CCN(c3ccc(C(=O)NC4CCS(=O)(=O)C4)cc3)CC2)nc(-c2ccncc2)n1

>  <score_type>  (87) 
oracle

>  <origin>  (87) 
adg

>  <m_score__min__energy>  (87) 
-10.34

>  <m_primary>  (87) 
energy

$$$$
87:0
     RDKit          3D

 53 56  0  0  0  0  0  0  0  0999 V2000
   55.4430   26.6730   45.9830 N   0  0  0  0  0  0  0  0  0  0  0  0
   56.7410   26.0730   45.8760 C   0  0  0  0  0  0  0  0  0  0  0  0
   56.8390   24.7230   45.5030 C   0  0  0  0  0  0  0  0  0  0  0  0
   58.0830   24.0950   45.4290 C   0  0  0  0  0  0  0  0  0  0  0  0
   59.2450   24.8100   45.7220 C   0  0  0  0  0  0  0  0  0  0  0  0
   59.1660   26.1570   46.0800 C   0  0  0  0  0  0  0  0  0  0  0  0
   57.9190   26.8040   46.1700 C   0  0  0  0  0  0  0  0  0  0  0  0
   57.8560   28.2110   46.4740 N   0  0  0  0  0  0  0  0  0  0  0  0
   57.5600   29.2250   45.4960 C   0  0  0  0  0  0  0  0  0  0  0  0
   57.0530   28.8630   44.2360 C   0  0  0  0  0  0  0  0  0  0  0  0
   56.7660   29.8380   43.2830 C   0  0  0  0  0  0  0  0  0  0  0  0
   56.9880   31.1860   43.5690 C   0  0  0  0  0  0  0  0  0  0  0  0
   57.5320   31.5710   44.8070 C   0  0  0  0  0  0  0  0  0  0  0  0
   57.6840   32.9600   45.1490 N   0  0  0  0  0  0  0  0  0  0  0  0
   58.9010   33.7200   45.1610 C   0  0  0  0  0  0  0  0  0  0  0  0
   59.2180   34.3580   44.1230 O   0  0  0  0  0  0  0  0  0  0  0  0
   59.7560   33.8290   46.3690 C   0  0  0  0  0  0  0  0  0  0  0  0
   59.2340   34.3820   47.5510 C   0  0  0  0  0  0  0  0  0  0  0  0
   60.0290   34.4780   48.6980 C   0  0  0  0  0  0  0  0  0  0  0  0
   61.3480   34.0130   48.6790 C   0  0  0  0  0  0  0  0  0  0  0  0
   62.3440   34.1330   50.1180 Cl  0  0  0  0  0  0  0  0  0  0  0  0
   61.8710   33.4510   47.5100 C   0  0  0  0  0  0  0  0  0  0  0  0
   61.0800   33.3550   46.3620 C   0  0  0  0  0  0  0  0  0  0  0  0
   57.8310   30.5840   45.7710 C   0  0  0  0  0  0  0  0  0  0  0  0
   58.3160   30.9600   47.0720 N   0  0  0  0  0  0  0  0  0  0  0  0
   59.3800   30.2630   47.7420 C   0  0  0  0  0  0  0  0  0  0  0  0
   60.0080   29.3440   47.1490 O   0  0  0  0  0  0  0  0  0  0  0  0
   59.7670   30.6230   49.1240 C   0  0  0  0  0  0  0  0  0  0  0  0
   60.8960   30.0170   49.7060 C   0  0  0  0  0  0  0  0  0  0  0  0
   61.2790   30.3450   51.0090 C   0  0  0  0  0  0  0  0  0  0  0  0
   60.5370   31.2690   51.7470 C   0  0  0  0  0  0  0  0  0  0  0  0
   59.4040   31.8630   51.1860 C   0  0  0  0  0  0  0  0  0  0  0  0
   59.0150   31.5430   49.8810 C   0  0  0  0  0  0  0  0  0  0  0  0
   57.8760   32.0910   49.3840 F   0  0  0  0  0  0  0  0  0  0  0  0
   55.1460   27.4610   45.3680 H   0  0  0  0  0  0  0  0  0  0  0  0
   54.7940   26.3960   46.7540 H   0  0  0  0  0  0  0  0  0  0  0  0
   55.9269   24.1552   45.2670 H   0  0  0  0  0  0  0  0  0  0  0  0
   58.1477   23.0357   45.1395 H   0  0  0  0  0  0  0  0  0  0  0  0
   60.2243   24.3117   45.6708 H   0  0  0  0  0  0  0  0  0  0  0  0
   60.0874   26.7185   46.2939 H   0  0  0  0  0  0  0  0  0  0  0  0
   57.9520   28.5060   47.4710 H   0  0  0  0  0  0  0  0  0  0  0  0
   56.8816   27.8022   44.0006 H   0  0  0  0  0  0  0  0  0  0  0  0
   56.3633   29.5446   42.3023 H   0  0  0  0  0  0  0  0  0  0  0  0
   56.7357   31.9521   42.8210 H   0  0  0  0  0  0  0  0  0  0  0  0
   58.1946   34.7413   47.5743 H   0  0  0  0  0  0  0  0  0  0  0  0
   59.6160   34.9201   49.6167 H   0  0  0  0  0  0  0  0  0  0  0  0
   62.9077   33.0836   47.4942 H   0  0  0  0  0  0  0  0  0  0  0  0
   61.4953   32.9061   45.4477 H   0  0  0  0  0  0  0  0  0  0  0  0
   57.8100   31.7210   47.5780 H   0  0  0  0  0  0  0  0  0  0  0  0
   61.4795   29.2818   49.1325 H   0  0  0  0  0  0  0  0  0  0  0  0
   62.1676   29.8739   51.4546 H   0  0  0  0  0  0  0  0  0  0  0  0
   60.8446   31.5293   52.7705 H   0  0  0  0  0  0  0  0  0  0  0  0
   58.8160   32.5845   51.7722 H   0  0  0  0  0  0  0  0  0  0  0  0
  1  2  1  0
  2  3  2  0
  3  4  1  0
  4  5  2  0
  5  6  1  0
  6  7  2  0
  7  8  1  0
  8  9  1  0
  9 10  2  0
 10 11  1  0
 11 12  2  0
 12 13  1  0
 13 14  1  0
 14 15  1  0
 15 16  2  0
 15 17  1  0
 17 18  2  0
 18 19  1  0
 19 20  2  0
 20 21  1  0
 20 22  1  0
 22 23  2  0
 13 24  2  0
 24 25  1  0
 25 26  1  0
 26 27  2  0
 26 28  1  0
 28 29  2  0
 29 30  1  0
 30 31  2  0
 31 32  1  0
 32 33  2  0
 33 34  1  0
  7  2  1  0
 24  9  1  0
 33 28  1  0
 23 17  1  0
  1 35  1  0
  1 36  1  0
  3 37  1  0
  4 38  1  0
  5 39  1  0
  6 40  1  0
  8 41  1  0
 10 42  1  0
 11 43  1  0
 12 44  1  0
 18 45  1  0
 19 46  1  0
 22 47  1  0
 23 48  1  0
 25 49  1  0
 29 50  1  0
 30 51  1  0
 31 52  1  0
 32 53  1  0
M  CHG  1  14  -1
M  END
>  <UniqueID>  (88) 
84

>  <SMILES>  (88) 
Nc1ccccc1Nc1cccc([N-]C(=O)c2ccc(Cl)cc2)c1NC(=O)c1ccccc1F

>  <Energy>  (88) 
81.40861346143116

>  <Genealogy>  (88) 
Nc1ccccc1Nc1cccc([N-]C(=O)c2ccc(Cl)cc2)c1NC(=O)c1ccccc1F (protonated)
Nc1ccccc1Nc1cccc([N-]C(=O)c2ccc(Cl)cc2)c1NC(=O)c1ccccc1F (3D coordinates assigned)
Nc1ccccc1Nc1cccc([N-]C(=O)c2ccc(Cl)cc2)c1NC(=O)c1ccccc1F (optimized conformer: 81.40861346143116 kcal/mol)

>  <smiles>  (88) 
Nc1ccccc1Nc1cccc(NC(=O)c2ccc(Cl)cc2)c1NC(=O)c1ccccc1F

>  <score_type>  (88) 
oracle

>  <origin>  (88) 
adg

>  <m_score__min__energy>  (88) 
-10.91

>  <m_primary>  (88) 
energy

$$$$
88:0
     RDKit          3D

 51 54  0  0  0  0  0  0  0  0999 V2000
   54.3280   25.5730   45.9190 N   0  0  0  0  0  0  0  0  0  0  0  0
   56.0350   25.3000   45.9820 S   0  0  0  0  0  0  0  0  0  0  0  0
   56.4340   24.4660   44.7970 O   0  0  0  0  0  0  0  0  0  0  0  0
   56.3880   24.5590   47.2420 O   0  0  0  0  0  0  0  0  0  0  0  0
   56.8830   26.8450   45.9530 C   0  0  0  0  0  0  0  0  0  0  0  0
   58.1050   26.9780   46.6250 C   0  0  0  0  0  0  0  0  0  0  0  0
   58.7830   28.2010   46.6160 C   0  0  0  0  0  0  0  0  0  0  0  0
   58.2430   29.3110   45.9500 C   0  0  0  0  0  0  0  0  0  0  0  0
   58.9640   30.5560   45.9590 N   0  0  0  0  0  0  0  0  0  0  0  0
   58.4070   31.8190   45.5640 C   0  0  0  0  0  0  0  0  0  0  0  0
   57.1910   31.9190   45.2510 O   0  0  0  0  0  0  0  0  0  0  0  0
   59.2510   33.0560   45.6100 C   0  0  0  0  0  0  0  0  0  0  0  0
   59.4250   33.4900   46.9930 N   0  0  0  0  0  0  0  0  0  0  0  0
   59.6090   34.8240   47.4340 C   0  0  0  0  0  0  0  0  0  0  0  0
   59.2990   35.8310   46.7450 O   0  0  0  0  0  0  0  0  0  0  0  0
   60.1810   34.9190   48.7350 N   0  0  0  0  0  0  0  0  0  0  0  0
   60.4390   33.5540   49.2130 C   0  0  0  0  0  0  0  0  0  0  0  0
   61.9370   33.4230   49.4930 C   0  0  0  0  0  0  0  0  0  0  0  0
   62.4770   33.5590   50.7930 C   0  0  0  0  0  0  0  0  0  0  0  0
   63.8490   33.3990   51.0150 C   0  0  0  0  0  0  0  0  0  0  0  0
   64.6990   33.0720   49.9550 C   0  0  0  0  0  0  0  0  0  0  0  0
   64.1780   32.8980   48.6720 C   0  0  0  0  0  0  0  0  0  0  0  0
   62.8070   33.0610   48.4440 C   0  0  0  0  0  0  0  0  0  0  0  0
   59.5970   33.2180   50.4440 C   0  0  0  0  0  0  0  0  0  0  0  0
   59.2900   34.1880   51.4220 C   0  0  0  0  0  0  0  0  0  0  0  0
   58.4590   33.8680   52.5010 C   0  0  0  0  0  0  0  0  0  0  0  0
   57.9150   32.5870   52.6150 C   0  0  0  0  0  0  0  0  0  0  0  0
   58.2120   31.6150   51.6580 C   0  0  0  0  0  0  0  0  0  0  0  0
   59.0470   31.9240   50.5820 C   0  0  0  0  0  0  0  0  0  0  0  0
   59.9530   32.7060   48.0560 C   0  0  0  0  0  0  0  0  0  0  0  0
   60.0040   31.4450   48.0200 O   0  0  0  0  0  0  0  0  0  0  0  0
   57.0350   29.1620   45.2470 C   0  0  0  0  0  0  0  0  0  0  0  0
   56.3570   27.9400   45.2530 C   0  0  0  0  0  0  0  0  0  0  0  0
   54.1690   26.3420   45.2280 H   0  0  0  0  0  0  0  0  0  0  0  0
   58.5324   26.1179   47.1613 H   0  0  0  0  0  0  0  0  0  0  0  0
   59.7481   28.2933   47.1357 H   0  0  0  0  0  0  0  0  0  0  0  0
   59.9140   30.5630   46.3980 H   0  0  0  0  0  0  0  0  0  0  0  0
   60.2356   32.8419   45.1687 H   0  0  0  0  0  0  0  0  0  0  0  0
   58.7529   33.8546   45.0407 H   0  0  0  0  0  0  0  0  0  0  0  0
   61.8120   33.7928   51.6375 H   0  0  0  0  0  0  0  0  0  0  0  0
   64.2599   33.5310   52.0268 H   0  0  0  0  0  0  0  0  0  0  0  0
   65.7780   32.9518   50.1318 H   0  0  0  0  0  0  0  0  0  0  0  0
   64.8457   32.6325   47.8392 H   0  0  0  0  0  0  0  0  0  0  0  0
   62.4026   32.9047   47.4330 H   0  0  0  0  0  0  0  0  0  0  0  0
   59.7068   35.2023   51.3353 H   0  0  0  0  0  0  0  0  0  0  0  0
   58.2332   34.6287   53.2628 H   0  0  0  0  0  0  0  0  0  0  0  0
   57.2525   32.3438   53.4588 H   0  0  0  0  0  0  0  0  0  0  0  0
   57.7878   30.6044   51.7515 H   0  0  0  0  0  0  0  0  0  0  0  0
   59.2789   31.1516   49.8339 H   0  0  0  0  0  0  0  0  0  0  0  0
   56.6202   30.0137   44.6879 H   0  0  0  0  0  0  0  0  0  0  0  0
   55.4077   27.8369   44.7068 H   0  0  0  0  0  0  0  0  0  0  0  0
  1  2  1  0
  2  3  2  0
  2  4  2  0
  2  5  1  0
  5  6  2  0
  6  7  1  0
  7  8  2  0
  8  9  1  0
  9 10  1  0
 10 11  2  0
 10 12  1  0
 12 13  1  0
 13 14  1  0
 14 15  2  0
 14 16  1  0
 16 17  1  0
 17 18  1  0
 18 19  2  0
 19 20  1  0
 20 21  2  0
 21 22  1  0
 22 23  2  0
 17 24  1  0
 24 25  2  0
 25 26  1  0
 26 27  2  0
 27 28  1  0
 28 29  2  0
 17 30  1  0
 30 31  2  0
  8 32  1  0
 32 33  2  0
 33  5  1  0
 30 13  1  0
 23 18  1  0
 29 24  1  0
  1 34  1  0
  6 35  1  0
  7 36  1  0
  9 37  1  0
 12 38  1  0
 12 39  1  0
 19 40  1  0
 20 41  1  0
 21 42  1  0
 22 43  1  0
 23 44  1  0
 25 45  1  0
 26 46  1  0
 27 47  1  0
 28 48  1  0
 29 49  1  0
 32 50  1  0
 33 51  1  0
M  CHG  2   1  -1  16  -1
M  END
>  <UniqueID>  (89) 
85

>  <SMILES>  (89) 
[NH-]S(=O)(=O)c1ccc(NC(=O)CN2C(=O)[N-]C(c3ccccc3)(c3ccccc3)C2=O)cc1

>  <Energy>  (89) 
82.03221978231483

>  <Genealogy>  (89) 
[NH-]S(=O)(=O)c1ccc(NC(=O)CN2C(=O)[N-]C(c3ccccc3)(c3ccccc3)C2=O)cc1 (protonated)
[NH-]S(=O)(=O)c1ccc(NC(=O)CN2C(=O)[N-]C(c3ccccc3)(c3ccccc3)C2=O)cc1 (3D coordinates assigned)
[NH-]S(=O)(=O)c1ccc(NC(=O)CN2C(=O)[N-]C(c3ccccc3)(c3ccccc3)C2=O)cc1 (nonaromatic ring conformer: 82.03221978231483 kcal/mol)

>  <smiles>  (89) 
NS(=O)(=O)c1ccc(NC(=O)CN2C(=O)NC(c3ccccc3)(c3ccccc3)C2=O)cc1

>  <score_type>  (89) 
oracle

>  <origin>  (89) 
adg

>  <m_score__min__energy>  (89) 
-12.539999999999999

>  <m_primary>  (89) 
energy

$$$$
89:0
     RDKit          3D

 49 51  0  0  0  0  0  0  0  0999 V2000
   56.9450   20.3870   44.9000 C   0  0  0  0  0  0  0  0  0  0  0  0
   56.3530   22.0310   44.5550 S   0  0  0  0  0  0  0  0  0  0  0  0
   56.2390   22.1950   43.0660 O   0  0  0  0  0  0  0  0  0  0  0  0
   54.9980   22.2410   45.1690 O   0  0  0  0  0  0  0  0  0  0  0  0
   57.4740   23.2100   45.1630 N   0  0  0  0  0  0  0  0  0  0  0  0
   57.2230   24.6270   45.2080 C   0  0  0  0  0  0  0  0  0  0  0  0
   58.0220   25.4850   44.4390 C   0  0  0  0  0  0  0  0  0  0  0  0
   57.8090   26.8660   44.4550 C   0  0  0  0  0  0  0  0  0  0  0  0
   56.7810   27.4200   45.2370 C   0  0  0  0  0  0  0  0  0  0  0  0
   56.5500   28.8830   45.2540 C   0  0  0  0  0  0  0  0  0  0  0  0
   55.4470   29.3500   44.8580 O   0  0  0  0  0  0  0  0  0  0  0  0
   57.5590   29.7640   45.7700 N   0  0  0  0  0  0  0  0  0  0  0  0
   57.8520   31.0890   45.3070 C   0  0  0  0  0  0  0  0  0  0  0  0
   57.4910   31.5280   44.0210 C   0  0  0  0  0  0  0  0  0  0  0  0
   57.8140   32.8220   43.6040 C   0  0  0  0  0  0  0  0  0  0  0  0
   58.5080   33.6830   44.4560 C   0  0  0  0  0  0  0  0  0  0  0  0
   58.8940   33.2490   45.7320 C   0  0  0  0  0  0  0  0  0  0  0  0
   59.7740   34.3330   46.8110 S   0  0  0  0  0  0  0  0  0  0  0  0
   58.9070   34.6670   47.9930 O   0  0  0  0  0  0  0  0  0  0  0  0
   60.0780   35.6130   46.0830 O   0  0  0  0  0  0  0  0  0  0  0  0
   61.2670   33.6210   47.3730 N   0  0  0  0  0  0  0  0  0  0  0  0
   61.6340   34.1630   48.6890 C   0  0  0  0  0  0  0  0  0  0  0  0
   62.9530   33.5230   49.1740 C   0  0  0  0  0  0  0  0  0  0  0  0
   63.5360   32.6890   48.1890 O   0  0  0  0  0  0  0  0  0  0  0  0
   63.7070   33.4130   46.9860 C   0  0  0  0  0  0  0  0  0  0  0  0
   62.3490   33.8610   46.4050 C   0  0  0  0  0  0  0  0  0  0  0  0
   58.5730   31.9480   46.1470 C   0  0  0  0  0  0  0  0  0  0  0  0
   55.9730   26.5590   46.0010 C   0  0  0  0  0  0  0  0  0  0  0  0
   56.1910   25.1790   45.9880 C   0  0  0  0  0  0  0  0  0  0  0  0
   56.9988   20.2376   45.9885 H   0  0  0  0  0  0  0  0  0  0  0  0
   56.2559   19.6498   44.4623 H   0  0  0  0  0  0  0  0  0  0  0  0
   57.9459   20.2583   44.4623 H   0  0  0  0  0  0  0  0  0  0  0  0
   58.3600   22.8430   45.5750 H   0  0  0  0  0  0  0  0  0  0  0  0
   58.8259   25.0662   43.8158 H   0  0  0  0  0  0  0  0  0  0  0  0
   58.4507   27.5244   43.8510 H   0  0  0  0  0  0  0  0  0  0  0  0
   56.9528   30.8510   43.3413 H   0  0  0  0  0  0  0  0  0  0  0  0
   57.5203   33.1635   42.6005 H   0  0  0  0  0  0  0  0  0  0  0  0
   58.7523   34.7034   44.1257 H   0  0  0  0  0  0  0  0  0  0  0  0
   61.7648   35.2524   48.6108 H   0  0  0  0  0  0  0  0  0  0  0  0
   60.8350   33.9342   49.4096 H   0  0  0  0  0  0  0  0  0  0  0  0
   63.6637   34.3238   49.4262 H   0  0  0  0  0  0  0  0  0  0  0  0
   62.7240   32.9005   50.0515 H   0  0  0  0  0  0  0  0  0  0  0  0
   64.3220   34.3026   47.1872 H   0  0  0  0  0  0  0  0  0  0  0  0
   64.1999   32.7577   46.2527 H   0  0  0  0  0  0  0  0  0  0  0  0
   62.3927   34.9348   46.1705 H   0  0  0  0  0  0  0  0  0  0  0  0
   62.1444   33.2805   45.4933 H   0  0  0  0  0  0  0  0  0  0  0  0
   58.8902   31.5990   47.1408 H   0  0  0  0  0  0  0  0  0  0  0  0
   55.1612   26.9762   46.6150 H   0  0  0  0  0  0  0  0  0  0  0  0
   55.5508   24.5194   46.5922 H   0  0  0  0  0  0  0  0  0  0  0  0
  1  2  1  0
  2  3  2  0
  2  4  2  0
  2  5  1  0
  5  6  1  0
  6  7  2  0
  7  8  1  0
  8  9  2  0
  9 10  1  0
 10 11  2  0
 10 12  1  0
 12 13  1  0
 13 14  2  0
 14 15  1  0
 15 16  2  0
 16 17  1  0
 17 18  1  0
 18 19  2  0
 18 20  2  0
 18 21  1  0
 21 22  1  0
 22 23  1  0
 23 24  1  0
 24 25  1  0
 25 26  1  0
 17 27  2  0
  9 28  1  0
 28 29  2  0
 29  6  1  0
 27 13  1  0
 26 21  1  0
  1 30  1  0
  1 31  1  0
  1 32  1  0
  5 33  1  0
  7 34  1  0
  8 35  1  0
 14 36  1  0
 15 37  1  0
 16 38  1  0
 22 39  1  0
 22 40  1  0
 23 41  1  0
 23 42  1  0
 25 43  1  0
 25 44  1  0
 26 45  1  0
 26 46  1  0
 27 47  1  0
 28 48  1  0
 29 49  1  0
M  CHG  1  12  -1
M  END
>  <UniqueID>  (90) 
86

>  <SMILES>  (90) 
CS(=O)(=O)Nc1ccc(C(=O)[N-]c2cccc(S(=O)(=O)N3CCOCC3)c2)cc1

>  <Energy>  (90) 
60.50500316420009

>  <Genealogy>  (90) 
CS(=O)(=O)Nc1ccc(C(=O)[N-]c2cccc(S(=O)(=O)N3CCOCC3)c2)cc1 (protonated)
CS(=O)(=O)Nc1ccc(C(=O)[N-]c2cccc(S(=O)(=O)N3CCOCC3)c2)cc1 (3D coordinates assigned)
CS(=O)(=O)Nc1ccc(C(=O)[N-]c2cccc(S(=O)(=O)N3CCOCC3)c2)cc1 (nonaromatic ring conformer: 60.50500316420009 kcal/mol)

>  <smiles>  (90) 
CS(=O)(=O)Nc1ccc(C(=O)Nc2cccc(S(=O)(=O)N3CCOCC3)c2)cc1

>  <score_type>  (90) 
oracle

>  <origin>  (90) 
adg

>  <m_score__min__energy>  (90) 
-10.67

>  <m_primary>  (90) 
energy

$$$$
90:0
     RDKit          3D

 46 49  0  0  0  0  0  0  0  0999 V2000
   58.9530   34.9850   45.1250 C   0  0  0  0  0  0  0  0  0  0  0  0
   58.4960   33.5600   45.0220 C   0  0  0  0  0  0  0  0  0  0  0  0
   58.2720   32.8030   46.1820 C   0  0  0  0  0  0  0  0  0  0  0  0
   57.7940   31.4920   46.0870 C   0  0  0  0  0  0  0  0  0  0  0  0
   57.5260   30.9290   44.8320 C   0  0  0  0  0  0  0  0  0  0  0  0
   56.8640   29.3040   44.7280 S   0  0  0  0  0  0  0  0  0  0  0  0
   55.3670   29.3410   44.8580 O   0  0  0  0  0  0  0  0  0  0  0  0
   57.2100   28.6910   43.3990 O   0  0  0  0  0  0  0  0  0  0  0  0
   57.5200   28.3470   46.0090 N   0  0  0  0  0  0  0  0  0  0  0  0
   57.7570   26.9500   45.8410 C   0  0  0  0  0  0  0  0  0  0  0  0
   57.0310   26.2480   44.8710 C   0  0  0  0  0  0  0  0  0  0  0  0
   57.2830   24.8890   44.6400 C   0  0  0  0  0  0  0  0  0  0  0  0
   56.5790   24.2030   43.6920 N   0  0  0  0  0  0  0  0  0  0  0  0
   56.8150   22.8840   43.4460 C   0  0  0  0  0  0  0  0  0  0  0  0
   56.1490   22.2780   42.5640 O   0  0  0  0  0  0  0  0  0  0  0  0
   57.7960   22.1980   44.1690 C   0  0  0  0  0  0  0  0  0  0  0  0
   58.5300   22.8740   45.1420 C   0  0  0  0  0  0  0  0  0  0  0  0
   58.2810   24.2290   45.3890 C   0  0  0  0  0  0  0  0  0  0  0  0
   59.0070   24.9330   46.3590 C   0  0  0  0  0  0  0  0  0  0  0  0
   58.7420   26.2850   46.6050 C   0  0  0  0  0  0  0  0  0  0  0  0
   59.5210   26.9450   47.5670 O   0  0  0  0  0  0  0  0  0  0  0  0
   59.9390   28.2810   47.5040 C   0  0  0  0  0  0  0  0  0  0  0  0
   60.4690   28.8420   46.3270 C   0  0  0  0  0  0  0  0  0  0  0  0
   60.8810   30.1790   46.3110 C   0  0  0  0  0  0  0  0  0  0  0  0
   60.7490   30.9680   47.4560 C   0  0  0  0  0  0  0  0  0  0  0  0
   60.1960   30.4230   48.6190 C   0  0  0  0  0  0  0  0  0  0  0  0
   59.7860   29.0870   48.6400 C   0  0  0  0  0  0  0  0  0  0  0  0
   57.7290   31.6900   43.6730 C   0  0  0  0  0  0  0  0  0  0  0  0
   58.2090   33.0000   43.7680 C   0  0  0  0  0  0  0  0  0  0  0  0
   59.0430   35.2655   46.1848 H   0  0  0  0  0  0  0  0  0  0  0  0
   59.9308   35.0930   44.6329 H   0  0  0  0  0  0  0  0  0  0  0  0
   58.2203   35.6415   44.6329 H   0  0  0  0  0  0  0  0  0  0  0  0
   58.4732   33.2424   47.1702 H   0  0  0  0  0  0  0  0  0  0  0  0
   57.6280   30.9012   46.9999 H   0  0  0  0  0  0  0  0  0  0  0  0
   56.2573   26.7670   44.2861 H   0  0  0  0  0  0  0  0  0  0  0  0
   55.8400   24.6950   43.1360 H   0  0  0  0  0  0  0  0  0  0  0  0
   57.9869   21.1329   43.9712 H   0  0  0  0  0  0  0  0  0  0  0  0
   59.3043   22.3431   45.7153 H   0  0  0  0  0  0  0  0  0  0  0  0
   59.7922   24.4184   46.9322 H   0  0  0  0  0  0  0  0  0  0  0  0
   60.5594   28.2285   45.4185 H   0  0  0  0  0  0  0  0  0  0  0  0
   61.3100   30.6099   45.3943 H   0  0  0  0  0  0  0  0  0  0  0  0
   61.0797   32.0170   47.4429 H   0  0  0  0  0  0  0  0  0  0  0  0
   60.0836   31.0464   49.5183 H   0  0  0  0  0  0  0  0  0  0  0  0
   59.3407   28.6659   49.5534 H   0  0  0  0  0  0  0  0  0  0  0  0
   57.5103   31.2559   42.6862 H   0  0  0  0  0  0  0  0  0  0  0  0
   58.3623   33.5943   42.8551 H   0  0  0  0  0  0  0  0  0  0  0  0
  1  2  1  0
  2  3  2  0
  3  4  1  0
  4  5  2  0
  5  6  1  0
  6  7  2  0
  6  8  2  0
  6  9  1  0
  9 10  1  0
 10 11  2  0
 11 12  1  0
 12 13  1  0
 13 14  1  0
 14 15  2  0
 14 16  1  0
 16 17  2  0
 17 18  1  0
 18 19  1  0
 19 20  2  0
 20 21  1  0
 21 22  1  0
 22 23  2  0
 23 24  1  0
 24 25  2  0
 25 26  1  0
 26 27  2  0
  5 28  1  0
 28 29  2  0
 29  2  1  0
 20 10  1  0
 27 22  1  0
 18 12  2  0
  1 30  1  0
  1 31  1  0
  1 32  1  0
  3 33  1  0
  4 34  1  0
 11 35  1  0
 13 36  1  0
 16 37  1  0
 17 38  1  0
 19 39  1  0
 23 40  1  0
 24 41  1  0
 25 42  1  0
 26 43  1  0
 27 44  1  0
 28 45  1  0
 29 46  1  0
M  CHG  1   9  -1
M  END
>  <UniqueID>  (91) 
87

>  <SMILES>  (91) 
Cc1ccc(S(=O)(=O)[N-]c2cc3[nH]c(=O)ccc3cc2Oc2ccccc2)cc1

>  <Energy>  (91) 
67.42376709764147

>  <Genealogy>  (91) 
Cc1ccc(S(=O)(=O)[N-]c2cc3[nH]c(=O)ccc3cc2Oc2ccccc2)cc1 (protonated)
Cc1ccc(S(=O)(=O)[N-]c2cc3[nH]c(=O)ccc3cc2Oc2ccccc2)cc1 (3D coordinates assigned)
Cc1ccc(S(=O)(=O)[N-]c2cc3[nH]c(=O)ccc3cc2Oc2ccccc2)cc1 (optimized conformer: 67.42376709764147 kcal/mol)

>  <smiles>  (91) 
Cc1ccc(S(=O)(=O)Nc2cc3[nH]c(=O)ccc3cc2Oc2ccccc2)cc1

>  <score_type>  (91) 
oracle

>  <origin>  (91) 
adg

>  <m_score__min__energy>  (91) 
-10.44

>  <m_primary>  (91) 
energy

$$$$
91:0
     RDKit          3D

 89 94  0  0  0  0  0  0  0  0999 V2000
   64.7920   32.4610   49.4750 C   0  0  0  0  0  0  0  0  0  0  0  0
   63.3740   32.7130   48.8630 C   0  0  0  0  0  0  0  0  0  0  0  0
   63.3880   32.0720   47.4410 C   0  0  0  0  0  0  0  0  0  0  0  0
   63.0470   34.2200   48.8660 C   0  0  2  0  0  0  0  0  0  0  0  0
   62.9480   34.5550   50.3790 C   0  0  0  0  0  0  0  0  0  0  0  0
   62.3400   33.2750   50.9880 C   0  0  0  0  0  0  0  0  0  0  0  0
   62.1240   32.3770   49.7370 C   0  0  2  0  0  0  0  0  0  0  0  0
   61.7640   30.8830   50.0150 C   0  0  0  0  0  0  0  0  0  0  0  0
   62.1900   30.1570   51.6040 S   0  0  0  0  0  0  0  0  0  0  0  0
   63.1030   31.0820   52.3520 O   0  0  0  0  0  0  0  0  0  0  0  0
   62.9680   28.9020   51.3210 O   0  0  0  0  0  0  0  0  0  0  0  0
   60.7390   29.7750   52.5120 N   0  0  0  0  0  0  0  0  0  0  0  0
   59.7920   28.8790   51.7950 C   0  0  0  0  0  0  0  0  0  0  0  0
   58.5220   29.6030   51.3180 C   0  0  0  0  0  0  0  0  0  0  0  0
   57.7640   30.3070   52.4910 C   0  0  0  0  0  0  0  0  0  0  0  0
   56.9800   31.5520   51.9520 C   0  0  0  0  0  0  0  0  0  0  0  0
   55.4790   31.2110   51.9770 C   0  0  0  0  0  0  0  0  0  0  0  0
   55.4140   29.9300   52.7110 C   0  0  0  0  0  0  0  0  0  0  0  0
   54.2490   29.2490   53.0710 C   0  0  0  0  0  0  0  0  0  0  0  0
   54.3620   28.0260   53.7500 C   0  0  0  0  0  0  0  0  0  0  0  0
   55.6310   27.5050   54.0630 C   0  0  0  0  0  0  0  0  0  0  0  0
   56.7870   28.2030   53.6880 C   0  0  0  0  0  0  0  0  0  0  0  0
   56.6590   29.4250   53.0060 C   0  0  0  0  0  0  0  0  0  0  0  0
   58.7390   30.7020   53.6480 C   0  0  0  0  0  0  0  0  0  0  0  0
   60.1330   30.9960   53.0930 C   0  0  0  0  0  0  0  0  0  0  0  0
   60.9580   33.0300   48.9000 C   0  0  1  0  0  0  0  0  0  0  0  0
   59.7570   33.3400   49.7090 N   0  0  0  0  0  0  0  0  0  0  0  0
   58.5490   32.6620   49.2120 C   0  0  0  0  0  0  0  0  0  0  0  0
   58.9150   31.6300   48.1870 C   0  0  0  0  0  0  0  0  0  0  0  0
   59.1930   30.4620   48.5690 O   0  0  0  0  0  0  0  0  0  0  0  0
   58.9980   31.9350   46.7850 N   0  0  0  0  0  0  0  0  0  0  0  0
   58.0210   31.5740   45.7580 C   0  0  0  0  0  0  0  0  0  0  0  0
   57.7130   30.1070   45.7760 C   0  0  0  0  0  0  0  0  0  0  0  0
   56.6480   29.6950   45.2430 O   0  0  0  0  0  0  0  0  0  0  0  0
   58.5950   29.1860   46.4410 N   0  0  0  0  0  0  0  0  0  0  0  0
   58.5420   27.7610   46.2510 C   0  0  0  0  0  0  0  0  0  0  0  0
   59.7160   26.9940   46.1300 C   0  0  0  0  0  0  0  0  0  0  0  0
   59.6420   25.6090   45.9790 C   0  0  0  0  0  0  0  0  0  0  0  0
   58.4000   24.9710   45.9540 C   0  0  0  0  0  0  0  0  0  0  0  0
   57.2210   25.7190   46.0870 C   0  0  0  0  0  0  0  0  0  0  0  0
   55.6510   24.9230   46.0100 S   0  0  0  0  0  0  0  0  0  0  0  0
   54.4040   26.1200   45.9440 N   0  0  0  0  0  0  0  0  0  0  0  0
   55.4570   24.0610   47.2250 O   0  0  0  0  0  0  0  0  0  0  0  0
   55.5770   24.0550   44.7820 O   0  0  0  0  0  0  0  0  0  0  0  0
   57.2980   27.1110   46.2410 C   0  0  0  0  0  0  0  0  0  0  0  0
   61.6150   34.2960   48.3050 C   0  0  0  0  0  0  0  0  0  0  0  0
   64.7249   32.4729   50.5729 H   0  0  0  0  0  0  0  0  0  0  0  0
   65.1668   31.4822   49.1412 H   0  0  0  0  0  0  0  0  0  0  0  0
   65.4811   33.2508   49.1412 H   0  0  0  0  0  0  0  0  0  0  0  0
   63.4119   30.9761   47.5330 H   0  0  0  0  0  0  0  0  0  0  0  0
   62.4830   32.3743   46.8936 H   0  0  0  0  0  0  0  0  0  0  0  0
   64.2789   32.4135   46.8936 H   0  0  0  0  0  0  0  0  0  0  0  0
   63.7519   34.8622   48.3176 H   0  0  0  0  0  0  0  0  0  0  0  0
   63.9422   34.7591   50.8031 H   0  0  0  0  0  0  0  0  0  0  0  0
   62.3483   35.4545   50.5819 H   0  0  0  0  0  0  0  0  0  0  0  0
   63.0344   32.8048   51.6998 H   0  0  0  0  0  0  0  0  0  0  0  0
   61.4192   33.4568   51.5616 H   0  0  0  0  0  0  0  0  0  0  0  0
   60.6740   30.7888   49.9009 H   0  0  0  0  0  0  0  0  0  0  0  0
   62.3869   30.3270   49.2988 H   0  0  0  0  0  0  0  0  0  0  0  0
   60.3049   28.4570   50.9181 H   0  0  0  0  0  0  0  0  0  0  0  0
   59.4784   28.0981   52.5034 H   0  0  0  0  0  0  0  0  0  0  0  0
   58.8058   30.3621   50.5742 H   0  0  0  0  0  0  0  0  0  0  0  0
   57.8473   28.8494   50.8857 H   0  0  0  0  0  0  0  0  0  0  0  0
   57.1762   32.4239   52.5933 H   0  0  0  0  0  0  0  0  0  0  0  0
   57.3016   31.7944   50.9284 H   0  0  0  0  0  0  0  0  0  0  0  0
   54.9096   31.9918   52.5025 H   0  0  0  0  0  0  0  0  0  0  0  0
   55.0440   31.1432   50.9689 H   0  0  0  0  0  0  0  0  0  0  0  0
   53.2601   29.6640   52.8266 H   0  0  0  0  0  0  0  0  0  0  0  0
   53.4558   27.4731   54.0384 H   0  0  0  0  0  0  0  0  0  0  0  0
   55.7158   26.5499   54.6020 H   0  0  0  0  0  0  0  0  0  0  0  0
   57.7825   27.7992   53.9246 H   0  0  0  0  0  0  0  0  0  0  0  0
   58.3545   31.5988   54.1558 H   0  0  0  0  0  0  0  0  0  0  0  0
   58.8070   29.8652   54.3587 H   0  0  0  0  0  0  0  0  0  0  0  0
   60.0545   31.7660   52.3114 H   0  0  0  0  0  0  0  0  0  0  0  0
   60.7720   31.3480   53.9162 H   0  0  0  0  0  0  0  0  0  0  0  0
   60.5654   32.3478   48.1315 H   0  0  0  0  0  0  0  0  0  0  0  0
   59.5690   34.3700   49.7090 H   0  0  0  0  0  0  0  0  0  0  0  0
   58.0360   32.1722   50.0528 H   0  0  0  0  0  0  0  0  0  0  0  0
   57.8860   33.4072   48.7482 H   0  0  0  0  0  0  0  0  0  0  0  0
   57.0921   32.1354   45.9368 H   0  0  0  0  0  0  0  0  0  0  0  0
   58.4491   31.8222   44.7756 H   0  0  0  0  0  0  0  0  0  0  0  0
   59.2170   29.5660   47.1910 H   0  0  0  0  0  0  0  0  0  0  0  0
   60.6977   27.4896   46.1546 H   0  0  0  0  0  0  0  0  0  0  0  0
   60.5644   25.0180   45.8794 H   0  0  0  0  0  0  0  0  0  0  0  0
   58.3462   23.8794   45.8297 H   0  0  0  0  0  0  0  0  0  0  0  0
   54.7860   26.9760   46.4040 H   0  0  0  0  0  0  0  0  0  0  0  0
   56.3751   27.6986   46.3550 H   0  0  0  0  0  0  0  0  0  0  0  0
   61.6161   34.2645   47.2055 H   0  0  0  0  0  0  0  0  0  0  0  0
   61.0900   35.2271   48.5647 H   0  0  0  0  0  0  0  0  0  0  0  0
  1  2  1  0
  2  3  1  0
  2  4  1  0
  4  5  1  0
  5  6  1  0
  6  7  1  0
  7  8  1  1
  8  9  1  0
  9 10  2  0
  9 11  2  0
  9 12  1  0
 12 13  1  0
 13 14  1  0
 14 15  1  0
 15 16  1  0
 16 17  1  0
 17 18  1  0
 18 19  2  0
 19 20  1  0
 20 21  2  0
 21 22  1  0
 22 23  2  0
 15 24  1  0
 24 25  1  0
  7 26  1  0
 26 27  1  0
 27 28  1  0
 28 29  1  0
 29 30  2  0
 29 31  1  0
 31 32  1  0
 32 33  1  0
 33 34  2  0
 33 35  1  0
 35 36  1  0
 36 37  2  0
 37 38  1  0
 38 39  2  0
 39 40  1  0
 40 41  1  0
 41 42  1  0
 41 43  2  0
 41 44  2  0
 40 45  2  0
 26 46  1  0
  7  2  1  0
 25 12  1  0
 45 36  1  0
 46  4  1  0
 23 15  1  0
 23 18  1  0
  1 47  1  0
  1 48  1  0
  1 49  1  0
  3 50  1  0
  3 51  1  0
  3 52  1  0
  4 53  1  6
  5 54  1  0
  5 55  1  0
  6 56  1  0
  6 57  1  0
  8 58  1  0
  8 59  1  0
 13 60  1  0
 13 61  1  0
 14 62  1  0
 14 63  1  0
 16 64  1  0
 16 65  1  0
 17 66  1  0
 17 67  1  0
 19 68  1  0
 20 69  1  0
 21 70  1  0
 22 71  1  0
 24 72  1  0
 24 73  1  0
 25 74  1  0
 25 75  1  0
 26 76  1  6
 27 77  1  0
 28 78  1  0
 28 79  1  0
 32 80  1  0
 32 81  1  0
 35 82  1  0
 37 83  1  0
 38 84  1  0
 39 85  1  0
 42 86  1  0
 45 87  1  0
 46 88  1  0
 46 89  1  0
M  CHG  2  31  -1  42  -1
M  END
>  <UniqueID>  (92) 
88

>  <SMILES>  (92) 
CC1(C)[C@@H]2CC[C@@]1(CS(=O)(=O)N1CCC3(CCc4ccccc43)CC1)C(NCC(=O)[N-]CC(=O)Nc1cccc(S([NH-])(=O)=O)c1)C2

>  <Energy>  (92) 
157.8133188583632

>  <Genealogy>  (92) 
CC1(C)C2CCC1(CS(=O)(=O)N1CCC3(CCc4ccccc43)CC1)C(NCC(=O)[N-]CC(=O)Nc1cccc(S([NH-])(=O)=O)c1)C2 (protonated)
CC1(C)[C@@H]2CC[C@@]1(CS(=O)(=O)N1CCC3(CCc4ccccc43)CC1)C(NCC(=O)[N-]CC(=O)Nc1cccc(S([NH-])(=O)=O)c1)C2 (chirality)
CC1(C)[C@@H]2CC[C@@]1(CS(=O)(=O)N1CCC3(CCc4ccccc43)CC1)C(NCC(=O)[N-]CC(=O)Nc1cccc(S([NH-])(=O)=O)c1)C2 (3D coordinates assigned)
CC1(C)[C@@H]2CC[C@@]1(CS(=O)(=O)N1CCC3(CCc4ccccc43)CC1)C(NCC(=O)[N-]CC(=O)Nc1cccc(S([NH-])(=O)=O)c1)C2 (nonaromatic ring conformer: 157.8133188583632 kcal/mol)

>  <smiles>  (92) 
CC1(C)C2CCC1(CS(=O)(=O)N1CCC3(CCc4ccccc43)CC1)C(NCC(=O)NCC(=O)Nc1cccc(S(N)(=O)=O)c1)C2

>  <score_type>  (92) 
oracle

>  <origin>  (92) 
adg

>  <m_score__min__energy>  (92) 
-15.880000000000001

>  <m_primary>  (92) 
energy

$$$$
92:0
     RDKit          3D

 30 31  0  0  0  0  0  0  0  0999 V2000
   59.1000   35.0690   45.1820 C   0  0  0  0  0  0  0  0  0  0  0  0
   58.8130   33.6260   45.4460 C   0  0  0  0  0  0  0  0  0  0  0  0
   59.7580   32.8250   46.0920 C   0  0  0  0  0  0  0  0  0  0  0  0
   59.4720   31.4710   46.2790 C   0  0  0  0  0  0  0  0  0  0  0  0
   60.6810   30.4010   47.0660 S   0  0  0  0  0  0  0  0  0  0  0  0
   60.6470   29.1310   45.7500 C   0  0  0  0  0  0  0  0  0  0  0  0
   59.4470   28.2340   45.8930 C   0  0  0  0  0  0  0  0  0  0  0  0
   59.0780   27.7330   47.1500 C   0  0  0  0  0  0  0  0  0  0  0  0
   57.9320   26.9470   47.2900 C   0  0  0  0  0  0  0  0  0  0  0  0
   57.1340   26.6460   46.1710 C   0  0  0  0  0  0  0  0  0  0  0  0
   55.9150   25.8190   46.3140 C   0  0  0  0  0  0  0  0  0  0  0  0
   55.9910   24.6370   46.7460 O   0  0  0  0  0  0  0  0  0  0  0  0
   54.6700   26.3340   45.9730 O   0  0  0  0  0  0  0  0  0  0  0  0
   57.5090   27.1460   44.9120 C   0  0  0  0  0  0  0  0  0  0  0  0
   58.6550   27.9350   44.7760 C   0  0  0  0  0  0  0  0  0  0  0  0
   58.2810   30.9650   45.8550 N   0  0  0  0  0  0  0  0  0  0  0  0
   57.3710   31.7610   45.2300 C   0  0  0  0  0  0  0  0  0  0  0  0
   56.2770   31.2800   44.8350 O   0  0  0  0  0  0  0  0  0  0  0  0
   57.6430   33.0760   45.0270 N   0  0  0  0  0  0  0  0  0  0  0  0
   59.2061   35.6026   46.1380 H   0  0  0  0  0  0  0  0  0  0  0  0
   60.0334   35.1579   44.6068 H   0  0  0  0  0  0  0  0  0  0  0  0
   58.2716   35.5083   44.6068 H   0  0  0  0  0  0  0  0  0  0  0  0
   60.7078   33.2521   46.4461 H   0  0  0  0  0  0  0  0  0  0  0  0
   60.6079   29.6298   44.7704 H   0  0  0  0  0  0  0  0  0  0  0  0
   61.5549   28.5158   45.8348 H   0  0  0  0  0  0  0  0  0  0  0  0
   59.6953   27.9607   48.0315 H   0  0  0  0  0  0  0  0  0  0  0  0
   57.6516   26.5609   48.2811 H   0  0  0  0  0  0  0  0  0  0  0  0
   56.8967   26.9149   44.0279 H   0  0  0  0  0  0  0  0  0  0  0  0
   58.9369   28.3235   43.7863 H   0  0  0  0  0  0  0  0  0  0  0  0
   58.0710   29.9510   46.0010 H   0  0  0  0  0  0  0  0  0  0  0  0
  1  2  1  0
  2  3  1  0
  3  4  2  0
  4  5  1  0
  5  6  1  0
  6  7  1  0
  7  8  2  0
  8  9  1  0
  9 10  2  0
 10 11  1  0
 11 12  2  0
 11 13  1  0
 10 14  1  0
 14 15  2  0
  4 16  1  0
 16 17  1  0
 17 18  2  0
 17 19  1  0
 19  2  2  0
 15  7  1  0
  1 20  1  0
  1 21  1  0
  1 22  1  0
  3 23  1  0
  6 24  1  0
  6 25  1  0
  8 26  1  0
  9 27  1  0
 14 28  1  0
 15 29  1  0
 16 30  1  0
M  CHG  1  13  -1
M  END
>  <UniqueID>  (93) 
89

>  <SMILES>  (93) 
Cc1cc(SCc2ccc(C(=O)[O-])cc2)[nH]c(=O)n1

>  <Energy>  (93) 
24.78177223201929

>  <Genealogy>  (93) 
Cc1cc(SCc2ccc(C(=O)[O-])cc2)[nH]c(=O)n1 (protonated)
Cc1cc(SCc2ccc(C(=O)[O-])cc2)[nH]c(=O)n1 (3D coordinates assigned)
Cc1cc(SCc2ccc(C(=O)[O-])cc2)[nH]c(=O)n1 (optimized conformer: 24.78177223201929 kcal/mol)

>  <smiles>  (93) 
Cc1cc(SCc2ccc(C(=O)O)cc2)[nH]c(=O)n1

>  <score_type>  (93) 
oracle

>  <origin>  (93) 
adg

>  <m_score__min__energy>  (93) 
-9.5299999999999994

>  <m_primary>  (93) 
energy

$$$$
93:0
     RDKit          3D

 56 60  0  0  0  0  0  0  0  0999 V2000
   60.0102   36.2017   46.2975 H   0  0  0  0  0  0  0  0  0  0  0  0
   59.6350   35.2000   46.0410 C   0  0  0  0  0  0  0  0  0  0  0  0
   58.8020   35.0280   44.9320 C   0  0  0  0  0  0  0  0  0  0  0  0
   58.5253   35.8941   44.3130 H   0  0  0  0  0  0  0  0  0  0  0  0
   58.3190   33.7530   44.6080 C   0  0  0  0  0  0  0  0  0  0  0  0
   57.6671   33.6218   43.7317 H   0  0  0  0  0  0  0  0  0  0  0  0
   58.6620   32.6420   45.3950 C   0  0  0  0  0  0  0  0  0  0  0  0
   59.5140   32.8130   46.5080 C   0  0  0  0  0  0  0  0  0  0  0  0
   59.9910   34.0980   46.8240 C   0  0  0  0  0  0  0  0  0  0  0  0
   60.6494   34.2369   47.6942 H   0  0  0  0  0  0  0  0  0  0  0  0
   59.9500   31.6430   47.3610 C   0  0  0  0  0  0  0  0  0  0  0  0
   61.0391   31.5256   47.2607 H   0  0  0  0  0  0  0  0  0  0  0  0
   59.6482   31.8659   48.3951 H   0  0  0  0  0  0  0  0  0  0  0  0
   59.3070   30.3710   46.9860 N   0  0  0  0  0  0  0  0  0  0  0  0
   59.8000   29.1460   47.5720 C   0  0  0  0  0  0  0  0  0  0  0  0
   60.1990   28.1200   46.7760 N   0  0  0  0  0  0  0  0  0  0  0  0
   60.6750   26.9670   47.3170 C   0  0  0  0  0  0  0  0  0  0  0  0
   61.0750   25.9880   46.5600 N   0  0  0  0  0  0  0  0  0  0  0  0
   60.2050   24.9520   46.0000 C   0  0  0  0  0  0  0  0  0  0  0  0
   60.2994   24.0376   46.6041 H   0  0  0  0  0  0  0  0  0  0  0  0
   60.5115   24.7603   44.9611 H   0  0  0  0  0  0  0  0  0  0  0  0
   58.7650   25.3980   46.0020 C   0  0  0  0  0  0  0  0  0  0  0  0
   58.3640   26.4940   45.2180 C   0  0  0  0  0  0  0  0  0  0  0  0
   59.0987   27.0116   44.5838 H   0  0  0  0  0  0  0  0  0  0  0  0
   57.0350   26.9290   45.2410 C   0  0  0  0  0  0  0  0  0  0  0  0
   56.7282   27.7897   44.6285 H   0  0  0  0  0  0  0  0  0  0  0  0
   56.0950   26.2710   46.0420 C   0  0  0  0  0  0  0  0  0  0  0  0
   54.7740   26.7050   46.0650 O   0  0  0  0  0  0  0  0  0  0  0  0
   56.4850   25.1770   46.8210 C   0  0  0  0  0  0  0  0  0  0  0  0
   55.7454   24.6590   47.4492 H   0  0  0  0  0  0  0  0  0  0  0  0
   57.8140   24.7400   46.8030 C   0  0  0  0  0  0  0  0  0  0  0  0
   58.1163   23.8790   47.4173 H   0  0  0  0  0  0  0  0  0  0  0  0
   60.7430   26.8380   48.6640 N   0  0  0  0  0  0  0  0  0  0  0  0
   60.3380   27.8510   49.4760 C   0  0  0  0  0  0  0  0  0  0  0  0
   60.3980   27.7110   50.9110 N   0  0  0  0  0  0  0  0  0  0  0  0
   61.0920   26.5740   51.5340 C   0  0  0  0  0  0  0  0  0  0  0  0
   61.1640   25.7552   50.8029 H   0  0  0  0  0  0  0  0  0  0  0  0
   62.0919   26.9095   51.8464 H   0  0  0  0  0  0  0  0  0  0  0  0
   60.3390   26.0660   52.7840 C   0  0  0  0  0  0  0  0  0  0  0  0
   59.6645   25.2548   52.4725 H   0  0  0  0  0  0  0  0  0  0  0  0
   61.1072   25.7366   53.4991 H   0  0  0  0  0  0  0  0  0  0  0  0
   59.5360   27.0930   53.4750 N   0  0  0  0  0  0  0  0  0  0  0  0
   58.5470   27.0380   53.1320 H   0  0  0  0  0  0  0  0  0  0  0  0
   60.0320   28.4530   53.2420 C   0  0  0  0  0  0  0  0  0  0  0  0
   59.4372   29.1635   53.8349 H   0  0  0  0  0  0  0  0  0  0  0  0
   61.0888   28.5066   53.5424 H   0  0  0  0  0  0  0  0  0  0  0  0
   59.9150   28.8100   51.7580 C   0  0  0  0  0  0  0  0  0  0  0  0
   58.8604   29.0114   51.5188 H   0  0  0  0  0  0  0  0  0  0  0  0
   60.5319   29.6995   51.5625 H   0  0  0  0  0  0  0  0  0  0  0  0
   59.8720   29.0010   48.9220 N   0  0  0  0  0  0  0  0  0  0  0  0
   58.0410   30.3850   46.2370 C   0  0  0  0  0  0  0  0  0  0  0  0
   57.7923   29.3609   45.9216 H   0  0  0  0  0  0  0  0  0  0  0  0
   57.2423   30.7793   46.8825 H   0  0  0  0  0  0  0  0  0  0  0  0
   58.1770   31.2750   45.0050 C   0  0  0  0  0  0  0  0  0  0  0  0
   58.8965   30.8208   44.3079 H   0  0  0  0  0  0  0  0  0  0  0  0
   57.1922   31.3705   44.5244 H   0  0  0  0  0  0  0  0  0  0  0  0
  1  2  1  0
  2  3  2  0
  3  4  1  0
  3  5  1  0
  5  6  1  0
  5  7  2  0
  7  8  1  0
  8  9  2  0
  9 10  1  0
  8 11  1  0
 11 12  1  0
 11 13  1  0
 11 14  1  0
 14 15  1  0
 15 16  2  0
 16 17  1  0
 17 18  2  0
 18 19  1  0
 19 20  1  0
 19 21  1  0
 19 22  1  0
 22 23  2  0
 23 24  1  0
 23 25  1  0
 25 26  1  0
 25 27  2  0
 27 28  1  0
 27 29  1  0
 29 30  1  0
 29 31  2  0
 31 32  1  0
 17 33  1  0
 33 34  2  0
 34 35  1  0
 35 36  1  0
 36 37  1  0
 36 38  1  0
 36 39  1  0
 39 40  1  0
 39 41  1  0
 39 42  1  0
 42 43  1  0
 42 44  1  0
 44 45  1  0
 44 46  1  0
 44 47  1  0
 47 48  1  0
 47 49  1  0
 34 50  1  0
 14 51  1  0
 51 52  1  0
 51 53  1  0
 51 54  1  0
 54 55  1  0
 54 56  1  0
  9  2  1  0
 50 15  1  0
 54  7  1  0
 31 22  1  0
 47 35  1  0
M  CHG  2  28  -1  50  -1
M  END
>  <UniqueID>  (94) 
90

>  <SMILES>  (94) 
[O-]c1ccc(C/N=c2/nc(N3CCNCC3)[n-]c(N3CCc4ccccc4C3)n2)cc1

>  <Energy>  (94) 
65.51829538837141

>  <Genealogy>  (94) 
[O-]c1ccc(CN=c2nc(N3CCNCC3)[n-]c(N3CCc4ccccc4C3)n2)cc1 (protonated)
[O-]c1ccc(C/N=c2/nc(N3CCNCC3)[n-]c(N3CCc4ccccc4C3)n2)cc1 (cis-trans isomerization)
[O-]c1ccc(C/N=c2/nc(N3CCNCC3)[n-]c(N3CCc4ccccc4C3)n2)cc1 (3D coordinates assigned)
[O-]c1ccc(C/N=c2/nc(N3CCNCC3)[n-]c(N3CCc4ccccc4C3)n2)cc1 (nonaromatic ring conformer: 65.51829538837141 kcal/mol)

>  <smiles>  (94) 
Oc1ccc(CN=c2nc(N3CCNCC3)[nH]c(N3CCc4ccccc4C3)n2)cc1

>  <score_type>  (94) 
oracle

>  <origin>  (94) 
adg

>  <m_score__min__energy>  (94) 
-13.07

>  <m_primary>  (94) 
energy

$$$$
94:0
     RDKit          3D

 56 59  0  0  0  0  0  0  0  0999 V2000
   65.6100   32.9630   50.0690 C   0  0  0  0  0  0  0  0  0  0  0  0
   64.8220   33.0800   48.8470 N   0  0  0  0  0  0  0  0  0  0  0  0
   63.3870   33.1810   48.8300 C   0  0  0  0  0  0  0  0  0  0  0  0
   62.7570   34.1330   49.6460 C   0  0  0  0  0  0  0  0  0  0  0  0
   61.3650   34.2490   49.6550 C   0  0  0  0  0  0  0  0  0  0  0  0
   60.5860   33.4180   48.8490 C   0  0  0  0  0  0  0  0  0  0  0  0
   61.1920   32.4600   48.0200 C   0  0  0  0  0  0  0  0  0  0  0  0
   60.3850   31.5970   47.1920 N   0  0  0  0  0  0  0  0  0  0  0  0
   59.2170   32.1650   46.4960 C   0  0  0  0  0  0  0  0  0  0  0  0
   58.3460   31.0760   45.8610 C   0  0  0  0  0  0  0  0  0  0  0  0
   59.2260   30.1260   45.0320 C   0  0  0  0  0  0  0  0  0  0  0  0
   58.4280   29.0960   44.3490 N   0  0  0  0  0  0  0  0  0  0  0  0
   58.0250   27.8120   44.8690 C   0  0  0  0  0  0  0  0  0  0  0  0
   58.9070   26.7360   45.0100 C   0  0  0  0  0  0  0  0  0  0  0  0
   58.4290   25.5250   45.5100 C   0  0  0  0  0  0  0  0  0  0  0  0
   59.2330   24.5610   45.6370 O   0  0  0  0  0  0  0  0  0  0  0  0
   57.1060   25.3860   45.8520 N   0  0  0  0  0  0  0  0  0  0  0  0
   56.6050   24.1150   46.4140 C   0  0  0  0  0  0  0  0  0  0  0  0
   56.6080   23.0350   45.3620 C   0  0  0  0  0  0  0  0  0  0  0  0
   56.4690   23.3680   44.0040 C   0  0  0  0  0  0  0  0  0  0  0  0
   56.5020   22.3700   43.0260 C   0  0  0  0  0  0  0  0  0  0  0  0
   56.6770   21.0330   43.3950 C   0  0  0  0  0  0  0  0  0  0  0  0
   56.8210   20.6930   44.7430 C   0  0  0  0  0  0  0  0  0  0  0  0
   56.7880   21.6890   45.7240 C   0  0  0  0  0  0  0  0  0  0  0  0
   56.2590   26.4540   45.6980 C   0  0  0  0  0  0  0  0  0  0  0  0
   55.0390   26.3600   45.9990 O   0  0  0  0  0  0  0  0  0  0  0  0
   56.7240   27.6330   45.2110 N   0  0  0  0  0  0  0  0  0  0  0  0
   60.4090   29.5180   45.8280 C   0  0  0  0  0  0  0  0  0  0  0  0
   60.5960   30.1410   47.2220 C   0  0  0  0  0  0  0  0  0  0  0  0
   62.5940   32.3460   48.0170 C   0  0  0  0  0  0  0  0  0  0  0  0
   64.9487   33.0612   50.9425 H   0  0  0  0  0  0  0  0  0  0  0  0
   66.1058   31.9814   50.0930 H   0  0  0  0  0  0  0  0  0  0  0  0
   66.3697   33.7582   50.0930 H   0  0  0  0  0  0  0  0  0  0  0  0
   65.3400   33.0850   47.9380 H   0  0  0  0  0  0  0  0  0  0  0  0
   63.3639   34.7929   50.2834 H   0  0  0  0  0  0  0  0  0  0  0  0
   60.8814   34.9978   50.2995 H   0  0  0  0  0  0  0  0  0  0  0  0
   59.4903   33.5139   48.8630 H   0  0  0  0  0  0  0  0  0  0  0  0
   58.6104   32.7283   47.2204 H   0  0  0  0  0  0  0  0  0  0  0  0
   59.5841   32.8202   45.6923 H   0  0  0  0  0  0  0  0  0  0  0  0
   57.8380   30.5061   46.6529 H   0  0  0  0  0  0  0  0  0  0  0  0
   57.5977   31.5447   45.2050 H   0  0  0  0  0  0  0  0  0  0  0  0
   59.6899   30.7521   44.2556 H   0  0  0  0  0  0  0  0  0  0  0  0
   58.0330   29.3620   43.4180 H   0  0  0  0  0  0  0  0  0  0  0  0
   59.9653   26.8435   44.7299 H   0  0  0  0  0  0  0  0  0  0  0  0
   57.2519   23.8086   47.2492 H   0  0  0  0  0  0  0  0  0  0  0  0
   55.5742   24.2642   46.7678 H   0  0  0  0  0  0  0  0  0  0  0  0
   56.3336   24.4191   43.7092 H   0  0  0  0  0  0  0  0  0  0  0  0
   56.3901   22.6369   41.9647 H   0  0  0  0  0  0  0  0  0  0  0  0
   56.7014   20.2485   42.6243 H   0  0  0  0  0  0  0  0  0  0  0  0
   56.9604   19.6410   45.0325 H   0  0  0  0  0  0  0  0  0  0  0  0
   56.9034   21.4178   46.7838 H   0  0  0  0  0  0  0  0  0  0  0  0
   60.2288   28.4397   45.9500 H   0  0  0  0  0  0  0  0  0  0  0  0
   61.3249   29.7261   45.2554 H   0  0  0  0  0  0  0  0  0  0  0  0
   59.8724   29.6887   47.9161 H   0  0  0  0  0  0  0  0  0  0  0  0
   61.6272   29.9473   47.5523 H   0  0  0  0  0  0  0  0  0  0  0  0
   63.0771   31.5966   47.3728 H   0  0  0  0  0  0  0  0  0  0  0  0
  1  2  1  0
  2  3  1  0
  3  4  2  0
  4  5  1  0
  5  6  2  0
  6  7  1  0
  7  8  1  0
  8  9  1  0
  9 10  1  0
 10 11  1  0
 11 12  1  0
 12 13  1  0
 13 14  2  0
 14 15  1  0
 15 16  2  0
 15 17  1  0
 17 18  1  0
 18 19  1  0
 19 20  2  0
 20 21  1  0
 21 22  2  0
 22 23  1  0
 23 24  2  0
 17 25  1  0
 25 26  2  0
 25 27  1  0
 11 28  1  0
 28 29  1  0
  7 30  2  0
 30  3  1  0
 29  8  1  0
 27 13  1  0
 24 19  1  0
  1 31  1  0
  1 32  1  0
  1 33  1  0
  2 34  1  0
  4 35  1  0
  5 36  1  0
  6 37  1  0
  9 38  1  0
  9 39  1  0
 10 40  1  0
 10 41  1  0
 11 42  1  0
 12 43  1  0
 14 44  1  0
 18 45  1  0
 18 46  1  0
 20 47  1  0
 21 48  1  0
 22 49  1  0
 23 50  1  0
 24 51  1  0
 28 52  1  0
 28 53  1  0
 29 54  1  0
 29 55  1  0
 30 56  1  0
M  CHG  1  27  -1
M  END
>  <UniqueID>  (95) 
91

>  <SMILES>  (95) 
CNc1cccc(N2CCC(Nc3cc(=O)n(Cc4ccccc4)c(=O)[n-]3)CC2)c1

>  <Energy>  (95) 
69.77129961877768

>  <Genealogy>  (95) 
CNc1cccc(N2CCC(Nc3cc(=O)n(Cc4ccccc4)c(=O)[n-]3)CC2)c1 (protonated)
CNc1cccc(N2CCC(Nc3cc(=O)n(Cc4ccccc4)c(=O)[n-]3)CC2)c1 (3D coordinates assigned)
CNc1cccc(N2CCC(Nc3cc(=O)n(Cc4ccccc4)c(=O)[n-]3)CC2)c1 (nonaromatic ring conformer: 69.77129961877768 kcal/mol)

>  <smiles>  (95) 
CNc1cccc(N2CCC(Nc3cc(=O)n(Cc4ccccc4)c(=O)[nH]3)CC2)c1

>  <score_type>  (95) 
oracle

>  <origin>  (95) 
adg

>  <m_score__min__energy>  (95) 
-10.210000000000001

>  <m_primary>  (95) 
energy

$$$$
95:0
     RDKit          3D

 45 46  0  0  0  0  0  0  0  0999 V2000
   56.2240   29.7310   43.2170 C   0  0  0  0  0  0  0  0  0  0  0  0
   56.6650   30.5760   44.4050 C   0  0  0  0  0  0  0  0  0  0  0  0
   57.9100   31.8200   43.9110 S   0  0  0  0  0  0  0  0  0  0  0  0
   57.7460   32.8370   45.3850 C   0  0  0  0  0  0  0  0  0  0  0  0
   57.3790   34.2200   45.2690 S   0  0  0  0  0  0  0  0  0  0  0  0
   58.1510   32.1540   46.9950 S   0  0  0  0  0  0  0  0  0  0  0  0
   59.9330   32.5630   46.8920 C   0  0  0  0  0  0  0  0  0  0  0  0
   60.7970   31.3300   47.1730 C   0  0  0  0  0  0  0  0  0  0  0  0
   59.9810   30.1670   47.5460 N   0  0  0  0  0  0  0  0  0  0  0  0
   59.5570   29.1480   46.6100 C   0  0  0  0  0  0  0  0  0  0  0  0
   59.9080   29.3450   45.2690 C   0  0  0  0  0  0  0  0  0  0  0  0
   59.5430   28.6310   44.1390 C   0  0  0  0  0  0  0  0  0  0  0  0
   58.7530   27.5020   44.0530 C   0  0  0  0  0  0  0  0  0  0  0  0
   58.2220   26.7480   45.0840 C   0  0  0  0  0  0  0  0  0  0  0  0
   58.3150   26.9430   46.4610 C   0  0  0  0  0  0  0  0  0  0  0  0
   57.5710   25.6260   47.4540 S   0  0  0  0  0  0  0  0  0  0  0  0
   57.3230   24.5450   46.0320 C   0  0  0  0  0  0  0  0  0  0  0  0
   58.3730   23.7000   45.6500 C   0  0  0  0  0  0  0  0  0  0  0  0
   58.2620   22.9000   44.5110 C   0  0  0  0  0  0  0  0  0  0  0  0
   57.1000   22.9370   43.7430 C   0  0  0  0  0  0  0  0  0  0  0  0
   56.0360   23.7600   44.1200 C   0  0  0  0  0  0  0  0  0  0  0  0
   56.1220   24.5540   45.2780 C   0  0  0  0  0  0  0  0  0  0  0  0
   54.9560   25.3750   45.6600 C   0  0  0  0  0  0  0  0  0  0  0  0
   53.7950   24.8860   45.6510 O   0  0  0  0  0  0  0  0  0  0  0  0
   55.1270   26.7120   45.9910 O   0  0  0  0  0  0  0  0  0  0  0  0
   58.8550   28.0460   47.1490 C   0  0  0  0  0  0  0  0  0  0  0  0
   58.6820   28.0540   48.4000 O   0  0  0  0  0  0  0  0  0  0  0  0
   55.7436   28.8105   43.5800 H   0  0  0  0  0  0  0  0  0  0  0  0
   55.5087   30.3017   42.6065 H   0  0  0  0  0  0  0  0  0  0  0  0
   57.1012   29.4706   42.6065 H   0  0  0  0  0  0  0  0  0  0  0  0
   55.7881   31.0929   44.8220 H   0  0  0  0  0  0  0  0  0  0  0  0
   57.1181   29.9106   45.1547 H   0  0  0  0  0  0  0  0  0  0  0  0
   60.1582   32.9374   45.8825 H   0  0  0  0  0  0  0  0  0  0  0  0
   60.1605   33.3295   47.6474 H   0  0  0  0  0  0  0  0  0  0  0  0
   61.3736   31.0854   46.2687 H   0  0  0  0  0  0  0  0  0  0  0  0
   61.4644   31.5643   48.0154 H   0  0  0  0  0  0  0  0  0  0  0  0
   59.5730   30.1740   48.5090 H   0  0  0  0  0  0  0  0  0  0  0  0
   60.5769   30.1984   45.0839 H   0  0  0  0  0  0  0  0  0  0  0  0
   59.9341   29.0141   43.1849 H   0  0  0  0  0  0  0  0  0  0  0  0
   58.5157   27.1584   43.0353 H   0  0  0  0  0  0  0  0  0  0  0  0
   57.6423   25.8668   44.7719 H   0  0  0  0  0  0  0  0  0  0  0  0
   59.2927   23.6664   46.2525 H   0  0  0  0  0  0  0  0  0  0  0  0
   59.0925   22.2401   44.2198 H   0  0  0  0  0  0  0  0  0  0  0  0
   57.0203   22.3169   42.8380 H   0  0  0  0  0  0  0  0  0  0  0  0
   55.1235   23.7874   43.5063 H   0  0  0  0  0  0  0  0  0  0  0  0
  1  2  1  0
  2  3  1  0
  3  4  1  0
  4  5  2  0
  4  6  1  0
  6  7  1  0
  7  8  1  0
  8  9  1  0
  9 10  1  0
 10 11  2  0
 11 12  1  0
 12 13  2  0
 13 14  1  0
 14 15  2  0
 15 16  1  0
 16 17  1  0
 17 18  2  0
 18 19  1  0
 19 20  2  0
 20 21  1  0
 21 22  2  0
 22 23  1  0
 23 24  2  0
 23 25  1  0
 15 26  1  0
 26 27  2  0
 26 10  1  0
 22 17  1  0
  1 28  1  0
  1 29  1  0
  1 30  1  0
  2 31  1  0
  2 32  1  0
  7 33  1  0
  7 34  1  0
  8 35  1  0
  8 36  1  0
  9 37  1  0
 11 38  1  0
 12 39  1  0
 13 40  1  0
 14 41  1  0
 18 42  1  0
 19 43  1  0
 20 44  1  0
 21 45  1  0
M  CHG  1  25  -1
M  END
>  <UniqueID>  (96) 
92

>  <SMILES>  (96) 
CCSC(=S)SCCNc1ccccc(Sc2ccccc2C(=O)[O-])c1=O

>  <Energy>  (96) 
56.370480404541645

>  <Genealogy>  (96) 
CCSC(=S)SCCNc1ccccc(Sc2ccccc2C(=O)[O-])c1=O (protonated)
CCSC(=S)SCCNc1ccccc(Sc2ccccc2C(=O)[O-])c1=O (3D coordinates assigned)
CCSC(=S)SCCNc1ccccc(Sc2ccccc2C(=O)[O-])c1=O (optimized conformer: 56.370480404541645 kcal/mol)

>  <smiles>  (96) 
CCSC(=S)SCCNc1ccccc(Sc2ccccc2C(=O)O)c1=O

>  <score_type>  (96) 
oracle

>  <origin>  (96) 
adg

>  <m_score__min__energy>  (96) 
-11.5

>  <m_primary>  (96) 
energy

$$$$
96:0
     RDKit          3D

 44 47  0  0  0  0  0  0  0  0999 V2000
   61.1720   30.6710   51.5860 O   0  0  0  0  0  0  0  0  0  0  0  0
   60.1630   31.1100   50.9710 C   0  0  0  0  0  0  0  0  0  0  0  0
   58.8050   30.7460   51.4420 C   0  0  0  0  0  0  0  0  0  0  0  0
   57.7050   31.5800   51.1740 C   0  0  0  0  0  0  0  0  0  0  0  0
   56.4290   31.2370   51.6290 C   0  0  0  0  0  0  0  0  0  0  0  0
   56.2260   30.0580   52.3520 C   0  0  0  0  0  0  0  0  0  0  0  0
   54.9320   29.7570   52.8010 O   0  0  0  0  0  0  0  0  0  0  0  0
   53.7710   30.4750   52.4780 C   0  0  0  0  0  0  0  0  0  0  0  0
   53.4890   30.8750   51.1580 C   0  0  0  0  0  0  0  0  0  0  0  0
   52.3300   31.6050   50.8770 C   0  0  0  0  0  0  0  0  0  0  0  0
   51.4520   31.9520   51.9070 C   0  0  0  0  0  0  0  0  0  0  0  0
   50.3000   32.6770   51.6260 O   0  0  0  0  0  0  0  0  0  0  0  0
   51.7370   31.5740   53.2230 C   0  0  0  0  0  0  0  0  0  0  0  0
   52.8960   30.8440   53.5090 C   0  0  0  0  0  0  0  0  0  0  0  0
   53.1640   30.4850   54.7890 F   0  0  0  0  0  0  0  0  0  0  0  0
   57.3280   29.2380   52.6520 C   0  0  0  0  0  0  0  0  0  0  0  0
   58.6060   29.5790   52.2000 C   0  0  0  0  0  0  0  0  0  0  0  0
   60.3510   31.9790   49.8420 N   0  0  0  0  0  0  0  0  0  0  0  0
   60.8560   33.3440   50.0820 C   0  0  0  0  0  0  0  0  0  0  0  0
   61.1080   34.1260   48.7800 C   0  0  0  0  0  0  0  0  0  0  0  0
   60.0240   33.8590   47.7710 C   0  0  0  0  0  0  0  0  0  0  0  0
   59.5240   34.8790   46.9500 C   0  0  0  0  0  0  0  0  0  0  0  0
   58.5500   34.5900   45.9890 C   0  0  0  0  0  0  0  0  0  0  0  0
   58.0860   33.2800   45.8330 C   0  0  0  0  0  0  0  0  0  0  0  0
   58.5930   32.2550   46.6370 C   0  0  0  0  0  0  0  0  0  0  0  0
   59.5600   32.5440   47.6120 C   0  0  0  0  0  0  0  0  0  0  0  0
   60.1470   31.4650   48.4780 C   0  0  0  0  0  0  0  0  0  0  0  0
   57.8499   32.5086   50.6024 H   0  0  0  0  0  0  0  0  0  0  0  0
   55.5775   31.9001   51.4165 H   0  0  0  0  0  0  0  0  0  0  0  0
   54.1824   30.6125   50.3454 H   0  0  0  0  0  0  0  0  0  0  0  0
   52.1089   31.9068   49.8426 H   0  0  0  0  0  0  0  0  0  0  0  0
   51.0486   31.8511   54.0350 H   0  0  0  0  0  0  0  0  0  0  0  0
   57.1837   28.3232   53.2456 H   0  0  0  0  0  0  0  0  0  0  0  0
   59.4614   28.9300   52.4390 H   0  0  0  0  0  0  0  0  0  0  0  0
   60.1153   33.8919   50.6829 H   0  0  0  0  0  0  0  0  0  0  0  0
   61.8196   33.2528   50.6046 H   0  0  0  0  0  0  0  0  0  0  0  0
   61.1317   35.2023   49.0059 H   0  0  0  0  0  0  0  0  0  0  0  0
   62.0690   33.7994   48.3560 H   0  0  0  0  0  0  0  0  0  0  0  0
   59.8979   35.9075   47.0616 H   0  0  0  0  0  0  0  0  0  0  0  0
   58.1483   35.3941   45.3550 H   0  0  0  0  0  0  0  0  0  0  0  0
   57.3203   33.0556   45.0758 H   0  0  0  0  0  0  0  0  0  0  0  0
   58.2345   31.2234   46.5056 H   0  0  0  0  0  0  0  0  0  0  0  0
   59.4592   30.6071   48.5097 H   0  0  0  0  0  0  0  0  0  0  0  0
   61.1139   31.1484   48.0599 H   0  0  0  0  0  0  0  0  0  0  0  0
  1  2  2  0
  2  3  1  0
  3  4  2  0
  4  5  1  0
  5  6  2  0
  6  7  1  0
  7  8  1  0
  8  9  2  0
  9 10  1  0
 10 11  2  0
 11 12  1  0
 11 13  1  0
 13 14  2  0
 14 15  1  0
  6 16  1  0
 16 17  2  0
  2 18  1  0
 18 19  1  0
 19 20  1  0
 20 21  1  0
 21 22  2  0
 22 23  1  0
 23 24  2  0
 24 25  1  0
 25 26  2  0
 26 27  1  0
 17  3  1  0
 27 18  1  0
 14  8  1  0
 26 21  1  0
  4 28  1  0
  5 29  1  0
  9 30  1  0
 10 31  1  0
 13 32  1  0
 16 33  1  0
 17 34  1  0
 19 35  1  0
 19 36  1  0
 20 37  1  0
 20 38  1  0
 22 39  1  0
 23 40  1  0
 24 41  1  0
 25 42  1  0
 27 43  1  0
 27 44  1  0
M  CHG  1  12  -1
M  END
>  <UniqueID>  (97) 
93

>  <SMILES>  (97) 
O=C(c1ccc(Oc2ccc([O-])cc2F)cc1)N1CCc2ccccc2C1

>  <Energy>  (97) 
62.59427671558198

>  <Genealogy>  (97) 
O=C(c1ccc(Oc2ccc([O-])cc2F)cc1)N1CCc2ccccc2C1 (protonated)
O=C(c1ccc(Oc2ccc([O-])cc2F)cc1)N1CCc2ccccc2C1 (3D coordinates assigned)
O=C(c1ccc(Oc2ccc([O-])cc2F)cc1)N1CCc2ccccc2C1 (nonaromatic ring conformer: 62.59427671558198 kcal/mol)

>  <smiles>  (97) 
O=C(c1ccc(Oc2ccc(O)cc2F)cc1)N1CCc2ccccc2C1

>  <score_type>  (97) 
oracle

>  <origin>  (97) 
adg

>  <m_score__min__energy>  (97) 
-11.81

>  <m_primary>  (97) 
energy

$$$$
