0:0
     RDKit          3D

 28 29  0  0  0  0  0  0  0  0999 V2000
   58.3150   33.2560   47.7980 C   0  0  0  0  0  0  0  0  0  0  0  0
   58.3900   32.9470   46.3680 N   0  0  0  0  0  0  0  0  0  0  0  0
   58.0460   31.6050   45.8800 C   0  0  0  0  0  0  0  0  0  0  0  0
   57.5100   31.6590   44.5120 N   0  0  0  0  0  0  0  0  0  0  0  0
   56.4960   30.6770   44.1000 C   0  0  0  0  0  0  0  0  0  0  0  0
   56.8500   29.3180   44.6170 C   0  0  0  0  0  0  0  0  0  0  0  0
   58.0920   28.7150   44.5290 C   0  0  0  0  0  0  0  0  0  0  0  0
   57.9570   27.4850   45.1380 C   0  0  0  0  0  0  0  0  0  0  0  0
   56.6410   27.4240   45.5520 C   0  0  0  0  0  0  0  0  0  0  0  0
   56.0310   26.3290   46.2390 N   0  0  0  0  0  0  0  0  0  0  0  0
   54.8520   26.0020   45.9920 O   0  0  0  0  0  0  0  0  0  0  0  0
   56.7470   25.6260   47.1790 O   0  0  0  0  0  0  0  0  0  0  0  0
   56.0030   28.5250   45.2310 O   0  0  0  0  0  0  0  0  0  0  0  0
   58.1350   32.5530   43.5650 C   0  0  0  0  0  0  0  0  0  0  0  0
   57.9690   32.3510   41.9440 S   0  0  0  0  0  0  0  0  0  0  0  0
   58.9010   33.6560   44.0530 N   0  0  0  0  0  0  0  0  0  0  0  0
   58.9590   33.9000   45.4570 C   0  0  0  0  0  0  0  0  0  0  0  0
   59.5000   34.9560   45.8850 O   0  0  0  0  0  0  0  0  0  0  0  0
   58.5350   32.3495   48.3810 H   0  0  0  0  0  0  0  0  0  0  0  0
   59.0496   34.0371   48.0434 H   0  0  0  0  0  0  0  0  0  0  0  0
   57.3040   33.6134   48.0434 H   0  0  0  0  0  0  0  0  0  0  0  0
   58.9497   30.9779   45.8870 H   0  0  0  0  0  0  0  0  0  0  0  0
   57.2751   31.1808   46.5401 H   0  0  0  0  0  0  0  0  0  0  0  0
   55.5170   30.9751   44.5033 H   0  0  0  0  0  0  0  0  0  0  0  0
   56.4560   30.6430   43.0013 H   0  0  0  0  0  0  0  0  0  0  0  0
   59.0001   29.1309   44.0682 H   0  0  0  0  0  0  0  0  0  0  0  0
   58.7328   26.7159   45.2666 H   0  0  0  0  0  0  0  0  0  0  0  0
   59.3550   34.3220   43.3880 H   0  0  0  0  0  0  0  0  0  0  0  0
  1  2  1  0
  2  3  1  0
  3  4  1  0
  4  5  1  0
  5  6  1  0
  6  7  2  0
  7  8  1  0
  8  9  2  0
  9 10  1  0
 10 11  2  0
 10 12  1  0
  9 13  1  0
  4 14  1  0
 14 15  2  0
 14 16  1  0
 16 17  1  0
 17 18  2  0
 17  2  1  0
 13  6  1  0
  1 19  1  0
  1 20  1  0
  1 21  1  0
  3 22  1  0
  3 23  1  0
  5 24  1  0
  5 25  1  0
  7 26  1  0
  8 27  1  0
 16 28  1  0
M  CHG  2  10   1  12  -1
M  END
>  <UniqueID>  (1) 
1

>  <SMILES>  (1) 
CN1CN(Cc2ccc([N+](=O)[O-])o2)C(=S)NC1=O

>  <Energy>  (1) 
50.44892104373822

>  <Genealogy>  (1) 
CN1CN(Cc2ccc([N+](=O)[O-])o2)C(=S)NC1=O (3D coordinates assigned)
CN1CN(Cc2ccc([N+](=O)[O-])o2)C(=S)NC1=O (nonaromatic ring conformer: 50.44892104373822 kcal/mol)

>  <smiles>  (1) 
CN1CN(Cc2ccc([N+](=O)[O-])o2)C(=S)NC1=O

>  <score_type>  (1) 
oracle

>  <origin>  (1) 
adg

>  <m_score__min__energy>  (1) 
-6.8099999999999996

>  <m_primary>  (1) 
energy

$$$$
1:0
     RDKit          3D

 37 39  0  0  0  0  0  0  0  0999 V2000
   59.3080   35.3390   44.9260 O   0  0  0  0  0  0  0  0  0  0  0  0
   58.6510   34.6010   45.7070 C   0  0  0  0  0  0  0  0  0  0  0  0
   57.4060   33.9340   45.1970 C   0  0  0  0  0  0  0  0  0  0  0  0
   57.7730   32.9460   43.7070 S   0  0  0  0  0  0  0  0  0  0  0  0
   57.1940   31.4000   44.4110 C   0  0  0  0  0  0  0  0  0  0  0  0
   56.0130   30.8330   44.1120 N   0  0  0  0  0  0  0  0  0  0  0  0
   55.9460   29.7540   44.8830 N   0  0  0  0  0  0  0  0  0  0  0  0
   57.0340   29.6630   45.6330 N   0  0  0  0  0  0  0  0  0  0  0  0
   57.8370   30.6730   45.3410 N   0  0  0  0  0  0  0  0  0  0  0  0
   59.0850   30.9960   46.0420 C   0  0  0  0  0  0  0  0  0  0  0  0
   58.8330   31.3160   47.5180 C   0  0  0  0  0  0  0  0  0  0  0  0
   59.9210   30.5940   48.3150 C   0  0  0  0  0  0  0  0  0  0  0  0
   60.8830   29.9980   47.2960 C   0  0  0  0  0  0  0  0  0  0  0  0
   60.0720   29.8340   46.0240 C   0  0  0  0  0  0  0  0  0  0  0  0
   59.0530   34.5190   47.0810 N   0  0  0  0  0  0  0  0  0  0  0  0
   60.3720   34.2300   47.5580 C   0  0  0  0  0  0  0  0  0  0  0  0
   61.3840   33.9530   46.6300 C   0  0  0  0  0  0  0  0  0  0  0  0
   62.6780   33.6520   47.0650 C   0  0  0  0  0  0  0  0  0  0  0  0
   63.6550   33.4010   46.1590 F   0  0  0  0  0  0  0  0  0  0  0  0
   62.9620   33.5980   48.4330 C   0  0  0  0  0  0  0  0  0  0  0  0
   61.9470   33.8330   49.3660 C   0  0  0  0  0  0  0  0  0  0  0  0
   60.6520   34.1370   48.9340 C   0  0  0  0  0  0  0  0  0  0  0  0
   59.6670   34.3050   49.8550 F   0  0  0  0  0  0  0  0  0  0  0  0
   57.0032   33.2734   45.9789 H   0  0  0  0  0  0  0  0  0  0  0  0
   56.6691   34.7083   44.9372 H   0  0  0  0  0  0  0  0  0  0  0  0
   59.4982   31.8649   45.5089 H   0  0  0  0  0  0  0  0  0  0  0  0
   58.8960   32.4011   47.6870 H   0  0  0  0  0  0  0  0  0  0  0  0
   57.8303   30.9877   47.8290 H   0  0  0  0  0  0  0  0  0  0  0  0
   60.4503   31.3056   48.9658 H   0  0  0  0  0  0  0  0  0  0  0  0
   59.4896   29.8126   48.9579 H   0  0  0  0  0  0  0  0  0  0  0  0
   61.7324   30.6760   47.1261 H   0  0  0  0  0  0  0  0  0  0  0  0
   61.3021   29.0410   47.6401 H   0  0  0  0  0  0  0  0  0  0  0  0
   60.7227   29.8914   45.1389 H   0  0  0  0  0  0  0  0  0  0  0  0
   59.5658   28.8586   45.9759 H   0  0  0  0  0  0  0  0  0  0  0  0
   61.1594   33.9724   45.5534 H   0  0  0  0  0  0  0  0  0  0  0  0
   63.9825   33.3710   48.7750 H   0  0  0  0  0  0  0  0  0  0  0  0
   62.1677   33.7786   50.4423 H   0  0  0  0  0  0  0  0  0  0  0  0
  1  2  2  0
  2  3  1  0
  3  4  1  0
  4  5  1  0
  5  6  2  0
  6  7  1  0
  7  8  2  0
  8  9  1  0
  9 10  1  0
 10 11  1  0
 11 12  1  0
 12 13  1  0
 13 14  1  0
  2 15  1  0
 15 16  1  0
 16 17  2  0
 17 18  1  0
 18 19  1  0
 18 20  2  0
 20 21  1  0
 21 22  2  0
 22 23  1  0
  9  5  1  0
 14 10  1  0
 22 16  1  0
  3 24  1  0
  3 25  1  0
 10 26  1  0
 11 27  1  0
 11 28  1  0
 12 29  1  0
 12 30  1  0
 13 31  1  0
 13 32  1  0
 14 33  1  0
 14 34  1  0
 17 35  1  0
 20 36  1  0
 21 37  1  0
M  CHG  1  15  -1
M  END
>  <UniqueID>  (2) 
2

>  <SMILES>  (2) 
O=C(CSc1nnnn1C1CCCC1)[N-]c1cc(F)ccc1F

>  <Energy>  (2) 
77.73489794786306

>  <Genealogy>  (2) 
O=C(CSc1nnnn1C1CCCC1)[N-]c1cc(F)ccc1F (protonated)
O=C(CSc1nnnn1C1CCCC1)[N-]c1cc(F)ccc1F (3D coordinates assigned)
O=C(CSc1nnnn1C1CCCC1)[N-]c1cc(F)ccc1F (nonaromatic ring conformer: 77.73489794786306 kcal/mol)

>  <smiles>  (2) 
O=C(CSc1nnnn1C1CCCC1)Nc1cc(F)ccc1F

>  <score_type>  (2) 
oracle

>  <origin>  (2) 
adg

>  <m_score__min__energy>  (2) 
-9.9600000000000009

>  <m_primary>  (2) 
energy

$$$$
2:0
     RDKit          3D

 62 65  0  0  0  0  0  0  0  0999 V2000
   57.8310   27.8920   43.7610 C   0  0  0  0  0  0  0  0  0  0  0  0
   57.5410   29.4010   43.7400 C   0  0  0  0  0  0  0  0  0  0  0  0
   56.2770   29.7120   42.9280 C   0  0  0  0  0  0  0  0  0  0  0  0
   57.5000   30.0260   45.1550 C   0  0  0  0  0  0  0  0  0  0  0  0
   57.3840   31.5330   45.1900 C   0  0  0  0  0  0  0  0  0  0  0  0
   56.2970   32.0850   44.8730 O   0  0  0  0  0  0  0  0  0  0  0  0
   58.5060   32.3850   45.6380 C   0  0  0  0  0  0  0  0  0  0  0  0
   58.5770   33.7590   45.5020 C   0  0  0  0  0  0  0  0  0  0  0  0
   57.6530   34.5750   44.8590 O   0  0  0  0  0  0  0  0  0  0  0  0
   59.7210   34.1780   46.1400 C   0  0  0  0  0  0  0  0  0  0  0  0
   60.1480   35.4980   46.2630 O   0  0  0  0  0  0  0  0  0  0  0  0
   60.3730   33.1220   46.6640 N   0  0  0  0  0  0  0  0  0  0  0  0
   61.5010   33.1930   47.5470 C   0  0  0  0  0  0  0  0  0  0  0  0
   61.5050   34.1060   48.6090 C   0  0  0  0  0  0  0  0  0  0  0  0
   62.5950   34.1670   49.4830 C   0  0  0  0  0  0  0  0  0  0  0  0
   63.7030   33.3200   49.3010 C   0  0  0  0  0  0  0  0  0  0  0  0
   64.8640   33.3770   50.2180 C   0  0  0  0  0  0  0  0  0  0  0  0
   64.9410   34.2160   51.2760 N   0  0  0  0  0  0  0  0  0  0  0  0
   66.1050   34.0750   51.9640 C   0  0  0  0  0  0  0  0  0  0  0  0
   66.9770   33.1170   51.4620 C   0  0  0  0  0  0  0  0  0  0  0  0
   66.2550   32.4300   50.1100 S   0  0  0  0  0  0  0  0  0  0  0  0
   63.6960   32.4130   48.2250 C   0  0  0  0  0  0  0  0  0  0  0  0
   62.6040   32.3530   47.3550 C   0  0  0  0  0  0  0  0  0  0  0  0
   59.6420   32.0190   46.3670 C   0  0  0  0  0  0  0  0  0  0  0  0
   59.8700   30.7010   46.9910 C   0  0  0  0  0  0  0  0  0  0  0  0
   60.4510   29.6650   46.2460 C   0  0  0  0  0  0  0  0  0  0  0  0
   60.6750   28.4180   46.8320 C   0  0  0  0  0  0  0  0  0  0  0  0
   60.3110   28.1950   48.1620 C   0  0  0  0  0  0  0  0  0  0  0  0
   59.7270   29.2200   48.9110 C   0  0  0  0  0  0  0  0  0  0  0  0
   59.5150   30.4870   48.3360 C   0  0  0  0  0  0  0  0  0  0  0  0
   58.9150   31.5380   49.0470 O   0  0  0  0  0  0  0  0  0  0  0  0
   58.3500   31.4490   50.3260 C   0  0  0  0  0  0  0  0  0  0  0  0
   57.7240   30.4120   50.6800 O   0  0  0  0  0  0  0  0  0  0  0  0
   58.5410   32.5280   51.2560 N   0  0  0  0  0  0  0  0  0  0  0  0
   57.9780   32.4380   52.6050 C   0  0  0  0  0  0  0  0  0  0  0  0
   59.3000   33.7070   50.8340 C   0  0  0  0  0  0  0  0  0  0  0  0
   57.8975   27.5459   44.8030 H   0  0  0  0  0  0  0  0  0  0  0  0
   57.0195   27.3555   43.2475 H   0  0  0  0  0  0  0  0  0  0  0  0
   58.7835   27.6945   43.2475 H   0  0  0  0  0  0  0  0  0  0  0  0
   58.3884   29.8817   43.2292 H   0  0  0  0  0  0  0  0  0  0  0  0
   55.4419   29.9175   43.6139 H   0  0  0  0  0  0  0  0  0  0  0  0
   56.4560   30.5929   42.2940 H   0  0  0  0  0  0  0  0  0  0  0  0
   56.0268   28.8486   42.2940 H   0  0  0  0  0  0  0  0  0  0  0  0
   56.6343   29.6056   45.6877 H   0  0  0  0  0  0  0  0  0  0  0  0
   58.4649   29.7832   45.6240 H   0  0  0  0  0  0  0  0  0  0  0  0
   59.5830   36.2630   45.9170 H   0  0  0  0  0  0  0  0  0  0  0  0
   60.6468   34.7782   48.7563 H   0  0  0  0  0  0  0  0  0  0  0  0
   62.5858   34.8823   50.3186 H   0  0  0  0  0  0  0  0  0  0  0  0
   66.3397   34.6765   52.8546 H   0  0  0  0  0  0  0  0  0  0  0  0
   67.9623   32.8556   51.8753 H   0  0  0  0  0  0  0  0  0  0  0  0
   64.5566   31.7462   48.0676 H   0  0  0  0  0  0  0  0  0  0  0  0
   62.6113   31.6423   46.5154 H   0  0  0  0  0  0  0  0  0  0  0  0
   60.7313   29.8355   45.1961 H   0  0  0  0  0  0  0  0  0  0  0  0
   61.1384   27.6105   46.2461 H   0  0  0  0  0  0  0  0  0  0  0  0
   60.4844   27.2104   48.6208 H   0  0  0  0  0  0  0  0  0  0  0  0
   59.4317   29.0358   49.9545 H   0  0  0  0  0  0  0  0  0  0  0  0
   58.7803   32.5663   53.3465 H   0  0  0  0  0  0  0  0  0  0  0  0
   57.2236   33.2270   52.7409 H   0  0  0  0  0  0  0  0  0  0  0  0
   57.5072   31.4532   52.7409 H   0  0  0  0  0  0  0  0  0  0  0  0
   59.6518   34.2535   51.7214 H   0  0  0  0  0  0  0  0  0  0  0  0
   60.1644   33.3904   50.2318 H   0  0  0  0  0  0  0  0  0  0  0  0
   58.6540   34.3627   50.2318 H   0  0  0  0  0  0  0  0  0  0  0  0
  1  2  1  0
  2  3  1  0
  2  4  1  0
  4  5  1  0
  5  6  2  0
  5  7  1  0
  7  8  1  0
  8  9  1  0
  8 10  2  0
 10 11  1  0
 10 12  1  0
 12 13  1  0
 13 14  2  0
 14 15  1  0
 15 16  2  0
 16 17  1  0
 17 18  2  0
 18 19  1  0
 19 20  2  0
 20 21  1  0
 16 22  1  0
 22 23  2  0
 12 24  1  0
 24 25  1  0
 25 26  2  0
 26 27  1  0
 27 28  2  0
 28 29  1  0
 29 30  2  0
 30 31  1  0
 31 32  1  0
 32 33  2  0
 32 34  1  0
 34 35  1  0
 34 36  1  0
 24  7  2  0
 30 25  1  0
 23 13  1  0
 21 17  1  0
  1 37  1  0
  1 38  1  0
  1 39  1  0
  2 40  1  0
  3 41  1  0
  3 42  1  0
  3 43  1  0
  4 44  1  0
  4 45  1  0
 11 46  1  0
 14 47  1  0
 15 48  1  0
 19 49  1  0
 20 50  1  0
 22 51  1  0
 23 52  1  0
 26 53  1  0
 27 54  1  0
 28 55  1  0
 29 56  1  0
 35 57  1  0
 35 58  1  0
 35 59  1  0
 36 60  1  0
 36 61  1  0
 36 62  1  0
M  CHG  1   9  -1
M  END
>  <UniqueID>  (3) 
3

>  <SMILES>  (3) 
CC(C)CC(=O)c1c([O-])c(O)n(-c2ccc(-c3nccs3)cc2)c1-c1ccccc1OC(=O)N(C)C

>  <Energy>  (3) 
136.1449976341411

>  <Genealogy>  (3) 
CC(C)CC(=O)c1c([O-])c(O)n(-c2ccc(-c3nccs3)cc2)c1-c1ccccc1OC(=O)N(C)C (protonated)
CC(C)CC(=O)c1c([O-])c(O)n(-c2ccc(-c3nccs3)cc2)c1-c1ccccc1OC(=O)N(C)C (3D coordinates assigned)
CC(C)CC(=O)c1c([O-])c(O)n(-c2ccc(-c3nccs3)cc2)c1-c1ccccc1OC(=O)N(C)C (optimized conformer: 136.1449976341411 kcal/mol)

>  <smiles>  (3) 
CC(C)CC(=O)c1c(O)c(O)n(-c2ccc(-c3nccs3)cc2)c1-c1ccccc1OC(=O)N(C)C

>  <score_type>  (3) 
oracle

>  <origin>  (3) 
adg

>  <m_score__min__energy>  (3) 
-9.5399999999999991

>  <m_primary>  (3) 
energy

$$$$
3:0
     RDKit          3D

 49 52  0  0  0  0  0  0  0  0999 V2000
   59.2270   33.1700   50.8560 C   0  0  0  0  0  0  0  0  0  0  0  0
   59.0510   32.4880   49.6200 O   0  0  0  0  0  0  0  0  0  0  0  0
   59.3320   33.0380   48.3570 C   0  0  0  0  0  0  0  0  0  0  0  0
   58.3060   33.4930   47.5030 C   0  0  0  0  0  0  0  0  0  0  0  0
   58.6140   34.0200   46.2450 C   0  0  0  0  0  0  0  0  0  0  0  0
   57.5960   34.4600   45.4090 O   0  0  0  0  0  0  0  0  0  0  0  0
   59.9430   34.1080   45.8300 C   0  0  0  0  0  0  0  0  0  0  0  0
   60.9680   33.6670   46.6680 C   0  0  0  0  0  0  0  0  0  0  0  0
   60.6730   33.1170   47.9270 C   0  0  0  0  0  0  0  0  0  0  0  0
   61.7680   32.6390   48.7970 C   0  0  0  0  0  0  0  0  0  0  0  0
   62.8150   33.4060   49.1630 N   0  0  0  0  0  0  0  0  0  0  0  0
   63.6590   32.6530   49.8580 N   0  0  0  0  0  0  0  0  0  0  0  0
   64.9010   33.1490   50.4000 C   0  0  0  0  0  0  0  0  0  0  0  0
   66.1460   32.6780   49.9350 C   0  0  0  0  0  0  0  0  0  0  0  0
   67.3370   33.1720   50.4750 C   0  0  0  0  0  0  0  0  0  0  0  0
   67.3040   34.1370   51.4830 C   0  0  0  0  0  0  0  0  0  0  0  0
   66.0790   34.6070   51.9600 C   0  0  0  0  0  0  0  0  0  0  0  0
   64.8840   34.1160   51.4240 C   0  0  0  0  0  0  0  0  0  0  0  0
   63.1750   31.3930   49.9410 C   0  0  0  0  0  0  0  0  0  0  0  0
   61.9630   31.3580   49.2940 C   0  0  0  0  0  0  0  0  0  0  0  0
   61.1380   30.2320   49.1800 O   0  0  0  0  0  0  0  0  0  0  0  0
   60.3320   29.9450   48.0690 C   0  0  0  0  0  0  0  0  0  0  0  0
   60.8740   30.0890   46.7880 C   0  0  0  0  0  0  0  0  0  0  0  0
   60.0960   29.8340   45.6550 C   0  0  0  0  0  0  0  0  0  0  0  0
   58.7590   29.4140   45.7920 C   0  0  0  0  0  0  0  0  0  0  0  0
   57.9310   29.1500   44.6920 O   0  0  0  0  0  0  0  0  0  0  0  0
   56.5700   30.0880   44.2500 S   0  0  0  0  0  0  0  0  0  0  0  0
   55.1410   29.3290   44.8560 N   0  0  0  0  0  0  0  0  0  0  0  0
   56.6870   31.4650   44.8390 O   0  0  0  0  0  0  0  0  0  0  0  0
   56.4830   30.1830   42.7520 O   0  0  0  0  0  0  0  0  0  0  0  0
   58.2280   29.2440   47.0750 C   0  0  0  0  0  0  0  0  0  0  0  0
   59.0070   29.4980   48.2070 C   0  0  0  0  0  0  0  0  0  0  0  0
   59.0472   32.4733   51.6880 H   0  0  0  0  0  0  0  0  0  0  0  0
   60.2546   33.5576   50.9178 H   0  0  0  0  0  0  0  0  0  0  0  0
   58.5153   34.0064   50.9178 H   0  0  0  0  0  0  0  0  0  0  0  0
   57.2570   33.4329   47.8286 H   0  0  0  0  0  0  0  0  0  0  0  0
   60.1832   34.5255   44.8411 H   0  0  0  0  0  0  0  0  0  0  0  0
   62.0148   33.7505   46.3405 H   0  0  0  0  0  0  0  0  0  0  0  0
   66.1803   31.9166   49.1419 H   0  0  0  0  0  0  0  0  0  0  0  0
   68.3032   32.7991   50.1044 H   0  0  0  0  0  0  0  0  0  0  0  0
   68.2434   34.5272   51.9016 H   0  0  0  0  0  0  0  0  0  0  0  0
   66.0536   35.3639   52.7578 H   0  0  0  0  0  0  0  0  0  0  0  0
   63.9220   34.4885   51.8057 H   0  0  0  0  0  0  0  0  0  0  0  0
   63.6658   30.5441   50.4395 H   0  0  0  0  0  0  0  0  0  0  0  0
   61.9210   30.4055   46.6710 H   0  0  0  0  0  0  0  0  0  0  0  0
   60.5300   29.9620   44.6524 H   0  0  0  0  0  0  0  0  0  0  0  0
   55.4410   28.6720   45.6110 H   0  0  0  0  0  0  0  0  0  0  0  0
   57.1876   28.9073   47.1939 H   0  0  0  0  0  0  0  0  0  0  0  0
   58.5813   29.3474   49.2100 H   0  0  0  0  0  0  0  0  0  0  0  0
  1  2  1  0
  2  3  1  0
  3  4  2  0
  4  5  1  0
  5  6  1  0
  5  7  2  0
  7  8  1  0
  8  9  2  0
  9 10  1  0
 10 11  2  0
 11 12  1  0
 12 13  1  0
 13 14  2  0
 14 15  1  0
 15 16  2  0
 16 17  1  0
 17 18  2  0
 12 19  1  0
 19 20  2  0
 20 21  1  0
 21 22  1  0
 22 23  2  0
 23 24  1  0
 24 25  2  0
 25 26  1  0
 26 27  1  0
 27 28  1  0
 27 29  2  0
 27 30  2  0
 25 31  1  0
 31 32  2  0
  9  3  1  0
 20 10  1  0
 32 22  1  0
 18 13  1  0
  1 33  1  0
  1 34  1  0
  1 35  1  0
  4 36  1  0
  7 37  1  0
  8 38  1  0
 14 39  1  0
 15 40  1  0
 16 41  1  0
 17 42  1  0
 18 43  1  0
 19 44  1  0
 23 45  1  0
 24 46  1  0
 28 47  1  0
 31 48  1  0
 32 49  1  0
M  CHG  2   6  -1  28  -1
M  END
>  <UniqueID>  (4) 
4

>  <SMILES>  (4) 
COc1cc([O-])ccc1-c1nn(-c2ccccc2)cc1Oc1ccc(OS([NH-])(=O)=O)cc1

>  <Energy>  (4) 
94.29446076812393

>  <Genealogy>  (4) 
COc1cc([O-])ccc1-c1nn(-c2ccccc2)cc1Oc1ccc(OS([NH-])(=O)=O)cc1 (protonated)
COc1cc([O-])ccc1-c1nn(-c2ccccc2)cc1Oc1ccc(OS([NH-])(=O)=O)cc1 (3D coordinates assigned)
COc1cc([O-])ccc1-c1nn(-c2ccccc2)cc1Oc1ccc(OS([NH-])(=O)=O)cc1 (optimized conformer: 94.29446076812393 kcal/mol)

>  <smiles>  (4) 
COc1cc(O)ccc1-c1nn(-c2ccccc2)cc1Oc1ccc(OS(N)(=O)=O)cc1

>  <score_type>  (4) 
oracle

>  <origin>  (4) 
adg

>  <m_score__min__energy>  (4) 
-12.56

>  <m_primary>  (4) 
energy

$$$$
4:0
     RDKit          3D

 36 38  0  0  0  0  0  0  0  0999 V2000
   63.0220   31.5850   47.3480 C   0  0  0  0  0  0  0  0  0  0  0  0
   63.0430   33.3610   47.4560 S   0  0  0  0  0  0  0  0  0  0  0  0
   63.3550   33.9310   46.1020 O   0  0  0  0  0  0  0  0  0  0  0  0
   64.0970   33.8060   48.4300 O   0  0  0  0  0  0  0  0  0  0  0  0
   61.4930   33.9390   47.9680 N   0  0  0  0  0  0  0  0  0  0  0  0
   60.2810   33.6160   47.2840 C   0  0  0  0  0  0  0  0  0  0  0  0
   59.1520   34.4490   47.4300 C   0  0  0  0  0  0  0  0  0  0  0  0
   57.9610   34.1380   46.7550 C   0  0  0  0  0  0  0  0  0  0  0  0
   57.9590   32.9960   45.9630 C   0  0  0  0  0  0  0  0  0  0  0  0
   56.9310   32.5280   45.2270 N   0  0  0  0  0  0  0  0  0  0  0  0
   57.4530   31.4140   44.6490 C   0  0  0  0  0  0  0  0  0  0  0  0
   56.7010   30.5530   43.6760 C   0  0  0  0  0  0  0  0  0  0  0  0
   56.2460   29.2070   44.2780 C   0  0  2  0  0  0  0  0  0  0  0  0
   55.1690   29.3660   45.1690 O   0  0  0  0  0  0  0  0  0  0  0  0
   57.3870   28.4450   44.9110 C   0  0  0  0  0  0  0  0  0  0  0  0
   58.6140   28.1670   44.3320 C   0  0  0  0  0  0  0  0  0  0  0  0
   59.2980   27.3780   45.2350 C   0  0  0  0  0  0  0  0  0  0  0  0
   58.4600   27.2000   46.3180 C   0  0  0  0  0  0  0  0  0  0  0  0
   57.2980   27.8450   46.1130 N   0  0  0  0  0  0  0  0  0  0  0  0
   58.7740   31.2320   45.0370 C   0  0  0  0  0  0  0  0  0  0  0  0
   59.0590   32.2430   45.8630 N   0  0  0  0  0  0  0  0  0  0  0  0
   60.2030   32.5110   46.4860 N   0  0  0  0  0  0  0  0  0  0  0  0
   63.0169   31.1561   48.3609 H   0  0  0  0  0  0  0  0  0  0  0  0
   62.1200   31.2611   46.8082 H   0  0  0  0  0  0  0  0  0  0  0  0
   63.9161   31.2399   46.8082 H   0  0  0  0  0  0  0  0  0  0  0  0
   59.2047   35.3409   48.0717 H   0  0  0  0  0  0  0  0  0  0  0  0
   57.0668   34.7717   46.8490 H   0  0  0  0  0  0  0  0  0  0  0  0
   55.8105   31.1034   43.3383 H   0  0  0  0  0  0  0  0  0  0  0  0
   57.3858   30.3242   42.8461 H   0  0  0  0  0  0  0  0  0  0  0  0
   55.8849   28.5963   43.4373 H   0  0  0  0  0  0  0  0  0  0  0  0
   55.5180   29.7420   46.0160 H   0  0  0  0  0  0  0  0  0  0  0  0
   58.9720   28.5070   43.3490 H   0  0  0  0  0  0  0  0  0  0  0  0
   60.3127   26.9706   45.1152 H   0  0  0  0  0  0  0  0  0  0  0  0
   58.7069   26.6160   47.2169 H   0  0  0  0  0  0  0  0  0  0  0  0
   56.4780   27.8600   46.7600 H   0  0  0  0  0  0  0  0  0  0  0  0
   59.4487   30.4204   44.7272 H   0  0  0  0  0  0  0  0  0  0  0  0
  1  2  1  0
  2  3  2  0
  2  4  2  0
  2  5  1  0
  5  6  1  0
  6  7  1  0
  7  8  2  0
  8  9  1  0
  9 10  2  0
 10 11  1  0
 11 12  1  0
 12 13  1  0
 13 14  1  0
 13 15  1  0
 15 16  2  0
 16 17  1  0
 17 18  2  0
 18 19  1  0
 11 20  2  0
 20 21  1  0
 21 22  1  0
 22  6  2  0
 21  9  1  0
 19 15  1  0
  1 23  1  0
  1 24  1  0
  1 25  1  0
  7 26  1  0
  8 27  1  0
 12 28  1  0
 12 29  1  0
 13 30  1  6
 14 31  1  0
 16 32  1  0
 17 33  1  0
 18 34  1  0
 19 35  1  0
 20 36  1  0
M  CHG  1   5  -1
M  END
>  <UniqueID>  (5) 
5

>  <SMILES>  (5) 
CS(=O)(=O)[N-]c1ccc2nc(C[C@H](O)c3ccc[nH]3)cn2n1

>  <Energy>  (5) 
94.62816965764615

>  <Genealogy>  (5) 
CS(=O)(=O)[N-]c1ccc2nc(CC(O)c3ccc[nH]3)cn2n1 (protonated)
CS(=O)(=O)[N-]c1ccc2nc(C[C@H](O)c3ccc[nH]3)cn2n1 (chirality)
CS(=O)(=O)[N-]c1ccc2nc(C[C@H](O)c3ccc[nH]3)cn2n1 (3D coordinates assigned)
CS(=O)(=O)[N-]c1ccc2nc(C[C@H](O)c3ccc[nH]3)cn2n1 (optimized conformer: 94.62816965764615 kcal/mol)

>  <smiles>  (5) 
CS(=O)(=O)Nc1ccc2nc(CC(O)c3ccc[nH]3)cn2n1

>  <score_type>  (5) 
oracle

>  <origin>  (5) 
adg

>  <m_score__min__energy>  (5) 
-8.9700000000000006

>  <m_primary>  (5) 
energy

$$$$
5:0
     RDKit          3D

 69 73  0  0  0  0  0  0  0  0999 V2000
   62.4440   33.3910   47.1270 C   0  0  0  0  0  0  0  0  0  0  0  0
   61.3930   32.4080   47.4360 N   0  0  0  0  0  0  0  0  0  0  0  0
   61.8410   31.5310   48.5320 C   0  0  0  0  0  0  0  0  0  0  0  0
   60.1400   33.1050   47.7990 C   0  0  0  0  0  0  0  0  0  0  0  0
   59.1660   33.0920   46.6480 C   0  0  0  0  0  0  0  0  0  0  0  0
   58.3530   34.2080   46.3830 C   0  0  0  0  0  0  0  0  0  0  0  0
   57.4900   34.2060   45.2830 C   0  0  0  0  0  0  0  0  0  0  0  0
   57.4290   33.0900   44.4410 C   0  0  0  0  0  0  0  0  0  0  0  0
   58.2090   31.9570   44.7100 C   0  0  0  0  0  0  0  0  0  0  0  0
   58.1430   30.8230   43.8320 N   0  0  0  0  0  0  0  0  0  0  0  0
   57.1450   29.8020   43.9610 C   0  0  0  0  0  0  0  0  0  0  0  0
   56.0270   30.0710   44.4810 O   0  0  0  0  0  0  0  0  0  0  0  0
   57.4150   28.4120   43.4700 C   0  0  0  0  0  0  0  0  0  0  0  0
   58.0570   27.6290   44.5290 N   0  0  0  0  0  0  0  0  0  0  0  0
   58.9180   28.1090   45.4580 C   0  0  0  0  0  0  0  0  0  0  0  0
   59.4580   27.0630   46.1970 C   0  0  0  0  0  0  0  0  0  0  0  0
   60.4630   27.1830   47.3030 C   0  0  0  0  0  0  0  0  0  0  0  0
   60.0120   28.1790   48.3380 C   0  0  0  0  0  0  0  0  0  0  0  0
   59.0900   29.1840   48.0210 C   0  0  0  0  0  0  0  0  0  0  0  0
   58.6680   30.0470   48.9810 N   0  0  0  0  0  0  0  0  0  0  0  0
   59.1310   29.9650   50.2600 C   0  0  0  0  0  0  0  0  0  0  0  0
   58.6470   30.8810   51.2640 N   0  0  0  0  0  0  0  0  0  0  0  0
   58.9290   32.3160   51.1310 C   0  0  0  0  0  0  0  0  0  0  0  0
   58.2380   33.1180   52.2400 C   0  0  0  0  0  0  0  0  0  0  0  0
   56.8480   32.6780   52.3920 N   0  0  0  0  0  0  0  0  0  0  0  0
   56.7310   31.2650   52.8070 C   0  0  0  0  0  0  0  0  0  0  0  0
   57.9660   30.3990   52.4770 C   0  0  0  0  0  0  0  0  0  0  0  0
   60.0310   28.9960   50.5820 N   0  0  0  0  0  0  0  0  0  0  0  0
   60.4750   28.1080   49.6570 C   0  0  0  0  0  0  0  0  0  0  0  0
   58.8970   25.9080   45.6850 C   0  0  0  0  0  0  0  0  0  0  0  0
   59.1010   24.5670   46.0120 C   0  0  0  0  0  0  0  0  0  0  0  0
   58.4130   23.5970   45.2600 C   0  0  0  0  0  0  0  0  0  0  0  0
   57.5540   23.9830   44.2090 C   0  0  0  0  0  0  0  0  0  0  0  0
   57.3680   25.3420   43.9010 C   0  0  0  0  0  0  0  0  0  0  0  0
   58.0550   26.2870   44.6700 C   0  0  0  0  0  0  0  0  0  0  0  0
   59.0920   31.9710   45.8050 C   0  0  0  0  0  0  0  0  0  0  0  0
   62.8648   33.7846   48.0640 H   0  0  0  0  0  0  0  0  0  0  0  0
   63.2398   32.9056   46.5430 H   0  0  0  0  0  0  0  0  0  0  0  0
   62.0128   34.2175   46.5430 H   0  0  0  0  0  0  0  0  0  0  0  0
   61.6016   31.9997   49.4979 H   0  0  0  0  0  0  0  0  0  0  0  0
   61.3281   30.5607   48.4582 H   0  0  0  0  0  0  0  0  0  0  0  0
   62.9278   31.3778   48.4582 H   0  0  0  0  0  0  0  0  0  0  0  0
   59.6837   32.5997   48.6630 H   0  0  0  0  0  0  0  0  0  0  0  0
   60.3776   34.1499   48.0474 H   0  0  0  0  0  0  0  0  0  0  0  0
   58.3961   35.0863   47.0438 H   0  0  0  0  0  0  0  0  0  0  0  0
   56.8581   35.0830   45.0791 H   0  0  0  0  0  0  0  0  0  0  0  0
   56.7656   33.1020   43.5636 H   0  0  0  0  0  0  0  0  0  0  0  0
   58.8400   30.7450   43.0570 H   0  0  0  0  0  0  0  0  0  0  0  0
   56.4659   27.9338   43.1863 H   0  0  0  0  0  0  0  0  0  0  0  0
   58.0818   28.4579   42.5964 H   0  0  0  0  0  0  0  0  0  0  0  0
   59.1555   29.1728   45.6061 H   0  0  0  0  0  0  0  0  0  0  0  0
   60.5904   26.2005   47.7811 H   0  0  0  0  0  0  0  0  0  0  0  0
   61.4148   27.5303   46.8747 H   0  0  0  0  0  0  0  0  0  0  0  0
   58.7072   29.2746   46.9937 H   0  0  0  0  0  0  0  0  0  0  0  0
   60.0154   32.4763   51.1949 H   0  0  0  0  0  0  0  0  0  0  0  0
   58.5447   32.6596   50.1593 H   0  0  0  0  0  0  0  0  0  0  0  0
   58.7738   32.9632   53.1881 H   0  0  0  0  0  0  0  0  0  0  0  0
   58.2495   34.1848   51.9719 H   0  0  0  0  0  0  0  0  0  0  0  0
   56.3620   32.8000   51.4710 H   0  0  0  0  0  0  0  0  0  0  0  0
   56.5727   31.2380   53.8952 H   0  0  0  0  0  0  0  0  0  0  0  0
   55.8892   30.8401   52.2406 H   0  0  0  0  0  0  0  0  0  0  0  0
   58.6684   30.4392   53.3226 H   0  0  0  0  0  0  0  0  0  0  0  0
   57.6297   29.3667   52.3001 H   0  0  0  0  0  0  0  0  0  0  0  0
   61.1995   27.3316   49.9440 H   0  0  0  0  0  0  0  0  0  0  0  0
   59.7770   24.2778   46.8302 H   0  0  0  0  0  0  0  0  0  0  0  0
   58.5456   22.5302   45.4930 H   0  0  0  0  0  0  0  0  0  0  0  0
   57.0257   23.2142   43.6260 H   0  0  0  0  0  0  0  0  0  0  0  0
   56.7033   25.6523   43.0813 H   0  0  0  0  0  0  0  0  0  0  0  0
   59.7298   31.0968   46.0027 H   0  0  0  0  0  0  0  0  0  0  0  0
  1  2  1  0
  2  3  1  0
  2  4  1  0
  4  5  1  0
  5  6  2  0
  6  7  1  0
  7  8  2  0
  8  9  1  0
  9 10  1  0
 10 11  1  0
 11 12  2  0
 11 13  1  0
 13 14  1  0
 14 15  1  0
 15 16  2  0
 16 17  1  0
 17 18  1  0
 18 19  2  0
 19 20  1  0
 20 21  2  0
 21 22  1  0
 22 23  1  0
 23 24  1  0
 24 25  1  0
 25 26  1  0
 26 27  1  0
 21 28  1  0
 28 29  2  0
 16 30  1  0
 30 31  2  0
 31 32  1  0
 32 33  2  0
 33 34  1  0
 34 35  2  0
  9 36  2  0
 36  5  1  0
 35 14  1  0
 29 18  1  0
 35 30  1  0
 27 22  1  0
  1 37  1  0
  1 38  1  0
  1 39  1  0
  3 40  1  0
  3 41  1  0
  3 42  1  0
  4 43  1  0
  4 44  1  0
  6 45  1  0
  7 46  1  0
  8 47  1  0
 10 48  1  0
 13 49  1  0
 13 50  1  0
 15 51  1  0
 17 52  1  0
 17 53  1  0
 19 54  1  0
 23 55  1  0
 23 56  1  0
 24 57  1  0
 24 58  1  0
 25 59  1  0
 26 60  1  0
 26 61  1  0
 27 62  1  0
 27 63  1  0
 29 64  1  0
 31 65  1  0
 32 66  1  0
 33 67  1  0
 34 68  1  0
 36 69  1  0
M  END
>  <UniqueID>  (6) 
6

>  <SMILES>  (6) 
CN(C)Cc1cccc(NC(=O)Cn2cc(Cc3cnc(N4CCNCC4)nc3)c3ccccc32)c1

>  <Energy>  (6) 
112.45204226934183

>  <Genealogy>  (6) 
CN(C)Cc1cccc(NC(=O)Cn2cc(Cc3cnc(N4CCNCC4)nc3)c3ccccc32)c1 (3D coordinates assigned)
CN(C)Cc1cccc(NC(=O)Cn2cc(Cc3cnc(N4CCNCC4)nc3)c3ccccc32)c1 (nonaromatic ring conformer: 112.45204226934183 kcal/mol)

>  <smiles>  (6) 
CN(C)Cc1cccc(NC(=O)Cn2cc(Cc3cnc(N4CCNCC4)nc3)c3ccccc32)c1

>  <score_type>  (6) 
oracle

>  <origin>  (6) 
adg

>  <m_score__min__energy>  (6) 
-10.300000000000001

>  <m_primary>  (6) 
energy

$$$$
6:0
     RDKit          3D

 34 36  0  0  0  0  0  0  0  0999 V2000
   58.5108   35.2546   44.1447 H   0  0  0  0  0  0  0  0  0  0  0  0
   58.2420   34.3320   44.6800 C   0  0  0  0  0  0  0  0  0  0  0  0
   57.6300   33.2810   44.0720 N   0  0  0  0  0  0  0  0  0  0  0  0
   57.3910   32.2720   44.9370 C   0  0  0  0  0  0  0  0  0  0  0  0
   56.8460   31.1540   44.5580 N   0  0  0  0  0  0  0  0  0  0  0  0
   57.3850   29.8430   44.7740 C   0  0  0  0  0  0  0  0  0  0  0  0
   58.5700   29.6130   44.4160 O   0  0  0  0  0  0  0  0  0  0  0  0
   56.5760   28.8000   45.3440 N   0  0  0  0  0  0  0  0  0  0  0  0
   55.5810   29.0150   45.5790 H   0  0  0  0  0  0  0  0  0  0  0  0
   57.0750   27.5000   45.6970 C   0  0  0  0  0  0  0  0  0  0  0  0
   58.4530   27.2170   45.6710 C   0  0  0  0  0  0  0  0  0  0  0  0
   59.1681   28.0067   45.3973 H   0  0  0  0  0  0  0  0  0  0  0  0
   58.9190   25.9380   45.9910 C   0  0  0  0  0  0  0  0  0  0  0  0
   59.9987   25.7279   45.9797 H   0  0  0  0  0  0  0  0  0  0  0  0
   58.0150   24.9270   46.3250 C   0  0  0  0  0  0  0  0  0  0  0  0
   58.3832   23.9230   46.5825 H   0  0  0  0  0  0  0  0  0  0  0  0
   56.6430   25.1910   46.3320 C   0  0  0  0  0  0  0  0  0  0  0  0
   55.9323   24.3915   46.5883 H   0  0  0  0  0  0  0  0  0  0  0  0
   56.1700   26.4690   46.0140 C   0  0  0  0  0  0  0  0  0  0  0  0
   54.8020   26.7130   46.0250 O   0  0  0  0  0  0  0  0  0  0  0  0
   57.9560   32.6250   46.4920 S   0  0  0  0  0  0  0  0  0  0  0  0
   58.5000   34.1460   46.0310 C   0  0  0  0  0  0  0  0  0  0  0  0
   59.2790   35.3320   47.1200 S   0  0  0  0  0  0  0  0  0  0  0  0
   60.2310   34.0640   47.9550 C   0  0  0  0  0  0  0  0  0  0  0  0
   61.3060   33.4490   47.3010 C   0  0  0  0  0  0  0  0  0  0  0  0
   61.5607   33.7387   46.2709 H   0  0  0  0  0  0  0  0  0  0  0  0
   62.0560   32.4670   47.9560 C   0  0  0  0  0  0  0  0  0  0  0  0
   62.9012   31.9862   47.4418 H   0  0  0  0  0  0  0  0  0  0  0  0
   61.7310   32.0960   49.2660 C   0  0  0  0  0  0  0  0  0  0  0  0
   62.6730   30.8660   50.0880 Cl  0  0  0  0  0  0  0  0  0  0  0  0
   60.6560   32.7090   49.9200 C   0  0  0  0  0  0  0  0  0  0  0  0
   60.4009   32.4182   50.9497 H   0  0  0  0  0  0  0  0  0  0  0  0
   59.9060   33.6910   49.2650 C   0  0  0  0  0  0  0  0  0  0  0  0
   59.0602   34.1707   49.7792 H   0  0  0  0  0  0  0  0  0  0  0  0
  1  2  1  0
  2  3  1  0
  3  4  1  0
  4  5  2  0
  5  6  1  0
  6  7  2  0
  6  8  1  0
  8  9  1  0
  8 10  1  0
 10 11  2  0
 11 12  1  0
 11 13  1  0
 13 14  1  0
 13 15  2  0
 15 16  1  0
 15 17  1  0
 17 18  1  0
 17 19  2  0
 19 20  1  0
  4 21  1  0
 21 22  1  0
 22 23  1  0
 23 24  1  0
 24 25  2  0
 25 26  1  0
 25 27  1  0
 27 28  1  0
 27 29  2  0
 29 30  1  0
 29 31  1  0
 31 32  1  0
 31 33  2  0
 33 34  1  0
 22  2  2  0
 33 24  1  0
 19 10  1  0
M  CHG  2   3  -1  20  -1
M  END
>  <UniqueID>  (7) 
7

>  <SMILES>  (7) 
O=C(/N=c1/[n-]cc(Sc2ccc(Cl)cc2)s1)Nc1ccccc1[O-]

>  <Energy>  (7) 
73.34131018211299

>  <Genealogy>  (7) 
O=C(N=c1[n-]cc(Sc2ccc(Cl)cc2)s1)Nc1ccccc1[O-] (protonated)
O=C(/N=c1/[n-]cc(Sc2ccc(Cl)cc2)s1)Nc1ccccc1[O-] (cis-trans isomerization)
O=C(/N=c1/[n-]cc(Sc2ccc(Cl)cc2)s1)Nc1ccccc1[O-] (3D coordinates assigned)
O=C(/N=c1/[n-]cc(Sc2ccc(Cl)cc2)s1)Nc1ccccc1[O-] (optimized conformer: 73.34131018211299 kcal/mol)

>  <smiles>  (7) 
O=C(N=c1[nH]cc(Sc2ccc(Cl)cc2)s1)Nc1ccccc1O

>  <score_type>  (7) 
oracle

>  <origin>  (7) 
adg

>  <m_score__min__energy>  (7) 
-14.460000000000001

>  <m_primary>  (7) 
energy

$$$$
7:0
     RDKit          3D

 34 36  0  0  1  0  0  0  0  0999 V2000
   55.1690   29.7120   43.4460 N   0  0  0  0  0  0  0  0  0  0  0  0
   56.2950   29.8240   44.0660 C   0  0  0  0  0  0  0  0  0  0  0  0
   56.7320   31.0370   44.5190 N   0  0  0  0  0  0  0  0  0  0  0  0
   57.9030   31.1670   45.1670 C   0  0  0  0  0  0  0  0  0  0  0  0
   58.3730   32.4570   45.6500 C   0  0  0  0  0  0  0  0  0  0  0  0
   58.5020   32.7200   47.0030 C   0  0  0  0  0  0  0  0  0  0  0  0
   58.9520   33.9540   47.4680 C   0  0  0  0  0  0  0  0  0  0  0  0
   59.2890   34.9670   46.5960 C   0  0  0  0  0  0  0  0  0  0  0  0
   59.1640   34.7100   45.2550 C   0  0  0  0  0  0  0  0  0  0  0  0
   58.7170   33.4850   44.7950 C   0  0  0  0  0  0  0  0  0  0  0  0
   58.6340   30.0110   45.3470 C   0  0  0  0  0  0  0  0  0  0  0  0
   58.1710   28.7940   44.8790 C   0  0  0  0  0  0  0  0  0  0  0  0
   58.8740   27.7190   45.0580 N   0  0  0  0  0  0  0  0  0  0  0  0
   58.2080   26.5060   45.3010 C   0  0  0  0  0  0  0  0  0  0  0  0
   57.9760   26.1630   46.6350 C   0  0  0  0  0  0  0  0  0  0  0  0
   57.3290   24.9910   46.9660 C   0  0  0  0  0  0  0  0  0  0  0  0
   56.8880   24.1170   45.9950 C   0  0  0  0  0  0  0  0  0  0  0  0
   57.1110   24.4460   44.6610 C   0  0  0  0  0  0  0  0  0  0  0  0
   56.5580   23.3480   43.4190 Cl  0  0  0  0  0  0  0  0  0  0  0  0
   57.7690   25.6380   44.3370 C   0  0  0  0  0  0  0  0  0  0  0  0
   57.0100   28.6990   44.2430 N   0  0  0  0  0  0  0  0  0  0  0  0
   55.1520   29.1890   42.5490 H   0  0  0  0  0  0  0  0  0  0  0  0
   56.0980   31.8310   44.3240 H   0  0  0  0  0  0  0  0  0  0  0  0
   58.2428   31.9353   47.7290 H   0  0  0  0  0  0  0  0  0  0  0  0
   59.0400   34.1230   48.5514 H   0  0  0  0  0  0  0  0  0  0  0  0
   59.6438   35.9421   46.9612 H   0  0  0  0  0  0  0  0  0  0  0  0
   59.4248   35.4949   44.5298 H   0  0  0  0  0  0  0  0  0  0  0  0
   58.6325   33.3239   43.7101 H   0  0  0  0  0  0  0  0  0  0  0  0
   59.6002   30.0575   45.8708 H   0  0  0  0  0  0  0  0  0  0  0  0
   58.3148   26.8385   47.4343 H   0  0  0  0  0  0  0  0  0  0  0  0
   57.1614   24.7486   48.0258 H   0  0  0  0  0  0  0  0  0  0  0  0
   56.3733   23.1839   46.2675 H   0  0  0  0  0  0  0  0  0  0  0  0
   57.9383   25.8845   43.2784 H   0  0  0  0  0  0  0  0  0  0  0  0
   56.6490   27.7890   43.8860 H   0  0  0  0  0  0  0  0  0  0  0  0
  1  2  2  3
  2  3  1  0
  3  4  1  0
  4  5  1  0
  5  6  2  0
  6  7  1  0
  7  8  2  0
  8  9  1  0
  9 10  2  0
  4 11  2  0
 11 12  1  0
 12 13  2  0
 13 14  1  0
 14 15  2  0
 15 16  1  0
 16 17  2  0
 17 18  1  0
 18 19  1  0
 18 20  2  0
 12 21  1  0
 21  2  1  0
 10  5  1  0
 20 14  1  0
  1 22  1  0
  3 23  1  0
  6 24  1  0
  7 25  1  0
  8 26  1  0
  9 27  1  0
 10 28  1  0
 11 29  1  0
 15 30  1  0
 16 31  1  0
 17 32  1  0
 20 33  1  0
 21 34  1  0
M  END
>  <smiles>  (8) 
N=c1[nH]c(-c2ccccc2)cc(=Nc2cccc(Cl)c2)[nH]1

>  <score_type>  (8) 
oracle

>  <origin>  (8) 
adg

>  <m_score__min__energy>  (8) 
-7.7400000000000002

>  <m_primary>  (8) 
energy

$$$$
8:0
     RDKit          3D

 44 46  0  0  0  0  0  0  0  0999 V2000
   59.3600   32.3280   49.9850 N   0  0  0  0  0  0  0  0  0  0  0  0
   59.8670   33.7960   49.2330 S   0  0  0  0  0  0  0  0  0  0  0  0
   61.3690   33.8860   49.2930 O   0  0  0  0  0  0  0  0  0  0  0  0
   59.2690   34.9540   49.9800 O   0  0  0  0  0  0  0  0  0  0  0  0
   59.3340   33.8610   47.5530 C   0  0  0  0  0  0  0  0  0  0  0  0
   59.9710   34.7360   46.6580 C   0  0  0  0  0  0  0  0  0  0  0  0
   59.5330   34.8310   45.3300 C   0  0  0  0  0  0  0  0  0  0  0  0
   58.4640   34.0420   44.8880 C   0  0  0  0  0  0  0  0  0  0  0  0
   57.8310   33.1460   45.7660 C   0  0  0  0  0  0  0  0  0  0  0  0
   56.7240   32.3250   45.3540 N   0  0  0  0  0  0  0  0  0  0  0  0
   56.8700   30.8470   44.4600 S   0  0  0  0  0  0  0  0  0  0  0  0
   55.5280   30.1710   44.4010 O   0  0  0  0  0  0  0  0  0  0  0  0
   57.3280   31.1350   43.0600 O   0  0  0  0  0  0  0  0  0  0  0  0
   58.0040   29.7980   45.2980 C   0  0  0  0  0  0  0  0  0  0  0  0
   58.6810   28.7740   44.6120 C   0  0  0  0  0  0  0  0  0  0  0  0
   59.6900   28.0490   45.2510 C   0  0  0  0  0  0  0  0  0  0  0  0
   60.0310   28.3400   46.5760 C   0  0  0  0  0  0  0  0  0  0  0  0
   61.0230   27.6320   47.1760 F   0  0  0  0  0  0  0  0  0  0  0  0
   59.3450   29.3500   47.2790 C   0  0  0  0  0  0  0  0  0  0  0  0
   59.7330   29.7020   48.6580 C   0  0  0  0  0  0  0  0  0  0  0  0
   58.8420   29.8540   49.5390 O   0  0  0  0  0  0  0  0  0  0  0  0
   61.1130   29.8490   49.0240 N   0  0  0  0  0  0  0  0  0  0  0  0
   61.9610   30.9070   48.5570 C   0  0  0  0  0  0  0  0  0  0  0  0
   61.7250   31.5410   47.3220 C   0  0  0  0  0  0  0  0  0  0  0  0
   62.5610   32.5770   46.8950 C   0  0  0  0  0  0  0  0  0  0  0  0
   63.6320   32.9870   47.6950 C   0  0  0  0  0  0  0  0  0  0  0  0
   63.8600   32.3710   48.9310 C   0  0  0  0  0  0  0  0  0  0  0  0
   65.1960   32.8950   49.9420 Cl  0  0  0  0  0  0  0  0  0  0  0  0
   63.0200   31.3400   49.3650 C   0  0  0  0  0  0  0  0  0  0  0  0
   58.3200   30.0650   46.6370 C   0  0  0  0  0  0  0  0  0  0  0  0
   58.2580   33.0710   47.1070 C   0  0  0  0  0  0  0  0  0  0  0  0
   58.5030   32.0020   49.4890 H   0  0  0  0  0  0  0  0  0  0  0  0
   60.0970   31.6170   49.7990 H   0  0  0  0  0  0  0  0  0  0  0  0
   60.8173   35.3494   47.0007 H   0  0  0  0  0  0  0  0  0  0  0  0
   60.0288   35.5250   44.6354 H   0  0  0  0  0  0  0  0  0  0  0  0
   58.1177   34.1241   43.8472 H   0  0  0  0  0  0  0  0  0  0  0  0
   58.4155   28.5432   43.5698 H   0  0  0  0  0  0  0  0  0  0  0  0
   60.2169   27.2483   44.7114 H   0  0  0  0  0  0  0  0  0  0  0  0
   60.8818   31.2207   46.6924 H   0  0  0  0  0  0  0  0  0  0  0  0
   62.3761   33.0699   45.9291 H   0  0  0  0  0  0  0  0  0  0  0  0
   64.2960   33.7944   47.3527 H   0  0  0  0  0  0  0  0  0  0  0  0
   63.1917   30.8680   50.3436 H   0  0  0  0  0  0  0  0  0  0  0  0
   57.7632   30.8375   47.1876 H   0  0  0  0  0  0  0  0  0  0  0  0
   57.7486   32.3928   47.8074 H   0  0  0  0  0  0  0  0  0  0  0  0
  1  2  1  0
  2  3  2  0
  2  4  2  0
  2  5  1  0
  5  6  2  0
  6  7  1  0
  7  8  2  0
  8  9  1  0
  9 10  1  0
 10 11  1  0
 11 12  2  0
 11 13  2  0
 11 14  1  0
 14 15  2  0
 15 16  1  0
 16 17  2  0
 17 18  1  0
 17 19  1  0
 19 20  1  0
 20 21  2  0
 20 22  1  0
 22 23  1  0
 23 24  2  0
 24 25  1  0
 25 26  2  0
 26 27  1  0
 27 28  1  0
 27 29  2  0
 19 30  2  0
  9 31  2  0
 31  5  1  0
 30 14  1  0
 29 23  1  0
  1 32  1  0
  1 33  1  0
  6 34  1  0
  7 35  1  0
  8 36  1  0
 15 37  1  0
 16 38  1  0
 24 39  1  0
 25 40  1  0
 26 41  1  0
 29 42  1  0
 30 43  1  0
 31 44  1  0
M  CHG  2  10  -1  22  -1
M  END
>  <UniqueID>  (9) 
8

>  <SMILES>  (9) 
NS(=O)(=O)c1cccc([N-]S(=O)(=O)c2ccc(F)c(C(=O)[N-]c3cccc(Cl)c3)c2)c1

>  <Energy>  (9) 
56.35743712814339

>  <Genealogy>  (9) 
NS(=O)(=O)c1cccc([N-]S(=O)(=O)c2ccc(F)c(C(=O)[N-]c3cccc(Cl)c3)c2)c1 (protonated)
NS(=O)(=O)c1cccc([N-]S(=O)(=O)c2ccc(F)c(C(=O)[N-]c3cccc(Cl)c3)c2)c1 (3D coordinates assigned)
NS(=O)(=O)c1cccc([N-]S(=O)(=O)c2ccc(F)c(C(=O)[N-]c3cccc(Cl)c3)c2)c1 (optimized conformer: 56.35743712814339 kcal/mol)

>  <smiles>  (9) 
NS(=O)(=O)c1cccc(NS(=O)(=O)c2ccc(F)c(C(=O)Nc3cccc(Cl)c3)c2)c1

>  <score_type>  (9) 
oracle

>  <origin>  (9) 
adg

>  <m_score__min__energy>  (9) 
-12.140000000000001

>  <m_primary>  (9) 
energy

$$$$
9:0
     RDKit          3D

 38 39  0  0  0  0  0  0  0  0999 V2000
   57.4430   31.6880   41.9430 C   0  0  0  0  0  0  0  0  0  0  0  0
   57.5590   31.9380   43.2510 C   0  0  0  0  0  0  0  0  0  0  0  0
   57.9470   33.1640   43.7630 C   0  0  0  0  0  0  0  0  0  0  0  0
   57.7870   33.0790   45.1300 C   0  0  0  0  0  0  0  0  0  0  0  0
   58.1250   34.1560   46.1090 C   0  0  0  0  0  0  0  0  0  0  0  0
   57.3500   31.8550   45.4810 N   0  0  0  0  0  0  0  0  0  0  0  0
   57.2240   31.1290   44.3500 C   0  0  0  0  0  0  0  0  0  0  0  0
   56.8440   29.8380   44.3840 C   0  0  0  0  0  0  0  0  0  0  0  0
   57.5090   28.7720   45.1450 C   0  0  0  0  0  0  0  0  0  0  0  0
   59.1770   28.6310   45.3360 S   0  0  0  0  0  0  0  0  0  0  0  0
   59.0540   27.1580   46.1360 C   0  0  0  0  0  0  0  0  0  0  0  0
   60.0400   26.5160   46.5870 O   0  0  0  0  0  0  0  0  0  0  0  0
   57.7700   26.7380   46.2380 N   0  0  0  0  0  0  0  0  0  0  0  0
   57.3500   25.5000   46.9020 C   0  0  0  0  0  0  0  0  0  0  0  0
   56.9960   24.4570   45.8750 C   0  0  0  0  0  0  0  0  0  0  0  0
   57.3890   23.3090   46.0430 O   0  0  0  0  0  0  0  0  0  0  0  0
   56.2120   24.7950   44.7030 N   0  0  0  0  0  0  0  0  0  0  0  0
   54.9490   24.0410   44.6990 C   0  0  0  0  0  0  0  0  0  0  0  0
   56.9830   24.5260   43.4800 C   0  0  0  0  0  0  0  0  0  0  0  0
   56.9060   27.6310   45.6760 C   0  0  0  0  0  0  0  0  0  0  0  0
   55.5330   27.4080   45.6230 O   0  0  0  0  0  0  0  0  0  0  0  0
   57.1297   30.6912   41.5992 H   0  0  0  0  0  0  0  0  0  0  0  0
   57.6608   32.4791   41.2104 H   0  0  0  0  0  0  0  0  0  0  0  0
   58.3102   34.0322   43.1935 H   0  0  0  0  0  0  0  0  0  0  0  0
   58.0045   33.7720   47.1327 H   0  0  0  0  0  0  0  0  0  0  0  0
   59.1666   34.4755   45.9575 H   0  0  0  0  0  0  0  0  0  0  0  0
   57.4527   35.0134   45.9575 H   0  0  0  0  0  0  0  0  0  0  0  0
   57.1780   31.5240   46.4580 H   0  0  0  0  0  0  0  0  0  0  0  0
   55.9606   29.5576   43.7916 H   0  0  0  0  0  0  0  0  0  0  0  0
   58.1720   25.1273   47.5308 H   0  0  0  0  0  0  0  0  0  0  0  0
   56.4671   25.7068   47.5246 H   0  0  0  0  0  0  0  0  0  0  0  0
   55.9740   25.8160   44.7130 H   0  0  0  0  0  0  0  0  0  0  0  0
   54.6318   23.8516   45.7351 H   0  0  0  0  0  0  0  0  0  0  0  0
   54.1750   24.6249   44.1795 H   0  0  0  0  0  0  0  0  0  0  0  0
   55.0958   23.0826   44.1795 H   0  0  0  0  0  0  0  0  0  0  0  0
   57.9896   24.1748   43.7509 H   0  0  0  0  0  0  0  0  0  0  0  0
   56.4722   23.7530   42.8871 H   0  0  0  0  0  0  0  0  0  0  0  0
   57.0639   25.4490   42.8871 H   0  0  0  0  0  0  0  0  0  0  0  0
  1  2  2  0
  2  3  1  0
  3  4  2  0
  4  5  1  0
  4  6  1  0
  6  7  1  0
  7  8  2  3
  8  9  1  0
  9 10  1  0
 10 11  1  0
 11 12  2  0
 11 13  1  0
 13 14  1  0
 14 15  1  0
 15 16  2  0
 15 17  1  0
 17 18  1  0
 17 19  1  0
 13 20  1  0
 20 21  1  0
  7  2  1  0
 20  9  2  0
  1 22  1  0
  1 23  1  0
  3 24  1  0
  5 25  1  0
  5 26  1  0
  5 27  1  0
  6 28  1  0
  8 29  1  0
 14 30  1  0
 14 31  1  0
 17 32  1  0
 18 33  1  0
 18 34  1  0
 18 35  1  0
 19 36  1  0
 19 37  1  0
 19 38  1  0
M  CHG  2  17   1  21  -1
M  END
>  <UniqueID>  (10) 
9

>  <SMILES>  (10) 
C=c1cc(C)[nH]c1=Cc1sc(=O)n(CC(=O)[NH+](C)C)c1[O-]

>  <Energy>  (10) 
103.22267956990991

>  <Genealogy>  (10) 
C=c1cc(C)[nH]c1=Cc1sc(=O)n(CC(=O)[NH+](C)C)c1[O-] (protonated)
C=c1cc(C)[nH]c1=Cc1sc(=O)n(CC(=O)[NH+](C)C)c1[O-] (3D coordinates assigned)
C=c1cc(C)[nH]c1=Cc1sc(=O)n(CC(=O)[NH+](C)C)c1[O-] (optimized conformer: 103.22267956990991 kcal/mol)

>  <smiles>  (10) 
C=c1cc(C)[nH]c1=Cc1sc(=O)n(CC(=O)N(C)C)c1O

>  <score_type>  (10) 
oracle

>  <origin>  (10) 
adg

>  <m_score__min__energy>  (10) 
-8.7100000000000009

>  <m_primary>  (10) 
energy

$$$$
10:0
     RDKit          3D

 50 53  0  0  0  0  0  0  0  0999 V2000
   55.3720   30.4970   52.3500 C   0  0  0  0  0  0  0  0  0  0  0  0
   56.4630   29.6160   52.1020 O   0  0  0  0  0  0  0  0  0  0  0  0
   57.7680   30.0330   51.7980 C   0  0  0  0  0  0  0  0  0  0  0  0
   58.7150   30.0380   52.8230 C   0  0  0  0  0  0  0  0  0  0  0  0
   60.0260   30.4410   52.5760 C   0  0  0  0  0  0  0  0  0  0  0  0
   60.4150   30.8560   51.2930 C   0  0  0  0  0  0  0  0  0  0  0  0
   61.7020   31.2310   51.0640 N   0  0  0  0  0  0  0  0  0  0  0  0
   62.1060   31.7140   49.8570 C   0  0  0  0  0  0  0  0  0  0  0  0
   63.4210   32.1850   49.7070 C   0  0  0  0  0  0  0  0  0  0  0  0
   63.8220   32.7970   48.5220 C   0  0  0  0  0  0  0  0  0  0  0  0
   62.9050   32.9840   47.4910 C   0  0  0  0  0  0  0  0  0  0  0  0
   63.3850   33.8410   46.0370 Cl  0  0  0  0  0  0  0  0  0  0  0  0
   61.5960   32.5120   47.6220 C   0  0  0  0  0  0  0  0  0  0  0  0
   61.1940   31.7900   48.7710 C   0  0  0  0  0  0  0  0  0  0  0  0
   59.8870   31.2340   48.9360 C   0  0  0  0  0  0  0  0  0  0  0  0
   59.0560   31.0000   47.9480 N   0  0  0  0  0  0  0  0  0  0  0  0
   58.6650   29.7630   47.3340 C   0  0  0  0  0  0  0  0  0  0  0  0
   59.0120   28.5360   47.9210 C   0  0  0  0  0  0  0  0  0  0  0  0
   58.5910   27.3360   47.3480 C   0  0  0  0  0  0  0  0  0  0  0  0
   57.7970   27.3410   46.1970 C   0  0  0  0  0  0  0  0  0  0  0  0
   57.3920   26.0820   45.6410 N   0  0  0  0  0  0  0  0  0  0  0  0
   55.8670   25.3090   45.9250 S   0  0  0  0  0  0  0  0  0  0  0  0
   55.5310   24.1910   44.5840 C   0  0  0  0  0  0  0  0  0  0  0  0
   55.9180   24.5320   47.2110 O   0  0  0  0  0  0  0  0  0  0  0  0
   54.7750   26.3390   45.9900 O   0  0  0  0  0  0  0  0  0  0  0  0
   57.4150   28.5690   45.6290 C   0  0  0  0  0  0  0  0  0  0  0  0
   57.8380   29.7860   46.2020 C   0  0  0  0  0  0  0  0  0  0  0  0
   57.4660   31.0320   45.6710 O   0  0  0  0  0  0  0  0  0  0  0  0
   57.8430   31.5050   44.3820 C   0  0  0  0  0  0  0  0  0  0  0  0
   59.4720   30.8610   50.2390 C   0  0  0  0  0  0  0  0  0  0  0  0
   58.1490   30.4400   50.5060 C   0  0  0  0  0  0  0  0  0  0  0  0
   55.2316   30.6104   53.4351 H   0  0  0  0  0  0  0  0  0  0  0  0
   55.5851   31.4793   51.9032 H   0  0  0  0  0  0  0  0  0  0  0  0
   54.4566   30.0818   51.9032 H   0  0  0  0  0  0  0  0  0  0  0  0
   58.4240   29.7209   53.8353 H   0  0  0  0  0  0  0  0  0  0  0  0
   60.7620   30.4338   53.3934 H   0  0  0  0  0  0  0  0  0  0  0  0
   62.3900   31.1940   51.8530 H   0  0  0  0  0  0  0  0  0  0  0  0
   64.1395   32.0695   50.5319 H   0  0  0  0  0  0  0  0  0  0  0  0
   64.8625   33.1325   48.4006 H   0  0  0  0  0  0  0  0  0  0  0  0
   60.8677   32.7045   46.8205 H   0  0  0  0  0  0  0  0  0  0  0  0
   59.6193   28.5208   48.8380 H   0  0  0  0  0  0  0  0  0  0  0  0
   58.8855   26.3795   47.8045 H   0  0  0  0  0  0  0  0  0  0  0  0
   55.2366   23.2113   44.9884 H   0  0  0  0  0  0  0  0  0  0  0  0
   54.7141   24.5935   43.9670 H   0  0  0  0  0  0  0  0  0  0  0  0
   56.4344   24.0765   43.9670 H   0  0  0  0  0  0  0  0  0  0  0  0
   56.7809   28.5805   44.7302 H   0  0  0  0  0  0  0  0  0  0  0  0
   58.5253   32.3610   44.4906 H   0  0  0  0  0  0  0  0  0  0  0  0
   58.3498   30.6999   43.8298 H   0  0  0  0  0  0  0  0  0  0  0  0
   56.9451   31.8195   43.8298 H   0  0  0  0  0  0  0  0  0  0  0  0
   57.4079   30.4305   49.6932 H   0  0  0  0  0  0  0  0  0  0  0  0
  1  2  1  0
  2  3  1  0
  3  4  2  0
  4  5  1  0
  5  6  2  0
  6  7  1  0
  7  8  1  0
  8  9  2  0
  9 10  1  0
 10 11  2  0
 11 12  1  0
 11 13  1  0
 13 14  2  0
 14 15  1  0
 15 16  2  3
 16 17  1  0
 17 18  2  0
 18 19  1  0
 19 20  2  0
 20 21  1  0
 21 22  1  0
 22 23  1  0
 22 24  2  0
 22 25  2  0
 20 26  1  0
 26 27  2  0
 27 28  1  0
 28 29  1  0
 15 30  1  0
 30 31  2  0
 31  3  1  0
 30  6  1  0
 14  8  1  0
 27 17  1  0
  1 32  1  0
  1 33  1  0
  1 34  1  0
  4 35  1  0
  5 36  1  0
  7 37  1  0
  9 38  1  0
 10 39  1  0
 13 40  1  0
 18 41  1  0
 19 42  1  0
 23 43  1  0
 23 44  1  0
 23 45  1  0
 26 46  1  0
 29 47  1  0
 29 48  1  0
 29 49  1  0
 31 50  1  0
M  CHG  1  21  -1
M  END
>  <UniqueID>  (11) 
10

>  <SMILES>  (11) 
COc1ccc2[nH]c3ccc(Cl)cc3c(=Nc3ccc([N-]S(C)(=O)=O)cc3OC)c2c1

>  <Energy>  (11) 
80.71125108366003

>  <Genealogy>  (11) 
COc1ccc2[nH]c3ccc(Cl)cc3c(=Nc3ccc([N-]S(C)(=O)=O)cc3OC)c2c1 (protonated)
COc1ccc2[nH]c3ccc(Cl)cc3c(=Nc3ccc([N-]S(C)(=O)=O)cc3OC)c2c1 (3D coordinates assigned)
COc1ccc2[nH]c3ccc(Cl)cc3c(=Nc3ccc([N-]S(C)(=O)=O)cc3OC)c2c1 (optimized conformer: 80.71125108366003 kcal/mol)

>  <smiles>  (11) 
COc1ccc2[nH]c3ccc(Cl)cc3c(=Nc3ccc(NS(C)(=O)=O)cc3OC)c2c1

>  <score_type>  (11) 
oracle

>  <origin>  (11) 
adg

>  <m_score__min__energy>  (11) 
-10.539999999999999

>  <m_primary>  (11) 
energy

$$$$
11:0
     RDKit          3D

 44 46  0  0  0  0  0  0  0  0999 V2000
   61.4406   34.8369   49.4955 H   0  0  0  0  0  0  0  0  0  0  0  0
   61.0800   34.2030   48.6720 C   0  0  0  0  0  0  0  0  0  0  0  0
   59.7860   34.2120   48.2520 N   0  0  0  0  0  0  0  0  0  0  0  0
   59.5810   33.3630   47.2210 C   0  0  0  0  0  0  0  0  0  0  0  0
   58.2890   33.2150   46.6080 N   0  0  0  0  0  0  0  0  0  0  0  0
   57.9890   32.5830   45.5090 C   0  0  0  0  0  0  0  0  0  0  0  0
   57.3790   31.3650   45.5320 N   0  0  0  0  0  0  0  0  0  0  0  0
   57.0620   30.6790   44.3980 C   0  0  0  0  0  0  0  0  0  0  0  0
   56.4100   29.3520   44.4990 C   0  0  0  0  0  0  0  0  0  0  0  0
   55.1480   29.2850   44.5100 O   0  0  0  0  0  0  0  0  0  0  0  0
   57.2050   28.1370   44.5210 N   0  0  1  0  0  0  0  0  0  0  0  0
   56.7970   27.4720   43.8220 H   0  0  0  0  0  0  0  0  0  0  0  0
   58.5910   28.3770   44.0760 C   0  0  0  0  0  0  0  0  0  0  0  0
   59.2437   28.4900   44.9542 H   0  0  0  0  0  0  0  0  0  0  0  0
   58.9346   27.5250   43.4710 H   0  0  0  0  0  0  0  0  0  0  0  0
   58.6281   29.2949   43.4710 H   0  0  0  0  0  0  0  0  0  0  0  0
   57.1470   27.4680   45.8430 C   0  0  0  0  0  0  0  0  0  0  0  0
   56.2194   27.7766   46.3473 H   0  0  0  0  0  0  0  0  0  0  0  0
   57.1844   26.3848   45.6554 H   0  0  0  0  0  0  0  0  0  0  0  0
   58.3150   27.7990   46.7480 C   0  0  0  0  0  0  0  0  0  0  0  0
   58.4890   29.1030   47.2390 C   0  0  0  0  0  0  0  0  0  0  0  0
   57.7741   29.8918   46.9620 H   0  0  0  0  0  0  0  0  0  0  0  0
   59.5660   29.4040   48.0780 C   0  0  0  0  0  0  0  0  0  0  0  0
   59.6948   30.4272   48.4608 H   0  0  0  0  0  0  0  0  0  0  0  0
   60.4790   28.4070   48.4310 C   0  0  0  0  0  0  0  0  0  0  0  0
   61.3239   28.6448   49.0940 H   0  0  0  0  0  0  0  0  0  0  0  0
   60.3190   27.1080   47.9420 C   0  0  0  0  0  0  0  0  0  0  0  0
   61.0395   26.3241   48.2183 H   0  0  0  0  0  0  0  0  0  0  0  0
   59.2440   26.8040   47.1020 C   0  0  0  0  0  0  0  0  0  0  0  0
   59.1239   25.7811   46.7157 H   0  0  0  0  0  0  0  0  0  0  0  0
   57.3750   31.2420   43.1500 C   0  0  0  0  0  0  0  0  0  0  0  0
   57.1312   30.7040   42.2220 H   0  0  0  0  0  0  0  0  0  0  0  0
   57.9980   32.4900   43.0970 C   0  0  0  0  0  0  0  0  0  0  0  0
   58.2447   32.9409   42.1245 H   0  0  0  0  0  0  0  0  0  0  0  0
   58.3080   33.1660   44.2790 C   0  0  0  0  0  0  0  0  0  0  0  0
   58.7993   34.1495   44.2426 H   0  0  0  0  0  0  0  0  0  0  0  0
   61.0060   32.5680   46.7860 S   0  0  0  0  0  0  0  0  0  0  0  0
   61.9110   33.3300   47.9790 C   0  0  0  0  0  0  0  0  0  0  0  0
   63.3870   33.1720   48.1800 C   0  0  0  0  0  0  0  0  0  0  0  0
   63.8308   34.1591   48.3766 H   0  0  0  0  0  0  0  0  0  0  0  0
   63.5538   32.4972   49.0325 H   0  0  0  0  0  0  0  0  0  0  0  0
   64.0180   32.5920   46.9980 N   0  0  0  0  0  0  0  0  0  0  0  0
   64.2410   31.5890   47.1930 H   0  0  0  0  0  0  0  0  0  0  0  0
   64.9220   33.0900   46.8200 H   0  0  0  0  0  0  0  0  0  0  0  0
  1  2  1  0
  2  3  1  0
  3  4  2  0
  4  5  1  0
  5  6  2  0
  6  7  1  0
  7  8  1  0
  8  9  1  0
  9 10  2  0
  9 11  1  0
 11 12  1  6
 11 13  1  0
 13 14  1  0
 13 15  1  0
 13 16  1  0
 11 17  1  0
 17 18  1  0
 17 19  1  0
 17 20  1  0
 20 21  2  0
 21 22  1  0
 21 23  1  0
 23 24  1  0
 23 25  2  0
 25 26  1  0
 25 27  1  0
 27 28  1  0
 27 29  2  0
 29 30  1  0
  8 31  2  0
 31 32  1  0
 31 33  1  0
 33 34  1  0
 33 35  2  0
 35 36  1  0
  4 37  1  0
 37 38  1  0
 38 39  1  0
 39 40  1  0
 39 41  1  0
 39 42  1  0
 42 43  1  0
 42 44  1  0
 38  2  2  0
 35  6  1  0
 29 20  1  0
M  CHG  2   7  -1  11   1
M  END
>  <UniqueID>  (12) 
11

>  <SMILES>  (12) 
C[N@@H+](Cc1ccccc1)C(=O)c1ccc/c(=N/c2ncc(CN)s2)[n-]1

>  <Energy>  (12) 
81.69870950307256

>  <Genealogy>  (12) 
C[NH+](Cc1ccccc1)C(=O)c1cccc(=Nc2ncc(CN)s2)[n-]1 (protonated)
C[N@@H+](Cc1ccccc1)C(=O)c1cccc(=Nc2ncc(CN)s2)[n-]1 (chirality)
C[N@@H+](Cc1ccccc1)C(=O)c1ccc/c(=N/c2ncc(CN)s2)[n-]1 (cis-trans isomerization)
C[N@@H+](Cc1ccccc1)C(=O)c1ccc/c(=N/c2ncc(CN)s2)[n-]1 (3D coordinates assigned)
C[N@@H+](Cc1ccccc1)C(=O)c1ccc/c(=N/c2ncc(CN)s2)[n-]1 (optimized conformer: 81.69870950307256 kcal/mol)

>  <smiles>  (12) 
CN(Cc1ccccc1)C(=O)c1cccc(=Nc2ncc(CN)s2)[nH]1

>  <score_type>  (12) 
oracle

>  <origin>  (12) 
adg

>  <m_score__min__energy>  (12) 
-9.4700000000000006

>  <m_primary>  (12) 
energy

$$$$
12:0
     RDKit          3D

 49 52  0  0  0  0  0  0  0  0999 V2000
   61.7844   33.9863   48.9597 H   0  0  0  0  0  0  0  0  0  0  0  0
   61.3460   33.0400   48.6100 C   0  0  0  0  0  0  0  0  0  0  0  0
   61.9010   32.3760   47.5140 C   0  0  0  0  0  0  0  0  0  0  0  0
   62.7792   32.7987   47.0040 H   0  0  0  0  0  0  0  0  0  0  0  0
   61.3440   31.1760   47.0630 C   0  0  0  0  0  0  0  0  0  0  0  0
   61.7891   30.6551   46.2025 H   0  0  0  0  0  0  0  0  0  0  0  0
   60.2160   30.6310   47.7050 C   0  0  0  0  0  0  0  0  0  0  0  0
   59.5950   29.3770   47.2120 C   0  0  0  0  0  0  0  0  0  0  0  0
   59.5890   28.3550   47.9480 O   0  0  0  0  0  0  0  0  0  0  0  0
   59.0720   29.2710   45.8830 N   0  0  0  0  0  0  0  0  0  0  0  0
   57.8540   29.5180   45.4840 C   0  0  0  0  0  0  0  0  0  0  0  0
   56.8640   28.5710   45.3100 C   0  0  0  0  0  0  0  0  0  0  0  0
   56.9310   27.1130   45.5210 C   0  0  0  0  0  0  0  0  0  0  0  0
   56.6480   26.6500   46.6590 O   0  0  0  0  0  0  0  0  0  0  0  0
   57.2540   26.2210   44.4430 N   0  0  0  0  0  0  0  0  0  0  0  0
   56.9940   26.5100   43.4730 H   0  0  0  0  0  0  0  0  0  0  0  0
   57.7640   24.8900   44.6340 C   0  0  0  0  0  0  0  0  0  0  0  0
   57.1870   23.8230   43.9260 C   0  0  0  0  0  0  0  0  0  0  0  0
   56.3422   24.0104   43.2468 H   0  0  0  0  0  0  0  0  0  0  0  0
   57.6810   22.5230   44.0800 C   0  0  0  0  0  0  0  0  0  0  0  0
   57.2166   21.6907   43.5308 H   0  0  0  0  0  0  0  0  0  0  0  0
   58.7630   22.2800   44.9300 C   0  0  0  0  0  0  0  0  0  0  0  0
   59.1466   21.2566   45.0541 H   0  0  0  0  0  0  0  0  0  0  0  0
   59.3570   23.3380   45.6220 C   0  0  0  0  0  0  0  0  0  0  0  0
   60.2125   23.1472   46.2867 H   0  0  0  0  0  0  0  0  0  0  0  0
   58.8670   24.6390   45.4720 C   0  0  0  0  0  0  0  0  0  0  0  0
   59.3454   25.4699   46.0111 H   0  0  0  0  0  0  0  0  0  0  0  0
   55.7590   29.2170   44.8860 N   0  0  0  0  0  0  0  0  0  0  0  0
   56.0600   30.5070   44.8130 N   0  0  0  0  0  0  0  0  0  0  0  0
   57.3180   30.7210   45.1680 N   0  0  0  0  0  0  0  0  0  0  0  0
   57.8460   32.0420   45.3550 C   0  0  0  0  0  0  0  0  0  0  0  0
   57.7360   32.6720   46.6040 C   0  0  0  0  0  0  0  0  0  0  0  0
   57.2508   32.1478   47.4406 H   0  0  0  0  0  0  0  0  0  0  0  0
   58.2390   33.9600   46.7900 C   0  0  0  0  0  0  0  0  0  0  0  0
   58.1621   34.4432   47.7752 H   0  0  0  0  0  0  0  0  0  0  0  0
   58.8400   34.6360   45.7260 C   0  0  0  0  0  0  0  0  0  0  0  0
   59.2416   35.6491   45.8756 H   0  0  0  0  0  0  0  0  0  0  0  0
   58.9320   34.0270   44.4710 C   0  0  0  0  0  0  0  0  0  0  0  0
   59.3991   34.5669   43.6341 H   0  0  0  0  0  0  0  0  0  0  0  0
   58.4300   32.7260   44.2720 C   0  0  0  0  0  0  0  0  0  0  0  0
   58.5110   32.0770   43.0300 O   0  0  0  0  0  0  0  0  0  0  0  0
   57.4270   31.9510   42.1160 C   0  0  0  0  0  0  0  0  0  0  0  0
   56.4863   31.8417   42.6756 H   0  0  0  0  0  0  0  0  0  0  0  0
   57.3748   32.8491   41.4830 H   0  0  0  0  0  0  0  0  0  0  0  0
   57.5822   31.0648   41.4830 H   0  0  0  0  0  0  0  0  0  0  0  0
   59.6740   31.3000   48.8180 C   0  0  0  0  0  0  0  0  0  0  0  0
   58.8050   30.8751   49.3417 H   0  0  0  0  0  0  0  0  0  0  0  0
   60.2340   32.5020   49.2620 C   0  0  0  0  0  0  0  0  0  0  0  0
   59.7981   33.0247   50.1262 H   0  0  0  0  0  0  0  0  0  0  0  0
  1  2  1  0
  2  3  2  0
  3  4  1  0
  3  5  1  0
  5  6  1  0
  5  7  2  0
  7  8  1  0
  8  9  2  0
  8 10  1  0
 10 11  2  0
 11 12  1  0
 12 13  1  0
 13 14  2  0
 13 15  1  0
 15 16  1  0
 15 17  1  0
 17 18  2  0
 18 19  1  0
 18 20  1  0
 20 21  1  0
 20 22  2  0
 22 23  1  0
 22 24  1  0
 24 25  1  0
 24 26  2  0
 26 27  1  0
 12 28  2  0
 28 29  1  0
 29 30  1  0
 30 31  1  0
 31 32  2  0
 32 33  1  0
 32 34  1  0
 34 35  1  0
 34 36  2  0
 36 37  1  0
 36 38  1  0
 38 39  1  0
 38 40  2  0
 40 41  1  0
 41 42  1  0
 42 43  1  0
 42 44  1  0
 42 45  1  0
  7 46  1  0
 46 47  1  0
 46 48  2  0
 48 49  1  0
 48  2  1  0
 30 11  1  0
 40 31  1  0
 26 17  1  0
M  CHG  1  29  -1
M  END
>  <UniqueID>  (13) 
12

>  <SMILES>  (13) 
COc1ccccc1-n1[n-]nc(C(=O)Nc2ccccc2)/c1=N/C(=O)c1ccccc1

>  <Energy>  (13) 
109.18560320318166

>  <Genealogy>  (13) 
COc1ccccc1-n1[n-]nc(C(=O)Nc2ccccc2)c1=NC(=O)c1ccccc1 (protonated)
COc1ccccc1-n1[n-]nc(C(=O)Nc2ccccc2)/c1=N/C(=O)c1ccccc1 (cis-trans isomerization)
COc1ccccc1-n1[n-]nc(C(=O)Nc2ccccc2)/c1=N/C(=O)c1ccccc1 (3D coordinates assigned)
COc1ccccc1-n1[n-]nc(C(=O)Nc2ccccc2)/c1=N/C(=O)c1ccccc1 (optimized conformer: 109.18560320318166 kcal/mol)

>  <smiles>  (13) 
COc1ccccc1-n1[nH]nc(C(=O)Nc2ccccc2)c1=NC(=O)c1ccccc1

>  <score_type>  (13) 
oracle

>  <origin>  (13) 
adg

>  <m_score__min__energy>  (13) 
-10.56

>  <m_primary>  (13) 
energy

$$$$
13:0
     RDKit          3D

 47 49  0  0  0  0  0  0  0  0999 V2000
   54.1700   28.9620   44.5120 H   0  0  0  0  0  0  0  0  0  0  0  0
   55.1460   29.1120   44.7280 O   0  0  0  0  0  0  0  0  0  0  0  0
   55.8070   30.2010   44.2090 N   0  0  0  0  0  0  0  0  0  0  0  0
   57.0950   30.3390   44.3070 C   0  0  0  0  0  0  0  0  0  0  0  0
   57.6600   31.3300   45.2570 C   0  0  0  0  0  0  0  0  0  0  0  0
   58.2410   30.9170   46.4690 C   0  0  0  0  0  0  0  0  0  0  0  0
   58.2912   29.8459   46.7145 H   0  0  0  0  0  0  0  0  0  0  0  0
   58.7410   31.8340   47.3390 N   0  0  0  0  0  0  0  0  0  0  0  0
   58.7140   33.1670   47.0810 C   0  0  0  0  0  0  0  0  0  0  0  0
   59.2360   34.0500   48.0380 O   0  0  0  0  0  0  0  0  0  0  0  0
   60.5220   33.9770   48.5940 C   0  0  0  0  0  0  0  0  0  0  0  0
   60.6650   34.1230   49.9780 C   0  0  0  0  0  0  0  0  0  0  0  0
   59.7786   34.3073   50.6027 H   0  0  0  0  0  0  0  0  0  0  0  0
   61.9280   34.0360   50.5720 C   0  0  0  0  0  0  0  0  0  0  0  0
   62.0321   34.1558   51.6605 H   0  0  0  0  0  0  0  0  0  0  0  0
   63.0590   33.7970   49.7850 C   0  0  0  0  0  0  0  0  0  0  0  0
   64.0504   33.7280   50.2564 H   0  0  0  0  0  0  0  0  0  0  0  0
   62.9330   33.6450   48.3960 C   0  0  0  0  0  0  0  0  0  0  0  0
   64.1370   33.3430   47.5510 C   0  0  0  0  0  0  0  0  0  0  0  0
   64.9971   33.1273   48.2020 H   0  0  0  0  0  0  0  0  0  0  0  0
   63.9295   32.4691   46.9160 H   0  0  0  0  0  0  0  0  0  0  0  0
   64.3665   34.2114   46.9160 H   0  0  0  0  0  0  0  0  0  0  0  0
   61.6600   33.7160   47.8070 C   0  0  0  0  0  0  0  0  0  0  0  0
   61.5512   33.5666   46.7226 H   0  0  0  0  0  0  0  0  0  0  0  0
   58.1280   33.6270   45.8900 C   0  0  0  0  0  0  0  0  0  0  0  0
   58.0807   34.7049   45.6758 H   0  0  0  0  0  0  0  0  0  0  0  0
   57.6070   32.7070   44.9820 C   0  0  0  0  0  0  0  0  0  0  0  0
   57.1519   33.0607   44.0451 H   0  0  0  0  0  0  0  0  0  0  0  0
   57.9700   29.5730   43.4650 N   0  0  0  0  0  0  0  0  0  0  0  0
   58.7770   30.0590   43.0100 H   0  0  0  0  0  0  0  0  0  0  0  0
   57.9580   28.1130   43.4570 C   0  0  0  0  0  0  0  0  0  0  0  0
   58.7819   27.7436   42.8288 H   0  0  0  0  0  0  0  0  0  0  0  0
   56.9987   27.7578   43.0525 H   0  0  0  0  0  0  0  0  0  0  0  0
   58.1290   27.6000   44.8580 C   0  0  0  0  0  0  0  0  0  0  0  0
   57.1820   26.7200   45.4050 C   0  0  0  0  0  0  0  0  0  0  0  0
   56.3440   26.3633   44.7881 H   0  0  0  0  0  0  0  0  0  0  0  0
   57.3010   26.2960   46.7310 C   0  0  0  0  0  0  0  0  0  0  0  0
   56.5563   25.6065   47.1552 H   0  0  0  0  0  0  0  0  0  0  0  0
   58.3650   26.7460   47.5210 C   0  0  0  0  0  0  0  0  0  0  0  0
   58.4496   26.4160   48.5669 H   0  0  0  0  0  0  0  0  0  0  0  0
   59.3230   27.6160   46.9830 C   0  0  0  0  0  0  0  0  0  0  0  0
   60.4370   28.1400   47.8420 C   0  0  0  0  0  0  0  0  0  0  0  0
   60.1721   28.0154   48.9023 H   0  0  0  0  0  0  0  0  0  0  0  0
   61.3599   27.5816   47.6266 H   0  0  0  0  0  0  0  0  0  0  0  0
   60.5953   29.2070   47.6266 H   0  0  0  0  0  0  0  0  0  0  0  0
   59.1890   28.0590   45.6570 C   0  0  0  0  0  0  0  0  0  0  0  0
   59.9186   28.7697   45.2417 H   0  0  0  0  0  0  0  0  0  0  0  0
  1  2  1  0
  2  3  1  0
  3  4  2  0
  4  5  1  0
  5  6  2  0
  6  7  1  0
  6  8  1  0
  8  9  2  0
  9 10  1  0
 10 11  1  0
 11 12  2  0
 12 13  1  0
 12 14  1  0
 14 15  1  0
 14 16  2  0
 16 17  1  0
 16 18  1  0
 18 19  1  0
 19 20  1  0
 19 21  1  0
 19 22  1  0
 18 23  2  0
 23 24  1  0
  9 25  1  0
 25 26  1  0
 25 27  2  0
 27 28  1  0
  4 29  1  0
 29 30  1  0
 29 31  1  0
 31 32  1  0
 31 33  1  0
 31 34  1  0
 34 35  2  0
 35 36  1  0
 35 37  1  0
 37 38  1  0
 37 39  2  0
 39 40  1  0
 39 41  1  0
 41 42  1  0
 42 43  1  0
 42 44  1  0
 42 45  1  0
 41 46  2  0
 46 47  1  0
 27  5  1  0
 46 34  1  0
 23 11  1  0
M  END
>  <UniqueID>  (14) 
13

>  <SMILES>  (14) 
Cc1cccc(CN/C(=N\O)c2ccc(Oc3cccc(C)c3)nc2)c1

>  <Energy>  (14) 
58.09504583081668

>  <Genealogy>  (14) 
Cc1cccc(CN/C(=N\O)c2ccc(Oc3cccc(C)c3)nc2)c1 (cis-trans isomerization)
Cc1cccc(CN/C(=N\O)c2ccc(Oc3cccc(C)c3)nc2)c1 (3D coordinates assigned)
Cc1cccc(CN/C(=N\O)c2ccc(Oc3cccc(C)c3)nc2)c1 (optimized conformer: 58.09504583081668 kcal/mol)

>  <smiles>  (14) 
Cc1cccc(CNC(=NO)c2ccc(Oc3cccc(C)c3)nc2)c1

>  <score_type>  (14) 
oracle

>  <origin>  (14) 
adg

>  <m_score__min__energy>  (14) 
-10.15

>  <m_primary>  (14) 
energy

$$$$
14:0
     RDKit          3D

 64 69  0  0  0  0  0  0  0  0999 V2000
   57.7290   31.6590   43.9070 C   0  0  0  0  0  0  0  0  0  0  0  0
   58.2060   30.4610   44.6720 C   0  0  0  0  0  0  0  0  0  0  0  0
   57.8610   29.1700   44.2530 C   0  0  0  0  0  0  0  0  0  0  0  0
   58.2820   28.0510   44.9810 C   0  0  0  0  0  0  0  0  0  0  0  0
   57.8070   26.3120   44.3330 Br  0  0  0  0  0  0  0  0  0  0  0  0
   59.0400   28.2180   46.1560 C   0  0  0  0  0  0  0  0  0  0  0  0
   59.6560   26.8030   47.0140 Cl  0  0  0  0  0  0  0  0  0  0  0  0
   59.3480   29.5190   46.6070 C   0  0  0  0  0  0  0  0  0  0  0  0
   60.1010   29.7370   47.8090 N   0  0  0  0  0  0  0  0  0  0  0  0
   59.5120   29.6310   49.1170 C   0  0  0  0  0  0  0  0  0  0  0  0
   58.2600   29.5220   49.2360 O   0  0  0  0  0  0  0  0  0  0  0  0
   60.3490   29.6640   50.3280 C   0  0  0  0  0  0  0  0  0  0  0  0
   61.5930   29.0640   50.4950 C   0  0  0  0  0  0  0  0  0  0  0  0
   62.1580   29.2740   51.7650 C   0  0  0  0  0  0  0  0  0  0  0  0
   61.3230   30.0260   52.6070 C   0  0  0  0  0  0  0  0  0  0  0  0
   59.9290   30.4380   51.7620 S   0  0  0  0  0  0  0  0  0  0  0  0
   61.6150   30.4660   54.0130 C   0  0  0  0  0  0  0  0  0  0  0  0
   62.8760   31.3460   54.0930 C   0  0  0  0  0  0  0  0  0  0  0  0
   63.8510   31.0000   53.0460 N   0  0  0  0  0  0  0  0  0  0  0  0
   64.0640   31.8800   51.9260 C   0  0  0  0  0  0  0  0  0  0  0  0
   65.3350   32.4200   51.6770 C   0  0  0  0  0  0  0  0  0  0  0  0
   65.5490   33.2320   50.5610 C   0  0  0  0  0  0  0  0  0  0  0  0
   64.4950   33.5150   49.6850 C   0  0  0  0  0  0  0  0  0  0  0  0
   63.2130   32.9970   49.9280 C   0  0  0  0  0  0  0  0  0  0  0  0
   62.1160   33.2510   48.9670 C   0  0  0  0  0  0  0  0  0  0  0  0
   60.8230   33.3630   49.3710 N   0  0  0  0  0  0  0  0  0  0  0  0
   60.1690   33.6570   48.2340 C   0  0  0  0  0  0  0  0  0  0  0  0
   58.8020   33.8860   48.0760 C   0  0  0  0  0  0  0  0  0  0  0  0
   58.3320   34.1790   46.7810 C   0  0  0  0  0  0  0  0  0  0  0  0
   59.2280   34.2310   45.6880 C   0  0  0  0  0  0  0  0  0  0  0  0
   60.6030   33.9960   45.8830 C   0  0  0  0  0  0  0  0  0  0  0  0
   61.0360   33.7120   47.1810 C   0  0  0  0  0  0  0  0  0  0  0  0
   62.2760   33.4400   47.6240 N   0  0  0  0  0  0  0  0  0  0  0  0
   63.4970   33.3520   46.8210 C   0  0  0  0  0  0  0  0  0  0  0  0
   63.0120   32.1650   51.0400 C   0  0  0  0  0  0  0  0  0  0  0  0
   64.3920   29.6350   53.0100 C   0  0  0  0  0  0  0  0  0  0  0  0
   63.5300   28.7270   52.1140 C   0  0  0  0  0  0  0  0  0  0  0  0
   58.9430   30.6290   45.8520 C   0  0  0  0  0  0  0  0  0  0  0  0
   57.4166   32.4436   44.6119 H   0  0  0  0  0  0  0  0  0  0  0  0
   58.5447   32.0384   43.2739 H   0  0  0  0  0  0  0  0  0  0  0  0
   56.8758   31.3739   43.2739 H   0  0  0  0  0  0  0  0  0  0  0  0
   57.2548   29.0343   43.3452 H   0  0  0  0  0  0  0  0  0  0  0  0
   61.0230   30.2190   47.7190 H   0  0  0  0  0  0  0  0  0  0  0  0
   62.0887   28.4793   49.7061 H   0  0  0  0  0  0  0  0  0  0  0  0
   60.7565   31.0408   54.3906 H   0  0  0  0  0  0  0  0  0  0  0  0
   61.7902   29.5660   54.6207 H   0  0  0  0  0  0  0  0  0  0  0  0
   62.5833   32.3995   53.9729 H   0  0  0  0  0  0  0  0  0  0  0  0
   63.3499   31.1765   55.0711 H   0  0  0  0  0  0  0  0  0  0  0  0
   66.1664   32.2028   52.3637 H   0  0  0  0  0  0  0  0  0  0  0  0
   66.5484   33.6501   50.3702 H   0  0  0  0  0  0  0  0  0  0  0  0
   64.6719   34.1464   48.8018 H   0  0  0  0  0  0  0  0  0  0  0  0
   58.1146   33.8393   48.9335 H   0  0  0  0  0  0  0  0  0  0  0  0
   57.2607   34.3687   46.6186 H   0  0  0  0  0  0  0  0  0  0  0  0
   58.8490   34.4562   44.6802 H   0  0  0  0  0  0  0  0  0  0  0  0
   61.3116   34.0347   45.0425 H   0  0  0  0  0  0  0  0  0  0  0  0
   64.3702   33.2891   47.4871 H   0  0  0  0  0  0  0  0  0  0  0  0
   63.4546   32.4546   46.1863 H   0  0  0  0  0  0  0  0  0  0  0  0
   63.5837   34.2462   46.1863 H   0  0  0  0  0  0  0  0  0  0  0  0
   62.0177   31.7304   51.2202 H   0  0  0  0  0  0  0  0  0  0  0  0
   65.4175   29.6642   52.6130 H   0  0  0  0  0  0  0  0  0  0  0  0
   64.3875   29.2276   54.0318 H   0  0  0  0  0  0  0  0  0  0  0  0
   64.0773   28.5579   51.1749 H   0  0  0  0  0  0  0  0  0  0  0  0
   63.3530   27.8084   52.6926 H   0  0  0  0  0  0  0  0  0  0  0  0
   59.2065   31.6422   46.1895 H   0  0  0  0  0  0  0  0  0  0  0  0
  1  2  1  0
  2  3  2  0
  3  4  1  0
  4  5  1  0
  4  6  2  0
  6  7  1  0
  6  8  1  0
  8  9  1  0
  9 10  1  0
 10 11  2  0
 10 12  1  0
 12 13  2  0
 13 14  1  0
 14 15  2  0
 15 16  1  0
 15 17  1  0
 17 18  1  0
 18 19  1  0
 19 20  1  0
 20 21  2  0
 21 22  1  0
 22 23  2  0
 23 24  1  0
 24 25  1  0
 25 26  2  0
 26 27  1  0
 27 28  2  0
 28 29  1  0
 29 30  2  0
 30 31  1  0
 31 32  2  0
 32 33  1  0
 33 34  1  0
 24 35  2  0
 19 36  1  0
 36 37  1  0
  8 38  2  0
 38  2  1  0
 16 12  1  0
 35 20  1  0
 37 14  1  0
 33 25  1  0
 32 27  1  0
  1 39  1  0
  1 40  1  0
  1 41  1  0
  3 42  1  0
  9 43  1  0
 13 44  1  0
 17 45  1  0
 17 46  1  0
 18 47  1  0
 18 48  1  0
 21 49  1  0
 22 50  1  0
 23 51  1  0
 28 52  1  0
 29 53  1  0
 30 54  1  0
 31 55  1  0
 34 56  1  0
 34 57  1  0
 34 58  1  0
 35 59  1  0
 36 60  1  0
 36 61  1  0
 37 62  1  0
 37 63  1  0
 38 64  1  0
M  END
>  <UniqueID>  (15) 
14

>  <SMILES>  (15) 
Cc1cc(Br)c(Cl)c(NC(=O)c2cc3c(s2)CCN(c2cccc(-c4nc5ccccc5n4C)c2)CC3)c1

>  <Energy>  (15) 
152.35174282016536

>  <Genealogy>  (15) 
Cc1cc(Br)c(Cl)c(NC(=O)c2cc3c(s2)CCN(c2cccc(-c4nc5ccccc5n4C)c2)CC3)c1 (3D coordinates assigned)
Cc1cc(Br)c(Cl)c(NC(=O)c2cc3c(s2)CCN(c2cccc(-c4nc5ccccc5n4C)c2)CC3)c1 (nonaromatic ring conformer: 152.35174282016536 kcal/mol)

>  <smiles>  (15) 
Cc1cc(Br)c(Cl)c(NC(=O)c2cc3c(s2)CCN(c2cccc(-c4nc5ccccc5n4C)c2)CC3)c1

>  <score_type>  (15) 
oracle

>  <origin>  (15) 
adg

>  <m_score__min__energy>  (15) 
-7.5999999999999996

>  <m_primary>  (15) 
energy

$$$$
15:0
     RDKit          3D

 35 38  0  0  0  0  0  0  0  0999 V2000
   58.4390   33.0820   43.0390 C   0  0  0  0  0  0  0  0  0  0  0  0
   57.6790   31.8130   43.2860 C   0  0  0  0  0  0  0  0  0  0  0  0
   57.0320   31.1330   42.2550 C   0  0  0  0  0  0  0  0  0  0  0  0
   56.2540   29.7900   42.8970 S   0  0  0  0  0  0  0  0  0  0  0  0
   56.7540   30.0380   44.4840 C   0  0  0  0  0  0  0  0  0  0  0  0
   56.3940   29.2250   45.6060 N   0  0  0  0  0  0  0  0  0  0  0  0
   56.9000   27.9100   45.8640 C   0  0  0  0  0  0  0  0  0  0  0  0
   56.1170   26.9290   45.7800 O   0  0  0  0  0  0  0  0  0  0  0  0
   58.2920   27.6800   46.2880 C   0  0  0  0  0  0  0  0  0  0  0  0
   59.1620   26.7330   45.7800 C   0  0  0  0  0  0  0  0  0  0  0  0
   60.3440   26.9110   46.4640 C   0  0  0  0  0  0  0  0  0  0  0  0
   60.1280   27.9560   47.3390 C   0  0  0  0  0  0  0  0  0  0  0  0
   58.8980   28.3950   47.2080 O   0  0  0  0  0  0  0  0  0  0  0  0
   57.5310   31.1920   44.5490 C   0  0  0  0  0  0  0  0  0  0  0  0
   58.1230   31.6960   45.8070 C   0  0  0  0  0  0  0  0  0  0  0  0
   58.3460   30.9270   46.9040 N   0  0  0  0  0  0  0  0  0  0  0  0
   58.8890   31.6440   47.9210 C   0  0  0  0  0  0  0  0  0  0  0  0
   59.2210   31.1240   49.1750 C   0  0  0  0  0  0  0  0  0  0  0  0
   59.7740   31.9870   50.1380 C   0  0  0  0  0  0  0  0  0  0  0  0
   59.9830   33.3480   49.8410 C   0  0  0  0  0  0  0  0  0  0  0  0
   59.6410   33.8600   48.5790 C   0  0  0  0  0  0  0  0  0  0  0  0
   59.0980   32.9850   47.6420 C   0  0  0  0  0  0  0  0  0  0  0  0
   58.5900   33.3050   46.0750 S   0  0  0  0  0  0  0  0  0  0  0  0
   58.7126   33.5388   44.0015 H   0  0  0  0  0  0  0  0  0  0  0  0
   59.3515   32.8575   42.4671 H   0  0  0  0  0  0  0  0  0  0  0  0
   57.8104   33.7805   42.4671 H   0  0  0  0  0  0  0  0  0  0  0  0
   57.0312   31.4277   41.1952 H   0  0  0  0  0  0  0  0  0  0  0  0
   58.9536   25.9923   44.9939 H   0  0  0  0  0  0  0  0  0  0  0  0
   61.2732   26.3359   46.3382 H   0  0  0  0  0  0  0  0  0  0  0  0
   60.8735   28.3598   48.0399 H   0  0  0  0  0  0  0  0  0  0  0  0
   58.1000   29.9160   46.9750 H   0  0  0  0  0  0  0  0  0  0  0  0
   59.0532   30.0613   49.4042 H   0  0  0  0  0  0  0  0  0  0  0  0
   60.0452   31.5965   51.1300 H   0  0  0  0  0  0  0  0  0  0  0  0
   60.4166   34.0135   50.6020 H   0  0  0  0  0  0  0  0  0  0  0  0
   59.7976   34.9217   48.3377 H   0  0  0  0  0  0  0  0  0  0  0  0
  1  2  1  0
  2  3  2  0
  3  4  1  0
  4  5  1  0
  5  6  1  0
  6  7  1  0
  7  8  2  0
  7  9  1  0
  9 10  2  0
 10 11  1  0
 11 12  2  0
 12 13  1  0
  5 14  2  0
 14 15  1  0
 15 16  2  0
 16 17  1  0
 17 18  2  0
 18 19  1  0
 19 20  2  0
 20 21  1  0
 21 22  2  0
 22 23  1  0
 14  2  1  0
 23 15  1  0
 13  9  1  0
 22 17  1  0
  1 24  1  0
  1 25  1  0
  1 26  1  0
  3 27  1  0
 10 28  1  0
 11 29  1  0
 12 30  1  0
 16 31  1  0
 18 32  1  0
 19 33  1  0
 20 34  1  0
 21 35  1  0
M  CHG  2   6  -1  16   1
M  END
>  <UniqueID>  (16) 
15

>  <SMILES>  (16) 
Cc1csc([N-]C(=O)c2ccco2)c1-c1[nH+]c2ccccc2s1

>  <Energy>  (16) 
133.83665273748574

>  <Genealogy>  (16) 
Cc1csc([N-]C(=O)c2ccco2)c1-c1[nH+]c2ccccc2s1 (protonated)
Cc1csc([N-]C(=O)c2ccco2)c1-c1[nH+]c2ccccc2s1 (3D coordinates assigned)
Cc1csc([N-]C(=O)c2ccco2)c1-c1[nH+]c2ccccc2s1 (optimized conformer: 133.83665273748574 kcal/mol)

>  <smiles>  (16) 
Cc1csc(NC(=O)c2ccco2)c1-c1nc2ccccc2s1

>  <score_type>  (16) 
oracle

>  <origin>  (16) 
adg

>  <m_score__min__energy>  (16) 
-8.5600000000000005

>  <m_primary>  (16) 
energy

$$$$
16:0
     RDKit          3D

 64 68  0  0  0  0  0  0  0  0999 V2000
   58.2370   31.8660   52.4930 C   0  0  0  0  0  0  0  0  0  0  0  0
   59.4300   31.1980   51.9550 N   0  0  0  0  0  0  0  0  0  0  0  0
   60.6670   31.6590   52.2900 C   0  0  0  0  0  0  0  0  0  0  0  0
   61.8140   31.0480   51.7850 C   0  0  0  0  0  0  0  0  0  0  0  0
   63.1780   31.5360   52.2090 C   0  0  0  0  0  0  0  0  0  0  0  0
   64.1310   31.5750   51.0100 C   0  0  0  0  0  0  0  0  0  0  0  0
   63.5070   32.3220   49.8620 C   0  0  0  0  0  0  0  0  0  0  0  0
   63.4040   31.7210   48.5970 C   0  0  0  0  0  0  0  0  0  0  0  0
   62.8570   32.4290   47.5230 C   0  0  0  0  0  0  0  0  0  0  0  0
   62.4160   33.7440   47.7030 C   0  0  0  0  0  0  0  0  0  0  0  0
   62.5270   34.3530   48.9560 C   0  0  0  0  0  0  0  0  0  0  0  0
   63.0750   33.6480   50.0320 C   0  0  0  0  0  0  0  0  0  0  0  0
   61.6590   29.9380   50.9440 C   0  0  0  0  0  0  0  0  0  0  0  0
   62.6850   29.3510   50.4960 O   0  0  0  0  0  0  0  0  0  0  0  0
   60.4070   29.4860   50.6150 N   0  0  0  0  0  0  0  0  0  0  0  0
   60.2670   28.2900   49.7570 C   0  0  0  0  0  0  0  0  0  0  0  0
   59.8560   28.6910   48.3630 C   0  0  0  0  0  0  0  0  0  0  0  0
   60.7360   29.4250   47.5520 C   0  0  0  0  0  0  0  0  0  0  0  0
   60.3440   29.8390   46.2770 C   0  0  0  0  0  0  0  0  0  0  0  0
   59.0620   29.5200   45.7880 C   0  0  0  0  0  0  0  0  0  0  0  0
   58.6060   29.9320   44.5260 O   0  0  0  0  0  0  0  0  0  0  0  0
   57.6460   31.3200   44.2360 S   0  0  0  0  0  0  0  0  0  0  0  0
   57.5050   31.5000   42.7490 O   0  0  0  0  0  0  0  0  0  0  0  0
   56.2890   31.0970   44.8410 O   0  0  0  0  0  0  0  0  0  0  0  0
   58.3720   32.7650   44.9660 C   0  0  0  0  0  0  0  0  0  0  0  0
   58.7480   33.8220   44.1200 C   0  0  0  0  0  0  0  0  0  0  0  0
   59.2780   35.0010   44.6390 C   0  0  0  0  0  0  0  0  0  0  0  0
   59.4580   35.1460   46.0120 C   0  0  0  0  0  0  0  0  0  0  0  0
   59.1260   34.0990   46.8820 C   0  0  0  0  0  0  0  0  0  0  0  0
   59.3340   34.2470   48.2630 C   0  0  0  0  0  0  0  0  0  0  0  0
   59.0240   33.2040   49.1360 C   0  0  0  0  0  0  0  0  0  0  0  0
   58.5130   32.0050   48.6400 C   0  0  0  0  0  0  0  0  0  0  0  0
   58.3000   31.8410   47.2700 C   0  0  0  0  0  0  0  0  0  0  0  0
   58.5890   32.8870   46.3660 C   0  0  0  0  0  0  0  0  0  0  0  0
   58.1940   28.7740   46.5930 C   0  0  0  0  0  0  0  0  0  0  0  0
   58.5840   28.3640   47.8710 C   0  0  0  0  0  0  0  0  0  0  0  0
   59.2960   30.1200   51.1200 C   0  0  0  0  0  0  0  0  0  0  0  0
   58.1400   29.7050   50.8220 O   0  0  0  0  0  0  0  0  0  0  0  0
   58.2706   31.8472   53.5923 H   0  0  0  0  0  0  0  0  0  0  0  0
   58.2124   32.9091   52.1447 H   0  0  0  0  0  0  0  0  0  0  0  0
   57.3348   31.3418   52.1447 H   0  0  0  0  0  0  0  0  0  0  0  0
   60.7621   32.5218   52.9656 H   0  0  0  0  0  0  0  0  0  0  0  0
   63.0854   32.5477   52.6308 H   0  0  0  0  0  0  0  0  0  0  0  0
   63.5838   30.8460   52.9635 H   0  0  0  0  0  0  0  0  0  0  0  0
   65.0632   32.0789   51.3053 H   0  0  0  0  0  0  0  0  0  0  0  0
   64.3410   30.5437   50.6900 H   0  0  0  0  0  0  0  0  0  0  0  0
   63.7552   30.6889   48.4507 H   0  0  0  0  0  0  0  0  0  0  0  0
   62.7733   31.9516   46.5356 H   0  0  0  0  0  0  0  0  0  0  0  0
   61.9818   34.2989   46.8583 H   0  0  0  0  0  0  0  0  0  0  0  0
   62.1828   35.3883   49.0959 H   0  0  0  0  0  0  0  0  0  0  0  0
   63.1682   34.1332   51.0148 H   0  0  0  0  0  0  0  0  0  0  0  0
   61.2300   27.7602   49.7131 H   0  0  0  0  0  0  0  0  0  0  0  0
   59.4943   27.6329   50.1826 H   0  0  0  0  0  0  0  0  0  0  0  0
   61.7407   29.6757   47.9231 H   0  0  0  0  0  0  0  0  0  0  0  0
   61.0400   30.4172   45.6514 H   0  0  0  0  0  0  0  0  0  0  0  0
   58.6220   33.7169   43.0323 H   0  0  0  0  0  0  0  0  0  0  0  0
   59.5557   35.8214   43.9609 H   0  0  0  0  0  0  0  0  0  0  0  0
   59.8624   36.0861   46.4153 H   0  0  0  0  0  0  0  0  0  0  0  0
   59.7429   35.1888   48.6577 H   0  0  0  0  0  0  0  0  0  0  0  0
   59.1829   33.3275   50.2174 H   0  0  0  0  0  0  0  0  0  0  0  0
   58.2763   31.1836   49.3323 H   0  0  0  0  0  0  0  0  0  0  0  0
   57.9032   30.8877   46.8909 H   0  0  0  0  0  0  0  0  0  0  0  0
   57.1953   28.5077   46.2165 H   0  0  0  0  0  0  0  0  0  0  0  0
   57.8895   27.7817   48.4943 H   0  0  0  0  0  0  0  0  0  0  0  0
  1  2  1  0
  2  3  1  0
  3  4  2  0
  4  5  1  0
  5  6  1  0
  6  7  1  0
  7  8  2  0
  8  9  1  0
  9 10  2  0
 10 11  1  0
 11 12  2  0
  4 13  1  0
 13 14  2  0
 13 15  1  0
 15 16  1  0
 16 17  1  0
 17 18  2  0
 18 19  1  0
 19 20  2  0
 20 21  1  0
 21 22  1  0
 22 23  2  0
 22 24  2  0
 22 25  1  0
 25 26  2  0
 26 27  1  0
 27 28  2  0
 28 29  1  0
 29 30  2  0
 30 31  1  0
 31 32  2  0
 32 33  1  0
 33 34  2  0
 20 35  1  0
 35 36  2  0
 15 37  1  0
 37 38  2  0
 37  2  1  0
 12  7  1  0
 36 17  1  0
 34 25  1  0
 34 29  1  0
  1 39  1  0
  1 40  1  0
  1 41  1  0
  3 42  1  0
  5 43  1  0
  5 44  1  0
  6 45  1  0
  6 46  1  0
  8 47  1  0
  9 48  1  0
 10 49  1  0
 11 50  1  0
 12 51  1  0
 16 52  1  0
 16 53  1  0
 18 54  1  0
 19 55  1  0
 26 56  1  0
 27 57  1  0
 28 58  1  0
 30 59  1  0
 31 60  1  0
 32 61  1  0
 33 62  1  0
 35 63  1  0
 36 64  1  0
M  END
>  <UniqueID>  (17) 
16

>  <SMILES>  (17) 
Cn1cc(CCc2ccccc2)c(=O)n(Cc2ccc(OS(=O)(=O)c3cccc4ccccc34)cc2)c1=O

>  <Energy>  (17) 
79.12544194682029

>  <Genealogy>  (17) 
Cn1cc(CCc2ccccc2)c(=O)n(Cc2ccc(OS(=O)(=O)c3cccc4ccccc34)cc2)c1=O (3D coordinates assigned)
Cn1cc(CCc2ccccc2)c(=O)n(Cc2ccc(OS(=O)(=O)c3cccc4ccccc34)cc2)c1=O (optimized conformer: 79.12544194682029 kcal/mol)

>  <smiles>  (17) 
Cn1cc(CCc2ccccc2)c(=O)n(Cc2ccc(OS(=O)(=O)c3cccc4ccccc34)cc2)c1=O

>  <score_type>  (17) 
oracle

>  <origin>  (17) 
adg

>  <m_score__min__energy>  (17) 
-11.74

>  <m_primary>  (17) 
energy

$$$$
17:0
     RDKit          3D

 48 50  0  0  0  0  0  0  0  0999 V2000
   55.1480   29.3170   44.9570 O   0  0  0  0  0  0  0  0  0  0  0  0
   56.4050   29.3450   44.8750 C   0  0  0  0  0  0  0  0  0  0  0  0
   57.1480   28.1900   45.2990 N   0  0  0  0  0  0  0  0  0  0  0  0
   57.7640   27.1980   44.4190 C   0  0  0  0  0  0  0  0  0  0  0  0
   58.5010   26.1380   45.2460 C   0  0  0  0  0  0  0  0  0  0  0  0
   59.6310   26.7670   46.0410 C   0  0  0  0  0  0  0  0  0  0  0  0
   60.6310   26.0840   46.2190 O   0  0  0  0  0  0  0  0  0  0  0  0
   59.6410   28.1620   46.4780 N   0  0  0  0  0  0  0  0  0  0  0  0
   60.5710   28.9460   45.6350 C   0  0  0  0  0  0  0  0  0  0  0  0
   60.5200   30.4370   45.9890 C   0  0  0  0  0  0  0  0  0  0  0  0
   60.7110   30.6170   47.4280 N   0  0  0  0  0  0  0  0  0  0  0  0
   61.4540   31.7370   47.9370 C   0  0  0  0  0  0  0  0  0  0  0  0
   62.8510   31.7790   47.7900 C   0  0  0  0  0  0  0  0  0  0  0  0
   63.5800   32.8750   48.2670 C   0  0  0  0  0  0  0  0  0  0  0  0
   62.9200   33.9340   48.8970 C   0  0  0  0  0  0  0  0  0  0  0  0
   61.5280   33.9030   49.0430 C   0  0  0  0  0  0  0  0  0  0  0  0
   60.7960   32.8100   48.5610 C   0  0  0  0  0  0  0  0  0  0  0  0
   59.8930   29.8040   48.3260 C   0  0  0  0  0  0  0  0  0  0  0  0
   59.9790   28.3350   47.9120 C   0  0  0  0  0  0  0  0  0  0  0  0
   57.0590   30.5590   44.3430 C   0  0  0  0  0  0  0  0  0  0  0  0
   57.0720   30.8150   42.9610 C   0  0  0  0  0  0  0  0  0  0  0  0
   57.6950   31.9620   42.4590 C   0  0  0  0  0  0  0  0  0  0  0  0
   58.3320   32.8510   43.3290 C   0  0  0  0  0  0  0  0  0  0  0  0
   58.3470   32.5920   44.7000 C   0  0  0  0  0  0  0  0  0  0  0  0
   57.7220   31.4490   45.2100 C   0  0  0  0  0  0  0  0  0  0  0  0
   57.7350   31.2300   46.5500 F   0  0  0  0  0  0  0  0  0  0  0  0
   56.9821   26.7105   43.8182 H   0  0  0  0  0  0  0  0  0  0  0  0
   58.4855   27.7031   43.7600 H   0  0  0  0  0  0  0  0  0  0  0  0
   57.7914   25.6641   45.9402 H   0  0  0  0  0  0  0  0  0  0  0  0
   58.9249   25.3879   44.5621 H   0  0  0  0  0  0  0  0  0  0  0  0
   58.6720   28.5280   46.3280 H   0  0  0  0  0  0  0  0  0  0  0  0
   61.5949   28.5754   45.7906 H   0  0  0  0  0  0  0  0  0  0  0  0
   60.2705   28.8279   44.5834 H   0  0  0  0  0  0  0  0  0  0  0  0
   61.3166   30.9675   45.4468 H   0  0  0  0  0  0  0  0  0  0  0  0
   59.5387   30.8427   45.7018 H   0  0  0  0  0  0  0  0  0  0  0  0
   63.3745   30.9463   47.2975 H   0  0  0  0  0  0  0  0  0  0  0  0
   64.6730   32.9028   48.1459 H   0  0  0  0  0  0  0  0  0  0  0  0
   63.4942   34.7914   49.2779 H   0  0  0  0  0  0  0  0  0  0  0  0
   61.0085   34.7376   49.5366 H   0  0  0  0  0  0  0  0  0  0  0  0
   59.7017   32.7919   48.6716 H   0  0  0  0  0  0  0  0  0  0  0  0
   60.2602   29.9156   49.3569 H   0  0  0  0  0  0  0  0  0  0  0  0
   58.8466   30.1382   48.2687 H   0  0  0  0  0  0  0  0  0  0  0  0
   61.0029   27.9724   48.0857 H   0  0  0  0  0  0  0  0  0  0  0  0
   59.2577   27.7608   48.5120 H   0  0  0  0  0  0  0  0  0  0  0  0
   56.5890   30.1086   42.2698 H   0  0  0  0  0  0  0  0  0  0  0  0
   57.6836   32.1647   41.3779 H   0  0  0  0  0  0  0  0  0  0  0  0
   58.8208   33.7536   42.9336 H   0  0  0  0  0  0  0  0  0  0  0  0
   58.8528   33.2901   45.3833 H   0  0  0  0  0  0  0  0  0  0  0  0
  1  2  2  0
  2  3  1  0
  3  4  1  0
  4  5  1  0
  5  6  1  0
  6  7  2  0
  6  8  1  0
  8  9  1  0
  9 10  1  0
 10 11  1  0
 11 12  1  0
 12 13  2  0
 13 14  1  0
 14 15  2  0
 15 16  1  0
 16 17  2  0
 11 18  1  0
 18 19  1  0
  2 20  1  0
 20 21  2  0
 21 22  1  0
 22 23  2  0
 23 24  1  0
 24 25  2  0
 25 26  1  0
 19  8  1  0
 25 20  1  0
 17 12  1  0
  4 27  1  0
  4 28  1  0
  5 29  1  0
  5 30  1  0
  8 31  1  0
  9 32  1  0
  9 33  1  0
 10 34  1  0
 10 35  1  0
 13 36  1  0
 14 37  1  0
 15 38  1  0
 16 39  1  0
 17 40  1  0
 18 41  1  0
 18 42  1  0
 19 43  1  0
 19 44  1  0
 21 45  1  0
 22 46  1  0
 23 47  1  0
 24 48  1  0
M  CHG  2   3  -1   8   1
M  END
>  <UniqueID>  (18) 
17

>  <SMILES>  (18) 
O=C([N-]CCC(=O)[NH+]1CCN(c2ccccc2)CC1)c1ccccc1F

>  <Energy>  (18) 
64.13495161670066

>  <Genealogy>  (18) 
O=C([N-]CCC(=O)[NH+]1CCN(c2ccccc2)CC1)c1ccccc1F (protonated)
O=C([N-]CCC(=O)[NH+]1CCN(c2ccccc2)CC1)c1ccccc1F (3D coordinates assigned)
O=C([N-]CCC(=O)[NH+]1CCN(c2ccccc2)CC1)c1ccccc1F (nonaromatic ring conformer: 64.13495161670066 kcal/mol)

>  <smiles>  (18) 
O=C(NCCC(=O)N1CCN(c2ccccc2)CC1)c1ccccc1F

>  <score_type>  (18) 
oracle

>  <origin>  (18) 
adg

>  <m_score__min__energy>  (18) 
-8.3599999999999994

>  <m_primary>  (18) 
energy

$$$$
18:0
     RDKit          3D

 39 41  0  0  0  0  0  0  0  0999 V2000
   54.2000   29.3256   44.2088 H   0  0  0  0  0  0  0  0  0  0  0  0
   55.2800   29.4330   44.3880 C   0  0  0  0  0  0  0  0  0  0  0  0
   55.9090   28.5890   45.2440 N   0  0  0  0  0  0  0  0  0  0  0  0
   57.2400   28.6860   45.4960 C   0  0  0  0  0  0  0  0  0  0  0  0
   57.8420   27.7920   46.3890 C   0  0  0  0  0  0  0  0  0  0  0  0
   57.2357   27.0175   46.8816 H   0  0  0  0  0  0  0  0  0  0  0  0
   59.2110   27.8800   46.6570 C   0  0  0  0  0  0  0  0  0  0  0  0
   59.9590   26.7560   47.7770 Cl  0  0  0  0  0  0  0  0  0  0  0  0
   59.9840   28.8630   46.0340 C   0  0  0  0  0  0  0  0  0  0  0  0
   61.0610   28.9301   46.2476 H   0  0  0  0  0  0  0  0  0  0  0  0
   59.3940   29.7620   45.1400 C   0  0  0  0  0  0  0  0  0  0  0  0
   60.0101   30.5326   44.6536 H   0  0  0  0  0  0  0  0  0  0  0  0
   58.0140   29.6870   44.8580 C   0  0  0  0  0  0  0  0  0  0  0  0
   57.3810   30.5770   43.9590 C   0  0  0  0  0  0  0  0  0  0  0  0
   58.0870   31.5040   43.3680 N   0  0  0  0  0  0  0  0  0  0  0  0
   58.3640   32.8610   43.8430 C   0  0  0  0  0  0  0  0  0  0  0  0
   59.4176   32.9279   44.1521 H   0  0  0  0  0  0  0  0  0  0  0  0
   58.1611   33.5707   43.0274 H   0  0  0  0  0  0  0  0  0  0  0  0
   57.4650   33.2090   45.0370 C   0  0  0  0  0  0  0  0  0  0  0  0
   56.4261   33.2974   44.6864 H   0  0  0  0  0  0  0  0  0  0  0  0
   57.5638   32.4075   45.7839 H   0  0  0  0  0  0  0  0  0  0  0  0
   57.8800   34.5300   45.6980 C   0  0  0  0  0  0  0  0  0  0  0  0
   57.4951   35.3672   45.0972 H   0  0  0  0  0  0  0  0  0  0  0  0
   57.4616   34.5546   46.7150 H   0  0  0  0  0  0  0  0  0  0  0  0
   59.3370   34.6440   45.7960 N   0  0  0  0  0  0  0  0  0  0  0  0
   59.7830   35.4520   45.3040 H   0  0  0  0  0  0  0  0  0  0  0  0
   60.1850   33.7350   46.5260 C   0  0  0  0  0  0  0  0  0  0  0  0
   61.5900   33.7900   46.4360 C   0  0  0  0  0  0  0  0  0  0  0  0
   62.0683   34.5422   45.7915 H   0  0  0  0  0  0  0  0  0  0  0  0
   62.3790   32.8930   47.1620 C   0  0  0  0  0  0  0  0  0  0  0  0
   63.4752   32.9403   47.0840 H   0  0  0  0  0  0  0  0  0  0  0  0
   61.7810   31.9370   47.9860 C   0  0  0  0  0  0  0  0  0  0  0  0
   62.4052   31.2314   48.5539 H   0  0  0  0  0  0  0  0  0  0  0  0
   60.3880   31.8780   48.0880 C   0  0  0  0  0  0  0  0  0  0  0  0
   59.5680   30.5740   49.2170 Br  0  0  0  0  0  0  0  0  0  0  0  0
   59.5950   32.7740   47.3630 C   0  0  0  0  0  0  0  0  0  0  0  0
   58.4995   32.7253   47.4493 H   0  0  0  0  0  0  0  0  0  0  0  0
   55.9950   30.4360   43.7340 C   0  0  0  0  0  0  0  0  0  0  0  0
   55.4783   31.1176   43.0424 H   0  0  0  0  0  0  0  0  0  0  0  0
  1  2  1  0
  2  3  1  0
  3  4  1  0
  4  5  2  0
  5  6  1  0
  5  7  1  0
  7  8  1  0
  7  9  2  0
  9 10  1  0
  9 11  1  0
 11 12  1  0
 11 13  2  0
 13 14  1  0
 14 15  2  0
 15 16  1  0
 16 17  1  0
 16 18  1  0
 16 19  1  0
 19 20  1  0
 19 21  1  0
 19 22  1  0
 22 23  1  0
 22 24  1  0
 22 25  1  0
 25 26  1  0
 25 27  1  0
 27 28  2  0
 28 29  1  0
 28 30  1  0
 30 31  1  0
 30 32  2  0
 32 33  1  0
 32 34  1  0
 34 35  1  0
 34 36  2  0
 36 37  1  0
 14 38  1  0
 38 39  1  0
 38  2  2  0
 13  4  1  0
 36 27  1  0
M  CHG  1   3  -1
M  END
>  <UniqueID>  (19) 
18

>  <SMILES>  (19) 
Clc1ccc2/c(=N/CCCNc3cccc(Br)c3)cc[n-]c2c1

>  <Energy>  (19) 
44.578896156953434

>  <Genealogy>  (19) 
Clc1ccc2c(=NCCCNc3cccc(Br)c3)cc[n-]c2c1 (protonated)
Clc1ccc2/c(=N/CCCNc3cccc(Br)c3)cc[n-]c2c1 (cis-trans isomerization)
Clc1ccc2/c(=N/CCCNc3cccc(Br)c3)cc[n-]c2c1 (3D coordinates assigned)
Clc1ccc2/c(=N/CCCNc3cccc(Br)c3)cc[n-]c2c1 (optimized conformer: 44.578896156953434 kcal/mol)

>  <smiles>  (19) 
Clc1ccc2c(=NCCCNc3cccc(Br)c3)cc[nH]c2c1

>  <score_type>  (19) 
oracle

>  <origin>  (19) 
adg

>  <m_score__min__energy>  (19) 
-9.7599999999999998

>  <m_primary>  (19) 
energy

$$$$
19:0
     RDKit          3D

 49 51  0  0  1  0  0  0  0  0999 V2000
   56.1630   22.3300   48.5740 C   0  0  0  0  0  0  0  0  0  0  0  0
   57.3780   22.6080   47.8980 O   0  0  0  0  0  0  0  0  0  0  0  0
   57.3840   23.6400   46.9680 C   0  0  0  0  0  0  0  0  0  0  0  0
   57.3770   23.4120   45.6170 C   0  0  0  0  0  0  0  0  0  0  0  0
   57.3840   24.4820   44.7630 C   0  0  0  0  0  0  0  0  0  0  0  0
   57.3980   25.7660   45.2850 C   0  0  0  0  0  0  0  0  0  0  0  0
   57.4050   26.8590   44.3430 N   0  0  0  0  0  0  0  0  0  0  0  0
   58.0870   27.9220   44.6110 C   0  0  0  0  0  0  0  0  0  0  0  0
   59.4260   27.8340   44.6140 N   0  0  0  0  0  0  0  0  0  0  0  0
   60.1740   28.9130   44.8880 C   0  0  0  0  0  0  0  0  0  0  0  0
   61.4640   28.8070   44.8860 N   0  0  0  0  0  0  0  0  0  0  0  0
   59.5870   30.0900   45.1620 N   0  0  0  0  0  0  0  0  0  0  0  0
   58.2570   30.2780   45.1820 C   0  0  0  0  0  0  0  0  0  0  0  0
   57.5900   31.4120   45.4440 O   0  0  0  0  0  0  0  0  0  0  0  0
   57.4260   32.6140   44.8110 C   0  0  0  0  0  0  0  0  0  0  0  0
   57.6440   33.8610   45.5920 C   0  0  0  0  0  0  0  0  0  0  0  0
   57.7900   33.6210   47.0710 C   0  0  0  0  0  0  0  0  0  0  0  0
   59.1760   33.3470   47.5410 C   0  0  0  0  0  0  0  0  0  0  0  0
   60.2380   34.2190   46.9480 C   0  0  0  0  0  0  0  0  0  0  0  0
   59.6510   35.3080   46.0580 C   0  0  0  0  0  0  0  0  0  0  0  0
   58.8470   34.5750   45.0080 C   0  0  0  0  0  0  0  0  0  0  0  0
   57.4930   29.1310   44.8920 C   0  0  0  0  0  0  0  0  0  0  0  0
   56.0670   29.1920   44.8810 N   0  0  0  0  0  0  0  0  0  0  0  0
   55.3960   30.1650   44.5520 O   0  0  0  0  0  0  0  0  0  0  0  0
   57.4050   26.0180   46.6360 C   0  0  0  0  0  0  0  0  0  0  0  0
   57.3980   24.9280   47.4830 C   0  0  0  0  0  0  0  0  0  0  0  0
   56.3308   22.3684   49.6604 H   0  0  0  0  0  0  0  0  0  0  0  0
   55.4075   23.0785   48.2930 H   0  0  0  0  0  0  0  0  0  0  0  0
   55.8081   21.3274   48.2930 H   0  0  0  0  0  0  0  0  0  0  0  0
   57.3659   22.3845   45.2244 H   0  0  0  0  0  0  0  0  0  0  0  0
   57.3786   24.3245   43.6744 H   0  0  0  0  0  0  0  0  0  0  0  0
   59.9240   26.9450   44.4090 H   0  0  0  0  0  0  0  0  0  0  0  0
   62.0080   28.4030   44.0870 H   0  0  0  0  0  0  0  0  0  0  0  0
   60.2150   30.8860   45.3730 H   0  0  0  0  0  0  0  0  0  0  0  0
   58.1278   32.6339   43.9642 H   0  0  0  0  0  0  0  0  0  0  0  0
   56.3569   32.6400   44.5535 H   0  0  0  0  0  0  0  0  0  0  0  0
   56.7490   34.4947   45.5052 H   0  0  0  0  0  0  0  0  0  0  0  0
   57.4239   34.5148   47.5974 H   0  0  0  0  0  0  0  0  0  0  0  0
   57.2114   32.7111   47.2884 H   0  0  0  0  0  0  0  0  0  0  0  0
   59.1971   33.4809   48.6326 H   0  0  0  0  0  0  0  0  0  0  0  0
   59.4092   32.3219   47.2173 H   0  0  0  0  0  0  0  0  0  0  0  0
   60.8042   34.6933   47.7631 H   0  0  0  0  0  0  0  0  0  0  0  0
   60.8893   33.5867   46.3267 H   0  0  0  0  0  0  0  0  0  0  0  0
   59.0020   35.9759   46.6435 H   0  0  0  0  0  0  0  0  0  0  0  0
   60.4338   35.9374   45.6097 H   0  0  0  0  0  0  0  0  0  0  0  0
   58.4971   35.3020   44.2603 H   0  0  0  0  0  0  0  0  0  0  0  0
   59.5009   33.8141   44.5570 H   0  0  0  0  0  0  0  0  0  0  0  0
   57.4157   27.0463   47.0265 H   0  0  0  0  0  0  0  0  0  0  0  0
   57.4036   25.0816   48.5722 H   0  0  0  0  0  0  0  0  0  0  0  0
  1  2  1  0
  2  3  1  0
  3  4  2  0
  4  5  1  0
  5  6  2  0
  6  7  1  0
  7  8  2  0
  8  9  1  0
  9 10  1  0
 10 11  2  3
 10 12  1  0
 12 13  1  0
 13 14  1  0
 14 15  1  0
 15 16  1  0
 16 17  1  0
 17 18  1  0
 18 19  1  0
 19 20  1  0
 20 21  1  0
 13 22  2  0
 22 23  1  0
 23 24  2  0
  6 25  1  0
 25 26  2  0
 26  3  1  0
 22  8  1  0
 21 16  1  0
  1 27  1  0
  1 28  1  0
  1 29  1  0
  4 30  1  0
  5 31  1  0
  9 32  1  0
 11 33  1  0
 12 34  1  0
 15 35  1  0
 15 36  1  0
 16 37  1  0
 17 38  1  0
 17 39  1  0
 18 40  1  0
 18 41  1  0
 19 42  1  0
 19 43  1  0
 20 44  1  0
 20 45  1  0
 21 46  1  0
 21 47  1  0
 25 48  1  0
 26 49  1  0
M  END
>  <smiles>  (20) 
COc1ccc(N=c2[nH]c(=N)[nH]c(OCC3CCCCC3)c2N=O)cc1

>  <score_type>  (20) 
oracle

>  <origin>  (20) 
adg

>  <m_score__min__energy>  (20) 
-8.6400000000000006

>  <m_primary>  (20) 
energy

$$$$
20:0
     RDKit          3D

 44 46  0  0  0  0  0  0  0  0999 V2000
   55.3770   29.7170   43.6840 C   0  0  0  0  0  0  0  0  0  0  0  0
   55.6950   29.0210   44.8860 O   0  0  0  0  0  0  0  0  0  0  0  0
   56.9600   28.9390   45.5030 C   0  0  0  0  0  0  0  0  0  0  0  0
   57.4150   27.6600   45.9000 C   0  0  0  0  0  0  0  0  0  0  0  0
   56.5760   26.4620   45.6740 C   0  0  0  0  0  0  0  0  0  0  0  0
   55.3570   26.4530   45.9960 O   0  0  0  0  0  0  0  0  0  0  0  0
   58.6730   27.5260   46.5140 C   0  0  0  0  0  0  0  0  0  0  0  0
   59.4690   28.6440   46.7480 C   0  0  0  0  0  0  0  0  0  0  0  0
   59.0270   29.9080   46.3690 C   0  0  0  0  0  0  0  0  0  0  0  0
   57.7860   30.0710   45.7320 C   0  0  0  0  0  0  0  0  0  0  0  0
   57.3450   31.3540   45.3850 O   0  0  0  0  0  0  0  0  0  0  0  0
   58.0630   32.5470   45.5520 C   0  0  0  0  0  0  0  0  0  0  0  0
   58.3130   33.4340   44.4900 C   0  0  0  0  0  0  0  0  0  0  0  0
   59.0000   34.6280   44.7220 C   0  0  0  0  0  0  0  0  0  0  0  0
   59.4120   34.9620   46.0140 C   0  0  0  0  0  0  0  0  0  0  0  0
   59.1360   34.1050   47.0900 C   0  0  0  0  0  0  0  0  0  0  0  0
   59.5090   34.4990   48.4220 N   0  0  0  0  0  0  0  0  0  0  0  0
   60.2650   33.4140   49.5480 S   0  0  0  0  0  0  0  0  0  0  0  0
   61.2780   34.1670   50.3640 O   0  0  0  0  0  0  0  0  0  0  0  0
   60.9670   32.3230   48.7880 O   0  0  0  0  0  0  0  0  0  0  0  0
   59.0490   32.7420   50.6340 C   0  0  0  0  0  0  0  0  0  0  0  0
   58.6640   33.4310   51.7950 C   0  0  0  0  0  0  0  0  0  0  0  0
   57.7440   32.8590   52.6780 C   0  0  0  0  0  0  0  0  0  0  0  0
   57.2000   31.6000   52.4020 C   0  0  0  0  0  0  0  0  0  0  0  0
   57.5760   30.9130   51.2440 C   0  0  0  0  0  0  0  0  0  0  0  0
   58.4990   31.4820   50.3620 C   0  0  0  0  0  0  0  0  0  0  0  0
   58.4850   32.8840   46.8420 C   0  0  0  0  0  0  0  0  0  0  0  0
   54.9316   30.6918   43.9316 H   0  0  0  0  0  0  0  0  0  0  0  0
   56.2939   29.8715   43.0962 H   0  0  0  0  0  0  0  0  0  0  0  0
   54.6600   29.1250   43.0962 H   0  0  0  0  0  0  0  0  0  0  0  0
   57.0226   25.5660   45.2183 H   0  0  0  0  0  0  0  0  0  0  0  0
   59.0311   26.5295   46.8119 H   0  0  0  0  0  0  0  0  0  0  0  0
   60.4493   28.5280   47.2334 H   0  0  0  0  0  0  0  0  0  0  0  0
   59.6557   30.7879   46.5703 H   0  0  0  0  0  0  0  0  0  0  0  0
   57.9672   33.1874   43.4753 H   0  0  0  0  0  0  0  0  0  0  0  0
   59.2172   35.3073   43.8845 H   0  0  0  0  0  0  0  0  0  0  0  0
   59.9558   35.9020   46.1889 H   0  0  0  0  0  0  0  0  0  0  0  0
   59.1680   35.4110   48.7970 H   0  0  0  0  0  0  0  0  0  0  0  0
   59.0874   34.4232   52.0102 H   0  0  0  0  0  0  0  0  0  0  0  0
   57.4477   33.3985   53.5897 H   0  0  0  0  0  0  0  0  0  0  0  0
   56.4756   31.1502   53.0969 H   0  0  0  0  0  0  0  0  0  0  0  0
   57.1453   29.9244   51.0269 H   0  0  0  0  0  0  0  0  0  0  0  0
   58.7945   30.9394   49.4519 H   0  0  0  0  0  0  0  0  0  0  0  0
   58.3054   32.1854   47.6725 H   0  0  0  0  0  0  0  0  0  0  0  0
  1  2  1  0
  2  3  1  0
  3  4  2  0
  4  5  1  0
  5  6  2  0
  4  7  1  0
  7  8  2  0
  8  9  1  0
  9 10  2  0
 10 11  1  0
 11 12  1  0
 12 13  2  0
 13 14  1  0
 14 15  2  0
 15 16  1  0
 16 17  1  0
 17 18  1  0
 18 19  2  0
 18 20  2  0
 18 21  1  0
 21 22  2  0
 22 23  1  0
 23 24  2  0
 24 25  1  0
 25 26  2  0
 16 27  2  0
 10  3  1  0
 27 12  1  0
 26 21  1  0
  1 28  1  0
  1 29  1  0
  1 30  1  0
  5 31  1  0
  7 32  1  0
  8 33  1  0
  9 34  1  0
 13 35  1  0
 14 36  1  0
 15 37  1  0
 17 38  1  0
 22 39  1  0
 23 40  1  0
 24 41  1  0
 25 42  1  0
 26 43  1  0
 27 44  1  0
M  END
>  <UniqueID>  (21) 
19

>  <SMILES>  (21) 
COc1c(C=O)cccc1Oc1cccc(NS(=O)(=O)c2ccccc2)c1

>  <Energy>  (21) 
58.07505916192974

>  <Genealogy>  (21) 
COc1c(C=O)cccc1Oc1cccc(NS(=O)(=O)c2ccccc2)c1 (3D coordinates assigned)
COc1c(C=O)cccc1Oc1cccc(NS(=O)(=O)c2ccccc2)c1 (optimized conformer: 58.07505916192974 kcal/mol)

>  <smiles>  (21) 
COc1c(C=O)cccc1Oc1cccc(NS(=O)(=O)c2ccccc2)c1

>  <score_type>  (21) 
oracle

>  <origin>  (21) 
adg

>  <m_score__min__energy>  (21) 
-9.8499999999999996

>  <m_primary>  (21) 
energy

$$$$
21:0
     RDKit          3D

 38 40  0  0  0  0  0  0  0  0999 V2000
   59.5950   35.3830   45.2730 O   0  0  0  0  0  0  0  0  0  0  0  0
   59.7320   34.3360   45.9610 C   0  0  0  0  0  0  0  0  0  0  0  0
   60.8330   34.2060   46.7430 N   0  0  0  0  0  0  0  0  0  0  0  0
   61.0460   33.1150   47.5190 C   0  0  0  0  0  0  0  0  0  0  0  0
   62.2030   33.0330   48.3050 C   0  0  0  0  0  0  0  0  0  0  0  0
   63.1140   34.0390   48.2920 F   0  0  0  0  0  0  0  0  0  0  0  0
   62.4240   31.9120   49.1100 C   0  0  0  0  0  0  0  0  0  0  0  0
   61.4930   30.8710   49.1340 C   0  0  0  0  0  0  0  0  0  0  0  0
   60.3360   30.9440   48.3530 C   0  0  0  0  0  0  0  0  0  0  0  0
   60.1010   32.0660   47.5370 C   0  0  0  0  0  0  0  0  0  0  0  0
   58.9440   32.1700   46.7400 C   0  0  0  0  0  0  0  0  0  0  0  0
   58.0040   31.1340   46.7810 O   0  0  0  0  0  0  0  0  0  0  0  0
   58.7570   33.3150   45.9230 C   0  0  0  0  0  0  0  0  0  0  0  0
   57.5240   33.4790   45.0540 C   0  0  0  0  0  0  0  0  0  0  0  0
   57.2770   32.2430   44.1810 C   0  0  0  0  0  0  0  0  0  0  0  0
   56.2770   31.3610   44.7900 N   0  0  0  0  0  0  0  0  0  0  0  0
   56.4040   29.7400   44.1750 S   0  0  0  0  0  0  0  0  0  0  0  0
   56.5640   29.7660   42.6810 O   0  0  0  0  0  0  0  0  0  0  0  0
   55.1470   28.9870   44.5070 O   0  0  0  0  0  0  0  0  0  0  0  0
   57.7730   28.9220   44.9240 C   0  0  0  0  0  0  0  0  0  0  0  0
   59.0780   29.2650   44.5420 C   0  0  0  0  0  0  0  0  0  0  0  0
   60.1730   28.6150   45.1190 C   0  0  0  0  0  0  0  0  0  0  0  0
   59.9690   27.6170   46.0780 C   0  0  0  0  0  0  0  0  0  0  0  0
   61.0320   26.9860   46.6360 F   0  0  0  0  0  0  0  0  0  0  0  0
   58.6700   27.2680   46.4580 C   0  0  0  0  0  0  0  0  0  0  0  0
   57.5730   27.9180   45.8830 C   0  0  0  0  0  0  0  0  0  0  0  0
   63.3332   31.8494   49.7260 H   0  0  0  0  0  0  0  0  0  0  0  0
   61.6709   29.9909   49.7695 H   0  0  0  0  0  0  0  0  0  0  0  0
   59.6064   30.1211   48.3764 H   0  0  0  0  0  0  0  0  0  0  0  0
   57.0920   31.1780   46.3500 H   0  0  0  0  0  0  0  0  0  0  0  0
   56.6496   33.6381   45.7022 H   0  0  0  0  0  0  0  0  0  0  0  0
   57.6846   34.3412   44.3901 H   0  0  0  0  0  0  0  0  0  0  0  0
   56.9174   32.5664   43.1931 H   0  0  0  0  0  0  0  0  0  0  0  0
   58.2216   31.6877   44.0844 H   0  0  0  0  0  0  0  0  0  0  0  0
   59.2405   30.0476   43.7863 H   0  0  0  0  0  0  0  0  0  0  0  0
   61.1954   28.8883   44.8189 H   0  0  0  0  0  0  0  0  0  0  0  0
   58.5102   26.4813   47.2101 H   0  0  0  0  0  0  0  0  0  0  0  0
   56.5516   27.6413   46.1834 H   0  0  0  0  0  0  0  0  0  0  0  0
  1  2  2  0
  2  3  1  0
  3  4  1  0
  4  5  2  0
  5  6  1  0
  5  7  1  0
  7  8  2  0
  8  9  1  0
  9 10  2  0
 10 11  1  0
 11 12  1  0
 11 13  2  0
 13 14  1  0
 14 15  1  0
 15 16  1  0
 16 17  1  0
 17 18  2  0
 17 19  2  0
 17 20  1  0
 20 21  2  0
 21 22  1  0
 22 23  2  0
 23 24  1  0
 23 25  1  0
 25 26  2  0
 13  2  1  0
 26 20  1  0
 10  4  1  0
  7 27  1  0
  8 28  1  0
  9 29  1  0
 12 30  1  0
 14 31  1  0
 14 32  1  0
 15 33  1  0
 15 34  1  0
 21 35  1  0
 22 36  1  0
 25 37  1  0
 26 38  1  0
M  CHG  2   3  -1  16  -1
M  END
>  <UniqueID>  (22) 
20

>  <SMILES>  (22) 
O=c1[n-]c2c(F)cccc2c(O)c1CC[N-]S(=O)(=O)c1ccc(F)cc1

>  <Energy>  (22) 
45.97872046128948

>  <Genealogy>  (22) 
O=c1[n-]c2c(F)cccc2c(O)c1CC[N-]S(=O)(=O)c1ccc(F)cc1 (protonated)
O=c1[n-]c2c(F)cccc2c(O)c1CC[N-]S(=O)(=O)c1ccc(F)cc1 (3D coordinates assigned)
O=c1[n-]c2c(F)cccc2c(O)c1CC[N-]S(=O)(=O)c1ccc(F)cc1 (optimized conformer: 45.97872046128948 kcal/mol)

>  <smiles>  (22) 
O=c1[nH]c2c(F)cccc2c(O)c1CCNS(=O)(=O)c1ccc(F)cc1

>  <score_type>  (22) 
oracle

>  <origin>  (22) 
adg

>  <m_score__min__energy>  (22) 
-11.24

>  <m_primary>  (22) 
energy

$$$$
22:0
     RDKit          3D

 51 53  0  0  0  0  0  0  0  0999 V2000
   66.8890   27.0610   50.9320 C   0  0  0  0  0  0  0  0  0  0  0  0
   67.8730   28.1330   50.4670 C   0  0  0  0  0  0  0  0  0  0  0  0
   68.2180   29.0040   51.5450 O   0  0  0  0  0  0  0  0  0  0  0  0
   67.3010   29.8410   52.1910 C   0  0  0  0  0  0  0  0  0  0  0  0
   67.3050   29.9340   53.4480 O   0  0  0  0  0  0  0  0  0  0  0  0
   66.3200   30.6070   51.3950 C   0  0  0  0  0  0  0  0  0  0  0  0
   66.7490   31.5930   50.4940 C   0  0  0  0  0  0  0  0  0  0  0  0
   65.8460   32.2850   49.7510 N   0  0  0  0  0  0  0  0  0  0  0  0
   64.5050   32.0590   49.8510 C   0  0  0  0  0  0  0  0  0  0  0  0
   63.5990   32.8060   49.0260 N   0  0  0  0  0  0  0  0  0  0  0  0
   62.7990   33.8770   49.6340 C   0  0  0  0  0  0  0  0  0  0  0  0
   61.7680   34.4310   48.6480 C   0  0  0  0  0  0  0  0  0  0  0  0
   61.1030   33.3190   47.9500 N   0  0  0  0  0  0  0  0  0  0  0  0
   59.6660   33.2190   47.9130 C   0  0  0  0  0  0  0  0  0  0  0  0
   58.9520   34.1390   48.3980 O   0  0  0  0  0  0  0  0  0  0  0  0
   59.0410   32.0820   47.2980 N   0  0  0  0  0  0  0  0  0  0  0  0
   58.5400   32.0260   45.9540 C   0  0  0  0  0  0  0  0  0  0  0  0
   58.6840   33.1100   45.0660 C   0  0  0  0  0  0  0  0  0  0  0  0
   58.1380   33.0450   43.7790 C   0  0  0  0  0  0  0  0  0  0  0  0
   57.4350   31.9090   43.3740 C   0  0  0  0  0  0  0  0  0  0  0  0
   57.2610   30.8250   44.2540 C   0  0  0  0  0  0  0  0  0  0  0  0
   56.5800   29.5700   43.7730 C   0  0  0  0  0  0  0  0  0  0  0  0
   55.4300   29.3190   44.5000 F   0  0  0  0  0  0  0  0  0  0  0  0
   56.2330   29.6940   42.4360 F   0  0  0  0  0  0  0  0  0  0  0  0
   57.4440   28.5040   43.9200 F   0  0  0  0  0  0  0  0  0  0  0  0
   57.8230   30.8930   45.5430 C   0  0  0  0  0  0  0  0  0  0  0  0
   61.9170   32.2620   47.3230 C   0  0  0  0  0  0  0  0  0  0  0  0
   63.4110   32.4480   47.6150 C   0  0  0  0  0  0  0  0  0  0  0  0
   64.0300   31.0850   50.7430 C   0  0  0  0  0  0  0  0  0  0  0  0
   62.3150   30.7180   50.8760 Cl  0  0  0  0  0  0  0  0  0  0  0  0
   64.9430   30.3610   51.5120 C   0  0  0  0  0  0  0  0  0  0  0  0
   66.8663   27.0363   52.0315 H   0  0  0  0  0  0  0  0  0  0  0  0
   65.8844   27.2948   50.5497 H   0  0  0  0  0  0  0  0  0  0  0  0
   67.2077   26.0801   50.5497 H   0  0  0  0  0  0  0  0  0  0  0  0
   68.7848   27.6469   50.0897 H   0  0  0  0  0  0  0  0  0  0  0  0
   67.3992   28.7263   49.6710 H   0  0  0  0  0  0  0  0  0  0  0  0
   67.8228   31.8072   50.3884 H   0  0  0  0  0  0  0  0  0  0  0  0
   66.1970   33.0160   49.0940 H   0  0  0  0  0  0  0  0  0  0  0  0
   62.2740   33.4764   50.5137 H   0  0  0  0  0  0  0  0  0  0  0  0
   63.4763   34.6942   49.9229 H   0  0  0  0  0  0  0  0  0  0  0  0
   61.0177   35.0200   49.1958 H   0  0  0  0  0  0  0  0  0  0  0  0
   62.2751   35.0723   47.9121 H   0  0  0  0  0  0  0  0  0  0  0  0
   59.2278   34.0112   45.3854 H   0  0  0  0  0  0  0  0  0  0  0  0
   58.2629   33.8899   43.0859 H   0  0  0  0  0  0  0  0  0  0  0  0
   57.0138   31.8609   42.3590 H   0  0  0  0  0  0  0  0  0  0  0  0
   57.6983   30.0477   46.2358 H   0  0  0  0  0  0  0  0  0  0  0  0
   61.5961   31.2855   47.7147 H   0  0  0  0  0  0  0  0  0  0  0  0
   61.7710   32.3174   46.2341 H   0  0  0  0  0  0  0  0  0  0  0  0
   63.9447   31.5101   47.4016 H   0  0  0  0  0  0  0  0  0  0  0  0
   63.8088   33.2526   46.9791 H   0  0  0  0  0  0  0  0  0  0  0  0
   64.5816   29.5941   52.2129 H   0  0  0  0  0  0  0  0  0  0  0  0
  1  2  1  0
  2  3  1  0
  3  4  1  0
  4  5  2  0
  4  6  1  0
  6  7  2  0
  7  8  1  0
  8  9  2  0
  9 10  1  0
 10 11  1  0
 11 12  1  0
 12 13  1  0
 13 14  1  0
 14 15  2  0
 14 16  1  0
 16 17  1  0
 17 18  2  0
 18 19  1  0
 19 20  2  0
 20 21  1  0
 21 22  1  0
 22 23  1  0
 22 24  1  0
 22 25  1  0
 21 26  2  0
 13 27  1  0
 27 28  1  0
  9 29  1  0
 29 30  1  0
 29 31  2  0
 31  6  1  0
 28 10  1  0
 26 17  1  0
  1 32  1  0
  1 33  1  0
  1 34  1  0
  2 35  1  0
  2 36  1  0
  7 37  1  0
  8 38  1  0
 11 39  1  0
 11 40  1  0
 12 41  1  0
 12 42  1  0
 18 43  1  0
 19 44  1  0
 20 45  1  0
 26 46  1  0
 27 47  1  0
 27 48  1  0
 28 49  1  0
 28 50  1  0
 31 51  1  0
M  CHG  2   8   1  16  -1
M  END
>  <UniqueID>  (23) 
21

>  <SMILES>  (23) 
CCOC(=O)c1c[nH+]c(N2CCN(C(=O)[N-]c3cccc(C(F)(F)F)c3)CC2)c(Cl)c1

>  <Energy>  (23) 
58.99751409511511

>  <Genealogy>  (23) 
CCOC(=O)c1c[nH+]c(N2CCN(C(=O)[N-]c3cccc(C(F)(F)F)c3)CC2)c(Cl)c1 (protonated)
CCOC(=O)c1c[nH+]c(N2CCN(C(=O)[N-]c3cccc(C(F)(F)F)c3)CC2)c(Cl)c1 (3D coordinates assigned)
CCOC(=O)c1c[nH+]c(N2CCN(C(=O)[N-]c3cccc(C(F)(F)F)c3)CC2)c(Cl)c1 (nonaromatic ring conformer: 58.99751409511511 kcal/mol)

>  <smiles>  (23) 
CCOC(=O)c1cnc(N2CCN(C(=O)Nc3cccc(C(F)(F)F)c3)CC2)c(Cl)c1

>  <score_type>  (23) 
oracle

>  <origin>  (23) 
adg

>  <m_score__min__energy>  (23) 
-7.5800000000000001

>  <m_primary>  (23) 
energy

$$$$
23:0
     RDKit          3D

 48 51  0  0  0  0  0  0  0  0999 V2000
   56.6420   28.5660   42.2310 N   0  0  0  0  0  0  0  0  0  0  0  0
   56.8880   29.5390   42.8090 C   0  0  0  0  0  0  0  0  0  0  0  0
   57.1950   30.7490   43.5260 C   0  0  0  0  0  0  0  0  0  0  0  0
   57.5850   31.8980   42.8310 C   0  0  0  0  0  0  0  0  0  0  0  0
   57.8770   33.0760   43.5260 C   0  0  0  0  0  0  0  0  0  0  0  0
   57.7840   33.1170   44.9300 C   0  0  0  0  0  0  0  0  0  0  0  0
   58.0800   34.3090   45.6780 N   0  0  0  0  0  0  0  0  0  0  0  0
   59.6470   34.6680   46.3370 S   0  0  0  0  0  0  0  0  0  0  0  0
   59.7650   36.1480   46.5710 O   0  0  0  0  0  0  0  0  0  0  0  0
   60.7060   34.2520   45.3560 O   0  0  0  0  0  0  0  0  0  0  0  0
   59.8770   33.7650   47.8320 C   0  0  0  0  0  0  0  0  0  0  0  0
   59.7570   34.4260   49.0610 C   0  0  0  0  0  0  0  0  0  0  0  0
   59.9450   33.7270   50.2560 C   0  0  0  0  0  0  0  0  0  0  0  0
   60.2560   32.3650   50.2290 C   0  0  0  0  0  0  0  0  0  0  0  0
   60.3830   31.6910   49.0070 C   0  0  0  0  0  0  0  0  0  0  0  0
   60.7070   30.2960   49.0190 N   0  0  0  0  0  0  0  0  0  0  0  0
   61.2410   29.7140   48.0230 N   0  0  0  0  0  0  0  0  0  0  0  0
   60.4660   29.2470   46.9150 C   0  0  0  0  0  0  0  0  0  0  0  0
   60.5920   29.7060   45.6110 C   0  0  0  0  0  0  0  0  0  0  0  0
   59.7140   29.0660   44.8080 N   0  0  0  0  0  0  0  0  0  0  0  0
   59.0390   28.2080   45.5990 C   0  0  0  0  0  0  0  0  0  0  0  0
   58.0260   27.3310   45.2110 C   0  0  0  0  0  0  0  0  0  0  0  0
   57.4380   26.5180   46.2010 C   0  0  0  0  0  0  0  0  0  0  0  0
   56.1640   25.3770   45.7780 S   0  0  0  0  0  0  0  0  0  0  0  0
   54.6270   26.1610   45.8840 N   0  0  0  0  0  0  0  0  0  0  0  0
   56.3830   24.8780   44.3780 O   0  0  0  0  0  0  0  0  0  0  0  0
   56.1860   24.2050   46.7190 O   0  0  0  0  0  0  0  0  0  0  0  0
   57.8790   26.6040   47.5420 C   0  0  0  0  0  0  0  0  0  0  0  0
   58.9040   27.4950   47.9050 C   0  0  0  0  0  0  0  0  0  0  0  0
   59.4670   28.2880   46.9000 C   0  0  0  0  0  0  0  0  0  0  0  0
   60.1900   32.3970   47.8050 C   0  0  0  0  0  0  0  0  0  0  0  0
   57.4060   31.9540   45.6200 C   0  0  0  0  0  0  0  0  0  0  0  0
   57.1080   30.7790   44.9230 C   0  0  0  0  0  0  0  0  0  0  0  0
   57.6624   31.8753   41.7340 H   0  0  0  0  0  0  0  0  0  0  0  0
   58.1813   33.9762   42.9720 H   0  0  0  0  0  0  0  0  0  0  0  0
   57.3550   35.0580   45.7510 H   0  0  0  0  0  0  0  0  0  0  0  0
   59.5140   35.4986   49.0854 H   0  0  0  0  0  0  0  0  0  0  0  0
   59.8481   34.2494   51.2192 H   0  0  0  0  0  0  0  0  0  0  0  0
   60.4020   31.8187   51.1725 H   0  0  0  0  0  0  0  0  0  0  0  0
   61.3026   30.4777   45.2800 H   0  0  0  0  0  0  0  0  0  0  0  0
   59.5870   29.2100   43.7810 H   0  0  0  0  0  0  0  0  0  0  0  0
   57.6958   27.2755   44.1632 H   0  0  0  0  0  0  0  0  0  0  0  0
   54.7790   27.0620   46.3880 H   0  0  0  0  0  0  0  0  0  0  0  0
   57.4150   25.9668   48.3093 H   0  0  0  0  0  0  0  0  0  0  0  0
   59.2520   27.5662   48.9461 H   0  0  0  0  0  0  0  0  0  0  0  0
   60.2847   31.8751   46.8413 H   0  0  0  0  0  0  0  0  0  0  0  0
   57.3438   31.9673   46.7182 H   0  0  0  0  0  0  0  0  0  0  0  0
   56.8046   29.8763   45.4735 H   0  0  0  0  0  0  0  0  0  0  0  0
  1  2  3  0
  2  3  1  0
  3  4  2  0
  4  5  1  0
  5  6  2  0
  6  7  1  0
  7  8  1  0
  8  9  2  0
  8 10  2  0
  8 11  1  0
 11 12  2  0
 12 13  1  0
 13 14  2  0
 14 15  1  0
 15 16  1  0
 16 17  2  3
 17 18  1  0
 18 19  2  0
 19 20  1  0
 20 21  1  0
 21 22  2  0
 22 23  1  0
 23 24  1  0
 24 25  1  0
 24 26  2  0
 24 27  2  0
 23 28  2  0
 28 29  1  0
 29 30  2  0
 15 31  2  0
  6 32  1  0
 32 33  2  0
 33  3  1  0
 31 11  1  0
 30 18  1  0
 30 21  1  0
  4 34  1  0
  5 35  1  0
  7 36  1  0
 12 37  1  0
 13 38  1  0
 14 39  1  0
 19 40  1  0
 20 41  1  0
 22 42  1  0
 25 43  1  0
 28 44  1  0
 29 45  1  0
 31 46  1  0
 32 47  1  0
 33 48  1  0
M  CHG  1  25  -1
M  END
>  <UniqueID>  (24) 
22

>  <SMILES>  (24) 
N#Cc1ccc(NS(=O)(=O)c2cccc(N=Nc3c[nH]c4cc(S([NH-])(=O)=O)ccc34)c2)cc1

>  <Energy>  (24) 
89.06845273141514

>  <Genealogy>  (24) 
N#Cc1ccc(NS(=O)(=O)c2cccc(N=Nc3c[nH]c4cc(S([NH-])(=O)=O)ccc34)c2)cc1 (protonated)
N#Cc1ccc(NS(=O)(=O)c2cccc(N=Nc3c[nH]c4cc(S([NH-])(=O)=O)ccc34)c2)cc1 (3D coordinates assigned)
N#Cc1ccc(NS(=O)(=O)c2cccc(N=Nc3c[nH]c4cc(S([NH-])(=O)=O)ccc34)c2)cc1 (optimized conformer: 89.06845273141514 kcal/mol)

>  <smiles>  (24) 
N#Cc1ccc(NS(=O)(=O)c2cccc(N=Nc3c[nH]c4cc(S(N)(=O)=O)ccc34)c2)cc1

>  <score_type>  (24) 
oracle

>  <origin>  (24) 
adg

>  <m_score__min__energy>  (24) 
-11.57

>  <m_primary>  (24) 
energy

$$$$
24:0
     RDKit          3D

 51 52  0  0  0  0  0  0  0  0999 V2000
   57.4970   32.2990   41.7780 C   0  0  0  0  0  0  0  0  0  0  0  0
   58.4230   32.1820   42.8510 O   0  0  0  0  0  0  0  0  0  0  0  0
   58.3040   32.8530   44.0790 C   0  0  0  0  0  0  0  0  0  0  0  0
   59.2330   33.8290   44.4920 C   0  0  0  0  0  0  0  0  0  0  0  0
   59.0820   34.4710   45.7250 C   0  0  0  0  0  0  0  0  0  0  0  0
   58.0150   34.1400   46.5590 C   0  0  0  0  0  0  0  0  0  0  0  0
   57.0870   33.1770   46.1600 C   0  0  0  0  0  0  0  0  0  0  0  0
   57.2160   32.5420   44.9140 C   0  0  0  0  0  0  0  0  0  0  0  0
   56.2780   31.5430   44.5030 N   0  0  0  0  0  0  0  0  0  0  0  0
   56.6690   29.8560   44.4090 S   0  0  0  0  0  0  0  0  0  0  0  0
   55.5740   29.0600   45.0640 O   0  0  0  0  0  0  0  0  0  0  0  0
   56.7430   29.4530   42.9610 O   0  0  0  0  0  0  0  0  0  0  0  0
   58.2160   29.4990   45.1720 C   0  0  0  0  0  0  0  0  0  0  0  0
   59.1670   28.7170   44.5030 C   0  0  0  0  0  0  0  0  0  0  0  0
   60.3790   28.4080   45.1220 C   0  0  0  0  0  0  0  0  0  0  0  0
   60.6530   28.8830   46.4090 C   0  0  0  0  0  0  0  0  0  0  0  0
   59.7140   29.6790   47.0900 C   0  0  0  0  0  0  0  0  0  0  0  0
   60.0210   30.1710   48.4550 C   0  0  0  0  0  0  0  0  0  0  0  0
   59.4690   29.6190   49.4450 O   0  0  0  0  0  0  0  0  0  0  0  0
   60.9470   31.2510   48.6660 N   0  0  0  0  0  0  0  0  0  0  0  0
   61.2440   31.7820   49.9960 C   0  0  0  0  0  0  0  0  0  0  0  0
   61.8090   33.2080   49.9110 C   0  0  0  0  0  0  0  0  0  0  0  0
   61.8280   33.7570   48.4650 C   0  0  0  0  0  0  0  0  0  0  0  0
   62.8620   33.0870   47.6440 N   0  0  0  0  0  0  0  0  0  0  0  0
   63.0710   33.8360   46.3930 C   0  0  0  0  0  0  0  0  0  0  0  0
   64.1350   32.9960   48.3800 C   0  0  0  0  0  0  0  0  0  0  0  0
   58.4860   29.9710   46.4640 C   0  0  0  0  0  0  0  0  0  0  0  0
   56.4819   32.4273   42.1820 H   0  0  0  0  0  0  0  0  0  0  0  0
   57.7590   33.1712   41.1610 H   0  0  0  0  0  0  0  0  0  0  0  0
   57.5338   31.3891   41.1610 H   0  0  0  0  0  0  0  0  0  0  0  0
   60.0813   34.0871   43.8410 H   0  0  0  0  0  0  0  0  0  0  0  0
   59.8059   35.2381   46.0373 H   0  0  0  0  0  0  0  0  0  0  0  0
   57.9044   34.6387   47.5332 H   0  0  0  0  0  0  0  0  0  0  0  0
   56.2507   32.9141   46.8245 H   0  0  0  0  0  0  0  0  0  0  0  0
   58.9580   28.3462   43.4887 H   0  0  0  0  0  0  0  0  0  0  0  0
   61.1211   27.7891   44.5964 H   0  0  0  0  0  0  0  0  0  0  0  0
   61.6091   28.6324   46.8917 H   0  0  0  0  0  0  0  0  0  0  0  0
   61.4420   31.6830   47.8540 H   0  0  0  0  0  0  0  0  0  0  0  0
   60.3190   31.7974   50.5911 H   0  0  0  0  0  0  0  0  0  0  0  0
   61.9984   31.1359   50.4687 H   0  0  0  0  0  0  0  0  0  0  0  0
   61.1871   33.8705   50.5309 H   0  0  0  0  0  0  0  0  0  0  0  0
   62.8490   33.1753   50.2678 H   0  0  0  0  0  0  0  0  0  0  0  0
   60.8426   33.5889   48.0058 H   0  0  0  0  0  0  0  0  0  0  0  0
   62.0625   34.8309   48.5065 H   0  0  0  0  0  0  0  0  0  0  0  0
   63.3598   34.8708   46.6291 H   0  0  0  0  0  0  0  0  0  0  0  0
   63.8698   33.3569   45.8078 H   0  0  0  0  0  0  0  0  0  0  0  0
   62.1396   33.8396   45.8078 H   0  0  0  0  0  0  0  0  0  0  0  0
   63.9350   33.0103   49.4616 H   0  0  0  0  0  0  0  0  0  0  0  0
   64.6462   32.0590   48.1140 H   0  0  0  0  0  0  0  0  0  0  0  0
   64.7743   33.8507   48.1140 H   0  0  0  0  0  0  0  0  0  0  0  0
   57.7334   30.5740   46.9932 H   0  0  0  0  0  0  0  0  0  0  0  0
  1  2  1  0
  2  3  1  0
  3  4  2  0
  4  5  1  0
  5  6  2  0
  6  7  1  0
  7  8  2  0
  8  9  1  0
  9 10  1  0
 10 11  2  0
 10 12  2  0
 10 13  1  0
 13 14  2  0
 14 15  1  0
 15 16  2  0
 16 17  1  0
 17 18  1  0
 18 19  2  0
 18 20  1  0
 20 21  1  0
 21 22  1  0
 22 23  1  0
 23 24  1  0
 24 25  1  0
 24 26  1  0
 17 27  2  0
  8  3  1  0
 27 13  1  0
  1 28  1  0
  1 29  1  0
  1 30  1  0
  4 31  1  0
  5 32  1  0
  6 33  1  0
  7 34  1  0
 14 35  1  0
 15 36  1  0
 16 37  1  0
 20 38  1  0
 21 39  1  0
 21 40  1  0
 22 41  1  0
 22 42  1  0
 23 43  1  0
 23 44  1  0
 25 45  1  0
 25 46  1  0
 25 47  1  0
 26 48  1  0
 26 49  1  0
 26 50  1  0
 27 51  1  0
M  CHG  1   9  -1
M  END
>  <UniqueID>  (25) 
23

>  <SMILES>  (25) 
COc1ccccc1[N-]S(=O)(=O)c1cccc(C(=O)NCCCN(C)C)c1

>  <Energy>  (25) 
59.344812625683176

>  <Genealogy>  (25) 
COc1ccccc1[N-]S(=O)(=O)c1cccc(C(=O)NCCCN(C)C)c1 (protonated)
COc1ccccc1[N-]S(=O)(=O)c1cccc(C(=O)NCCCN(C)C)c1 (3D coordinates assigned)
COc1ccccc1[N-]S(=O)(=O)c1cccc(C(=O)NCCCN(C)C)c1 (optimized conformer: 59.344812625683176 kcal/mol)

>  <smiles>  (25) 
COc1ccccc1NS(=O)(=O)c1cccc(C(=O)NCCCN(C)C)c1

>  <score_type>  (25) 
oracle

>  <origin>  (25) 
adg

>  <m_score__min__energy>  (25) 
-10.42

>  <m_primary>  (25) 
energy

$$$$
25:0
     RDKit          3D

 29 31  0  0  0  0  0  0  0  0999 V2000
   60.8370   29.8170   46.7660 C   0  0  0  0  0  0  0  0  0  0  0  0
   59.8300   29.1500   45.8860 C   0  0  0  0  0  0  0  0  0  0  0  0
   60.1680   28.3200   44.8620 N   0  0  0  0  0  0  0  0  0  0  0  0
   59.0310   28.1740   44.1320 C   0  0  0  0  0  0  0  0  0  0  0  0
   58.0200   28.8590   44.6920 N   0  0  0  0  0  0  0  0  0  0  0  0
   58.4950   29.4770   45.7470 C   0  0  0  0  0  0  0  0  0  0  0  0
   57.7650   30.6460   45.8890 C   0  0  0  0  0  0  0  0  0  0  0  0
   57.9580   31.6850   46.8050 O   0  0  0  0  0  0  0  0  0  0  0  0
   58.5070   32.9330   46.4860 C   0  0  0  0  0  0  0  0  0  0  0  0
   59.2440   33.6140   47.4620 C   0  0  0  0  0  0  0  0  0  0  0  0
   59.8110   34.8610   47.1800 C   0  0  0  0  0  0  0  0  0  0  0  0
   59.6550   35.4290   45.9130 C   0  0  0  0  0  0  0  0  0  0  0  0
   58.9380   34.7490   44.9250 C   0  0  0  0  0  0  0  0  0  0  0  0
   58.3690   33.5020   45.2050 C   0  0  0  0  0  0  0  0  0  0  0  0
   56.8720   30.6960   44.8650 N   0  0  0  0  0  0  0  0  0  0  0  0
   57.0620   29.5900   44.1490 N   0  0  0  0  0  0  0  0  0  0  0  0
   56.5070   29.3850   42.8170 C   0  0  0  0  0  0  0  0  0  0  0  0
   60.5749   29.6434   47.8201 H   0  0  0  0  0  0  0  0  0  0  0  0
   61.8346   29.4005   46.5628 H   0  0  0  0  0  0  0  0  0  0  0  0
   60.8427   30.8981   46.5628 H   0  0  0  0  0  0  0  0  0  0  0  0
   58.9498   27.5780   43.2110 H   0  0  0  0  0  0  0  0  0  0  0  0
   59.3781   33.1654   48.4574 H   0  0  0  0  0  0  0  0  0  0  0  0
   60.3798   35.3946   47.9557 H   0  0  0  0  0  0  0  0  0  0  0  0
   60.0969   36.4121   45.6931 H   0  0  0  0  0  0  0  0  0  0  0  0
   58.8209   35.1946   43.9261 H   0  0  0  0  0  0  0  0  0  0  0  0
   57.8126   32.9647   44.4229 H   0  0  0  0  0  0  0  0  0  0  0  0
   55.4783   29.0050   42.9029 H   0  0  0  0  0  0  0  0  0  0  0  0
   56.5007   30.3401   42.2714 H   0  0  0  0  0  0  0  0  0  0  0  0
   57.1231   28.6551   42.2714 H   0  0  0  0  0  0  0  0  0  0  0  0
  1  2  1  0
  2  3  1  0
  3  4  2  0
  4  5  1  0
  5  6  1  0
  6  7  1  0
  7  8  1  0
  8  9  1  0
  9 10  2  0
 10 11  1  0
 11 12  2  0
 12 13  1  0
 13 14  2  0
  7 15  2  0
 15 16  1  0
 16 17  1  0
  6  2  2  0
 14  9  1  0
 16  5  1  0
  1 18  1  0
  1 19  1  0
  1 20  1  0
  4 21  1  0
 10 22  1  0
 11 23  1  0
 12 24  1  0
 13 25  1  0
 14 26  1  0
 17 27  1  0
 17 28  1  0
 17 29  1  0
M  END
>  <UniqueID>  (26) 
24

>  <SMILES>  (26) 
Cc1ncn2c1c(Oc1ccccc1)nn2C

>  <Energy>  (26) 
134.97452819496243

>  <Genealogy>  (26) 
Cc1ncn2c1c(Oc1ccccc1)nn2C (3D coordinates assigned)
Cc1ncn2c1c(Oc1ccccc1)nn2C (optimized conformer: 134.97452819496243 kcal/mol)

>  <smiles>  (26) 
Cc1ncn2c1c(Oc1ccccc1)nn2C

>  <score_type>  (26) 
oracle

>  <origin>  (26) 
adg

>  <m_score__min__energy>  (26) 
-6.1200000000000001

>  <m_primary>  (26) 
energy

$$$$
26:0
     RDKit          3D

 75 80  0  0  0  0  0  0  0  0999 V2000
   59.9070   34.5790   47.2550 O   0  0  0  0  0  0  0  0  0  0  0  0
   60.6870   33.8610   47.8640 C   0  0  0  0  0  0  0  0  0  0  0  0
   61.3960   32.7630   47.0920 C   0  0  2  0  0  0  0  0  0  0  0  0
   60.4970   31.6010   46.6900 C   0  0  0  0  0  0  0  0  0  0  0  0
   59.4410   31.7890   45.9420 N   0  0  0  0  0  0  0  0  0  0  0  0
   58.4890   30.4850   45.3380 S   0  0  0  0  0  0  0  0  0  0  0  0
   57.0310   30.8050   45.5040 O   0  0  0  0  0  0  0  0  0  0  0  0
   58.8100   30.2570   43.8900 O   0  0  0  0  0  0  0  0  0  0  0  0
   58.8970   29.0690   46.2590 C   0  0  0  0  0  0  0  0  0  0  0  0
   58.1390   27.8990   46.1390 C   0  0  0  0  0  0  0  0  0  0  0  0
   58.4940   26.7490   46.8650 C   0  0  0  0  0  0  0  0  0  0  0  0
   57.7650   25.5210   46.7530 N   0  0  0  0  0  0  0  0  0  0  0  0
   56.2060   25.3510   46.0100 S   0  0  0  0  0  0  0  0  0  0  0  0
   55.3910   24.3300   46.7560 O   0  0  0  0  0  0  0  0  0  0  0  0
   55.4980   26.6790   46.0240 O   0  0  0  0  0  0  0  0  0  0  0  0
   56.4230   24.8350   44.3150 C   0  0  0  0  0  0  0  0  0  0  0  0
   57.6270   23.8980   44.1790 C   0  0  0  0  0  0  0  0  0  0  0  0
   57.2810   22.5130   44.6550 C   0  0  0  0  0  0  0  0  0  0  0  0
   56.5440   21.6460   43.8310 C   0  0  0  0  0  0  0  0  0  0  0  0
   56.2420   20.3520   44.2650 C   0  0  0  0  0  0  0  0  0  0  0  0
   56.6750   19.9140   45.5200 C   0  0  0  0  0  0  0  0  0  0  0  0
   57.4140   20.7690   46.3430 C   0  0  0  0  0  0  0  0  0  0  0  0
   57.7230   22.0620   45.9100 C   0  0  0  0  0  0  0  0  0  0  0  0
   59.6050   26.7940   47.7150 C   0  0  0  0  0  0  0  0  0  0  0  0
   60.3700   27.9590   47.8190 C   0  0  0  0  0  0  0  0  0  0  0  0
   60.0240   29.1060   47.0890 C   0  0  0  0  0  0  0  0  0  0  0  0
   60.8440   30.2870   47.1870 N   0  0  0  0  0  0  0  0  0  0  0  0
   62.6430   32.2770   47.7750 C   0  0  0  0  0  0  0  0  0  0  0  0
   63.4200   31.5000   47.1540 O   0  0  0  0  0  0  0  0  0  0  0  0
   63.0020   32.7560   49.0790 N   0  0  0  0  0  0  0  0  0  0  0  0
   64.4160   32.9410   49.4250 C   0  0  0  0  0  0  0  0  0  0  0  0
   64.8910   31.7850   50.2650 C   0  0  0  0  0  0  0  0  0  0  0  0
   63.9740   30.8500   50.7700 C   0  0  0  0  0  0  0  0  0  0  0  0
   64.4230   29.7500   51.5080 C   0  0  0  0  0  0  0  0  0  0  0  0
   65.7910   29.5730   51.7430 C   0  0  0  0  0  0  0  0  0  0  0  0
   66.2250   28.5070   52.4590 F   0  0  0  0  0  0  0  0  0  0  0  0
   66.7120   30.4940   51.2320 C   0  0  0  0  0  0  0  0  0  0  0  0
   66.2640   31.5950   50.4940 C   0  0  0  0  0  0  0  0  0  0  0  0
   61.9510   33.1820   50.0110 C   0  0  2  0  0  0  0  0  0  0  0  0
   61.2530   31.9590   50.6250 C   0  0  0  0  0  0  0  0  0  0  0  0
   60.2140   32.3590   51.6980 C   0  0  0  0  0  0  0  0  0  0  0  0
   59.7340   33.8190   51.5790 C   0  0  0  0  0  0  0  0  0  0  0  0
   59.5960   34.2410   50.1130 C   0  0  0  0  0  0  0  0  0  0  0  0
   60.9400   34.1540   49.3370 C   0  0  2  0  0  0  0  0  0  0  0  0
   61.7010   33.2500   46.1540 H   0  0  0  0  0  0  0  0  0  0  0  0
   59.1670   32.7380   45.6190 H   0  0  0  0  0  0  0  0  0  0  0  0
   57.2626   27.8791   45.4745 H   0  0  0  0  0  0  0  0  0  0  0  0
   55.5172   24.3085   43.9800 H   0  0  0  0  0  0  0  0  0  0  0  0
   56.6000   25.7269   43.6959 H   0  0  0  0  0  0  0  0  0  0  0  0
   57.9304   23.8513   43.1227 H   0  0  0  0  0  0  0  0  0  0  0  0
   58.4497   24.2883   44.7961 H   0  0  0  0  0  0  0  0  0  0  0  0
   56.2038   21.9863   42.8418 H   0  0  0  0  0  0  0  0  0  0  0  0
   55.6626   19.6771   43.6178 H   0  0  0  0  0  0  0  0  0  0  0  0
   56.4341   18.8960   45.8601 H   0  0  0  0  0  0  0  0  0  0  0  0
   57.7524   20.4244   47.3313 H   0  0  0  0  0  0  0  0  0  0  0  0
   58.3145   22.7288   46.5545 H   0  0  0  0  0  0  0  0  0  0  0  0
   59.8779   25.9066   48.3050 H   0  0  0  0  0  0  0  0  0  0  0  0
   61.2503   27.9767   48.4784 H   0  0  0  0  0  0  0  0  0  0  0  0
   61.7360   30.2020   47.7250 H   0  0  0  0  0  0  0  0  0  0  0  0
   65.0138   32.9925   48.5031 H   0  0  0  0  0  0  0  0  0  0  0  0
   64.5314   33.8752   49.9942 H   0  0  0  0  0  0  0  0  0  0  0  0
   62.8979   30.9829   50.5846 H   0  0  0  0  0  0  0  0  0  0  0  0
   63.6993   29.0226   51.9044 H   0  0  0  0  0  0  0  0  0  0  0  0
   67.7882   30.3525   51.4104 H   0  0  0  0  0  0  0  0  0  0  0  0
   66.9907   32.3157   50.0909 H   0  0  0  0  0  0  0  0  0  0  0  0
   62.4252   33.7461   50.8277 H   0  0  0  0  0  0  0  0  0  0  0  0
   60.7409   31.4043   49.8250 H   0  0  0  0  0  0  0  0  0  0  0  0
   62.0210   31.3400   51.1118 H   0  0  0  0  0  0  0  0  0  0  0  0
   59.3410   31.6970   51.6004 H   0  0  0  0  0  0  0  0  0  0  0  0
   60.7068   32.2605   52.6765 H   0  0  0  0  0  0  0  0  0  0  0  0
   58.7563   33.9163   52.0736 H   0  0  0  0  0  0  0  0  0  0  0  0
   60.4793   34.4701   52.0593 H   0  0  0  0  0  0  0  0  0  0  0  0
   58.8636   33.5818   49.6241 H   0  0  0  0  0  0  0  0  0  0  0  0
   59.2699   35.2915   50.0979 H   0  0  0  0  0  0  0  0  0  0  0  0
   61.4320   35.1368   49.3819 H   0  0  0  0  0  0  0  0  0  0  0  0
  1  2  2  0
  2  3  1  0
  3  4  1  0
  4  5  2  0
  5  6  1  0
  6  7  2  0
  6  8  2  0
  6  9  1  0
  9 10  2  0
 10 11  1  0
 11 12  1  0
 12 13  1  0
 13 14  2  0
 13 15  2  0
 13 16  1  0
 16 17  1  0
 17 18  1  0
 18 19  2  0
 19 20  1  0
 20 21  2  0
 21 22  1  0
 22 23  2  0
 11 24  2  0
 24 25  1  0
 25 26  2  0
 26 27  1  0
  3 28  1  0
 28 29  2  0
 28 30  1  0
 30 31  1  0
 31 32  1  0
 32 33  2  0
 33 34  1  0
 34 35  2  0
 35 36  1  0
 35 37  1  0
 37 38  2  0
 30 39  1  0
 39 40  1  0
 40 41  1  0
 41 42  1  0
 42 43  1  0
 43 44  1  0
 44  2  1  0
 27  4  1  0
 38 32  1  0
 44 39  1  0
 26  9  1  0
 23 18  1  0
  3 45  1  6
  5 46  1  0
 10 47  1  0
 16 48  1  0
 16 49  1  0
 17 50  1  0
 17 51  1  0
 19 52  1  0
 20 53  1  0
 21 54  1  0
 22 55  1  0
 23 56  1  0
 24 57  1  0
 25 58  1  0
 27 59  1  0
 31 60  1  0
 31 61  1  0
 33 62  1  0
 34 63  1  0
 37 64  1  0
 38 65  1  0
 39 66  1  1
 40 67  1  0
 40 68  1  0
 41 69  1  0
 41 70  1  0
 42 71  1  0
 42 72  1  0
 43 73  1  0
 43 74  1  0
 44 75  1  6
M  CHG  2   5   1  12  -1
M  END
>  <UniqueID>  (27) 
25

>  <SMILES>  (27) 
O=C1C2CCCC[C@H]2N(Cc2ccc(F)cc2)C(=O)[C@H]1C1=[NH+]S(=O)(=O)c2cc([N-]S(=O)(=O)CCc3ccccc3)ccc2N1

>  <Energy>  (27) 
89.01810137625178

>  <Genealogy>  (27) 
O=C1C(C2=[NH+]S(=O)(=O)c3cc([N-]S(=O)(=O)CCc4ccccc4)ccc3N2)C(=O)N(Cc2ccc(F)cc2)C2CCCCC12 (protonated)
O=C1C2CCCC[C@H]2N(Cc2ccc(F)cc2)C(=O)[C@H]1C1=[NH+]S(=O)(=O)c2cc([N-]S(=O)(=O)CCc3ccccc3)ccc2N1 (chirality)
O=C1C2CCCC[C@H]2N(Cc2ccc(F)cc2)C(=O)[C@H]1C1=[NH+]S(=O)(=O)c2cc([N-]S(=O)(=O)CCc3ccccc3)ccc2N1 (3D coordinates assigned)
O=C1C2CCCC[C@H]2N(Cc2ccc(F)cc2)C(=O)[C@H]1C1=[NH+]S(=O)(=O)c2cc([N-]S(=O)(=O)CCc3ccccc3)ccc2N1 (nonaromatic ring conformer: 89.01810137625178 kcal/mol)

>  <smiles>  (27) 
O=C1C(C2=NS(=O)(=O)c3cc(NS(=O)(=O)CCc4ccccc4)ccc3N2)C(=O)N(Cc2ccc(F)cc2)C2CCCCC12

>  <score_type>  (27) 
oracle

>  <origin>  (27) 
adg

>  <m_score__min__energy>  (27) 
-10.960000000000001

>  <m_primary>  (27) 
energy

$$$$
27:0
     RDKit          3D

 49 51  0  0  0  0  0  0  0  0999 V2000
   54.3560   22.5340   49.3990 C   0  0  0  0  0  0  0  0  0  0  0  0
   54.7520   22.1150   48.0610 N   0  0  0  0  0  0  0  0  0  0  0  0
   56.1230   21.9140   47.7060 C   0  0  0  0  0  0  0  0  0  0  0  0
   57.0350   22.1020   48.5570 O   0  0  0  0  0  0  0  0  0  0  0  0
   56.4510   21.5010   46.3780 N   0  0  0  0  0  0  0  0  0  0  0  0
   55.7020   22.1940   44.9790 S   0  0  0  0  0  0  0  0  0  0  0  0
   54.2270   22.3400   45.2340 O   0  0  0  0  0  0  0  0  0  0  0  0
   55.9060   21.2810   43.8030 O   0  0  0  0  0  0  0  0  0  0  0  0
   56.4340   23.7560   44.6270 C   0  0  0  0  0  0  0  0  0  0  0  0
   57.0220   24.0050   43.3800 C   0  0  0  0  0  0  0  0  0  0  0  0
   57.6100   25.2440   43.1180 C   0  0  0  0  0  0  0  0  0  0  0  0
   57.6140   26.2410   44.0980 C   0  0  0  0  0  0  0  0  0  0  0  0
   57.0200   26.0060   45.3470 C   0  0  0  0  0  0  0  0  0  0  0  0
   57.0730   27.0540   46.4230 C   0  0  0  0  0  0  0  0  0  0  0  0
   57.4440   28.3440   45.8440 N   0  0  0  0  0  0  0  0  0  0  0  0
   56.6460   29.2090   45.1970 C   0  0  0  0  0  0  0  0  0  0  0  0
   55.3090   28.9810   44.8940 O   0  0  0  0  0  0  0  0  0  0  0  0
   57.3620   30.3510   44.9090 C   0  0  0  0  0  0  0  0  0  0  0  0
   56.8310   31.5940   44.2670 C   0  0  0  0  0  0  0  0  0  0  0  0
   56.6340   32.6940   45.3120 C   0  0  0  0  0  0  0  0  0  0  0  0
   57.9570   33.1150   45.8930 C   0  0  0  0  0  0  0  0  0  0  0  0
   58.2580   32.8470   47.2390 C   0  0  0  0  0  0  0  0  0  0  0  0
   59.4750   33.2660   47.7860 C   0  0  0  0  0  0  0  0  0  0  0  0
   60.3950   33.9610   46.9960 C   0  0  0  0  0  0  0  0  0  0  0  0
   60.0980   34.2420   45.6600 C   0  0  0  0  0  0  0  0  0  0  0  0
   58.8810   33.8260   45.1090 C   0  0  0  0  0  0  0  0  0  0  0  0
   58.6150   30.2300   45.4010 N   0  0  0  0  0  0  0  0  0  0  0  0
   58.6200   28.9980   45.9580 C   0  0  0  0  0  0  0  0  0  0  0  0
   59.6270   28.5180   46.5410 O   0  0  0  0  0  0  0  0  0  0  0  0
   56.4370   24.7550   45.6090 C   0  0  0  0  0  0  0  0  0  0  0  0
   54.9105   21.9472   50.1461 H   0  0  0  0  0  0  0  0  0  0  0  0
   54.5820   23.6025   49.5305 H   0  0  0  0  0  0  0  0  0  0  0  0
   53.2765   22.3686   49.5305 H   0  0  0  0  0  0  0  0  0  0  0  0
   54.0120   21.9480   47.3430 H   0  0  0  0  0  0  0  0  0  0  0  0
   57.0204   23.2232   42.6062 H   0  0  0  0  0  0  0  0  0  0  0  0
   58.0713   25.4361   42.1380 H   0  0  0  0  0  0  0  0  0  0  0  0
   58.0845   27.2131   43.8890 H   0  0  0  0  0  0  0  0  0  0  0  0
   56.0848   27.1385   46.8987 H   0  0  0  0  0  0  0  0  0  0  0  0
   57.8236   26.7648   47.1733 H   0  0  0  0  0  0  0  0  0  0  0  0
   57.5448   31.9415   43.5056 H   0  0  0  0  0  0  0  0  0  0  0  0
   55.8605   31.3675   43.8013 H   0  0  0  0  0  0  0  0  0  0  0  0
   56.1549   33.5627   44.8367 H   0  0  0  0  0  0  0  0  0  0  0  0
   55.9987   32.3049   46.1213 H   0  0  0  0  0  0  0  0  0  0  0  0
   57.5335   32.3055   47.8650 H   0  0  0  0  0  0  0  0  0  0  0  0
   59.7083   33.0484   48.8387 H   0  0  0  0  0  0  0  0  0  0  0  0
   61.3534   34.2869   47.4263 H   0  0  0  0  0  0  0  0  0  0  0  0
   60.8221   34.7912   45.0403 H   0  0  0  0  0  0  0  0  0  0  0  0
   58.6470   34.0562   44.0591 H   0  0  0  0  0  0  0  0  0  0  0  0
   55.9805   24.5589   46.5904 H   0  0  0  0  0  0  0  0  0  0  0  0
  1  2  1  0
  2  3  1  0
  3  4  2  0
  3  5  1  0
  5  6  1  0
  6  7  2  0
  6  8  2  0
  6  9  1  0
  9 10  2  0
 10 11  1  0
 11 12  2  0
 12 13  1  0
 13 14  1  0
 14 15  1  0
 15 16  1  0
 16 17  1  0
 16 18  2  0
 18 19  1  0
 19 20  1  0
 20 21  1  0
 21 22  2  0
 22 23  1  0
 23 24  2  0
 24 25  1  0
 25 26  2  0
 18 27  1  0
 27 28  1  0
 28 29  2  0
 13 30  2  0
 30  9  1  0
 28 15  1  0
 26 21  1  0
  1 31  1  0
  1 32  1  0
  1 33  1  0
  2 34  1  0
 10 35  1  0
 11 36  1  0
 12 37  1  0
 14 38  1  0
 14 39  1  0
 19 40  1  0
 19 41  1  0
 20 42  1  0
 20 43  1  0
 22 44  1  0
 23 45  1  0
 24 46  1  0
 25 47  1  0
 26 48  1  0
 30 49  1  0
M  CHG  3   5  -1  17  -1  27  -1
M  END
>  <UniqueID>  (28) 
26

>  <SMILES>  (28) 
CNC(=O)[N-]S(=O)(=O)c1cccc(Cn2c([O-])c(CCc3ccccc3)[n-]c2=O)c1

>  <Energy>  (28) 
76.06561422109692

>  <Genealogy>  (28) 
CNC(=O)[N-]S(=O)(=O)c1cccc(Cn2c([O-])c(CCc3ccccc3)[n-]c2=O)c1 (protonated)
CNC(=O)[N-]S(=O)(=O)c1cccc(Cn2c([O-])c(CCc3ccccc3)[n-]c2=O)c1 (3D coordinates assigned)
CNC(=O)[N-]S(=O)(=O)c1cccc(Cn2c([O-])c(CCc3ccccc3)[n-]c2=O)c1 (optimized conformer: 76.06561422109692 kcal/mol)

>  <smiles>  (28) 
CNC(=O)NS(=O)(=O)c1cccc(Cn2c(O)c(CCc3ccccc3)[nH]c2=O)c1

>  <score_type>  (28) 
oracle

>  <origin>  (28) 
adg

>  <m_score__min__energy>  (28) 
-14.24

>  <m_primary>  (28) 
energy

$$$$
28:0
     RDKit          3D

 18 19  0  0  0  0  0  0  0  0999 V2000
   53.9060   29.7680   53.4920 H   0  0  0  0  0  0  0  0  0  0  0  0
   53.0980   29.6280   52.8430 N   0  0  0  0  0  0  0  0  0  0  0  0
   52.3270   30.6020   52.4650 C   0  0  0  0  0  0  0  0  0  0  0  0
   52.2770   30.9750   51.1130 C   0  0  0  0  0  0  0  0  0  0  0  0
   52.8915   30.4432   50.3717 H   0  0  0  0  0  0  0  0  0  0  0  0
   51.4470   32.0210   50.7110 C   0  0  0  0  0  0  0  0  0  0  0  0
   51.4076   32.3134   49.6513 H   0  0  0  0  0  0  0  0  0  0  0  0
   50.6870   32.6800   51.6240 N   0  0  0  0  0  0  0  0  0  0  0  0
   50.7040   32.3510   52.9440 C   0  0  0  0  0  0  0  0  0  0  0  0
   49.9040   33.0600   53.8460 C   0  0  0  0  0  0  0  0  0  0  0  0
   49.2642   33.8791   53.4859 H   0  0  0  0  0  0  0  0  0  0  0  0
   49.9160   32.7300   55.2030 C   0  0  0  0  0  0  0  0  0  0  0  0
   49.2859   33.2905   55.9093 H   0  0  0  0  0  0  0  0  0  0  0  0
   50.7260   31.6900   55.6660 C   0  0  0  0  0  0  0  0  0  0  0  0
   50.7299   31.4327   56.7355 H   0  0  0  0  0  0  0  0  0  0  0  0
   51.5320   30.9750   54.7740 C   0  0  0  0  0  0  0  0  0  0  0  0
   52.1692   30.1588   55.1451 H   0  0  0  0  0  0  0  0  0  0  0  0
   51.5310   31.2960   53.4020 C   0  0  0  0  0  0  0  0  0  0  0  0
  1  2  1  0
  2  3  2  0
  3  4  1  0
  4  5  1  0
  4  6  2  0
  6  7  1  0
  6  8  1  0
  8  9  1  0
  9 10  2  0
 10 11  1  0
 10 12  1  0
 12 13  1  0
 12 14  2  0
 14 15  1  0
 14 16  1  0
 16 17  1  0
 16 18  2  0
 18  3  1  0
 18  9  1  0
M  CHG  1   8  -1
M  END
>  <UniqueID>  (29) 
27

>  <SMILES>  (29) 
[H]/N=c1\cc[n-]c2ccccc12

>  <Energy>  (29) 
24.176146668587094

>  <Genealogy>  (29) 
N=c1cc[n-]c2ccccc12 (protonated)
[H]/N=c1\cc[n-]c2ccccc12 (cis-trans isomerization)
[H]/N=c1\cc[n-]c2ccccc12 (3D coordinates assigned)
[H]/N=c1\cc[n-]c2ccccc12 (optimized conformer: 24.176146668587094 kcal/mol)

>  <smiles>  (29) 
N=c1cc[nH]c2ccccc12

>  <score_type>  (29) 
oracle

>  <origin>  (29) 
adg

>  <m_score__min__energy>  (29) 
-7.6699999999999999

>  <m_primary>  (29) 
energy

$$$$
29:0
     RDKit          3D

 47 50  0  0  0  0  0  0  0  0999 V2000
   55.1050   29.3950   45.2140 O   0  0  0  0  0  0  0  0  0  0  0  0
   56.3380   29.3810   44.9510 C   0  0  0  0  0  0  0  0  0  0  0  0
   56.9660   30.5610   44.4280 N   0  0  0  0  0  0  0  0  0  0  0  0
   57.7690   31.4990   45.1570 C   0  0  0  0  0  0  0  0  0  0  0  0
   58.2610   32.6780   44.5680 C   0  0  0  0  0  0  0  0  0  0  0  0
   59.0280   33.5740   45.3190 C   0  0  0  0  0  0  0  0  0  0  0  0
   59.2990   33.3140   46.6720 C   0  0  0  0  0  0  0  0  0  0  0  0
   60.1520   34.2580   47.4790 C   0  0  0  0  0  0  0  0  0  0  0  0
   61.4590   33.6410   47.7870 N   0  0  0  0  0  0  0  0  0  0  0  0
   62.4120   33.8140   46.6670 C   0  0  0  0  0  0  0  0  0  0  0  0
   63.8490   33.4610   47.1000 C   0  0  0  0  0  0  0  0  0  0  0  0
   63.8420   32.7200   48.3030 O   0  0  0  0  0  0  0  0  0  0  0  0
   63.3640   33.5320   49.3610 C   0  0  0  0  0  0  0  0  0  0  0  0
   62.0230   34.2170   49.0190 C   0  0  0  0  0  0  0  0  0  0  0  0
   58.7930   32.1460   47.2620 C   0  0  0  0  0  0  0  0  0  0  0  0
   58.0240   31.2530   46.5110 C   0  0  0  0  0  0  0  0  0  0  0  0
   57.1320   28.1340   45.1270 C   0  0  0  0  0  0  0  0  0  0  0  0
   58.5250   28.1690   44.9230 C   0  0  0  0  0  0  0  0  0  0  0  0
   59.3020   27.0220   45.0810 C   0  0  0  0  0  0  0  0  0  0  0  0
   58.7100   25.8090   45.4460 C   0  0  0  0  0  0  0  0  0  0  0  0
   59.4940   24.6570   45.6060 C   0  0  0  0  0  0  0  0  0  0  0  0
   58.8990   23.4470   45.9740 C   0  0  0  0  0  0  0  0  0  0  0  0
   57.5210   23.3800   46.1850 C   0  0  0  0  0  0  0  0  0  0  0  0
   56.7280   24.5200   46.0300 C   0  0  0  0  0  0  0  0  0  0  0  0
   57.3110   25.7480   45.6600 C   0  0  0  0  0  0  0  0  0  0  0  0
   56.5270   26.9100   45.4990 C   0  0  0  0  0  0  0  0  0  0  0  0
   55.1520   26.8410   45.7130 O   0  0  0  0  0  0  0  0  0  0  0  0
   58.0414   32.8959   43.5124 H   0  0  0  0  0  0  0  0  0  0  0  0
   59.4210   34.4869   44.8476 H   0  0  0  0  0  0  0  0  0  0  0  0
   60.3143   35.1811   46.9032 H   0  0  0  0  0  0  0  0  0  0  0  0
   59.6351   34.4854   48.4230 H   0  0  0  0  0  0  0  0  0  0  0  0
   62.1148   33.1553   45.8377 H   0  0  0  0  0  0  0  0  0  0  0  0
   62.3916   34.8675   46.3511 H   0  0  0  0  0  0  0  0  0  0  0  0
   64.3270   32.8626   46.3104 H   0  0  0  0  0  0  0  0  0  0  0  0
   64.4076   34.3944   47.2636 H   0  0  0  0  0  0  0  0  0  0  0  0
   63.2220   32.9032   50.2523 H   0  0  0  0  0  0  0  0  0  0  0  0
   64.1080   34.3224   49.5391 H   0  0  0  0  0  0  0  0  0  0  0  0
   61.3158   34.0660   49.8479 H   0  0  0  0  0  0  0  0  0  0  0  0
   62.1973   35.2923   48.8661 H   0  0  0  0  0  0  0  0  0  0  0  0
   59.0025   31.9322   48.3205 H   0  0  0  0  0  0  0  0  0  0  0  0
   57.6159   30.3496   46.9878 H   0  0  0  0  0  0  0  0  0  0  0  0
   59.0071   29.1148   44.6349 H   0  0  0  0  0  0  0  0  0  0  0  0
   60.3886   27.0718   44.9173 H   0  0  0  0  0  0  0  0  0  0  0  0
   60.5805   24.7060   45.4413 H   0  0  0  0  0  0  0  0  0  0  0  0
   59.5178   22.5460   46.0975 H   0  0  0  0  0  0  0  0  0  0  0  0
   57.0572   22.4255   46.4746 H   0  0  0  0  0  0  0  0  0  0  0  0
   55.6426   24.4583   46.1978 H   0  0  0  0  0  0  0  0  0  0  0  0
  1  2  2  0
  2  3  1  0
  3  4  1  0
  4  5  2  0
  5  6  1  0
  6  7  2  0
  7  8  1  0
  8  9  1  0
  9 10  1  0
 10 11  1  0
 11 12  1  0
 12 13  1  0
 13 14  1  0
  7 15  1  0
 15 16  2  0
  2 17  1  0
 17 18  2  0
 18 19  1  0
 19 20  2  0
 20 21  1  0
 21 22  2  0
 22 23  1  0
 23 24  2  0
 24 25  1  0
 25 26  2  0
 26 27  1  0
 16  4  1  0
 26 17  1  0
 14  9  1  0
 25 20  1  0
  5 28  1  0
  6 29  1  0
  8 30  1  0
  8 31  1  0
 10 32  1  0
 10 33  1  0
 11 34  1  0
 11 35  1  0
 13 36  1  0
 13 37  1  0
 14 38  1  0
 14 39  1  0
 15 40  1  0
 16 41  1  0
 18 42  1  0
 19 43  1  0
 21 44  1  0
 22 45  1  0
 23 46  1  0
 24 47  1  0
M  CHG  2   3  -1  27  -1
M  END
>  <UniqueID>  (30) 
28

>  <SMILES>  (30) 
O=C([N-]c1ccc(CN2CCOCC2)cc1)c1ccc2ccccc2c1[O-]

>  <Energy>  (30) 
69.9177157331063

>  <Genealogy>  (30) 
O=C([N-]c1ccc(CN2CCOCC2)cc1)c1ccc2ccccc2c1[O-] (protonated)
O=C([N-]c1ccc(CN2CCOCC2)cc1)c1ccc2ccccc2c1[O-] (3D coordinates assigned)
O=C([N-]c1ccc(CN2CCOCC2)cc1)c1ccc2ccccc2c1[O-] (nonaromatic ring conformer: 69.9177157331063 kcal/mol)

>  <smiles>  (30) 
O=C(Nc1ccc(CN2CCOCC2)cc1)c1ccc2ccccc2c1O

>  <score_type>  (30) 
oracle

>  <origin>  (30) 
adg

>  <m_score__min__energy>  (30) 
-14.109999999999999

>  <m_primary>  (30) 
energy

$$$$
30:0
     RDKit          3D

 75 78  0  0  0  0  0  0  0  0999 V2000
   60.9760   28.5200   51.6030 C   0  0  0  0  0  0  0  0  0  0  0  0
   61.4170   29.2120   50.3080 C   0  0  2  0  0  0  0  0  0  0  0  0
   61.5650   30.7020   50.5240 C   0  0  0  0  0  0  0  0  0  0  0  0
   62.6290   31.2950   50.1930 O   0  0  0  0  0  0  0  0  0  0  0  0
   60.4870   31.4440   51.1170 N   0  0  0  0  0  0  0  0  0  0  0  0
   60.3980   32.9080   51.0450 C   0  0  1  0  0  0  0  0  0  0  0  0
   60.1350   33.3590   49.5970 C   0  0  0  0  0  0  0  0  0  0  0  0
   61.4020   33.4450   48.7800 C   0  0  0  0  0  0  0  0  0  0  0  0
   62.5120   34.2080   49.0850 C   0  0  0  0  0  0  0  0  0  0  0  0
   63.4270   34.0830   48.1040 N   0  0  0  0  0  0  0  0  0  0  0  0
   62.8490   33.2560   47.2080 C   0  0  0  0  0  0  0  0  0  0  0  0
   61.6130   32.8660   47.5790 N   0  0  0  0  0  0  0  0  0  0  0  0
   60.7300   31.9830   46.8140 C   0  0  0  0  0  0  0  0  0  0  0  0
   59.5880   32.7650   46.2230 C   0  0  0  0  0  0  0  0  0  0  0  0
   59.8180   34.0380   45.6760 C   0  0  0  0  0  0  0  0  0  0  0  0
   58.7650   34.7620   45.1070 C   0  0  0  0  0  0  0  0  0  0  0  0
   57.4780   34.2190   45.0770 C   0  0  0  0  0  0  0  0  0  0  0  0
   57.2410   32.9530   45.6200 C   0  0  0  0  0  0  0  0  0  0  0  0
   58.2900   32.2260   46.1910 C   0  0  0  0  0  0  0  0  0  0  0  0
   59.2990   33.4080   51.9420 C   0  0  0  0  0  0  0  0  0  0  0  0
   58.8910   34.5970   51.8340 O   0  0  0  0  0  0  0  0  0  0  0  0
   58.7090   32.5030   52.8900 N   0  0  0  0  0  0  0  0  0  0  0  0
   57.8420   31.5460   52.6920 C   0  0  0  0  0  0  0  0  0  0  0  0
   56.5590   31.7600   52.1460 C   0  0  0  0  0  0  0  0  0  0  0  0
   55.6930   30.6760   51.9760 C   0  0  0  0  0  0  0  0  0  0  0  0
   56.0770   29.4260   52.3480 N   0  0  0  0  0  0  0  0  0  0  0  0
   57.2990   29.1920   52.8940 C   0  0  0  0  0  0  0  0  0  0  0  0
   58.1970   30.2460   53.0800 C   0  0  0  0  0  0  0  0  0  0  0  0
   60.4650   28.8760   49.1740 C   0  0  0  0  0  0  0  0  0  0  0  0
   59.4070   29.7410   48.8350 C   0  0  0  0  0  0  0  0  0  0  0  0
   58.5300   29.4180   47.7980 C   0  0  0  0  0  0  0  0  0  0  0  0
   58.6920   28.2250   47.0760 C   0  0  0  0  0  0  0  0  0  0  0  0
   57.7410   27.8770   45.9520 C   0  0  0  0  0  0  0  0  0  0  0  0
   58.0680   28.5680   44.5940 C   0  0  0  0  0  0  0  0  0  0  0  0
   59.4240   29.3000   44.6610 C   0  0  0  0  0  0  0  0  0  0  0  0
   56.9620   29.5720   44.2040 C   0  0  0  0  0  0  0  0  0  0  0  0
   58.1500   27.4790   43.5030 C   0  0  0  0  0  0  0  0  0  0  0  0
   59.7420   27.3570   47.4150 C   0  0  0  0  0  0  0  0  0  0  0  0
   60.6220   27.6810   48.4510 C   0  0  0  0  0  0  0  0  0  0  0  0
   61.3413   29.0933   52.4678 H   0  0  0  0  0  0  0  0  0  0  0  0
   59.8777   28.4678   51.6352 H   0  0  0  0  0  0  0  0  0  0  0  0
   61.3925   27.5024   51.6352 H   0  0  0  0  0  0  0  0  0  0  0  0
   62.4077   28.8333   50.0162 H   0  0  0  0  0  0  0  0  0  0  0  0
   59.6690   30.9170   51.5000 H   0  0  0  0  0  0  0  0  0  0  0  0
   61.3560   33.3313   51.3814 H   0  0  0  0  0  0  0  0  0  0  0  0
   59.4559   32.6368   49.1202 H   0  0  0  0  0  0  0  0  0  0  0  0
   59.6924   34.3653   49.6351 H   0  0  0  0  0  0  0  0  0  0  0  0
   62.6307   34.8229   49.9893 H   0  0  0  0  0  0  0  0  0  0  0  0
   63.3344   32.9345   46.2747 H   0  0  0  0  0  0  0  0  0  0  0  0
   61.3039   31.5110   46.0029 H   0  0  0  0  0  0  0  0  0  0  0  0
   60.3243   31.2140   47.4878 H   0  0  0  0  0  0  0  0  0  0  0  0
   60.8305   34.4675   45.6951 H   0  0  0  0  0  0  0  0  0  0  0  0
   58.9504   35.7598   44.6828 H   0  0  0  0  0  0  0  0  0  0  0  0
   56.6514   34.7877   44.6261 H   0  0  0  0  0  0  0  0  0  0  0  0
   56.2268   32.5276   45.5980 H   0  0  0  0  0  0  0  0  0  0  0  0
   58.0991   31.2297   46.6163 H   0  0  0  0  0  0  0  0  0  0  0  0
   56.2423   32.7727   51.8561 H   0  0  0  0  0  0  0  0  0  0  0  0
   54.6961   30.8351   51.5392 H   0  0  0  0  0  0  0  0  0  0  0  0
   57.5817   28.1710   53.1901 H   0  0  0  0  0  0  0  0  0  0  0  0
   59.1823   30.0562   53.5307 H   0  0  0  0  0  0  0  0  0  0  0  0
   59.2703   30.6795   49.3922 H   0  0  0  0  0  0  0  0  0  0  0  0
   57.7069   30.1025   47.5451 H   0  0  0  0  0  0  0  0  0  0  0  0
   57.7720   26.7880   45.8000 H   0  0  0  0  0  0  0  0  0  0  0  0
   56.7484   28.2396   46.2574 H   0  0  0  0  0  0  0  0  0  0  0  0
   59.7067   29.4526   45.7130 H   0  0  0  0  0  0  0  0  0  0  0  0
   60.1928   28.6944   44.1589 H   0  0  0  0  0  0  0  0  0  0  0  0
   59.3395   30.2751   44.1589 H   0  0  0  0  0  0  0  0  0  0  0  0
   56.5053   29.9866   45.1148 H   0  0  0  0  0  0  0  0  0  0  0  0
   57.4000   30.3874   43.6096 H   0  0  0  0  0  0  0  0  0  0  0  0
   56.1926   29.0574   43.6096 H   0  0  0  0  0  0  0  0  0  0  0  0
   58.2245   26.4894   43.9776 H   0  0  0  0  0  0  0  0  0  0  0  0
   57.2464   27.5183   42.8770 H   0  0  0  0  0  0  0  0  0  0  0  0
   59.0376   27.6532   42.8770 H   0  0  0  0  0  0  0  0  0  0  0  0
   59.8729   26.4155   46.8614 H   0  0  0  0  0  0  0  0  0  0  0  0
   61.4443   26.9952   48.7027 H   0  0  0  0  0  0  0  0  0  0  0  0
  1  2  1  0
  2  3  1  0
  3  4  2  0
  3  5  1  0
  5  6  1  0
  6  7  1  0
  7  8  1  0
  8  9  2  0
  9 10  1  0
 10 11  2  0
 11 12  1  0
 12 13  1  0
 13 14  1  0
 14 15  2  0
 15 16  1  0
 16 17  2  0
 17 18  1  0
 18 19  2  0
  6 20  1  0
 20 21  2  0
 20 22  1  0
 22 23  2  3
 23 24  1  0
 24 25  2  0
 25 26  1  0
 26 27  1  0
 27 28  2  0
  2 29  1  0
 29 30  2  0
 30 31  1  0
 31 32  2  0
 32 33  1  0
 33 34  1  0
 34 35  1  0
 34 36  1  0
 34 37  1  0
 32 38  1  0
 38 39  2  0
 12  8  1  0
 19 14  1  0
 28 23  1  0
 39 29  1  0
  1 40  1  0
  1 41  1  0
  1 42  1  0
  2 43  1  6
  5 44  1  0
  6 45  1  1
  7 46  1  0
  7 47  1  0
  9 48  1  0
 11 49  1  0
 13 50  1  0
 13 51  1  0
 15 52  1  0
 16 53  1  0
 17 54  1  0
 18 55  1  0
 19 56  1  0
 24 57  1  0
 25 58  1  0
 27 59  1  0
 28 60  1  0
 30 61  1  0
 31 62  1  0
 33 63  1  0
 33 64  1  0
 35 65  1  0
 35 66  1  0
 35 67  1  0
 36 68  1  0
 36 69  1  0
 36 70  1  0
 37 71  1  0
 37 72  1  0
 37 73  1  0
 38 74  1  0
 39 75  1  0
M  CHG  1  26  -1
M  END
>  <UniqueID>  (31) 
29

>  <SMILES>  (31) 
C[C@H](C(=O)N[C@@H](Cc1cncn1Cc1ccccc1)C(=O)N=c1cc[n-]cc1)c1ccc(CC(C)(C)C)cc1

>  <Energy>  (31) 
102.3466038518843

>  <Genealogy>  (31) 
CC(C(=O)NC(Cc1cncn1Cc1ccccc1)C(=O)N=c1cc[n-]cc1)c1ccc(CC(C)(C)C)cc1 (protonated)
C[C@H](C(=O)N[C@@H](Cc1cncn1Cc1ccccc1)C(=O)N=c1cc[n-]cc1)c1ccc(CC(C)(C)C)cc1 (chirality)
C[C@H](C(=O)N[C@@H](Cc1cncn1Cc1ccccc1)C(=O)N=c1cc[n-]cc1)c1ccc(CC(C)(C)C)cc1 (3D coordinates assigned)
C[C@H](C(=O)N[C@@H](Cc1cncn1Cc1ccccc1)C(=O)N=c1cc[n-]cc1)c1ccc(CC(C)(C)C)cc1 (optimized conformer: 102.3466038518843 kcal/mol)

>  <smiles>  (31) 
CC(C(=O)NC(Cc1cncn1Cc1ccccc1)C(=O)N=c1cc[nH]cc1)c1ccc(CC(C)(C)C)cc1

>  <score_type>  (31) 
oracle

>  <origin>  (31) 
adg

>  <m_score__min__energy>  (31) 
-11.31

>  <m_primary>  (31) 
energy

$$$$
31:0
     RDKit          3D

 37 38  0  0  0  0  0  0  0  0999 V2000
   60.8480   34.1930   47.6300 C   0  0  0  0  0  0  0  0  0  0  0  0
   59.7430   33.6220   47.1260 C   0  0  0  0  0  0  0  0  0  0  0  0
   58.6060   34.4770   46.6290 C   0  0  0  0  0  0  0  0  0  0  0  0
   57.9270   33.8450   45.4500 C   0  0  0  0  0  0  0  0  0  0  0  0
   57.2280   34.5720   44.6930 O   0  0  0  0  0  0  0  0  0  0  0  0
   58.0250   32.3860   45.1980 C   0  0  0  0  0  0  0  0  0  0  0  0
   57.3500   31.8060   44.1080 C   0  0  0  0  0  0  0  0  0  0  0  0
   57.4450   30.4360   43.8630 C   0  0  0  0  0  0  0  0  0  0  0  0
   58.2040   29.6150   44.7080 C   0  0  0  0  0  0  0  0  0  0  0  0
   58.3390   28.1420   44.4150 C   0  0  0  0  0  0  0  0  0  0  0  0
   57.7270   27.2860   45.5460 C   0  0  1  0  0  0  0  0  0  0  0  0
   58.3380   27.6090   46.8420 N   0  0  0  0  0  0  0  0  0  0  0  0
   59.6870   27.2710   47.2010 C   0  0  0  0  0  0  0  0  0  0  0  0
   60.1580   27.4870   48.6020 C   0  0  0  0  0  0  0  0  0  0  0  0
   60.4720   26.7710   46.3510 O   0  0  0  0  0  0  0  0  0  0  0  0
   56.2250   27.4190   45.6220 C   0  0  0  0  0  0  0  0  0  0  0  0
   55.5220   26.5080   46.1330 O   0  0  0  0  0  0  0  0  0  0  0  0
   55.6130   28.5950   45.2030 O   0  0  0  0  0  0  0  0  0  0  0  0
   58.8820   30.1870   45.7950 C   0  0  0  0  0  0  0  0  0  0  0  0
   58.8130   31.5680   46.0390 C   0  0  0  0  0  0  0  0  0  0  0  0
   59.5390   32.1300   47.2370 C   0  0  0  0  0  0  0  0  0  0  0  0
   61.6755   33.5650   47.9916 H   0  0  0  0  0  0  0  0  0  0  0  0
   60.9262   35.2890   47.6815 H   0  0  0  0  0  0  0  0  0  0  0  0
   57.8729   34.6053   47.4390 H   0  0  0  0  0  0  0  0  0  0  0  0
   59.0128   35.4500   46.3163 H   0  0  0  0  0  0  0  0  0  0  0  0
   56.7424   32.4381   43.4437 H   0  0  0  0  0  0  0  0  0  0  0  0
   56.9209   29.9973   43.0011 H   0  0  0  0  0  0  0  0  0  0  0  0
   57.8191   27.9151   43.4726 H   0  0  0  0  0  0  0  0  0  0  0  0
   59.4093   27.9003   44.3372 H   0  0  0  0  0  0  0  0  0  0  0  0
   57.9493   26.2367   45.3019 H   0  0  0  0  0  0  0  0  0  0  0  0
   57.7390   28.0790   47.5580 H   0  0  0  0  0  0  0  0  0  0  0  0
   59.3895   27.1345   49.3057 H   0  0  0  0  0  0  0  0  0  0  0  0
   61.0901   26.9264   48.7660 H   0  0  0  0  0  0  0  0  0  0  0  0
   60.3413   28.5591   48.7660 H   0  0  0  0  0  0  0  0  0  0  0  0
   59.4747   29.5459   46.4641 H   0  0  0  0  0  0  0  0  0  0  0  0
   58.9492   31.9185   48.1411 H   0  0  0  0  0  0  0  0  0  0  0  0
   60.5296   31.6545   47.2879 H   0  0  0  0  0  0  0  0  0  0  0  0
  1  2  2  0
  2  3  1  0
  3  4  1  0
  4  5  2  0
  4  6  1  0
  6  7  2  0
  7  8  1  0
  8  9  2  0
  9 10  1  0
 10 11  1  0
 11 12  1  0
 12 13  1  0
 13 14  1  0
 13 15  2  0
 11 16  1  0
 16 17  2  0
 16 18  1  0
  9 19  1  0
 19 20  2  0
 20 21  1  0
 21  2  1  0
 20  6  1  0
  1 22  1  0
  1 23  1  0
  3 24  1  0
  3 25  1  0
  7 26  1  0
  8 27  1  0
 10 28  1  0
 10 29  1  0
 11 30  1  6
 12 31  1  0
 14 32  1  0
 14 33  1  0
 14 34  1  0
 19 35  1  0
 21 36  1  0
 21 37  1  0
M  CHG  1  18  -1
M  END
>  <UniqueID>  (32) 
30

>  <SMILES>  (32) 
C=C1CC(=O)c2ccc(C[C@@H](NC(C)=O)C(=O)[O-])cc2C1

>  <Energy>  (32) 
33.63806839918743

>  <Genealogy>  (32) 
C=C1CC(=O)c2ccc(CC(NC(C)=O)C(=O)[O-])cc2C1 (protonated)
C=C1CC(=O)c2ccc(C[C@@H](NC(C)=O)C(=O)[O-])cc2C1 (chirality)
C=C1CC(=O)c2ccc(C[C@@H](NC(C)=O)C(=O)[O-])cc2C1 (3D coordinates assigned)
C=C1CC(=O)c2ccc(C[C@@H](NC(C)=O)C(=O)[O-])cc2C1 (nonaromatic ring conformer: 33.63806839918743 kcal/mol)

>  <smiles>  (32) 
C=C1CC(=O)c2ccc(CC(NC(C)=O)C(=O)O)cc2C1

>  <score_type>  (32) 
oracle

>  <origin>  (32) 
adg

>  <m_score__min__energy>  (32) 
-10.52

>  <m_primary>  (32) 
energy

$$$$
32:0
     RDKit          3D

 53 56  0  0  0  0  0  0  0  0999 V2000
   56.8037   21.5462   42.9703 H   0  0  0  0  0  0  0  0  0  0  0  0
   56.5640   22.4400   43.5650 C   0  0  0  0  0  0  0  0  0  0  0  0
   55.2610   22.9440   43.5750 C   0  0  0  0  0  0  0  0  0  0  0  0
   54.4729   22.4420   42.9945 H   0  0  0  0  0  0  0  0  0  0  0  0
   54.9580   24.0870   44.3230 C   0  0  0  0  0  0  0  0  0  0  0  0
   53.9272   24.4706   44.3409 H   0  0  0  0  0  0  0  0  0  0  0  0
   55.9580   24.7460   45.0490 C   0  0  0  0  0  0  0  0  0  0  0  0
   55.5980   25.8980   45.8290 N   0  0  0  0  0  0  0  0  0  0  0  0
   56.3020   26.9790   45.9980 C   0  0  0  0  0  0  0  0  0  0  0  0
   55.9520   28.1520   45.4050 N   0  0  0  0  0  0  0  0  0  0  0  0
   56.6770   29.2780   45.6200 C   0  0  0  0  0  0  0  0  0  0  0  0
   56.3390   30.3760   45.0090 N   0  0  0  0  0  0  0  0  0  0  0  0
   57.1670   31.5350   44.7960 C   0  0  0  0  0  0  0  0  0  0  0  0
   57.6300   32.2990   45.8850 C   0  0  0  0  0  0  0  0  0  0  0  0
   57.3613   32.0056   46.9105 H   0  0  0  0  0  0  0  0  0  0  0  0
   58.4260   33.4240   45.6740 C   0  0  0  0  0  0  0  0  0  0  0  0
   58.7953   34.0037   46.5329 H   0  0  0  0  0  0  0  0  0  0  0  0
   58.7550   33.8160   44.3780 C   0  0  0  0  0  0  0  0  0  0  0  0
   59.3905   34.6990   44.2153 H   0  0  0  0  0  0  0  0  0  0  0  0
   58.2780   33.0880   43.2850 C   0  0  0  0  0  0  0  0  0  0  0  0
   58.5331   33.4086   42.2642 H   0  0  0  0  0  0  0  0  0  0  0  0
   57.4740   31.9480   43.4770 C   0  0  0  0  0  0  0  0  0  0  0  0
   56.9660   31.2070   42.2950 C   0  0  0  0  0  0  0  0  0  0  0  0
   57.0620   31.7120   41.1440 O   0  0  0  0  0  0  0  0  0  0  0  0
   56.3670   29.9160   42.4350 N   0  0  0  0  0  0  0  0  0  0  0  0
   56.1610   29.5120   43.3750 H   0  0  0  0  0  0  0  0  0  0  0  0
   56.0600   29.3870   41.5900 H   0  0  0  0  0  0  0  0  0  0  0  0
   57.7650   29.2270   46.4350 N   0  0  0  0  0  0  0  0  0  0  0  0
   58.1110   28.0690   47.0490 C   0  0  0  0  0  0  0  0  0  0  0  0
   59.1520   28.0480   47.8280 N   0  0  0  0  0  0  0  0  0  0  0  0
   59.8670   29.1970   48.3110 C   0  0  0  0  0  0  0  0  0  0  0  0
   59.9800   29.3800   49.6950 C   0  0  0  0  0  0  0  0  0  0  0  0
   59.5177   28.6548   50.3809 H   0  0  0  0  0  0  0  0  0  0  0  0
   60.6750   30.4760   50.2110 C   0  0  0  0  0  0  0  0  0  0  0  0
   60.7462   30.6194   51.2993 H   0  0  0  0  0  0  0  0  0  0  0  0
   61.2790   31.3890   49.3460 C   0  0  0  0  0  0  0  0  0  0  0  0
   61.8139   32.2596   49.7533 H   0  0  0  0  0  0  0  0  0  0  0  0
   61.2060   31.2000   47.9640 C   0  0  0  0  0  0  0  0  0  0  0  0
   61.6920   31.9186   47.2877 H   0  0  0  0  0  0  0  0  0  0  0  0
   60.5140   30.0950   47.4310 C   0  0  0  0  0  0  0  0  0  0  0  0
   60.4710   29.8480   46.0500 O   0  0  0  0  0  0  0  0  0  0  0  0
   60.7910   28.6030   45.4360 C   0  0  0  0  0  0  0  0  0  0  0  0
   60.8870   27.8262   46.2089 H   0  0  0  0  0  0  0  0  0  0  0  0
   61.7421   28.6948   44.8910 H   0  0  0  0  0  0  0  0  0  0  0  0
   59.6840   28.2210   44.4670 C   0  0  0  0  0  0  0  0  0  0  0  0
   58.7920   27.9132   45.0323 H   0  0  0  0  0  0  0  0  0  0  0  0
   59.4365   29.0857   43.8337 H   0  0  0  0  0  0  0  0  0  0  0  0
   60.0224   27.3877   43.8337 H   0  0  0  0  0  0  0  0  0  0  0  0
   57.3800   26.9450   46.8190 N   0  0  0  0  0  0  0  0  0  0  0  0
   57.2640   24.2150   45.0590 C   0  0  0  0  0  0  0  0  0  0  0  0
   58.0494   24.7009   45.6565 H   0  0  0  0  0  0  0  0  0  0  0  0
   57.5630   23.0720   44.3110 C   0  0  0  0  0  0  0  0  0  0  0  0
   58.5866   22.6693   44.3096 H   0  0  0  0  0  0  0  0  0  0  0  0
  1  2  1  0
  2  3  2  0
  3  4  1  0
  3  5  1  0
  5  6  1  0
  5  7  2  0
  7  8  1  0
  8  9  2  3
  9 10  1  0
 10 11  1  0
 11 12  2  3
 12 13  1  0
 13 14  2  0
 14 15  1  0
 14 16  1  0
 16 17  1  0
 16 18  2  0
 18 19  1  0
 18 20  1  0
 20 21  1  0
 20 22  2  0
 22 23  1  0
 23 24  2  0
 23 25  1  0
 25 26  1  0
 25 27  1  0
 11 28  1  0
 28 29  1  0
 29 30  2  0
 30 31  1  0
 31 32  2  0
 32 33  1  0
 32 34  1  0
 34 35  1  0
 34 36  2  0
 36 37  1  0
 36 38  1  0
 38 39  1  0
 38 40  2  0
 40 41  1  0
 41 42  1  0
 42 43  1  0
 42 44  1  0
 42 45  1  0
 45 46  1  0
 45 47  1  0
 45 48  1  0
 29 49  1  0
  7 50  1  0
 50 51  1  0
 50 52  2  0
 52 53  1  0
 52  2  1  0
 49  9  1  0
 22 13  1  0
 40 31  1  0
M  CHG  3  10  -1  28  -1  49  -1
M  END
>  <UniqueID>  (33) 
31

>  <SMILES>  (33) 
CCOc1ccccc1/N=c1\[n-]c(=Nc2ccccc2)[n-]c(=Nc2ccccc2C(N)=O)[n-]1

>  <Energy>  (33) 
77.29634786408702

>  <Genealogy>  (33) 
CCOc1ccccc1N=c1[n-]c(=Nc2ccccc2)[n-]c(=Nc2ccccc2C(N)=O)[n-]1 (protonated)
CCOc1ccccc1/N=c1\[n-]c(=Nc2ccccc2)[n-]c(=Nc2ccccc2C(N)=O)[n-]1 (cis-trans isomerization)
CCOc1ccccc1/N=c1\[n-]c(=Nc2ccccc2)[n-]c(=Nc2ccccc2C(N)=O)[n-]1 (3D coordinates assigned)
CCOc1ccccc1/N=c1\[n-]c(=Nc2ccccc2)[n-]c(=Nc2ccccc2C(N)=O)[n-]1 (optimized conformer: 77.29634786408702 kcal/mol)

>  <smiles>  (33) 
CCOc1ccccc1N=c1[nH]c(=Nc2ccccc2)[nH]c(=Nc2ccccc2C(N)=O)[nH]1

>  <score_type>  (33) 
oracle

>  <origin>  (33) 
adg

>  <m_score__min__energy>  (33) 
-13.109999999999999

>  <m_primary>  (33) 
energy

$$$$
33:0
     RDKit          3D

 31 34  0  0  0  0  0  0  0  0999 V2000
   55.5220   28.9310   44.9000 O   0  0  0  0  0  0  0  0  0  0  0  0
   56.6940   29.2330   45.2470 C   0  0  0  0  0  0  0  0  0  0  0  0
   57.0720   30.5380   45.3460 N   0  0  0  0  0  0  0  0  0  0  0  0
   58.3130   30.9070   45.7150 N   0  0  0  0  0  0  0  0  0  0  0  0
   58.6040   32.3160   45.7900 C   0  0  0  0  0  0  0  0  0  0  0  0
   58.4960   33.1380   44.6530 C   0  0  0  0  0  0  0  0  0  0  0  0
   58.8040   34.5000   44.7350 C   0  0  0  0  0  0  0  0  0  0  0  0
   59.2310   35.0500   45.9460 C   0  0  0  0  0  0  0  0  0  0  0  0
   59.3560   34.2390   47.0770 C   0  0  0  0  0  0  0  0  0  0  0  0
   59.0510   32.8760   46.9990 C   0  0  0  0  0  0  0  0  0  0  0  0
   59.2730   29.9570   45.9900 C   0  0  0  0  0  0  0  0  0  0  0  0
   60.4540   30.2820   46.2900 O   0  0  0  0  0  0  0  0  0  0  0  0
   58.9150   28.6160   45.9040 C   0  0  0  0  0  0  0  0  0  0  0  0
   59.6910   27.5340   46.1310 N   0  0  0  0  0  0  0  0  0  0  0  0
   58.8810   26.4770   45.9040 C   0  0  0  0  0  0  0  0  0  0  0  0
   59.2120   25.1270   46.0030 C   0  0  0  0  0  0  0  0  0  0  0  0
   58.2120   24.1800   45.7180 C   0  0  0  0  0  0  0  0  0  0  0  0
   56.9150   24.5960   45.3420 C   0  0  0  0  0  0  0  0  0  0  0  0
   56.6030   25.9640   45.2470 C   0  0  0  0  0  0  0  0  0  0  0  0
   57.6130   26.8810   45.5370 C   0  0  0  0  0  0  0  0  0  0  0  0
   57.6410   28.2600   45.5380 C   0  0  0  0  0  0  0  0  0  0  0  0
   58.1679   32.7076   43.6954 H   0  0  0  0  0  0  0  0  0  0  0  0
   58.7098   35.1389   43.8445 H   0  0  0  0  0  0  0  0  0  0  0  0
   59.4690   36.1221   46.0093 H   0  0  0  0  0  0  0  0  0  0  0  0
   59.6945   34.6727   48.0295 H   0  0  0  0  0  0  0  0  0  0  0  0
   59.1617   32.2390   47.8889 H   0  0  0  0  0  0  0  0  0  0  0  0
   60.6960   27.5160   46.4170 H   0  0  0  0  0  0  0  0  0  0  0  0
   60.2245   24.8116   46.2951 H   0  0  0  0  0  0  0  0  0  0  0  0
   58.4415   23.1065   45.7884 H   0  0  0  0  0  0  0  0  0  0  0  0
   56.1432   23.8438   45.1218 H   0  0  0  0  0  0  0  0  0  0  0  0
   55.5971   26.2992   44.9541 H   0  0  0  0  0  0  0  0  0  0  0  0
  1  2  2  0
  2  3  1  0
  3  4  1  0
  4  5  1  0
  5  6  2  0
  6  7  1  0
  7  8  2  0
  8  9  1  0
  9 10  2  0
  4 11  1  0
 11 12  2  0
 11 13  1  0
 13 14  1  0
 14 15  1  0
 15 16  2  0
 16 17  1  0
 17 18  2  0
 18 19  1  0
 19 20  2  0
 20 21  1  0
 21  2  1  0
 10  5  1  0
 21 13  2  0
 20 15  1  0
  6 22  1  0
  7 23  1  0
  8 24  1  0
  9 25  1  0
 10 26  1  0
 14 27  1  0
 16 28  1  0
 17 29  1  0
 18 30  1  0
 19 31  1  0
M  CHG  1   3  -1
M  END
>  <UniqueID>  (34) 
32

>  <SMILES>  (34) 
O=c1[n-]n(-c2ccccc2)c(=O)c2[nH]c3ccccc3c12

>  <Energy>  (34) 
86.76547338874715

>  <Genealogy>  (34) 
O=c1[n-]n(-c2ccccc2)c(=O)c2[nH]c3ccccc3c12 (protonated)
O=c1[n-]n(-c2ccccc2)c(=O)c2[nH]c3ccccc3c12 (3D coordinates assigned)
O=c1[n-]n(-c2ccccc2)c(=O)c2[nH]c3ccccc3c12 (optimized conformer: 86.76547338874715 kcal/mol)

>  <smiles>  (34) 
O=c1[nH]n(-c2ccccc2)c(=O)c2[nH]c3ccccc3c12

>  <score_type>  (34) 
oracle

>  <origin>  (34) 
adg

>  <m_score__min__energy>  (34) 
-8.7100000000000009

>  <m_primary>  (34) 
energy

$$$$
34:0
     RDKit          3D

 36 38  0  0  0  0  0  0  0  0999 V2000
   60.9060   26.7110   49.8880 C   0  0  0  0  0  0  0  0  0  0  0  0
   60.1260   27.4430   48.8370 C   0  0  0  0  0  0  0  0  0  0  0  0
   59.6170   26.7560   47.7260 C   0  0  0  0  0  0  0  0  0  0  0  0
   58.8590   27.4290   46.7650 C   0  0  0  0  0  0  0  0  0  0  0  0
   58.5840   28.8030   46.9030 C   0  0  0  0  0  0  0  0  0  0  0  0
   57.7780   29.5190   45.8840 C   0  0  0  0  0  0  0  0  0  0  0  0
   56.6070   28.9890   45.4340 N   0  0  0  0  0  0  0  0  0  0  0  0
   55.8510   29.6340   44.5080 C   0  0  0  0  0  0  0  0  0  0  0  0
   54.7700   29.1210   44.1140 O   0  0  0  0  0  0  0  0  0  0  0  0
   56.2720   30.8610   43.9980 C   0  0  0  0  0  0  0  0  0  0  0  0
   57.4820   31.3930   44.4560 C   0  0  0  0  0  0  0  0  0  0  0  0
   57.9650   32.7300   43.9770 C   0  0  0  0  0  0  0  0  0  0  0  0
   58.5120   33.5230   45.1330 C   0  0  0  0  0  0  0  0  0  0  0  0
   58.0360   33.2960   46.4360 C   0  0  0  0  0  0  0  0  0  0  0  0
   58.5180   34.0600   47.5040 C   0  0  0  0  0  0  0  0  0  0  0  0
   59.4700   35.0570   47.2770 C   0  0  0  0  0  0  0  0  0  0  0  0
   59.9380   35.2980   45.9840 C   0  0  0  0  0  0  0  0  0  0  0  0
   59.4580   34.5370   44.9120 C   0  0  0  0  0  0  0  0  0  0  0  0
   58.1990   30.7170   45.3910 N   0  0  0  0  0  0  0  0  0  0  0  0
   59.0830   29.4830   48.0300 C   0  0  0  0  0  0  0  0  0  0  0  0
   59.8400   28.8070   48.9910 C   0  0  0  0  0  0  0  0  0  0  0  0
   60.5667   27.0294   50.8847 H   0  0  0  0  0  0  0  0  0  0  0  0
   60.7471   25.6284   49.7751 H   0  0  0  0  0  0  0  0  0  0  0  0
   61.9763   26.9382   49.7751 H   0  0  0  0  0  0  0  0  0  0  0  0
   59.8158   25.6803   47.6104 H   0  0  0  0  0  0  0  0  0  0  0  0
   58.4735   26.8808   45.8927 H   0  0  0  0  0  0  0  0  0  0  0  0
   55.6670   31.3984   43.2529 H   0  0  0  0  0  0  0  0  0  0  0  0
   58.7571   32.5843   43.2277 H   0  0  0  0  0  0  0  0  0  0  0  0
   57.1238   33.2786   43.5282 H   0  0  0  0  0  0  0  0  0  0  0  0
   57.2823   32.5153   46.6163 H   0  0  0  0  0  0  0  0  0  0  0  0
   58.1473   33.8757   48.5231 H   0  0  0  0  0  0  0  0  0  0  0  0
   59.8516   35.6534   48.1189 H   0  0  0  0  0  0  0  0  0  0  0  0
   60.6845   36.0865   45.8077 H   0  0  0  0  0  0  0  0  0  0  0  0
   59.8229   34.7338   43.8931 H   0  0  0  0  0  0  0  0  0  0  0  0
   58.8753   30.5559   48.1555 H   0  0  0  0  0  0  0  0  0  0  0  0
   60.2134   29.3480   49.8730 H   0  0  0  0  0  0  0  0  0  0  0  0
  1  2  1  0
  2  3  2  0
  3  4  1  0
  4  5  2  0
  5  6  1  0
  6  7  2  0
  7  8  1  0
  8  9  2  0
  8 10  1  0
 10 11  2  0
 11 12  1  0
 12 13  1  0
 13 14  2  0
 14 15  1  0
 15 16  2  0
 16 17  1  0
 17 18  2  0
 11 19  1  0
  5 20  1  0
 20 21  2  0
 21  2  1  0
 19  6  1  0
 18 13  1  0
  1 22  1  0
  1 23  1  0
  1 24  1  0
  3 25  1  0
  4 26  1  0
 10 27  1  0
 12 28  1  0
 12 29  1  0
 14 30  1  0
 15 31  1  0
 16 32  1  0
 17 33  1  0
 18 34  1  0
 20 35  1  0
 21 36  1  0
M  CHG  1  19  -1
M  END
>  <UniqueID>  (35) 
33

>  <SMILES>  (35) 
Cc1ccc(-c2nc(=O)cc(Cc3ccccc3)[n-]2)cc1

>  <Energy>  (35) 
38.413943645985874

>  <Genealogy>  (35) 
Cc1ccc(-c2nc(=O)cc(Cc3ccccc3)[n-]2)cc1 (protonated)
Cc1ccc(-c2nc(=O)cc(Cc3ccccc3)[n-]2)cc1 (3D coordinates assigned)
Cc1ccc(-c2nc(=O)cc(Cc3ccccc3)[n-]2)cc1 (optimized conformer: 38.413943645985874 kcal/mol)

>  <smiles>  (35) 
Cc1ccc(-c2nc(=O)cc(Cc3ccccc3)[nH]2)cc1

>  <score_type>  (35) 
oracle

>  <origin>  (35) 
adg

>  <m_score__min__energy>  (35) 
-8.8300000000000001

>  <m_primary>  (35) 
energy

$$$$
35:0
     RDKit          3D

 44 48  0  0  0  0  0  0  0  0999 V2000
   54.0050   26.6930   46.5340 H   0  0  0  0  0  0  0  0  0  0  0  0
   54.8060   26.2720   46.0130 N   0  0  0  0  0  0  0  0  0  0  0  0
   54.7380   25.0720   45.5380 C   0  0  0  0  0  0  0  0  0  0  0  0
   53.5780   24.4310   45.2700 N   0  0  0  0  0  0  0  0  0  0  0  0
   53.8950   23.2350   44.8520 O   0  0  0  0  0  0  0  0  0  0  0  0
   55.1990   23.0840   44.8440 C   0  0  0  0  0  0  0  0  0  0  0  0
   55.9300   21.9530   44.4950 C   0  0  0  0  0  0  0  0  0  0  0  0
   55.4296   21.0369   44.1480 H   0  0  0  0  0  0  0  0  0  0  0  0
   57.3300   22.0210   44.6010 C   0  0  0  0  0  0  0  0  0  0  0  0
   57.9398   21.1435   44.3400 H   0  0  0  0  0  0  0  0  0  0  0  0
   57.9610   23.2070   45.0400 C   0  0  0  0  0  0  0  0  0  0  0  0
   59.0573   23.2402   45.1243 H   0  0  0  0  0  0  0  0  0  0  0  0
   57.2000   24.3510   45.3720 C   0  0  0  0  0  0  0  0  0  0  0  0
   57.8710   25.5960   45.7990 C   0  0  0  0  0  0  0  0  0  0  0  0
   58.5810   25.6450   47.0090 C   0  0  0  0  0  0  0  0  0  0  0  0
   58.6529   24.7451   47.6374 H   0  0  0  0  0  0  0  0  0  0  0  0
   59.1970   26.8300   47.4200 C   0  0  0  0  0  0  0  0  0  0  0  0
   59.7682   26.8528   48.3598 H   0  0  0  0  0  0  0  0  0  0  0  0
   59.0900   27.9930   46.6380 C   0  0  0  0  0  0  0  0  0  0  0  0
   59.7250   29.2230   47.0150 N   0  0  0  0  0  0  0  0  0  0  0  0
   59.6530   29.8470   48.3020 C   0  0  0  0  0  0  0  0  0  0  0  0
   60.4300   29.4550   49.2110 O   0  0  0  0  0  0  0  0  0  0  0  0
   58.7950   30.9740   48.5160 N   0  0  0  0  0  0  0  0  0  0  0  0
   58.9660   32.3010   47.9890 C   0  0  0  0  0  0  0  0  0  0  0  0
   59.5490   33.3290   48.7530 C   0  0  0  0  0  0  0  0  0  0  0  0
   59.9024   33.1184   49.7732 H   0  0  0  0  0  0  0  0  0  0  0  0
   59.6820   34.6160   48.2240 C   0  0  0  0  0  0  0  0  0  0  0  0
   60.1493   35.4093   48.8259 H   0  0  0  0  0  0  0  0  0  0  0  0
   59.2250   34.9000   46.9360 C   0  0  0  0  0  0  0  0  0  0  0  0
   59.3399   35.9128   46.5225 H   0  0  0  0  0  0  0  0  0  0  0  0
   58.6200   33.8950   46.1700 C   0  0  0  0  0  0  0  0  0  0  0  0
   58.1380   34.1570   44.8810 C   0  0  0  0  0  0  0  0  0  0  0  0
   58.2355   35.1644   44.4501 H   0  0  0  0  0  0  0  0  0  0  0  0
   57.5340   33.1370   44.1450 C   0  0  0  0  0  0  0  0  0  0  0  0
   57.1523   33.3351   43.1325 H   0  0  0  0  0  0  0  0  0  0  0  0
   57.4180   31.8630   44.7040 C   0  0  0  0  0  0  0  0  0  0  0  0
   56.9436   31.0537   44.1296 H   0  0  0  0  0  0  0  0  0  0  0  0
   57.8890   31.6190   45.9550 N   0  0  0  0  0  0  0  0  0  0  0  0
   58.4840   32.5910   46.7020 C   0  0  0  0  0  0  0  0  0  0  0  0
   58.3920   27.9400   45.4250 C   0  0  0  0  0  0  0  0  0  0  0  0
   58.3289   28.8370   44.7914 H   0  0  0  0  0  0  0  0  0  0  0  0
   57.7750   26.7550   45.0140 C   0  0  0  0  0  0  0  0  0  0  0  0
   57.2110   26.7309   44.0699 H   0  0  0  0  0  0  0  0  0  0  0  0
   55.8040   24.2380   45.2650 C   0  0  0  0  0  0  0  0  0  0  0  0
  1  2  1  0
  2  3  2  0
  3  4  1  0
  4  5  1  0
  5  6  1  0
  6  7  2  0
  7  8  1  0
  7  9  1  0
  9 10  1  0
  9 11  2  0
 11 12  1  0
 11 13  1  0
 13 14  1  0
 14 15  2  0
 15 16  1  0
 15 17  1  0
 17 18  1  0
 17 19  2  0
 19 20  1  0
 20 21  1  0
 21 22  2  0
 21 23  1  0
 23 24  1  0
 24 25  2  0
 25 26  1  0
 25 27  1  0
 27 28  1  0
 27 29  2  0
 29 30  1  0
 29 31  1  0
 31 32  2  0
 32 33  1  0
 32 34  1  0
 34 35  1  0
 34 36  2  0
 36 37  1  0
 36 38  1  0
 38 39  2  0
 19 40  1  0
 40 41  1  0
 40 42  2  0
 42 43  1  0
 13 44  2  0
 44  3  1  0
 44  6  1  0
 42 14  1  0
 39 24  1  0
 39 31  1  0
M  CHG  3   4  -1  20  -1  23  -1
M  END
>  <UniqueID>  (36) 
34

>  <SMILES>  (36) 
[H]/N=c1\[n-]oc2cccc(-c3ccc([N-]C(=O)[N-]c4cccc5cccnc45)cc3)c12

>  <Energy>  (36) 
109.00204335176541

>  <Genealogy>  (36) 
N=c1[n-]oc2cccc(-c3ccc([N-]C(=O)[N-]c4cccc5cccnc45)cc3)c12 (protonated)
[H]/N=c1\[n-]oc2cccc(-c3ccc([N-]C(=O)[N-]c4cccc5cccnc45)cc3)c12 (cis-trans isomerization)
[H]/N=c1\[n-]oc2cccc(-c3ccc([N-]C(=O)[N-]c4cccc5cccnc45)cc3)c12 (3D coordinates assigned)
[H]/N=c1\[n-]oc2cccc(-c3ccc([N-]C(=O)[N-]c4cccc5cccnc45)cc3)c12 (optimized conformer: 109.00204335176541 kcal/mol)

>  <smiles>  (36) 
N=c1[nH]oc2cccc(-c3ccc(NC(=O)Nc4cccc5cccnc45)cc3)c12

>  <score_type>  (36) 
oracle

>  <origin>  (36) 
adg

>  <m_score__min__energy>  (36) 
-13.6

>  <m_primary>  (36) 
energy

$$$$
36:0
     RDKit          3D

 27 29  0  0  1  0  0  0  0  0999 V2000
   59.6240   34.5210   44.9250 O   0  0  0  0  0  0  0  0  0  0  0  0
   59.4980   33.6380   45.8260 C   0  0  0  0  0  0  0  0  0  0  0  0
   58.5250   32.6160   45.8090 N   0  0  0  0  0  0  0  0  0  0  0  0
   58.1130   31.9600   44.8020 C   0  0  0  0  0  0  0  0  0  0  0  0
   58.0170   32.5800   43.5880 N   0  0  0  0  0  0  0  0  0  0  0  0
   57.5750   31.7860   42.5900 C   0  0  0  0  0  0  0  0  0  0  0  0
   57.4380   32.5530   40.9980 Cl  0  0  0  0  0  0  0  0  0  0  0  0
   57.2440   30.5140   42.7010 N   0  0  0  0  0  0  0  0  0  0  0  0
   57.3300   29.8530   43.9250 C   0  0  0  0  0  0  0  0  0  0  0  0
   57.0200   28.6020   44.1170 N   0  0  0  0  0  0  0  0  0  0  0  0
   57.1730   28.1370   45.4080 C   0  0  0  0  0  0  0  0  0  0  0  0
   56.9570   26.9730   45.9160 O   0  0  0  0  0  0  0  0  0  0  0  0
   57.7890   29.5840   46.3580 S   0  0  0  0  0  0  0  0  0  0  0  0
   57.7740   30.6380   44.9400 C   0  0  0  0  0  0  0  0  0  0  0  0
   60.4340   33.7140   46.9420 C   0  0  0  0  0  0  0  0  0  0  0  0
   59.8590   33.6920   48.2300 C   0  0  0  0  0  0  0  0  0  0  0  0
   58.4940   33.6050   48.3660 F   0  0  0  0  0  0  0  0  0  0  0  0
   60.6860   33.7560   49.3570 C   0  0  0  0  0  0  0  0  0  0  0  0
   62.0660   33.8410   49.2330 C   0  0  0  0  0  0  0  0  0  0  0  0
   62.6330   33.8620   47.9480 C   0  0  0  0  0  0  0  0  0  0  0  0
   61.7860   33.7960   46.8350 C   0  0  0  0  0  0  0  0  0  0  0  0
   62.3910   33.8120   45.6230 F   0  0  0  0  0  0  0  0  0  0  0  0
   58.2670   33.5820   43.4640 H   0  0  0  0  0  0  0  0  0  0  0  0
   56.6670   27.8970   43.4010 H   0  0  0  0  0  0  0  0  0  0  0  0
   60.2342   33.7386   50.3598 H   0  0  0  0  0  0  0  0  0  0  0  0
   62.7053   33.8911   50.1267 H   0  0  0  0  0  0  0  0  0  0  0  0
   63.7233   33.9291   47.8184 H   0  0  0  0  0  0  0  0  0  0  0  0
  1  2  2  0
  2  3  1  0
  3  4  2  0
  4  5  1  0
  5  6  1  0
  6  7  1  0
  6  8  2  0
  8  9  1  0
  9 10  1  0
 10 11  1  0
 11 12  2  0
 11 13  1  0
 13 14  1  0
  2 15  1  0
 15 16  2  0
 16 17  1  0
 16 18  1  0
 18 19  2  0
 19 20  1  0
 20 21  2  0
 21 22  1  0
 14  4  1  0
 21 15  1  0
 14  9  2  0
  5 23  1  0
 10 24  1  0
 18 25  1  0
 19 26  1  0
 20 27  1  0
M  END
>  <smiles>  (37) 
O=C(N=c1[nH]c(Cl)nc2[nH]c(=O)sc12)c1c(F)cccc1F

>  <score_type>  (37) 
oracle

>  <origin>  (37) 
adg

>  <m_score__min__energy>  (37) 
-7.3899999999999997

>  <m_primary>  (37) 
energy

$$$$
37:0
     RDKit          3D

 46 48  0  0  0  0  0  0  0  0999 V2000
   57.0050   20.8920   42.9690 C   0  0  0  0  0  0  0  0  0  0  0  0
   55.9140   21.7220   43.3550 O   0  0  0  0  0  0  0  0  0  0  0  0
   56.0500   22.9450   44.0270 C   0  0  0  0  0  0  0  0  0  0  0  0
   57.1810   23.7700   43.8750 C   0  0  0  0  0  0  0  0  0  0  0  0
   57.2690   24.9800   44.5680 C   0  0  0  0  0  0  0  0  0  0  0  0
   56.2390   25.3800   45.4360 C   0  0  0  0  0  0  0  0  0  0  0  0
   56.2980   26.6310   46.1380 N   0  0  0  0  0  0  0  0  0  0  0  0
   57.0400   27.7710   45.6810 C   0  0  0  0  0  0  0  0  0  0  0  0
   58.4120   27.9590   45.7530 C   0  0  0  0  0  0  0  0  0  0  0  0
   58.6330   29.2200   45.2320 C   0  0  0  0  0  0  0  0  0  0  0  0
   59.8830   29.8090   45.0890 O   0  0  0  0  0  0  0  0  0  0  0  0
   57.4730   29.8100   44.8680 N   0  0  0  0  0  0  0  0  0  0  0  0
   57.3140   31.1050   44.2040 C   0  0  0  0  0  0  0  0  0  0  0  0
   57.1720   32.2360   45.2300 C   0  0  0  0  0  0  0  0  0  0  0  0
   58.5080   32.6270   45.8090 C   0  0  0  0  0  0  0  0  0  0  0  0
   59.2300   33.7010   45.2630 C   0  0  0  0  0  0  0  0  0  0  0  0
   60.4960   34.0260   45.7600 C   0  0  0  0  0  0  0  0  0  0  0  0
   61.0570   33.2760   46.8030 C   0  0  0  0  0  0  0  0  0  0  0  0
   62.6480   33.6890   47.4310 S   0  0  0  0  0  0  0  0  0  0  0  0
   63.5290   32.2390   47.7550 N   0  0  0  0  0  0  0  0  0  0  0  0
   63.3940   34.5170   46.4230 O   0  0  0  0  0  0  0  0  0  0  0  0
   62.5050   34.4850   48.6980 O   0  0  0  0  0  0  0  0  0  0  0  0
   60.3370   32.2070   47.3520 C   0  0  0  0  0  0  0  0  0  0  0  0
   59.0730   31.8800   46.8540 C   0  0  0  0  0  0  0  0  0  0  0  0
   56.5000   28.9220   45.1480 C   0  0  0  0  0  0  0  0  0  0  0  0
   55.1470   29.1430   44.9110 O   0  0  0  0  0  0  0  0  0  0  0  0
   55.1030   24.5680   45.5660 C   0  0  0  0  0  0  0  0  0  0  0  0
   55.0150   23.3570   44.8730 C   0  0  0  0  0  0  0  0  0  0  0  0
   57.5096   20.5081   43.8679 H   0  0  0  0  0  0  0  0  0  0  0  0
   56.6302   20.0486   42.3705 H   0  0  0  0  0  0  0  0  0  0  0  0
   57.7178   21.4782   42.3705 H   0  0  0  0  0  0  0  0  0  0  0  0
   57.9989   23.4604   43.2077 H   0  0  0  0  0  0  0  0  0  0  0  0
   58.1506   25.6239   44.4332 H   0  0  0  0  0  0  0  0  0  0  0  0
   55.8090   26.7060   47.0590 H   0  0  0  0  0  0  0  0  0  0  0  0
   59.1632   27.2556   46.1414 H   0  0  0  0  0  0  0  0  0  0  0  0
   58.1964   31.2978   43.5761 H   0  0  0  0  0  0  0  0  0  0  0  0
   56.4024   31.0736   43.5892 H   0  0  0  0  0  0  0  0  0  0  0  0
   56.7258   33.1122   44.7368 H   0  0  0  0  0  0  0  0  0  0  0  0
   56.5311   31.8799   46.0500 H   0  0  0  0  0  0  0  0  0  0  0  0
   58.7974   34.2894   44.4404 H   0  0  0  0  0  0  0  0  0  0  0  0
   61.0530   34.8722   45.3315 H   0  0  0  0  0  0  0  0  0  0  0  0
   64.5010   32.3870   47.4010 H   0  0  0  0  0  0  0  0  0  0  0  0
   60.7683   31.6228   48.1782 H   0  0  0  0  0  0  0  0  0  0  0  0
   58.5181   31.0328   47.2833 H   0  0  0  0  0  0  0  0  0  0  0  0
   54.2757   24.8860   46.2175 H   0  0  0  0  0  0  0  0  0  0  0  0
   54.1244   22.7228   44.9940 H   0  0  0  0  0  0  0  0  0  0  0  0
  1  2  1  0
  2  3  1  0
  3  4  2  0
  4  5  1  0
  5  6  2  0
  6  7  1  0
  7  8  1  0
  8  9  1  0
  9 10  2  0
 10 11  1  0
 10 12  1  0
 12 13  1  0
 13 14  1  0
 14 15  1  0
 15 16  2  0
 16 17  1  0
 17 18  2  0
 18 19  1  0
 19 20  1  0
 19 21  2  0
 19 22  2  0
 18 23  1  0
 23 24  2  0
 12 25  1  0
 25 26  1  0
  6 27  1  0
 27 28  2  0
 28  3  1  0
 25  8  2  0
 24 15  1  0
  1 29  1  0
  1 30  1  0
  1 31  1  0
  4 32  1  0
  5 33  1  0
  7 34  1  0
  9 35  1  0
 13 36  1  0
 13 37  1  0
 14 38  1  0
 14 39  1  0
 16 40  1  0
 17 41  1  0
 20 42  1  0
 23 43  1  0
 24 44  1  0
 27 45  1  0
 28 46  1  0
M  CHG  3  11  -1  20  -1  26  -1
M  END
>  <UniqueID>  (38) 
35

>  <SMILES>  (38) 
COc1ccc(Nc2cc([O-])n(CCc3ccc(S([NH-])(=O)=O)cc3)c2[O-])cc1

>  <Energy>  (38) 
76.11997366259938

>  <Genealogy>  (38) 
COc1ccc(Nc2cc([O-])n(CCc3ccc(S([NH-])(=O)=O)cc3)c2[O-])cc1 (protonated)
COc1ccc(Nc2cc([O-])n(CCc3ccc(S([NH-])(=O)=O)cc3)c2[O-])cc1 (3D coordinates assigned)
COc1ccc(Nc2cc([O-])n(CCc3ccc(S([NH-])(=O)=O)cc3)c2[O-])cc1 (optimized conformer: 76.11997366259938 kcal/mol)

>  <smiles>  (38) 
COc1ccc(Nc2cc(O)n(CCc3ccc(S(N)(=O)=O)cc3)c2O)cc1

>  <score_type>  (38) 
oracle

>  <origin>  (38) 
adg

>  <m_score__min__energy>  (38) 
-13.630000000000001

>  <m_primary>  (38) 
energy

$$$$
38:0
     RDKit          3D

 61 64  0  0  0  0  0  0  0  0999 V2000
   58.1160   27.1550   43.2290 C   0  0  0  0  0  0  0  0  0  0  0  0
   58.9040   27.6340   44.3090 O   0  0  0  0  0  0  0  0  0  0  0  0
   58.7460   28.8870   44.9270 C   0  0  0  0  0  0  0  0  0  0  0  0
   58.0480   29.9390   44.3020 C   0  0  0  0  0  0  0  0  0  0  0  0
   57.9490   31.1860   44.9240 C   0  0  0  0  0  0  0  0  0  0  0  0
   58.5490   31.4130   46.1680 C   0  0  0  0  0  0  0  0  0  0  0  0
   58.4440   32.7190   46.7490 N   0  0  0  0  0  0  0  0  0  0  0  0
   59.4570   34.0770   46.3900 S   0  0  0  0  0  0  0  0  0  0  0  0
   59.6400   34.1570   44.8980 O   0  0  0  0  0  0  0  0  0  0  0  0
   58.8200   35.3560   46.8430 O   0  0  0  0  0  0  0  0  0  0  0  0
   61.0300   33.8610   47.1520 C   0  0  0  0  0  0  0  0  0  0  0  0
   62.1430   33.5450   46.3630 C   0  0  0  0  0  0  0  0  0  0  0  0
   63.3930   33.3710   46.9500 C   0  0  0  0  0  0  0  0  0  0  0  0
   63.5400   33.4990   48.3310 C   0  0  0  0  0  0  0  0  0  0  0  0
   62.4350   33.8040   49.1470 C   0  0  0  0  0  0  0  0  0  0  0  0
   62.6000   33.8970   50.6170 C   0  0  0  0  0  0  0  0  0  0  0  0
   63.5730   34.5420   51.0870 O   0  0  0  0  0  0  0  0  0  0  0  0
   61.6830   33.2290   51.4950 N   0  0  0  0  0  0  0  0  0  0  0  0
   60.5260   32.4410   51.1510 C   0  0  0  0  0  0  0  0  0  0  0  0
   60.7340   31.1280   50.6960 C   0  0  0  0  0  0  0  0  0  0  0  0
   59.6480   30.3080   50.3700 C   0  0  0  0  0  0  0  0  0  0  0  0
   58.3430   30.7980   50.4780 C   0  0  0  0  0  0  0  0  0  0  0  0
   58.1230   32.1140   50.8980 C   0  0  0  0  0  0  0  0  0  0  0  0
   59.2050   32.9370   51.2240 C   0  0  0  0  0  0  0  0  0  0  0  0
   61.1800   33.9890   48.5440 C   0  0  0  0  0  0  0  0  0  0  0  0
   59.2110   30.3550   46.8150 C   0  0  0  0  0  0  0  0  0  0  0  0
   59.3070   29.0970   46.2050 C   0  0  0  0  0  0  0  0  0  0  0  0
   60.1640   27.7910   47.0250 S   0  0  0  0  0  0  0  0  0  0  0  0
   60.9040   28.3720   48.1970 O   0  0  0  0  0  0  0  0  0  0  0  0
   61.1490   27.1350   46.0910 O   0  0  0  0  0  0  0  0  0  0  0  0
   58.9950   26.6260   47.5640 N   0  0  0  0  0  0  0  0  0  0  0  0
   58.4190   25.6070   46.7550 C   0  0  0  0  0  0  0  0  0  0  0  0
   59.2630   24.7380   46.0540 C   0  0  0  0  0  0  0  0  0  0  0  0
   58.7240   23.7720   45.1860 C   0  0  0  0  0  0  0  0  0  0  0  0
   57.3420   23.6620   45.0220 C   0  0  0  0  0  0  0  0  0  0  0  0
   56.4900   24.4960   45.7570 C   0  0  0  0  0  0  0  0  0  0  0  0
   54.7460   24.3790   45.5580 S   0  0  0  0  0  0  0  0  0  0  0  0
   54.0590   25.9610   45.6330 N   0  0  0  0  0  0  0  0  0  0  0  0
   54.1680   23.5240   46.6550 O   0  0  0  0  0  0  0  0  0  0  0  0
   54.4160   23.7600   44.2270 O   0  0  0  0  0  0  0  0  0  0  0  0
   57.0290   25.4640   46.6280 C   0  0  0  0  0  0  0  0  0  0  0  0
   57.2386   26.6217   43.6236 H   0  0  0  0  0  0  0  0  0  0  0  0
   57.7830   28.0036   42.6134 H   0  0  0  0  0  0  0  0  0  0  0  0
   58.7160   26.4687   42.6134 H   0  0  0  0  0  0  0  0  0  0  0  0
   57.5790   29.7779   43.3201 H   0  0  0  0  0  0  0  0  0  0  0  0
   57.3939   31.9977   44.4311 H   0  0  0  0  0  0  0  0  0  0  0  0
   62.0289   33.4338   45.2746 H   0  0  0  0  0  0  0  0  0  0  0  0
   64.2656   33.1323   46.3242 H   0  0  0  0  0  0  0  0  0  0  0  0
   64.5311   33.3599   48.7875 H   0  0  0  0  0  0  0  0  0  0  0  0
   61.7589   30.7415   50.5952 H   0  0  0  0  0  0  0  0  0  0  0  0
   59.8212   29.2768   50.0284 H   0  0  0  0  0  0  0  0  0  0  0  0
   57.4895   30.1488   50.2328 H   0  0  0  0  0  0  0  0  0  0  0  0
   57.0964   32.5021   50.9719 H   0  0  0  0  0  0  0  0  0  0  0  0
   59.0271   33.9758   51.5389 H   0  0  0  0  0  0  0  0  0  0  0  0
   60.3071   34.2361   49.1661 H   0  0  0  0  0  0  0  0  0  0  0  0
   59.6570   30.5158   47.8076 H   0  0  0  0  0  0  0  0  0  0  0  0
   60.3530   24.8111   46.1827 H   0  0  0  0  0  0  0  0  0  0  0  0
   59.3954   23.0988   44.6328 H   0  0  0  0  0  0  0  0  0  0  0  0
   56.9249   22.9250   44.3200 H   0  0  0  0  0  0  0  0  0  0  0  0
   54.7830   26.6420   45.3010 H   0  0  0  0  0  0  0  0  0  0  0  0
   56.3567   26.1106   47.2111 H   0  0  0  0  0  0  0  0  0  0  0  0
  1  2  1  0
  2  3  1  0
  3  4  2  0
  4  5  1  0
  5  6  2  0
  6  7  1  0
  7  8  1  0
  8  9  2  0
  8 10  2  0
  8 11  1  0
 11 12  2  0
 12 13  1  0
 13 14  2  0
 14 15  1  0
 15 16  1  0
 16 17  2  0
 16 18  1  0
 18 19  1  0
 19 20  2  0
 20 21  1  0
 21 22  2  0
 22 23  1  0
 23 24  2  0
 15 25  2  0
  6 26  1  0
 26 27  2  0
 27 28  1  0
 28 29  2  0
 28 30  2  0
 28 31  1  0
 31 32  1  0
 32 33  2  0
 33 34  1  0
 34 35  2  0
 35 36  1  0
 36 37  1  0
 37 38  1  0
 37 39  2  0
 37 40  2  0
 36 41  2  0
 27  3  1  0
 41 32  1  0
 25 11  1  0
 24 19  1  0
  1 42  1  0
  1 43  1  0
  1 44  1  0
  4 45  1  0
  5 46  1  0
 12 47  1  0
 13 48  1  0
 14 49  1  0
 20 50  1  0
 21 51  1  0
 22 52  1  0
 23 53  1  0
 24 54  1  0
 25 55  1  0
 26 56  1  0
 33 57  1  0
 34 58  1  0
 35 59  1  0
 38 60  1  0
 41 61  1  0
M  CHG  4   7  -1  18  -1  31  -1  38  -1
M  END
>  <UniqueID>  (39) 
36

>  <SMILES>  (39) 
COc1ccc([N-]S(=O)(=O)c2cccc(C(=O)[N-]c3ccccc3)c2)cc1S(=O)(=O)[N-]c1cccc(S([NH-])(=O)=O)c1

>  <Energy>  (39) 
75.18654693314613

>  <Genealogy>  (39) 
COc1ccc([N-]S(=O)(=O)c2cccc(C(=O)[N-]c3ccccc3)c2)cc1S(=O)(=O)[N-]c1cccc(S([NH-])(=O)=O)c1 (protonated)
COc1ccc([N-]S(=O)(=O)c2cccc(C(=O)[N-]c3ccccc3)c2)cc1S(=O)(=O)[N-]c1cccc(S([NH-])(=O)=O)c1 (3D coordinates assigned)
COc1ccc([N-]S(=O)(=O)c2cccc(C(=O)[N-]c3ccccc3)c2)cc1S(=O)(=O)[N-]c1cccc(S([NH-])(=O)=O)c1 (optimized conformer: 75.18654693314613 kcal/mol)

>  <smiles>  (39) 
COc1ccc(NS(=O)(=O)c2cccc(C(=O)Nc3ccccc3)c2)cc1S(=O)(=O)Nc1cccc(S(N)(=O)=O)c1

>  <score_type>  (39) 
oracle

>  <origin>  (39) 
adg

>  <m_score__min__energy>  (39) 
-18.359999999999999

>  <m_primary>  (39) 
energy

$$$$
39:0
     RDKit          3D

 65 68  0  0  0  0  0  0  0  0999 V2000
   58.0770   29.6230   44.4310 C   0  0  0  0  0  0  0  0  0  0  0  0
   56.9340   30.4650   44.8070 N   0  0  0  0  0  0  0  0  0  0  0  0
   55.8250   30.2550   43.8680 C   0  0  0  0  0  0  0  0  0  0  0  0
   57.4120   32.1430   44.7780 S   0  0  0  0  0  0  0  0  0  0  0  0
   56.2730   33.0080   45.2450 O   0  0  0  0  0  0  0  0  0  0  0  0
   57.7880   32.5410   43.3770 O   0  0  0  0  0  0  0  0  0  0  0  0
   58.7780   32.3890   45.8640 C   0  0  0  0  0  0  0  0  0  0  0  0
   59.6810   33.4360   45.6480 C   0  0  0  0  0  0  0  0  0  0  0  0
   60.7450   33.6380   46.5310 C   0  0  0  0  0  0  0  0  0  0  0  0
   60.9230   32.7860   47.6290 C   0  0  0  0  0  0  0  0  0  0  0  0
   62.0090   33.0230   48.5360 N   0  0  0  0  0  0  0  0  0  0  0  0
   61.7680   33.7150   49.8040 C   0  0  0  0  0  0  0  0  0  0  0  0
   63.0970   34.0740   50.4780 C   0  0  0  0  0  0  0  0  0  0  0  0
   63.9610   32.8780   50.6130 N   0  0  0  0  0  0  0  0  0  0  0  0
   65.2620   33.2690   51.1850 C   0  0  0  0  0  0  0  0  0  0  0  0
   64.1450   32.1060   49.3440 C   0  0  0  0  0  0  0  0  0  0  0  0
   63.3750   32.6770   48.1400 C   0  0  0  0  0  0  0  0  0  0  0  0
   60.0290   31.7210   47.8460 C   0  0  0  0  0  0  0  0  0  0  0  0
   60.2010   30.8940   49.0060 N   0  0  0  0  0  0  0  0  0  0  0  0
   60.6120   29.5200   49.0400 C   0  0  0  0  0  0  0  0  0  0  0  0
   61.5590   29.1610   49.7910 O   0  0  0  0  0  0  0  0  0  0  0  0
   59.8810   28.5130   48.2370 C   0  0  0  0  0  0  0  0  0  0  0  0
   60.5250   27.3430   47.8020 C   0  0  0  0  0  0  0  0  0  0  0  0
   59.8330   26.3870   47.0520 C   0  0  0  0  0  0  0  0  0  0  0  0
   58.4790   26.5750   46.7300 C   0  0  0  0  0  0  0  0  0  0  0  0
   57.7720   25.5910   45.9480 N   0  0  0  0  0  0  0  0  0  0  0  0
   58.3990   24.4620   45.2770 C   0  0  0  0  0  0  0  0  0  0  0  0
   57.3170   23.8560   44.3660 C   0  0  0  0  0  0  0  0  0  0  0  0
   55.9730   24.4460   44.8150 C   0  0  0  0  0  0  0  0  0  0  0  0
   56.3720   25.5410   45.7210 C   0  0  0  0  0  0  0  0  0  0  0  0
   55.5470   26.3050   46.2880 O   0  0  0  0  0  0  0  0  0  0  0  0
   57.8380   27.7530   47.1520 C   0  0  0  0  0  0  0  0  0  0  0  0
   58.5310   28.7100   47.8990 C   0  0  0  0  0  0  0  0  0  0  0  0
   58.9450   31.5420   46.9660 C   0  0  0  0  0  0  0  0  0  0  0  0
   58.5761   29.2553   45.3397 H   0  0  0  0  0  0  0  0  0  0  0  0
   57.7228   28.7684   43.8359 H   0  0  0  0  0  0  0  0  0  0  0  0
   58.7882   30.2146   43.8359 H   0  0  0  0  0  0  0  0  0  0  0  0
   54.8964   30.0792   44.4308 H   0  0  0  0  0  0  0  0  0  0  0  0
   55.7068   31.1467   43.2349 H   0  0  0  0  0  0  0  0  0  0  0  0
   56.0410   29.3818   43.2349 H   0  0  0  0  0  0  0  0  0  0  0  0
   59.5530   34.1013   44.7814 H   0  0  0  0  0  0  0  0  0  0  0  0
   61.4457   34.4693   46.3634 H   0  0  0  0  0  0  0  0  0  0  0  0
   61.1987   34.6364   49.6116 H   0  0  0  0  0  0  0  0  0  0  0  0
   61.1981   33.0507   50.4703 H   0  0  0  0  0  0  0  0  0  0  0  0
   63.6177   34.8276   49.8690 H   0  0  0  0  0  0  0  0  0  0  0  0
   62.8861   34.4706   51.4821 H   0  0  0  0  0  0  0  0  0  0  0  0
   63.5030   32.2450   51.3130 H   0  0  0  0  0  0  0  0  0  0  0  0
   65.2002   33.2504   52.2831 H   0  0  0  0  0  0  0  0  0  0  0  0
   66.0369   32.5640   50.8494 H   0  0  0  0  0  0  0  0  0  0  0  0
   65.5198   34.2843   50.8494 H   0  0  0  0  0  0  0  0  0  0  0  0
   65.2168   32.0999   49.0964 H   0  0  0  0  0  0  0  0  0  0  0  0
   63.7435   31.0983   49.5264 H   0  0  0  0  0  0  0  0  0  0  0  0
   63.8876   33.5791   47.7747 H   0  0  0  0  0  0  0  0  0  0  0  0
   63.3384   31.9194   47.3433 H   0  0  0  0  0  0  0  0  0  0  0  0
   61.5830   27.1773   48.0535 H   0  0  0  0  0  0  0  0  0  0  0  0
   60.3536   25.4799   46.7113 H   0  0  0  0  0  0  0  0  0  0  0  0
   59.2567   24.8017   44.6779 H   0  0  0  0  0  0  0  0  0  0  0  0
   58.7776   23.7236   45.9991 H   0  0  0  0  0  0  0  0  0  0  0  0
   57.5145   24.1207   43.3167 H   0  0  0  0  0  0  0  0  0  0  0  0
   57.3094   22.7586   44.4407 H   0  0  0  0  0  0  0  0  0  0  0  0
   55.4048   24.8320   43.9558 H   0  0  0  0  0  0  0  0  0  0  0  0
   55.3157   23.7062   45.2953 H   0  0  0  0  0  0  0  0  0  0  0  0
   56.7827   27.9230   46.8923 H   0  0  0  0  0  0  0  0  0  0  0  0
   58.0153   29.6252   48.2251 H   0  0  0  0  0  0  0  0  0  0  0  0
   58.2240   30.7308   47.1455 H   0  0  0  0  0  0  0  0  0  0  0  0
  1  2  1  0
  2  3  1  0
  2  4  1  0
  4  5  2  0
  4  6  2  0
  4  7  1  0
  7  8  2  0
  8  9  1  0
  9 10  2  0
 10 11  1  0
 11 12  1  0
 12 13  1  0
 13 14  1  0
 14 15  1  0
 14 16  1  0
 16 17  1  0
 10 18  1  0
 18 19  1  0
 19 20  1  0
 20 21  2  0
 20 22  1  0
 22 23  2  0
 23 24  1  0
 24 25  2  0
 25 26  1  0
 26 27  1  0
 27 28  1  0
 28 29  1  0
 29 30  1  0
 30 31  2  0
 25 32  1  0
 32 33  2  0
 18 34  2  0
 34  7  1  0
 17 11  1  0
 33 22  1  0
 30 26  1  0
  1 35  1  0
  1 36  1  0
  1 37  1  0
  3 38  1  0
  3 39  1  0
  3 40  1  0
  8 41  1  0
  9 42  1  0
 12 43  1  0
 12 44  1  0
 13 45  1  0
 13 46  1  0
 14 47  1  0
 15 48  1  0
 15 49  1  0
 15 50  1  0
 16 51  1  0
 16 52  1  0
 17 53  1  0
 17 54  1  0
 23 55  1  0
 24 56  1  0
 27 57  1  0
 27 58  1  0
 28 59  1  0
 28 60  1  0
 29 61  1  0
 29 62  1  0
 32 63  1  0
 33 64  1  0
 34 65  1  0
M  CHG  2  14   1  19  -1
M  END
>  <UniqueID>  (40) 
37

>  <SMILES>  (40) 
CN(C)S(=O)(=O)c1ccc(N2CC[NH+](C)CC2)c([N-]C(=O)c2ccc(N3CCCC3=O)cc2)c1

>  <Energy>  (40) 
90.60306027526926

>  <Genealogy>  (40) 
CN(C)S(=O)(=O)c1ccc(N2CC[NH+](C)CC2)c([N-]C(=O)c2ccc(N3CCCC3=O)cc2)c1 (protonated)
CN(C)S(=O)(=O)c1ccc(N2CC[NH+](C)CC2)c([N-]C(=O)c2ccc(N3CCCC3=O)cc2)c1 (3D coordinates assigned)
CN(C)S(=O)(=O)c1ccc(N2CC[NH+](C)CC2)c([N-]C(=O)c2ccc(N3CCCC3=O)cc2)c1 (nonaromatic ring conformer: 90.60306027526926 kcal/mol)

>  <smiles>  (40) 
CN1CCN(c2ccc(S(=O)(=O)N(C)C)cc2NC(=O)c2ccc(N3CCCC3=O)cc2)CC1

>  <score_type>  (40) 
oracle

>  <origin>  (40) 
adg

>  <m_score__min__energy>  (40) 
-9.4199999999999999

>  <m_primary>  (40) 
energy

$$$$
40:0
     RDKit          3D

 36 38  0  0  0  0  0  0  0  0999 V2000
   56.5440   31.2872   41.2566 H   0  0  0  0  0  0  0  0  0  0  0  0
   56.7650   31.0180   42.3000 C   0  0  0  0  0  0  0  0  0  0  0  0
   57.9200   31.5050   42.9180 C   0  0  0  0  0  0  0  0  0  0  0  0
   58.6134   32.1488   42.3570 H   0  0  0  0  0  0  0  0  0  0  0  0
   58.1950   31.1750   44.2480 C   0  0  0  0  0  0  0  0  0  0  0  0
   59.1107   31.5523   44.7267 H   0  0  0  0  0  0  0  0  0  0  0  0
   57.3120   30.3670   44.9750 C   0  0  0  0  0  0  0  0  0  0  0  0
   57.6240   30.0590   46.3070 O   0  0  0  0  0  0  0  0  0  0  0  0
   58.1220   28.8270   46.7540 C   0  0  0  0  0  0  0  0  0  0  0  0
   59.1820   28.8230   47.6660 C   0  0  0  0  0  0  0  0  0  0  0  0
   59.6059   29.7759   48.0156 H   0  0  0  0  0  0  0  0  0  0  0  0
   59.7060   27.6160   48.1360 C   0  0  0  0  0  0  0  0  0  0  0  0
   60.5508   27.6218   48.8404 H   0  0  0  0  0  0  0  0  0  0  0  0
   59.1590   26.4010   47.7130 C   0  0  0  0  0  0  0  0  0  0  0  0
   59.5852   25.4528   48.0724 H   0  0  0  0  0  0  0  0  0  0  0  0
   58.0650   26.3880   46.8290 C   0  0  0  0  0  0  0  0  0  0  0  0
   57.4790   25.1650   46.3610 N   0  0  0  0  0  0  0  0  0  0  0  0
   56.1830   24.6540   46.7000 C   0  0  0  0  0  0  0  0  0  0  0  0
   55.1590   25.0760   46.1000 O   0  0  0  0  0  0  0  0  0  0  0  0
   56.0940   23.6120   47.6830 N   0  0  0  0  0  0  0  0  0  0  0  0
   56.5840   22.4070   47.6260 C   0  0  0  0  0  0  0  0  0  0  0  0
   57.3650   21.9160   48.5580 O   0  0  0  0  0  0  0  0  0  0  0  0
   57.7230   20.6980   48.2750 N   0  0  0  0  0  0  0  0  0  0  0  0
   57.1330   20.3820   47.1060 C   0  0  0  0  0  0  0  0  0  0  0  0
   57.3360   19.0860   46.3940 C   0  0  0  0  0  0  0  0  0  0  0  0
   57.4624   18.2789   47.1306 H   0  0  0  0  0  0  0  0  0  0  0  0
   56.4603   18.8730   45.7633 H   0  0  0  0  0  0  0  0  0  0  0  0
   58.2349   19.1510   45.7633 H   0  0  0  0  0  0  0  0  0  0  0  0
   56.3970   21.4520   46.6390 C   0  0  0  0  0  0  0  0  0  0  0  0
   55.8080   21.5281   45.7131 H   0  0  0  0  0  0  0  0  0  0  0  0
   57.5620   27.6020   46.3430 C   0  0  0  0  0  0  0  0  0  0  0  0
   56.7214   27.5982   45.6335 H   0  0  0  0  0  0  0  0  0  0  0  0
   56.1640   29.8510   44.3380 C   0  0  0  0  0  0  0  0  0  0  0  0
   55.3080   28.9850   45.0090 O   0  0  0  0  0  0  0  0  0  0  0  0
   55.8910   30.1890   43.0080 C   0  0  0  0  0  0  0  0  0  0  0  0
   54.9857   29.8010   42.5183 H   0  0  0  0  0  0  0  0  0  0  0  0
  1  2  1  0
  2  3  2  0
  3  4  1  0
  3  5  1  0
  5  6  1  0
  5  7  2  0
  7  8  1  0
  8  9  1  0
  9 10  2  0
 10 11  1  0
 10 12  1  0
 12 13  1  0
 12 14  2  0
 14 15  1  0
 14 16  1  0
 16 17  1  0
 17 18  1  0
 18 19  2  0
 18 20  1  0
 20 21  2  0
 21 22  1  0
 22 23  1  0
 23 24  1  0
 24 25  1  0
 25 26  1  0
 25 27  1  0
 25 28  1  0
 24 29  2  0
 29 30  1  0
 16 31  2  0
 31 32  1  0
  7 33  1  0
 33 34  1  0
 33 35  2  0
 35 36  1  0
 35  2  1  0
 31  9  1  0
 29 21  1  0
M  CHG  3  17  -1  23  -1  34  -1
M  END
>  <UniqueID>  (41) 
38

>  <SMILES>  (41) 
Cc1c/c(=N\C(=O)[N-]c2cccc(Oc3ccccc3[O-])c2)o[n-]1

>  <Energy>  (41) 
83.87254301842407

>  <Genealogy>  (41) 
Cc1cc(=NC(=O)[N-]c2cccc(Oc3ccccc3[O-])c2)o[n-]1 (protonated)
Cc1c/c(=N\C(=O)[N-]c2cccc(Oc3ccccc3[O-])c2)o[n-]1 (cis-trans isomerization)
Cc1c/c(=N\C(=O)[N-]c2cccc(Oc3ccccc3[O-])c2)o[n-]1 (3D coordinates assigned)
Cc1c/c(=N\C(=O)[N-]c2cccc(Oc3ccccc3[O-])c2)o[n-]1 (optimized conformer: 83.87254301842407 kcal/mol)

>  <smiles>  (41) 
Cc1cc(=NC(=O)Nc2cccc(Oc3ccccc3O)c2)o[nH]1

>  <score_type>  (41) 
oracle

>  <origin>  (41) 
adg

>  <m_score__min__energy>  (41) 
-15.109999999999999

>  <m_primary>  (41) 
energy

$$$$
41:0
     RDKit          3D

 28 29  0  0  0  0  0  0  0  0999 V2000
   57.7260   30.2060   54.9920 C   0  0  0  0  0  0  0  0  0  0  0  0
   57.5880   31.0470   53.8030 N   0  0  0  0  0  0  0  0  0  0  0  0
   58.1070   32.2820   53.6620 C   0  0  0  0  0  0  0  0  0  0  0  0
   57.8110   32.7440   52.3940 C   0  0  0  0  0  0  0  0  0  0  0  0
   57.1050   31.7190   51.7940 C   0  0  0  0  0  0  0  0  0  0  0  0
   56.9960   30.6980   52.6670 N   0  0  0  0  0  0  0  0  0  0  0  0
   56.3220   29.4220   52.4030 C   0  0  0  0  0  0  0  0  0  0  0  0
   54.9810   29.3730   53.0870 C   0  0  0  0  0  0  0  0  0  0  0  0
   54.8140   28.5340   54.0140 O   0  0  0  0  0  0  0  0  0  0  0  0
   53.8520   30.2550   52.6900 C   0  0  0  0  0  0  0  0  0  0  0  0
   52.8060   30.5010   53.6000 C   0  0  0  0  0  0  0  0  0  0  0  0
   51.7310   31.3220   53.2410 C   0  0  0  0  0  0  0  0  0  0  0  0
   51.6910   31.9100   51.9740 C   0  0  0  0  0  0  0  0  0  0  0  0
   50.6220   32.7250   51.6200 O   0  0  0  0  0  0  0  0  0  0  0  0
   52.7270   31.6810   51.0660 C   0  0  0  0  0  0  0  0  0  0  0  0
   53.8030   30.8620   51.4200 C   0  0  0  0  0  0  0  0  0  0  0  0
   57.6241   30.8270   55.8942 H   0  0  0  0  0  0  0  0  0  0  0  0
   56.9425   29.4339   54.9879 H   0  0  0  0  0  0  0  0  0  0  0  0
   58.7151   29.7247   54.9879 H   0  0  0  0  0  0  0  0  0  0  0  0
   58.6725   32.8314   54.4290 H   0  0  0  0  0  0  0  0  0  0  0  0
   58.0793   33.7171   51.9568 H   0  0  0  0  0  0  0  0  0  0  0  0
   56.6987   31.7338   50.7719 H   0  0  0  0  0  0  0  0  0  0  0  0
   56.1779   29.3081   51.3185 H   0  0  0  0  0  0  0  0  0  0  0  0
   56.9471   28.6059   52.7944 H   0  0  0  0  0  0  0  0  0  0  0  0
   52.8340   30.0445   54.6004 H   0  0  0  0  0  0  0  0  0  0  0  0
   50.9164   31.5047   53.9572 H   0  0  0  0  0  0  0  0  0  0  0  0
   52.6962   32.1463   50.0697 H   0  0  0  0  0  0  0  0  0  0  0  0
   54.6177   30.6902   50.7012 H   0  0  0  0  0  0  0  0  0  0  0  0
  1  2  1  0
  2  3  2  0
  3  4  1  0
  4  5  2  0
  5  6  1  0
  6  7  1  0
  7  8  1  0
  8  9  2  0
  8 10  1  0
 10 11  2  0
 11 12  1  0
 12 13  2  0
 13 14  1  0
 13 15  1  0
 15 16  2  0
  6  2  1  0
 16 10  1  0
  1 17  1  0
  1 18  1  0
  1 19  1  0
  3 20  1  0
  4 21  1  0
  5 22  1  0
  7 23  1  0
  7 24  1  0
 11 25  1  0
 12 26  1  0
 15 27  1  0
 16 28  1  0
M  CHG  2   2   1  14  -1
M  END
>  <UniqueID>  (42) 
39

>  <SMILES>  (42) 
C[n+]1cccn1CC(=O)c1ccc([O-])cc1

>  <Energy>  (42) 
58.98419784445114

>  <Genealogy>  (42) 
C[n+]1cccn1CC(=O)c1ccc([O-])cc1 (protonated)
C[n+]1cccn1CC(=O)c1ccc([O-])cc1 (3D coordinates assigned)
C[n+]1cccn1CC(=O)c1ccc([O-])cc1 (optimized conformer: 58.98419784445114 kcal/mol)

>  <smiles>  (42) 
C[n+]1cccn1CC(=O)c1ccc(O)cc1

>  <score_type>  (42) 
oracle

>  <origin>  (42) 
adg

>  <m_score__min__energy>  (42) 
-8.0899999999999999

>  <m_primary>  (42) 
energy

$$$$
42:0
     RDKit          3D

 34 35  0  0  0  0  0  0  0  0999 V2000
   58.5820   32.3190   49.2970 C   0  0  0  0  0  0  0  0  0  0  0  0
   58.2030   32.2070   47.9290 O   0  0  0  0  0  0  0  0  0  0  0  0
   58.6000   33.0950   46.9160 C   0  0  0  0  0  0  0  0  0  0  0  0
   59.3500   34.2560   47.2000 C   0  0  0  0  0  0  0  0  0  0  0  0
   59.6820   35.1500   46.1800 C   0  0  0  0  0  0  0  0  0  0  0  0
   59.2690   34.9030   44.8710 C   0  0  0  0  0  0  0  0  0  0  0  0
   58.5340   33.7540   44.5750 C   0  0  0  0  0  0  0  0  0  0  0  0
   58.2170   32.8320   45.5830 C   0  0  0  0  0  0  0  0  0  0  0  0
   57.4560   31.6630   45.2420 N   0  0  0  0  0  0  0  0  0  0  0  0
   57.1180   31.3110   43.8920 C   0  0  0  0  0  0  0  0  0  0  0  0
   57.3960   32.0870   42.9390 O   0  0  0  0  0  0  0  0  0  0  0  0
   56.3880   30.0330   43.6140 C   0  0  0  0  0  0  0  0  0  0  0  0
   55.9760   29.3950   44.8640 N   0  0  0  0  0  0  0  0  0  0  0  0
   57.0580   28.1020   45.2910 S   0  0  0  0  0  0  0  0  0  0  0  0
   56.3330   27.0670   46.1050 O   0  0  0  0  0  0  0  0  0  0  0  0
   57.5740   27.4530   44.0390 O   0  0  0  0  0  0  0  0  0  0  0  0
   58.4170   28.7260   46.2100 C   0  0  0  0  0  0  0  0  0  0  0  0
   58.5460   28.7040   47.5900 C   0  0  0  0  0  0  0  0  0  0  0  0
   59.7320   29.3000   48.0350 C   0  0  0  0  0  0  0  0  0  0  0  0
   60.5290   29.7930   47.0080 C   0  0  0  0  0  0  0  0  0  0  0  0
   59.7580   29.4870   45.5440 S   0  0  0  0  0  0  0  0  0  0  0  0
   57.7241   32.0655   49.9371 H   0  0  0  0  0  0  0  0  0  0  0  0
   59.4119   31.6277   49.5053 H   0  0  0  0  0  0  0  0  0  0  0  0
   58.9028   33.3503   49.5053 H   0  0  0  0  0  0  0  0  0  0  0  0
   59.6751   34.4581   48.2312 H   0  0  0  0  0  0  0  0  0  0  0  0
   60.2703   36.0507   46.4093 H   0  0  0  0  0  0  0  0  0  0  0  0
   59.5227   35.6143   44.0712 H   0  0  0  0  0  0  0  0  0  0  0  0
   58.2008   33.5702   43.5429 H   0  0  0  0  0  0  0  0  0  0  0  0
   56.9900   31.1370   46.0160 H   0  0  0  0  0  0  0  0  0  0  0  0
   55.4963   30.2502   43.0076 H   0  0  0  0  0  0  0  0  0  0  0  0
   57.0593   29.3511   43.0714 H   0  0  0  0  0  0  0  0  0  0  0  0
   57.7959   28.2647   48.2641 H   0  0  0  0  0  0  0  0  0  0  0  0
   60.0075   29.3715   49.0975 H   0  0  0  0  0  0  0  0  0  0  0  0
   61.4987   30.2973   47.1315 H   0  0  0  0  0  0  0  0  0  0  0  0
  1  2  1  0
  2  3  1  0
  3  4  2  0
  4  5  1  0
  5  6  2  0
  6  7  1  0
  7  8  2  0
  8  9  1  0
  9 10  1  0
 10 11  2  0
 10 12  1  0
 12 13  1  0
 13 14  1  0
 14 15  2  0
 14 16  2  0
 14 17  1  0
 17 18  2  0
 18 19  1  0
 19 20  2  0
 20 21  1  0
  8  3  1  0
 21 17  1  0
  1 22  1  0
  1 23  1  0
  1 24  1  0
  4 25  1  0
  5 26  1  0
  6 27  1  0
  7 28  1  0
  9 29  1  0
 12 30  1  0
 12 31  1  0
 18 32  1  0
 19 33  1  0
 20 34  1  0
M  CHG  1  13  -1
M  END
>  <UniqueID>  (43) 
40

>  <SMILES>  (43) 
COc1ccccc1NC(=O)C[N-]S(=O)(=O)c1cccs1

>  <Energy>  (43) 
62.00994067985211

>  <Genealogy>  (43) 
COc1ccccc1NC(=O)C[N-]S(=O)(=O)c1cccs1 (protonated)
COc1ccccc1NC(=O)C[N-]S(=O)(=O)c1cccs1 (3D coordinates assigned)
COc1ccccc1NC(=O)C[N-]S(=O)(=O)c1cccs1 (optimized conformer: 62.00994067985211 kcal/mol)

>  <smiles>  (43) 
COc1ccccc1NC(=O)CNS(=O)(=O)c1cccs1

>  <score_type>  (43) 
oracle

>  <origin>  (43) 
adg

>  <m_score__min__energy>  (43) 
-9.3300000000000001

>  <m_primary>  (43) 
energy

$$$$
43:0
     RDKit          3D

 55 57  0  0  0  0  0  0  0  0999 V2000
   59.6520   27.2030   46.5720 C   0  0  0  0  0  0  0  0  0  0  0  0
   58.8240   28.3940   46.2050 C   0  0  0  0  0  0  0  0  0  0  0  0
   57.6710   28.2030   45.6290 N   0  0  0  0  0  0  0  0  0  0  0  0
   56.8170   29.2890   45.2610 C   0  0  0  0  0  0  0  0  0  0  0  0
   55.6460   29.0660   44.8600 O   0  0  0  0  0  0  0  0  0  0  0  0
   57.3010   30.6280   45.3560 N   0  0  0  0  0  0  0  0  0  0  0  0
   58.7200   30.8430   45.6060 C   0  0  1  0  0  0  0  0  0  0  0  0
   59.0550   32.2840   45.9940 C   0  0  0  0  0  0  0  0  0  0  0  0
   58.0430   33.2390   45.7670 C   0  0  0  0  0  0  0  0  0  0  0  0
   58.2490   34.5910   46.0360 C   0  0  0  0  0  0  0  0  0  0  0  0
   59.4740   35.0250   46.5300 C   0  0  0  0  0  0  0  0  0  0  0  0
   60.5000   34.1100   46.7480 C   0  0  0  0  0  0  0  0  0  0  0  0
   60.3240   32.7390   46.4740 C   0  0  0  0  0  0  0  0  0  0  0  0
   61.5050   31.8330   46.7550 C   0  0  0  0  0  0  0  0  0  0  0  0
   62.7610   32.6530   47.0880 C   0  0  0  0  0  0  0  0  0  0  0  0
   63.1070   32.5310   48.5220 N   0  0  0  0  0  0  0  0  0  0  0  0
   62.3150   31.4680   49.1700 C   0  0  0  0  0  0  0  0  0  0  0  0
   62.8570   33.8080   49.2110 C   0  0  0  0  0  0  0  0  0  0  0  0
   59.2770   29.7920   46.6040 C   0  0  1  0  0  0  0  0  0  0  0  0
   58.8950   30.0820   48.0320 C   0  0  0  0  0  0  0  0  0  0  0  0
   58.1710   29.2760   48.6800 O   0  0  0  0  0  0  0  0  0  0  0  0
   59.3180   31.2800   48.6150 O   0  0  0  0  0  0  0  0  0  0  0  0
   58.4230   32.3170   49.0100 C   0  0  0  0  0  0  0  0  0  0  0  0
   58.6010   32.6420   50.4680 C   0  0  0  0  0  0  0  0  0  0  0  0
   57.7460   32.0890   51.4350 C   0  0  0  0  0  0  0  0  0  0  0  0
   57.9260   32.3900   52.7890 C   0  0  0  0  0  0  0  0  0  0  0  0
   58.9570   33.2460   53.1860 C   0  0  0  0  0  0  0  0  0  0  0  0
   59.8050   33.8090   52.2290 C   0  0  0  0  0  0  0  0  0  0  0  0
   59.6270   33.5130   50.8730 C   0  0  0  0  0  0  0  0  0  0  0  0
   59.7097   27.1200   47.6673 H   0  0  0  0  0  0  0  0  0  0  0  0
   59.1901   26.2940   46.1592 H   0  0  0  0  0  0  0  0  0  0  0  0
   60.6650   27.3194   46.1592 H   0  0  0  0  0  0  0  0  0  0  0  0
   59.2424   30.6879   44.6505 H   0  0  0  0  0  0  0  0  0  0  0  0
   57.0713   32.9105   45.3696 H   0  0  0  0  0  0  0  0  0  0  0  0
   57.4411   35.3158   45.8572 H   0  0  0  0  0  0  0  0  0  0  0  0
   59.6324   36.0914   46.7485 H   0  0  0  0  0  0  0  0  0  0  0  0
   61.4648   34.4632   47.1409 H   0  0  0  0  0  0  0  0  0  0  0  0
   61.2639   31.1818   47.6081 H   0  0  0  0  0  0  0  0  0  0  0  0
   61.7071   31.2317   45.8563 H   0  0  0  0  0  0  0  0  0  0  0  0
   63.6022   32.2853   46.4821 H   0  0  0  0  0  0  0  0  0  0  0  0
   62.5595   33.7109   46.8640 H   0  0  0  0  0  0  0  0  0  0  0  0
   62.3903   31.5691   50.2628 H   0  0  0  0  0  0  0  0  0  0  0  0
   61.2619   31.5578   48.8652 H   0  0  0  0  0  0  0  0  0  0  0  0
   62.7023   30.4846   48.8652 H   0  0  0  0  0  0  0  0  0  0  0  0
   62.8880   33.6497   50.2991 H   0  0  0  0  0  0  0  0  0  0  0  0
   63.6295   34.5367   48.9243 H   0  0  0  0  0  0  0  0  0  0  0  0
   61.8667   34.1916   48.9243 H   0  0  0  0  0  0  0  0  0  0  0  0
   60.3742   29.8507   46.5519 H   0  0  0  0  0  0  0  0  0  0  0  0
   58.6258   33.2173   48.4114 H   0  0  0  0  0  0  0  0  0  0  0  0
   57.3901   31.9761   48.8458 H   0  0  0  0  0  0  0  0  0  0  0  0
   56.9318   31.4167   51.1265 H   0  0  0  0  0  0  0  0  0  0  0  0
   57.2549   31.9522   53.5427 H   0  0  0  0  0  0  0  0  0  0  0  0
   59.1008   33.4764   54.2519 H   0  0  0  0  0  0  0  0  0  0  0  0
   60.6137   34.4859   52.5419 H   0  0  0  0  0  0  0  0  0  0  0  0
   60.2922   33.9635   50.1216 H   0  0  0  0  0  0  0  0  0  0  0  0
  1  2  1  0
  2  3  2  0
  3  4  1  0
  4  5  2  0
  4  6  1  0
  6  7  1  0
  7  8  1  0
  8  9  2  0
  9 10  1  0
 10 11  2  0
 11 12  1  0
 12 13  2  0
 13 14  1  0
 14 15  1  0
 15 16  1  0
 16 17  1  0
 16 18  1  0
  7 19  1  0
 19 20  1  0
 20 21  2  0
 20 22  1  0
 22 23  1  0
 23 24  1  0
 24 25  2  0
 25 26  1  0
 26 27  2  0
 27 28  1  0
 28 29  2  0
 19  2  1  0
 29 24  1  0
 13  8  1  0
  1 30  1  0
  1 31  1  0
  1 32  1  0
  7 33  1  6
  9 34  1  0
 10 35  1  0
 11 36  1  0
 12 37  1  0
 14 38  1  0
 14 39  1  0
 15 40  1  0
 15 41  1  0
 17 42  1  0
 17 43  1  0
 17 44  1  0
 18 45  1  0
 18 46  1  0
 18 47  1  0
 19 48  1  1
 23 49  1  0
 23 50  1  0
 25 51  1  0
 26 52  1  0
 27 53  1  0
 28 54  1  0
 29 55  1  0
M  CHG  1   6  -1
M  END
>  <UniqueID>  (44) 
41

>  <SMILES>  (44) 
CC1=NC(=O)[N-][C@@H](c2ccccc2CCN(C)C)[C@H]1C(=O)OCc1ccccc1

>  <Energy>  (44) 
55.810859537200294

>  <Genealogy>  (44) 
CC1=NC(=O)[N-]C(c2ccccc2CCN(C)C)C1C(=O)OCc1ccccc1 (protonated)
CC1=NC(=O)[N-][C@@H](c2ccccc2CCN(C)C)[C@H]1C(=O)OCc1ccccc1 (chirality)
CC1=NC(=O)[N-][C@@H](c2ccccc2CCN(C)C)[C@H]1C(=O)OCc1ccccc1 (3D coordinates assigned)
CC1=NC(=O)[N-][C@@H](c2ccccc2CCN(C)C)[C@H]1C(=O)OCc1ccccc1 (nonaromatic ring conformer: 55.810859537200294 kcal/mol)

>  <smiles>  (44) 
CC1=NC(=O)NC(c2ccccc2CCN(C)C)C1C(=O)OCc1ccccc1

>  <score_type>  (44) 
oracle

>  <origin>  (44) 
adg

>  <m_score__min__energy>  (44) 
-9.6300000000000008

>  <m_primary>  (44) 
energy

$$$$
44:0
     RDKit          3D

 47 48  0  0  0  0  0  0  0  0999 V2000
   58.8170   27.4320   48.4660 H   0  0  0  0  0  0  0  0  0  0  0  0
   59.7880   27.3250   48.6510 O   0  0  0  0  0  0  0  0  0  0  0  0
   60.3150   28.6120   48.8080 C   0  0  0  0  0  0  0  0  0  0  0  0
   61.2770   28.6784   48.2788 H   0  0  0  0  0  0  0  0  0  0  0  0
   60.4629   28.8125   49.8794 H   0  0  0  0  0  0  0  0  0  0  0  0
   59.3670   29.6290   48.2440 C   0  0  0  0  0  0  0  0  0  0  0  0
   59.4680   30.8260   48.6230 O   0  0  0  0  0  0  0  0  0  0  0  0
   58.3880   29.2390   47.1990 C   0  0  0  0  0  0  0  0  0  0  0  0
   58.0700   27.9500   47.1010 O   0  0  0  0  0  0  0  0  0  0  0  0
   57.2310   27.4670   46.1890 C   0  0  0  0  0  0  0  0  0  0  0  0
   56.9170   25.9910   46.1610 C   0  0  0  0  0  0  0  0  0  0  0  0
   57.3270   25.5845   45.2247 H   0  0  0  0  0  0  0  0  0  0  0  0
   57.5330   25.3120   47.2290 O   0  0  0  0  0  0  0  0  0  0  0  0
   58.2060   25.9230   47.6300 H   0  0  0  0  0  0  0  0  0  0  0  0
   55.5290   25.7710   46.1660 O   0  0  0  0  0  0  0  0  0  0  0  0
   55.1370   26.3390   46.8820 H   0  0  0  0  0  0  0  0  0  0  0  0
   56.6270   28.3300   45.2700 C   0  0  0  0  0  0  0  0  0  0  0  0
   55.9297   27.9382   44.5149 H   0  0  0  0  0  0  0  0  0  0  0  0
   56.9200   29.7030   45.3210 C   0  0  0  0  0  0  0  0  0  0  0  0
   56.3830   30.5620   44.4960 N   0  0  0  0  0  0  0  0  0  0  0  0
   56.2090   30.4120   43.0480 C   0  0  0  0  0  0  0  0  0  0  0  0
   55.1640   30.6328   42.7850 H   0  0  0  0  0  0  0  0  0  0  0  0
   57.0890   31.3470   42.3470 N   0  0  0  0  0  0  0  0  0  0  0  0
   58.0520   30.9430   42.3080 H   0  0  0  0  0  0  0  0  0  0  0  0
   57.1480   32.2260   42.9110 H   0  0  0  0  0  0  0  0  0  0  0  0
   56.5180   29.0390   42.6470 N   0  0  0  0  0  0  0  0  0  0  0  0
   57.4840   29.0110   42.2440 H   0  0  0  0  0  0  0  0  0  0  0  0
   55.8550   28.7600   41.8870 H   0  0  0  0  0  0  0  0  0  0  0  0
   57.8060   30.1680   46.3060 C   0  0  0  0  0  0  0  0  0  0  0  0
   58.0850   31.5720   46.3960 N   0  0  0  0  0  0  0  0  0  0  0  0
   58.1060   32.0050   47.3450 H   0  0  0  0  0  0  0  0  0  0  0  0
   58.6860   32.2830   45.3040 C   0  0  0  0  0  0  0  0  0  0  0  0
   58.7750   31.7460   44.1660 O   0  0  0  0  0  0  0  0  0  0  0  0
   59.2780   33.6390   45.5300 C   0  0  0  0  0  0  0  0  0  0  0  0
   59.9387   33.8937   44.6882 H   0  0  0  0  0  0  0  0  0  0  0  0
   58.4687   34.3803   45.6042 H   0  0  0  0  0  0  0  0  0  0  0  0
   60.0720   33.6430   46.8060 C   0  0  0  0  0  0  0  0  0  0  0  0
   59.4760   34.0480   48.0140 C   0  0  0  0  0  0  0  0  0  0  0  0
   58.4319   34.3942   48.0212 H   0  0  0  0  0  0  0  0  0  0  0  0
   60.2060   34.0120   49.2050 C   0  0  0  0  0  0  0  0  0  0  0  0
   59.7388   34.3408   50.1450 H   0  0  0  0  0  0  0  0  0  0  0  0
   61.5290   33.5590   49.2050 C   0  0  0  0  0  0  0  0  0  0  0  0
   62.1007   33.5298   50.1443 H   0  0  0  0  0  0  0  0  0  0  0  0
   62.1250   33.1430   48.0100 C   0  0  0  0  0  0  0  0  0  0  0  0
   63.1655   32.7862   48.0103 H   0  0  0  0  0  0  0  0  0  0  0  0
   61.4000   33.1800   46.8150 C   0  0  0  0  0  0  0  0  0  0  0  0
   61.8701   32.8457   45.8784 H   0  0  0  0  0  0  0  0  0  0  0  0
  1  2  1  0
  2  3  1  0
  3  4  1  0
  3  5  1  0
  3  6  1  0
  6  7  2  0
  6  8  1  0
  8  9  1  0
  9 10  1  0
 10 11  1  0
 11 12  1  0
 11 13  1  0
 13 14  1  0
 11 15  1  0
 15 16  1  0
 10 17  2  0
 17 18  1  0
 17 19  1  0
 19 20  2  0
 20 21  1  0
 21 22  1  0
 21 23  1  0
 23 24  1  0
 23 25  1  0
 21 26  1  0
 26 27  1  0
 26 28  1  0
 19 29  1  0
 29 30  1  0
 30 31  1  0
 30 32  1  0
 32 33  2  0
 32 34  1  0
 34 35  1  0
 34 36  1  0
 34 37  1  0
 37 38  2  0
 38 39  1  0
 38 40  1  0
 40 41  1  0
 40 42  2  0
 42 43  1  0
 42 44  1  0
 44 45  1  0
 44 46  2  0
 46 47  1  0
 29  8  2  0
 46 37  1  0
M  END
>  <UniqueID>  (45) 
42

>  <SMILES>  (45) 
NC(N)/N=c1\cc(C(O)O)oc(C(=O)CO)c1NC(=O)Cc1ccccc1

>  <Energy>  (45) 
52.791229334886154

>  <Genealogy>  (45) 
NC(N)/N=c1\cc(C(O)O)oc(C(=O)CO)c1NC(=O)Cc1ccccc1 (cis-trans isomerization)
NC(N)/N=c1\cc(C(O)O)oc(C(=O)CO)c1NC(=O)Cc1ccccc1 (3D coordinates assigned)
NC(N)/N=c1\cc(C(O)O)oc(C(=O)CO)c1NC(=O)Cc1ccccc1 (optimized conformer: 52.791229334886154 kcal/mol)

>  <smiles>  (45) 
NC(N)N=c1cc(C(O)O)oc(C(=O)CO)c1NC(=O)Cc1ccccc1

>  <score_type>  (45) 
oracle

>  <origin>  (45) 
adg

>  <m_score__min__energy>  (45) 
-7.2800000000000002

>  <m_primary>  (45) 
energy

$$$$
45:0
     RDKit          3D

 45 47  0  0  0  0  0  0  0  0999 V2000
   59.9354   26.8595   48.0725 H   0  0  0  0  0  0  0  0  0  0  0  0
   59.9160   27.9580   48.1260 C   0  0  0  0  0  0  0  0  0  0  0  0
   60.8240   28.6080   48.8970 N   0  0  0  0  0  0  0  0  0  0  0  0
   60.8520   29.9640   48.9870 C   0  0  0  0  0  0  0  0  0  0  0  0
   61.8070   30.6040   49.8500 N   0  0  0  0  0  0  0  0  0  0  0  0
   61.3430   30.8890   50.7440 H   0  0  0  0  0  0  0  0  0  0  0  0
   62.5650   29.9300   50.1050 H   0  0  0  0  0  0  0  0  0  0  0  0
   62.3590   31.7600   49.1830 C   0  0  0  0  0  0  0  0  0  0  0  0
   63.1340   31.5950   48.0220 C   0  0  0  0  0  0  0  0  0  0  0  0
   63.3406   30.5825   47.6448 H   0  0  0  0  0  0  0  0  0  0  0  0
   63.6440   32.7020   47.3430 C   0  0  0  0  0  0  0  0  0  0  0  0
   64.2536   32.5596   46.4385 H   0  0  0  0  0  0  0  0  0  0  0  0
   63.3810   33.9890   47.8110 C   0  0  0  0  0  0  0  0  0  0  0  0
   63.7854   34.8607   47.2756 H   0  0  0  0  0  0  0  0  0  0  0  0
   62.6060   34.1740   48.9570 C   0  0  0  0  0  0  0  0  0  0  0  0
   62.4018   35.1922   49.3197 H   0  0  0  0  0  0  0  0  0  0  0  0
   62.0830   33.0650   49.6530 C   0  0  0  0  0  0  0  0  0  0  0  0
   61.2900   33.2200   50.8020 O   0  0  0  0  0  0  0  0  0  0  0  0
   59.8880   33.4680   50.7890 C   0  0  0  0  0  0  0  0  0  0  0  0
   59.5176   33.5335   51.8227 H   0  0  0  0  0  0  0  0  0  0  0  0
   59.6881   34.4155   50.2671 H   0  0  0  0  0  0  0  0  0  0  0  0
   59.3752   32.6466   50.2671 H   0  0  0  0  0  0  0  0  0  0  0  0
   59.9090   30.7210   48.2780 C   0  0  0  0  0  0  0  0  0  0  0  0
   59.9254   31.8186   48.3490 H   0  0  0  0  0  0  0  0  0  0  0  0
   58.9450   30.0900   47.4790 C   0  0  0  0  0  0  0  0  0  0  0  0
   58.0870   30.8640   46.8710 N   0  0  0  0  0  0  0  0  0  0  0  0
   58.3220   32.0940   46.1770 C   0  0  0  0  0  0  0  0  0  0  0  0
   58.8210   33.1940   46.8880 C   0  0  0  0  0  0  0  0  0  0  0  0
   59.0410   33.0983   47.9615 H   0  0  0  0  0  0  0  0  0  0  0  0
   59.0400   34.4110   46.2390 C   0  0  0  0  0  0  0  0  0  0  0  0
   59.4417   35.2685   46.7987 H   0  0  0  0  0  0  0  0  0  0  0  0
   58.7490   34.5390   44.8800 C   0  0  0  0  0  0  0  0  0  0  0  0
   58.9319   35.4949   44.3674 H   0  0  0  0  0  0  0  0  0  0  0  0
   58.2260   33.4560   44.1690 C   0  0  0  0  0  0  0  0  0  0  0  0
   57.9943   33.5655   43.0993 H   0  0  0  0  0  0  0  0  0  0  0  0
   57.9940   32.2280   44.8110 C   0  0  0  0  0  0  0  0  0  0  0  0
   57.3170   30.8630   43.9100 S   0  0  0  0  0  0  0  0  0  0  0  0
   56.0020   30.4670   44.5220 O   0  0  0  0  0  0  0  0  0  0  0  0
   58.2690   29.7010   43.9780 O   0  0  0  0  0  0  0  0  0  0  0  0
   57.0260   31.2620   42.1980 C   0  0  0  0  0  0  0  0  0  0  0  0
   56.3789   32.1492   42.1331 H   0  0  0  0  0  0  0  0  0  0  0  0
   57.9854   31.4708   41.7020 H   0  0  0  0  0  0  0  0  0  0  0  0
   56.5341   30.4123   41.7020 H   0  0  0  0  0  0  0  0  0  0  0  0
   58.9550   28.6690   47.3980 C   0  0  0  0  0  0  0  0  0  0  0  0
   57.8440   27.6970   46.4330 Cl  0  0  0  0  0  0  0  0  0  0  0  0
  1  2  1  0
  2  3  1  0
  3  4  1  0
  4  5  1  0
  5  6  1  0
  5  7  1  0
  5  8  1  0
  8  9  2  0
  9 10  1  0
  9 11  1  0
 11 12  1  0
 11 13  2  0
 13 14  1  0
 13 15  1  0
 15 16  1  0
 15 17  2  0
 17 18  1  0
 18 19  1  0
 19 20  1  0
 19 21  1  0
 19 22  1  0
  4 23  2  0
 23 24  1  0
 23 25  1  0
 25 26  2  0
 26 27  1  0
 27 28  2  0
 28 29  1  0
 28 30  1  0
 30 31  1  0
 30 32  2  0
 32 33  1  0
 32 34  1  0
 34 35  1  0
 34 36  2  0
 36 37  1  0
 37 38  2  0
 37 39  2  0
 37 40  1  0
 40 41  1  0
 40 42  1  0
 40 43  1  0
 25 44  1  0
 44 45  1  0
 44  2  2  0
 17  8  1  0
 36 27  1  0
M  CHG  2   3  -1   5   1
M  END
>  <UniqueID>  (46) 
43

>  <SMILES>  (46) 
COc1ccccc1[NH2+]c1c/c(=N/c2ccccc2S(C)(=O)=O)c(Cl)c[n-]1

>  <Energy>  (46) 
63.81926916207529

>  <Genealogy>  (46) 
COc1ccccc1[NH2+]c1cc(=Nc2ccccc2S(C)(=O)=O)c(Cl)c[n-]1 (protonated)
COc1ccccc1[NH2+]c1c/c(=N/c2ccccc2S(C)(=O)=O)c(Cl)c[n-]1 (cis-trans isomerization)
COc1ccccc1[NH2+]c1c/c(=N/c2ccccc2S(C)(=O)=O)c(Cl)c[n-]1 (3D coordinates assigned)
COc1ccccc1[NH2+]c1c/c(=N/c2ccccc2S(C)(=O)=O)c(Cl)c[n-]1 (optimized conformer: 63.81926916207529 kcal/mol)

>  <smiles>  (46) 
COc1ccccc1Nc1cc(=Nc2ccccc2S(C)(=O)=O)c(Cl)c[nH]1

>  <score_type>  (46) 
oracle

>  <origin>  (46) 
adg

>  <m_score__min__energy>  (46) 
-8.25

>  <m_primary>  (46) 
energy

$$$$
46:0
     RDKit          3D

 39 41  0  0  0  0  0  0  0  0999 V2000
   61.5250   33.9190   49.3470 C   0  0  0  0  0  0  0  0  0  0  0  0
   60.1390   33.5970   49.3040 O   0  0  0  0  0  0  0  0  0  0  0  0
   59.4680   33.1200   48.1670 C   0  0  0  0  0  0  0  0  0  0  0  0
   59.0210   33.9800   47.1450 C   0  0  0  0  0  0  0  0  0  0  0  0
   58.3670   33.4660   46.0240 C   0  0  0  0  0  0  0  0  0  0  0  0
   58.1430   32.0900   45.9090 C   0  0  0  0  0  0  0  0  0  0  0  0
   57.3620   31.4200   44.4780 S   0  0  0  0  0  0  0  0  0  0  0  0
   55.9220   31.1420   44.8050 O   0  0  0  0  0  0  0  0  0  0  0  0
   57.4270   32.3920   43.3330 O   0  0  0  0  0  0  0  0  0  0  0  0
   58.1420   29.9420   44.0140 N   0  0  0  0  0  0  0  0  0  0  0  0
   58.0970   28.7680   44.8420 C   0  0  0  0  0  0  0  0  0  0  0  0
   59.2980   28.1550   45.3050 C   0  0  0  0  0  0  0  0  0  0  0  0
   60.6420   28.7170   44.9550 C   0  0  0  0  0  0  0  0  0  0  0  0
   59.2410   27.0210   46.0670 N   0  0  0  0  0  0  0  0  0  0  0  0
   58.0350   26.4930   46.3750 C   0  0  0  0  0  0  0  0  0  0  0  0
   57.8250   25.3890   47.1100 N   0  0  0  0  0  0  0  0  0  0  0  0
   56.4650   25.3280   47.1040 C   0  0  0  0  0  0  0  0  0  0  0  0
   55.8890   26.3380   46.4070 N   0  0  0  0  0  0  0  0  0  0  0  0
   56.9020   27.0530   45.9600 N   0  0  0  0  0  0  0  0  0  0  0  0
   56.8670   28.1780   45.2080 C   0  0  0  0  0  0  0  0  0  0  0  0
   55.7650   28.6830   44.8660 O   0  0  0  0  0  0  0  0  0  0  0  0
   58.5680   31.2320   46.9290 C   0  0  0  0  0  0  0  0  0  0  0  0
   59.2450   31.7370   48.0550 C   0  0  0  0  0  0  0  0  0  0  0  0
   59.7140   30.8990   49.0790 O   0  0  0  0  0  0  0  0  0  0  0  0
   59.9320   29.5000   48.9350 C   0  0  0  0  0  0  0  0  0  0  0  0
   61.8515   33.9948   50.3947 H   0  0  0  0  0  0  0  0  0  0  0  0
   62.1005   33.1306   48.8398 H   0  0  0  0  0  0  0  0  0  0  0  0
   61.6940   34.8803   48.8398 H   0  0  0  0  0  0  0  0  0  0  0  0
   59.1884   35.0638   47.2308 H   0  0  0  0  0  0  0  0  0  0  0  0
   58.0267   34.1452   45.2285 H   0  0  0  0  0  0  0  0  0  0  0  0
   58.4250   29.8510   43.0140 H   0  0  0  0  0  0  0  0  0  0  0  0
   61.1944   28.9480   45.8777 H   0  0  0  0  0  0  0  0  0  0  0  0
   61.2057   27.9792   44.3651 H   0  0  0  0  0  0  0  0  0  0  0  0
   60.5127   29.6364   44.3651 H   0  0  0  0  0  0  0  0  0  0  0  0
   55.8917   24.5392   47.6131 H   0  0  0  0  0  0  0  0  0  0  0  0
   58.3713   30.1526   46.8503 H   0  0  0  0  0  0  0  0  0  0  0  0
   60.0043   29.0359   49.9297 H   0  0  0  0  0  0  0  0  0  0  0  0
   59.0927   29.0531   48.3820 H   0  0  0  0  0  0  0  0  0  0  0  0
   60.8675   29.3297   48.3820 H   0  0  0  0  0  0  0  0  0  0  0  0
  1  2  1  0
  2  3  1  0
  3  4  2  0
  4  5  1  0
  5  6  2  0
  6  7  1  0
  7  8  2  0
  7  9  2  0
  7 10  1  0
 10 11  1  0
 11 12  2  0
 12 13  1  0
 12 14  1  0
 14 15  1  0
 15 16  2  0
 16 17  1  0
 17 18  2  0
 18 19  1  0
 19 20  1  0
 20 21  2  0
  6 22  1  0
 22 23  2  0
 23 24  1  0
 24 25  1  0
 23  3  1  0
 20 11  1  0
 19 15  1  0
  1 26  1  0
  1 27  1  0
  1 28  1  0
  4 29  1  0
  5 30  1  0
 10 31  1  0
 13 32  1  0
 13 33  1  0
 13 34  1  0
 17 35  1  0
 22 36  1  0
 25 37  1  0
 25 38  1  0
 25 39  1  0
M  CHG  1  14  -1
M  END
>  <UniqueID>  (47) 
44

>  <SMILES>  (47) 
COc1ccc(S(=O)(=O)Nc2c(C)[n-]c3ncnn3c2=O)cc1OC

>  <Energy>  (47) 
84.43713828632887

>  <Genealogy>  (47) 
COc1ccc(S(=O)(=O)Nc2c(C)[n-]c3ncnn3c2=O)cc1OC (protonated)
COc1ccc(S(=O)(=O)Nc2c(C)[n-]c3ncnn3c2=O)cc1OC (3D coordinates assigned)
COc1ccc(S(=O)(=O)Nc2c(C)[n-]c3ncnn3c2=O)cc1OC (optimized conformer: 84.43713828632887 kcal/mol)

>  <smiles>  (47) 
COc1ccc(S(=O)(=O)Nc2c(C)[nH]c3ncnn3c2=O)cc1OC

>  <score_type>  (47) 
oracle

>  <origin>  (47) 
adg

>  <m_score__min__energy>  (47) 
-9.3100000000000005

>  <m_primary>  (47) 
energy

$$$$
47:0
     RDKit          3D

 36 38  0  0  0  0  0  0  0  0999 V2000
   57.8780   27.6040   43.2820 N   0  0  0  0  0  0  0  0  0  0  0  0
   57.8160   27.5510   45.0100 S   0  0  0  0  0  0  0  0  0  0  0  0
   56.4020   27.8110   45.4530 O   0  0  0  0  0  0  0  0  0  0  0  0
   58.2470   26.1930   45.4870 O   0  0  0  0  0  0  0  0  0  0  0  0
   58.8880   28.7740   45.6830 C   0  0  0  0  0  0  0  0  0  0  0  0
   60.2720   28.5540   45.7140 C   0  0  0  0  0  0  0  0  0  0  0  0
   61.1230   29.5150   46.2650 C   0  0  0  0  0  0  0  0  0  0  0  0
   60.5990   30.7020   46.7830 C   0  0  0  0  0  0  0  0  0  0  0  0
   59.2150   30.9430   46.7410 C   0  0  0  0  0  0  0  0  0  0  0  0
   58.6550   32.1400   47.2990 N   0  0  0  0  0  0  0  0  0  0  0  0
   59.0490   33.4550   46.8960 C   0  0  0  0  0  0  0  0  0  0  0  0
   58.8040   34.2850   45.8110 C   0  0  0  0  0  0  0  0  0  0  0  0
   58.0420   34.1640   44.6030 N   0  0  0  0  0  0  0  0  0  0  0  0
   57.5080   32.9210   44.1270 C   0  0  0  0  0  0  0  0  0  0  0  0
   57.8620   32.4550   42.8540 C   0  0  0  0  0  0  0  0  0  0  0  0
   57.3670   31.2340   42.3920 C   0  0  0  0  0  0  0  0  0  0  0  0
   56.5350   30.4760   43.2200 C   0  0  0  0  0  0  0  0  0  0  0  0
   56.0790   29.3740   42.8200 O   0  0  0  0  0  0  0  0  0  0  0  0
   56.2230   30.9270   44.4640 N   0  0  0  0  0  0  0  0  0  0  0  0
   56.6890   32.1150   44.9330 C   0  0  0  0  0  0  0  0  0  0  0  0
   59.6120   35.2550   46.3810 C   0  0  0  0  0  0  0  0  0  0  0  0
   60.0090   36.4010   46.0440 O   0  0  0  0  0  0  0  0  0  0  0  0
   59.7990   34.4530   47.4860 C   0  0  0  0  0  0  0  0  0  0  0  0
   60.4200   34.5700   48.5750 O   0  0  0  0  0  0  0  0  0  0  0  0
   58.3640   29.9630   46.2100 C   0  0  0  0  0  0  0  0  0  0  0  0
   58.0980   28.5890   43.0140 H   0  0  0  0  0  0  0  0  0  0  0  0
   56.9130   27.4050   42.9350 H   0  0  0  0  0  0  0  0  0  0  0  0
   60.6889   27.6225   45.3035 H   0  0  0  0  0  0  0  0  0  0  0  0
   62.2082   29.3368   46.2911 H   0  0  0  0  0  0  0  0  0  0  0  0
   61.2723   31.4509   47.2255 H   0  0  0  0  0  0  0  0  0  0  0  0
   57.9120   32.0560   48.0280 H   0  0  0  0  0  0  0  0  0  0  0  0
   57.8100   35.0330   44.0750 H   0  0  0  0  0  0  0  0  0  0  0  0
   58.5312   33.0523   42.2173 H   0  0  0  0  0  0  0  0  0  0  0  0
   57.6292   30.8725   41.3867 H   0  0  0  0  0  0  0  0  0  0  0  0
   56.4232   32.4457   45.9479 H   0  0  0  0  0  0  0  0  0  0  0  0
   57.2765   30.1284   46.2069 H   0  0  0  0  0  0  0  0  0  0  0  0
  1  2  1  0
  2  3  2  0
  2  4  2  0
  2  5  1  0
  5  6  2  0
  6  7  1  0
  7  8  2  0
  8  9  1  0
  9 10  1  0
 10 11  1  0
 11 12  2  0
 12 13  1  0
 13 14  1  0
 14 15  1  0
 15 16  2  0
 16 17  1  0
 17 18  2  0
 17 19  1  0
 19 20  1  0
 12 21  1  0
 21 22  2  0
 21 23  1  0
 23 24  2  0
  9 25  2  0
 25  5  1  0
 23 11  1  0
 20 14  2  0
  1 26  1  0
  1 27  1  0
  6 28  1  0
  7 29  1  0
  8 30  1  0
 10 31  1  0
 13 32  1  0
 15 33  1  0
 16 34  1  0
 20 35  1  0
 25 36  1  0
M  CHG  1  19  -1
M  END
>  <UniqueID>  (48) 
45

>  <SMILES>  (48) 
NS(=O)(=O)c1cccc(Nc2c(Nc3ccc(=O)[n-]c3)c(=O)c2=O)c1

>  <Energy>  (48) 
35.79113982945602

>  <Genealogy>  (48) 
NS(=O)(=O)c1cccc(Nc2c(Nc3ccc(=O)[n-]c3)c(=O)c2=O)c1 (protonated)
NS(=O)(=O)c1cccc(Nc2c(Nc3ccc(=O)[n-]c3)c(=O)c2=O)c1 (3D coordinates assigned)
NS(=O)(=O)c1cccc(Nc2c(Nc3ccc(=O)[n-]c3)c(=O)c2=O)c1 (optimized conformer: 35.79113982945602 kcal/mol)

>  <smiles>  (48) 
NS(=O)(=O)c1cccc(Nc2c(Nc3ccc(=O)[nH]c3)c(=O)c2=O)c1

>  <score_type>  (48) 
oracle

>  <origin>  (48) 
adg

>  <m_score__min__energy>  (48) 
-10.470000000000001

>  <m_primary>  (48) 
energy

$$$$
48:0
     RDKit          3D

 37 38  0  0  0  0  0  0  0  0999 V2000
   58.1200   32.3550   41.8470 C   0  0  0  0  0  0  0  0  0  0  0  0
   57.6940   31.8620   43.1120 O   0  0  0  0  0  0  0  0  0  0  0  0
   58.2130   32.2830   44.3470 C   0  0  0  0  0  0  0  0  0  0  0  0
   58.6310   33.6080   44.5710 C   0  0  0  0  0  0  0  0  0  0  0  0
   59.1520   33.9910   45.8110 C   0  0  0  0  0  0  0  0  0  0  0  0
   59.6580   35.6630   46.0300 Cl  0  0  0  0  0  0  0  0  0  0  0  0
   59.2620   33.0480   46.8520 C   0  0  0  0  0  0  0  0  0  0  0  0
   59.8130   33.4430   48.1940 C   0  0  0  0  0  0  0  0  0  0  0  0
   58.8420   31.7270   46.6290 C   0  0  0  0  0  0  0  0  0  0  0  0
   58.3230   31.3430   45.3850 C   0  0  0  0  0  0  0  0  0  0  0  0
   57.8890   29.9890   45.1810 N   0  0  0  0  0  0  0  0  0  0  0  0
   58.6730   28.8970   45.7040 C   0  0  0  0  0  0  0  0  0  0  0  0
   58.1970   28.1050   46.7650 C   0  0  0  0  0  0  0  0  0  0  0  0
   58.9760   27.0630   47.2750 C   0  0  0  0  0  0  0  0  0  0  0  0
   60.2370   26.8010   46.7350 C   0  0  0  0  0  0  0  0  0  0  0  0
   60.7240   27.5840   45.6870 C   0  0  0  0  0  0  0  0  0  0  0  0
   59.9500   28.6280   45.1740 C   0  0  0  0  0  0  0  0  0  0  0  0
   56.3510   29.7180   44.4120 S   0  0  0  0  0  0  0  0  0  0  0  0
   56.6110   29.2850   42.7060 C   0  0  0  0  0  0  0  0  0  0  0  0
   55.6260   28.5990   45.1020 O   0  0  0  0  0  0  0  0  0  0  0  0
   55.5060   30.9590   44.4960 O   0  0  0  0  0  0  0  0  0  0  0  0
   58.8326   33.1797   41.9959 H   0  0  0  0  0  0  0  0  0  0  0  0
   58.6080   31.5460   41.2836 H   0  0  0  0  0  0  0  0  0  0  0  0
   57.2488   32.7205   41.2836 H   0  0  0  0  0  0  0  0  0  0  0  0
   58.5471   34.3496   43.7629 H   0  0  0  0  0  0  0  0  0  0  0  0
   59.1950   33.0000   48.9889 H   0  0  0  0  0  0  0  0  0  0  0  0
   60.8468   33.0790   48.2875 H   0  0  0  0  0  0  0  0  0  0  0  0
   59.8002   34.5389   48.2875 H   0  0  0  0  0  0  0  0  0  0  0  0
   58.9210   30.9863   47.4384 H   0  0  0  0  0  0  0  0  0  0  0  0
   57.2053   28.3073   47.1958 H   0  0  0  0  0  0  0  0  0  0  0  0
   58.5952   26.4478   48.1036 H   0  0  0  0  0  0  0  0  0  0  0  0
   60.8465   25.9776   47.1355 H   0  0  0  0  0  0  0  0  0  0  0  0
   61.7186   27.3788   45.2644 H   0  0  0  0  0  0  0  0  0  0  0  0
   60.3406   29.2440   44.3506 H   0  0  0  0  0  0  0  0  0  0  0  0
   57.1765   28.3432   42.6488 H   0  0  0  0  0  0  0  0  0  0  0  0
   55.6386   29.1597   42.2072 H   0  0  0  0  0  0  0  0  0  0  0  0
   57.1786   30.0844   42.2072 H   0  0  0  0  0  0  0  0  0  0  0  0
  1  2  1  0
  2  3  1  0
  3  4  2  0
  4  5  1  0
  5  6  1  0
  5  7  2  0
  7  8  1  0
  7  9  1  0
  9 10  2  0
 10 11  1  0
 11 12  1  0
 12 13  2  0
 13 14  1  0
 14 15  2  0
 15 16  1  0
 16 17  2  0
 11 18  1  0
 18 19  1  0
 18 20  2  0
 18 21  2  0
 10  3  1  0
 17 12  1  0
  1 22  1  0
  1 23  1  0
  1 24  1  0
  4 25  1  0
  8 26  1  0
  8 27  1  0
  8 28  1  0
  9 29  1  0
 13 30  1  0
 14 31  1  0
 15 32  1  0
 16 33  1  0
 17 34  1  0
 19 35  1  0
 19 36  1  0
 19 37  1  0
M  END
>  <UniqueID>  (49) 
46

>  <SMILES>  (49) 
COc1cc(Cl)c(C)cc1N(c1ccccc1)S(C)(=O)=O

>  <Energy>  (49) 
43.558084432082794

>  <Genealogy>  (49) 
COc1cc(Cl)c(C)cc1N(c1ccccc1)S(C)(=O)=O (3D coordinates assigned)
COc1cc(Cl)c(C)cc1N(c1ccccc1)S(C)(=O)=O (optimized conformer: 43.558084432082794 kcal/mol)

>  <smiles>  (49) 
COc1cc(Cl)c(C)cc1N(c1ccccc1)S(C)(=O)=O

>  <score_type>  (49) 
oracle

>  <origin>  (49) 
adg

>  <m_score__min__energy>  (49) 
-7.7300000000000004

>  <m_primary>  (49) 
energy

$$$$
49:0
     RDKit          3D

 58 61  0  0  0  0  0  0  0  0999 V2000
   54.0840   29.8830   52.4780 C   0  0  0  0  0  0  0  0  0  0  0  0
   55.4380   29.4470   52.5920 O   0  0  0  0  0  0  0  0  0  0  0  0
   56.5530   30.2340   52.2710 C   0  0  0  0  0  0  0  0  0  0  0  0
   56.4980   31.6410   52.2330 C   0  0  0  0  0  0  0  0  0  0  0  0
   57.6380   32.3820   51.9020 C   0  0  0  0  0  0  0  0  0  0  0  0
   58.8410   31.7280   51.6070 C   0  0  0  0  0  0  0  0  0  0  0  0
   60.2730   32.6440   51.1420 S   0  0  0  0  0  0  0  0  0  0  0  0
   61.4100   32.2170   52.0310 O   0  0  0  0  0  0  0  0  0  0  0  0
   60.0350   34.1150   51.3400 O   0  0  0  0  0  0  0  0  0  0  0  0
   60.6560   32.3170   49.4670 N   0  0  0  0  0  0  0  0  0  0  0  0
   59.6020   32.8840   48.6060 C   0  0  0  0  0  0  0  0  0  0  0  0
   59.6750   32.3210   47.1590 C   0  0  1  0  0  0  0  0  0  0  0  0
   60.1240   33.3430   46.0820 C   0  0  0  0  0  0  0  0  0  0  0  0
   61.2850   34.2560   46.4690 C   0  0  0  0  0  0  0  0  0  0  0  0
   62.5960   33.5140   46.7060 C   0  0  0  0  0  0  0  0  0  0  0  0
   62.5660   32.3740   47.7660 C   0  0  1  0  0  0  0  0  0  0  0  0
   63.9140   32.0000   47.9760 O   0  0  0  0  0  0  0  0  0  0  0  0
   61.9880   32.8530   49.1470 C   0  0  0  0  0  0  0  0  0  0  0  0
   61.8930   31.0940   47.1730 C   0  0  0  0  0  0  0  0  0  0  0  0
   60.4010   31.0190   47.1100 N   0  0  2  0  0  0  0  0  0  0  0  0
   59.9580   30.1880   45.9550 C   0  0  0  0  0  0  0  0  0  0  0  0
   59.3610   28.8710   46.4040 C   0  0  0  0  0  0  0  0  0  0  0  0
   58.1830   28.3790   45.8130 C   0  0  0  0  0  0  0  0  0  0  0  0
   57.6640   27.1420   46.2020 C   0  0  0  0  0  0  0  0  0  0  0  0
   58.3150   26.3850   47.1800 C   0  0  0  0  0  0  0  0  0  0  0  0
   59.4850   26.8660   47.7740 C   0  0  0  0  0  0  0  0  0  0  0  0
   60.0070   28.1030   47.3870 C   0  0  0  0  0  0  0  0  0  0  0  0
   58.8950   30.3290   51.6410 C   0  0  0  0  0  0  0  0  0  0  0  0
   57.7590   29.5890   51.9760 C   0  0  0  0  0  0  0  0  0  0  0  0
   53.6572   30.0204   53.4825 H   0  0  0  0  0  0  0  0  0  0  0  0
   54.0508   30.8372   51.9318 H   0  0  0  0  0  0  0  0  0  0  0  0
   53.5002   29.1274   51.9318 H   0  0  0  0  0  0  0  0  0  0  0  0
   55.5556   32.1591   52.4643 H   0  0  0  0  0  0  0  0  0  0  0  0
   57.5893   33.4805   51.8734 H   0  0  0  0  0  0  0  0  0  0  0  0
   58.6199   32.6367   49.0353 H   0  0  0  0  0  0  0  0  0  0  0  0
   59.7488   33.9731   48.5574 H   0  0  0  0  0  0  0  0  0  0  0  0
   58.6353   32.1098   46.8685 H   0  0  0  0  0  0  0  0  0  0  0  0
   60.4236   32.7787   45.1866 H   0  0  0  0  0  0  0  0  0  0  0  0
   59.2621   34.0086   45.9269 H   0  0  0  0  0  0  0  0  0  0  0  0
   61.4395   34.9837   45.6587 H   0  0  0  0  0  0  0  0  0  0  0  0
   61.0120   34.7377   47.4195 H   0  0  0  0  0  0  0  0  0  0  0  0
   62.9079   33.0719   45.7482 H   0  0  0  0  0  0  0  0  0  0  0  0
   63.2891   34.2677   47.1079 H   0  0  0  0  0  0  0  0  0  0  0  0
   64.4430   32.2400   47.1680 H   0  0  0  0  0  0  0  0  0  0  0  0
   62.6843   32.5395   49.9388 H   0  0  0  0  0  0  0  0  0  0  0  0
   61.8789   33.9455   49.0798 H   0  0  0  0  0  0  0  0  0  0  0  0
   62.2645   30.9827   46.1436 H   0  0  0  0  0  0  0  0  0  0  0  0
   62.1658   30.3006   47.8844 H   0  0  0  0  0  0  0  0  0  0  0  0
   60.0860   30.4820   47.9550 H   0  0  0  0  0  0  0  0  0  0  0  0
   59.2006   30.7460   45.3850 H   0  0  0  0  0  0  0  0  0  0  0  0
   60.8393   29.9691   45.3342 H   0  0  0  0  0  0  0  0  0  0  0  0
   57.6686   28.9708   45.0415 H   0  0  0  0  0  0  0  0  0  0  0  0
   56.7415   26.7630   45.7379 H   0  0  0  0  0  0  0  0  0  0  0  0
   57.9061   25.4097   47.4825 H   0  0  0  0  0  0  0  0  0  0  0  0
   59.9948   26.2709   48.5460 H   0  0  0  0  0  0  0  0  0  0  0  0
   60.9293   28.4777   47.8549 H   0  0  0  0  0  0  0  0  0  0  0  0
   59.8358   29.8110   51.4029 H   0  0  0  0  0  0  0  0  0  0  0  0
   57.8128   28.4908   52.0082 H   0  0  0  0  0  0  0  0  0  0  0  0
  1  2  1  0
  2  3  1  0
  3  4  2  0
  4  5  1  0
  5  6  2  0
  6  7  1  0
  7  8  2  0
  7  9  2  0
  7 10  1  0
 10 11  1  0
 11 12  1  0
 12 13  1  0
 13 14  1  0
 14 15  1  0
 15 16  1  0
 16 17  1  1
 16 18  1  0
 16 19  1  0
 19 20  1  0
 20 21  1  0
 21 22  1  0
 22 23  2  0
 23 24  1  0
 24 25  2  0
 25 26  1  0
 26 27  2  0
  6 28  1  0
 28 29  2  0
 29  3  1  0
 18 10  1  0
 27 22  1  0
 20 12  1  0
  1 30  1  0
  1 31  1  0
  1 32  1  0
  4 33  1  0
  5 34  1  0
 11 35  1  0
 11 36  1  0
 12 37  1  6
 13 38  1  0
 13 39  1  0
 14 40  1  0
 14 41  1  0
 15 42  1  0
 15 43  1  0
 17 44  1  0
 18 45  1  0
 18 46  1  0
 19 47  1  0
 19 48  1  0
 20 49  1  1
 21 50  1  0
 21 51  1  0
 23 52  1  0
 24 53  1  0
 25 54  1  0
 26 55  1  0
 27 56  1  0
 28 57  1  0
 29 58  1  0
M  CHG  1  20   1
M  END
>  <UniqueID>  (50) 
47

>  <SMILES>  (50) 
COc1ccc(S(=O)(=O)N2C[C@H]3CCC[C@@](O)(C2)C[NH+]3Cc2ccccc2)cc1

>  <Energy>  (50) 
94.05711641158338

>  <Genealogy>  (50) 
COc1ccc(S(=O)(=O)N2CC3CCCC(O)(C2)C[NH+]3Cc2ccccc2)cc1 (protonated)
COc1ccc(S(=O)(=O)N2C[C@H]3CCC[C@@](O)(C2)C[NH+]3Cc2ccccc2)cc1 (chirality)
COc1ccc(S(=O)(=O)N2C[C@H]3CCC[C@@](O)(C2)C[NH+]3Cc2ccccc2)cc1 (3D coordinates assigned)
COc1ccc(S(=O)(=O)N2C[C@H]3CCC[C@@](O)(C2)C[NH+]3Cc2ccccc2)cc1 (nonaromatic ring conformer: 94.05711641158338 kcal/mol)

>  <smiles>  (50) 
COc1ccc(S(=O)(=O)N2CC3CCCC(O)(CN3Cc3ccccc3)C2)cc1

>  <score_type>  (50) 
oracle

>  <origin>  (50) 
adg

>  <m_score__min__energy>  (50) 
-3.0299999999999998

>  <m_primary>  (50) 
energy

$$$$
50:0
     RDKit          3D

 49 51  0  0  0  0  0  0  0  0999 V2000
   56.2040   30.0540   43.5460 C   0  0  0  0  0  0  0  0  0  0  0  0
   56.1620   29.4530   44.8360 O   0  0  0  0  0  0  0  0  0  0  0  0
   57.2860   29.2360   45.6460 C   0  0  0  0  0  0  0  0  0  0  0  0
   57.4560   28.0630   46.4020 C   0  0  0  0  0  0  0  0  0  0  0  0
   58.5920   27.8940   47.1970 C   0  0  0  0  0  0  0  0  0  0  0  0
   59.5810   28.8930   47.2520 C   0  0  0  0  0  0  0  0  0  0  0  0
   60.7310   28.7560   48.0460 O   0  0  0  0  0  0  0  0  0  0  0  0
   60.7820   29.0030   49.4470 C   0  0  0  0  0  0  0  0  0  0  0  0
   59.4160   30.0670   46.4910 C   0  0  0  0  0  0  0  0  0  0  0  0
   60.4500   31.1630   46.5500 C   0  0  0  0  0  0  0  0  0  0  0  0
   60.1840   32.0580   47.6930 N   0  0  0  0  0  0  0  0  0  0  0  0
   58.7750   32.5000   47.7950 C   0  0  0  0  0  0  0  0  0  0  0  0
   58.2640   33.2050   46.5670 C   0  0  0  0  0  0  0  0  0  0  0  0
   58.8370   34.3110   45.9690 C   0  0  0  0  0  0  0  0  0  0  0  0
   58.0330   34.6050   44.8880 C   0  0  0  0  0  0  0  0  0  0  0  0
   57.0230   33.6660   44.8960 C   0  0  0  0  0  0  0  0  0  0  0  0
   57.1850   32.8480   45.9090 O   0  0  0  0  0  0  0  0  0  0  0  0
   61.3010   33.4010   47.7000 S   0  0  0  0  0  0  0  0  0  0  0  0
   60.7250   34.5660   48.4560 O   0  0  0  0  0  0  0  0  0  0  0  0
   61.6100   33.8320   46.2920 O   0  0  0  0  0  0  0  0  0  0  0  0
   62.7820   32.8970   48.4910 C   0  0  0  0  0  0  0  0  0  0  0  0
   64.0710   33.2100   48.1060 C   0  0  0  0  0  0  0  0  0  0  0  0
   64.9180   32.6710   49.0020 N   0  0  0  0  0  0  0  0  0  0  0  0
   64.2120   32.0520   49.9360 N   0  0  0  0  0  0  0  0  0  0  0  0
   64.7910   31.2980   51.0410 C   0  0  0  0  0  0  0  0  0  0  0  0
   62.9000   32.1600   49.6520 C   0  0  0  0  0  0  0  0  0  0  0  0
   58.2690   30.2290   45.6970 C   0  0  0  0  0  0  0  0  0  0  0  0
   56.2803   31.1462   43.6526 H   0  0  0  0  0  0  0  0  0  0  0  0
   57.0780   29.6775   42.9944 H   0  0  0  0  0  0  0  0  0  0  0  0
   55.2861   29.8027   42.9944 H   0  0  0  0  0  0  0  0  0  0  0  0
   56.6903   27.2740   46.3673 H   0  0  0  0  0  0  0  0  0  0  0  0
   58.7143   26.9723   47.7848 H   0  0  0  0  0  0  0  0  0  0  0  0
   60.5887   28.0670   49.9916 H   0  0  0  0  0  0  0  0  0  0  0  0
   61.7779   29.3848   49.7160 H   0  0  0  0  0  0  0  0  0  0  0  0
   60.0188   29.7480   49.7160 H   0  0  0  0  0  0  0  0  0  0  0  0
   61.4478   30.7145   46.6650 H   0  0  0  0  0  0  0  0  0  0  0  0
   60.4044   31.7480   45.6196 H   0  0  0  0  0  0  0  0  0  0  0  0
   58.1467   31.6146   47.9722 H   0  0  0  0  0  0  0  0  0  0  0  0
   58.7279   33.2250   48.6209 H   0  0  0  0  0  0  0  0  0  0  0  0
   59.7442   34.8449   46.2883 H   0  0  0  0  0  0  0  0  0  0  0  0
   58.1696   35.4231   44.1654 H   0  0  0  0  0  0  0  0  0  0  0  0
   56.2045   33.6111   44.1632 H   0  0  0  0  0  0  0  0  0  0  0  0
   64.3557   33.7977   47.2208 H   0  0  0  0  0  0  0  0  0  0  0  0
   65.9610   32.7270   48.9750 H   0  0  0  0  0  0  0  0  0  0  0  0
   64.4578   31.7319   51.9953 H   0  0  0  0  0  0  0  0  0  0  0  0
   64.4637   30.2495   50.9808 H   0  0  0  0  0  0  0  0  0  0  0  0
   65.8884   31.3436   50.9808 H   0  0  0  0  0  0  0  0  0  0  0  0
   62.0717   31.7371   50.2394 H   0  0  0  0  0  0  0  0  0  0  0  0
   58.1423   31.1491   45.1076 H   0  0  0  0  0  0  0  0  0  0  0  0
  1  2  1  0
  2  3  1  0
  3  4  2  0
  4  5  1  0
  5  6  2  0
  6  7  1  0
  7  8  1  0
  6  9  1  0
  9 10  1  0
 10 11  1  0
 11 12  1  0
 12 13  1  0
 13 14  2  0
 14 15  1  0
 15 16  2  0
 16 17  1  0
 11 18  1  0
 18 19  2  0
 18 20  2  0
 18 21  1  0
 21 22  1  0
 22 23  2  0
 23 24  1  0
 24 25  1  0
 24 26  1  0
  9 27  2  0
 27  3  1  0
 17 13  1  0
 26 21  2  0
  1 28  1  0
  1 29  1  0
  1 30  1  0
  4 31  1  0
  5 32  1  0
  8 33  1  0
  8 34  1  0
  8 35  1  0
 10 36  1  0
 10 37  1  0
 12 38  1  0
 12 39  1  0
 14 40  1  0
 15 41  1  0
 16 42  1  0
 22 43  1  0
 23 44  1  0
 25 45  1  0
 25 46  1  0
 25 47  1  0
 26 48  1  0
 27 49  1  0
M  CHG  1  23   1
M  END
>  <UniqueID>  (51) 
48

>  <SMILES>  (51) 
COc1ccc(OC)c(CN(Cc2ccco2)S(=O)(=O)c2c[nH+]n(C)c2)c1

>  <Energy>  (51) 
104.77741719226862

>  <Genealogy>  (51) 
COc1ccc(OC)c(CN(Cc2ccco2)S(=O)(=O)c2c[nH+]n(C)c2)c1 (protonated)
COc1ccc(OC)c(CN(Cc2ccco2)S(=O)(=O)c2c[nH+]n(C)c2)c1 (3D coordinates assigned)
COc1ccc(OC)c(CN(Cc2ccco2)S(=O)(=O)c2c[nH+]n(C)c2)c1 (optimized conformer: 104.77741719226862 kcal/mol)

>  <smiles>  (51) 
COc1ccc(OC)c(CN(Cc2ccco2)S(=O)(=O)c2cnn(C)c2)c1

>  <score_type>  (51) 
oracle

>  <origin>  (51) 
adg

>  <m_score__min__energy>  (51) 
-6.46

>  <m_primary>  (51) 
energy

$$$$
51:0
     RDKit          3D

 45 49  0  0  1  0  0  0  0  0999 V2000
   57.5580   24.6080   44.5420 C   0  0  0  0  0  0  0  0  0  0  0  0
   57.4520   25.2120   43.3060 C   0  0  0  0  0  0  0  0  0  0  0  0
   57.8480   26.5260   43.1640 C   0  0  0  0  0  0  0  0  0  0  0  0
   58.3440   27.1930   44.2840 C   0  0  0  0  0  0  0  0  0  0  0  0
   58.7920   28.4560   44.4190 N   0  0  0  0  0  0  0  0  0  0  0  0
   59.1740   28.6600   45.7020 C   0  0  0  0  0  0  0  0  0  0  0  0
   59.7190   29.8900   46.2720 C   0  0  0  0  0  0  0  0  0  0  0  0
   60.9720   29.9340   46.8590 C   0  0  0  0  0  0  0  0  0  0  0  0
   61.4870   31.1120   47.4020 C   0  0  0  0  0  0  0  0  0  0  0  0
   60.7100   32.2620   47.3440 C   0  0  0  0  0  0  0  0  0  0  0  0
   61.1930   33.4040   47.8630 N   0  0  0  0  0  0  0  0  0  0  0  0
   60.4050   34.4910   47.7840 C   0  0  0  0  0  0  0  0  0  0  0  0
   59.1850   34.4740   47.2200 N   0  0  0  0  0  0  0  0  0  0  0  0
   58.6480   33.3480   46.6800 C   0  0  0  0  0  0  0  0  0  0  0  0
   57.4740   33.3370   46.1380 N   0  0  0  0  0  0  0  0  0  0  0  0
   57.3510   33.7820   44.7630 C   0  0  0  0  0  0  0  0  0  0  0  0
   58.1020   32.8790   43.8120 C   0  0  0  0  0  0  0  0  0  0  0  0
   57.2620   31.6640   43.5910 C   0  0  0  0  0  0  0  0  0  0  0  0
   57.0150   31.0450   42.3730 C   0  0  0  0  0  0  0  0  0  0  0  0
   56.2060   29.9850   42.6380 N   0  0  0  0  0  0  0  0  0  0  0  0
   55.9560   29.9360   43.9450 C   0  0  0  0  0  0  0  0  0  0  0  0
   56.6050   30.9660   44.5160 N   0  0  0  0  0  0  0  0  0  0  0  0
   59.4480   32.2180   46.7540 C   0  0  0  0  0  0  0  0  0  0  0  0
   58.9470   31.0470   46.2180 C   0  0  0  0  0  0  0  0  0  0  0  0
   58.9710   27.4950   46.4290 C   0  0  0  0  0  0  0  0  0  0  0  0
   58.4460   26.5810   45.5150 C   0  0  0  0  0  0  0  0  0  0  0  0
   58.0500   25.2660   45.6590 C   0  0  0  0  0  0  0  0  0  0  0  0
   57.2388   23.5604   44.6456 H   0  0  0  0  0  0  0  0  0  0  0  0
   57.0569   24.6531   42.4449 H   0  0  0  0  0  0  0  0  0  0  0  0
   57.7744   27.0349   42.1916 H   0  0  0  0  0  0  0  0  0  0  0  0
   58.8360   29.1670   43.6540 H   0  0  0  0  0  0  0  0  0  0  0  0
   61.5775   29.0165   46.8985 H   0  0  0  0  0  0  0  0  0  0  0  0
   62.4847   31.1294   47.8650 H   0  0  0  0  0  0  0  0  0  0  0  0
   62.1350   33.3960   48.2940 H   0  0  0  0  0  0  0  0  0  0  0  0
   60.7765   35.4388   48.2007 H   0  0  0  0  0  0  0  0  0  0  0  0
   56.2870   33.7868   44.4841 H   0  0  0  0  0  0  0  0  0  0  0  0
   57.7832   34.7909   44.6900 H   0  0  0  0  0  0  0  0  0  0  0  0
   58.2718   33.3973   42.8567 H   0  0  0  0  0  0  0  0  0  0  0  0
   59.0810   32.6029   44.2307 H   0  0  0  0  0  0  0  0  0  0  0  0
   57.3981   31.3516   41.3885 H   0  0  0  0  0  0  0  0  0  0  0  0
   55.8790   29.3540   41.8540 H   0  0  0  0  0  0  0  0  0  0  0  0
   55.3337   29.1907   44.4620 H   0  0  0  0  0  0  0  0  0  0  0  0
   57.9498   31.0294   45.7541 H   0  0  0  0  0  0  0  0  0  0  0  0
   59.1793   27.3283   47.4962 H   0  0  0  0  0  0  0  0  0  0  0  0
   58.1227   24.7557   46.6308 H   0  0  0  0  0  0  0  0  0  0  0  0
  1  2  2  0
  2  3  1  0
  3  4  2  0
  4  5  1  0
  5  6  1  0
  6  7  1  0
  7  8  2  0
  8  9  1  0
  9 10  2  0
 10 11  1  0
 11 12  1  0
 12 13  2  0
 13 14  1  0
 14 15  2  0
 15 16  1  0
 16 17  1  0
 17 18  1  0
 18 19  2  0
 19 20  1  0
 20 21  1  0
 21 22  2  0
 14 23  1  0
 23 24  2  0
  6 25  2  0
 25 26  1  0
 26 27  2  0
 27  1  1  0
 26  4  1  0
 24  7  1  0
 23 10  1  0
 22 18  1  0
  1 28  1  0
  2 29  1  0
  3 30  1  0
  5 31  1  0
  8 32  1  0
  9 33  1  0
 11 34  1  0
 12 35  1  0
 16 36  1  0
 16 37  1  0
 17 38  1  0
 17 39  1  0
 19 40  1  0
 20 41  1  0
 21 42  1  0
 24 43  1  0
 25 44  1  0
 27 45  1  0
M  END
>  <smiles>  (52) 
c1ccc2[nH]c(-c3ccc4[nH]cnc(=NCCc5c[nH]cn5)c4c3)cc2c1

>  <score_type>  (52) 
oracle

>  <origin>  (52) 
adg

>  <m_score__min__energy>  (52) 
-8.5800000000000001

>  <m_primary>  (52) 
energy

$$$$
52:0
     RDKit          3D

 49 51  0  0  0  0  0  0  0  0999 V2000
   52.1360   23.4940   45.2690 C   0  0  0  0  0  0  0  0  0  0  0  0
   53.4740   23.0170   45.2000 O   0  0  0  0  0  0  0  0  0  0  0  0
   54.5830   23.8680   45.2280 C   0  0  0  0  0  0  0  0  0  0  0  0
   55.5390   23.7840   44.2140 C   0  0  0  0  0  0  0  0  0  0  0  0
   56.6450   24.6350   44.2410 C   0  0  0  0  0  0  0  0  0  0  0  0
   56.7840   25.5770   45.2670 C   0  0  0  0  0  0  0  0  0  0  0  0
   57.9390   26.4340   45.2950 N   0  0  0  0  0  0  0  0  0  0  0  0
   57.8920   27.8430   45.5650 C   0  0  0  0  0  0  0  0  0  0  0  0
   56.7900   28.4550   45.5960 O   0  0  0  0  0  0  0  0  0  0  0  0
   59.1650   28.6190   45.7190 C   0  0  0  0  0  0  0  0  0  0  0  0
   58.9510   30.0250   45.3430 N   0  0  0  0  0  0  0  0  0  0  0  0
   58.3820   30.3110   44.1330 C   0  0  0  0  0  0  0  0  0  0  0  0
   58.1310   31.6350   43.7750 C   0  0  0  0  0  0  0  0  0  0  0  0
   57.3960   32.0160   42.2310 Cl  0  0  0  0  0  0  0  0  0  0  0  0
   58.4570   32.6340   44.6310 N   0  0  0  0  0  0  0  0  0  0  0  0
   59.0270   32.3780   45.8390 C   0  0  0  0  0  0  0  0  0  0  0  0
   59.3440   33.4760   46.7160 N   0  0  0  0  0  0  0  0  0  0  0  0
   60.4300   34.4060   46.3860 C   0  0  0  0  0  0  0  0  0  0  0  0
   61.8000   33.8430   46.7900 C   0  0  0  0  0  0  0  0  0  0  0  0
   61.8920   33.5660   48.3000 C   0  0  0  0  0  0  0  0  0  0  0  0
   60.7680   34.2100   49.1360 C   0  0  0  0  0  0  0  0  0  0  0  0
   59.4200   33.4620   49.1680 C   0  0  0  0  0  0  0  0  0  0  0  0
   58.5460   33.6840   47.9290 C   0  0  0  0  0  0  0  0  0  0  0  0
   59.2640   31.0410   46.2120 C   0  0  0  0  0  0  0  0  0  0  0  0
   59.7430   30.7820   47.3500 O   0  0  0  0  0  0  0  0  0  0  0  0
   55.8100   25.6160   46.2800 C   0  0  0  0  0  0  0  0  0  0  0  0
   54.7440   24.7730   46.2340 N   0  0  0  0  0  0  0  0  0  0  0  0
   51.8384   23.6001   46.3227 H   0  0  0  0  0  0  0  0  0  0  0  0
   52.0689   24.4714   44.7689 H   0  0  0  0  0  0  0  0  0  0  0  0
   51.4657   22.7794   44.7689 H   0  0  0  0  0  0  0  0  0  0  0  0
   55.4215   23.0531   43.4004 H   0  0  0  0  0  0  0  0  0  0  0  0
   57.4098   24.5652   43.4535 H   0  0  0  0  0  0  0  0  0  0  0  0
   58.8580   26.0230   45.0130 H   0  0  0  0  0  0  0  0  0  0  0  0
   59.4964   28.5694   46.7667 H   0  0  0  0  0  0  0  0  0  0  0  0
   59.9324   28.1843   45.0616 H   0  0  0  0  0  0  0  0  0  0  0  0
   58.1221   29.4960   43.4415 H   0  0  0  0  0  0  0  0  0  0  0  0
   60.4254   34.5894   45.3014 H   0  0  0  0  0  0  0  0  0  0  0  0
   60.2642   35.3396   46.9436 H   0  0  0  0  0  0  0  0  0  0  0  0
   61.9707   32.9022   46.2462 H   0  0  0  0  0  0  0  0  0  0  0  0
   62.5619   34.5952   46.5377 H   0  0  0  0  0  0  0  0  0  0  0  0
   61.8537   32.4774   48.4529 H   0  0  0  0  0  0  0  0  0  0  0  0
   62.8354   34.0148   48.6443 H   0  0  0  0  0  0  0  0  0  0  0  0
   61.1282   34.2942   50.1719 H   0  0  0  0  0  0  0  0  0  0  0  0
   60.5557   35.1720   48.6467 H   0  0  0  0  0  0  0  0  0  0  0  0
   59.6257   32.3850   49.2560 H   0  0  0  0  0  0  0  0  0  0  0  0
   58.8584   33.8615   50.0253 H   0  0  0  0  0  0  0  0  0  0  0  0
   57.7073   32.9724   47.9412 H   0  0  0  0  0  0  0  0  0  0  0  0
   58.1580   34.7133   47.9372 H   0  0  0  0  0  0  0  0  0  0  0  0
   55.9104   26.3295   47.1111 H   0  0  0  0  0  0  0  0  0  0  0  0
  1  2  1  0
  2  3  1  0
  3  4  2  0
  4  5  1  0
  5  6  2  0
  6  7  1  0
  7  8  1  0
  8  9  2  0
  8 10  1  0
 10 11  1  0
 11 12  1  0
 12 13  2  0
 13 14  1  0
 13 15  1  0
 15 16  2  0
 16 17  1  0
 17 18  1  0
 18 19  1  0
 19 20  1  0
 20 21  1  0
 21 22  1  0
 22 23  1  0
 16 24  1  0
 24 25  2  0
  6 26  1  0
 26 27  2  0
 27  3  1  0
 24 11  1  0
 23 17  1  0
  1 28  1  0
  1 29  1  0
  1 30  1  0
  4 31  1  0
  5 32  1  0
  7 33  1  0
 10 34  1  0
 10 35  1  0
 12 36  1  0
 18 37  1  0
 18 38  1  0
 19 39  1  0
 19 40  1  0
 20 41  1  0
 20 42  1  0
 21 43  1  0
 21 44  1  0
 22 45  1  0
 22 46  1  0
 23 47  1  0
 23 48  1  0
 26 49  1  0
M  END
>  <UniqueID>  (53) 
49

>  <SMILES>  (53) 
COc1ccc(NC(=O)Cn2cc(Cl)nc(N3CCCCCC3)c2=O)cn1

>  <Energy>  (53) 
59.66789800322165

>  <Genealogy>  (53) 
COc1ccc(NC(=O)Cn2cc(Cl)nc(N3CCCCCC3)c2=O)cn1 (3D coordinates assigned)
COc1ccc(NC(=O)Cn2cc(Cl)nc(N3CCCCCC3)c2=O)cn1 (nonaromatic ring conformer: 59.66789800322165 kcal/mol)

>  <smiles>  (53) 
COc1ccc(NC(=O)Cn2cc(Cl)nc(N3CCCCCC3)c2=O)cn1

>  <score_type>  (53) 
oracle

>  <origin>  (53) 
adg

>  <m_score__min__energy>  (53) 
-6.3099999999999996

>  <m_primary>  (53) 
energy

$$$$
53:0
     RDKit          3D

 18 18  0  0  0  0  0  0  0  0999 V2000
   55.2860   26.6230   45.9980 N   0  0  0  0  0  0  0  0  0  0  0  0
   56.6170   26.5590   46.5010 C   0  0  0  0  0  0  0  0  0  0  0  0
   56.9060   25.7340   47.4090 O   0  0  0  0  0  0  0  0  0  0  0  0
   57.6540   27.5020   45.9910 C   0  0  0  0  0  0  0  0  0  0  0  0
   57.1690   28.1330   44.7710 N   0  0  0  0  0  0  0  0  0  0  0  0
   56.4080   29.3450   44.6790 C   0  0  0  0  0  0  0  0  0  0  0  0
   55.1660   29.2840   44.8780 O   0  0  0  0  0  0  0  0  0  0  0  0
   57.0040   30.6700   44.4140 C   0  0  0  0  0  0  0  0  0  0  0  0
   57.3530   31.2180   43.1890 C   0  0  0  0  0  0  0  0  0  0  0  0
   57.8370   32.4790   43.4630 C   0  0  0  0  0  0  0  0  0  0  0  0
   57.7480   32.6270   44.8300 C   0  0  0  0  0  0  0  0  0  0  0  0
   58.2620   34.1750   45.8150 Br  0  0  0  0  0  0  0  0  0  0  0  0
   57.2460   31.5410   45.3680 O   0  0  0  0  0  0  0  0  0  0  0  0
   55.0750   27.1180   45.1020 H   0  0  0  0  0  0  0  0  0  0  0  0
   57.8549   28.2731   46.7493 H   0  0  0  0  0  0  0  0  0  0  0  0
   58.5820   26.9511   45.7784 H   0  0  0  0  0  0  0  0  0  0  0  0
   57.2622   30.7434   42.2008 H   0  0  0  0  0  0  0  0  0  0  0  0
   58.2162   33.2156   42.7394 H   0  0  0  0  0  0  0  0  0  0  0  0
  1  2  1  0
  2  3  2  0
  2  4  1  0
  4  5  1  0
  5  6  1  0
  6  7  2  0
  6  8  1  0
  8  9  2  0
  9 10  1  0
 10 11  2  0
 11 12  1  0
 11 13  1  0
 13  8  1  0
  1 14  1  0
  4 15  1  0
  4 16  1  0
  9 17  1  0
 10 18  1  0
M  CHG  2   1  -1   5  -1
M  END
>  <UniqueID>  (54) 
50

>  <SMILES>  (54) 
[NH-]C(=O)C[N-]C(=O)c1ccc(Br)o1

>  <Energy>  (54) 
42.072719752422074

>  <Genealogy>  (54) 
[NH-]C(=O)C[N-]C(=O)c1ccc(Br)o1 (protonated)
[NH-]C(=O)C[N-]C(=O)c1ccc(Br)o1 (3D coordinates assigned)
[NH-]C(=O)C[N-]C(=O)c1ccc(Br)o1 (optimized conformer: 42.072719752422074 kcal/mol)

>  <smiles>  (54) 
NC(=O)CNC(=O)c1ccc(Br)o1

>  <score_type>  (54) 
oracle

>  <origin>  (54) 
adg

>  <m_score__min__energy>  (54) 
-11.56

>  <m_primary>  (54) 
energy

$$$$
54:0
     RDKit          3D

 57 60  0  0  0  0  0  0  0  0999 V2000
   58.1270   21.5310   44.0680 C   0  0  0  0  0  0  0  0  0  0  0  0
   57.7170   22.2320   45.2390 O   0  0  0  0  0  0  0  0  0  0  0  0
   58.0130   23.5800   45.5000 C   0  0  0  0  0  0  0  0  0  0  0  0
   57.0160   24.5760   45.5370 C   0  0  0  0  0  0  0  0  0  0  0  0
   57.3580   25.9180   45.7700 C   0  0  0  0  0  0  0  0  0  0  0  0
   56.3140   26.9630   45.8090 C   0  0  0  0  0  0  0  0  0  0  0  0
   55.1160   26.6260   45.9960 O   0  0  0  0  0  0  0  0  0  0  0  0
   56.6220   28.3530   45.6480 N   0  0  0  0  0  0  0  0  0  0  0  0
   55.9270   29.2490   44.7300 C   0  0  0  0  0  0  0  0  0  0  0  0
   56.9420   30.1390   44.0140 C   0  0  0  0  0  0  0  0  0  0  0  0
   58.0540   30.5350   44.9490 C   0  0  0  0  0  0  0  0  0  0  0  0
   58.0300   31.7860   45.5850 C   0  0  0  0  0  0  0  0  0  0  0  0
   59.0830   32.1740   46.4180 C   0  0  0  0  0  0  0  0  0  0  0  0
   60.1860   31.3280   46.6120 C   0  0  0  0  0  0  0  0  0  0  0  0
   61.2740   31.7360   47.5290 C   0  0  0  0  0  0  0  0  0  0  0  0
   62.0290   32.8080   47.1710 N   0  0  0  0  0  0  0  0  0  0  0  0
   63.0070   33.2790   47.9410 N   0  0  0  0  0  0  0  0  0  0  0  0
   63.3100   32.7200   49.1420 C   0  0  0  0  0  0  0  0  0  0  0  0
   64.3920   33.2710   49.9120 N   0  0  0  0  0  0  0  0  0  0  0  0
   64.0800   34.0830   51.0900 C   0  0  0  0  0  0  0  0  0  0  0  0
   65.6960   32.6140   49.8560 C   0  0  0  0  0  0  0  0  0  0  0  0
   62.5680   31.6120   49.5900 C   0  0  0  0  0  0  0  0  0  0  0  0
   62.8080   31.0230   50.8480 C   0  0  0  0  0  0  0  0  0  0  0  0
   62.0920   29.8940   51.2490 C   0  0  0  0  0  0  0  0  0  0  0  0
   61.1350   29.3350   50.4050 C   0  0  0  0  0  0  0  0  0  0  0  0
   60.8660   29.9180   49.1640 C   0  0  0  0  0  0  0  0  0  0  0  0
   61.5480   31.0850   48.7560 C   0  0  0  0  0  0  0  0  0  0  0  0
   60.1990   30.0640   45.9920 C   0  0  0  0  0  0  0  0  0  0  0  0
   59.1510   29.6800   45.1520 C   0  0  0  0  0  0  0  0  0  0  0  0
   58.7000   26.2550   46.0150 C   0  0  0  0  0  0  0  0  0  0  0  0
   59.6910   25.2680   45.9900 C   0  0  0  0  0  0  0  0  0  0  0  0
   59.3510   23.9380   45.7290 C   0  0  0  0  0  0  0  0  0  0  0  0
   60.3500   22.9690   45.6940 O   0  0  0  0  0  0  0  0  0  0  0  0
   58.6627   20.6150   44.3577 H   0  0  0  0  0  0  0  0  0  0  0  0
   57.2421   21.2650   43.4712 H   0  0  0  0  0  0  0  0  0  0  0  0
   58.7926   22.1719   43.4712 H   0  0  0  0  0  0  0  0  0  0  0  0
   55.9625   24.3000   45.3822 H   0  0  0  0  0  0  0  0  0  0  0  0
   55.3734   28.6550   43.9879 H   0  0  0  0  0  0  0  0  0  0  0  0
   55.2249   29.8787   45.2962 H   0  0  0  0  0  0  0  0  0  0  0  0
   57.3660   29.5893   43.1607 H   0  0  0  0  0  0  0  0  0  0  0  0
   56.4315   31.0489   43.6655 H   0  0  0  0  0  0  0  0  0  0  0  0
   57.1784   32.4642   45.4271 H   0  0  0  0  0  0  0  0  0  0  0  0
   59.0471   33.1494   46.9252 H   0  0  0  0  0  0  0  0  0  0  0  0
   64.3011   33.5075   52.0010 H   0  0  0  0  0  0  0  0  0  0  0  0
   64.6907   34.9978   51.0769 H   0  0  0  0  0  0  0  0  0  0  0  0
   63.0139   34.3536   51.0769 H   0  0  0  0  0  0  0  0  0  0  0  0
   66.0587   32.4313   50.8783 H   0  0  0  0  0  0  0  0  0  0  0  0
   65.6013   31.6560   49.3238 H   0  0  0  0  0  0  0  0  0  0  0  0
   66.4096   33.2602   49.3238 H   0  0  0  0  0  0  0  0  0  0  0  0
   63.5649   31.4562   51.5184 H   0  0  0  0  0  0  0  0  0  0  0  0
   62.2839   29.4443   52.2344 H   0  0  0  0  0  0  0  0  0  0  0  0
   60.5895   28.4320   50.7165 H   0  0  0  0  0  0  0  0  0  0  0  0
   60.1165   29.4639   48.4992 H   0  0  0  0  0  0  0  0  0  0  0  0
   61.0383   29.3756   46.1699 H   0  0  0  0  0  0  0  0  0  0  0  0
   59.1844   28.7035   44.6468 H   0  0  0  0  0  0  0  0  0  0  0  0
   58.9724   27.2994   46.2273 H   0  0  0  0  0  0  0  0  0  0  0  0
   60.7406   25.5395   46.1763 H   0  0  0  0  0  0  0  0  0  0  0  0
  1  2  1  0
  2  3  1  0
  3  4  2  0
  4  5  1  0
  5  6  1  0
  6  7  2  0
  6  8  1  0
  8  9  1  0
  9 10  1  0
 10 11  1  0
 11 12  2  0
 12 13  1  0
 13 14  2  0
 14 15  1  0
 15 16  2  0
 16 17  1  0
 17 18  2  0
 18 19  1  0
 19 20  1  0
 19 21  1  0
 18 22  1  0
 22 23  2  0
 23 24  1  0
 24 25  2  0
 25 26  1  0
 26 27  2  0
 14 28  1  0
 28 29  2  0
  5 30  2  0
 30 31  1  0
 31 32  2  0
 32 33  1  0
 32  3  1  0
 29 11  1  0
 27 15  1  0
 27 22  1  0
  1 34  1  0
  1 35  1  0
  1 36  1  0
  4 37  1  0
  9 38  1  0
  9 39  1  0
 10 40  1  0
 10 41  1  0
 12 42  1  0
 13 43  1  0
 20 44  1  0
 20 45  1  0
 20 46  1  0
 21 47  1  0
 21 48  1  0
 21 49  1  0
 23 50  1  0
 24 51  1  0
 25 52  1  0
 26 53  1  0
 28 54  1  0
 29 55  1  0
 30 56  1  0
 31 57  1  0
M  CHG  2   8  -1  33  -1
M  END
>  <UniqueID>  (55) 
51

>  <SMILES>  (55) 
COc1cc(C(=O)[N-]CCc2ccc(-c3nnc(N(C)C)c4ccccc34)cc2)ccc1[O-]

>  <Energy>  (55) 
79.33028278943482

>  <Genealogy>  (55) 
COc1cc(C(=O)[N-]CCc2ccc(-c3nnc(N(C)C)c4ccccc34)cc2)ccc1[O-] (protonated)
COc1cc(C(=O)[N-]CCc2ccc(-c3nnc(N(C)C)c4ccccc34)cc2)ccc1[O-] (3D coordinates assigned)
COc1cc(C(=O)[N-]CCc2ccc(-c3nnc(N(C)C)c4ccccc34)cc2)ccc1[O-] (optimized conformer: 79.33028278943482 kcal/mol)

>  <smiles>  (55) 
COc1cc(C(=O)NCCc2ccc(-c3nnc(N(C)C)c4ccccc34)cc2)ccc1O

>  <score_type>  (55) 
oracle

>  <origin>  (55) 
adg

>  <m_score__min__energy>  (55) 
-13.300000000000001

>  <m_primary>  (55) 
energy

$$$$
55:0
     RDKit          3D

 36 38  0  0  0  0  0  0  0  0999 V2000
   53.7520   24.7730   45.6220 C   0  0  0  0  0  0  0  0  0  0  0  0
   54.5020   25.9250   45.9920 O   0  0  0  0  0  0  0  0  0  0  0  0
   55.9040   25.9790   46.0330 C   0  0  0  0  0  0  0  0  0  0  0  0
   56.5970   24.8560   46.4990 C   0  0  0  0  0  0  0  0  0  0  0  0
   57.9930   24.8580   46.5530 C   0  0  0  0  0  0  0  0  0  0  0  0
   58.7100   25.9840   46.1450 C   0  0  0  0  0  0  0  0  0  0  0  0
   58.0320   27.1230   45.6840 C   0  0  0  0  0  0  0  0  0  0  0  0
   58.8120   28.3230   45.2200 C   0  0  0  0  0  0  0  0  0  0  0  0
   57.9970   29.1430   44.3310 N   0  0  0  0  0  0  0  0  0  0  0  0
   57.2090   30.2530   44.7750 C   0  0  0  0  0  0  0  0  0  0  0  0
   55.9550   30.1480   44.8400 O   0  0  0  0  0  0  0  0  0  0  0  0
   57.8780   31.5250   45.1140 C   0  0  0  0  0  0  0  0  0  0  0  0
   57.9580   32.8260   44.0340 S   0  0  0  0  0  0  0  0  0  0  0  0
   58.7130   33.8600   45.1080 C   0  0  0  0  0  0  0  0  0  0  0  0
   59.0640   35.1460   44.8720 N   0  0  0  0  0  0  0  0  0  0  0  0
   59.6460   35.8620   45.8730 C   0  0  0  0  0  0  0  0  0  0  0  0
   59.8560   35.2910   47.0960 N   0  0  0  0  0  0  0  0  0  0  0  0
   59.5050   33.9990   47.3520 C   0  0  0  0  0  0  0  0  0  0  0  0
   59.6940   33.5250   48.5010 O   0  0  0  0  0  0  0  0  0  0  0  0
   58.9230   33.2370   46.3240 C   0  0  0  0  0  0  0  0  0  0  0  0
   58.4830   31.8900   46.3360 C   0  0  0  0  0  0  0  0  0  0  0  0
   58.6370   30.9620   47.5120 C   0  0  0  0  0  0  0  0  0  0  0  0
   56.6290   27.1150   45.6250 C   0  0  0  0  0  0  0  0  0  0  0  0
   53.4118   24.2504   46.5282 H   0  0  0  0  0  0  0  0  0  0  0  0
   52.8797   25.0793   45.0260 H   0  0  0  0  0  0  0  0  0  0  0  0
   54.3850   24.0992   45.0260 H   0  0  0  0  0  0  0  0  0  0  0  0
   56.0389   23.9659   46.8249 H   0  0  0  0  0  0  0  0  0  0  0  0
   58.5288   23.9694   46.9182 H   0  0  0  0  0  0  0  0  0  0  0  0
   59.8093   25.9786   46.1849 H   0  0  0  0  0  0  0  0  0  0  0  0
   59.1110   28.9214   46.0932 H   0  0  0  0  0  0  0  0  0  0  0  0
   59.7039   27.9812   44.6744 H   0  0  0  0  0  0  0  0  0  0  0  0
   59.9484   36.9047   45.6962 H   0  0  0  0  0  0  0  0  0  0  0  0
   58.5419   31.5350   48.4461 H   0  0  0  0  0  0  0  0  0  0  0  0
   57.8548   30.1895   47.4744 H   0  0  0  0  0  0  0  0  0  0  0  0
   59.6268   30.4836   47.4744 H   0  0  0  0  0  0  0  0  0  0  0  0
   56.0927   28.0023   45.2575 H   0  0  0  0  0  0  0  0  0  0  0  0
  1  2  1  0
  2  3  1  0
  3  4  2  0
  4  5  1  0
  5  6  2  0
  6  7  1  0
  7  8  1  0
  8  9  1  0
  9 10  1  0
 10 11  2  0
 10 12  1  0
 12 13  1  0
 13 14  1  0
 14 15  1  0
 15 16  1  0
 16 17  2  0
 17 18  1  0
 18 19  2  0
 18 20  1  0
 20 21  1  0
 21 22  1  0
  7 23  2  0
 23  3  1  0
 21 12  2  0
 20 14  2  0
  1 24  1  0
  1 25  1  0
  1 26  1  0
  4 27  1  0
  5 28  1  0
  6 29  1  0
  8 30  1  0
  8 31  1  0
 16 32  1  0
 22 33  1  0
 22 34  1  0
 22 35  1  0
 23 36  1  0
M  CHG  2   9  -1  15  -1
M  END
>  <UniqueID>  (56) 
52

>  <SMILES>  (56) 
COc1cccc(C[N-]C(=O)c2sc3[n-]cnc(=O)c3c2C)c1

>  <Energy>  (56) 
72.84808396542576

>  <Genealogy>  (56) 
COc1cccc(C[N-]C(=O)c2sc3[n-]cnc(=O)c3c2C)c1 (protonated)
COc1cccc(C[N-]C(=O)c2sc3[n-]cnc(=O)c3c2C)c1 (3D coordinates assigned)
COc1cccc(C[N-]C(=O)c2sc3[n-]cnc(=O)c3c2C)c1 (optimized conformer: 72.84808396542576 kcal/mol)

>  <smiles>  (56) 
COc1cccc(CNC(=O)c2sc3[nH]cnc(=O)c3c2C)c1

>  <score_type>  (56) 
oracle

>  <origin>  (56) 
adg

>  <m_score__min__energy>  (56) 
-9.8499999999999996

>  <m_primary>  (56) 
energy

$$$$
56:0
     RDKit          3D

 52 55  0  0  0  0  0  0  0  0999 V2000
   58.1241   24.4987   44.2054 H   0  0  0  0  0  0  0  0  0  0  0  0
   57.5030   25.0600   44.9190 C   0  0  0  0  0  0  0  0  0  0  0  0
   56.2710   24.5950   45.1830 C   0  0  0  0  0  0  0  0  0  0  0  0
   55.7230   22.9060   44.8720 S   0  0  0  0  0  0  0  0  0  0  0  0
   54.0720   23.4330   45.3440 C   0  0  0  0  0  0  0  0  0  0  0  0
   53.0930   22.6420   45.3350 O   0  0  0  0  0  0  0  0  0  0  0  0
   53.9240   24.7910   45.7310 N   0  0  0  0  0  0  0  0  0  0  0  0
   55.1750   25.4480   45.6370 C   0  0  0  0  0  0  0  0  0  0  0  0
   55.3070   26.6670   45.9240 O   0  0  0  0  0  0  0  0  0  0  0  0
   58.0760   26.2780   45.5270 C   0  0  0  0  0  0  0  0  0  0  0  0
   58.8620   27.1720   44.7830 C   0  0  0  0  0  0  0  0  0  0  0  0
   59.0404   26.9839   43.7140 H   0  0  0  0  0  0  0  0  0  0  0  0
   59.4190   28.2990   45.3920 C   0  0  0  0  0  0  0  0  0  0  0  0
   60.0142   29.0035   44.7924 H   0  0  0  0  0  0  0  0  0  0  0  0
   59.2270   28.5420   46.7620 C   0  0  0  0  0  0  0  0  0  0  0  0
   59.8290   29.7600   47.3580 C   0  0  0  0  0  0  0  0  0  0  0  0
   60.4002   29.6520   48.2918 H   0  0  0  0  0  0  0  0  0  0  0  0
   59.7170   30.9850   46.8240 C   0  0  0  0  0  0  0  0  0  0  0  0
   60.6269   31.5836   46.6699 H   0  0  0  0  0  0  0  0  0  0  0  0
   58.4080   31.5580   46.4350 C   0  0  0  0  0  0  0  0  0  0  0  0
   57.7820   32.3000   47.2400 O   0  0  0  0  0  0  0  0  0  0  0  0
   57.8140   31.2550   45.1100 C   0  0  0  0  0  0  0  0  0  0  0  0
   57.0220   30.1030   44.9430 C   0  0  0  0  0  0  0  0  0  0  0  0
   56.8561   29.4273   45.7950 H   0  0  0  0  0  0  0  0  0  0  0  0
   56.4460   29.8110   43.7070 C   0  0  0  0  0  0  0  0  0  0  0  0
   55.8211   28.9133   43.5906 H   0  0  0  0  0  0  0  0  0  0  0  0
   56.6610   30.6550   42.6190 C   0  0  0  0  0  0  0  0  0  0  0  0
   56.2102   30.4189   41.6438 H   0  0  0  0  0  0  0  0  0  0  0  0
   57.4470   31.7990   42.7640 C   0  0  0  0  0  0  0  0  0  0  0  0
   57.6200   32.4554   41.8985 H   0  0  0  0  0  0  0  0  0  0  0  0
   58.0210   32.1200   44.0110 C   0  0  0  0  0  0  0  0  0  0  0  0
   58.7790   33.2890   44.2000 O   0  0  0  0  0  0  0  0  0  0  0  0
   58.3580   34.4580   44.9110 C   0  0  0  0  0  0  0  0  0  0  0  0
   57.7808   35.1026   44.2318 H   0  0  0  0  0  0  0  0  0  0  0  0
   57.7403   34.1428   45.7649 H   0  0  0  0  0  0  0  0  0  0  0  0
   59.5610   35.2450   45.4460 C   0  0  0  0  0  0  0  0  0  0  0  0
   60.2858   35.3815   44.6299 H   0  0  0  0  0  0  0  0  0  0  0  0
   59.1918   36.2111   45.8207 H   0  0  0  0  0  0  0  0  0  0  0  0
   60.2430   34.5390   46.5860 C   0  0  0  0  0  0  0  0  0  0  0  0
   59.7050   34.5830   47.8830 C   0  0  0  0  0  0  0  0  0  0  0  0
   58.7522   35.1021   48.0638 H   0  0  0  0  0  0  0  0  0  0  0  0
   60.3580   33.9860   48.9160 N   0  0  0  0  0  0  0  0  0  0  0  0
   61.5360   33.3330   48.7320 C   0  0  0  0  0  0  0  0  0  0  0  0
   62.0400   32.8598   49.5876 H   0  0  0  0  0  0  0  0  0  0  0  0
   62.1080   33.2610   47.4610 C   0  0  0  0  0  0  0  0  0  0  0  0
   63.0603   32.7319   47.3088 H   0  0  0  0  0  0  0  0  0  0  0  0
   61.4580   33.8680   46.3850 C   0  0  0  0  0  0  0  0  0  0  0  0
   61.8992   33.8200   45.3785 H   0  0  0  0  0  0  0  0  0  0  0  0
   58.4500   27.6350   47.5100 C   0  0  0  0  0  0  0  0  0  0  0  0
   58.2797   27.8149   48.5817 H   0  0  0  0  0  0  0  0  0  0  0  0
   57.8940   26.5070   46.8970 C   0  0  0  0  0  0  0  0  0  0  0  0
   57.3088   25.7937   47.4960 H   0  0  0  0  0  0  0  0  0  0  0  0
  1  2  1  0
  2  3  2  3
  3  4  1  0
  4  5  1  0
  5  6  2  0
  5  7  1  0
  7  8  1  0
  8  9  2  0
  2 10  1  0
 10 11  2  0
 11 12  1  0
 11 13  1  0
 13 14  1  0
 13 15  2  0
 15 16  1  0
 16 17  1  0
 16 18  2  0
 18 19  1  0
 18 20  1  0
 20 21  2  0
 20 22  1  0
 22 23  2  0
 23 24  1  0
 23 25  1  0
 25 26  1  0
 25 27  2  0
 27 28  1  0
 27 29  1  0
 29 30  1  0
 29 31  2  0
 31 32  1  0
 32 33  1  0
 33 34  1  0
 33 35  1  0
 33 36  1  0
 36 37  1  0
 36 38  1  0
 36 39  1  0
 39 40  2  0
 40 41  1  0
 40 42  1  0
 42 43  2  0
 43 44  1  0
 43 45  1  0
 45 46  1  0
 45 47  2  0
 47 48  1  0
 15 49  1  0
 49 50  1  0
 49 51  2  0
 51 52  1  0
  8  3  1  0
 51 10  1  0
 31 22  1  0
 47 39  1  0
M  CHG  1   7  -1
M  END
>  <UniqueID>  (57) 
53

>  <SMILES>  (57) 
O=C1[N-]C(=O)C(=Cc2ccc(/C=C/C(=O)c3ccccc3OCCc3cccnc3)cc2)S1

>  <Energy>  (57) 
85.87804953982987

>  <Genealogy>  (57) 
O=C1[N-]C(=O)C(=Cc2ccc(C=CC(=O)c3ccccc3OCCc3cccnc3)cc2)S1 (protonated)
O=C1[N-]C(=O)C(=Cc2ccc(/C=C/C(=O)c3ccccc3OCCc3cccnc3)cc2)S1 (cis-trans isomerization)
O=C1[N-]C(=O)C(=Cc2ccc(/C=C/C(=O)c3ccccc3OCCc3cccnc3)cc2)S1 (3D coordinates assigned)
O=C1[N-]C(=O)C(=Cc2ccc(/C=C/C(=O)c3ccccc3OCCc3cccnc3)cc2)S1 (nonaromatic ring conformer: 85.87804953982987 kcal/mol)

>  <smiles>  (57) 
O=C1NC(=O)C(=Cc2ccc(C=CC(=O)c3ccccc3OCCc3cccnc3)cc2)S1

>  <score_type>  (57) 
oracle

>  <origin>  (57) 
adg

>  <m_score__min__energy>  (57) 
-12.74

>  <m_primary>  (57) 
energy

$$$$
57:0
     RDKit          3D

 46 48  0  0  0  0  0  0  0  0999 V2000
   59.9600   34.9500   48.8090 O   0  0  0  0  0  0  0  0  0  0  0  0
   60.1190   33.7590   49.1930 C   0  0  0  0  0  0  0  0  0  0  0  0
   61.1920   32.9740   48.6540 N   0  0  0  0  0  0  0  0  0  0  0  0
   61.8160   33.2670   47.3950 C   0  0  0  0  0  0  0  0  0  0  0  0
   63.4100   32.9530   47.2010 S   0  0  0  0  0  0  0  0  0  0  0  0
   61.0760   33.8380   46.3050 N   0  0  0  0  0  0  0  0  0  0  0  0
   59.7030   33.5260   46.0070 C   0  0  0  0  0  0  0  0  0  0  0  0
   58.8380   34.5530   45.6000 C   0  0  0  0  0  0  0  0  0  0  0  0
   57.5050   34.2720   45.2930 C   0  0  0  0  0  0  0  0  0  0  0  0
   57.0200   32.9660   45.3880 C   0  0  0  0  0  0  0  0  0  0  0  0
   57.8740   31.9240   45.7870 C   0  0  0  0  0  0  0  0  0  0  0  0
   57.4190   30.5710   45.9270 N   0  0  0  0  0  0  0  0  0  0  0  0
   58.3710   29.1520   45.6240 S   0  0  0  0  0  0  0  0  0  0  0  0
   59.3180   29.4380   44.4940 O   0  0  0  0  0  0  0  0  0  0  0  0
   57.4540   28.0290   45.2270 O   0  0  0  0  0  0  0  0  0  0  0  0
   59.3060   28.7000   47.0470 C   0  0  0  0  0  0  0  0  0  0  0  0
   59.3510   27.3590   47.4480 C   0  0  0  0  0  0  0  0  0  0  0  0
   60.0750   26.9900   48.5820 C   0  0  0  0  0  0  0  0  0  0  0  0
   60.7560   27.9570   49.3250 C   0  0  0  0  0  0  0  0  0  0  0  0
   60.7230   29.3090   48.9370 C   0  0  0  0  0  0  0  0  0  0  0  0
   61.4090   30.3090   49.7100 N   0  0  0  0  0  0  0  0  0  0  0  0
   60.8850   30.7930   50.7350 O   0  0  0  0  0  0  0  0  0  0  0  0
   62.6420   30.7720   49.3160 O   0  0  0  0  0  0  0  0  0  0  0  0
   60.0010   29.6700   47.7850 C   0  0  0  0  0  0  0  0  0  0  0  0
   59.2160   32.2080   46.0720 C   0  0  0  0  0  0  0  0  0  0  0  0
   59.2100   33.1920   50.2130 C   0  0  0  0  0  0  0  0  0  0  0  0
   59.1720   33.7220   51.5170 C   0  0  0  0  0  0  0  0  0  0  0  0
   58.3260   33.1670   52.4810 C   0  0  0  0  0  0  0  0  0  0  0  0
   57.5060   32.0840   52.1550 C   0  0  0  0  0  0  0  0  0  0  0  0
   57.5340   31.5510   50.8640 C   0  0  0  0  0  0  0  0  0  0  0  0
   58.3870   32.0950   49.8980 C   0  0  0  0  0  0  0  0  0  0  0  0
   61.6000   32.2130   49.2450 H   0  0  0  0  0  0  0  0  0  0  0  0
   61.5870   34.4800   45.6560 H   0  0  0  0  0  0  0  0  0  0  0  0
   59.2117   35.5847   45.5223 H   0  0  0  0  0  0  0  0  0  0  0  0
   56.8338   35.0833   44.9748 H   0  0  0  0  0  0  0  0  0  0  0  0
   55.9675   32.7526   45.1500 H   0  0  0  0  0  0  0  0  0  0  0  0
   58.8140   26.5945   46.8673 H   0  0  0  0  0  0  0  0  0  0  0  0
   60.1096   25.9351   48.8917 H   0  0  0  0  0  0  0  0  0  0  0  0
   61.3222   27.6594   50.2199 H   0  0  0  0  0  0  0  0  0  0  0  0
   59.9811   30.7208   47.4603 H   0  0  0  0  0  0  0  0  0  0  0  0
   59.8972   31.3902   46.3500 H   0  0  0  0  0  0  0  0  0  0  0  0
   59.8118   34.5777   51.7784 H   0  0  0  0  0  0  0  0  0  0  0  0
   58.3057   33.5839   53.4988 H   0  0  0  0  0  0  0  0  0  0  0  0
   56.8385   31.6511   52.9146 H   0  0  0  0  0  0  0  0  0  0  0  0
   56.8839   30.7018   50.6066 H   0  0  0  0  0  0  0  0  0  0  0  0
   58.4146   31.6629   48.8868 H   0  0  0  0  0  0  0  0  0  0  0  0
  1  2  2  0
  2  3  1  0
  3  4  1  0
  4  5  2  0
  4  6  1  0
  6  7  1  0
  7  8  2  0
  8  9  1  0
  9 10  2  0
 10 11  1  0
 11 12  1  0
 12 13  1  0
 13 14  2  0
 13 15  2  0
 13 16  1  0
 16 17  2  0
 17 18  1  0
 18 19  2  0
 19 20  1  0
 20 21  1  0
 21 22  2  0
 21 23  1  0
 20 24  2  0
 11 25  2  0
  2 26  1  0
 26 27  2  0
 27 28  1  0
 28 29  2  0
 29 30  1  0
 30 31  2  0
 25  7  1  0
 31 26  1  0
 24 16  1  0
  3 32  1  0
  6 33  1  0
  8 34  1  0
  9 35  1  0
 10 36  1  0
 17 37  1  0
 18 38  1  0
 19 39  1  0
 24 40  1  0
 25 41  1  0
 27 42  1  0
 28 43  1  0
 29 44  1  0
 30 45  1  0
 31 46  1  0
M  CHG  3  12  -1  21   1  23  -1
M  END
>  <UniqueID>  (58) 
54

>  <SMILES>  (58) 
O=C(NC(=S)Nc1cccc([N-]S(=O)(=O)c2cccc([N+](=O)[O-])c2)c1)c1ccccc1

>  <Energy>  (58) 
57.93278376243598

>  <Genealogy>  (58) 
O=C(NC(=S)Nc1cccc([N-]S(=O)(=O)c2cccc([N+](=O)[O-])c2)c1)c1ccccc1 (protonated)
O=C(NC(=S)Nc1cccc([N-]S(=O)(=O)c2cccc([N+](=O)[O-])c2)c1)c1ccccc1 (3D coordinates assigned)
O=C(NC(=S)Nc1cccc([N-]S(=O)(=O)c2cccc([N+](=O)[O-])c2)c1)c1ccccc1 (optimized conformer: 57.93278376243598 kcal/mol)

>  <smiles>  (58) 
O=C(NC(=S)Nc1cccc(NS(=O)(=O)c2cccc([N+](=O)[O-])c2)c1)c1ccccc1

>  <score_type>  (58) 
oracle

>  <origin>  (58) 
adg

>  <m_score__min__energy>  (58) 
-12.460000000000001

>  <m_primary>  (58) 
energy

$$$$
58:0
     RDKit          3D

 56 59  0  0  0  0  0  0  0  0999 V2000
   63.2270   33.7470   46.7040 C   0  0  0  0  0  0  0  0  0  0  0  0
   62.7690   33.4360   48.0010 O   0  0  0  0  0  0  0  0  0  0  0  0
   62.9960   32.0710   48.2940 C   0  0  0  0  0  0  0  0  0  0  0  0
   62.3590   31.6850   49.6340 C   0  0  0  0  0  0  0  0  0  0  0  0
   60.8930   31.6770   49.5450 N   0  0  0  0  0  0  0  0  0  0  0  0
   60.0820   32.2490   50.6280 C   0  0  0  0  0  0  0  0  0  0  0  0
   58.6380   31.7130   50.5970 C   0  0  2  0  0  0  0  0  0  0  0  0
   57.7380   32.3410   51.6240 C   0  0  0  0  0  0  0  0  0  0  0  0
   56.7490   31.2320   51.9270 C   0  0  0  0  0  0  0  0  0  0  0  0
   57.3040   29.9890   51.5570 O   0  0  0  0  0  0  0  0  0  0  0  0
   58.5560   30.2400   50.9650 C   0  0  0  0  0  0  0  0  0  0  0  0
   60.2840   31.4670   48.2650 C   0  0  0  0  0  0  0  0  0  0  0  0
   60.2180   30.2860   47.5280 C   0  0  0  0  0  0  0  0  0  0  0  0
   60.7690   29.0650   47.9200 O   0  0  0  0  0  0  0  0  0  0  0  0
   59.9640   27.9830   48.3720 C   0  0  0  0  0  0  0  0  0  0  0  0
   59.5410   30.4880   46.3660 N   0  0  0  0  0  0  0  0  0  0  0  0
   59.1830   31.7620   46.3950 N   0  0  0  0  0  0  0  0  0  0  0  0
   58.5140   32.5520   45.5210 C   0  0  0  0  0  0  0  0  0  0  0  0
   57.9630   32.1000   44.2280 C   0  0  0  0  0  0  0  0  0  0  0  0
   58.1430   32.7060   42.9980 C   0  0  0  0  0  0  0  0  0  0  0  0
   57.4670   31.9980   42.0730 N   0  0  0  0  0  0  0  0  0  0  0  0
   57.3550   32.3320   40.6600 C   0  0  0  0  0  0  0  0  0  0  0  0
   56.8330   30.9850   42.6430 N   0  0  0  0  0  0  0  0  0  0  0  0
   57.1240   31.0290   43.9590 C   0  0  0  0  0  0  0  0  0  0  0  0
   56.6110   30.1370   44.9030 O   0  0  0  0  0  0  0  0  0  0  0  0
   57.1200   28.8190   45.0620 C   0  0  0  0  0  0  0  0  0  0  0  0
   58.4290   33.8750   45.9920 C   0  0  0  0  0  0  0  0  0  0  0  0
   59.1970   33.9900   47.5200 S   0  0  0  0  0  0  0  0  0  0  0  0
   59.6080   32.3670   47.4870 C   0  0  0  0  0  0  0  0  0  0  0  0
   64.1352   34.3637   46.7739 H   0  0  0  0  0  0  0  0  0  0  0  0
   63.4561   32.8169   46.1632 H   0  0  0  0  0  0  0  0  0  0  0  0
   62.4470   34.3030   46.1632 H   0  0  0  0  0  0  0  0  0  0  0  0
   62.5577   31.4538   47.4960 H   0  0  0  0  0  0  0  0  0  0  0  0
   64.0809   31.9016   48.3592 H   0  0  0  0  0  0  0  0  0  0  0  0
   62.7062   30.6811   49.9199 H   0  0  0  0  0  0  0  0  0  0  0  0
   62.6572   32.4289   50.3874 H   0  0  0  0  0  0  0  0  0  0  0  0
   60.5396   31.9872   51.5935 H   0  0  0  0  0  0  0  0  0  0  0  0
   60.0476   33.3402   50.4934 H   0  0  0  0  0  0  0  0  0  0  0  0
   58.3274   31.9346   49.5653 H   0  0  0  0  0  0  0  0  0  0  0  0
   58.3023   32.6256   52.5243 H   0  0  0  0  0  0  0  0  0  0  0  0
   57.2595   33.2680   51.2752 H   0  0  0  0  0  0  0  0  0  0  0  0
   56.5237   31.2264   53.0037 H   0  0  0  0  0  0  0  0  0  0  0  0
   55.8232   31.4026   51.3580 H   0  0  0  0  0  0  0  0  0  0  0  0
   59.3576   29.9915   51.6761 H   0  0  0  0  0  0  0  0  0  0  0  0
   58.6729   29.6224   50.0623 H   0  0  0  0  0  0  0  0  0  0  0  0
   59.9532   27.9685   49.4719 H   0  0  0  0  0  0  0  0  0  0  0  0
   58.9375   28.1080   47.9969 H   0  0  0  0  0  0  0  0  0  0  0  0
   60.3787   27.0357   47.9969 H   0  0  0  0  0  0  0  0  0  0  0  0
   58.7371   33.6120   42.8076 H   0  0  0  0  0  0  0  0  0  0  0  0
   57.0069   33.3702   40.5551 H   0  0  0  0  0  0  0  0  0  0  0  0
   58.3383   32.2246   40.1788 H   0  0  0  0  0  0  0  0  0  0  0  0
   56.6352   31.6535   40.1788 H   0  0  0  0  0  0  0  0  0  0  0  0
   57.2095   28.5873   46.1336 H   0  0  0  0  0  0  0  0  0  0  0  0
   56.4343   28.1014   44.5877 H   0  0  0  0  0  0  0  0  0  0  0  0
   58.1100   28.7486   44.5877 H   0  0  0  0  0  0  0  0  0  0  0  0
   57.9442   34.7076   45.4612 H   0  0  0  0  0  0  0  0  0  0  0  0
  1  2  1  0
  2  3  1  0
  3  4  1  0
  4  5  1  0
  5  6  1  0
  6  7  1  0
  7  8  1  0
  8  9  1  0
  9 10  1  0
 10 11  1  0
  5 12  1  0
 12 13  1  0
 13 14  1  0
 14 15  1  0
 13 16  2  0
 16 17  1  0
 17 18  1  0
 18 19  1  0
 19 20  2  0
 20 21  1  0
 21 22  1  0
 21 23  1  0
 23 24  2  0
 24 25  1  0
 25 26  1  0
 18 27  2  0
 27 28  1  0
 28 29  1  0
 11  7  1  0
 29 12  2  0
 29 17  1  0
 24 19  1  0
  1 30  1  0
  1 31  1  0
  1 32  1  0
  3 33  1  0
  3 34  1  0
  4 35  1  0
  4 36  1  0
  6 37  1  0
  6 38  1  0
  7 39  1  6
  8 40  1  0
  8 41  1  0
  9 42  1  0
  9 43  1  0
 11 44  1  0
 11 45  1  0
 15 46  1  0
 15 47  1  0
 15 48  1  0
 20 49  1  0
 22 50  1  0
 22 51  1  0
 22 52  1  0
 26 53  1  0
 26 54  1  0
 26 55  1  0
 27 56  1  0
M  END
>  <UniqueID>  (59) 
55

>  <SMILES>  (59) 
COCCN(C[C@@H]1CCOC1)c1c(OC)nn2c(-c3cn(C)nc3OC)csc12

>  <Energy>  (59) 
168.2705737329131

>  <Genealogy>  (59) 
COCCN(C[C@@H]1CCOC1)c1c(OC)nn2c(-c3cn(C)nc3OC)csc12 (chirality)
COCCN(C[C@@H]1CCOC1)c1c(OC)nn2c(-c3cn(C)nc3OC)csc12 (3D coordinates assigned)
COCCN(C[C@@H]1CCOC1)c1c(OC)nn2c(-c3cn(C)nc3OC)csc12 (nonaromatic ring conformer: 168.2705737329131 kcal/mol)

>  <smiles>  (59) 
COCCN(CC1CCOC1)c1c(OC)nn2c(-c3cn(C)nc3OC)csc12

>  <score_type>  (59) 
oracle

>  <origin>  (59) 
adg

>  <m_score__min__energy>  (59) 
-7.3399999999999999

>  <m_primary>  (59) 
energy

$$$$
59:0
     RDKit          3D

 29 31  0  0  0  0  0  0  0  0999 V2000
   58.7530   26.4470   46.9780 O   0  0  0  0  0  0  0  0  0  0  0  0
   58.1580   27.0240   46.0280 C   0  0  0  0  0  0  0  0  0  0  0  0
   57.5730   26.2800   44.9940 O   0  0  0  0  0  0  0  0  0  0  0  0
   56.6020   25.2840   45.1590 C   0  0  0  0  0  0  0  0  0  0  0  0
   56.6990   23.9200   44.9310 C   0  0  0  0  0  0  0  0  0  0  0  0
   55.5520   23.3500   45.2380 O   0  0  0  0  0  0  0  0  0  0  0  0
   54.7060   24.2670   45.6600 C   0  0  0  0  0  0  0  0  0  0  0  0
   55.3300   25.4920   45.6300 C   0  0  0  0  0  0  0  0  0  0  0  0
   54.7770   26.7090   46.0050 O   0  0  0  0  0  0  0  0  0  0  0  0
   58.1660   28.5000   45.9530 C   0  0  0  0  0  0  0  0  0  0  0  0
   59.2560   29.1980   46.5070 C   0  0  0  0  0  0  0  0  0  0  0  0
   59.3480   30.5910   46.3930 C   0  0  0  0  0  0  0  0  0  0  0  0
   60.4420   31.2840   46.9350 C   0  0  0  0  0  0  0  0  0  0  0  0
   60.5270   32.6740   46.8080 C   0  0  0  0  0  0  0  0  0  0  0  0
   59.5240   33.3820   46.1410 C   0  0  0  0  0  0  0  0  0  0  0  0
   59.6480   35.2800   45.9730 Br  0  0  0  0  0  0  0  0  0  0  0  0
   58.4290   32.7030   45.5970 C   0  0  0  0  0  0  0  0  0  0  0  0
   58.3330   31.3080   45.7180 C   0  0  0  0  0  0  0  0  0  0  0  0
   57.2380   30.6170   45.1830 C   0  0  0  0  0  0  0  0  0  0  0  0
   57.1340   29.2290   45.3120 C   0  0  0  0  0  0  0  0  0  0  0  0
   55.9770   28.6150   44.8250 O   0  0  0  0  0  0  0  0  0  0  0  0
   57.5907   23.3976   44.5542 H   0  0  0  0  0  0  0  0  0  0  0  0
   53.6707   24.0832   45.9832 H   0  0  0  0  0  0  0  0  0  0  0  0
   60.0448   28.6427   47.0357 H   0  0  0  0  0  0  0  0  0  0  0  0
   61.2347   30.7319   47.4612 H   0  0  0  0  0  0  0  0  0  0  0  0
   61.3865   33.2119   47.2347 H   0  0  0  0  0  0  0  0  0  0  0  0
   57.6410   33.2637   45.0730 H   0  0  0  0  0  0  0  0  0  0  0  0
   56.4500   31.1738   44.6547 H   0  0  0  0  0  0  0  0  0  0  0  0
   55.9460   27.6530   44.5180 H   0  0  0  0  0  0  0  0  0  0  0  0
  1  2  2  0
  2  3  1  0
  3  4  1  0
  4  5  2  0
  5  6  1  0
  6  7  1  0
  7  8  2  0
  8  9  1  0
  2 10  1  0
 10 11  2  0
 11 12  1  0
 12 13  2  0
 13 14  1  0
 14 15  2  0
 15 16  1  0
 15 17  1  0
 17 18  2  0
 18 19  1  0
 19 20  2  0
 20 21  1  0
  8  4  1  0
 20 10  1  0
 18 12  1  0
  5 22  1  0
  7 23  1  0
 11 24  1  0
 13 25  1  0
 14 26  1  0
 17 27  1  0
 19 28  1  0
 21 29  1  0
M  CHG  1   9  -1
M  END
>  <UniqueID>  (60) 
56

>  <SMILES>  (60) 
O=C(Oc1cocc1[O-])c1cc2ccc(Br)cc2cc1O

>  <Energy>  (60) 
71.86600011352525

>  <Genealogy>  (60) 
O=C(Oc1cocc1[O-])c1cc2ccc(Br)cc2cc1O (protonated)
O=C(Oc1cocc1[O-])c1cc2ccc(Br)cc2cc1O (3D coordinates assigned)
O=C(Oc1cocc1[O-])c1cc2ccc(Br)cc2cc1O (optimized conformer: 71.86600011352525 kcal/mol)

>  <smiles>  (60) 
O=C(Oc1cocc1O)c1cc2ccc(Br)cc2cc1O

>  <score_type>  (60) 
oracle

>  <origin>  (60) 
adg

>  <m_score__min__energy>  (60) 
-11.09

>  <m_primary>  (60) 
energy

$$$$
60:0
     RDKit          3D

 51 54  0  0  0  0  0  0  0  0999 V2000
   57.5482   25.7847   46.8392 H   0  0  0  0  0  0  0  0  0  0  0  0
   57.4500   26.8140   46.4640 C   0  0  0  0  0  0  0  0  0  0  0  0
   58.5230   27.6460   46.7260 C   0  0  0  0  0  0  0  0  0  0  0  0
   59.3591   27.1655   47.2552 H   0  0  0  0  0  0  0  0  0  0  0  0
   58.7200   29.0040   46.4270 C   0  0  0  0  0  0  0  0  0  0  0  0
   59.9590   29.5310   46.8940 C   0  0  0  0  0  0  0  0  0  0  0  0
   60.6711   28.8821   47.4248 H   0  0  0  0  0  0  0  0  0  0  0  0
   60.2610   30.8630   46.6760 C   0  0  0  0  0  0  0  0  0  0  0  0
   61.3580   31.6190   47.0230 C   0  0  0  0  0  0  0  0  0  0  0  0
   61.1220   32.8790   46.5180 C   0  0  0  0  0  0  0  0  0  0  0  0
   59.9160   32.9400   45.9140 N   0  0  0  0  0  0  0  0  0  0  0  0
   59.4740   33.7700   45.4620 H   0  0  0  0  0  0  0  0  0  0  0  0
   59.4100   31.6920   46.0160 C   0  0  0  0  0  0  0  0  0  0  0  0
   58.1960   31.2390   45.5280 C   0  0  0  0  0  0  0  0  0  0  0  0
   57.5272   31.9303   44.9944 H   0  0  0  0  0  0  0  0  0  0  0  0
   57.8080   29.8720   45.7160 C   0  0  0  0  0  0  0  0  0  0  0  0
   56.5500   29.5020   45.1700 C   0  0  0  0  0  0  0  0  0  0  0  0
   55.8860   30.3750   44.5450 O   0  0  0  0  0  0  0  0  0  0  0  0
   55.9630   28.2880   45.2520 N   0  0  0  0  0  0  0  0  0  0  0  0
   56.2690   27.0930   45.7960 C   0  0  0  0  0  0  0  0  0  0  0  0
   55.4140   26.1170   45.6930 N   0  0  0  0  0  0  0  0  0  0  0  0
   55.6700   24.4830   46.2300 S   0  0  0  0  0  0  0  0  0  0  0  0
   56.3020   24.4840   47.5970 O   0  0  0  0  0  0  0  0  0  0  0  0
   54.3310   23.8120   46.3310 O   0  0  0  0  0  0  0  0  0  0  0  0
   56.6770   23.6320   45.0770 N   0  0  0  0  0  0  0  0  0  0  0  0
   56.4510   24.1220   43.7110 C   0  0  0  0  0  0  0  0  0  0  0  0
   55.9906   25.1202   43.7510 H   0  0  0  0  0  0  0  0  0  0  0  0
   57.4121   24.1825   43.1795 H   0  0  0  0  0  0  0  0  0  0  0  0
   55.7810   23.4302   43.1795 H   0  0  0  0  0  0  0  0  0  0  0  0
   58.1050   23.6310   45.4600 C   0  0  0  0  0  0  0  0  0  0  0  0
   58.1674   23.5299   46.5536 H   0  0  0  0  0  0  0  0  0  0  0  0
   58.5288   24.5766   45.0908 H   0  0  0  0  0  0  0  0  0  0  0  0
   58.9330   22.5040   44.8260 C   0  0  0  0  0  0  0  0  0  0  0  0
   59.3843   21.8898   45.6192 H   0  0  0  0  0  0  0  0  0  0  0  0
   58.2802   21.8756   44.2023 H   0  0  0  0  0  0  0  0  0  0  0  0
   59.7278   22.9392   44.2023 H   0  0  0  0  0  0  0  0  0  0  0  0
   62.0620   34.0210   46.7240 C   0  0  0  0  0  0  0  0  0  0  0  0
   62.1635   34.5826   45.7836 H   0  0  0  0  0  0  0  0  0  0  0  0
   61.6631   34.6773   47.5115 H   0  0  0  0  0  0  0  0  0  0  0  0
   63.4520   33.4960   47.1590 C   0  0  0  0  0  0  0  0  0  0  0  0
   63.9707   33.1047   46.2714 H   0  0  0  0  0  0  0  0  0  0  0  0
   63.9901   34.3397   47.6158 H   0  0  0  0  0  0  0  0  0  0  0  0
   63.3810   32.4140   48.1800 N   0  0  1  0  0  0  0  0  0  0  0  0
   64.3660   32.1090   48.3710 H   0  0  0  0  0  0  0  0  0  0  0  0
   62.8310   32.9000   49.4610 C   0  0  0  0  0  0  0  0  0  0  0  0
   63.3687   32.4249   50.2947 H   0  0  0  0  0  0  0  0  0  0  0  0
   62.9520   33.9917   49.5214 H   0  0  0  0  0  0  0  0  0  0  0  0
   61.7625   32.6456   49.5214 H   0  0  0  0  0  0  0  0  0  0  0  0
   62.6400   31.2220   47.6890 C   0  0  0  0  0  0  0  0  0  0  0  0
   63.2681   30.6817   46.9655 H   0  0  0  0  0  0  0  0  0  0  0  0
   62.4017   30.5803   48.5500 H   0  0  0  0  0  0  0  0  0  0  0  0
  1  2  1  0
  2  3  2  0
  3  4  1  0
  3  5  1  0
  5  6  2  0
  6  7  1  0
  6  8  1  0
  8  9  1  0
  9 10  2  0
 10 11  1  0
 11 12  1  0
 11 13  1  0
 13 14  1  0
 14 15  1  0
 14 16  2  0
 16 17  1  0
 17 18  2  0
 17 19  1  0
 19 20  1  0
 20 21  2  0
 21 22  1  0
 22 23  2  0
 22 24  2  0
 22 25  1  0
 25 26  1  0
 26 27  1  0
 26 28  1  0
 26 29  1  0
 25 30  1  0
 30 31  1  0
 30 32  1  0
 30 33  1  0
 33 34  1  0
 33 35  1  0
 33 36  1  0
 10 37  1  0
 37 38  1  0
 37 39  1  0
 37 40  1  0
 40 41  1  0
 40 42  1  0
 40 43  1  0
 43 44  1  1
 43 45  1  0
 45 46  1  0
 45 47  1  0
 45 48  1  0
 43 49  1  0
 49 50  1  0
 49 51  1  0
 20  2  1  0
 16  5  1  0
 13  8  2  0
 49  9  1  0
M  CHG  2  19  -1  43   1
M  END
>  <UniqueID>  (61) 
57

>  <SMILES>  (61) 
CCN(C)S(=O)(=O)/N=c1/ccc2cc3c4c([nH]c3cc2c(=O)[n-]1)CC[N@@H+](C)C4

>  <Energy>  (61) 
126.4709906002339

>  <Genealogy>  (61) 
CCN(C)S(=O)(=O)N=c1ccc2cc3c4c([nH]c3cc2c(=O)[n-]1)CC[NH+](C)C4 (protonated)
CCN(C)S(=O)(=O)N=c1ccc2cc3c4c([nH]c3cc2c(=O)[n-]1)CC[N@@H+](C)C4 (chirality)
CCN(C)S(=O)(=O)/N=c1/ccc2cc3c4c([nH]c3cc2c(=O)[n-]1)CC[N@@H+](C)C4 (cis-trans isomerization)
CCN(C)S(=O)(=O)/N=c1/ccc2cc3c4c([nH]c3cc2c(=O)[n-]1)CC[N@@H+](C)C4 (3D coordinates assigned)
CCN(C)S(=O)(=O)/N=c1/ccc2cc3c4c([nH]c3cc2c(=O)[n-]1)CC[N@@H+](C)C4 (nonaromatic ring conformer: 126.4709906002339 kcal/mol)

>  <smiles>  (61) 
CCN(C)S(=O)(=O)N=c1ccc2cc3c4c([nH]c3cc2c(=O)[nH]1)CCN(C)C4

>  <score_type>  (61) 
oracle

>  <origin>  (61) 
adg

>  <m_score__min__energy>  (61) 
-9.5700000000000003

>  <m_primary>  (61) 
energy

$$$$
61:0
     RDKit          3D

 52 56  0  0  0  0  0  0  0  0999 V2000
   57.6989   23.2188   45.9218 H   0  0  0  0  0  0  0  0  0  0  0  0
   57.4090   24.2770   45.8430 C   0  0  0  0  0  0  0  0  0  0  0  0
   58.3860   25.2550   45.6380 C   0  0  0  0  0  0  0  0  0  0  0  0
   59.4431   24.9650   45.5466 H   0  0  0  0  0  0  0  0  0  0  0  0
   58.0210   26.6020   45.5490 C   0  0  0  0  0  0  0  0  0  0  0  0
   58.7932   27.3689   45.3891 H   0  0  0  0  0  0  0  0  0  0  0  0
   56.6710   26.9810   45.6630 C   0  0  0  0  0  0  0  0  0  0  0  0
   56.2650   28.3540   45.5980 N   0  0  0  0  0  0  0  0  0  0  0  0
   57.2470   29.6440   44.9790 S   0  0  0  0  0  0  0  0  0  0  0  0
   56.3840   30.8580   44.7750 O   0  0  0  0  0  0  0  0  0  0  0  0
   57.8490   29.2650   43.6540 O   0  0  0  0  0  0  0  0  0  0  0  0
   58.5040   30.0130   46.1570 C   0  0  0  0  0  0  0  0  0  0  0  0
   59.3650   29.0050   46.6110 C   0  0  0  0  0  0  0  0  0  0  0  0
   59.3317   28.0070   46.1496 H   0  0  0  0  0  0  0  0  0  0  0  0
   60.2660   29.2630   47.6480 C   0  0  0  0  0  0  0  0  0  0  0  0
   60.9201   28.4598   48.0181 H   0  0  0  0  0  0  0  0  0  0  0  0
   60.3390   30.5390   48.2170 C   0  0  0  0  0  0  0  0  0  0  0  0
   61.1530   30.7480   49.3750 N   0  0  0  0  0  0  0  0  0  0  0  0
   61.3000   31.8110   50.1300 C   0  0  0  0  0  0  0  0  0  0  0  0
   60.2640   32.3630   50.9500 C   0  0  0  0  0  0  0  0  0  0  0  0
   58.8860   32.0780   50.7860 C   0  0  0  0  0  0  0  0  0  0  0  0
   58.5635   31.4035   49.9791 H   0  0  0  0  0  0  0  0  0  0  0  0
   57.9320   32.6420   51.6350 C   0  0  0  0  0  0  0  0  0  0  0  0
   56.8696   32.3858   51.5101 H   0  0  0  0  0  0  0  0  0  0  0  0
   58.3170   33.5270   52.6390 C   0  0  0  0  0  0  0  0  0  0  0  0
   57.5661   33.9361   53.3310 H   0  0  0  0  0  0  0  0  0  0  0  0
   59.6550   33.8930   52.7650 C   0  0  0  0  0  0  0  0  0  0  0  0
   59.9552   34.6157   53.5380 H   0  0  0  0  0  0  0  0  0  0  0  0
   60.6190   33.3440   51.9110 C   0  0  0  0  0  0  0  0  0  0  0  0
   61.8920   33.8030   51.9850 N   0  0  0  0  0  0  0  0  0  0  0  0
   62.8780   33.3790   51.1580 C   0  0  0  0  0  0  0  0  0  0  0  0
   64.1820   33.9190   51.2690 C   0  0  0  0  0  0  0  0  0  0  0  0
   64.5500   34.8840   52.3350 C   0  0  0  0  0  0  0  0  0  0  0  0
   65.5810   35.5970   52.1980 O   0  0  0  0  0  0  0  0  0  0  0  0
   63.8010   34.9740   53.5480 N   0  0  0  0  0  0  0  0  0  0  0  0
   63.0280   34.3080   53.7580 H   0  0  0  0  0  0  0  0  0  0  0  0
   64.1190   35.6080   54.3120 H   0  0  0  0  0  0  0  0  0  0  0  0
   65.1660   33.5220   50.3530 C   0  0  0  0  0  0  0  0  0  0  0  0
   66.1695   33.9695   50.4041 H   0  0  0  0  0  0  0  0  0  0  0  0
   64.8860   32.5660   49.3780 C   0  0  0  0  0  0  0  0  0  0  0  0
   65.6714   32.2580   48.6721 H   0  0  0  0  0  0  0  0  0  0  0  0
   63.6150   31.9980   49.2930 C   0  0  0  0  0  0  0  0  0  0  0  0
   63.4116   31.2273   48.5349 H   0  0  0  0  0  0  0  0  0  0  0  0
   62.5870   32.4040   50.1720 C   0  0  0  0  0  0  0  0  0  0  0  0
   59.4820   31.5540   47.7560 C   0  0  0  0  0  0  0  0  0  0  0  0
   59.5286   32.5572   48.2049 H   0  0  0  0  0  0  0  0  0  0  0  0
   58.5720   31.2920   46.7300 C   0  0  0  0  0  0  0  0  0  0  0  0
   57.9066   32.0904   46.3699 H   0  0  0  0  0  0  0  0  0  0  0  0
   55.6940   25.9890   45.8550 C   0  0  0  0  0  0  0  0  0  0  0  0
   54.3520   26.3390   45.9780 O   0  0  0  0  0  0  0  0  0  0  0  0
   56.0640   24.6420   45.9480 C   0  0  0  0  0  0  0  0  0  0  0  0
   55.2956   23.8704   46.1038 H   0  0  0  0  0  0  0  0  0  0  0  0
  1  2  1  0
  2  3  2  0
  3  4  1  0
  3  5  1  0
  5  6  1  0
  5  7  2  0
  7  8  1  0
  8  9  1  0
  9 10  2  0
  9 11  2  0
  9 12  1  0
 12 13  2  0
 13 14  1  0
 13 15  1  0
 15 16  1  0
 15 17  2  0
 17 18  1  0
 18 19  2  0
 19 20  1  0
 20 21  2  0
 21 22  1  0
 21 23  1  0
 23 24  1  0
 23 25  2  0
 25 26  1  0
 25 27  1  0
 27 28  1  0
 27 29  2  0
 29 30  1  0
 30 31  1  0
 31 32  2  0
 32 33  1  0
 33 34  2  0
 33 35  1  0
 35 36  1  0
 35 37  1  0
 32 38  1  0
 38 39  1  0
 38 40  2  0
 40 41  1  0
 40 42  1  0
 42 43  1  0
 42 44  2  0
 17 45  1  0
 45 46  1  0
 45 47  2  0
 47 48  1  0
  7 49  1  0
 49 50  1  0
 49 51  2  0
 51 52  1  0
 51  2  1  0
 47 12  1  0
 44 19  1  0
 29 20  1  0
 44 31  1  0
M  CHG  3   8  -1  30  -1  50  -1
M  END
>  <UniqueID>  (62) 
58

>  <SMILES>  (62) 
NC(=O)c1cccc2/c(=N/c3ccc(S(=O)(=O)[N-]c4ccccc4[O-])cc3)c3ccccc3[n-]c12

>  <Energy>  (62) 
97.70717043361324

>  <Genealogy>  (62) 
NC(=O)c1cccc2c(=Nc3ccc(S(=O)(=O)[N-]c4ccccc4[O-])cc3)c3ccccc3[n-]c12 (protonated)
NC(=O)c1cccc2/c(=N/c3ccc(S(=O)(=O)[N-]c4ccccc4[O-])cc3)c3ccccc3[n-]c12 (cis-trans isomerization)
NC(=O)c1cccc2/c(=N/c3ccc(S(=O)(=O)[N-]c4ccccc4[O-])cc3)c3ccccc3[n-]c12 (3D coordinates assigned)
NC(=O)c1cccc2/c(=N/c3ccc(S(=O)(=O)[N-]c4ccccc4[O-])cc3)c3ccccc3[n-]c12 (optimized conformer: 97.70717043361324 kcal/mol)

>  <smiles>  (62) 
NC(=O)c1cccc2c(=Nc3ccc(S(=O)(=O)Nc4ccccc4O)cc3)c3ccccc3[nH]c12

>  <score_type>  (62) 
oracle

>  <origin>  (62) 
adg

>  <m_score__min__energy>  (62) 
-16.77

>  <m_primary>  (62) 
energy

$$$$
62:0
     RDKit          3D

 48 50  0  0  0  0  0  0  0  0999 V2000
   57.4420   22.2400   43.7830 C   0  0  0  0  0  0  0  0  0  0  0  0
   56.3780   23.1210   44.1320 O   0  0  0  0  0  0  0  0  0  0  0  0
   56.5550   24.4440   44.5590 C   0  0  0  0  0  0  0  0  0  0  0  0
   55.8040   25.0080   45.6090 C   0  0  0  0  0  0  0  0  0  0  0  0
   56.0240   26.3320   46.0010 C   0  0  0  0  0  0  0  0  0  0  0  0
   57.0060   27.1080   45.3640 C   0  0  0  0  0  0  0  0  0  0  0  0
   57.2300   28.4810   45.7300 N   0  0  0  0  0  0  0  0  0  0  0  0
   57.0750   29.6000   44.8430 C   0  0  0  0  0  0  0  0  0  0  0  0
   55.8970   29.5860   43.6950 S   0  0  0  0  0  0  0  0  0  0  0  0
   57.8370   30.7990   45.0870 N   0  0  0  0  0  0  0  0  0  0  0  0
   59.2790   30.6900   45.3470 C   0  0  0  0  0  0  0  0  0  0  0  0
   59.5260   29.7450   46.4910 C   0  0  0  0  0  0  0  0  0  0  0  0
   59.1940   30.1120   47.8070 C   0  0  0  0  0  0  0  0  0  0  0  0
   59.4530   29.2380   48.8670 C   0  0  0  0  0  0  0  0  0  0  0  0
   60.0460   27.9950   48.6220 C   0  0  0  0  0  0  0  0  0  0  0  0
   60.3850   27.6260   47.3180 C   0  0  0  0  0  0  0  0  0  0  0  0
   60.1240   28.4970   46.2540 C   0  0  0  0  0  0  0  0  0  0  0  0
   57.2050   32.1260   45.0450 C   0  0  0  0  0  0  0  0  0  0  0  0
   58.0640   33.1330   45.7600 C   0  0  0  0  0  0  0  0  0  0  0  0
   58.1600   33.1260   47.1610 C   0  0  0  0  0  0  0  0  0  0  0  0
   58.9820   34.0490   47.8170 C   0  0  0  0  0  0  0  0  0  0  0  0
   59.7140   34.9820   47.0790 C   0  0  0  0  0  0  0  0  0  0  0  0
   59.6300   34.9900   45.6850 C   0  0  0  0  0  0  0  0  0  0  0  0
   58.8110   34.0680   45.0250 C   0  0  0  0  0  0  0  0  0  0  0  0
   57.7360   26.5520   44.3050 C   0  0  0  0  0  0  0  0  0  0  0  0
   57.5190   25.2280   43.9160 C   0  0  0  0  0  0  0  0  0  0  0  0
   57.9115   21.8513   44.6987 H   0  0  0  0  0  0  0  0  0  0  0  0
   57.0452   21.4025   43.1904 H   0  0  0  0  0  0  0  0  0  0  0  0
   58.1908   22.7861   43.1904 H   0  0  0  0  0  0  0  0  0  0  0  0
   55.0413   24.4043   46.1226 H   0  0  0  0  0  0  0  0  0  0  0  0
   55.4242   26.7685   46.8133 H   0  0  0  0  0  0  0  0  0  0  0  0
   57.4980   28.6890   46.7190 H   0  0  0  0  0  0  0  0  0  0  0  0
   59.7839   30.3111   44.4461 H   0  0  0  0  0  0  0  0  0  0  0  0
   59.6748   31.6828   45.6071 H   0  0  0  0  0  0  0  0  0  0  0  0
   58.7292   31.0895   48.0031 H   0  0  0  0  0  0  0  0  0  0  0  0
   59.1901   29.5282   49.8950 H   0  0  0  0  0  0  0  0  0  0  0  0
   60.2456   27.3074   49.4570 H   0  0  0  0  0  0  0  0  0  0  0  0
   60.8571   26.6509   47.1274 H   0  0  0  0  0  0  0  0  0  0  0  0
   60.3885   28.2025   45.2277 H   0  0  0  0  0  0  0  0  0  0  0  0
   57.0784   32.4352   43.9970 H   0  0  0  0  0  0  0  0  0  0  0  0
   56.2250   32.0729   45.5417 H   0  0  0  0  0  0  0  0  0  0  0  0
   57.5864   32.3915   47.7454 H   0  0  0  0  0  0  0  0  0  0  0  0
   59.0518   34.0398   48.9147 H   0  0  0  0  0  0  0  0  0  0  0  0
   60.3564   35.7102   47.5956 H   0  0  0  0  0  0  0  0  0  0  0  0
   60.2093   35.7232   45.1046 H   0  0  0  0  0  0  0  0  0  0  0  0
   58.7518   34.0753   43.9266 H   0  0  0  0  0  0  0  0  0  0  0  0
   58.4841   27.1615   43.7770 H   0  0  0  0  0  0  0  0  0  0  0  0
   58.1121   24.7974   43.0957 H   0  0  0  0  0  0  0  0  0  0  0  0
  1  2  1  0
  2  3  1  0
  3  4  2  0
  4  5  1  0
  5  6  2  0
  6  7  1  0
  7  8  1  0
  8  9  2  0
  8 10  1  0
 10 11  1  0
 11 12  1  0
 12 13  2  0
 13 14  1  0
 14 15  2  0
 15 16  1  0
 16 17  2  0
 10 18  1  0
 18 19  1  0
 19 20  2  0
 20 21  1  0
 21 22  2  0
 22 23  1  0
 23 24  2  0
  6 25  1  0
 25 26  2  0
 26  3  1  0
 17 12  1  0
 24 19  1  0
  1 27  1  0
  1 28  1  0
  1 29  1  0
  4 30  1  0
  5 31  1  0
  7 32  1  0
 11 33  1  0
 11 34  1  0
 13 35  1  0
 14 36  1  0
 15 37  1  0
 16 38  1  0
 17 39  1  0
 18 40  1  0
 18 41  1  0
 20 42  1  0
 21 43  1  0
 22 44  1  0
 23 45  1  0
 24 46  1  0
 25 47  1  0
 26 48  1  0
M  END
>  <UniqueID>  (63) 
59

>  <SMILES>  (63) 
COc1ccc(NC(=S)N(Cc2ccccc2)Cc2ccccc2)cc1

>  <Energy>  (63) 
54.272081111993764

>  <Genealogy>  (63) 
COc1ccc(NC(=S)N(Cc2ccccc2)Cc2ccccc2)cc1 (3D coordinates assigned)
COc1ccc(NC(=S)N(Cc2ccccc2)Cc2ccccc2)cc1 (optimized conformer: 54.272081111993764 kcal/mol)

>  <smiles>  (63) 
COc1ccc(NC(=S)N(Cc2ccccc2)Cc2ccccc2)cc1

>  <score_type>  (63) 
oracle

>  <origin>  (63) 
adg

>  <m_score__min__energy>  (63) 
-7.3899999999999997

>  <m_primary>  (63) 
energy

$$$$
63:0
     RDKit          3D

 48 50  0  0  0  0  0  0  0  0999 V2000
   57.1460   28.7790   43.3330 N   0  0  0  0  0  0  0  0  0  0  0  0
   56.5470   29.6020   44.3360 C   0  0  0  0  0  0  0  0  0  0  0  0
   55.4290   29.2840   44.8210 O   0  0  0  0  0  0  0  0  0  0  0  0
   57.2680   30.8110   44.8530 C   0  0  0  0  0  0  0  0  0  0  0  0
   58.6980   30.8540   44.3100 C   0  0  0  0  0  0  0  0  0  0  0  0
   59.3770   29.5820   44.5930 N   0  0  0  0  0  0  0  0  0  0  0  0
   60.3860   29.7250   45.6550 C   0  0  0  0  0  0  0  0  0  0  0  0
   59.7590   30.0280   46.9960 C   0  0  0  0  0  0  0  0  0  0  0  0
   59.2160   28.9980   47.7770 C   0  0  0  0  0  0  0  0  0  0  0  0
   58.6020   29.2860   48.9990 C   0  0  0  0  0  0  0  0  0  0  0  0
   58.5210   30.6110   49.4620 C   0  0  0  0  0  0  0  0  0  0  0  0
   57.8620   30.9060   50.7540 C   0  0  0  0  0  0  0  0  0  0  0  0
   56.8620   30.1560   51.2710 N   0  0  0  0  0  0  0  0  0  0  0  0
   56.4290   30.6280   52.4730 C   0  0  0  0  0  0  0  0  0  0  0  0
   55.3050   29.9770   53.2220 C   0  0  0  0  0  0  0  0  0  0  0  0
   54.1350   29.8130   52.3570 N   0  0  0  0  0  0  0  0  0  0  0  0
   52.9790   30.6740   52.3790 C   0  0  0  0  0  0  0  0  0  0  0  0
   52.2560   30.9210   53.5630 C   0  0  0  0  0  0  0  0  0  0  0  0
   51.1330   31.7540   53.5440 C   0  0  0  0  0  0  0  0  0  0  0  0
   50.7220   32.3500   52.3500 C   0  0  0  0  0  0  0  0  0  0  0  0
   51.4340   32.1160   51.1700 C   0  0  0  0  0  0  0  0  0  0  0  0
   51.0250   32.7120   49.9820 O   0  0  0  0  0  0  0  0  0  0  0  0
   52.5570   31.2830   51.1850 C   0  0  0  0  0  0  0  0  0  0  0  0
   57.0690   31.7810   52.9210 C   0  0  0  0  0  0  0  0  0  0  0  0
   58.2270   32.1960   51.7780 S   0  0  0  0  0  0  0  0  0  0  0  0
   59.0680   31.6410   48.6770 C   0  0  0  0  0  0  0  0  0  0  0  0
   59.6780   31.3520   47.4530 C   0  0  0  0  0  0  0  0  0  0  0  0
   58.0890   29.0090   42.9470 H   0  0  0  0  0  0  0  0  0  0  0  0
   56.6520   27.9280   42.9860 H   0  0  0  0  0  0  0  0  0  0  0  0
   56.7318   31.7167   44.5333 H   0  0  0  0  0  0  0  0  0  0  0  0
   57.3054   30.7608   45.9512 H   0  0  0  0  0  0  0  0  0  0  0  0
   58.6709   31.0194   43.2228 H   0  0  0  0  0  0  0  0  0  0  0  0
   59.2464   31.6742   44.7964 H   0  0  0  0  0  0  0  0  0  0  0  0
   59.8450   29.2410   43.7180 H   0  0  0  0  0  0  0  0  0  0  0  0
   60.9546   28.7866   45.7330 H   0  0  0  0  0  0  0  0  0  0  0  0
   61.0416   30.5673   45.3889 H   0  0  0  0  0  0  0  0  0  0  0  0
   59.2736   27.9571   47.4259 H   0  0  0  0  0  0  0  0  0  0  0  0
   58.1789   28.4698   49.6031 H   0  0  0  0  0  0  0  0  0  0  0  0
   55.6324   28.9891   53.5781 H   0  0  0  0  0  0  0  0  0  0  0  0
   55.0293   30.6166   54.0734 H   0  0  0  0  0  0  0  0  0  0  0  0
   54.1450   29.0090   51.6890 H   0  0  0  0  0  0  0  0  0  0  0  0
   52.5766   30.4562   54.5070 H   0  0  0  0  0  0  0  0  0  0  0  0
   50.5721   31.9402   54.4718 H   0  0  0  0  0  0  0  0  0  0  0  0
   49.8376   33.0039   52.3379 H   0  0  0  0  0  0  0  0  0  0  0  0
   53.1148   31.1029   50.2542 H   0  0  0  0  0  0  0  0  0  0  0  0
   56.8547   32.3219   53.8546 H   0  0  0  0  0  0  0  0  0  0  0  0
   59.0156   32.6820   49.0286 H   0  0  0  0  0  0  0  0  0  0  0  0
   60.0969   32.1672   46.8447 H   0  0  0  0  0  0  0  0  0  0  0  0
  1  2  1  0
  2  3  2  0
  2  4  1  0
  4  5  1  0
  5  6  1  0
  6  7  1  0
  7  8  1  0
  8  9  2  0
  9 10  1  0
 10 11  2  0
 11 12  1  0
 12 13  2  0
 13 14  1  0
 14 15  1  0
 15 16  1  0
 16 17  1  0
 17 18  2  0
 18 19  1  0
 19 20  2  0
 20 21  1  0
 21 22  1  0
 21 23  2  0
 14 24  2  0
 24 25  1  0
 11 26  1  0
 26 27  2  0
 27  8  1  0
 25 12  1  0
 23 17  1  0
  1 28  1  0
  1 29  1  0
  4 30  1  0
  4 31  1  0
  5 32  1  0
  5 33  1  0
  6 34  1  0
  7 35  1  0
  7 36  1  0
  9 37  1  0
 10 38  1  0
 15 39  1  0
 15 40  1  0
 16 41  1  0
 18 42  1  0
 19 43  1  0
 20 44  1  0
 23 45  1  0
 24 46  1  0
 26 47  1  0
 27 48  1  0
M  CHG  1  22  -1
M  END
>  <UniqueID>  (64) 
60

>  <SMILES>  (64) 
NC(=O)CCNCc1ccc(-c2nc(CNc3cccc([O-])c3)cs2)cc1

>  <Energy>  (64) 
73.4727960245546

>  <Genealogy>  (64) 
NC(=O)CCNCc1ccc(-c2nc(CNc3cccc([O-])c3)cs2)cc1 (protonated)
NC(=O)CCNCc1ccc(-c2nc(CNc3cccc([O-])c3)cs2)cc1 (3D coordinates assigned)
NC(=O)CCNCc1ccc(-c2nc(CNc3cccc([O-])c3)cs2)cc1 (optimized conformer: 73.4727960245546 kcal/mol)

>  <smiles>  (64) 
NC(=O)CCNCc1ccc(-c2nc(CNc3cccc(O)c3)cs2)cc1

>  <score_type>  (64) 
oracle

>  <origin>  (64) 
adg

>  <m_score__min__energy>  (64) 
-13.210000000000001

>  <m_primary>  (64) 
energy

$$$$
64:0
     RDKit          3D

 44 47  0  0  0  0  0  0  0  0999 V2000
   56.3639   29.8392   53.6375 H   0  0  0  0  0  0  0  0  0  0  0  0
   56.9010   30.3030   52.7970 C   0  0  0  0  0  0  0  0  0  0  0  0
   57.3670   29.6470   51.7160 N   0  0  0  0  0  0  0  0  0  0  0  0
   57.9510   30.5380   50.9310 N   0  0  0  0  0  0  0  0  0  0  0  0
   58.5630   30.2150   49.6770 C   0  0  0  0  0  0  0  0  0  0  0  0
   59.4970   31.0370   49.1320 N   0  0  0  0  0  0  0  0  0  0  0  0
   58.7680   28.7690   47.8250 C   0  0  0  0  0  0  0  0  0  0  0  0
   58.4270   27.6900   47.1850 N   0  0  0  0  0  0  0  0  0  0  0  0
   58.4230   27.5480   45.7290 C   0  0  0  0  0  0  0  0  0  0  0  0
   57.9449   26.5943   45.4608 H   0  0  0  0  0  0  0  0  0  0  0  0
   59.4624   27.5692   45.3695 H   0  0  0  0  0  0  0  0  0  0  0  0
   57.6640   28.6810   45.0830 C   0  0  0  0  0  0  0  0  0  0  0  0
   58.3590   29.7480   44.4890 C   0  0  0  0  0  0  0  0  0  0  0  0
   59.4585   29.7666   44.5152 H   0  0  0  0  0  0  0  0  0  0  0  0
   57.6610   30.7860   43.8650 C   0  0  0  0  0  0  0  0  0  0  0  0
   58.2120   31.6173   43.4009 H   0  0  0  0  0  0  0  0  0  0  0  0
   57.2590   34.2120   45.3430 C   0  0  0  0  0  0  0  0  0  0  0  0
   56.3418   34.5279   44.8244 H   0  0  0  0  0  0  0  0  0  0  0  0
   58.5100   34.5200   44.8010 C   0  0  0  0  0  0  0  0  0  0  0  0
   58.5763   35.0779   43.8553 H   0  0  0  0  0  0  0  0  0  0  0  0
   59.6780   34.1200   45.4590 C   0  0  0  0  0  0  0  0  0  0  0  0
   60.6609   34.3663   45.0310 H   0  0  0  0  0  0  0  0  0  0  0  0
   59.6980   29.5960   47.2880 N   0  0  0  0  0  0  0  0  0  0  0  0
   60.0690   30.7320   47.9400 C   0  0  0  0  0  0  0  0  0  0  0  0
   60.9620   31.5310   47.4380 N   0  0  0  0  0  0  0  0  0  0  0  0
   60.8500   32.9890   47.3950 C   0  0  0  0  0  0  0  0  0  0  0  0
   60.8159   33.3793   48.4228 H   0  0  0  0  0  0  0  0  0  0  0  0
   61.7219   33.3959   46.8619 H   0  0  0  0  0  0  0  0  0  0  0  0
   59.5980   33.4040   46.6660 C   0  0  0  0  0  0  0  0  0  0  0  0
   58.3380   33.1000   47.2050 C   0  0  0  0  0  0  0  0  0  0  0  0
   58.2668   32.5430   48.1509 H   0  0  0  0  0  0  0  0  0  0  0  0
   57.1740   33.5020   46.5450 C   0  0  0  0  0  0  0  0  0  0  0  0
   56.1893   33.2597   46.9713 H   0  0  0  0  0  0  0  0  0  0  0  0
   56.2650   30.7690   43.8300 C   0  0  0  0  0  0  0  0  0  0  0  0
   55.7171   31.5876   43.3404 H   0  0  0  0  0  0  0  0  0  0  0  0
   55.5640   29.7120   44.4170 C   0  0  0  0  0  0  0  0  0  0  0  0
   54.4644   29.7010   44.3882 H   0  0  0  0  0  0  0  0  0  0  0  0
   56.2550   28.6680   45.0410 C   0  0  0  0  0  0  0  0  0  0  0  0
   55.5390   27.6220   45.6130 O   0  0  0  0  0  0  0  0  0  0  0  0
   58.2050   29.0800   49.0220 N   0  0  0  0  0  0  0  0  0  0  0  0
   57.8690   31.7620   51.4880 C   0  0  0  0  0  0  0  0  0  0  0  0
   58.2669   32.6933   51.0587 H   0  0  0  0  0  0  0  0  0  0  0  0
   57.2010   31.6470   52.6880 C   0  0  0  0  0  0  0  0  0  0  0  0
   56.9599   32.4487   53.4016 H   0  0  0  0  0  0  0  0  0  0  0  0
  1  2  1  0
  2  3  2  0
  3  4  1  0
  4  5  1  0
  5  6  2  0
  6  7  1  0
  7  8  2  0
  8  9  1  0
  9 10  1  0
  9 11  1  0
  9 12  1  0
 12 13  2  0
 13 14  1  0
 13 15  1  0
 15 16  1  0
 15 17  2  0
 17 18  1  0
 17 19  1  0
 19 20  1  0
 19 21  2  0
 21 22  1  0
  7 23  1  0
 23 24  1  0
 24 25  2  0
 25 26  1  0
 26 27  1  0
 26 28  1  0
 26 29  1  0
 29 30  2  0
 30 31  1  0
 30 32  1  0
 32 33  1  0
 32 34  2  0
 34 35  1  0
 34 36  1  0
 36 37  1  0
 36 38  2  0
 38 39  1  0
 24 40  1  0
  4 41  1  0
 41 42  1  0
 41 43  2  0
 43 44  1  0
 43  2  1  0
 40  5  1  0
 21 12  1  0
 38 29  1  0
M  CHG  3  23  -1  39  -1  40  -1
M  END
>  <UniqueID>  (65) 
61

>  <SMILES>  (65) 
[O-]c1ccccc1C/N=c1\[n-]c(-n2cccn2)n/c(=N/Cc2ccccc2)[n-]1

>  <Energy>  (65) 
76.70491425753693

>  <Genealogy>  (65) 
[O-]c1ccccc1CN=c1[n-]c(-n2cccn2)nc(=NCc2ccccc2)[n-]1 (protonated)
[O-]c1ccccc1C/N=c1\[n-]c(-n2cccn2)n/c(=N/Cc2ccccc2)[n-]1 (cis-trans isomerization)
[O-]c1ccccc1C/N=c1\[n-]c(-n2cccn2)n/c(=N/Cc2ccccc2)[n-]1 (3D coordinates assigned)
[O-]c1ccccc1C/N=c1\[n-]c(-n2cccn2)n/c(=N/Cc2ccccc2)[n-]1 (optimized conformer: 76.70491425753693 kcal/mol)

>  <smiles>  (65) 
Oc1ccccc1CN=c1[nH]c(-n2cccn2)nc(=NCc2ccccc2)[nH]1

>  <score_type>  (65) 
oracle

>  <origin>  (65) 
adg

>  <m_score__min__energy>  (65) 
-13.68

>  <m_primary>  (65) 
energy

$$$$
65:0
     RDKit          3D

 44 46  0  0  0  0  0  0  0  0999 V2000
   60.3480   27.8730   49.4820 C   0  0  0  0  0  0  0  0  0  0  0  0
   60.1280   27.5310   48.0780 N   0  0  0  0  0  0  0  0  0  0  0  0
   60.7900   26.3600   47.5000 C   0  0  0  0  0  0  0  0  0  0  0  0
   59.2950   28.3720   47.2630 C   0  0  0  0  0  0  0  0  0  0  0  0
   58.1580   27.8240   46.6320 C   0  0  0  0  0  0  0  0  0  0  0  0
   57.3710   28.6730   45.8610 C   0  0  0  0  0  0  0  0  0  0  0  0
   56.2500   28.3820   45.1890 N   0  0  0  0  0  0  0  0  0  0  0  0
   55.8990   29.5690   44.6410 C   0  0  0  0  0  0  0  0  0  0  0  0
   54.8760   29.7120   43.9200 O   0  0  0  0  0  0  0  0  0  0  0  0
   56.7400   30.5940   44.9310 N   0  0  0  0  0  0  0  0  0  0  0  0
   57.6640   29.9940   45.7060 C   0  0  0  0  0  0  0  0  0  0  0  0
   58.7770   30.5750   46.3030 C   0  0  0  0  0  0  0  0  0  0  0  0
   59.6230   29.7460   47.0810 C   0  0  0  0  0  0  0  0  0  0  0  0
   60.8020   30.2590   47.7180 N   0  0  0  0  0  0  0  0  0  0  0  0
   61.2590   31.6180   47.7670 C   0  0  0  0  0  0  0  0  0  0  0  0
   61.8000   32.1540   46.7640 O   0  0  0  0  0  0  0  0  0  0  0  0
   61.1800   32.3860   49.0550 C   0  0  0  0  0  0  0  0  0  0  0  0
   60.0480   33.3260   49.0480 N   0  0  0  0  0  0  0  0  0  0  0  0
   59.6280   33.9150   50.3250 C   0  0  0  0  0  0  0  0  0  0  0  0
   59.4390   33.7690   47.8070 C   0  0  0  0  0  0  0  0  0  0  0  0
   60.1360   34.6250   46.9280 C   0  0  0  0  0  0  0  0  0  0  0  0
   59.5690   35.0170   45.7130 C   0  0  0  0  0  0  0  0  0  0  0  0
   58.3000   34.5660   45.3520 C   0  0  0  0  0  0  0  0  0  0  0  0
   57.5900   33.7240   46.2090 C   0  0  0  0  0  0  0  0  0  0  0  0
   56.3590   33.2810   45.8560 F   0  0  0  0  0  0  0  0  0  0  0  0
   58.1500   33.3300   47.4280 C   0  0  0  0  0  0  0  0  0  0  0  0
   59.8643   27.1210   50.1227 H   0  0  0  0  0  0  0  0  0  0  0  0
   61.4280   27.8918   49.6899 H   0  0  0  0  0  0  0  0  0  0  0  0
   59.9173   28.8636   49.6899 H   0  0  0  0  0  0  0  0  0  0  0  0
   61.1573   25.7103   48.3081 H   0  0  0  0  0  0  0  0  0  0  0  0
   60.0732   25.8029   46.8788 H   0  0  0  0  0  0  0  0  0  0  0  0
   61.6369   26.6869   46.8788 H   0  0  0  0  0  0  0  0  0  0  0  0
   57.9024   26.7602   46.7461 H   0  0  0  0  0  0  0  0  0  0  0  0
   55.7600   27.4630   45.1120 H   0  0  0  0  0  0  0  0  0  0  0  0
   58.9944   31.6457   46.1753 H   0  0  0  0  0  0  0  0  0  0  0  0
   61.0528   31.6780   49.8872 H   0  0  0  0  0  0  0  0  0  0  0  0
   62.1094   32.9624   49.1733 H   0  0  0  0  0  0  0  0  0  0  0  0
   60.0470   33.3274   51.1552 H   0  0  0  0  0  0  0  0  0  0  0  0
   59.9924   34.9510   50.3884 H   0  0  0  0  0  0  0  0  0  0  0  0
   58.5299   33.9081   50.3884 H   0  0  0  0  0  0  0  0  0  0  0  0
   61.1374   34.9878   47.2027 H   0  0  0  0  0  0  0  0  0  0  0  0
   60.1258   35.6840   45.0385 H   0  0  0  0  0  0  0  0  0  0  0  0
   57.8588   34.8736   44.3925 H   0  0  0  0  0  0  0  0  0  0  0  0
   57.5809   32.6707   48.0999 H   0  0  0  0  0  0  0  0  0  0  0  0
  1  2  1  0
  2  3  1  0
  2  4  1  0
  4  5  2  0
  5  6  1  0
  6  7  1  0
  7  8  1  0
  8  9  2  0
  8 10  1  0
 10 11  1  0
 11 12  1  0
 12 13  2  0
 13 14  1  0
 14 15  1  0
 15 16  2  0
 15 17  1  0
 17 18  1  0
 18 19  1  0
 18 20  1  0
 20 21  2  0
 21 22  1  0
 22 23  2  0
 23 24  1  0
 24 25  1  0
 24 26  2  0
 13  4  1  0
 26 20  1  0
 11  6  2  0
  1 27  1  0
  1 28  1  0
  1 29  1  0
  3 30  1  0
  3 31  1  0
  3 32  1  0
  5 33  1  0
  7 34  1  0
 12 35  1  0
 17 36  1  0
 17 37  1  0
 19 38  1  0
 19 39  1  0
 19 40  1  0
 21 41  1  0
 22 42  1  0
 23 43  1  0
 26 44  1  0
M  CHG  2  10  -1  14  -1
M  END
>  <UniqueID>  (66) 
62

>  <SMILES>  (66) 
CN(C)c1cc2[nH]c(=O)[n-]c2cc1[N-]C(=O)CN(C)c1cccc(F)c1

>  <Energy>  (66) 
88.6751771489929

>  <Genealogy>  (66) 
CN(C)c1cc2[nH]c(=O)[n-]c2cc1[N-]C(=O)CN(C)c1cccc(F)c1 (protonated)
CN(C)c1cc2[nH]c(=O)[n-]c2cc1[N-]C(=O)CN(C)c1cccc(F)c1 (3D coordinates assigned)
CN(C)c1cc2[nH]c(=O)[n-]c2cc1[N-]C(=O)CN(C)c1cccc(F)c1 (optimized conformer: 88.6751771489929 kcal/mol)

>  <smiles>  (66) 
CN(C)c1cc2[nH]c(=O)[nH]c2cc1NC(=O)CN(C)c1cccc(F)c1

>  <score_type>  (66) 
oracle

>  <origin>  (66) 
adg

>  <m_score__min__energy>  (66) 
-10.539999999999999

>  <m_primary>  (66) 
energy

$$$$
66:0
     RDKit          3D

 55 58  0  0  0  0  0  0  0  0999 V2000
   57.4987   23.5675   42.6968 H   0  0  0  0  0  0  0  0  0  0  0  0
   56.7400   23.6390   43.4900 C   0  0  0  0  0  0  0  0  0  0  0  0
   56.6680   24.7860   44.2870 C   0  0  0  0  0  0  0  0  0  0  0  0
   57.3853   25.6056   44.1326 H   0  0  0  0  0  0  0  0  0  0  0  0
   55.6810   24.8970   45.2870 C   0  0  0  0  0  0  0  0  0  0  0  0
   55.5720   26.0570   46.1300 N   0  0  0  0  0  0  0  0  0  0  0  0
   56.2900   27.1400   46.0570 C   0  0  0  0  0  0  0  0  0  0  0  0
   57.4590   27.2550   46.7370 N   0  0  0  0  0  0  0  0  0  0  0  0
   58.2230   28.3720   46.6240 C   0  0  0  0  0  0  0  0  0  0  0  0
   59.3260   28.5050   47.3030 N   0  0  0  0  0  0  0  0  0  0  0  0
   59.9860   29.7420   47.6280 C   0  0  0  0  0  0  0  0  0  0  0  0
   61.1460   30.0900   46.9240 C   0  0  0  0  0  0  0  0  0  0  0  0
   61.5309   29.4201   46.1410 H   0  0  0  0  0  0  0  0  0  0  0  0
   61.8180   31.2820   47.2090 C   0  0  0  0  0  0  0  0  0  0  0  0
   62.7248   31.5476   46.6459 H   0  0  0  0  0  0  0  0  0  0  0  0
   61.3410   32.1410   48.2100 C   0  0  0  0  0  0  0  0  0  0  0  0
   62.0810   33.4040   48.5380 C   0  0  0  0  0  0  0  0  0  0  0  0
   62.1472   33.5171   49.6302 H   0  0  0  0  0  0  0  0  0  0  0  0
   63.0941   33.3565   48.1122 H   0  0  0  0  0  0  0  0  0  0  0  0
   61.5443   34.2646   48.1122 H   0  0  0  0  0  0  0  0  0  0  0  0
   60.2110   31.7710   48.9530 C   0  0  0  0  0  0  0  0  0  0  0  0
   59.8508   32.4228   49.7626 H   0  0  0  0  0  0  0  0  0  0  0  0
   59.5400   30.5780   48.6700 C   0  0  0  0  0  0  0  0  0  0  0  0
   58.6597   30.2908   49.2637 H   0  0  0  0  0  0  0  0  0  0  0  0
   57.8040   29.3870   45.8280 N   0  0  0  0  0  0  0  0  0  0  0  0
   56.6370   29.2810   45.1350 C   0  0  0  0  0  0  0  0  0  0  0  0
   56.2280   30.2400   44.3630 N   0  0  0  0  0  0  0  0  0  0  0  0
   56.9870   30.7570   43.2270 C   0  0  0  0  0  0  0  0  0  0  0  0
   57.5052   29.9239   42.7296 H   0  0  0  0  0  0  0  0  0  0  0  0
   56.2908   31.2444   42.5286 H   0  0  0  0  0  0  0  0  0  0  0  0
   58.0250   31.7910   43.6930 C   0  0  0  0  0  0  0  0  0  0  0  0
   59.0291   31.4228   43.4357 H   0  0  0  0  0  0  0  0  0  0  0  0
   57.7991   32.7411   43.1868 H   0  0  0  0  0  0  0  0  0  0  0  0
   57.9690   32.0380   45.1630 N   0  0  0  0  0  0  0  0  0  0  0  0
   57.7290   31.1410   45.6500 H   0  0  0  0  0  0  0  0  0  0  0  0
   59.2710   32.5090   45.7060 C   0  0  0  0  0  0  0  0  0  0  0  0
   59.3589   32.1755   46.7505 H   0  0  0  0  0  0  0  0  0  0  0  0
   60.0681   32.0852   45.0775 H   0  0  0  0  0  0  0  0  0  0  0  0
   59.4080   34.0460   45.6640 C   0  0  0  0  0  0  0  0  0  0  0  0
   59.1190   34.4605   46.6411 H   0  0  0  0  0  0  0  0  0  0  0  0
   60.4531   34.3002   45.4337 H   0  0  0  0  0  0  0  0  0  0  0  0
   58.5780   34.5970   44.6640 O   0  0  0  0  0  0  0  0  0  0  0  0
   57.2170   34.4240   45.0150 C   0  0  0  0  0  0  0  0  0  0  0  0
   56.9680   35.1380   45.8139 H   0  0  0  0  0  0  0  0  0  0  0  0
   56.6197   34.5966   44.1076 H   0  0  0  0  0  0  0  0  0  0  0  0
   56.8960   32.9950   45.5140 C   0  0  0  0  0  0  0  0  0  0  0  0
   56.7817   33.0168   46.6078 H   0  0  0  0  0  0  0  0  0  0  0  0
   55.9675   32.6625   45.0268 H   0  0  0  0  0  0  0  0  0  0  0  0
   55.8870   28.1540   45.2510 N   0  0  0  0  0  0  0  0  0  0  0  0
   54.8130   23.8200   45.5100 C   0  0  0  0  0  0  0  0  0  0  0  0
   54.0667   23.8777   46.3161 H   0  0  0  0  0  0  0  0  0  0  0  0
   54.8890   22.6710   44.7140 C   0  0  0  0  0  0  0  0  0  0  0  0
   54.1933   21.8365   44.8859 H   0  0  0  0  0  0  0  0  0  0  0  0
   55.8480   22.5830   43.7010 C   0  0  0  0  0  0  0  0  0  0  0  0
   55.9190   21.4440   42.9090 O   0  0  0  0  0  0  0  0  0  0  0  0
  1  2  1  0
  2  3  2  0
  3  4  1  0
  3  5  1  0
  5  6  1  0
  6  7  2  0
  7  8  1  0
  8  9  1  0
  9 10  2  3
 10 11  1  0
 11 12  2  0
 12 13  1  0
 12 14  1  0
 14 15  1  0
 14 16  2  0
 16 17  1  0
 17 18  1  0
 17 19  1  0
 17 20  1  0
 16 21  1  0
 21 22  1  0
 21 23  2  0
 23 24  1  0
  9 25  1  0
 25 26  1  0
 26 27  2  0
 27 28  1  0
 28 29  1  0
 28 30  1  0
 28 31  1  0
 31 32  1  0
 31 33  1  0
 31 34  1  0
 34 35  1  0
 34 36  1  0
 36 37  1  0
 36 38  1  0
 36 39  1  0
 39 40  1  0
 39 41  1  0
 39 42  1  0
 42 43  1  0
 43 44  1  0
 43 45  1  0
 43 46  1  0
 46 47  1  0
 46 48  1  0
 26 49  1  0
  5 50  2  0
 50 51  1  0
 50 52  1  0
 52 53  1  0
 52 54  2  0
 54 55  1  0
 54  2  1  0
 49  7  1  0
 23 11  1  0
 46 34  1  0
M  CHG  5   8  -1  25  -1  34   1  49  -1  55  -1
M  END
>  <UniqueID>  (67) 
63

>  <SMILES>  (67) 
Cc1ccc(N=c2[n-]/c(=N\c3ccc([O-])cc3)[n-]/c(=N/CC[NH+]3CCOCC3)[n-]2)cc1

>  <Energy>  (67) 
81.23922482836092

>  <Genealogy>  (67) 
Cc1ccc(N=c2[n-]c(=NCC[NH+]3CCOCC3)[n-]c(=Nc3ccc([O-])cc3)[n-]2)cc1 (protonated)
Cc1ccc(N=c2[n-]/c(=N\c3ccc([O-])cc3)[n-]/c(=N/CC[NH+]3CCOCC3)[n-]2)cc1 (cis-trans isomerization)
Cc1ccc(N=c2[n-]/c(=N\c3ccc([O-])cc3)[n-]/c(=N/CC[NH+]3CCOCC3)[n-]2)cc1 (3D coordinates assigned)
Cc1ccc(N=c2[n-]/c(=N\c3ccc([O-])cc3)[n-]/c(=N/CC[NH+]3CCOCC3)[n-]2)cc1 (nonaromatic ring conformer: 81.23922482836092 kcal/mol)

>  <smiles>  (67) 
Cc1ccc(N=c2[nH]c(=NCCN3CCOCC3)[nH]c(=Nc3ccc(O)cc3)[nH]2)cc1

>  <score_type>  (67) 
oracle

>  <origin>  (67) 
adg

>  <m_score__min__energy>  (67) 
-12.970000000000001

>  <m_primary>  (67) 
energy

$$$$
67:0
     RDKit          3D

 45 47  0  0  0  0  0  0  0  0999 V2000
   66.8510   30.6640   51.8350 C   0  0  0  0  0  0  0  0  0  0  0  0
   65.7240   31.3090   51.0720 C   0  0  0  0  0  0  0  0  0  0  0  0
   64.4370   30.7480   51.1420 C   0  0  0  0  0  0  0  0  0  0  0  0
   63.3740   31.3200   50.4430 C   0  0  0  0  0  0  0  0  0  0  0  0
   63.5730   32.4650   49.6600 C   0  0  0  0  0  0  0  0  0  0  0  0
   62.4750   33.0520   48.9330 N   0  0  0  0  0  0  0  0  0  0  0  0
   61.3850   33.4970   49.6240 C   0  0  0  0  0  0  0  0  0  0  0  0
   60.3140   34.0780   48.9490 C   0  0  0  0  0  0  0  0  0  0  0  0
   60.3490   34.2120   47.5910 N   0  0  0  0  0  0  0  0  0  0  0  0
   59.1940   34.8020   46.8970 C   0  0  0  0  0  0  0  0  0  0  0  0
   58.3130   33.7180   46.3540 C   0  0  0  0  0  0  0  0  0  0  0  0
   57.0780   33.7360   46.6090 O   0  0  0  0  0  0  0  0  0  0  0  0
   58.8810   32.6630   45.5640 N   0  0  0  0  0  0  0  0  0  0  0  0
   58.1110   31.7510   44.7620 C   0  0  0  0  0  0  0  0  0  0  0  0
   57.7750   32.0490   43.4280 C   0  0  0  0  0  0  0  0  0  0  0  0
   57.0470   31.1320   42.6630 C   0  0  0  0  0  0  0  0  0  0  0  0
   56.6580   29.9100   43.2170 C   0  0  0  0  0  0  0  0  0  0  0  0
   57.0050   29.5970   44.5330 C   0  0  0  0  0  0  0  0  0  0  0  0
   57.7350   30.5100   45.3010 C   0  0  0  0  0  0  0  0  0  0  0  0
   61.4310   33.7510   46.8880 C   0  0  0  0  0  0  0  0  0  0  0  0
   61.4650   33.8430   45.6290 O   0  0  0  0  0  0  0  0  0  0  0  0
   62.5100   33.1650   47.5680 C   0  0  0  0  0  0  0  0  0  0  0  0
   63.4970   32.7280   46.9130 O   0  0  0  0  0  0  0  0  0  0  0  0
   64.8570   33.0250   49.5760 C   0  0  0  0  0  0  0  0  0  0  0  0
   65.9390   32.4560   50.2710 C   0  0  0  0  0  0  0  0  0  0  0  0
   67.3010   33.0900   50.1640 C   0  0  0  0  0  0  0  0  0  0  0  0
   66.6694   30.7679   52.9149 H   0  0  0  0  0  0  0  0  0  0  0  0
   66.9072   29.5970   51.5737 H   0  0  0  0  0  0  0  0  0  0  0  0
   67.7995   31.1560   51.5737 H   0  0  0  0  0  0  0  0  0  0  0  0
   64.2666   29.8497   51.7536 H   0  0  0  0  0  0  0  0  0  0  0  0
   62.3727   30.8692   50.5069 H   0  0  0  0  0  0  0  0  0  0  0  0
   61.3523   33.3963   50.7189 H   0  0  0  0  0  0  0  0  0  0  0  0
   59.4371   34.4300   49.5121 H   0  0  0  0  0  0  0  0  0  0  0  0
   58.6196   35.4178   47.6047 H   0  0  0  0  0  0  0  0  0  0  0  0
   59.5530   35.4258   46.0651 H   0  0  0  0  0  0  0  0  0  0  0  0
   59.9130   32.5060   45.6310 H   0  0  0  0  0  0  0  0  0  0  0  0
   58.0862   33.0068   42.9855 H   0  0  0  0  0  0  0  0  0  0  0  0
   56.7803   31.3734   41.6235 H   0  0  0  0  0  0  0  0  0  0  0  0
   56.0780   29.1939   42.6163 H   0  0  0  0  0  0  0  0  0  0  0  0
   56.7040   28.6316   44.9659 H   0  0  0  0  0  0  0  0  0  0  0  0
   58.0162   30.2544   46.3333 H   0  0  0  0  0  0  0  0  0  0  0  0
   65.0192   33.9207   48.9585 H   0  0  0  0  0  0  0  0  0  0  0  0
   67.6994   33.2754   51.1724 H   0  0  0  0  0  0  0  0  0  0  0  0
   67.9782   32.4146   49.6207 H   0  0  0  0  0  0  0  0  0  0  0  0
   67.2202   34.0431   49.6207 H   0  0  0  0  0  0  0  0  0  0  0  0
  1  2  1  0
  2  3  2  0
  3  4  1  0
  4  5  2  0
  5  6  1  0
  6  7  1  0
  7  8  2  0
  8  9  1  0
  9 10  1  0
 10 11  1  0
 11 12  2  0
 11 13  1  0
 13 14  1  0
 14 15  2  0
 15 16  1  0
 16 17  2  0
 17 18  1  0
 18 19  2  0
  9 20  1  0
 20 21  2  0
 20 22  1  0
 22 23  2  0
  5 24  1  0
 24 25  2  0
 25 26  1  0
 25  2  1  0
 22  6  1  0
 19 14  1  0
  1 27  1  0
  1 28  1  0
  1 29  1  0
  3 30  1  0
  4 31  1  0
  7 32  1  0
  8 33  1  0
 10 34  1  0
 10 35  1  0
 13 36  1  0
 15 37  1  0
 16 38  1  0
 17 39  1  0
 18 40  1  0
 19 41  1  0
 24 42  1  0
 26 43  1  0
 26 44  1  0
 26 45  1  0
M  END
>  <UniqueID>  (68) 
64

>  <SMILES>  (68) 
Cc1ccc(-n2ccn(CC(=O)Nc3ccccc3)c(=O)c2=O)cc1C

>  <Energy>  (68) 
61.069868909125894

>  <Genealogy>  (68) 
Cc1ccc(-n2ccn(CC(=O)Nc3ccccc3)c(=O)c2=O)cc1C (3D coordinates assigned)
Cc1ccc(-n2ccn(CC(=O)Nc3ccccc3)c(=O)c2=O)cc1C (optimized conformer: 61.069868909125894 kcal/mol)

>  <smiles>  (68) 
Cc1ccc(-n2ccn(CC(=O)Nc3ccccc3)c(=O)c2=O)cc1C

>  <score_type>  (68) 
oracle

>  <origin>  (68) 
adg

>  <m_score__min__energy>  (68) 
-7.8399999999999999

>  <m_primary>  (68) 
energy

$$$$
68:0
     RDKit          3D

 52 54  0  0  0  0  0  0  0  0999 V2000
   55.3590   30.7480   52.0260 C   0  0  0  0  0  0  0  0  0  0  0  0
   56.7680   30.6430   52.5980 C   0  0  0  0  0  0  0  0  0  0  0  0
   57.5350   29.6710   51.8880 O   0  0  0  0  0  0  0  0  0  0  0  0
   58.3270   29.9220   50.7550 C   0  0  0  0  0  0  0  0  0  0  0  0
   59.2820   29.0060   50.2720 C   0  0  0  0  0  0  0  0  0  0  0  0
   60.0450   29.3130   49.1410 C   0  0  0  0  0  0  0  0  0  0  0  0
   59.8650   30.5380   48.4720 C   0  0  0  0  0  0  0  0  0  0  0  0
   60.6140   30.8970   47.3420 O   0  0  0  0  0  0  0  0  0  0  0  0
   61.1470   29.9680   46.4000 C   0  0  0  0  0  0  0  0  0  0  0  0
   60.0460   29.1530   45.8030 C   0  0  0  0  0  0  0  0  0  0  0  0
   59.9290   27.9330   46.1020 O   0  0  0  0  0  0  0  0  0  0  0  0
   59.1180   29.7740   44.9580 O   0  0  0  0  0  0  0  0  0  0  0  0
   57.7340   29.4250   44.9180 C   0  0  0  0  0  0  0  0  0  0  0  0
   56.9100   30.5950   44.4750 C   0  0  0  0  0  0  0  0  0  0  0  0
   55.6530   30.5150   44.5180 O   0  0  0  0  0  0  0  0  0  0  0  0
   57.5620   31.8180   44.1080 N   0  0  0  0  0  0  0  0  0  0  0  0
   58.1200   32.7020   44.8860 C   0  0  0  0  0  0  0  0  0  0  0  0
   59.3060   32.5570   45.5230 N   0  0  0  0  0  0  0  0  0  0  0  0
   59.6060   33.6390   46.2970 C   0  0  0  0  0  0  0  0  0  0  0  0
   60.8660   33.7250   47.0690 C   0  0  0  0  0  0  0  0  0  0  0  0
   62.0700   33.4100   46.4160 C   0  0  0  0  0  0  0  0  0  0  0  0
   63.2890   33.5040   47.0860 C   0  0  0  0  0  0  0  0  0  0  0  0
   63.3220   33.9120   48.4200 C   0  0  0  0  0  0  0  0  0  0  0  0
   62.1350   34.2100   49.0910 C   0  0  0  0  0  0  0  0  0  0  0  0
   60.8970   34.1000   48.4370 C   0  0  0  0  0  0  0  0  0  0  0  0
   59.6400   34.3880   49.2170 C   0  0  0  0  0  0  0  0  0  0  0  0
   58.6580   34.6610   46.2610 C   0  0  0  0  0  0  0  0  0  0  0  0
   57.4030   34.1690   45.2560 S   0  0  0  0  0  0  0  0  0  0  0  0
   58.9080   31.4390   48.9480 C   0  0  0  0  0  0  0  0  0  0  0  0
   58.1450   31.1330   50.0790 C   0  0  0  0  0  0  0  0  0  0  0  0
   54.6320   30.8022   52.8497 H   0  0  0  0  0  0  0  0  0  0  0  0
   55.2809   31.6545   51.4078 H   0  0  0  0  0  0  0  0  0  0  0  0
   55.1474   29.8631   51.4078 H   0  0  0  0  0  0  0  0  0  0  0  0
   57.2634   31.6218   52.5171 H   0  0  0  0  0  0  0  0  0  0  0  0
   56.6975   30.3339   53.6513 H   0  0  0  0  0  0  0  0  0  0  0  0
   59.4282   28.0449   50.7868 H   0  0  0  0  0  0  0  0  0  0  0  0
   60.7902   28.5928   48.7721 H   0  0  0  0  0  0  0  0  0  0  0  0
   61.6670   30.5175   45.6015 H   0  0  0  0  0  0  0  0  0  0  0  0
   61.8522   29.2985   46.9142 H   0  0  0  0  0  0  0  0  0  0  0  0
   57.5907   28.5935   44.2123 H   0  0  0  0  0  0  0  0  0  0  0  0
   57.4134   29.1260   45.9269 H   0  0  0  0  0  0  0  0  0  0  0  0
   59.9160   31.7130   45.4870 H   0  0  0  0  0  0  0  0  0  0  0  0
   62.0503   33.0858   45.3650 H   0  0  0  0  0  0  0  0  0  0  0  0
   64.2246   33.2566   46.5631 H   0  0  0  0  0  0  0  0  0  0  0  0
   64.2854   33.9989   48.9438 H   0  0  0  0  0  0  0  0  0  0  0  0
   62.1694   34.5340   50.1416 H   0  0  0  0  0  0  0  0  0  0  0  0
   59.8574   34.3382   50.2942 H   0  0  0  0  0  0  0  0  0  0  0  0
   59.2732   35.3935   48.9631 H   0  0  0  0  0  0  0  0  0  0  0  0
   58.8720   33.6425   48.9631 H   0  0  0  0  0  0  0  0  0  0  0  0
   58.7203   35.6202   46.7959 H   0  0  0  0  0  0  0  0  0  0  0  0
   58.7540   32.3964   48.4286 H   0  0  0  0  0  0  0  0  0  0  0  0
   57.3945   31.8514   50.4406 H   0  0  0  0  0  0  0  0  0  0  0  0
  1  2  1  0
  2  3  1  0
  3  4  1  0
  4  5  2  0
  5  6  1  0
  6  7  2  0
  7  8  1  0
  8  9  1  0
  9 10  1  0
 10 11  2  0
 10 12  1  0
 12 13  1  0
 13 14  1  0
 14 15  2  0
 14 16  1  0
 16 17  2  3
 17 18  1  0
 18 19  1  0
 19 20  1  0
 20 21  2  0
 21 22  1  0
 22 23  2  0
 23 24  1  0
 24 25  2  0
 25 26  1  0
 19 27  2  0
 27 28  1  0
  7 29  1  0
 29 30  2  0
 30  4  1  0
 28 17  1  0
 25 20  1  0
  1 31  1  0
  1 32  1  0
  1 33  1  0
  2 34  1  0
  2 35  1  0
  5 36  1  0
  6 37  1  0
  9 38  1  0
  9 39  1  0
 13 40  1  0
 13 41  1  0
 18 42  1  0
 21 43  1  0
 22 44  1  0
 23 45  1  0
 24 46  1  0
 26 47  1  0
 26 48  1  0
 26 49  1  0
 27 50  1  0
 29 51  1  0
 30 52  1  0
M  END
>  <UniqueID>  (69) 
65

>  <SMILES>  (69) 
CCOc1ccc(OCC(=O)OCC(=O)N=c2[nH]c(-c3ccccc3C)cs2)cc1

>  <Energy>  (69) 
89.79321853450575

>  <Genealogy>  (69) 
CCOc1ccc(OCC(=O)OCC(=O)N=c2[nH]c(-c3ccccc3C)cs2)cc1 (3D coordinates assigned)
CCOc1ccc(OCC(=O)OCC(=O)N=c2[nH]c(-c3ccccc3C)cs2)cc1 (optimized conformer: 89.79321853450575 kcal/mol)

>  <smiles>  (69) 
CCOc1ccc(OCC(=O)OCC(=O)N=c2[nH]c(-c3ccccc3C)cs2)cc1

>  <score_type>  (69) 
oracle

>  <origin>  (69) 
adg

>  <m_score__min__energy>  (69) 
-8.3599999999999994

>  <m_primary>  (69) 
energy

$$$$
69:0
     RDKit          3D

 47 49  0  0  0  0  0  0  0  0999 V2000
   61.0470   30.8690   50.9670 C   0  0  0  0  0  0  0  0  0  0  0  0
   59.8060   31.5810   51.4290 C   0  0  0  0  0  0  0  0  0  0  0  0
   58.6720   30.8140   51.7450 C   0  0  0  0  0  0  0  0  0  0  0  0
   57.5110   31.4230   52.2350 C   0  0  0  0  0  0  0  0  0  0  0  0
   56.1090   30.4320   52.6290 S   0  0  0  0  0  0  0  0  0  0  0  0
   54.7710   30.9080   51.6430 N   0  0  0  0  0  0  0  0  0  0  0  0
   55.7350   30.6050   54.0770 O   0  0  0  0  0  0  0  0  0  0  0  0
   56.4350   28.9860   52.3740 O   0  0  0  0  0  0  0  0  0  0  0  0
   57.4810   32.8090   52.4210 C   0  0  0  0  0  0  0  0  0  0  0  0
   58.5930   33.5850   52.0900 C   0  0  0  0  0  0  0  0  0  0  0  0
   59.7450   32.9900   51.5600 C   0  0  0  0  0  0  0  0  0  0  0  0
   60.8390   33.8420   51.1940 N   0  0  0  0  0  0  0  0  0  0  0  0
   61.3010   34.0710   49.8550 C   0  0  0  0  0  0  0  0  0  0  0  0
   62.2020   34.9320   49.6670 O   0  0  0  0  0  0  0  0  0  0  0  0
   60.7090   33.3670   48.6940 C   0  0  0  0  0  0  0  0  0  0  0  0
   59.3320   33.4870   48.4430 C   0  0  0  0  0  0  0  0  0  0  0  0
   58.7440   32.8300   47.3610 C   0  0  0  0  0  0  0  0  0  0  0  0
   59.5180   32.0340   46.5080 C   0  0  0  0  0  0  0  0  0  0  0  0
   58.8930   31.3720   45.3950 N   0  0  0  0  0  0  0  0  0  0  0  0
   58.8800   29.9460   45.2200 C   0  0  0  0  0  0  0  0  0  0  0  0
   60.0840   29.2270   45.3350 C   0  0  0  0  0  0  0  0  0  0  0  0
   60.0920   27.8360   45.2510 C   0  0  0  0  0  0  0  0  0  0  0  0
   58.8980   27.1410   45.0670 C   0  0  0  0  0  0  0  0  0  0  0  0
   57.6920   27.8360   44.9590 C   0  0  0  0  0  0  0  0  0  0  0  0
   57.6630   29.2430   45.0280 C   0  0  0  0  0  0  0  0  0  0  0  0
   56.3640   29.9430   44.8600 C   0  0  0  0  0  0  0  0  0  0  0  0
   55.1450   29.2030   44.8610 N   0  0  0  0  0  0  0  0  0  0  0  0
   56.3240   31.1900   44.6870 O   0  0  0  0  0  0  0  0  0  0  0  0
   60.9010   31.9340   46.7340 C   0  0  0  0  0  0  0  0  0  0  0  0
   61.4980   32.5920   47.8150 C   0  0  0  0  0  0  0  0  0  0  0  0
   63.2260   32.3630   48.0700 Cl  0  0  0  0  0  0  0  0  0  0  0  0
   61.6261   30.5368   51.8412 H   0  0  0  0  0  0  0  0  0  0  0  0
   60.7645   29.9956   50.3609 H   0  0  0  0  0  0  0  0  0  0  0  0
   61.6584   31.5537   50.3609 H   0  0  0  0  0  0  0  0  0  0  0  0
   58.6969   29.7231   51.6058 H   0  0  0  0  0  0  0  0  0  0  0  0
   55.1530   31.5130   50.8790 H   0  0  0  0  0  0  0  0  0  0  0  0
   56.5790   33.2885   52.8291 H   0  0  0  0  0  0  0  0  0  0  0  0
   58.5644   34.6734   52.2467 H   0  0  0  0  0  0  0  0  0  0  0  0
   58.7102   34.1057   49.1067 H   0  0  0  0  0  0  0  0  0  0  0  0
   57.6649   32.9384   47.1771 H   0  0  0  0  0  0  0  0  0  0  0  0
   58.3610   31.9530   44.7060 H   0  0  0  0  0  0  0  0  0  0  0  0
   61.0285   29.7683   45.4928 H   0  0  0  0  0  0  0  0  0  0  0  0
   61.0414   27.2861   45.3300 H   0  0  0  0  0  0  0  0  0  0  0  0
   58.9059   26.0427   45.0068 H   0  0  0  0  0  0  0  0  0  0  0  0
   56.7540   27.2789   44.8185 H   0  0  0  0  0  0  0  0  0  0  0  0
   54.4250   29.3530   45.6030 H   0  0  0  0  0  0  0  0  0  0  0  0
   61.5213   31.3319   46.0538 H   0  0  0  0  0  0  0  0  0  0  0  0
  1  2  1  0
  2  3  2  0
  3  4  1  0
  4  5  1  0
  5  6  1  0
  5  7  2  0
  5  8  2  0
  4  9  2  0
  9 10  1  0
 10 11  2  0
 11 12  1  0
 12 13  1  0
 13 14  2  0
 13 15  1  0
 15 16  2  0
 16 17  1  0
 17 18  2  0
 18 19  1  0
 19 20  1  0
 20 21  2  0
 21 22  1  0
 22 23  2  0
 23 24  1  0
 24 25  2  0
 25 26  1  0
 26 27  1  0
 26 28  2  0
 18 29  1  0
 29 30  2  0
 30 31  1  0
 11  2  1  0
 30 15  1  0
 25 20  1  0
  1 32  1  0
  1 33  1  0
  1 34  1  0
  3 35  1  0
  6 36  1  0
  9 37  1  0
 10 38  1  0
 16 39  1  0
 17 40  1  0
 19 41  1  0
 21 42  1  0
 22 43  1  0
 23 44  1  0
 24 45  1  0
 27 46  1  0
 29 47  1  0
M  CHG  3   6  -1  12  -1  27  -1
M  END
>  <UniqueID>  (70) 
66

>  <SMILES>  (70) 
Cc1cc(S([NH-])(=O)=O)ccc1[N-]C(=O)c1ccc(Nc2ccccc2C([NH-])=O)cc1Cl

>  <Energy>  (70) 
69.52745436909503

>  <Genealogy>  (70) 
Cc1cc(S([NH-])(=O)=O)ccc1[N-]C(=O)c1ccc(Nc2ccccc2C([NH-])=O)cc1Cl (protonated)
Cc1cc(S([NH-])(=O)=O)ccc1[N-]C(=O)c1ccc(Nc2ccccc2C([NH-])=O)cc1Cl (3D coordinates assigned)
Cc1cc(S([NH-])(=O)=O)ccc1[N-]C(=O)c1ccc(Nc2ccccc2C([NH-])=O)cc1Cl (optimized conformer: 69.52745436909503 kcal/mol)

>  <smiles>  (70) 
Cc1cc(S(N)(=O)=O)ccc1NC(=O)c1ccc(Nc2ccccc2C(N)=O)cc1Cl

>  <score_type>  (70) 
oracle

>  <origin>  (70) 
adg

>  <m_score__min__energy>  (70) 
-14.82

>  <m_primary>  (70) 
energy

$$$$
70:0
     RDKit          3D

 32 33  0  0  0  0  0  0  0  0999 V2000
   56.6000   29.6270   44.7560 C   0  0  0  0  0  0  0  0  0  0  0  0
   56.8650   28.3920   45.5650 C   0  0  0  0  0  0  0  0  0  0  0  0
   55.9000   27.4360   45.6240 N   0  0  0  0  0  0  0  0  0  0  0  0
   56.0940   26.2760   46.3010 C   0  0  0  0  0  0  0  0  0  0  0  0
   55.1810   25.4110   46.3420 O   0  0  0  0  0  0  0  0  0  0  0  0
   57.2740   26.0450   46.9300 N   0  0  0  0  0  0  0  0  0  0  0  0
   58.2750   26.9630   46.9100 C   0  0  0  0  0  0  0  0  0  0  0  0
   59.5560   26.6650   47.6270 C   0  0  0  0  0  0  0  0  0  0  0  0
   58.0830   28.1880   46.2470 C   0  0  0  0  0  0  0  0  0  0  0  0
   59.1320   29.1630   46.2270 N   0  0  0  0  0  0  0  0  0  0  0  0
   59.2350   30.2370   47.1670 C   0  0  0  0  0  0  0  0  0  0  0  0
   58.5320   30.2390   48.2140 O   0  0  0  0  0  0  0  0  0  0  0  0
   60.1560   31.3790   46.8870 C   0  0  0  0  0  0  0  0  0  0  0  0
   59.3860   32.5040   46.2530 C   0  0  0  0  0  0  0  0  0  0  0  0
   58.1360   32.2590   45.6610 C   0  0  0  0  0  0  0  0  0  0  0  0
   57.4440   33.2920   45.0220 C   0  0  0  0  0  0  0  0  0  0  0  0
   57.9990   34.5740   44.9630 C   0  0  0  0  0  0  0  0  0  0  0  0
   59.2470   34.8230   45.5390 C   0  0  0  0  0  0  0  0  0  0  0  0
   59.9430   33.7930   46.1780 C   0  0  0  0  0  0  0  0  0  0  0  0
   56.4179   30.4758   45.4316 H   0  0  0  0  0  0  0  0  0  0  0  0
   57.4721   29.8439   44.1216 H   0  0  0  0  0  0  0  0  0  0  0  0
   55.7157   29.4670   44.1216 H   0  0  0  0  0  0  0  0  0  0  0  0
   59.3861   26.7045   48.7131 H   0  0  0  0  0  0  0  0  0  0  0  0
   59.9078   25.6610   47.3472 H   0  0  0  0  0  0  0  0  0  0  0  0
   60.3148   27.4106   47.3472 H   0  0  0  0  0  0  0  0  0  0  0  0
   60.6041   31.7274   47.8292 H   0  0  0  0  0  0  0  0  0  0  0  0
   60.9503   31.0482   46.2017 H   0  0  0  0  0  0  0  0  0  0  0  0
   57.6997   31.2500   45.7004 H   0  0  0  0  0  0  0  0  0  0  0  0
   56.4626   33.0962   44.5655 H   0  0  0  0  0  0  0  0  0  0  0  0
   57.4525   35.3870   44.4627 H   0  0  0  0  0  0  0  0  0  0  0  0
   59.6829   35.8317   45.4896 H   0  0  0  0  0  0  0  0  0  0  0  0
   60.9291   33.9912   46.6234 H   0  0  0  0  0  0  0  0  0  0  0  0
  1  2  1  0
  2  3  2  0
  3  4  1  0
  4  5  2  0
  4  6  1  0
  6  7  1  0
  7  8  1  0
  7  9  2  0
  9 10  1  0
 10 11  1  0
 11 12  2  0
 11 13  1  0
 13 14  1  0
 14 15  2  0
 15 16  1  0
 16 17  2  0
 17 18  1  0
 18 19  2  0
  9  2  1  0
 19 14  1  0
  1 20  1  0
  1 21  1  0
  1 22  1  0
  8 23  1  0
  8 24  1  0
  8 25  1  0
 13 26  1  0
 13 27  1  0
 15 28  1  0
 16 29  1  0
 17 30  1  0
 18 31  1  0
 19 32  1  0
M  CHG  2   6  -1  10  -1
M  END
>  <UniqueID>  (71) 
67

>  <SMILES>  (71) 
Cc1nc(=O)[n-]c(C)c1[N-]C(=O)Cc1ccccc1

>  <Energy>  (71) 
35.70716765440033

>  <Genealogy>  (71) 
Cc1nc(=O)[n-]c(C)c1[N-]C(=O)Cc1ccccc1 (protonated)
Cc1nc(=O)[n-]c(C)c1[N-]C(=O)Cc1ccccc1 (3D coordinates assigned)
Cc1nc(=O)[n-]c(C)c1[N-]C(=O)Cc1ccccc1 (optimized conformer: 35.70716765440033 kcal/mol)

>  <smiles>  (71) 
Cc1nc(=O)[nH]c(C)c1NC(=O)Cc1ccccc1

>  <score_type>  (71) 
oracle

>  <origin>  (71) 
adg

>  <m_score__min__energy>  (71) 
-9.1999999999999993

>  <m_primary>  (71) 
energy

$$$$
71:0
     RDKit          3D

 47 51  0  0  0  0  0  0  0  0999 V2000
   59.3928   27.9260   48.6698 H   0  0  0  0  0  0  0  0  0  0  0  0
   59.7710   28.2650   47.6940 C   0  0  0  0  0  0  0  0  0  0  0  0
   60.2960   29.5500   47.5580 C   0  0  0  0  0  0  0  0  0  0  0  0
   60.3449   30.2238   48.4261 H   0  0  0  0  0  0  0  0  0  0  0  0
   60.7590   29.9740   46.3110 C   0  0  0  0  0  0  0  0  0  0  0  0
   61.1833   30.9824   46.1963 H   0  0  0  0  0  0  0  0  0  0  0  0
   60.6860   29.1410   45.2370 N   0  0  0  0  0  0  0  0  0  0  0  0
   61.0240   29.4760   44.3080 H   0  0  0  0  0  0  0  0  0  0  0  0
   60.1730   27.8860   45.3450 C   0  0  0  0  0  0  0  0  0  0  0  0
   60.1085   27.2439   44.4542 H   0  0  0  0  0  0  0  0  0  0  0  0
   59.7250   27.4040   46.5860 C   0  0  0  0  0  0  0  0  0  0  0  0
   59.1140   26.0290   46.6820 C   0  0  0  0  0  0  0  0  0  0  0  0
   59.2302   25.6609   47.7121 H   0  0  0  0  0  0  0  0  0  0  0  0
   59.6331   25.3780   45.9632 H   0  0  0  0  0  0  0  0  0  0  0  0
   57.6830   26.0310   46.3380 N   0  0  0  0  0  0  0  0  0  0  0  0
   56.8340   27.0670   46.0380 C   0  0  0  0  0  0  0  0  0  0  0  0
   57.1540   28.3290   45.9500 N   0  0  0  0  0  0  0  0  0  0  0  0
   56.5870   29.3330   45.1080 C   0  0  0  0  0  0  0  0  0  0  0  0
   55.4750   29.1050   44.5600 O   0  0  0  0  0  0  0  0  0  0  0  0
   57.2340   30.6590   44.9590 C   0  0  0  0  0  0  0  0  0  0  0  0
   57.3270   31.2660   43.6950 C   0  0  0  0  0  0  0  0  0  0  0  0
   56.9039   30.7586   42.8155 H   0  0  0  0  0  0  0  0  0  0  0  0
   57.9510   32.5070   43.5430 C   0  0  0  0  0  0  0  0  0  0  0  0
   58.0152   32.9697   42.5471 H   0  0  0  0  0  0  0  0  0  0  0  0
   58.4950   33.1640   44.6540 C   0  0  0  0  0  0  0  0  0  0  0  0
   59.1220   34.4120   44.5120 C   0  0  0  0  0  0  0  0  0  0  0  0
   59.1897   34.8827   43.5201 H   0  0  0  0  0  0  0  0  0  0  0  0
   59.6600   35.0570   45.6280 C   0  0  0  0  0  0  0  0  0  0  0  0
   60.1483   36.0359   45.5129 H   0  0  0  0  0  0  0  0  0  0  0  0
   59.5800   34.4630   46.8900 C   0  0  0  0  0  0  0  0  0  0  0  0
   60.0094   34.9741   47.7643 H   0  0  0  0  0  0  0  0  0  0  0  0
   58.9560   33.2210   47.0460 C   0  0  0  0  0  0  0  0  0  0  0  0
   58.8931   32.7593   48.0424 H   0  0  0  0  0  0  0  0  0  0  0  0
   58.4100   32.5630   45.9330 C   0  0  0  0  0  0  0  0  0  0  0  0
   57.7810   31.3160   46.0760 C   0  0  0  0  0  0  0  0  0  0  0  0
   57.7154   30.8489   47.0697 H   0  0  0  0  0  0  0  0  0  0  0  0
   55.5580   26.6700   45.8010 N   0  0  0  0  0  0  0  0  0  0  0  0
   55.6160   25.3380   45.9490 C   0  0  0  0  0  0  0  0  0  0  0  0
   54.5720   24.4280   45.7980 C   0  0  0  0  0  0  0  0  0  0  0  0
   53.5560   24.7650   45.5449 H   0  0  0  0  0  0  0  0  0  0  0  0
   54.8610   23.0650   45.9800 C   0  0  0  0  0  0  0  0  0  0  0  0
   54.0613   22.3173   45.8733 H   0  0  0  0  0  0  0  0  0  0  0  0
   56.1720   22.6500   46.2990 C   0  0  0  0  0  0  0  0  0  0  0  0
   56.3881   21.5802   46.4359 H   0  0  0  0  0  0  0  0  0  0  0  0
   57.2040   23.5950   46.4430 C   0  0  0  0  0  0  0  0  0  0  0  0
   58.2298   23.2823   46.6878 H   0  0  0  0  0  0  0  0  0  0  0  0
   56.8840   24.9450   46.2650 C   0  0  0  0  0  0  0  0  0  0  0  0
  1  2  1  0
  2  3  2  0
  3  4  1  0
  3  5  1  0
  5  6  1  0
  5  7  2  0
  7  8  1  0
  7  9  1  0
  9 10  1  0
  9 11  2  0
 11 12  1  0
 12 13  1  0
 12 14  1  0
 12 15  1  0
 15 16  1  0
 16 17  2  0
 17 18  1  0
 18 19  2  0
 18 20  1  0
 20 21  2  0
 21 22  1  0
 21 23  1  0
 23 24  1  0
 23 25  2  0
 25 26  1  0
 26 27  1  0
 26 28  2  0
 28 29  1  0
 28 30  1  0
 30 31  1  0
 30 32  2  0
 32 33  1  0
 32 34  1  0
 34 35  2  0
 35 36  1  0
 16 37  1  0
 37 38  1  0
 38 39  2  0
 39 40  1  0
 39 41  1  0
 41 42  1  0
 41 43  2  0
 43 44  1  0
 43 45  1  0
 45 46  1  0
 45 47  2  0
 11  2  1  0
 47 15  1  0
 35 20  1  0
 47 38  1  0
 34 25  1  0
M  CHG  2   7   1  37  -1
M  END
>  <UniqueID>  (72) 
68

>  <SMILES>  (72) 
O=C(/N=c1/[n-]c2ccccc2n1Cc1ccc[nH+]c1)c1ccc2ccccc2c1

>  <Energy>  (72) 
108.59404856044074

>  <Genealogy>  (72) 
O=C(N=c1[n-]c2ccccc2n1Cc1ccc[nH+]c1)c1ccc2ccccc2c1 (protonated)
O=C(/N=c1/[n-]c2ccccc2n1Cc1ccc[nH+]c1)c1ccc2ccccc2c1 (cis-trans isomerization)
O=C(/N=c1/[n-]c2ccccc2n1Cc1ccc[nH+]c1)c1ccc2ccccc2c1 (3D coordinates assigned)
O=C(/N=c1/[n-]c2ccccc2n1Cc1ccc[nH+]c1)c1ccc2ccccc2c1 (optimized conformer: 108.59404856044074 kcal/mol)

>  <smiles>  (72) 
O=C(N=c1[nH]c2ccccc2n1Cc1cccnc1)c1ccc2ccccc2c1

>  <score_type>  (72) 
oracle

>  <origin>  (72) 
adg

>  <m_score__min__energy>  (72) 
-9.6600000000000001

>  <m_primary>  (72) 
energy

$$$$
72:0
     RDKit          3D

 45 47  0  0  0  0  0  0  0  0999 V2000
   59.2710   27.9960   44.4380 C   0  0  0  0  0  0  0  0  0  0  0  0
   58.2700   29.1060   44.4840 C   0  0  0  0  0  0  0  0  0  0  0  0
   58.5970   30.3570   44.8680 N   0  0  0  0  0  0  0  0  0  0  0  0
   57.6480   31.3240   44.8900 C   0  0  0  0  0  0  0  0  0  0  0  0
   57.9530   32.6690   45.2900 N   0  0  0  0  0  0  0  0  0  0  0  0
   58.4690   33.5540   44.3010 C   0  0  0  0  0  0  0  0  0  0  0  0
   59.1950   34.7450   44.8680 C   0  0  0  0  0  0  0  0  0  0  0  0
   59.6250   34.4660   46.1860 N   0  0  0  0  0  0  0  0  0  0  0  0
   60.9650   34.0970   46.3930 C   0  0  0  0  0  0  0  0  0  0  0  0
   61.0580   32.8750   47.2430 C   0  0  0  0  0  0  0  0  0  0  0  0
   61.8070   32.9830   48.2570 O   0  0  0  0  0  0  0  0  0  0  0  0
   60.3980   31.6710   46.9960 N   0  0  0  0  0  0  0  0  0  0  0  0
   60.4370   30.4860   47.7560 C   0  0  0  0  0  0  0  0  0  0  0  0
   60.6570   30.5660   49.1360 C   0  0  0  0  0  0  0  0  0  0  0  0
   60.7090   29.4600   49.9410 C   0  0  0  0  0  0  0  0  0  0  0  0
   60.5450   28.1960   49.4350 C   0  0  0  0  0  0  0  0  0  0  0  0
   60.5890   27.0820   50.1940 F   0  0  0  0  0  0  0  0  0  0  0  0
   60.3250   28.0800   48.0810 C   0  0  0  0  0  0  0  0  0  0  0  0
   60.2740   29.2140   47.2640 C   0  0  0  0  0  0  0  0  0  0  0  0
   58.6540   34.1040   47.1480 C   0  0  0  0  0  0  0  0  0  0  0  0
   57.7110   33.0200   46.6770 C   0  0  0  0  0  0  0  0  0  0  0  0
   56.4080   30.9550   44.5160 N   0  0  0  0  0  0  0  0  0  0  0  0
   56.0700   29.7180   44.1330 C   0  0  0  0  0  0  0  0  0  0  0  0
   54.8600   29.4370   43.7860 N   0  0  0  0  0  0  0  0  0  0  0  0
   57.0120   28.7810   44.1160 N   0  0  0  0  0  0  0  0  0  0  0  0
   59.5378   27.7001   45.4633 H   0  0  0  0  0  0  0  0  0  0  0  0
   58.8388   27.1342   43.9084 H   0  0  0  0  0  0  0  0  0  0  0  0
   60.1727   28.3372   43.9084 H   0  0  0  0  0  0  0  0  0  0  0  0
   59.1688   32.9924   43.6647 H   0  0  0  0  0  0  0  0  0  0  0  0
   57.6070   33.9429   43.7392 H   0  0  0  0  0  0  0  0  0  0  0  0
   60.0691   34.9719   44.2399 H   0  0  0  0  0  0  0  0  0  0  0  0
   58.5141   35.6087   44.8852 H   0  0  0  0  0  0  0  0  0  0  0  0
   61.4369   33.8951   45.4201 H   0  0  0  0  0  0  0  0  0  0  0  0
   61.4800   34.9217   46.9075 H   0  0  0  0  0  0  0  0  0  0  0  0
   59.7950   31.6360   46.1180 H   0  0  0  0  0  0  0  0  0  0  0  0
   60.7936   31.5576   49.5921 H   0  0  0  0  0  0  0  0  0  0  0  0
   60.8865   29.5882   51.0190 H   0  0  0  0  0  0  0  0  0  0  0  0
   60.1877   27.0833   47.6363 H   0  0  0  0  0  0  0  0  0  0  0  0
   60.0966   29.0822   46.1864 H   0  0  0  0  0  0  0  0  0  0  0  0
   59.1736   33.7458   48.0490 H   0  0  0  0  0  0  0  0  0  0  0  0
   58.0450   34.9987   47.3446 H   0  0  0  0  0  0  0  0  0  0  0  0
   57.8537   32.1260   47.3019 H   0  0  0  0  0  0  0  0  0  0  0  0
   56.6814   33.3978   46.7624 H   0  0  0  0  0  0  0  0  0  0  0  0
   54.2640   28.9690   44.5070 H   0  0  0  0  0  0  0  0  0  0  0  0
   56.7510   27.8010   43.8150 H   0  0  0  0  0  0  0  0  0  0  0  0
  1  2  1  0
  2  3  2  0
  3  4  1  0
  4  5  1  0
  5  6  1  0
  6  7  1  0
  7  8  1  0
  8  9  1  0
  9 10  1  0
 10 11  2  0
 10 12  1  0
 12 13  1  0
 13 14  2  0
 14 15  1  0
 15 16  2  0
 16 17  1  0
 16 18  1  0
 18 19  2  0
  8 20  1  0
 20 21  1  0
  4 22  2  0
 22 23  1  0
 23 24  2  3
 23 25  1  0
 25  2  1  0
 21  5  1  0
 19 13  1  0
  1 26  1  0
  1 27  1  0
  1 28  1  0
  6 29  1  0
  6 30  1  0
  7 31  1  0
  7 32  1  0
  9 33  1  0
  9 34  1  0
 12 35  1  0
 14 36  1  0
 15 37  1  0
 18 38  1  0
 19 39  1  0
 20 40  1  0
 20 41  1  0
 21 42  1  0
 21 43  1  0
 24 44  1  0
 25 45  1  0
M  END
>  <smiles>  (73) 
Cc1nc(N2CCN(CC(=O)Nc3ccc(F)cc3)CC2)nc(=N)[nH]1

>  <score_type>  (73) 
oracle

>  <origin>  (73) 
adg

>  <m_score__min__energy>  (73) 
-7.9100000000000001

>  <m_primary>  (73) 
energy

$$$$
73:0
     RDKit          3D

 46 48  0  0  0  0  0  0  0  0999 V2000
   62.0760   31.9440   47.2910 C   0  0  0  0  0  0  0  0  0  0  0  0
   60.8620   32.7110   46.8410 C   0  0  0  0  0  0  0  0  0  0  0  0
   60.9400   34.1090   46.7360 C   0  0  0  0  0  0  0  0  0  0  0  0
   59.8240   34.8550   46.3590 C   0  0  0  0  0  0  0  0  0  0  0  0
   58.6220   34.2150   46.0640 C   0  0  0  0  0  0  0  0  0  0  0  0
   58.5330   32.8200   46.1130 C   0  0  0  0  0  0  0  0  0  0  0  0
   57.2820   32.2020   45.7940 N   0  0  0  0  0  0  0  0  0  0  0  0
   57.0240   31.5560   44.5470 C   0  0  0  0  0  0  0  0  0  0  0  0
   57.4700   32.0710   43.4890 O   0  0  0  0  0  0  0  0  0  0  0  0
   56.2700   30.3740   44.5160 O   0  0  0  0  0  0  0  0  0  0  0  0
   56.7930   29.0750   44.4110 C   0  0  0  0  0  0  0  0  0  0  0  0
   57.3950   28.5970   43.2330 C   0  0  0  0  0  0  0  0  0  0  0  0
   57.8930   27.2950   43.1790 C   0  0  0  0  0  0  0  0  0  0  0  0
   57.8140   26.4640   44.2970 C   0  0  0  0  0  0  0  0  0  0  0  0
   57.2500   26.9330   45.4960 C   0  0  0  0  0  0  0  0  0  0  0  0
   57.1780   26.0420   46.6800 C   0  0  0  0  0  0  0  0  0  0  0  0
   58.2600   25.9400   47.6080 N   0  0  0  0  0  0  0  0  0  0  0  0
   56.1450   25.3430   46.8710 O   0  0  0  0  0  0  0  0  0  0  0  0
   56.7420   28.2450   45.5390 C   0  0  0  0  0  0  0  0  0  0  0  0
   59.6510   32.0530   46.5100 C   0  0  0  0  0  0  0  0  0  0  0  0
   59.5280   30.6260   46.6490 N   0  0  0  0  0  0  0  0  0  0  0  0
   60.1070   29.7570   45.6190 C   0  0  0  0  0  0  0  0  0  0  0  0
   60.0460   28.2970   46.0670 C   0  0  0  0  0  0  0  0  0  0  0  0
   60.3610   28.2200   47.4400 O   0  0  0  0  0  0  0  0  0  0  0  0
   59.2810   28.7080   48.2190 C   0  0  0  0  0  0  0  0  0  0  0  0
   58.6990   30.0510   47.7130 C   0  0  0  0  0  0  0  0  0  0  0  0
   62.1096   31.9228   48.3903 H   0  0  0  0  0  0  0  0  0  0  0  0
   62.0232   30.9150   46.9058 H   0  0  0  0  0  0  0  0  0  0  0  0
   62.9826   32.4336   46.9058 H   0  0  0  0  0  0  0  0  0  0  0  0
   61.8896   34.6200   46.9530 H   0  0  0  0  0  0  0  0  0  0  0  0
   59.8926   35.9510   46.2943 H   0  0  0  0  0  0  0  0  0  0  0  0
   57.7381   34.8102   45.7910 H   0  0  0  0  0  0  0  0  0  0  0  0
   57.4733   29.2514   42.3523 H   0  0  0  0  0  0  0  0  0  0  0  0
   58.3501   26.9218   42.2507 H   0  0  0  0  0  0  0  0  0  0  0  0
   58.1960   25.4340   44.2397 H   0  0  0  0  0  0  0  0  0  0  0  0
   58.1570   25.3530   48.4650 H   0  0  0  0  0  0  0  0  0  0  0  0
   59.1930   26.3670   47.4160 H   0  0  0  0  0  0  0  0  0  0  0  0
   56.2986   28.6243   46.4715 H   0  0  0  0  0  0  0  0  0  0  0  0
   59.5402   29.8743   44.6836 H   0  0  0  0  0  0  0  0  0  0  0  0
   61.1577   30.0403   45.4586 H   0  0  0  0  0  0  0  0  0  0  0  0
   59.0329   27.9026   45.8992 H   0  0  0  0  0  0  0  0  0  0  0  0
   60.7678   27.7021   45.4881 H   0  0  0  0  0  0  0  0  0  0  0  0
   58.4781   27.9562   48.2073 H   0  0  0  0  0  0  0  0  0  0  0  0
   59.6736   28.8908   49.2302 H   0  0  0  0  0  0  0  0  0  0  0  0
   57.6853   29.8774   47.3227 H   0  0  0  0  0  0  0  0  0  0  0  0
   58.6770   30.7582   48.5553 H   0  0  0  0  0  0  0  0  0  0  0  0
  1  2  1  0
  2  3  2  0
  3  4  1  0
  4  5  2  0
  5  6  1  0
  6  7  1  0
  7  8  1  0
  8  9  2  0
  8 10  1  0
 10 11  1  0
 11 12  2  0
 12 13  1  0
 13 14  2  0
 14 15  1  0
 15 16  1  0
 16 17  1  0
 16 18  2  0
 15 19  2  0
  6 20  2  0
 20 21  1  0
 21 22  1  0
 22 23  1  0
 23 24  1  0
 24 25  1  0
 25 26  1  0
 20  2  1  0
 26 21  1  0
 19 11  1  0
  1 27  1  0
  1 28  1  0
  1 29  1  0
  3 30  1  0
  4 31  1  0
  5 32  1  0
 12 33  1  0
 13 34  1  0
 14 35  1  0
 17 36  1  0
 17 37  1  0
 19 38  1  0
 22 39  1  0
 22 40  1  0
 23 41  1  0
 23 42  1  0
 25 43  1  0
 25 44  1  0
 26 45  1  0
 26 46  1  0
M  CHG  1   7  -1
M  END
>  <UniqueID>  (74) 
69

>  <SMILES>  (74) 
Cc1cccc([N-]C(=O)Oc2cccc(C(N)=O)c2)c1N1CCOCC1

>  <Energy>  (74) 
68.57860422800896

>  <Genealogy>  (74) 
Cc1cccc([N-]C(=O)Oc2cccc(C(N)=O)c2)c1N1CCOCC1 (protonated)
Cc1cccc([N-]C(=O)Oc2cccc(C(N)=O)c2)c1N1CCOCC1 (3D coordinates assigned)
Cc1cccc([N-]C(=O)Oc2cccc(C(N)=O)c2)c1N1CCOCC1 (nonaromatic ring conformer: 68.57860422800896 kcal/mol)

>  <smiles>  (74) 
Cc1cccc(NC(=O)Oc2cccc(C(N)=O)c2)c1N1CCOCC1

>  <score_type>  (74) 
oracle

>  <origin>  (74) 
adg

>  <m_score__min__energy>  (74) 
-9.0600000000000005

>  <m_primary>  (74) 
energy

$$$$
74:0
     RDKit          3D

 60 63  0  0  0  0  0  0  0  0999 V2000
   56.7610   34.5460   44.8880 C   0  0  0  0  0  0  0  0  0  0  0  0
   57.0970   33.8860   46.1040 O   0  0  0  0  0  0  0  0  0  0  0  0
   58.1090   32.9210   46.2350 C   0  0  0  0  0  0  0  0  0  0  0  0
   59.3540   33.2280   46.8240 C   0  0  0  0  0  0  0  0  0  0  0  0
   60.3630   32.2540   46.9080 C   0  0  0  0  0  0  0  0  0  0  0  0
   61.6760   32.5950   47.5000 C   0  0  0  0  0  0  0  0  0  0  0  0
   62.6490   33.2190   46.7100 C   0  0  0  0  0  0  0  0  0  0  0  0
   63.8970   33.5190   47.2480 C   0  0  0  0  0  0  0  0  0  0  0  0
   64.1630   33.2100   48.5770 C   0  0  0  0  0  0  0  0  0  0  0  0
   63.2100   32.6230   49.3640 N   0  0  0  0  0  0  0  0  0  0  0  0
   63.5370   32.3090   50.7640 C   0  0  0  0  0  0  0  0  0  0  0  0
   65.0290   32.2230   50.9460 C   0  0  0  0  0  0  0  0  0  0  0  0
   65.6620   30.9750   51.0290 C   0  0  0  0  0  0  0  0  0  0  0  0
   67.0440   30.9010   51.1900 C   0  0  0  0  0  0  0  0  0  0  0  0
   67.8100   32.0680   51.2550 C   0  0  0  0  0  0  0  0  0  0  0  0
   67.1980   33.3290   51.1540 C   0  0  0  0  0  0  0  0  0  0  0  0
   68.0220   34.5600   51.2280 C   0  0  0  0  0  0  0  0  0  0  0  0
   67.8650   35.4960   52.2990 N   0  0  0  0  0  0  0  0  0  0  0  0
   68.8760   34.7980   50.3260 O   0  0  0  0  0  0  0  0  0  0  0  0
   65.7990   33.3960   51.0070 C   0  0  0  0  0  0  0  0  0  0  0  0
   61.9780   32.3010   48.8450 C   0  0  0  0  0  0  0  0  0  0  0  0
   61.1030   31.7520   49.5750 O   0  0  0  0  0  0  0  0  0  0  0  0
   60.1320   30.9750   46.3910 C   0  0  0  0  0  0  0  0  0  0  0  0
   58.9050   30.6690   45.8010 C   0  0  0  0  0  0  0  0  0  0  0  0
   57.8840   31.6210   45.7390 C   0  0  0  0  0  0  0  0  0  0  0  0
   56.6440   31.2590   45.1180 N   0  0  0  0  0  0  0  0  0  0  0  0
   56.3910   30.0100   44.4660 C   0  0  0  0  0  0  0  0  0  0  0  0
   56.6050   29.8870   43.2330 O   0  0  0  0  0  0  0  0  0  0  0  0
   55.9070   28.8820   45.2010 N   0  0  0  0  0  0  0  0  0  0  0  0
   56.5560   27.6110   45.3470 C   0  0  0  0  0  0  0  0  0  0  0  0
   57.8040   27.4240   44.7460 C   0  0  0  0  0  0  0  0  0  0  0  0
   58.4700   26.2030   44.8640 C   0  0  0  0  0  0  0  0  0  0  0  0
   57.8960   25.1470   45.5930 C   0  0  0  0  0  0  0  0  0  0  0  0
   58.6220   23.8310   45.6960 C   0  0  0  0  0  0  0  0  0  0  0  0
   59.9600   24.0460   45.9780 F   0  0  0  0  0  0  0  0  0  0  0  0
   58.5140   23.1570   44.4940 F   0  0  0  0  0  0  0  0  0  0  0  0
   58.0930   23.0410   46.7020 F   0  0  0  0  0  0  0  0  0  0  0  0
   56.6150   25.3160   46.1440 C   0  0  0  0  0  0  0  0  0  0  0  0
   55.9510   26.5370   46.0230 C   0  0  0  0  0  0  0  0  0  0  0  0
   56.2726   35.5053   45.1143 H   0  0  0  0  0  0  0  0  0  0  0  0
   57.6758   34.7288   44.3051 H   0  0  0  0  0  0  0  0  0  0  0  0
   56.0750   33.9138   44.3051 H   0  0  0  0  0  0  0  0  0  0  0  0
   59.5359   34.2378   47.2205 H   0  0  0  0  0  0  0  0  0  0  0  0
   62.4268   33.4724   45.6629 H   0  0  0  0  0  0  0  0  0  0  0  0
   64.6677   33.9974   46.6258 H   0  0  0  0  0  0  0  0  0  0  0  0
   65.1515   33.4402   49.0010 H   0  0  0  0  0  0  0  0  0  0  0  0
   63.1370   33.0994   51.4160 H   0  0  0  0  0  0  0  0  0  0  0  0
   63.0882   31.3399   51.0273 H   0  0  0  0  0  0  0  0  0  0  0  0
   65.0664   30.0523   50.9669 H   0  0  0  0  0  0  0  0  0  0  0  0
   67.5344   29.9193   51.2663 H   0  0  0  0  0  0  0  0  0  0  0  0
   68.9000   31.9990   51.3862 H   0  0  0  0  0  0  0  0  0  0  0  0
   68.4930   36.3310   52.3550 H   0  0  0  0  0  0  0  0  0  0  0  0
   67.0830   35.4250   52.9780 H   0  0  0  0  0  0  0  0  0  0  0  0
   65.3047   34.3763   50.9393 H   0  0  0  0  0  0  0  0  0  0  0  0
   60.9191   30.2089   46.4496 H   0  0  0  0  0  0  0  0  0  0  0  0
   58.7395   29.6664   45.3797 H   0  0  0  0  0  0  0  0  0  0  0  0
   58.2644   28.2446   44.1762 H   0  0  0  0  0  0  0  0  0  0  0  0
   59.4501   26.0663   44.3836 H   0  0  0  0  0  0  0  0  0  0  0  0
   56.1328   24.4812   46.6737 H   0  0  0  0  0  0  0  0  0  0  0  0
   54.9486   26.6601   46.4589 H   0  0  0  0  0  0  0  0  0  0  0  0
  1  2  1  0
  2  3  1  0
  3  4  2  0
  4  5  1  0
  5  6  1  0
  6  7  2  0
  7  8  1  0
  8  9  2  0
  9 10  1  0
 10 11  1  0
 11 12  1  0
 12 13  2  0
 13 14  1  0
 14 15  2  0
 15 16  1  0
 16 17  1  0
 17 18  1  0
 17 19  2  0
 16 20  2  0
 10 21  1  0
 21 22  2  0
  5 23  2  0
 23 24  1  0
 24 25  2  0
 25 26  1  0
 26 27  1  0
 27 28  2  0
 27 29  1  0
 29 30  1  0
 30 31  2  0
 31 32  1  0
 32 33  2  0
 33 34  1  0
 34 35  1  0
 34 36  1  0
 34 37  1  0
 33 38  1  0
 38 39  2  0
 25  3  1  0
 39 30  1  0
 21  6  1  0
 20 12  1  0
  1 40  1  0
  1 41  1  0
  1 42  1  0
  4 43  1  0
  7 44  1  0
  8 45  1  0
  9 46  1  0
 11 47  1  0
 11 48  1  0
 13 49  1  0
 14 50  1  0
 15 51  1  0
 18 52  1  0
 18 53  1  0
 20 54  1  0
 23 55  1  0
 24 56  1  0
 31 57  1  0
 32 58  1  0
 38 59  1  0
 39 60  1  0
M  CHG  2  26  -1  29  -1
M  END
>  <UniqueID>  (75) 
70

>  <SMILES>  (75) 
COc1cc(-c2cccn(Cc3cccc(C(N)=O)c3)c2=O)ccc1[N-]C(=O)[N-]c1ccc(C(F)(F)F)cc1

>  <Energy>  (75) 
83.5353288646971

>  <Genealogy>  (75) 
COc1cc(-c2cccn(Cc3cccc(C(N)=O)c3)c2=O)ccc1[N-]C(=O)[N-]c1ccc(C(F)(F)F)cc1 (protonated)
COc1cc(-c2cccn(Cc3cccc(C(N)=O)c3)c2=O)ccc1[N-]C(=O)[N-]c1ccc(C(F)(F)F)cc1 (3D coordinates assigned)
COc1cc(-c2cccn(Cc3cccc(C(N)=O)c3)c2=O)ccc1[N-]C(=O)[N-]c1ccc(C(F)(F)F)cc1 (optimized conformer: 83.5353288646971 kcal/mol)

>  <smiles>  (75) 
COc1cc(-c2cccn(Cc3cccc(C(N)=O)c3)c2=O)ccc1NC(=O)Nc1ccc(C(F)(F)F)cc1

>  <score_type>  (75) 
oracle

>  <origin>  (75) 
adg

>  <m_score__min__energy>  (75) 
-12.039999999999999

>  <m_primary>  (75) 
energy

$$$$
76:0
     RDKit          3D

 58 61  0  0  0  0  0  0  0  0999 V2000
   58.1380   27.4780   43.5410 C   0  0  0  0  0  0  0  0  0  0  0  0
   57.6000   27.3470   44.8410 O   0  0  0  0  0  0  0  0  0  0  0  0
   58.4660   27.4490   45.9190 C   0  0  0  0  0  0  0  0  0  0  0  0
   59.0130   26.2780   46.3960 C   0  0  0  0  0  0  0  0  0  0  0  0
   59.8740   26.3600   47.4620 C   0  0  0  0  0  0  0  0  0  0  0  0
   60.1840   27.5850   48.0430 C   0  0  0  0  0  0  0  0  0  0  0  0
   59.6430   28.7760   47.5770 C   0  0  0  0  0  0  0  0  0  0  0  0
   59.9410   30.0360   48.1750 N   0  0  0  0  0  0  0  0  0  0  0  0
   61.1310   30.7620   47.7800 C   0  0  0  0  0  0  0  0  0  0  0  0
   61.8460   31.4240   48.9300 C   0  0  0  0  0  0  0  0  0  0  0  0
   60.9830   31.9300   49.9390 N   0  0  0  0  0  0  0  0  0  0  0  0
   60.4540   33.5420   49.6240 S   0  0  0  0  0  0  0  0  0  0  0  0
   61.5780   34.5210   49.7090 O   0  0  0  0  0  0  0  0  0  0  0  0
   59.3970   34.0020   50.5890 O   0  0  0  0  0  0  0  0  0  0  0  0
   59.8010   33.5940   48.0030 C   0  0  0  0  0  0  0  0  0  0  0  0
   60.5720   33.7900   46.8800 C   0  0  0  0  0  0  0  0  0  0  0  0
   59.9900   33.8140   45.6100 C   0  0  0  0  0  0  0  0  0  0  0  0
   58.6120   33.6400   45.4550 C   0  0  0  0  0  0  0  0  0  0  0  0
   58.0850   33.6660   44.0840 C   0  0  0  0  0  0  0  0  0  0  0  0
   57.4480   32.4080   43.6380 C   0  0  0  0  0  0  0  0  0  0  0  0
   56.7790   31.6020   44.5640 C   0  0  0  0  0  0  0  0  0  0  0  0
   56.1850   30.4200   44.1670 C   0  0  0  0  0  0  0  0  0  0  0  0
   55.5680   29.6640   44.9930 O   0  0  0  0  0  0  0  0  0  0  0  0
   56.2270   30.0020   42.8700 N   0  0  0  0  0  0  0  0  0  0  0  0
   56.8590   30.7750   42.0190 N   0  0  0  0  0  0  0  0  0  0  0  0
   57.4610   31.9420   42.3450 C   0  0  0  0  0  0  0  0  0  0  0  0
   58.1260   32.6980   41.2560 C   0  0  0  0  0  0  0  0  0  0  0  0
   57.8720   33.4470   46.5930 C   0  0  0  0  0  0  0  0  0  0  0  0
   58.4400   33.4210   47.8500 C   0  0  0  0  0  0  0  0  0  0  0  0
   59.9400   31.0410   50.3410 C   0  0  0  0  0  0  0  0  0  0  0  0
   59.0890   30.6620   49.1680 C   0  0  0  0  0  0  0  0  0  0  0  0
   58.7820   28.6700   46.5050 C   0  0  0  0  0  0  0  0  0  0  0  0
   59.2047   27.7377   43.6101 H   0  0  0  0  0  0  0  0  0  0  0  0
   58.0266   26.5265   43.0005 H   0  0  0  0  0  0  0  0  0  0  0  0
   57.6016   28.2718   43.0005 H   0  0  0  0  0  0  0  0  0  0  0  0
   58.7677   25.3087   45.9375 H   0  0  0  0  0  0  0  0  0  0  0  0
   60.3264   25.4412   47.8635 H   0  0  0  0  0  0  0  0  0  0  0  0
   60.8777   27.6112   48.8963 H   0  0  0  0  0  0  0  0  0  0  0  0
   61.8248   30.0565   47.2994 H   0  0  0  0  0  0  0  0  0  0  0  0
   60.8079   31.5626   47.0984 H   0  0  0  0  0  0  0  0  0  0  0  0
   62.5180   30.6845   49.3899 H   0  0  0  0  0  0  0  0  0  0  0  0
   62.3843   32.2876   48.5123 H   0  0  0  0  0  0  0  0  0  0  0  0
   61.6582   33.9293   46.9834 H   0  0  0  0  0  0  0  0  0  0  0  0
   60.6224   33.9713   44.7238 H   0  0  0  0  0  0  0  0  0  0  0  0
   57.3362   34.4693   44.0209 H   0  0  0  0  0  0  0  0  0  0  0  0
   58.9504   33.8247   43.4237 H   0  0  0  0  0  0  0  0  0  0  0  0
   56.7252   31.9120   45.6181 H   0  0  0  0  0  0  0  0  0  0  0  0
   55.7810   29.1110   42.5580 H   0  0  0  0  0  0  0  0  0  0  0  0
   58.7933   33.4567   41.6908 H   0  0  0  0  0  0  0  0  0  0  0  0
   58.7133   32.0058   40.6347 H   0  0  0  0  0  0  0  0  0  0  0  0
   57.3646   33.1922   40.6347 H   0  0  0  0  0  0  0  0  0  0  0  0
   56.7848   33.3077   46.5003 H   0  0  0  0  0  0  0  0  0  0  0  0
   57.8055   33.2617   48.7343 H   0  0  0  0  0  0  0  0  0  0  0  0
   60.3856   30.1327   50.7728 H   0  0  0  0  0  0  0  0  0  0  0  0
   59.3102   31.5476   51.0871 H   0  0  0  0  0  0  0  0  0  0  0  0
   58.3079   29.9562   49.4869 H   0  0  0  0  0  0  0  0  0  0  0  0
   58.6044   31.5545   48.7453 H   0  0  0  0  0  0  0  0  0  0  0  0
   58.3281   29.5856   46.0981 H   0  0  0  0  0  0  0  0  0  0  0  0
  1  2  1  0
  2  3  1  0
  3  4  2  0
  4  5  1  0
  5  6  2  0
  6  7  1  0
  7  8  1  0
  8  9  1  0
  9 10  1  0
 10 11  1  0
 11 12  1  0
 12 13  2  0
 12 14  2  0
 12 15  1  0
 15 16  2  0
 16 17  1  0
 17 18  2  0
 18 19  1  0
 19 20  1  0
 20 21  2  0
 21 22  1  0
 22 23  2  0
 22 24  1  0
 24 25  1  0
 25 26  2  0
 26 27  1  0
 18 28  1  0
 28 29  2  0
 11 30  1  0
 30 31  1  0
  7 32  2  0
 32  3  1  0
 31  8  1  0
 29 15  1  0
 26 20  1  0
  1 33  1  0
  1 34  1  0
  1 35  1  0
  4 36  1  0
  5 37  1  0
  6 38  1  0
  9 39  1  0
  9 40  1  0
 10 41  1  0
 10 42  1  0
 16 43  1  0
 17 44  1  0
 19 45  1  0
 19 46  1  0
 21 47  1  0
 24 48  1  0
 27 49  1  0
 27 50  1  0
 27 51  1  0
 28 52  1  0
 29 53  1  0
 30 54  1  0
 30 55  1  0
 31 56  1  0
 31 57  1  0
 32 58  1  0
M  END
>  <smiles>  (76) 
COc1cccc(N2CCN(S(=O)(=O)c3ccc(Cc4cc(=O)[nH]nc4C)cc3)CC2)c1

>  <score_type>  (76) 
oracle

>  <origin>  (76) 
adg

>  <m_score__min__energy>  (76) 
-9.8300000000000001

>  <m_primary>  (76) 
energy

$$$$
77:0
     RDKit          3D

 53 56  0  0  0  0  0  0  0  0999 V2000
   57.7660   33.6420   43.7500 O   0  0  0  0  0  0  0  0  0  0  0  0
   57.6610   32.8030   44.9940 S   0  0  0  0  0  0  0  0  0  0  0  0
   56.3970   33.1770   45.7190 O   0  0  0  0  0  0  0  0  0  0  0  0
   57.6070   31.1050   44.5270 C   0  0  0  0  0  0  0  0  0  0  0  0
   58.4830   30.1760   45.1080 C   0  0  0  0  0  0  0  0  0  0  0  0
   58.4470   28.8350   44.7150 C   0  0  0  0  0  0  0  0  0  0  0  0
   57.5390   28.4160   43.7380 C   0  0  0  0  0  0  0  0  0  0  0  0
   56.6690   29.3390   43.1500 C   0  0  0  0  0  0  0  0  0  0  0  0
   56.7030   30.6810   43.5420 C   0  0  0  0  0  0  0  0  0  0  0  0
   59.0470   33.0920   46.0140 N   0  0  0  0  0  0  0  0  0  0  0  0
   58.6510   33.0180   47.4380 C   0  0  0  0  0  0  0  0  0  0  0  0
   59.6460   33.7300   48.3790 C   0  0  0  0  0  0  0  0  0  0  0  0
   60.9540   33.9060   47.7310 N   0  0  0  0  0  0  0  0  0  0  0  0
   62.1810   33.7250   48.4620 C   0  0  0  0  0  0  0  0  0  0  0  0
   62.2500   33.9600   49.8400 C   0  0  0  0  0  0  0  0  0  0  0  0
   63.4530   33.7520   50.5080 C   0  0  0  0  0  0  0  0  0  0  0  0
   64.5720   33.3060   49.7930 C   0  0  0  0  0  0  0  0  0  0  0  0
   65.8240   33.0610   50.4640 N   0  0  0  0  0  0  0  0  0  0  0  0
   66.4020   31.7080   50.4530 C   0  0  0  0  0  0  0  0  0  0  0  0
   67.4940   31.5520   51.5230 C   0  0  0  0  0  0  0  0  0  0  0  0
   67.0580   32.2220   52.8320 C   0  0  0  0  0  0  0  0  0  0  0  0
   66.7470   33.7250   52.6560 C   0  0  0  0  0  0  0  0  0  0  0  0
   66.5180   34.1330   51.1910 C   0  0  0  0  0  0  0  0  0  0  0  0
   64.4450   33.0650   48.4560 N   0  0  0  0  0  0  0  0  0  0  0  0
   63.2900   33.2690   47.8190 N   0  0  0  0  0  0  0  0  0  0  0  0
   61.0050   34.5020   46.3890 C   0  0  0  0  0  0  0  0  0  0  0  0
   59.6460   34.3940   45.6890 C   0  0  0  0  0  0  0  0  0  0  0  0
   59.2002   30.5037   45.8750 H   0  0  0  0  0  0  0  0  0  0  0  0
   59.1336   28.1089   45.1748 H   0  0  0  0  0  0  0  0  0  0  0  0
   57.5091   27.3599   43.4319 H   0  0  0  0  0  0  0  0  0  0  0  0
   55.9574   29.0095   42.3786 H   0  0  0  0  0  0  0  0  0  0  0  0
   56.0190   31.4059   43.0766 H   0  0  0  0  0  0  0  0  0  0  0  0
   57.6631   33.4883   47.5519 H   0  0  0  0  0  0  0  0  0  0  0  0
   58.6350   31.9549   47.7200 H   0  0  0  0  0  0  0  0  0  0  0  0
   59.2425   34.7174   48.6479 H   0  0  0  0  0  0  0  0  0  0  0  0
   59.7818   33.1101   49.2775 H   0  0  0  0  0  0  0  0  0  0  0  0
   61.3621   34.3057   50.3896 H   0  0  0  0  0  0  0  0  0  0  0  0
   63.5247   33.9365   51.5900 H   0  0  0  0  0  0  0  0  0  0  0  0
   65.6036   30.9769   50.6482 H   0  0  0  0  0  0  0  0  0  0  0  0
   66.8586   31.5363   49.4671 H   0  0  0  0  0  0  0  0  0  0  0  0
   67.6729   30.4821   51.7053 H   0  0  0  0  0  0  0  0  0  0  0  0
   68.4162   32.0333   51.1652 H   0  0  0  0  0  0  0  0  0  0  0  0
   66.1541   31.7163   53.2024 H   0  0  0  0  0  0  0  0  0  0  0  0
   67.8921   32.1358   53.5440 H   0  0  0  0  0  0  0  0  0  0  0  0
   65.8395   33.9630   53.2303 H   0  0  0  0  0  0  0  0  0  0  0  0
   67.6243   34.2828   53.0155 H   0  0  0  0  0  0  0  0  0  0  0  0
   65.9063   35.0467   51.1605 H   0  0  0  0  0  0  0  0  0  0  0  0
   67.4926   34.3149   50.7144 H   0  0  0  0  0  0  0  0  0  0  0  0
   65.2630   32.7290   47.9030 H   0  0  0  0  0  0  0  0  0  0  0  0
   61.2813   35.5631   46.4768 H   0  0  0  0  0  0  0  0  0  0  0  0
   61.7515   33.9580   45.7917 H   0  0  0  0  0  0  0  0  0  0  0  0
   58.9857   35.2018   46.0374 H   0  0  0  0  0  0  0  0  0  0  0  0
   59.7785   34.4828   44.6006 H   0  0  0  0  0  0  0  0  0  0  0  0
  1  2  2  0
  2  3  2  0
  2  4  1  0
  4  5  2  0
  5  6  1  0
  6  7  2  0
  7  8  1  0
  8  9  2  0
  2 10  1  0
 10 11  1  0
 11 12  1  0
 12 13  1  0
 13 14  1  0
 14 15  2  0
 15 16  1  0
 16 17  2  0
 17 18  1  0
 18 19  1  0
 19 20  1  0
 20 21  1  0
 21 22  1  0
 22 23  1  0
 17 24  1  0
 24 25  2  0
 13 26  1  0
 26 27  1  0
  9  4  1  0
 27 10  1  0
 25 14  1  0
 23 18  1  0
  5 28  1  0
  6 29  1  0
  7 30  1  0
  8 31  1  0
  9 32  1  0
 11 33  1  0
 11 34  1  0
 12 35  1  0
 12 36  1  0
 15 37  1  0
 16 38  1  0
 19 39  1  0
 19 40  1  0
 20 41  1  0
 20 42  1  0
 21 43  1  0
 21 44  1  0
 22 45  1  0
 22 46  1  0
 23 47  1  0
 23 48  1  0
 24 49  1  0
 26 50  1  0
 26 51  1  0
 27 52  1  0
 27 53  1  0
M  CHG  1  24   1
M  END
>  <UniqueID>  (77) 
71

>  <SMILES>  (77) 
O=S(=O)(c1ccccc1)N1CCN(c2ccc(N3CCCCC3)[nH+]n2)CC1

>  <Energy>  (77) 
67.14406614502954

>  <Genealogy>  (77) 
O=S(=O)(c1ccccc1)N1CCN(c2ccc(N3CCCCC3)[nH+]n2)CC1 (protonated)
O=S(=O)(c1ccccc1)N1CCN(c2ccc(N3CCCCC3)[nH+]n2)CC1 (3D coordinates assigned)
O=S(=O)(c1ccccc1)N1CCN(c2ccc(N3CCCCC3)[nH+]n2)CC1 (nonaromatic ring conformer: 67.14406614502954 kcal/mol)

>  <smiles>  (77) 
O=S(=O)(c1ccccc1)N1CCN(c2ccc(N3CCCCC3)nn2)CC1

>  <score_type>  (77) 
oracle

>  <origin>  (77) 
adg

>  <m_score__min__energy>  (77) 
-7.5099999999999998

>  <m_primary>  (77) 
energy

$$$$
78:0
     RDKit          3D

 31 32  0  0  0  0  0  0  0  0999 V2000
   59.0520   34.4570   45.8210 C   0  0  0  0  0  0  0  0  0  0  0  0
   57.2890   34.0110   45.7560 S   0  0  0  0  0  0  0  0  0  0  0  0
   57.6210   32.2920   45.3890 C   0  0  0  0  0  0  0  0  0  0  0  0
   58.6240   31.6430   46.0310 N   0  0  0  0  0  0  0  0  0  0  0  0
   58.8960   30.3410   45.7650 C   0  0  0  0  0  0  0  0  0  0  0  0
   58.1480   29.6430   44.8060 C   0  0  0  0  0  0  0  0  0  0  0  0
   58.4830   28.2300   44.5160 C   0  0  0  0  0  0  0  0  0  0  0  0
   59.6410   27.9410   44.1110 O   0  0  0  0  0  0  0  0  0  0  0  0
   57.4790   27.2080   44.6080 N   0  0  0  0  0  0  0  0  0  0  0  0
   57.7720   25.8070   44.7540 C   0  0  0  0  0  0  0  0  0  0  0  0
   58.6400   25.3410   45.7590 C   0  0  0  0  0  0  0  0  0  0  0  0
   58.8880   23.9720   45.8960 C   0  0  0  0  0  0  0  0  0  0  0  0
   58.2680   23.0560   45.0430 C   0  0  0  0  0  0  0  0  0  0  0  0
   58.5150   21.7300   45.1860 F   0  0  0  0  0  0  0  0  0  0  0  0
   57.3860   23.5090   44.0540 C   0  0  0  0  0  0  0  0  0  0  0  0
   56.5900   22.3670   42.9840 Cl  0  0  0  0  0  0  0  0  0  0  0  0
   57.1350   24.8790   43.9160 C   0  0  0  0  0  0  0  0  0  0  0  0
   57.0860   30.3280   44.1730 C   0  0  0  0  0  0  0  0  0  0  0  0
   56.1730   29.6660   43.1810 C   0  0  0  0  0  0  0  0  0  0  0  0
   56.8620   31.6350   44.4760 N   0  0  0  0  0  0  0  0  0  0  0  0
   59.3713   34.5378   46.8705 H   0  0  0  0  0  0  0  0  0  0  0  0
   59.6455   33.6807   45.3159 H   0  0  0  0  0  0  0  0  0  0  0  0
   59.2049   35.4221   45.3159 H   0  0  0  0  0  0  0  0  0  0  0  0
   59.7073   29.8302   46.3042 H   0  0  0  0  0  0  0  0  0  0  0  0
   56.4830   27.4930   44.4710 H   0  0  0  0  0  0  0  0  0  0  0  0
   59.1251   26.0566   46.4392 H   0  0  0  0  0  0  0  0  0  0  0  0
   59.5739   23.6149   46.6784 H   0  0  0  0  0  0  0  0  0  0  0  0
   56.4335   25.2308   43.1452 H   0  0  0  0  0  0  0  0  0  0  0  0
   55.3956   29.1023   43.7175 H   0  0  0  0  0  0  0  0  0  0  0  0
   55.7002   30.4326   42.5495 H   0  0  0  0  0  0  0  0  0  0  0  0
   56.7546   28.9783   42.5495 H   0  0  0  0  0  0  0  0  0  0  0  0
  1  2  1  0
  2  3  1  0
  3  4  2  0
  4  5  1  0
  5  6  2  0
  6  7  1  0
  7  8  2  0
  7  9  1  0
  9 10  1  0
 10 11  2  0
 11 12  1  0
 12 13  2  0
 13 14  1  0
 13 15  1  0
 15 16  1  0
 15 17  2  0
  6 18  1  0
 18 19  1  0
 18 20  2  0
 20  3  1  0
 17 10  1  0
  1 21  1  0
  1 22  1  0
  1 23  1  0
  5 24  1  0
  9 25  1  0
 11 26  1  0
 12 27  1  0
 17 28  1  0
 19 29  1  0
 19 30  1  0
 19 31  1  0
M  END
>  <UniqueID>  (78) 
72

>  <SMILES>  (78) 
CSc1ncc(C(=O)Nc2ccc(F)c(Cl)c2)c(C)n1

>  <Energy>  (78) 
36.1827116747993

>  <Genealogy>  (78) 
CSc1ncc(C(=O)Nc2ccc(F)c(Cl)c2)c(C)n1 (3D coordinates assigned)
CSc1ncc(C(=O)Nc2ccc(F)c(Cl)c2)c(C)n1 (optimized conformer: 36.1827116747993 kcal/mol)

>  <smiles>  (78) 
CSc1ncc(C(=O)Nc2ccc(F)c(Cl)c2)c(C)n1

>  <score_type>  (78) 
oracle

>  <origin>  (78) 
adg

>  <m_score__min__energy>  (78) 
-6.6900000000000004

>  <m_primary>  (78) 
energy

$$$$
79:0
     RDKit          3D

 29 30  0  0  0  0  0  0  0  0999 V2000
   57.7450   33.4300   44.8270 C   0  0  0  0  0  0  0  0  0  0  0  0
   58.2850   33.8540   46.5110 S   0  0  0  0  0  0  0  0  0  0  0  0
   59.1790   32.3200   46.7330 C   0  0  0  0  0  0  0  0  0  0  0  0
   60.5470   32.2050   46.9330 C   0  0  0  0  0  0  0  0  0  0  0  0
   60.9660   30.8780   47.0810 C   0  0  0  0  0  0  0  0  0  0  0  0
   59.9240   29.9620   46.9920 C   0  0  0  0  0  0  0  0  0  0  0  0
   60.0530   28.4790   47.1400 C   0  0  0  0  0  0  0  0  0  0  0  0
   58.9270   27.8080   46.4880 N   0  0  0  0  0  0  0  0  0  0  0  0
   57.9720   27.0860   47.1080 C   0  0  0  0  0  0  0  0  0  0  0  0
   57.0510   26.7070   46.1540 C   0  0  0  0  0  0  0  0  0  0  0  0
   55.8620   25.9440   46.3850 N   0  0  0  0  0  0  0  0  0  0  0  0
   54.7630   26.3390   45.9460 O   0  0  0  0  0  0  0  0  0  0  0  0
   55.9230   24.7690   47.0960 O   0  0  0  0  0  0  0  0  0  0  0  0
   57.4160   27.1910   44.9520 N   0  0  0  0  0  0  0  0  0  0  0  0
   58.5650   27.8580   45.1840 C   0  0  0  0  0  0  0  0  0  0  0  0
   59.2930   28.6310   44.1270 C   0  0  0  0  0  0  0  0  0  0  0  0
   58.4820   30.7910   46.7350 S   0  0  0  0  0  0  0  0  0  0  0  0
   56.8808   32.7514   44.8790 H   0  0  0  0  0  0  0  0  0  0  0  0
   57.4591   34.3475   44.2917 H   0  0  0  0  0  0  0  0  0  0  0  0
   58.5684   32.9346   44.2917 H   0  0  0  0  0  0  0  0  0  0  0  0
   61.2303   33.0662   46.9712 H   0  0  0  0  0  0  0  0  0  0  0  0
   62.0137   30.5890   47.2506 H   0  0  0  0  0  0  0  0  0  0  0  0
   60.9929   28.1474   46.6746 H   0  0  0  0  0  0  0  0  0  0  0  0
   60.0540   28.2229   48.2098 H   0  0  0  0  0  0  0  0  0  0  0  0
   57.9343   26.8433   48.1802 H   0  0  0  0  0  0  0  0  0  0  0  0
   56.9090   27.0920   44.0450 H   0  0  0  0  0  0  0  0  0  0  0  0
   59.9728   29.3528   44.6033 H   0  0  0  0  0  0  0  0  0  0  0  0
   59.8742   27.9381   43.5008 H   0  0  0  0  0  0  0  0  0  0  0  0
   58.5665   29.1696   43.5008 H   0  0  0  0  0  0  0  0  0  0  0  0
  1  2  1  0
  2  3  1  0
  3  4  2  0
  4  5  1  0
  5  6  2  0
  6  7  1  0
  7  8  1  0
  8  9  1  0
  9 10  2  0
 10 11  1  0
 11 12  2  0
 11 13  1  0
 10 14  1  0
 14 15  2  0
 15 16  1  0
  6 17  1  0
 17  3  1  0
 15  8  1  0
  1 18  1  0
  1 19  1  0
  1 20  1  0
  4 21  1  0
  5 22  1  0
  7 23  1  0
  7 24  1  0
  9 25  1  0
 14 26  1  0
 16 27  1  0
 16 28  1  0
 16 29  1  0
M  CHG  3  11   1  13  -1  14   1
M  END
>  <UniqueID>  (79) 
73

>  <SMILES>  (79) 
CSc1ccc(Cn2cc([N+](=O)[O-])[nH+]c2C)s1

>  <Energy>  (79) 
78.36203051949418

>  <Genealogy>  (79) 
CSc1ccc(Cn2cc([N+](=O)[O-])[nH+]c2C)s1 (protonated)
CSc1ccc(Cn2cc([N+](=O)[O-])[nH+]c2C)s1 (3D coordinates assigned)
CSc1ccc(Cn2cc([N+](=O)[O-])[nH+]c2C)s1 (optimized conformer: 78.36203051949418 kcal/mol)

>  <smiles>  (79) 
CSc1ccc(Cn2cc([N+](=O)[O-])nc2C)s1

>  <score_type>  (79) 
oracle

>  <origin>  (79) 
adg

>  <m_score__min__energy>  (79) 
-5.4199999999999999

>  <m_primary>  (79) 
energy

$$$$
80:0
     RDKit          3D

 42 43  0  0  0  0  0  0  0  0999 V2000
   58.8180   28.9080   44.3750 C   0  0  0  0  0  0  0  0  0  0  0  0
   57.8230   29.4950   45.2810 N   0  0  0  0  0  0  0  0  0  0  0  0
   58.4080   30.6310   46.0190 C   0  0  0  0  0  0  0  0  0  0  0  0
   59.4090   30.1550   47.0360 C   0  0  0  0  0  0  0  0  0  0  0  0
   59.6910   28.9300   47.0910 O   0  0  0  0  0  0  0  0  0  0  0  0
   60.0610   31.0560   47.9420 N   0  0  0  0  0  0  0  0  0  0  0  0
   61.1610   31.9030   47.5920 C   0  0  0  0  0  0  0  0  0  0  0  0
   62.4400   31.5660   48.0510 C   0  0  0  0  0  0  0  0  0  0  0  0
   63.5480   32.3260   47.6740 C   0  0  0  0  0  0  0  0  0  0  0  0
   63.3840   33.4370   46.8460 C   0  0  0  0  0  0  0  0  0  0  0  0
   62.1090   33.7980   46.4030 C   0  0  0  0  0  0  0  0  0  0  0  0
   60.9820   33.0450   46.7780 C   0  0  0  0  0  0  0  0  0  0  0  0
   59.6670   33.4620   46.3650 N   0  0  0  0  0  0  0  0  0  0  0  0
   59.4720   34.0980   45.0580 C   0  0  0  0  0  0  0  0  0  0  0  0
   58.0280   33.8840   44.5910 C   0  0  0  0  0  0  0  0  0  0  0  0
   57.1090   34.2980   45.5850 O   0  0  0  0  0  0  0  0  0  0  0  0
   57.2480   33.4850   46.7360 C   0  0  0  0  0  0  0  0  0  0  0  0
   58.6260   33.6800   47.3740 C   0  0  0  0  0  0  0  0  0  0  0  0
   56.4270   30.0110   44.3610 S   0  0  0  0  0  0  0  0  0  0  0  0
   56.6350   29.5720   42.6480 C   0  0  0  0  0  0  0  0  0  0  0  0
   55.1910   29.3260   44.8730 O   0  0  0  0  0  0  0  0  0  0  0  0
   56.2470   31.5000   44.4750 O   0  0  0  0  0  0  0  0  0  0  0  0
   59.6177   28.4362   44.9648 H   0  0  0  0  0  0  0  0  0  0  0  0
   58.3345   28.1504   43.7407 H   0  0  0  0  0  0  0  0  0  0  0  0
   59.2473   29.6976   43.7407 H   0  0  0  0  0  0  0  0  0  0  0  0
   58.9102   31.3023   45.3068 H   0  0  0  0  0  0  0  0  0  0  0  0
   57.5999   31.1612   46.5442 H   0  0  0  0  0  0  0  0  0  0  0  0
   62.5723   30.6972   48.7126 H   0  0  0  0  0  0  0  0  0  0  0  0
   64.5513   32.0490   48.0298 H   0  0  0  0  0  0  0  0  0  0  0  0
   64.2595   34.0294   46.5416 H   0  0  0  0  0  0  0  0  0  0  0  0
   61.9857   34.6786   45.7555 H   0  0  0  0  0  0  0  0  0  0  0  0
   59.6733   35.1761   45.1421 H   0  0  0  0  0  0  0  0  0  0  0  0
   60.1618   33.6498   44.3277 H   0  0  0  0  0  0  0  0  0  0  0  0
   57.8554   34.4683   43.6751 H   0  0  0  0  0  0  0  0  0  0  0  0
   57.8766   32.8119   44.3970 H   0  0  0  0  0  0  0  0  0  0  0  0
   56.4708   33.7564   47.4656 H   0  0  0  0  0  0  0  0  0  0  0  0
   57.1420   32.4311   46.4391 H   0  0  0  0  0  0  0  0  0  0  0  0
   58.7060   34.7039   47.7681 H   0  0  0  0  0  0  0  0  0  0  0  0
   58.7550   32.9598   48.1954 H   0  0  0  0  0  0  0  0  0  0  0  0
   57.1050   28.5799   42.5782 H   0  0  0  0  0  0  0  0  0  0  0  0
   55.6526   29.5479   42.1538 H   0  0  0  0  0  0  0  0  0  0  0  0
   57.2759   30.3170   42.1538 H   0  0  0  0  0  0  0  0  0  0  0  0
  1  2  1  0
  2  3  1  0
  3  4  1  0
  4  5  2  0
  4  6  1  0
  6  7  1  0
  7  8  2  0
  8  9  1  0
  9 10  2  0
 10 11  1  0
 11 12  2  0
 12 13  1  0
 13 14  1  0
 14 15  1  0
 15 16  1  0
 16 17  1  0
 17 18  1  0
  2 19  1  0
 19 20  1  0
 19 21  2  0
 19 22  2  0
 12  7  1  0
 18 13  1  0
  1 23  1  0
  1 24  1  0
  1 25  1  0
  3 26  1  0
  3 27  1  0
  8 28  1  0
  9 29  1  0
 10 30  1  0
 11 31  1  0
 14 32  1  0
 14 33  1  0
 15 34  1  0
 15 35  1  0
 17 36  1  0
 17 37  1  0
 18 38  1  0
 18 39  1  0
 20 40  1  0
 20 41  1  0
 20 42  1  0
M  CHG  1   6  -1
M  END
>  <UniqueID>  (80) 
74

>  <SMILES>  (80) 
CN(CC(=O)[N-]c1ccccc1N1CCOCC1)S(C)(=O)=O

>  <Energy>  (80) 
44.59380533736849

>  <Genealogy>  (80) 
CN(CC(=O)[N-]c1ccccc1N1CCOCC1)S(C)(=O)=O (protonated)
CN(CC(=O)[N-]c1ccccc1N1CCOCC1)S(C)(=O)=O (3D coordinates assigned)
CN(CC(=O)[N-]c1ccccc1N1CCOCC1)S(C)(=O)=O (nonaromatic ring conformer: 44.59380533736849 kcal/mol)

>  <smiles>  (80) 
CN(CC(=O)Nc1ccccc1N1CCOCC1)S(C)(=O)=O

>  <score_type>  (80) 
oracle

>  <origin>  (80) 
adg

>  <m_score__min__energy>  (80) 
-9.0899999999999999

>  <m_primary>  (80) 
energy

$$$$
81:0
     RDKit          3D

 47 50  0  0  0  0  0  0  0  0999 V2000
   55.4090   28.4903   45.1457 H   0  0  0  0  0  0  0  0  0  0  0  0
   56.2520   29.1380   44.8630 C   0  0  0  0  0  0  0  0  0  0  0  0
   56.0230   30.4220   44.4800 N   0  0  0  0  0  0  0  0  0  0  0  0
   57.0390   31.2510   44.1190 C   0  0  0  0  0  0  0  0  0  0  0  0
   56.8213   32.2842   43.8107 H   0  0  0  0  0  0  0  0  0  0  0  0
   58.3580   30.7930   44.1390 C   0  0  0  0  0  0  0  0  0  0  0  0
   59.1802   31.4585   43.8370 H   0  0  0  0  0  0  0  0  0  0  0  0
   58.6270   29.4780   44.5470 C   0  0  0  0  0  0  0  0  0  0  0  0
   60.0320   28.9500   44.5370 C   0  0  0  0  0  0  0  0  0  0  0  0
   60.5454   29.2841   43.6234 H   0  0  0  0  0  0  0  0  0  0  0  0
   60.0169   27.8503   44.5598 H   0  0  0  0  0  0  0  0  0  0  0  0
   60.7370   29.4590   45.7090 N   0  0  0  0  0  0  0  0  0  0  0  0
   60.2700   30.0230   46.7900 C   0  0  0  0  0  0  0  0  0  0  0  0
   60.3080   31.3800   46.8380 N   0  0  0  0  0  0  0  0  0  0  0  0
   59.8700   32.1190   47.8930 C   0  0  0  0  0  0  0  0  0  0  0  0
   59.8990   33.5620   47.8210 N   0  0  0  0  0  0  0  0  0  0  0  0
   60.6920   34.0690   48.2730 H   0  0  0  0  0  0  0  0  0  0  0  0
   58.9080   34.4170   47.1480 C   0  0  0  0  0  0  0  0  0  0  0  0
   58.7084   35.1179   47.9720 H   0  0  0  0  0  0  0  0  0  0  0  0
   57.7590   33.6550   46.4950 C   0  0  0  0  0  0  0  0  0  0  0  0
   57.8291   32.5617   46.5941 H   0  0  0  0  0  0  0  0  0  0  0  0
   56.7253   33.7906   46.8457 H   0  0  0  0  0  0  0  0  0  0  0  0
   58.1950   34.1890   45.1330 C   0  0  0  0  0  0  0  0  0  0  0  0
   58.5143   33.4078   44.4275 H   0  0  0  0  0  0  0  0  0  0  0  0
   57.4770   34.7220   44.4924 H   0  0  0  0  0  0  0  0  0  0  0  0
   59.3490   34.9450   45.7860 C   0  0  0  0  0  0  0  0  0  0  0  0
   60.3465   34.6041   45.4717 H   0  0  0  0  0  0  0  0  0  0  0  0
   59.4786   36.0244   45.6181 H   0  0  0  0  0  0  0  0  0  0  0  0
   59.3480   31.4540   49.0220 C   0  0  0  0  0  0  0  0  0  0  0  0
   58.9190   32.1800   50.2400 C   0  0  0  0  0  0  0  0  0  0  0  0
   57.7490   31.7960   50.9170 C   0  0  0  0  0  0  0  0  0  0  0  0
   57.1415   30.9636   50.5322 H   0  0  0  0  0  0  0  0  0  0  0  0
   57.3540   32.4680   52.0780 C   0  0  0  0  0  0  0  0  0  0  0  0
   56.4345   32.1671   52.6013 H   0  0  0  0  0  0  0  0  0  0  0  0
   58.1270   33.5220   52.5740 C   0  0  0  0  0  0  0  0  0  0  0  0
   57.8140   34.0516   53.4859 H   0  0  0  0  0  0  0  0  0  0  0  0
   59.2970   33.9030   51.9120 C   0  0  0  0  0  0  0  0  0  0  0  0
   59.9050   34.7315   52.3043 H   0  0  0  0  0  0  0  0  0  0  0  0
   59.6960   33.2330   50.7520 C   0  0  0  0  0  0  0  0  0  0  0  0
   60.6217   33.5311   50.2380 H   0  0  0  0  0  0  0  0  0  0  0  0
   59.2740   30.0560   49.0040 C   0  0  0  0  0  0  0  0  0  0  0  0
   58.8517   29.5258   49.8703 H   0  0  0  0  0  0  0  0  0  0  0  0
   59.7280   29.3220   47.9030 C   0  0  0  0  0  0  0  0  0  0  0  0
   59.6160   27.8850   47.9850 C   0  0  0  0  0  0  0  0  0  0  0  0
   59.5330   26.7330   48.0590 N   0  0  0  0  0  0  0  0  0  0  0  0
   57.5570   28.6400   44.8980 C   0  0  0  0  0  0  0  0  0  0  0  0
   57.7446   27.5986   45.1985 H   0  0  0  0  0  0  0  0  0  0  0  0
  1  2  1  0
  2  3  2  0
  3  4  1  0
  4  5  1  0
  4  6  2  0
  6  7  1  0
  6  8  1  0
  8  9  1  0
  9 10  1  0
  9 11  1  0
  9 12  1  0
 12 13  2  0
 13 14  1  0
 14 15  1  0
 15 16  1  0
 16 17  1  0
 16 18  1  0
 18 19  1  0
 18 20  1  0
 20 21  1  0
 20 22  1  0
 20 23  1  0
 23 24  1  0
 23 25  1  0
 23 26  1  0
 26 27  1  0
 26 28  1  0
 15 29  2  0
 29 30  1  0
 30 31  2  0
 31 32  1  0
 31 33  1  0
 33 34  1  0
 33 35  2  0
 35 36  1  0
 35 37  1  0
 37 38  1  0
 37 39  2  0
 39 40  1  0
 29 41  1  0
 41 42  1  0
 41 43  2  0
 43 44  1  0
 44 45  3  0
  8 46  2  0
 46 47  1  0
 46  2  1  0
 43 13  1  0
 26 18  1  0
 39 30  1  0
M  CHG  1  14  -1
M  END
>  <UniqueID>  (81) 
75

>  <SMILES>  (81) 
N#Cc1cc(-c2ccccc2)c(NC2CCC2)[n-]/c1=N/Cc1ccncc1

>  <Energy>  (81) 
126.72583829232005

>  <Genealogy>  (81) 
N#Cc1cc(-c2ccccc2)c(NC2CCC2)[n-]c1=NCc1ccncc1 (protonated)
N#Cc1cc(-c2ccccc2)c(NC2CCC2)[n-]/c1=N/Cc1ccncc1 (cis-trans isomerization)
N#Cc1cc(-c2ccccc2)c(NC2CCC2)[n-]/c1=N/Cc1ccncc1 (3D coordinates assigned)
N#Cc1cc(-c2ccccc2)c(NC2CCC2)[n-]/c1=N/Cc1ccncc1 (nonaromatic ring conformer: 126.72583829232005 kcal/mol)

>  <smiles>  (81) 
N#Cc1cc(-c2ccccc2)c(NC2CCC2)[nH]c1=NCc1ccncc1

>  <score_type>  (81) 
oracle

>  <origin>  (81) 
adg

>  <m_score__min__energy>  (81) 
-10.16

>  <m_primary>  (81) 
energy

$$$$
82:0
     RDKit          3D

 46 47  0  0  0  0  0  0  0  0999 V2000
   63.7100   33.1340   47.1400 C   0  0  0  0  0  0  0  0  0  0  0  0
   62.4370   33.5250   47.1210 C   0  0  0  0  0  0  0  0  0  0  0  0
   61.7980   34.1940   48.2760 C   0  0  0  0  0  0  0  0  0  0  0  0
   62.4830   34.4900   49.2920 O   0  0  0  0  0  0  0  0  0  0  0  0
   60.4040   34.5220   48.2720 N   0  0  0  0  0  0  0  0  0  0  0  0
   59.7010   35.1450   47.1580 C   0  0  0  0  0  0  0  0  0  0  0  0
   59.0660   34.0780   46.3160 C   0  0  0  0  0  0  0  0  0  0  0  0
   59.2010   32.7250   46.6630 C   0  0  0  0  0  0  0  0  0  0  0  0
   58.5470   31.7370   45.9210 C   0  0  0  0  0  0  0  0  0  0  0  0
   57.7280   32.0900   44.8370 C   0  0  0  0  0  0  0  0  0  0  0  0
   56.9700   31.0470   44.1110 C   0  0  0  0  0  0  0  0  0  0  0  0
   56.7130   31.2090   42.8890 O   0  0  0  0  0  0  0  0  0  0  0  0
   56.4880   29.8610   44.7650 N   0  0  0  0  0  0  0  0  0  0  0  0
   57.2620   28.6920   45.0750 C   0  0  0  0  0  0  0  0  0  0  0  0
   58.6350   28.6960   44.8040 C   0  0  0  0  0  0  0  0  0  0  0  0
   59.4080   27.5630   45.0680 C   0  0  0  0  0  0  0  0  0  0  0  0
   58.8160   26.4180   45.6060 C   0  0  0  0  0  0  0  0  0  0  0  0
   57.4450   26.4040   45.9120 C   0  0  0  0  0  0  0  0  0  0  0  0
   56.8200   25.2150   46.4310 N   0  0  0  0  0  0  0  0  0  0  0  0
   57.4330   24.4910   47.5460 C   0  0  0  0  0  0  0  0  0  0  0  0
   55.2970   24.6570   45.7980 S   0  0  0  0  0  0  0  0  0  0  0  0
   55.5560   23.8640   44.2270 C   0  0  0  0  0  0  0  0  0  0  0  0
   54.3710   25.8270   45.6230 O   0  0  0  0  0  0  0  0  0  0  0  0
   54.6660   23.6850   46.7540 O   0  0  0  0  0  0  0  0  0  0  0  0
   56.6810   27.5560   45.6660 C   0  0  0  0  0  0  0  0  0  0  0  0
   57.6130   33.4430   44.4770 C   0  0  0  0  0  0  0  0  0  0  0  0
   58.2660   34.4300   45.2180 C   0  0  0  0  0  0  0  0  0  0  0  0
   64.1468   32.6398   46.2596 H   0  0  0  0  0  0  0  0  0  0  0  0
   64.3246   33.3052   48.0360 H   0  0  0  0  0  0  0  0  0  0  0  0
   61.8397   33.3443   46.2151 H   0  0  0  0  0  0  0  0  0  0  0  0
   58.9231   35.8196   47.5451 H   0  0  0  0  0  0  0  0  0  0  0  0
   60.4123   35.7218   46.5486 H   0  0  0  0  0  0  0  0  0  0  0  0
   59.8246   32.4403   47.5233 H   0  0  0  0  0  0  0  0  0  0  0  0
   58.6749   30.6776   46.1880 H   0  0  0  0  0  0  0  0  0  0  0  0
   59.1073   29.5951   44.3814 H   0  0  0  0  0  0  0  0  0  0  0  0
   60.4864   27.5725   44.8515 H   0  0  0  0  0  0  0  0  0  0  0  0
   59.4268   25.5221   45.7911 H   0  0  0  0  0  0  0  0  0  0  0  0
   57.0761   24.9125   48.4973 H   0  0  0  0  0  0  0  0  0  0  0  0
   57.1563   23.4279   47.4892 H   0  0  0  0  0  0  0  0  0  0  0  0
   58.5272   24.5886   47.4892 H   0  0  0  0  0  0  0  0  0  0  0  0
   55.8938   22.8298   44.3896 H   0  0  0  0  0  0  0  0  0  0  0  0
   54.6134   23.8570   43.6600 H   0  0  0  0  0  0  0  0  0  0  0  0
   56.3210   24.4147   43.6600 H   0  0  0  0  0  0  0  0  0  0  0  0
   55.6155   27.5701   45.9388 H   0  0  0  0  0  0  0  0  0  0  0  0
   57.0045   33.7268   43.6056 H   0  0  0  0  0  0  0  0  0  0  0  0
   58.1529   35.4882   44.9399 H   0  0  0  0  0  0  0  0  0  0  0  0
  1  2  2  0
  2  3  1  0
  3  4  2  0
  3  5  1  0
  5  6  1  0
  6  7  1  0
  7  8  2  0
  8  9  1  0
  9 10  2  0
 10 11  1  0
 11 12  2  0
 11 13  1  0
 13 14  1  0
 14 15  2  0
 15 16  1  0
 16 17  2  0
 17 18  1  0
 18 19  1  0
 19 20  1  0
 19 21  1  0
 21 22  1  0
 21 23  2  0
 21 24  2  0
 18 25  2  0
 10 26  1  0
 26 27  2  0
 27  7  1  0
 25 14  1  0
  1 28  1  0
  1 29  1  0
  2 30  1  0
  6 31  1  0
  6 32  1  0
  8 33  1  0
  9 34  1  0
 15 35  1  0
 16 36  1  0
 17 37  1  0
 20 38  1  0
 20 39  1  0
 20 40  1  0
 22 41  1  0
 22 42  1  0
 22 43  1  0
 25 44  1  0
 26 45  1  0
 27 46  1  0
M  CHG  2   5  -1  13  -1
M  END
>  <UniqueID>  (82) 
76

>  <SMILES>  (82) 
C=CC(=O)[N-]Cc1ccc(C(=O)[N-]c2cccc(N(C)S(C)(=O)=O)c2)cc1

>  <Energy>  (82) 
47.35261848344501

>  <Genealogy>  (82) 
C=CC(=O)[N-]Cc1ccc(C(=O)[N-]c2cccc(N(C)S(C)(=O)=O)c2)cc1 (protonated)
C=CC(=O)[N-]Cc1ccc(C(=O)[N-]c2cccc(N(C)S(C)(=O)=O)c2)cc1 (3D coordinates assigned)
C=CC(=O)[N-]Cc1ccc(C(=O)[N-]c2cccc(N(C)S(C)(=O)=O)c2)cc1 (optimized conformer: 47.35261848344501 kcal/mol)

>  <smiles>  (82) 
C=CC(=O)NCc1ccc(C(=O)Nc2cccc(N(C)S(C)(=O)=O)c2)cc1

>  <score_type>  (82) 
oracle

>  <origin>  (82) 
adg

>  <m_score__min__energy>  (82) 
-11.4

>  <m_primary>  (82) 
energy

$$$$
83:0
     RDKit          3D

 26 27  0  0  1  0  0  0  0  0999 V2000
   56.2240   31.6580   44.7670 O   0  0  0  0  0  0  0  0  0  0  0  0
   57.7070   31.5030   44.9370 S   0  0  0  0  0  0  0  0  0  0  0  0
   58.3430   31.0720   43.6630 O   0  0  0  0  0  0  0  0  0  0  0  0
   57.9330   30.3420   46.2220 N   0  0  0  0  0  0  0  0  0  0  0  0
   58.1750   29.0450   45.6140 C   0  0  0  0  0  0  0  0  0  0  0  0
   56.8570   28.3720   45.4950 C   0  0  0  0  0  0  0  0  0  0  0  0
   55.7380   29.1510   45.2350 O   0  0  0  0  0  0  0  0  0  0  0  0
   56.8170   27.0910   45.6390 N   0  0  0  0  0  0  0  0  0  0  0  0
   55.6030   26.5160   45.9530 O   0  0  0  0  0  0  0  0  0  0  0  0
   58.4440   32.9890   45.4600 C   0  0  0  0  0  0  0  0  0  0  0  0
   58.7000   33.9660   44.5350 C   0  0  0  0  0  0  0  0  0  0  0  0
   59.2810   35.1510   44.9110 C   0  0  0  0  0  0  0  0  0  0  0  0
   59.5870   35.3080   46.2410 C   0  0  0  0  0  0  0  0  0  0  0  0
   59.3210   34.3010   47.1830 C   0  0  0  0  0  0  0  0  0  0  0  0
   59.6380   34.4730   48.5300 N   0  0  0  0  0  0  0  0  0  0  0  0
   59.1460   33.0170   49.2960 S   0  0  0  0  0  0  0  0  0  0  0  0
   58.5340   32.2370   47.7690 N   0  0  0  0  0  0  0  0  0  0  0  0
   58.7700   33.1720   46.8300 C   0  0  0  0  0  0  0  0  0  0  0  0
   58.7460   30.6770   46.7710 H   0  0  0  0  0  0  0  0  0  0  0  0
   58.6262   29.1720   44.6188 H   0  0  0  0  0  0  0  0  0  0  0  0
   58.8686   28.4475   46.2238 H   0  0  0  0  0  0  0  0  0  0  0  0
   55.7340   30.1060   45.6130 H   0  0  0  0  0  0  0  0  0  0  0  0
   54.7680   27.0860   45.9680 H   0  0  0  0  0  0  0  0  0  0  0  0
   58.4372   33.7991   43.4800 H   0  0  0  0  0  0  0  0  0  0  0  0
   59.4930   35.9428   44.1774 H   0  0  0  0  0  0  0  0  0  0  0  0
   60.0523   36.2465   46.5767 H   0  0  0  0  0  0  0  0  0  0  0  0
  1  2  2  0
  2  3  2  0
  2  4  1  0
  4  5  1  0
  5  6  1  0
  6  7  1  0
  6  8  2  0
  8  9  1  0
  2 10  1  0
 10 11  2  0
 11 12  1  0
 12 13  2  0
 13 14  1  0
 14 15  2  0
 15 16  1  0
 16 17  1  0
 17 18  2  0
 18 10  1  0
 18 14  1  0
  4 19  1  0
  5 20  1  0
  5 21  1  0
  7 22  1  0
  9 23  1  0
 11 24  1  0
 12 25  1  0
 13 26  1  0
M  END
>  <smiles>  (83) 
O=S(=O)(NCC(O)=NO)c1cccc2nsnc12

>  <score_type>  (83) 
oracle

>  <origin>  (83) 
adg

>  <m_score__min__energy>  (83) 
-8.2799999999999994

>  <m_primary>  (83) 
energy

$$$$
84:0
     RDKit          3D

 37 38  0  0  0  0  0  0  0  0999 V2000
   58.1540   29.2670   44.3110 C   0  0  0  0  0  0  0  0  0  0  0  0
   57.4110   30.4810   44.7790 C   0  0  0  0  0  0  0  0  0  0  0  0
   56.1540   30.4290   44.8580 O   0  0  0  0  0  0  0  0  0  0  0  0
   58.1370   31.7060   45.2100 C   0  0  0  0  0  0  0  0  0  0  0  0
   58.7650   31.7980   46.4110 C   0  0  0  0  0  0  0  0  0  0  0  0
   58.5660   30.7130   47.4480 C   0  0  0  0  0  0  0  0  0  0  0  0
   59.5530   32.9850   46.7140 N   0  0  0  0  0  0  0  0  0  0  0  0
   60.7580   32.9840   47.5800 C   0  0  0  0  0  0  0  0  0  0  0  0
   60.6920   34.0150   48.7300 C   0  0  0  0  0  0  0  0  0  0  0  0
   61.8890   33.8510   49.6860 C   0  0  0  0  0  0  0  0  0  0  0  0
   63.2140   33.5090   48.9650 C   0  0  0  0  0  0  0  0  0  0  0  0
   63.1790   33.8540   47.4700 C   0  0  0  0  0  0  0  0  0  0  0  0
   62.0620   33.0820   46.7470 C   0  0  0  0  0  0  0  0  0  0  0  0
   59.1820   34.2330   46.0880 C   0  0  0  0  0  0  0  0  0  0  0  0
   59.5740   35.3320   46.5690 O   0  0  0  0  0  0  0  0  0  0  0  0
   58.3110   34.2540   44.8710 C   0  0  0  0  0  0  0  0  0  0  0  0
   58.1490   32.8790   44.3100 C   0  0  0  0  0  0  0  0  0  0  0  0
   57.9560   32.7360   43.0720 O   0  0  0  0  0  0  0  0  0  0  0  0
   58.5049   28.6936   45.1817 H   0  0  0  0  0  0  0  0  0  0  0  0
   57.4852   28.6392   43.7039 H   0  0  0  0  0  0  0  0  0  0  0  0
   59.0173   29.5769   43.7039 H   0  0  0  0  0  0  0  0  0  0  0  0
   58.6460   31.1489   48.4548 H   0  0  0  0  0  0  0  0  0  0  0  0
   57.5703   30.2629   47.3213 H   0  0  0  0  0  0  0  0  0  0  0  0
   59.3371   29.9389   47.3213 H   0  0  0  0  0  0  0  0  0  0  0  0
   60.7763   32.0065   48.0842 H   0  0  0  0  0  0  0  0  0  0  0  0
   60.7070   35.0296   48.3052 H   0  0  0  0  0  0  0  0  0  0  0  0
   59.7643   33.8492   49.2974 H   0  0  0  0  0  0  0  0  0  0  0  0
   62.0259   34.7932   50.2369 H   0  0  0  0  0  0  0  0  0  0  0  0
   61.6568   33.0071   50.3523 H   0  0  0  0  0  0  0  0  0  0  0  0
   64.0291   34.0761   49.4383 H   0  0  0  0  0  0  0  0  0  0  0  0
   63.3703   32.4237   49.0527 H   0  0  0  0  0  0  0  0  0  0  0  0
   63.0016   34.9335   47.3549 H   0  0  0  0  0  0  0  0  0  0  0  0
   64.1437   33.5698   47.0242 H   0  0  0  0  0  0  0  0  0  0  0  0
   61.8361   33.5958   45.8010 H   0  0  0  0  0  0  0  0  0  0  0  0
   62.4245   32.0569   46.5804 H   0  0  0  0  0  0  0  0  0  0  0  0
   57.3219   34.6515   45.1424 H   0  0  0  0  0  0  0  0  0  0  0  0
   58.7845   34.8915   44.1098 H   0  0  0  0  0  0  0  0  0  0  0  0
  1  2  1  0
  2  3  2  0
  2  4  1  0
  4  5  2  0
  5  6  1  0
  5  7  1  0
  7  8  1  0
  8  9  1  0
  9 10  1  0
 10 11  1  0
 11 12  1  0
 12 13  1  0
  7 14  1  0
 14 15  2  0
 14 16  1  0
 16 17  1  0
 17 18  2  0
 17  4  1  0
 13  8  1  0
  1 19  1  0
  1 20  1  0
  1 21  1  0
  6 22  1  0
  6 23  1  0
  6 24  1  0
  8 25  1  0
  9 26  1  0
  9 27  1  0
 10 28  1  0
 10 29  1  0
 11 30  1  0
 11 31  1  0
 12 32  1  0
 12 33  1  0
 13 34  1  0
 13 35  1  0
 16 36  1  0
 16 37  1  0
M  END
>  <UniqueID>  (84) 
77

>  <SMILES>  (84) 
CC(=O)C1=C(C)N(C2CCCCC2)C(=O)CC1=O

>  <Energy>  (84) 
51.96844142941384

>  <Genealogy>  (84) 
CC(=O)C1=C(C)N(C2CCCCC2)C(=O)CC1=O (3D coordinates assigned)
CC(=O)C1=C(C)N(C2CCCCC2)C(=O)CC1=O (nonaromatic ring conformer: 51.96844142941384 kcal/mol)

>  <smiles>  (84) 
CC(=O)C1=C(C)N(C2CCCCC2)C(=O)CC1=O

>  <score_type>  (84) 
oracle

>  <origin>  (84) 
adg

>  <m_score__min__energy>  (84) 
-7.5

>  <m_primary>  (84) 
energy

$$$$
85:0
     RDKit          3D

 48 51  0  0  0  0  0  0  0  0999 V2000
   58.3690   32.3390   41.3800 C   0  0  0  0  0  0  0  0  0  0  0  0
   57.3360   32.1550   42.4120 N   0  0  0  0  0  0  0  0  0  0  0  0
   57.8090   32.7010   43.7060 C   0  0  0  0  0  0  0  0  0  0  0  0
   56.9850   32.1450   44.8740 C   0  0  0  0  0  0  0  0  0  0  0  0
   57.0670   30.6680   44.9580 N   0  0  0  0  0  0  0  0  0  0  0  0
   57.7340   30.1440   46.1740 C   0  0  0  0  0  0  0  0  0  0  0  0
   57.7160   28.6220   46.2890 C   0  0  0  0  0  0  0  0  0  0  0  0
   56.6500   27.8900   45.6980 C   0  0  0  0  0  0  0  0  0  0  0  0
   55.5190   28.5450   45.2210 O   0  0  0  0  0  0  0  0  0  0  0  0
   56.7220   26.4900   45.5610 C   0  0  0  0  0  0  0  0  0  0  0  0
   57.8420   25.7860   46.0160 C   0  0  0  0  0  0  0  0  0  0  0  0
   58.8410   26.4980   46.6660 C   0  0  0  0  0  0  0  0  0  0  0  0
   59.9270   25.9950   47.1980 O   0  0  0  0  0  0  0  0  0  0  0  0
   60.5860   26.9760   47.7750 C   0  0  0  0  0  0  0  0  0  0  0  0
   59.8990   28.1710   47.6170 C   0  0  0  0  0  0  0  0  0  0  0  0
   60.2150   29.3770   48.3940 C   0  0  0  0  0  0  0  0  0  0  0  0
   61.3010   29.4540   49.0260 O   0  0  0  0  0  0  0  0  0  0  0  0
   59.3050   30.4810   48.3770 N   0  0  0  0  0  0  0  0  0  0  0  0
   59.6010   31.7930   47.8750 C   0  0  0  0  0  0  0  0  0  0  0  0
   58.6440   32.8070   48.0280 C   0  0  0  0  0  0  0  0  0  0  0  0
   58.8910   34.0920   47.5300 C   0  0  0  0  0  0  0  0  0  0  0  0
   60.0820   34.3650   46.8540 C   0  0  0  0  0  0  0  0  0  0  0  0
   61.0260   33.3510   46.6670 C   0  0  0  0  0  0  0  0  0  0  0  0
   60.7870   32.0660   47.1650 C   0  0  0  0  0  0  0  0  0  0  0  0
   61.6820   31.0800   46.8990 F   0  0  0  0  0  0  0  0  0  0  0  0
   58.7730   27.8630   46.8530 C   0  0  0  0  0  0  0  0  0  0  0  0
   57.4790   30.0060   43.7010 C   0  0  0  0  0  0  0  0  0  0  0  0
   56.8900   30.7400   42.4880 C   0  0  0  0  0  0  0  0  0  0  0  0
   59.3423   32.5124   41.8623 H   0  0  0  0  0  0  0  0  0  0  0  0
   58.4259   31.4369   40.7532 H   0  0  0  0  0  0  0  0  0  0  0  0
   58.1109   33.2053   40.7532 H   0  0  0  0  0  0  0  0  0  0  0  0
   58.8645   32.4257   43.8478 H   0  0  0  0  0  0  0  0  0  0  0  0
   57.6940   33.7948   43.6867 H   0  0  0  0  0  0  0  0  0  0  0  0
   57.3640   32.5756   45.8126 H   0  0  0  0  0  0  0  0  0  0  0  0
   55.9325   32.4178   44.7073 H   0  0  0  0  0  0  0  0  0  0  0  0
   58.7823   30.4771   46.1635 H   0  0  0  0  0  0  0  0  0  0  0  0
   57.1726   30.5335   47.0360 H   0  0  0  0  0  0  0  0  0  0  0  0
   55.8896   25.9450   45.0918 H   0  0  0  0  0  0  0  0  0  0  0  0
   57.9286   24.7001   45.8632 H   0  0  0  0  0  0  0  0  0  0  0  0
   61.5430   26.8652   48.3059 H   0  0  0  0  0  0  0  0  0  0  0  0
   57.6953   32.5917   48.5415 H   0  0  0  0  0  0  0  0  0  0  0  0
   58.1453   34.8882   47.6715 H   0  0  0  0  0  0  0  0  0  0  0  0
   60.2772   35.3768   46.4691 H   0  0  0  0  0  0  0  0  0  0  0  0
   61.9599   33.5644   46.1264 H   0  0  0  0  0  0  0  0  0  0  0  0
   58.5767   30.0139   43.6308 H   0  0  0  0  0  0  0  0  0  0  0  0
   57.1065   28.9710   43.7056 H   0  0  0  0  0  0  0  0  0  0  0  0
   57.2069   30.2199   41.5720 H   0  0  0  0  0  0  0  0  0  0  0  0
   55.7951   30.7383   42.5936 H   0  0  0  0  0  0  0  0  0  0  0  0
  1  2  1  0
  2  3  1  0
  3  4  1  0
  4  5  1  0
  5  6  1  0
  6  7  1  0
  7  8  2  0
  8  9  1  0
  8 10  1  0
 10 11  2  0
 11 12  1  0
 12 13  1  0
 13 14  1  0
 14 15  2  0
 15 16  1  0
 16 17  2  0
 16 18  1  0
 18 19  1  0
 19 20  2  0
 20 21  1  0
 21 22  2  0
 22 23  1  0
 23 24  2  0
 24 25  1  0
 15 26  1  0
  5 27  1  0
 27 28  1  0
 28  2  1  0
 26  7  1  0
 26 12  2  0
 24 19  1  0
  1 29  1  0
  1 30  1  0
  1 31  1  0
  3 32  1  0
  3 33  1  0
  4 34  1  0
  4 35  1  0
  6 36  1  0
  6 37  1  0
 10 38  1  0
 11 39  1  0
 14 40  1  0
 20 41  1  0
 21 42  1  0
 22 43  1  0
 23 44  1  0
 27 45  1  0
 27 46  1  0
 28 47  1  0
 28 48  1  0
M  CHG  2   9  -1  18  -1
M  END
>  <UniqueID>  (85) 
78

>  <SMILES>  (85) 
CN1CCN(Cc2c([O-])ccc3occ(C(=O)[N-]c4ccccc4F)c23)CC1

>  <Energy>  (85) 
116.62700436771496

>  <Genealogy>  (85) 
CN1CCN(Cc2c([O-])ccc3occ(C(=O)[N-]c4ccccc4F)c23)CC1 (protonated)
CN1CCN(Cc2c([O-])ccc3occ(C(=O)[N-]c4ccccc4F)c23)CC1 (3D coordinates assigned)
CN1CCN(Cc2c([O-])ccc3occ(C(=O)[N-]c4ccccc4F)c23)CC1 (nonaromatic ring conformer: 116.62700436771496 kcal/mol)

>  <smiles>  (85) 
CN1CCN(Cc2c(O)ccc3occ(C(=O)Nc4ccccc4F)c23)CC1

>  <score_type>  (85) 
oracle

>  <origin>  (85) 
adg

>  <m_score__min__energy>  (85) 
-12.19

>  <m_primary>  (85) 
energy

$$$$
86:0
     RDKit          3D

 42 44  0  0  0  0  0  0  0  0999 V2000
   55.7250   27.1360   45.6720 O   0  0  0  0  0  0  0  0  0  0  0  0
   56.1840   28.2240   45.2330 C   0  0  0  0  0  0  0  0  0  0  0  0
   55.3020   29.2410   44.8880 O   0  0  0  0  0  0  0  0  0  0  0  0
   57.6440   28.4560   45.1640 C   0  0  0  0  0  0  0  0  0  0  0  0
   58.4730   27.3240   45.0690 C   0  0  0  0  0  0  0  0  0  0  0  0
   59.8500   27.4590   44.8920 C   0  0  0  0  0  0  0  0  0  0  0  0
   60.4180   28.7260   44.7980 C   0  0  0  0  0  0  0  0  0  0  0  0
   59.6190   29.8630   44.9140 C   0  0  0  0  0  0  0  0  0  0  0  0
   58.2310   29.7570   45.1460 C   0  0  0  0  0  0  0  0  0  0  0  0
   57.4060   31.0310   45.3540 C   0  0  0  0  0  0  0  0  0  0  0  0
   57.4330   31.9260   44.0880 C   0  0  0  0  0  0  0  0  0  0  0  0
   58.5290   33.0040   44.1190 C   0  0  0  0  0  0  0  0  0  0  0  0
   58.5530   33.7300   45.3980 N   0  0  0  0  0  0  0  0  0  0  0  0
   59.3020   34.9560   45.4970 C   0  0  0  0  0  0  0  0  0  0  0  0
   59.3290   35.7540   44.5230 O   0  0  0  0  0  0  0  0  0  0  0  0
   59.9930   35.3100   46.7000 N   0  0  0  0  0  0  0  0  0  0  0  0
   60.8560   34.4360   47.4410 C   0  0  0  0  0  0  0  0  0  0  0  0
   61.9590   33.8130   46.8310 C   0  0  0  0  0  0  0  0  0  0  0  0
   62.7860   32.9630   47.5720 C   0  0  0  0  0  0  0  0  0  0  0  0
   62.5300   32.7460   48.9280 C   0  0  0  0  0  0  0  0  0  0  0  0
   61.4510   33.3860   49.5470 C   0  0  0  0  0  0  0  0  0  0  0  0
   60.6210   34.2340   48.8080 C   0  0  0  0  0  0  0  0  0  0  0  0
   59.5750   34.8470   49.4180 F   0  0  0  0  0  0  0  0  0  0  0  0
   57.6870   33.3000   46.5040 C   0  0  0  0  0  0  0  0  0  0  0  0
   57.7740   31.7820   46.6660 C   0  0  0  0  0  0  0  0  0  0  0  0
   58.0299   26.3194   45.1351 H   0  0  0  0  0  0  0  0  0  0  0  0
   60.4867   26.5644   44.8267 H   0  0  0  0  0  0  0  0  0  0  0  0
   61.5003   28.8309   44.6317 H   0  0  0  0  0  0  0  0  0  0  0  0
   60.0780   30.8585   44.8232 H   0  0  0  0  0  0  0  0  0  0  0  0
   56.3581   30.7292   45.4981 H   0  0  0  0  0  0  0  0  0  0  0  0
   57.6021   31.2833   43.2114 H   0  0  0  0  0  0  0  0  0  0  0  0
   56.4668   32.4498   44.0428 H   0  0  0  0  0  0  0  0  0  0  0  0
   59.5057   32.5217   43.9662 H   0  0  0  0  0  0  0  0  0  0  0  0
   58.3139   33.7297   43.3208 H   0  0  0  0  0  0  0  0  0  0  0  0
   62.1721   33.9948   45.7673 H   0  0  0  0  0  0  0  0  0  0  0  0
   63.6385   32.4650   47.0869 H   0  0  0  0  0  0  0  0  0  0  0  0
   63.1767   32.0720   49.5089 H   0  0  0  0  0  0  0  0  0  0  0  0
   61.2554   33.2217   50.6169 H   0  0  0  0  0  0  0  0  0  0  0  0
   58.0139   33.7865   47.4349 H   0  0  0  0  0  0  0  0  0  0  0  0
   56.6473   33.5841   46.2844 H   0  0  0  0  0  0  0  0  0  0  0  0
   58.8020   31.5142   46.9515 H   0  0  0  0  0  0  0  0  0  0  0  0
   57.0534   31.4824   47.4412 H   0  0  0  0  0  0  0  0  0  0  0  0
  1  2  2  0
  2  3  1  0
  2  4  1  0
  4  5  2  0
  5  6  1  0
  6  7  2  0
  7  8  1  0
  8  9  2  0
  9 10  1  0
 10 11  1  0
 11 12  1  0
 12 13  1  0
 13 14  1  0
 14 15  2  0
 14 16  1  0
 16 17  1  0
 17 18  2  0
 18 19  1  0
 19 20  2  0
 20 21  1  0
 21 22  2  0
 22 23  1  0
 13 24  1  0
 24 25  1  0
  9  4  1  0
 25 10  1  0
 22 17  1  0
  5 26  1  0
  6 27  1  0
  7 28  1  0
  8 29  1  0
 10 30  1  0
 11 31  1  0
 11 32  1  0
 12 33  1  0
 12 34  1  0
 18 35  1  0
 19 36  1  0
 20 37  1  0
 21 38  1  0
 24 39  1  0
 24 40  1  0
 25 41  1  0
 25 42  1  0
M  CHG  2   3  -1  16  -1
M  END
>  <UniqueID>  (86) 
79

>  <SMILES>  (86) 
O=C([O-])c1ccccc1C1CCN(C(=O)[N-]c2ccccc2F)CC1

>  <Energy>  (86) 
60.75435892543528

>  <Genealogy>  (86) 
O=C([O-])c1ccccc1C1CCN(C(=O)[N-]c2ccccc2F)CC1 (protonated)
O=C([O-])c1ccccc1C1CCN(C(=O)[N-]c2ccccc2F)CC1 (3D coordinates assigned)
O=C([O-])c1ccccc1C1CCN(C(=O)[N-]c2ccccc2F)CC1 (nonaromatic ring conformer: 60.75435892543528 kcal/mol)

>  <smiles>  (86) 
O=C(O)c1ccccc1C1CCN(C(=O)Nc2ccccc2F)CC1

>  <score_type>  (86) 
oracle

>  <origin>  (86) 
adg

>  <m_score__min__energy>  (86) 
-11.630000000000001

>  <m_primary>  (86) 
energy

$$$$
87:0
     RDKit          3D

 54 56  0  0  0  0  0  0  0  0999 V2000
   63.7180   33.8240   47.4550 C   0  0  0  0  0  0  0  0  0  0  0  0
   62.6240   33.7160   48.4830 C   0  0  0  0  0  0  0  0  0  0  0  0
   62.9620   33.8030   49.8430 C   0  0  0  0  0  0  0  0  0  0  0  0
   61.9830   33.6610   50.8280 C   0  0  0  0  0  0  0  0  0  0  0  0
   60.6480   33.4360   50.4700 C   0  0  0  0  0  0  0  0  0  0  0  0
   59.4130   33.2520   51.7190 S   0  0  0  0  0  0  0  0  0  0  0  0
   58.9000   34.6100   52.1110 O   0  0  0  0  0  0  0  0  0  0  0  0
   60.0290   32.6200   52.9360 O   0  0  0  0  0  0  0  0  0  0  0  0
   58.0750   32.2710   51.1660 N   0  0  0  0  0  0  0  0  0  0  0  0
   57.0600   32.1440   52.2280 C   0  0  0  0  0  0  0  0  0  0  0  0
   56.1690   30.9170   51.9800 C   0  0  0  0  0  0  0  0  0  0  0  0
   56.8770   29.6840   51.9630 O   0  0  0  0  0  0  0  0  0  0  0  0
   58.2530   29.8160   51.6310 C   0  0  0  0  0  0  0  0  0  0  0  0
   58.5330   30.9650   50.6430 C   0  0  0  0  0  0  0  0  0  0  0  0
   60.3010   33.3620   49.1160 C   0  0  0  0  0  0  0  0  0  0  0  0
   61.2700   33.5320   48.1180 C   0  0  0  0  0  0  0  0  0  0  0  0
   60.8630   33.4590   46.7440 N   0  0  0  0  0  0  0  0  0  0  0  0
   59.7880   34.2490   46.2140 C   0  0  0  0  0  0  0  0  0  0  0  0
   59.1300   35.0210   46.9630 O   0  0  0  0  0  0  0  0  0  0  0  0
   59.4080   34.1200   44.7750 C   0  0  0  0  0  0  0  0  0  0  0  0
   57.7500   33.4820   44.6080 S   0  0  0  0  0  0  0  0  0  0  0  0
   56.6240   34.2150   45.6180 O   0  0  0  0  0  0  0  0  0  0  0  0
   57.5900   31.7290   44.4640 C   0  0  0  0  0  0  0  0  0  0  0  0
   57.0440   31.2260   43.2750 C   0  0  0  0  0  0  0  0  0  0  0  0
   56.9000   29.8500   43.0850 C   0  0  0  0  0  0  0  0  0  0  0  0
   57.2850   28.9630   44.0890 C   0  0  0  0  0  0  0  0  0  0  0  0
   57.8160   29.4490   45.2850 C   0  0  0  0  0  0  0  0  0  0  0  0
   57.9910   30.8300   45.4830 C   0  0  0  0  0  0  0  0  0  0  0  0
   58.5300   31.3110   46.8030 C   0  0  0  0  0  0  0  0  0  0  0  0
   64.6894   33.9199   47.9621 H   0  0  0  0  0  0  0  0  0  0  0  0
   63.7203   32.9217   46.8258 H   0  0  0  0  0  0  0  0  0  0  0  0
   63.5438   34.7093   46.8258 H   0  0  0  0  0  0  0  0  0  0  0  0
   64.0069   33.9846   50.1348 H   0  0  0  0  0  0  0  0  0  0  0  0
   62.2615   33.7261   51.8902 H   0  0  0  0  0  0  0  0  0  0  0  0
   57.5647   32.0340   53.1992 H   0  0  0  0  0  0  0  0  0  0  0  0
   56.4302   33.0459   52.2266 H   0  0  0  0  0  0  0  0  0  0  0  0
   55.4130   30.8712   52.7778 H   0  0  0  0  0  0  0  0  0  0  0  0
   55.7235   31.0428   50.9822 H   0  0  0  0  0  0  0  0  0  0  0  0
   58.8189   30.0043   52.5553 H   0  0  0  0  0  0  0  0  0  0  0  0
   58.5613   28.8811   51.1401 H   0  0  0  0  0  0  0  0  0  0  0  0
   59.6159   31.0172   50.4569 H   0  0  0  0  0  0  0  0  0  0  0  0
   57.9789   30.7577   49.7156 H   0  0  0  0  0  0  0  0  0  0  0  0
   59.2561   33.1682   48.8321 H   0  0  0  0  0  0  0  0  0  0  0  0
   61.2350   32.6740   46.1640 H   0  0  0  0  0  0  0  0  0  0  0  0
   59.4626   35.1097   44.2981 H   0  0  0  0  0  0  0  0  0  0  0  0
   60.1041   33.4202   44.2894 H   0  0  0  0  0  0  0  0  0  0  0  0
   57.1180   34.4140   46.4530 H   0  0  0  0  0  0  0  0  0  0  0  0
   56.7260   31.9215   42.4843 H   0  0  0  0  0  0  0  0  0  0  0  0
   56.4825   29.4659   42.1426 H   0  0  0  0  0  0  0  0  0  0  0  0
   57.1703   27.8794   43.9387 H   0  0  0  0  0  0  0  0  0  0  0  0
   58.1004   28.7445   46.0805 H   0  0  0  0  0  0  0  0  0  0  0  0
   57.9826   30.8225   47.6225 H   0  0  0  0  0  0  0  0  0  0  0  0
   59.5987   31.0610   46.8757 H   0  0  0  0  0  0  0  0  0  0  0  0
   58.4027   32.4012   46.8757 H   0  0  0  0  0  0  0  0  0  0  0  0
  1  2  1  0
  2  3  2  0
  3  4  1  0
  4  5  2  0
  5  6  1  0
  6  7  2  0
  6  8  2  0
  6  9  1  0
  9 10  1  0
 10 11  1  0
 11 12  1  0
 12 13  1  0
 13 14  1  0
  5 15  1  0
 15 16  2  0
 16 17  1  0
 17 18  1  0
 18 19  2  0
 18 20  1  0
 20 21  1  0
 21 22  1  1
 21 23  1  0
 23 24  2  0
 24 25  1  0
 25 26  2  0
 26 27  1  0
 27 28  2  0
 28 29  1  0
 16  2  1  0
 28 23  1  0
 14  9  1  0
  1 30  1  0
  1 31  1  0
  1 32  1  0
  3 33  1  0
  4 34  1  0
 10 35  1  0
 10 36  1  0
 11 37  1  0
 11 38  1  0
 13 39  1  0
 13 40  1  0
 14 41  1  0
 14 42  1  0
 15 43  1  0
 17 44  1  0
 20 45  1  0
 20 46  1  0
 22 47  1  0
 24 48  1  0
 25 49  1  0
 26 50  1  0
 27 51  1  0
 29 52  1  0
 29 53  1  0
 29 54  1  0
M  CHG  1  21   1
M  END
>  <UniqueID>  (87) 
80

>  <SMILES>  (87) 
Cc1ccc(S(=O)(=O)N2CCOCC2)cc1NC(=O)C[S@+](O)c1ccccc1C

>  <Energy>  (87) 
64.64105814823154

>  <Genealogy>  (87) 
Cc1ccc(S(=O)(=O)N2CCOCC2)cc1NC(=O)C[S+](O)c1ccccc1C (protonated)
Cc1ccc(S(=O)(=O)N2CCOCC2)cc1NC(=O)C[S@+](O)c1ccccc1C (chirality)
Cc1ccc(S(=O)(=O)N2CCOCC2)cc1NC(=O)C[S@+](O)c1ccccc1C (3D coordinates assigned)
Cc1ccc(S(=O)(=O)N2CCOCC2)cc1NC(=O)C[S@+](O)c1ccccc1C (nonaromatic ring conformer: 64.64105814823154 kcal/mol)

>  <smiles>  (87) 
Cc1ccc(S(=O)(=O)N2CCOCC2)cc1NC(=O)C[S+]([O-])c1ccccc1C

>  <score_type>  (87) 
oracle

>  <origin>  (87) 
adg

>  <m_score__min__energy>  (87) 
-8.3100000000000005

>  <m_primary>  (87) 
energy

$$$$
88:0
     RDKit          3D

 55 58  0  0  0  0  0  0  0  0999 V2000
   56.9820   22.6070   47.4530 C   0  0  0  0  0  0  0  0  0  0  0  0
   56.0910   23.6040   46.7910 C   0  0  0  0  0  0  0  0  0  0  0  0
   54.8880   23.1670   46.3340 N   0  0  0  0  0  0  0  0  0  0  0  0
   55.5380   25.7570   46.0370 C   0  0  0  0  0  0  0  0  0  0  0  0
   52.5700   23.3920   45.2150 S   0  0  0  0  0  0  0  0  0  0  0  0
   54.3490   25.2780   45.5960 N   0  0  0  0  0  0  0  0  0  0  0  0
   53.9960   23.9810   45.7310 C   0  0  0  0  0  0  0  0  0  0  0  0
   55.8620   27.0190   45.8790 N   0  0  0  0  0  0  0  0  0  0  0  0
   56.4680   24.9470   46.6570 C   0  0  0  0  0  0  0  0  0  0  0  0
   57.7690   25.4050   47.1490 C   0  0  0  0  0  0  0  0  0  0  0  0
   57.9610   26.8240   47.2220 N   0  0  0  0  0  0  0  0  0  0  0  0
   59.0460   27.4280   47.8660 C   0  0  0  0  0  0  0  0  0  0  0  0
   59.9130   26.6870   48.4060 O   0  0  0  0  0  0  0  0  0  0  0  0
   59.2660   28.8650   47.9800 C   0  0  0  0  0  0  0  0  0  0  0  0
   59.9990   29.6040   48.8750 C   0  0  0  0  0  0  0  0  0  0  0  0
   59.9210   30.9240   48.6380 N   0  0  0  0  0  0  0  0  0  0  0  0
   60.5390   32.0320   49.2380 C   0  0  0  0  0  0  0  0  0  0  0  0
   59.9370   32.4540   50.3240 O   0  0  0  0  0  0  0  0  0  0  0  0
   61.6640   32.7840   48.9170 N   0  0  0  0  0  0  0  0  0  0  0  0
   62.8630   33.0640   49.6510 C   0  0  0  0  0  0  0  0  0  0  0  0
   64.0280   32.3430   48.9220 C   0  0  0  0  0  0  0  0  0  0  0  0
   64.0290   32.6960   47.5250 N   0  0  0  0  0  0  0  0  0  0  0  0
   62.9430   33.4460   46.9980 C   0  0  0  0  0  0  0  0  0  0  0  0
   63.1690   34.1180   45.9390 O   0  0  0  0  0  0  0  0  0  0  0  0
   61.6000   33.4850   47.5990 C   0  0  0  0  0  0  0  0  0  0  0  0
   59.0960   31.0140   47.5340 C   0  0  0  0  0  0  0  0  0  0  0  0
   58.6520   32.0830   46.7710 C   0  0  0  0  0  0  0  0  0  0  0  0
   57.8460   31.9160   45.6530 C   0  0  0  0  0  0  0  0  0  0  0  0
   57.4530   30.6630   45.2650 C   0  0  0  0  0  0  0  0  0  0  0  0
   56.6560   30.4500   44.0640 C   0  0  0  0  0  0  0  0  0  0  0  0
   56.8700   31.2130   43.0960 O   0  0  0  0  0  0  0  0  0  0  0  0
   55.6980   29.4830   43.9220 O   0  0  0  0  0  0  0  0  0  0  0  0
   57.9030   29.6080   46.0390 C   0  0  0  0  0  0  0  0  0  0  0  0
   58.6960   29.7750   47.1290 C   0  0  0  0  0  0  0  0  0  0  0  0
   56.8943   22.7051   48.5451 H   0  0  0  0  0  0  0  0  0  0  0  0
   56.6846   21.5919   47.1510 H   0  0  0  0  0  0  0  0  0  0  0  0
   58.0240   22.7889   47.1510 H   0  0  0  0  0  0  0  0  0  0  0  0
   54.6320   22.1840   46.4440 H   0  0  0  0  0  0  0  0  0  0  0  0
   53.6560   25.8940   45.1340 H   0  0  0  0  0  0  0  0  0  0  0  0
   55.1770   27.5500   45.2590 H   0  0  0  0  0  0  0  0  0  0  0  0
   57.9065   24.9965   48.1610 H   0  0  0  0  0  0  0  0  0  0  0  0
   58.5019   25.0493   46.4098 H   0  0  0  0  0  0  0  0  0  0  0  0
   57.2260   27.4340   46.7530 H   0  0  0  0  0  0  0  0  0  0  0  0
   60.5852   29.1641   49.6953 H   0  0  0  0  0  0  0  0  0  0  0  0
   63.0464   34.1484   49.6733 H   0  0  0  0  0  0  0  0  0  0  0  0
   62.7756   32.7120   50.6895 H   0  0  0  0  0  0  0  0  0  0  0  0
   64.9838   32.6455   49.3748 H   0  0  0  0  0  0  0  0  0  0  0  0
   63.8966   31.2552   49.0194 H   0  0  0  0  0  0  0  0  0  0  0  0
   64.8400   32.3820   46.9550 H   0  0  0  0  0  0  0  0  0  0  0  0
   61.2870   34.5292   47.7463 H   0  0  0  0  0  0  0  0  0  0  0  0
   60.8712   32.9921   46.9388 H   0  0  0  0  0  0  0  0  0  0  0  0
   58.9493   33.1012   47.0622 H   0  0  0  0  0  0  0  0  0  0  0  0
   57.5215   32.7945   45.0761 H   0  0  0  0  0  0  0  0  0  0  0  0
   55.8960   28.5210   44.0930 H   0  0  0  0  0  0  0  0  0  0  0  0
   57.6048   28.5870   45.7586 H   0  0  0  0  0  0  0  0  0  0  0  0
  1  2  1  0
  2  3  1  0
  3  4  1  0
  4  5  2  0
  4  6  1  0
  6  7  1  0
  7  8  2  3
  7  9  1  0
  9 10  1  0
 10 11  1  0
 11 12  1  0
 12 13  2  0
 12 14  1  0
 14 15  2  0
 15 16  1  0
 16 17  1  0
 17 18  2  0
 17 19  1  0
 19 20  1  0
 20 21  1  0
 21 22  1  0
 22 23  1  0
 23 24  2  0
 23 25  1  0
 16 26  1  0
 26 27  2  0
 27 28  1  0
 28 29  2  0
 29 30  1  0
 30 31  2  0
 30 32  1  0
 29 33  1  0
 33 34  2  0
  9  2  2  0
 34 14  1  0
 25 19  1  0
 34 26  1  0
  1 35  1  0
  1 36  1  0
  1 37  1  0
  3 38  1  0
  6 39  1  0
  8 40  1  0
 10 41  1  0
 10 42  1  0
 11 43  1  0
 15 44  1  0
 20 45  1  0
 20 46  1  0
 21 47  1  0
 21 48  1  0
 22 49  1  0
 25 50  1  0
 25 51  1  0
 27 52  1  0
 28 53  1  0
 32 54  1  0
 33 55  1  0
M  END
>  <smiles>  (88) 
Cc1[nH]c(=S)[nH]c(=N)c1CNC(=O)c1cn(C(=O)N2CCNC(=O)C2)c2ccc(C(=O)O)cc12

>  <score_type>  (88) 
oracle

>  <origin>  (88) 
adg

>  <m_score__min__energy>  (88) 
-9.2100000000000009

>  <m_primary>  (88) 
energy

$$$$
89:0
     RDKit          3D

 45 48  0  0  0  0  0  0  0  0999 V2000
   57.7375   24.7626   46.4596 H   0  0  0  0  0  0  0  0  0  0  0  0
   57.7610   25.8450   46.2650 C   0  0  0  0  0  0  0  0  0  0  0  0
   58.9160   26.5340   46.4320 N   0  0  0  0  0  0  0  0  0  0  0  0
   58.9780   27.8700   46.1990 C   0  0  0  0  0  0  0  0  0  0  0  0
   60.0780   28.5420   46.3760 N   0  0  0  0  0  0  0  0  0  0  0  0
   60.2360   29.9660   46.4980 C   0  0  0  0  0  0  0  0  0  0  0  0
   61.3530   30.6670   46.9320 C   0  0  0  0  0  0  0  0  0  0  0  0
   62.3062   30.2601   47.3006 H   0  0  0  0  0  0  0  0  0  0  0  0
   60.9910   31.9960   46.7940 C   0  0  0  0  0  0  0  0  0  0  0  0
   61.8540   33.1380   47.1360 C   0  0  0  0  0  0  0  0  0  0  0  0
   61.5330   34.2930   46.7530 O   0  0  0  0  0  0  0  0  0  0  0  0
   63.0090   32.9670   47.9580 N   0  0  0  0  0  0  0  0  0  0  0  0
   64.0790   33.8300   48.4890 C   0  0  0  0  0  0  0  0  0  0  0  0
   64.7754   34.1713   47.7089 H   0  0  0  0  0  0  0  0  0  0  0  0
   63.7730   34.7810   48.9494 H   0  0  0  0  0  0  0  0  0  0  0  0
   64.6810   32.8020   49.3890 C   0  0  0  0  0  0  0  0  0  0  0  0
   65.7050   32.4902   49.1355 H   0  0  0  0  0  0  0  0  0  0  0  0
   64.8622   32.9561   50.4630 H   0  0  0  0  0  0  0  0  0  0  0  0
   63.5920   31.9410   48.8430 C   0  0  0  0  0  0  0  0  0  0  0  0
   63.9757   31.0713   48.2894 H   0  0  0  0  0  0  0  0  0  0  0  0
   62.9176   31.4654   49.5703 H   0  0  0  0  0  0  0  0  0  0  0  0
   59.7250   32.0640   46.3220 N   0  0  0  0  0  0  0  0  0  0  0  0
   58.9050   33.2540   46.1120 C   0  0  0  0  0  0  0  0  0  0  0  0
   58.6145   33.6756   47.0856 H   0  0  0  0  0  0  0  0  0  0  0  0
   59.4810   34.0010   45.5461 H   0  0  0  0  0  0  0  0  0  0  0  0
   58.0019   32.9818   45.5461 H   0  0  0  0  0  0  0  0  0  0  0  0
   59.2780   30.8330   46.1290 N   0  0  0  0  0  0  0  0  0  0  0  0
   58.3290   30.5910   45.7670 H   0  0  0  0  0  0  0  0  0  0  0  0
   57.8610   28.5280   45.7970 N   0  0  0  0  0  0  0  0  0  0  0  0
   56.6730   27.8970   45.6020 C   0  0  0  0  0  0  0  0  0  0  0  0
   55.5980   28.7000   45.1720 O   0  0  0  0  0  0  0  0  0  0  0  0
   55.5840   29.6340   44.0930 C   0  0  0  0  0  0  0  0  0  0  0  0
   54.5224   29.6403   43.8051 H   0  0  0  0  0  0  0  0  0  0  0  0
   56.3150   30.9150   44.4760 C   0  0  0  0  0  0  0  0  0  0  0  0
   55.7434   31.8339   44.2790 H   0  0  0  0  0  0  0  0  0  0  0  0
   56.5926   31.1049   45.5233 H   0  0  0  0  0  0  0  0  0  0  0  0
   57.3870   30.6160   43.4380 C   0  0  0  0  0  0  0  0  0  0  0  0
   57.4499   31.3605   42.6306 H   0  0  0  0  0  0  0  0  0  0  0  0
   58.4477   30.5843   43.7277 H   0  0  0  0  0  0  0  0  0  0  0  0
   56.6580   29.3390   43.0490 C   0  0  0  0  0  0  0  0  0  0  0  0
   56.2874   29.3312   42.0133 H   0  0  0  0  0  0  0  0  0  0  0  0
   57.1860   28.3740   43.0508 H   0  0  0  0  0  0  0  0  0  0  0  0
   56.5990   26.5010   45.8470 C   0  0  0  0  0  0  0  0  0  0  0  0
   55.3950   25.7200   45.7270 C   0  0  0  0  0  0  0  0  0  0  0  0
   54.4210   25.1040   45.6230 N   0  0  0  0  0  0  0  0  0  0  0  0
  1  2  1  0
  2  3  1  0
  3  4  1  0
  4  5  2  0
  5  6  1  0
  6  7  1  0
  7  8  1  0
  7  9  2  0
  9 10  1  0
 10 11  2  0
 10 12  1  0
 12 13  1  0
 13 14  1  0
 13 15  1  0
 13 16  1  0
 16 17  1  0
 16 18  1  0
 16 19  1  0
 19 20  1  0
 19 21  1  0
  9 22  1  0
 22 23  1  0
 23 24  1  0
 23 25  1  0
 23 26  1  0
 22 27  1  0
 27 28  1  0
  4 29  1  0
 29 30  2  0
 30 31  1  0
 31 32  1  0
 32 33  1  0
 32 34  1  0
 34 35  1  0
 34 36  1  0
 34 37  1  0
 37 38  1  0
 37 39  1  0
 37 40  1  0
 40 41  1  0
 40 42  1  0
 30 43  1  0
 43 44  1  0
 44 45  3  0
 43  2  2  0
 27  6  2  0
 40 32  1  0
 19 12  1  0
M  CHG  2   3  -1  27   1
M  END
>  <UniqueID>  (89) 
81

>  <SMILES>  (89) 
Cn1[nH+]c(/N=c2/nc(OC3CCC3)c(C#N)c[n-]2)cc1C(=O)N1CCC1

>  <Energy>  (89) 
194.3144057923155

>  <Genealogy>  (89) 
Cn1[nH+]c(N=c2nc(OC3CCC3)c(C#N)c[n-]2)cc1C(=O)N1CCC1 (protonated)
Cn1[nH+]c(/N=c2/nc(OC3CCC3)c(C#N)c[n-]2)cc1C(=O)N1CCC1 (cis-trans isomerization)
Cn1[nH+]c(/N=c2/nc(OC3CCC3)c(C#N)c[n-]2)cc1C(=O)N1CCC1 (3D coordinates assigned)
Cn1[nH+]c(/N=c2/nc(OC3CCC3)c(C#N)c[n-]2)cc1C(=O)N1CCC1 (nonaromatic ring conformer: 194.3144057923155 kcal/mol)

>  <smiles>  (89) 
Cn1nc(N=c2nc(OC3CCC3)c(C#N)c[nH]2)cc1C(=O)N1CCC1

>  <score_type>  (89) 
oracle

>  <origin>  (89) 
adg

>  <m_score__min__energy>  (89) 
-7.0899999999999999

>  <m_primary>  (89) 
energy

$$$$
90:0
     RDKit          3D

 55 57  0  0  0  0  0  0  0  0999 V2000
   57.4920   32.3380   41.1150 C   0  0  0  0  0  0  0  0  0  0  0  0
   57.7720   31.8930   42.5490 C   0  0  0  0  0  0  0  0  0  0  0  0
   56.8510   30.7290   42.9320 C   0  0  0  0  0  0  0  0  0  0  0  0
   57.5570   33.0040   43.4230 O   0  0  0  0  0  0  0  0  0  0  0  0
   58.1250   33.1690   44.6970 C   0  0  0  0  0  0  0  0  0  0  0  0
   58.9390   34.2680   45.0370 C   0  0  0  0  0  0  0  0  0  0  0  0
   59.4760   34.3780   46.3220 C   0  0  0  0  0  0  0  0  0  0  0  0
   59.2100   33.3970   47.2850 C   0  0  0  0  0  0  0  0  0  0  0  0
   59.8630   33.5420   48.9150 S   0  0  0  0  0  0  0  0  0  0  0  0
   59.6660   34.9560   49.3890 O   0  0  0  0  0  0  0  0  0  0  0  0
   59.1140   32.6170   49.8360 O   0  0  0  0  0  0  0  0  0  0  0  0
   61.5660   33.1440   48.8960 N   0  0  2  0  0  0  0  0  0  0  0  0
   62.1890   33.6200   47.6520 C   0  0  0  0  0  0  0  0  0  0  0  0
   61.8170   31.7060   49.1560 C   0  0  0  0  0  0  0  0  0  0  0  0
   61.0600   30.7630   48.2420 C   0  0  0  0  0  0  0  0  0  0  0  0
   60.0080   29.9800   48.7410 C   0  0  0  0  0  0  0  0  0  0  0  0
   59.3070   29.1120   47.8980 C   0  0  0  0  0  0  0  0  0  0  0  0
   59.6290   29.0230   46.5290 C   0  0  0  0  0  0  0  0  0  0  0  0
   58.8990   28.0990   45.6170 C   0  0  0  0  0  0  0  0  0  0  0  0
   58.1550   27.0740   46.0110 C   0  0  0  0  0  0  0  0  0  0  0  0
   57.5390   26.3450   44.8770 C   0  0  0  0  0  0  0  0  0  0  0  0
   58.1320   27.0030   43.6330 C   0  0  0  0  0  0  0  0  0  0  0  0
   58.8820   28.2400   44.1320 C   0  0  0  0  0  0  0  0  0  0  0  0
   60.6780   29.8200   46.0330 C   0  0  0  0  0  0  0  0  0  0  0  0
   61.3780   30.6860   46.8780 C   0  0  0  0  0  0  0  0  0  0  0  0
   58.3910   32.3090   46.9550 C   0  0  0  0  0  0  0  0  0  0  0  0
   57.8550   32.1970   45.6690 C   0  0  0  0  0  0  0  0  0  0  0  0
   56.9062   33.2690   41.1277 H   0  0  0  0  0  0  0  0  0  0  0  0
   58.4442   32.5111   40.5922 H   0  0  0  0  0  0  0  0  0  0  0  0
   56.9239   31.5544   40.5922 H   0  0  0  0  0  0  0  0  0  0  0  0
   58.8131   31.5487   42.6356 H   0  0  0  0  0  0  0  0  0  0  0  0
   56.7915   30.6538   44.0278 H   0  0  0  0  0  0  0  0  0  0  0  0
   55.8460   30.9063   42.5215 H   0  0  0  0  0  0  0  0  0  0  0  0
   57.2546   29.7917   42.5215 H   0  0  0  0  0  0  0  0  0  0  0  0
   59.1527   35.0434   44.2866 H   0  0  0  0  0  0  0  0  0  0  0  0
   60.1106   35.2391   46.5784 H   0  0  0  0  0  0  0  0  0  0  0  0
   62.0030   33.6770   49.6840 H   0  0  0  0  0  0  0  0  0  0  0  0
   63.0415   34.2714   47.8948 H   0  0  0  0  0  0  0  0  0  0  0  0
   62.5410   32.7587   47.0653 H   0  0  0  0  0  0  0  0  0  0  0  0
   61.4505   34.1860   47.0653 H   0  0  0  0  0  0  0  0  0  0  0  0
   62.8933   31.5165   49.0307 H   0  0  0  0  0  0  0  0  0  0  0  0
   61.4623   31.5051   50.1777 H   0  0  0  0  0  0  0  0  0  0  0  0
   59.7325   30.0495   49.8037 H   0  0  0  0  0  0  0  0  0  0  0  0
   58.4958   28.4923   48.3078 H   0  0  0  0  0  0  0  0  0  0  0  0
   58.0108   26.7952   47.0653 H   0  0  0  0  0  0  0  0  0  0  0  0
   57.7996   25.2769   44.9137 H   0  0  0  0  0  0  0  0  0  0  0  0
   56.4403   26.3959   44.8940 H   0  0  0  0  0  0  0  0  0  0  0  0
   58.8243   26.3132   43.1281 H   0  0  0  0  0  0  0  0  0  0  0  0
   57.3514   27.2694   42.9052 H   0  0  0  0  0  0  0  0  0  0  0  0
   59.9067   28.2598   43.7325 H   0  0  0  0  0  0  0  0  0  0  0  0
   58.4031   29.1759   43.8082 H   0  0  0  0  0  0  0  0  0  0  0  0
   60.9498   29.7607   44.9688 H   0  0  0  0  0  0  0  0  0  0  0  0
   62.1849   31.3123   46.4699 H   0  0  0  0  0  0  0  0  0  0  0  0
   58.1692   31.5407   47.7103 H   0  0  0  0  0  0  0  0  0  0  0  0
   57.2155   31.3380   45.4179 H   0  0  0  0  0  0  0  0  0  0  0  0
  1  2  1  0
  2  3  1  0
  2  4  1  0
  4  5  1  0
  5  6  2  0
  6  7  1  0
  7  8  2  0
  8  9  1  0
  9 10  2  0
  9 11  2  0
  9 12  1  0
 12 13  1  0
 12 14  1  0
 14 15  1  0
 15 16  2  0
 16 17  1  0
 17 18  2  0
 18 19  1  0
 19 20  2  0
 20 21  1  0
 21 22  1  0
 22 23  1  0
 18 24  1  0
 24 25  2  0
  8 26  1  0
 26 27  2  0
 27  5  1  0
 25 15  1  0
 23 19  1  0
  1 28  1  0
  1 29  1  0
  1 30  1  0
  2 31  1  0
  3 32  1  0
  3 33  1  0
  3 34  1  0
  6 35  1  0
  7 36  1  0
 12 37  1  1
 13 38  1  0
 13 39  1  0
 13 40  1  0
 14 41  1  0
 14 42  1  0
 16 43  1  0
 17 44  1  0
 20 45  1  0
 21 46  1  0
 21 47  1  0
 22 48  1  0
 22 49  1  0
 23 50  1  0
 23 51  1  0
 24 52  1  0
 25 53  1  0
 26 54  1  0
 27 55  1  0
M  CHG  1  12   1
M  END
>  <UniqueID>  (90) 
82

>  <SMILES>  (90) 
CC(C)Oc1ccc(S(=O)(=O)[N@H+](C)Cc2ccc(C3=CCCC3)cc2)cc1

>  <Energy>  (90) 
59.10404000808838

>  <Genealogy>  (90) 
CC(C)Oc1ccc(S(=O)(=O)[NH+](C)Cc2ccc(C3=CCCC3)cc2)cc1 (protonated)
CC(C)Oc1ccc(S(=O)(=O)[N@H+](C)Cc2ccc(C3=CCCC3)cc2)cc1 (chirality)
CC(C)Oc1ccc(S(=O)(=O)[N@H+](C)Cc2ccc(C3=CCCC3)cc2)cc1 (3D coordinates assigned)
CC(C)Oc1ccc(S(=O)(=O)[N@H+](C)Cc2ccc(C3=CCCC3)cc2)cc1 (nonaromatic ring conformer: 59.10404000808838 kcal/mol)

>  <smiles>  (90) 
CC(C)Oc1ccc(S(=O)(=O)N(C)Cc2ccc(C3=CCCC3)cc2)cc1

>  <score_type>  (90) 
oracle

>  <origin>  (90) 
adg

>  <m_score__min__energy>  (90) 
-7.1799999999999997

>  <m_primary>  (90) 
energy

$$$$
91:0
     RDKit          3D

 31 31  0  0  1  0  0  0  0  0999 V2000
   58.4200   34.4970   44.9120 C   0  0  0  0  0  0  0  0  0  0  0  0
   57.5830   33.4920   44.8600 C   0  0  0  0  0  0  0  0  0  0  0  0
   57.7600   32.2510   45.6050 C   0  0  0  0  0  0  0  0  0  0  0  0
   57.8100   32.2290   46.8820 O   0  0  0  0  0  0  0  0  0  0  0  0
   57.8900   30.9880   44.9680 N   0  0  0  0  0  0  0  0  0  0  0  0
   58.0610   29.8140   45.7590 C   0  0  0  0  0  0  0  0  0  0  0  0
   59.0990   29.6860   46.6790 C   0  0  0  0  0  0  0  0  0  0  0  0
   60.0730   30.6210   46.9570 O   0  0  0  0  0  0  0  0  0  0  0  0
   58.9430   28.4330   47.2450 C   0  0  0  0  0  0  0  0  0  0  0  0
   59.8600   27.9060   48.2860 C   0  0  0  0  0  0  0  0  0  0  0  0
   57.8610   27.8500   46.6850 N   0  0  0  0  0  0  0  0  0  0  0  0
   57.4250   26.5110   47.0700 C   0  0  0  0  0  0  0  0  0  0  0  0
   56.5530   26.0140   45.9710 C   0  0  0  0  0  0  0  0  0  0  0  0
   55.1640   26.1580   46.0030 O   0  0  0  0  0  0  0  0  0  0  0  0
   57.0290   25.4180   44.9170 N   0  0  0  0  0  0  0  0  0  0  0  0
   57.4060   26.1070   43.7920 O   0  0  0  0  0  0  0  0  0  0  0  0
   57.3030   28.6590   45.7790 C   0  0  0  0  0  0  0  0  0  0  0  0
   56.1850   28.4140   45.0010 O   0  0  0  0  0  0  0  0  0  0  0  0
   58.2257   35.4056   44.3233 H   0  0  0  0  0  0  0  0  0  0  0  0
   59.3177   34.4330   45.5444 H   0  0  0  0  0  0  0  0  0  0  0  0
   56.6954   33.5891   44.2176 H   0  0  0  0  0  0  0  0  0  0  0  0
   57.8620   30.9040   43.9350 H   0  0  0  0  0  0  0  0  0  0  0  0
   59.8010   31.5400   47.3220 H   0  0  0  0  0  0  0  0  0  0  0  0
   59.4558   28.1383   49.2823 H   0  0  0  0  0  0  0  0  0  0  0  0
   59.9544   26.8158   48.1736 H   0  0  0  0  0  0  0  0  0  0  0  0
   60.8495   28.3733   48.1736 H   0  0  0  0  0  0  0  0  0  0  0  0
   58.2952   25.8493   47.1925 H   0  0  0  0  0  0  0  0  0  0  0  0
   56.8835   26.5306   48.0273 H   0  0  0  0  0  0  0  0  0  0  0  0
   54.7520   27.0950   45.9900 H   0  0  0  0  0  0  0  0  0  0  0  0
   57.0220   26.9850   43.5330 H   0  0  0  0  0  0  0  0  0  0  0  0
   56.1170   27.4870   44.5640 H   0  0  0  0  0  0  0  0  0  0  0  0
  1  2  2  0
  2  3  1  0
  3  4  2  0
  3  5  1  0
  5  6  1  0
  6  7  1  0
  7  8  1  0
  7  9  2  0
  9 10  1  0
  9 11  1  0
 11 12  1  0
 12 13  1  0
 13 14  1  0
 13 15  2  0
 15 16  1  0
 11 17  1  0
 17 18  1  0
 17  6  2  0
  1 19  1  0
  1 20  1  0
  2 21  1  0
  5 22  1  0
  8 23  1  0
 10 24  1  0
 10 25  1  0
 10 26  1  0
 12 27  1  0
 12 28  1  0
 14 29  1  0
 16 30  1  0
 18 31  1  0
M  END
>  <smiles>  (91) 
C=CC(=O)Nc1c(O)c(C)n(CC(O)=NO)c1O

>  <score_type>  (91) 
oracle

>  <origin>  (91) 
adg

>  <m_score__min__energy>  (91) 
-7.0700000000000003

>  <m_primary>  (91) 
energy

$$$$
92:0
     RDKit          3D

 49 53  0  0  0  0  0  0  0  0999 V2000
   55.2754   29.1027   54.0298 H   0  0  0  0  0  0  0  0  0  0  0  0
   58.7450   29.7200   51.4890 C   0  0  0  0  0  0  0  0  0  0  0  0
   55.3440   29.7990   53.1810 C   0  0  0  0  0  0  0  0  0  0  0  0
   57.8610   28.7940   52.7670 S   0  0  0  0  0  0  0  0  0  0  0  0
   56.5580   30.0220   52.6580 C   0  0  0  0  0  0  0  0  0  0  0  0
   59.6840   29.2000   50.7430 N   0  0  0  0  0  0  0  0  0  0  0  0
   60.2570   28.4090   51.1090 H   0  0  0  0  0  0  0  0  0  0  0  0
   59.9550   29.6130   49.3950 C   0  0  0  0  0  0  0  0  0  0  0  0
   61.0840   30.3950   49.1310 C   0  0  0  0  0  0  0  0  0  0  0  0
   61.7661   30.6672   49.9499 H   0  0  0  0  0  0  0  0  0  0  0  0
   61.3480   30.8310   47.8320 C   0  0  0  0  0  0  0  0  0  0  0  0
   62.2462   31.4320   47.6269 H   0  0  0  0  0  0  0  0  0  0  0  0
   60.4740   30.5060   46.7910 C   0  0  0  0  0  0  0  0  0  0  0  0
   60.6959   30.8437   45.7679 H   0  0  0  0  0  0  0  0  0  0  0  0
   59.3130   29.7510   47.0390 C   0  0  0  0  0  0  0  0  0  0  0  0
   58.3910   29.4260   45.9170 C   0  0  0  0  0  0  0  0  0  0  0  0
   57.0500   29.6550   46.0130 N   0  0  0  0  0  0  0  0  0  0  0  0
   56.3990   29.2890   44.8920 C   0  0  0  0  0  0  0  0  0  0  0  0
   55.1550   29.4080   44.7490 O   0  0  0  0  0  0  0  0  0  0  0  0
   57.4290   28.6620   43.7290 S   0  0  0  0  0  0  0  0  0  0  0  0
   58.7920   28.8660   44.6970 C   0  0  0  0  0  0  0  0  0  0  0  0
   59.8233   28.6037   44.4183 H   0  0  0  0  0  0  0  0  0  0  0  0
   59.0590   29.3140   48.3540 C   0  0  0  0  0  0  0  0  0  0  0  0
   58.1500   28.7328   48.5684 H   0  0  0  0  0  0  0  0  0  0  0  0
   58.2480   31.0450   51.2700 N   0  0  0  0  0  0  0  0  0  0  0  0
   58.9350   32.0940   50.5660 C   0  0  0  0  0  0  0  0  0  0  0  0
   60.0300   32.7460   51.1560 C   0  0  0  0  0  0  0  0  0  0  0  0
   60.3592   32.4583   52.1654 H   0  0  0  0  0  0  0  0  0  0  0  0
   60.7040   33.7590   50.4670 C   0  0  0  0  0  0  0  0  0  0  0  0
   61.5591   34.2677   50.9362 H   0  0  0  0  0  0  0  0  0  0  0  0
   60.2920   34.1260   49.1820 C   0  0  0  0  0  0  0  0  0  0  0  0
   60.8220   34.9239   48.6413 H   0  0  0  0  0  0  0  0  0  0  0  0
   59.2070   33.4790   48.5850 C   0  0  0  0  0  0  0  0  0  0  0  0
   58.8840   33.7672   47.5738 H   0  0  0  0  0  0  0  0  0  0  0  0
   58.5310   32.4650   49.2720 C   0  0  0  0  0  0  0  0  0  0  0  0
   57.6794   31.9557   48.7972 H   0  0  0  0  0  0  0  0  0  0  0  0
   57.0060   31.2200   51.9420 C   0  0  0  0  0  0  0  0  0  0  0  0
   56.4100   32.3300   51.9830 O   0  0  0  0  0  0  0  0  0  0  0  0
   54.0910   30.4190   52.7020 C   0  0  0  0  0  0  0  0  0  0  0  0
   53.9870   30.8090   51.3590 C   0  0  0  0  0  0  0  0  0  0  0  0
   54.8204   30.6182   50.6669 H   0  0  0  0  0  0  0  0  0  0  0  0
   52.8270   31.4400   50.8960 C   0  0  0  0  0  0  0  0  0  0  0  0
   52.7424   31.7254   49.8371 H   0  0  0  0  0  0  0  0  0  0  0  0
   51.7760   31.7080   51.7770 C   0  0  0  0  0  0  0  0  0  0  0  0
   50.6240   32.3340   51.3150 O   0  0  0  0  0  0  0  0  0  0  0  0
   51.8840   31.3490   53.1240 C   0  0  0  0  0  0  0  0  0  0  0  0
   51.0581   31.5636   53.8182 H   0  0  0  0  0  0  0  0  0  0  0  0
   53.0420   30.7170   53.5890 C   0  0  0  0  0  0  0  0  0  0  0  0
   53.1321   30.4522   54.6528 H   0  0  0  0  0  0  0  0  0  0  0  0
  1  2  1  0
  2  3  2  0
  3  4  1  0
  4  5  1  0
  5  6  2  0
  6  7  1  0
  6  8  1  0
  8  9  2  0
  9 10  1  0
  9 11  1  0
 11 12  1  0
 11 13  2  0
 13 14  1  0
 13 15  1  0
 15 16  1  0
 16 17  1  0
 17 18  1  0
 18 19  2  0
 18 20  1  0
 20 21  1  0
 21 22  1  0
 15 23  2  0
 23 24  1  0
  5 25  1  0
 25 26  1  0
 26 27  2  0
 27 28  1  0
 27 29  1  0
 29 30  1  0
 29 31  2  0
 31 32  1  0
 31 33  1  0
 33 34  1  0
 33 35  2  0
 35 36  1  0
 25 37  1  0
 37 38  2  0
  2 39  1  0
 39 40  2  0
 40 41  1  0
 40 42  1  0
 42 43  1  0
 42 44  2  0
 44 45  1  0
 44 46  1  0
 46 47  1  0
 46 48  2  0
 48 49  1  0
 37  3  1  0
 48 39  1  0
 23  8  1  0
 35 26  1  0
 21 16  2  0
M  CHG  3   6   1  17  -1  45  -1
M  END
>  <UniqueID>  (92) 
83

>  <SMILES>  (92) 
O=C1/C(=C\c2ccc([O-])cc2)S/C(=[NH+]\c2cccc(-c3csc(=O)[n-]3)c2)N1c1ccccc1

>  <Energy>  (92) 
128.5848425812155

>  <Genealogy>  (92) 
O=C1C(=Cc2ccc([O-])cc2)SC(=[NH+]c2cccc(-c3csc(=O)[n-]3)c2)N1c1ccccc1 (protonated)
O=C1/C(=C\c2ccc([O-])cc2)S/C(=[NH+]\c2cccc(-c3csc(=O)[n-]3)c2)N1c1ccccc1 (cis-trans isomerization)
O=C1/C(=C\c2ccc([O-])cc2)S/C(=[NH+]\c2cccc(-c3csc(=O)[n-]3)c2)N1c1ccccc1 (3D coordinates assigned)
O=C1/C(=C\c2ccc([O-])cc2)S/C(=[NH+]\c2cccc(-c3csc(=O)[n-]3)c2)N1c1ccccc1 (nonaromatic ring conformer: 128.5848425812155 kcal/mol)

>  <smiles>  (92) 
O=C1C(=Cc2ccc(O)cc2)SC(=Nc2cccc(-c3csc(=O)[nH]3)c2)N1c1ccccc1

>  <score_type>  (92) 
oracle

>  <origin>  (92) 
adg

>  <m_score__min__energy>  (92) 
-13.98

>  <m_primary>  (92) 
energy

$$$$
93:0
     RDKit          3D

 56 59  0  0  0  0  0  0  0  0999 V2000
   63.5240   31.0290   50.7600 C   0  0  0  0  0  0  0  0  0  0  0  0
   63.7010   32.4760   50.9930 N   0  0  0  0  0  0  0  0  0  0  0  0
   64.8300   33.0240   50.2110 C   0  0  0  0  0  0  0  0  0  0  0  0
   64.5050   33.1000   48.7100 C   0  0  0  0  0  0  0  0  0  0  0  0
   63.1480   33.6100   48.4910 N   0  0  0  0  0  0  0  0  0  0  0  0
   62.6680   33.7750   47.1470 C   0  0  0  0  0  0  0  0  0  0  0  0
   63.4500   34.2140   46.2600 O   0  0  0  0  0  0  0  0  0  0  0  0
   61.2750   33.4280   46.7810 C   0  0  0  0  0  0  0  0  0  0  0  0
   60.3380   34.4380   46.4990 C   0  0  0  0  0  0  0  0  0  0  0  0
   59.0230   34.1080   46.1600 C   0  0  0  0  0  0  0  0  0  0  0  0
   58.6260   32.7700   46.1070 C   0  0  0  0  0  0  0  0  0  0  0  0
   59.5460   31.7540   46.3980 C   0  0  0  0  0  0  0  0  0  0  0  0
   59.1360   30.3760   46.3480 C   0  0  0  0  0  0  0  0  0  0  0  0
   58.7920   29.2210   46.3070 C   0  0  0  0  0  0  0  0  0  0  0  0
   58.3820   27.8430   46.2520 C   0  0  0  0  0  0  0  0  0  0  0  0
   59.3450   26.8260   46.2400 C   0  0  0  0  0  0  0  0  0  0  0  0
   58.9470   25.4880   46.1890 C   0  0  0  0  0  0  0  0  0  0  0  0
   57.5900   25.1600   46.1410 C   0  0  0  0  0  0  0  0  0  0  0  0
   56.6160   26.1760   46.1310 C   0  0  0  0  0  0  0  0  0  0  0  0
   55.2140   25.8740   46.0940 N   0  0  0  0  0  0  0  0  0  0  0  0
   54.6120   24.7210   45.4880 C   0  0  0  0  0  0  0  0  0  0  0  0
   53.3550   24.6650   45.4170 O   0  0  0  0  0  0  0  0  0  0  0  0
   55.4230   23.6330   44.8890 C   0  0  0  0  0  0  0  0  0  0  0  0
   55.8700   23.7360   43.5590 C   0  0  0  0  0  0  0  0  0  0  0  0
   56.6430   22.7170   42.9920 C   0  0  0  0  0  0  0  0  0  0  0  0
   56.9870   21.5950   43.7490 C   0  0  0  0  0  0  0  0  0  0  0  0
   56.5670   21.4930   45.0780 C   0  0  0  0  0  0  0  0  0  0  0  0
   55.7940   22.5070   45.6480 C   0  0  0  0  0  0  0  0  0  0  0  0
   57.0200   27.5150   46.2070 C   0  0  0  0  0  0  0  0  0  0  0  0
   60.8650   32.0840   46.7410 C   0  0  0  0  0  0  0  0  0  0  0  0
   62.4110   34.1860   49.6190 C   0  0  0  0  0  0  0  0  0  0  0  0
   62.4250   33.2260   50.8220 C   0  0  0  0  0  0  0  0  0  0  0  0
   63.4602   30.5071   51.7262 H   0  0  0  0  0  0  0  0  0  0  0  0
   62.5985   30.8599   50.1901 H   0  0  0  0  0  0  0  0  0  0  0  0
   64.3815   30.6418   50.1901 H   0  0  0  0  0  0  0  0  0  0  0  0
   65.0581   34.0359   50.5771 H   0  0  0  0  0  0  0  0  0  0  0  0
   65.6914   32.3521   50.3395 H   0  0  0  0  0  0  0  0  0  0  0  0
   65.2251   33.7716   48.2197 H   0  0  0  0  0  0  0  0  0  0  0  0
   64.5714   32.0874   48.2855 H   0  0  0  0  0  0  0  0  0  0  0  0
   60.6420   35.4941   46.5455 H   0  0  0  0  0  0  0  0  0  0  0  0
   58.2985   34.9044   45.9343 H   0  0  0  0  0  0  0  0  0  0  0  0
   57.5910   32.5138   45.8368 H   0  0  0  0  0  0  0  0  0  0  0  0
   60.4146   27.0809   46.2707 H   0  0  0  0  0  0  0  0  0  0  0  0
   59.7044   24.6903   46.1866 H   0  0  0  0  0  0  0  0  0  0  0  0
   57.2817   24.1045   46.1109 H   0  0  0  0  0  0  0  0  0  0  0  0
   55.6103   24.6225   42.9617 H   0  0  0  0  0  0  0  0  0  0  0  0
   56.9803   22.7997   41.9483 H   0  0  0  0  0  0  0  0  0  0  0  0
   57.5886   20.7914   43.2992 H   0  0  0  0  0  0  0  0  0  0  0  0
   56.8456   20.6128   45.6760 H   0  0  0  0  0  0  0  0  0  0  0  0
   55.4730   22.4252   46.6969 H   0  0  0  0  0  0  0  0  0  0  0  0
   56.2641   28.3137   46.2315 H   0  0  0  0  0  0  0  0  0  0  0  0
   61.5834   31.2861   46.9803 H   0  0  0  0  0  0  0  0  0  0  0  0
   62.8808   35.1371   49.9100 H   0  0  0  0  0  0  0  0  0  0  0  0
   61.3683   34.3549   49.3122 H   0  0  0  0  0  0  0  0  0  0  0  0
   62.2462   33.8141   51.7342 H   0  0  0  0  0  0  0  0  0  0  0  0
   61.6415   32.4766   50.6361 H   0  0  0  0  0  0  0  0  0  0  0  0
  1  2  1  0
  2  3  1  0
  3  4  1  0
  4  5  1  0
  5  6  1  0
  6  7  2  0
  6  8  1  0
  8  9  2  0
  9 10  1  0
 10 11  2  0
 11 12  1  0
 12 13  1  0
 13 14  3  0
 14 15  1  0
 15 16  2  0
 16 17  1  0
 17 18  2  0
 18 19  1  0
 19 20  1  0
 20 21  1  0
 21 22  2  0
 21 23  1  0
 23 24  2  0
 24 25  1  0
 25 26  2  0
 26 27  1  0
 27 28  2  0
 19 29  2  0
 12 30  2  0
  5 31  1  0
 31 32  1  0
 32  2  1  0
 30  8  1  0
 29 15  1  0
 28 23  1  0
  1 33  1  0
  1 34  1  0
  1 35  1  0
  3 36  1  0
  3 37  1  0
  4 38  1  0
  4 39  1  0
  9 40  1  0
 10 41  1  0
 11 42  1  0
 16 43  1  0
 17 44  1  0
 18 45  1  0
 24 46  1  0
 25 47  1  0
 26 48  1  0
 27 49  1  0
 28 50  1  0
 29 51  1  0
 30 52  1  0
 31 53  1  0
 31 54  1  0
 32 55  1  0
 32 56  1  0
M  CHG  1  20  -1
M  END
>  <UniqueID>  (93) 
84

>  <SMILES>  (93) 
CN1CCN(C(=O)c2cccc(C#Cc3cccc([N-]C(=O)c4ccccc4)c3)c2)CC1

>  <Energy>  (93) 
74.4260805941823

>  <Genealogy>  (93) 
CN1CCN(C(=O)c2cccc(C#Cc3cccc([N-]C(=O)c4ccccc4)c3)c2)CC1 (protonated)
CN1CCN(C(=O)c2cccc(C#Cc3cccc([N-]C(=O)c4ccccc4)c3)c2)CC1 (3D coordinates assigned)
CN1CCN(C(=O)c2cccc(C#Cc3cccc([N-]C(=O)c4ccccc4)c3)c2)CC1 (nonaromatic ring conformer: 74.4260805941823 kcal/mol)

>  <smiles>  (93) 
CN1CCN(C(=O)c2cccc(C#Cc3cccc(NC(=O)c4ccccc4)c3)c2)CC1

>  <score_type>  (93) 
oracle

>  <origin>  (93) 
adg

>  <m_score__min__energy>  (93) 
-11.359999999999999

>  <m_primary>  (93) 
energy

$$$$
