0:0
     RDKit          3D

 44 46  0  0  0  0  0  0  0  0999 V2000
   55.2480   29.3720   44.8970 O   0  0  0  0  0  0  0  0  0  0  0  0
   56.2960   29.8420   44.3770 C   0  0  0  0  0  0  0  0  0  0  0  0
   57.2560   28.9230   43.6910 C   0  0  0  0  0  0  0  0  0  0  0  0
   58.2770   28.4330   44.6670 C   0  0  0  0  0  0  0  0  0  0  0  0
   59.6480   28.6380   44.5830 C   0  0  0  0  0  0  0  0  0  0  0  0
   60.3630   27.9970   45.6020 C   0  0  0  0  0  0  0  0  0  0  0  0
   59.5620   27.2770   46.4780 C   0  0  0  0  0  0  0  0  0  0  0  0
   57.9620   27.4350   45.9840 S   0  0  0  0  0  0  0  0  0  0  0  0
   56.6310   31.2280   44.5230 N   0  0  0  0  0  0  0  0  0  0  0  0
   57.4310   31.8080   45.5630 C   0  0  0  0  0  0  0  0  0  0  0  0
   57.4520   33.2020   45.6950 C   0  0  0  0  0  0  0  0  0  0  0  0
   58.2030   33.8090   46.7060 C   0  0  0  0  0  0  0  0  0  0  0  0
   58.9320   33.0230   47.6100 C   0  0  0  0  0  0  0  0  0  0  0  0
   59.8680   33.7700   48.9020 S   0  0  0  0  0  0  0  0  0  0  0  0
   59.7900   32.9290   50.1470 O   0  0  0  0  0  0  0  0  0  0  0  0
   59.2810   35.1220   49.1990 O   0  0  0  0  0  0  0  0  0  0  0  0
   61.5350   33.9410   48.4040 N   0  0  0  0  0  0  0  0  0  0  0  0
   62.4270   33.4140   49.4660 C   0  0  0  0  0  0  0  0  0  0  0  0
   63.8250   33.0930   48.9220 C   0  0  0  0  0  0  0  0  0  0  0  0
   63.7600   31.9960   47.8450 C   0  0  0  0  0  0  0  0  0  0  0  0
   62.3970   31.9410   47.1340 C   0  0  0  0  0  0  0  0  0  0  0  0
   61.7540   33.3340   47.0610 C   0  0  0  0  0  0  0  0  0  0  0  0
   58.8920   31.6270   47.5000 C   0  0  0  0  0  0  0  0  0  0  0  0
   58.1420   31.0210   46.4880 C   0  0  0  0  0  0  0  0  0  0  0  0
   56.7066   28.0650   43.2763 H   0  0  0  0  0  0  0  0  0  0  0  0
   57.7621   29.4675   42.8802 H   0  0  0  0  0  0  0  0  0  0  0  0
   60.1236   29.2422   43.7964 H   0  0  0  0  0  0  0  0  0  0  0  0
   61.4570   28.0582   45.6993 H   0  0  0  0  0  0  0  0  0  0  0  0
   59.9137   26.7014   47.3469 H   0  0  0  0  0  0  0  0  0  0  0  0
   56.8727   33.8246   44.9973 H   0  0  0  0  0  0  0  0  0  0  0  0
   58.2221   34.9054   46.7925 H   0  0  0  0  0  0  0  0  0  0  0  0
   61.7140   34.9700   48.3210 H   0  0  0  0  0  0  0  0  0  0  0  0
   62.5182   34.1677   50.2620 H   0  0  0  0  0  0  0  0  0  0  0  0
   61.9871   32.4835   49.8542 H   0  0  0  0  0  0  0  0  0  0  0  0
   64.2575   34.0037   48.4820 H   0  0  0  0  0  0  0  0  0  0  0  0
   64.4494   32.7318   49.7525 H   0  0  0  0  0  0  0  0  0  0  0  0
   64.5403   32.1927   47.0950 H   0  0  0  0  0  0  0  0  0  0  0  0
   63.9119   31.0289   48.3467 H   0  0  0  0  0  0  0  0  0  0  0  0
   62.5398   31.5574   46.1130 H   0  0  0  0  0  0  0  0  0  0  0  0
   61.7311   31.2787   47.7066 H   0  0  0  0  0  0  0  0  0  0  0  0
   62.4136   33.9953   46.4799 H   0  0  0  0  0  0  0  0  0  0  0  0
   60.7688   33.2190   46.5854 H   0  0  0  0  0  0  0  0  0  0  0  0
   59.4532   31.0051   48.2130 H   0  0  0  0  0  0  0  0  0  0  0  0
   58.1074   29.9240   46.4143 H   0  0  0  0  0  0  0  0  0  0  0  0
  1  2  2  0
  2  3  1  0
  3  4  1  0
  4  5  2  0
  5  6  1  0
  6  7  2  0
  7  8  1  0
  2  9  1  0
  9 10  1  0
 10 11  2  0
 11 12  1  0
 12 13  2  0
 13 14  1  0
 14 15  2  0
 14 16  2  0
 14 17  1  0
 17 18  1  0
 18 19  1  0
 19 20  1  0
 20 21  1  0
 21 22  1  0
 13 23  1  0
 23 24  2  0
  8  4  1  0
 24 10  1  0
 22 17  1  0
  3 25  1  0
  3 26  1  0
  5 27  1  0
  6 28  1  0
  7 29  1  0
 11 30  1  0
 12 31  1  0
 17 32  1  0
 18 33  1  0
 18 34  1  0
 19 35  1  0
 19 36  1  0
 20 37  1  0
 20 38  1  0
 21 39  1  0
 21 40  1  0
 22 41  1  0
 22 42  1  0
 23 43  1  0
 24 44  1  0
M  CHG  2   9  -1  17   1
M  END
>  <UniqueID>  (1) 
1

>  <SMILES>  (1) 
O=C(Cc1cccs1)[N-]c1ccc(S(=O)(=O)[NH+]2CCCCC2)cc1

>  <Energy>  (1) 
76.51945466758126

>  <Genealogy>  (1) 
O=C(Cc1cccs1)[N-]c1ccc(S(=O)(=O)[NH+]2CCCCC2)cc1 (protonated)
O=C(Cc1cccs1)[N-]c1ccc(S(=O)(=O)[NH+]2CCCCC2)cc1 (3D coordinates assigned)
O=C(Cc1cccs1)[N-]c1ccc(S(=O)(=O)[NH+]2CCCCC2)cc1 (nonaromatic ring conformer: 76.51945466758126 kcal/mol)

>  <smiles>  (1) 
O=C(Cc1cccs1)Nc1ccc(S(=O)(=O)N2CCCCC2)cc1

>  <score_type>  (1) 
oracle

>  <origin>  (1) 
adg

>  <m_score__min__energy>  (1) 
-8.75

>  <m_primary>  (1) 
energy

$$$$
1:0
     RDKit          3D

 33 35  0  0  0  0  0  0  0  0999 V2000
   57.2360   28.5280   45.4240 C   0  0  0  0  0  0  0  0  0  0  0  0
   57.9360   29.8220   45.6900 C   0  0  0  0  0  0  0  0  0  0  0  0
   59.1410   29.8400   46.4020 C   0  0  0  0  0  0  0  0  0  0  0  0
   59.7780   31.0580   46.6500 C   0  0  0  0  0  0  0  0  0  0  0  0
   59.2080   32.2550   46.1870 C   0  0  0  0  0  0  0  0  0  0  0  0
   59.8010   33.5190   46.4040 C   0  0  0  0  0  0  0  0  0  0  0  0
   61.0380   33.6500   47.1190 N   0  0  0  0  0  0  0  0  0  0  0  0
   61.0250   33.8710   48.5640 C   0  0  0  0  0  0  0  0  0  0  0  0
   62.2810   33.2560   49.1880 C   0  0  0  0  0  0  0  0  0  0  0  0
   63.4450   33.6980   48.5140 O   0  0  0  0  0  0  0  0  0  0  0  0
   63.4440   33.2130   47.1840 C   0  0  0  0  0  0  0  0  0  0  0  0
   62.2910   33.8230   46.3830 C   0  0  0  0  0  0  0  0  0  0  0  0
   59.1920   34.6420   45.9280 N   0  0  0  0  0  0  0  0  0  0  0  0
   58.0180   34.5880   45.2420 C   0  0  0  0  0  0  0  0  0  0  0  0
   57.3960   33.3620   45.0040 C   0  0  0  0  0  0  0  0  0  0  0  0
   57.9900   32.1910   45.4770 C   0  0  0  0  0  0  0  0  0  0  0  0
   57.3930   30.9890   45.2510 N   0  0  0  0  0  0  0  0  0  0  0  0
   56.9765   28.0484   46.3793 H   0  0  0  0  0  0  0  0  0  0  0  0
   56.3183   28.7191   44.8485 H   0  0  0  0  0  0  0  0  0  0  0  0
   57.8982   27.8644   44.8485 H   0  0  0  0  0  0  0  0  0  0  0  0
   59.5837   28.9004   46.7641 H   0  0  0  0  0  0  0  0  0  0  0  0
   60.7258   31.0796   47.2078 H   0  0  0  0  0  0  0  0  0  0  0  0
   61.0056   34.9515   48.7691 H   0  0  0  0  0  0  0  0  0  0  0  0
   60.1318   33.3982   48.9983 H   0  0  0  0  0  0  0  0  0  0  0  0
   62.3414   33.5538   50.2452 H   0  0  0  0  0  0  0  0  0  0  0  0
   62.2178   32.1612   49.1018 H   0  0  0  0  0  0  0  0  0  0  0  0
   64.3970   33.4781   46.7029 H   0  0  0  0  0  0  0  0  0  0  0  0
   63.3173   32.1206   47.2075 H   0  0  0  0  0  0  0  0  0  0  0  0
   62.4797   34.8956   46.2281 H   0  0  0  0  0  0  0  0  0  0  0  0
   62.2155   33.3185   45.4084 H   0  0  0  0  0  0  0  0  0  0  0  0
   59.6360   35.5730   46.0920 H   0  0  0  0  0  0  0  0  0  0  0  0
   57.5569   35.5160   44.8731 H   0  0  0  0  0  0  0  0  0  0  0  0
   56.4471   33.3188   44.4492 H   0  0  0  0  0  0  0  0  0  0  0  0
  1  2  1  0
  2  3  2  0
  3  4  1  0
  4  5  2  0
  5  6  1  0
  6  7  1  0
  7  8  1  0
  8  9  1  0
  9 10  1  0
 10 11  1  0
 11 12  1  0
  6 13  2  0
 13 14  1  0
 14 15  2  0
 15 16  1  0
 16 17  2  0
 17  2  1  0
 16  5  1  0
 12  7  1  0
  1 18  1  0
  1 19  1  0
  1 20  1  0
  3 21  1  0
  4 22  1  0
  8 23  1  0
  8 24  1  0
  9 25  1  0
  9 26  1  0
 11 27  1  0
 11 28  1  0
 12 29  1  0
 12 30  1  0
 13 31  1  0
 14 32  1  0
 15 33  1  0
M  CHG  1  13   1
M  END
>  <UniqueID>  (2) 
2

>  <SMILES>  (2) 
Cc1ccc2c(N3CCOCC3)[nH+]ccc2n1

>  <Energy>  (2) 
44.073731366572844

>  <Genealogy>  (2) 
Cc1ccc2c(N3CCOCC3)[nH+]ccc2n1 (protonated)
Cc1ccc2c(N3CCOCC3)[nH+]ccc2n1 (3D coordinates assigned)
Cc1ccc2c(N3CCOCC3)[nH+]ccc2n1 (nonaromatic ring conformer: 44.073731366572844 kcal/mol)

>  <smiles>  (2) 
Cc1ccc2c(N3CCOCC3)nccc2n1

>  <score_type>  (2) 
oracle

>  <origin>  (2) 
adg

>  <m_score__min__energy>  (2) 
-4.7000000000000002

>  <m_primary>  (2) 
energy

$$$$
2:0
     RDKit          3D

 27 28  0  0  0  0  0  0  0  0999 V2000
   55.2990   29.2880   44.7890 O   0  0  0  0  0  0  0  0  0  0  0  0
   56.1250   28.4590   45.2500 C   0  0  0  0  0  0  0  0  0  0  0  0
   55.6670   27.1970   45.6130 O   0  0  0  0  0  0  0  0  0  0  0  0
   57.5670   28.7920   45.3820 C   0  0  0  0  0  0  0  0  0  0  0  0
   58.3370   28.0940   46.3280 C   0  0  0  0  0  0  0  0  0  0  0  0
   59.6960   28.3620   46.4770 C   0  0  0  0  0  0  0  0  0  0  0  0
   60.2910   29.3340   45.6780 C   0  0  0  0  0  0  0  0  0  0  0  0
   59.5450   30.0160   44.7720 N   0  0  0  0  0  0  0  0  0  0  0  0
   58.2140   29.7880   44.6030 C   0  0  0  0  0  0  0  0  0  0  0  0
   57.3490   30.8200   43.4080 S   0  0  0  0  0  0  0  0  0  0  0  0
   56.6520   31.9590   44.6570 C   0  0  0  0  0  0  0  0  0  0  0  0
   57.7400   32.7290   45.3530 C   0  0  0  0  0  0  0  0  0  0  0  0
   58.3790   33.8020   44.7090 C   0  0  0  0  0  0  0  0  0  0  0  0
   59.3660   34.5360   45.3740 C   0  0  0  0  0  0  0  0  0  0  0  0
   59.7230   34.2040   46.6840 C   0  0  0  0  0  0  0  0  0  0  0  0
   60.6810   34.9180   47.3260 F   0  0  0  0  0  0  0  0  0  0  0  0
   59.0910   33.1390   47.3310 C   0  0  0  0  0  0  0  0  0  0  0  0
   58.1010   32.4050   46.6710 C   0  0  0  0  0  0  0  0  0  0  0  0
   57.8615   27.3276   46.9577 H   0  0  0  0  0  0  0  0  0  0  0  0
   60.2928   27.8109   47.2187 H   0  0  0  0  0  0  0  0  0  0  0  0
   61.3648   29.5493   45.7807 H   0  0  0  0  0  0  0  0  0  0  0  0
   55.9730   32.6667   44.1589 H   0  0  0  0  0  0  0  0  0  0  0  0
   56.1087   31.3655   45.4071 H   0  0  0  0  0  0  0  0  0  0  0  0
   58.1017   34.0656   43.6777 H   0  0  0  0  0  0  0  0  0  0  0  0
   59.8622   35.3758   44.8656 H   0  0  0  0  0  0  0  0  0  0  0  0
   59.3729   32.8776   48.3616 H   0  0  0  0  0  0  0  0  0  0  0  0
   57.6028   31.5704   47.1860 H   0  0  0  0  0  0  0  0  0  0  0  0
  1  2  2  0
  2  3  1  0
  2  4  1  0
  4  5  2  0
  5  6  1  0
  6  7  2  0
  7  8  1  0
  8  9  2  0
  9 10  1  0
 10 11  1  0
 11 12  1  0
 12 13  2  0
 13 14  1  0
 14 15  2  0
 15 16  1  0
 15 17  1  0
 17 18  2  0
  9  4  1  0
 18 12  1  0
  5 19  1  0
  6 20  1  0
  7 21  1  0
 11 22  1  0
 11 23  1  0
 13 24  1  0
 14 25  1  0
 17 26  1  0
 18 27  1  0
M  CHG  1   3  -1
M  END
>  <UniqueID>  (3) 
3

>  <SMILES>  (3) 
O=C([O-])c1cccnc1SCc1ccc(F)cc1

>  <Energy>  (3) 
27.822528548210368

>  <Genealogy>  (3) 
O=C([O-])c1cccnc1SCc1ccc(F)cc1 (protonated)
O=C([O-])c1cccnc1SCc1ccc(F)cc1 (3D coordinates assigned)
O=C([O-])c1cccnc1SCc1ccc(F)cc1 (optimized conformer: 27.822528548210368 kcal/mol)

>  <smiles>  (3) 
O=C(O)c1cccnc1SCc1ccc(F)cc1

>  <score_type>  (3) 
oracle

>  <origin>  (3) 
adg

>  <m_score__min__energy>  (3) 
-9.5399999999999991

>  <m_primary>  (3) 
energy

$$$$
3:0
     RDKit          3D

 30 31  0  0  0  0  0  0  0  0999 V2000
   60.0930   34.5900   48.5100 C   0  0  0  0  0  0  0  0  0  0  0  0
   59.4180   34.8840   47.2900 O   0  0  0  0  0  0  0  0  0  0  0  0
   58.8320   33.9210   46.4570 C   0  0  0  0  0  0  0  0  0  0  0  0
   58.3810   34.2200   45.1570 C   0  0  0  0  0  0  0  0  0  0  0  0
   57.8020   33.2240   44.3650 C   0  0  0  0  0  0  0  0  0  0  0  0
   57.6600   31.9220   44.8610 C   0  0  0  0  0  0  0  0  0  0  0  0
   56.9180   30.6770   43.8610 S   0  0  0  0  0  0  0  0  0  0  0  0
   56.6380   31.2000   42.4800 O   0  0  0  0  0  0  0  0  0  0  0  0
   55.6220   30.2570   44.4960 O   0  0  0  0  0  0  0  0  0  0  0  0
   57.9690   29.3010   43.7430 N   0  0  0  0  0  0  0  0  0  0  0  0
   58.5130   28.6040   44.8790 C   0  0  0  0  0  0  0  0  0  0  0  0
   57.6480   27.9280   45.7510 C   0  0  0  0  0  0  0  0  0  0  0  0
   58.1540   27.2500   46.8600 C   0  0  0  0  0  0  0  0  0  0  0  0
   59.5300   27.2480   47.0900 C   0  0  0  0  0  0  0  0  0  0  0  0
   60.3620   27.9010   46.2360 N   0  0  0  0  0  0  0  0  0  0  0  0
   59.8950   28.5700   45.1490 C   0  0  0  0  0  0  0  0  0  0  0  0
   58.1120   31.6200   46.1520 C   0  0  0  0  0  0  0  0  0  0  0  0
   58.6920   32.6150   46.9430 C   0  0  0  0  0  0  0  0  0  0  0  0
   59.4526   34.8689   49.3598 H   0  0  0  0  0  0  0  0  0  0  0  0
   60.3151   33.5136   48.5560 H   0  0  0  0  0  0  0  0  0  0  0  0
   61.0324   35.1605   48.5560 H   0  0  0  0  0  0  0  0  0  0  0  0
   58.4847   35.2417   44.7629 H   0  0  0  0  0  0  0  0  0  0  0  0
   57.4567   33.4639   43.3485 H   0  0  0  0  0  0  0  0  0  0  0  0
   58.1630   28.9360   42.7850 H   0  0  0  0  0  0  0  0  0  0  0  0
   56.5648   27.9323   45.5596 H   0  0  0  0  0  0  0  0  0  0  0  0
   57.4751   26.7224   47.5461 H   0  0  0  0  0  0  0  0  0  0  0  0
   59.9415   26.7183   47.9619 H   0  0  0  0  0  0  0  0  0  0  0  0
   60.5979   29.0861   44.4785 H   0  0  0  0  0  0  0  0  0  0  0  0
   58.0101   30.5972   46.5439 H   0  0  0  0  0  0  0  0  0  0  0  0
   59.0419   32.3704   47.9568 H   0  0  0  0  0  0  0  0  0  0  0  0
  1  2  1  0
  2  3  1  0
  3  4  2  0
  4  5  1  0
  5  6  2  0
  6  7  1  0
  7  8  2  0
  7  9  2  0
  7 10  1  0
 10 11  1  0
 11 12  2  0
 12 13  1  0
 13 14  2  0
 14 15  1  0
 15 16  2  0
  6 17  1  0
 17 18  2  0
 18  3  1  0
 16 11  1  0
  1 19  1  0
  1 20  1  0
  1 21  1  0
  4 22  1  0
  5 23  1  0
 10 24  1  0
 12 25  1  0
 13 26  1  0
 14 27  1  0
 16 28  1  0
 17 29  1  0
 18 30  1  0
M  END
>  <UniqueID>  (4) 
4

>  <SMILES>  (4) 
COc1ccc(S(=O)(=O)Nc2cccnc2)cc1

>  <Energy>  (4) 
33.41252277911862

>  <Genealogy>  (4) 
COc1ccc(S(=O)(=O)Nc2cccnc2)cc1 (3D coordinates assigned)
COc1ccc(S(=O)(=O)Nc2cccnc2)cc1 (optimized conformer: 33.41252277911862 kcal/mol)

>  <smiles>  (4) 
COc1ccc(S(=O)(=O)Nc2cccnc2)cc1

>  <score_type>  (4) 
oracle

>  <origin>  (4) 
adg

>  <m_score__min__energy>  (4) 
-6.6100000000000003

>  <m_primary>  (4) 
energy

$$$$
4:0
     RDKit          3D

 21 22  0  0  0  0  0  0  0  0999 V2000
   57.8820   30.7680   44.3570 C   0  0  0  0  0  0  0  0  0  0  0  0
   57.8490   29.3950   44.8900 N   0  0  0  0  0  0  0  0  0  0  0  0
   56.6410   28.7810   45.1300 C   0  0  0  0  0  0  0  0  0  0  0  0
   55.5470   29.3600   44.8830 O   0  0  0  0  0  0  0  0  0  0  0  0
   56.6470   27.5050   45.6620 C   0  0  0  0  0  0  0  0  0  0  0  0
   55.5990   26.7230   45.9860 N   0  0  0  0  0  0  0  0  0  0  0  0
   56.2170   25.6160   46.4770 C   0  0  0  0  0  0  0  0  0  0  0  0
   55.5800   24.6170   46.9040 O   0  0  0  0  0  0  0  0  0  0  0  0
   57.5690   25.6790   46.4720 N   0  0  0  0  0  0  0  0  0  0  0  0
   57.8150   26.8890   45.9480 C   0  0  0  0  0  0  0  0  0  0  0  0
   59.0250   27.4740   45.7340 N   0  0  0  0  0  0  0  0  0  0  0  0
   60.2610   26.7680   46.0980 C   0  0  0  0  0  0  0  0  0  0  0  0
   59.0350   28.7560   45.2190 C   0  0  0  0  0  0  0  0  0  0  0  0
   60.1350   29.3530   45.0510 O   0  0  0  0  0  0  0  0  0  0  0  0
   57.8992   31.4848   45.1912 H   0  0  0  0  0  0  0  0  0  0  0  0
   58.7836   30.9006   43.7409 H   0  0  0  0  0  0  0  0  0  0  0  0
   56.9878   30.9438   43.7409 H   0  0  0  0  0  0  0  0  0  0  0  0
   58.2450   24.9580   46.8090 H   0  0  0  0  0  0  0  0  0  0  0  0
   60.3464   26.7192   47.1936 H   0  0  0  0  0  0  0  0  0  0  0  0
   60.2355   25.7482   45.6865 H   0  0  0  0  0  0  0  0  0  0  0  0
   61.1265   27.3080   45.6865 H   0  0  0  0  0  0  0  0  0  0  0  0
  1  2  1  0
  2  3  1  0
  3  4  2  0
  3  5  1  0
  5  6  1  0
  6  7  1  0
  7  8  2  0
  7  9  1  0
  9 10  1  0
 10 11  1  0
 11 12  1  0
 11 13  1  0
 13 14  2  0
 13  2  1  0
 10  5  2  0
  1 15  1  0
  1 16  1  0
  1 17  1  0
  9 18  1  0
 12 19  1  0
 12 20  1  0
 12 21  1  0
M  CHG  1   6  -1
M  END
>  <UniqueID>  (5) 
5

>  <SMILES>  (5) 
Cn1c(=O)c2[n-]c(=O)[nH]c2n(C)c1=O

>  <Energy>  (5) 
66.60395126099225

>  <Genealogy>  (5) 
Cn1c(=O)c2[n-]c(=O)[nH]c2n(C)c1=O (protonated)
Cn1c(=O)c2[n-]c(=O)[nH]c2n(C)c1=O (3D coordinates assigned)
Cn1c(=O)c2[n-]c(=O)[nH]c2n(C)c1=O (optimized conformer: 66.60395126099225 kcal/mol)

>  <smiles>  (5) 
Cn1c(=O)c2[nH]c(=O)[nH]c2n(C)c1=O

>  <score_type>  (5) 
oracle

>  <origin>  (5) 
adg

>  <m_score__min__energy>  (5) 
-7.04

>  <m_primary>  (5) 
energy

$$$$
5:0
     RDKit          3D

 29 30  0  0  0  0  0  0  0  0999 V2000
   55.6040   22.7840   47.6140 C   0  0  0  0  0  0  0  0  0  0  0  0
   55.4880   23.9180   46.7610 O   0  0  0  0  0  0  0  0  0  0  0  0
   56.5600   24.7420   46.3830 C   0  0  0  0  0  0  0  0  0  0  0  0
   57.8850   24.2720   46.3470 C   0  0  0  0  0  0  0  0  0  0  0  0
   58.9240   25.1230   45.9700 C   0  0  0  0  0  0  0  0  0  0  0  0
   58.6540   26.4450   45.6170 C   0  0  0  0  0  0  0  0  0  0  0  0
   57.3400   26.9370   45.6450 C   0  0  0  0  0  0  0  0  0  0  0  0
   57.0810   28.3250   45.2080 C   0  0  0  0  0  0  0  0  0  0  0  0
   55.8920   28.8870   45.2070 O   0  0  0  0  0  0  0  0  0  0  0  0
   55.9410   30.1050   44.7460 N   0  0  0  0  0  0  0  0  0  0  0  0
   57.2260   30.3510   44.4220 C   0  0  0  0  0  0  0  0  0  0  0  0
   57.7120   31.6550   43.8800 C   0  0  0  0  0  0  0  0  0  0  0  0
   57.9950   29.2430   44.7190 C   0  0  0  0  0  0  0  0  0  0  0  0
   59.4700   29.0770   44.5230 C   0  0  0  0  0  0  0  0  0  0  0  0
   56.2870   26.0760   46.0390 C   0  0  0  0  0  0  0  0  0  0  0  0
   54.9650   26.5220   46.1230 O   0  0  0  0  0  0  0  0  0  0  0  0
   55.5706   23.1101   48.6640 H   0  0  0  0  0  0  0  0  0  0  0  0
   54.7720   22.0915   47.4185 H   0  0  0  0  0  0  0  0  0  0  0  0
   56.5590   22.2743   47.4185 H   0  0  0  0  0  0  0  0  0  0  0  0
   58.1031   23.2283   46.6174 H   0  0  0  0  0  0  0  0  0  0  0  0
   59.9588   24.7505   45.9511 H   0  0  0  0  0  0  0  0  0  0  0  0
   59.4781   27.1077   45.3140 H   0  0  0  0  0  0  0  0  0  0  0  0
   57.9628   32.3278   44.7133 H   0  0  0  0  0  0  0  0  0  0  0  0
   58.6072   31.4852   43.2637 H   0  0  0  0  0  0  0  0  0  0  0  0
   56.9240   32.1125   43.2637 H   0  0  0  0  0  0  0  0  0  0  0  0
   59.9661   29.0212   45.5032 H   0  0  0  0  0  0  0  0  0  0  0  0
   59.6633   28.1514   43.9609 H   0  0  0  0  0  0  0  0  0  0  0  0
   59.8642   29.9364   43.9609 H   0  0  0  0  0  0  0  0  0  0  0  0
   54.7120   27.4680   46.3730 H   0  0  0  0  0  0  0  0  0  0  0  0
  1  2  1  0
  2  3  1  0
  3  4  2  0
  4  5  1  0
  5  6  2  0
  6  7  1  0
  7  8  1  0
  8  9  1  0
  9 10  1  0
 10 11  2  0
 11 12  1  0
 11 13  1  0
 13 14  1  0
  7 15  2  0
 15 16  1  0
 15  3  1  0
 13  8  2  0
  1 17  1  0
  1 18  1  0
  1 19  1  0
  4 20  1  0
  5 21  1  0
  6 22  1  0
 12 23  1  0
 12 24  1  0
 12 25  1  0
 14 26  1  0
 14 27  1  0
 14 28  1  0
 16 29  1  0
M  END
>  <UniqueID>  (6) 
6

>  <SMILES>  (6) 
COc1cccc(-c2onc(C)c2C)c1O

>  <Energy>  (6) 
63.74865261267658

>  <Genealogy>  (6) 
COc1cccc(-c2onc(C)c2C)c1O (3D coordinates assigned)
COc1cccc(-c2onc(C)c2C)c1O (optimized conformer: 63.74865261267658 kcal/mol)

>  <smiles>  (6) 
COc1cccc(-c2onc(C)c2C)c1O

>  <score_type>  (6) 
oracle

>  <origin>  (6) 
adg

>  <m_score__min__energy>  (6) 
-8.3900000000000006

>  <m_primary>  (6) 
energy

$$$$
6:0
     RDKit          3D

 28 29  0  0  0  0  0  0  0  0999 V2000
   56.9980   31.1900   45.0250 N   0  0  0  0  0  0  0  0  0  0  0  0
   57.7290   30.1200   44.3520 C   0  0  0  0  0  0  0  0  0  0  0  0
   57.5600   28.8020   45.0850 C   0  0  0  0  0  0  0  0  0  0  0  0
   58.6770   28.0410   45.5100 C   0  0  0  0  0  0  0  0  0  0  0  0
   60.3670   28.6460   45.3330 S   0  0  0  0  0  0  0  0  0  0  0  0
   60.2210   29.8280   46.6850 C   0  0  0  0  0  0  0  0  0  0  0  0
   60.1320   31.1990   46.3990 C   0  0  0  0  0  0  0  0  0  0  0  0
   60.0080   32.1300   47.4340 C   0  0  0  0  0  0  0  0  0  0  0  0
   59.9830   31.7010   48.7620 C   0  0  0  0  0  0  0  0  0  0  0  0
   60.0910   30.3400   49.0590 C   0  0  0  0  0  0  0  0  0  0  0  0
   60.2160   29.4000   48.0280 C   0  0  0  0  0  0  0  0  0  0  0  0
   60.4020   27.7040   48.4560 Cl  0  0  0  0  0  0  0  0  0  0  0  0
   58.4800   26.7710   46.0680 C   0  0  0  0  0  0  0  0  0  0  0  0
   57.1940   26.2630   46.2410 C   0  0  0  0  0  0  0  0  0  0  0  0
   56.0870   27.0090   45.8390 C   0  0  0  0  0  0  0  0  0  0  0  0
   54.8080   26.4930   46.0130 O   0  0  0  0  0  0  0  0  0  0  0  0
   56.2630   28.2680   45.2530 C   0  0  0  0  0  0  0  0  0  0  0  0
   55.1450   28.9800   44.8300 O   0  0  0  0  0  0  0  0  0  0  0  0
   57.4490   31.3810   45.9490 H   0  0  0  0  0  0  0  0  0  0  0  0
   56.0210   30.8660   45.2100 H   0  0  0  0  0  0  0  0  0  0  0  0
   57.3465   30.0129   43.3262 H   0  0  0  0  0  0  0  0  0  0  0  0
   58.7978   30.3796   44.3393 H   0  0  0  0  0  0  0  0  0  0  0  0
   60.1600   31.5428   45.3545 H   0  0  0  0  0  0  0  0  0  0  0  0
   59.9300   33.2024   47.2017 H   0  0  0  0  0  0  0  0  0  0  0  0
   59.8783   32.4346   49.5749 H   0  0  0  0  0  0  0  0  0  0  0  0
   60.0778   30.0053   50.1068 H   0  0  0  0  0  0  0  0  0  0  0  0
   59.3489   26.1691   46.3725 H   0  0  0  0  0  0  0  0  0  0  0  0
   57.0520   25.2715   46.6956 H   0  0  0  0  0  0  0  0  0  0  0  0
  1  2  1  0
  2  3  1  0
  3  4  2  0
  4  5  1  0
  5  6  1  0
  6  7  2  0
  7  8  1  0
  8  9  2  0
  9 10  1  0
 10 11  2  0
 11 12  1  0
  4 13  1  0
 13 14  2  0
 14 15  1  0
 15 16  1  0
 15 17  2  0
 17 18  1  0
 17  3  1  0
 11  6  1  0
  1 19  1  0
  1 20  1  0
  2 21  1  0
  2 22  1  0
  7 23  1  0
  8 24  1  0
  9 25  1  0
 10 26  1  0
 13 27  1  0
 14 28  1  0
M  CHG  2  16  -1  18  -1
M  END
>  <UniqueID>  (7) 
7

>  <SMILES>  (7) 
NCc1c(Sc2ccccc2Cl)ccc([O-])c1[O-]

>  <Energy>  (7) 
27.57631843391041

>  <Genealogy>  (7) 
NCc1c(Sc2ccccc2Cl)ccc([O-])c1[O-] (protonated)
NCc1c(Sc2ccccc2Cl)ccc([O-])c1[O-] (3D coordinates assigned)
NCc1c(Sc2ccccc2Cl)ccc([O-])c1[O-] (optimized conformer: 27.57631843391041 kcal/mol)

>  <smiles>  (7) 
NCc1c(Sc2ccccc2Cl)ccc(O)c1O

>  <score_type>  (7) 
oracle

>  <origin>  (7) 
adg

>  <m_score__min__energy>  (7) 
-13.76

>  <m_primary>  (7) 
energy

$$$$
7:0
     RDKit          3D

 48 51  0  0  0  0  0  0  0  0999 V2000
   58.7670   32.4770   50.7560 C   0  0  0  0  0  0  0  0  0  0  0  0
   59.4570   33.8390   50.6960 C   0  0  0  0  0  0  0  0  0  0  0  0
   60.6360   33.7990   49.7490 C   0  0  0  0  0  0  0  0  0  0  0  0
   61.8390   33.4140   50.2780 N   0  0  0  0  0  0  0  0  0  0  0  0
   62.9130   33.3290   49.4630 C   0  0  0  0  0  0  0  0  0  0  0  0
   62.8370   33.5920   48.1390 C   0  0  0  0  0  0  0  0  0  0  0  0
   64.1100   33.3780   47.6410 C   0  0  0  0  0  0  0  0  0  0  0  0
   64.8950   32.9970   48.6800 N   0  0  0  0  0  0  0  0  0  0  0  0
   64.1660   32.9770   49.7930 N   0  0  0  0  0  0  0  0  0  0  0  0
   64.6490   32.5600   51.1050 C   0  0  0  0  0  0  0  0  0  0  0  0
   61.6360   33.9820   47.5730 C   0  0  0  0  0  0  0  0  0  0  0  0
   61.5800   34.2430   46.3390 O   0  0  0  0  0  0  0  0  0  0  0  0
   60.5220   34.0840   48.3870 N   0  0  0  0  0  0  0  0  0  0  0  0
   59.2400   34.5410   47.8030 C   0  0  0  0  0  0  0  0  0  0  0  0
   58.5710   33.4670   46.9710 C   0  0  0  0  0  0  0  0  0  0  0  0
   57.5890   33.7720   46.0090 C   0  0  0  0  0  0  0  0  0  0  0  0
   57.0220   32.7570   45.2330 C   0  0  0  0  0  0  0  0  0  0  0  0
   57.4570   31.4230   45.3760 C   0  0  0  0  0  0  0  0  0  0  0  0
   56.9080   30.3740   44.6220 O   0  0  0  0  0  0  0  0  0  0  0  0
   57.3340   29.0370   44.6470 C   0  0  0  0  0  0  0  0  0  0  0  0
   57.3360   28.2720   45.8310 C   0  0  0  0  0  0  0  0  0  0  0  0
   57.7470   26.9330   45.8070 C   0  0  0  0  0  0  0  0  0  0  0  0
   58.1380   26.3440   44.6040 C   0  0  0  0  0  0  0  0  0  0  0  0
   58.1260   27.0940   43.4220 C   0  0  0  0  0  0  0  0  0  0  0  0
   57.7230   28.4340   43.4440 C   0  0  0  0  0  0  0  0  0  0  0  0
   58.4360   31.1190   46.3280 C   0  0  0  0  0  0  0  0  0  0  0  0
   58.9970   32.1320   47.1120 C   0  0  0  0  0  0  0  0  0  0  0  0
   58.6198   32.1865   51.8067 H   0  0  0  0  0  0  0  0  0  0  0  0
   57.7910   32.5379   50.2523 H   0  0  0  0  0  0  0  0  0  0  0  0
   59.3934   31.7261   50.2523 H   0  0  0  0  0  0  0  0  0  0  0  0
   58.7374   34.5934   50.3452 H   0  0  0  0  0  0  0  0  0  0  0  0
   59.8196   34.0967   51.7020 H   0  0  0  0  0  0  0  0  0  0  0  0
   64.4275   33.4953   46.5944 H   0  0  0  0  0  0  0  0  0  0  0  0
   65.9080   32.7480   48.6270 H   0  0  0  0  0  0  0  0  0  0  0  0
   64.0645   33.0647   51.8883 H   0  0  0  0  0  0  0  0  0  0  0  0
   64.5364   31.4706   51.2079 H   0  0  0  0  0  0  0  0  0  0  0  0
   65.7103   32.8303   51.2079 H   0  0  0  0  0  0  0  0  0  0  0  0
   58.5620   34.8289   48.6200 H   0  0  0  0  0  0  0  0  0  0  0  0
   59.4568   35.3925   47.1412 H   0  0  0  0  0  0  0  0  0  0  0  0
   57.2665   34.8141   45.8675 H   0  0  0  0  0  0  0  0  0  0  0  0
   56.2323   33.0000   44.5069 H   0  0  0  0  0  0  0  0  0  0  0  0
   57.0133   28.7286   46.7783 H   0  0  0  0  0  0  0  0  0  0  0  0
   57.7615   26.3456   46.7369 H   0  0  0  0  0  0  0  0  0  0  0  0
   58.4555   25.2910   44.5844 H   0  0  0  0  0  0  0  0  0  0  0  0
   58.4340   26.6290   42.4739 H   0  0  0  0  0  0  0  0  0  0  0  0
   57.7116   29.0170   42.5113 H   0  0  0  0  0  0  0  0  0  0  0  0
   58.7661   30.0781   46.4605 H   0  0  0  0  0  0  0  0  0  0  0  0
   59.7782   31.8839   47.8456 H   0  0  0  0  0  0  0  0  0  0  0  0
  1  2  1  0
  2  3  1  0
  3  4  2  0
  4  5  1  0
  5  6  2  0
  6  7  1  0
  7  8  2  0
  8  9  1  0
  9 10  1  0
  6 11  1  0
 11 12  2  0
 11 13  1  0
 13 14  1  0
 14 15  1  0
 15 16  2  0
 16 17  1  0
 17 18  2  0
 18 19  1  0
 19 20  1  0
 20 21  2  0
 21 22  1  0
 22 23  2  0
 23 24  1  0
 24 25  2  0
 18 26  1  0
 26 27  2  0
 13  3  1  0
 27 15  1  0
  9  5  1  0
 25 20  1  0
  1 28  1  0
  1 29  1  0
  1 30  1  0
  2 31  1  0
  2 32  1  0
  7 33  1  0
  8 34  1  0
 10 35  1  0
 10 36  1  0
 10 37  1  0
 14 38  1  0
 14 39  1  0
 16 40  1  0
 17 41  1  0
 21 42  1  0
 22 43  1  0
 23 44  1  0
 24 45  1  0
 25 46  1  0
 26 47  1  0
 27 48  1  0
M  CHG  1   8   1
M  END
>  <UniqueID>  (8) 
8

>  <SMILES>  (8) 
CCc1nc2c(c[nH+]n2C)c(=O)n1Cc1ccc(Oc2ccccc2)cc1

>  <Energy>  (8) 
102.78265152055428

>  <Genealogy>  (8) 
CCc1nc2c(c[nH+]n2C)c(=O)n1Cc1ccc(Oc2ccccc2)cc1 (protonated)
CCc1nc2c(c[nH+]n2C)c(=O)n1Cc1ccc(Oc2ccccc2)cc1 (3D coordinates assigned)
CCc1nc2c(c[nH+]n2C)c(=O)n1Cc1ccc(Oc2ccccc2)cc1 (optimized conformer: 102.78265152055428 kcal/mol)

>  <smiles>  (8) 
CCc1nc2c(cnn2C)c(=O)n1Cc1ccc(Oc2ccccc2)cc1

>  <score_type>  (8) 
oracle

>  <origin>  (8) 
adg

>  <m_score__min__energy>  (8) 
-6.7800000000000002

>  <m_primary>  (8) 
energy

$$$$
8:0
     RDKit          3D

 41 43  0  0  0  0  0  0  0  0999 V2000
   58.4500   32.8770   42.8640 C   0  0  0  0  0  0  0  0  0  0  0  0
   57.7690   32.6730   44.1440 N   0  0  0  0  0  0  0  0  0  0  0  0
   57.5000   33.8210   45.0120 C   0  0  0  0  0  0  0  0  0  0  0  0
   57.0960   33.3850   46.4330 C   0  0  0  0  0  0  0  0  0  0  0  0
   58.2670   33.0240   47.2740 N   0  0  2  0  0  0  0  0  0  0  0  0
   59.2670   34.0760   47.2080 C   0  0  0  0  0  0  0  0  0  0  0  0
   58.9290   35.2340   46.8290 O   0  0  0  0  0  0  0  0  0  0  0  0
   60.6950   33.8270   47.5460 C   0  0  0  0  0  0  0  0  0  0  0  0
   61.0970   33.8130   48.8940 C   0  0  0  0  0  0  0  0  0  0  0  0
   62.4340   33.5860   49.2360 C   0  0  0  0  0  0  0  0  0  0  0  0
   63.3920   33.3770   48.2380 C   0  0  0  0  0  0  0  0  0  0  0  0
   64.7590   33.1450   48.5870 N   0  0  0  0  0  0  0  0  0  0  0  0
   63.0030   33.4020   46.8920 C   0  0  0  0  0  0  0  0  0  0  0  0
   61.6670   33.6260   46.5470 C   0  0  0  0  0  0  0  0  0  0  0  0
   58.8970   31.7570   46.8280 C   0  0  0  0  0  0  0  0  0  0  0  0
   58.0910   30.8970   45.8600 C   0  0  0  0  0  0  0  0  0  0  0  0
   57.8340   29.5730   46.2680 C   0  0  0  0  0  0  0  0  0  0  0  0
   57.0610   28.7150   45.4870 C   0  0  0  0  0  0  0  0  0  0  0  0
   56.5200   29.1620   44.2850 C   0  0  0  0  0  0  0  0  0  0  0  0
   56.7550   30.4690   43.8600 C   0  0  0  0  0  0  0  0  0  0  0  0
   57.5380   31.3450   44.6310 C   0  0  0  0  0  0  0  0  0  0  0  0
   59.4891   33.1883   43.0470 H   0  0  0  0  0  0  0  0  0  0  0  0
   58.4440   31.9376   42.2917 H   0  0  0  0  0  0  0  0  0  0  0  0
   57.9286   33.6584   42.2917 H   0  0  0  0  0  0  0  0  0  0  0  0
   58.4073   34.4398   45.0744 H   0  0  0  0  0  0  0  0  0  0  0  0
   56.6626   34.3872   44.5783 H   0  0  0  0  0  0  0  0  0  0  0  0
   56.5572   34.2135   46.9160 H   0  0  0  0  0  0  0  0  0  0  0  0
   56.4636   32.4898   46.3400 H   0  0  0  0  0  0  0  0  0  0  0  0
   57.9660   32.9360   48.2710 H   0  0  0  0  0  0  0  0  0  0  0  0
   60.3530   33.9821   49.6863 H   0  0  0  0  0  0  0  0  0  0  0  0
   62.7337   33.5717   50.2943 H   0  0  0  0  0  0  0  0  0  0  0  0
   65.4980   33.0940   47.8510 H   0  0  0  0  0  0  0  0  0  0  0  0
   65.0420   33.0240   49.5850 H   0  0  0  0  0  0  0  0  0  0  0  0
   63.7529   33.2445   46.1028 H   0  0  0  0  0  0  0  0  0  0  0  0
   61.3727   33.6454   45.4873 H   0  0  0  0  0  0  0  0  0  0  0  0
   59.8472   32.0120   46.3360 H   0  0  0  0  0  0  0  0  0  0  0  0
   59.0010   31.1487   47.7386 H   0  0  0  0  0  0  0  0  0  0  0  0
   58.2505   29.2101   47.2192 H   0  0  0  0  0  0  0  0  0  0  0  0
   56.8784   27.6831   45.8213 H   0  0  0  0  0  0  0  0  0  0  0  0
   55.9078   28.4850   43.6711 H   0  0  0  0  0  0  0  0  0  0  0  0
   56.3227   30.8183   42.9107 H   0  0  0  0  0  0  0  0  0  0  0  0
  1  2  1  0
  2  3  1  0
  3  4  1  0
  4  5  1  0
  5  6  1  0
  6  7  2  0
  6  8  1  0
  8  9  2  0
  9 10  1  0
 10 11  2  0
 11 12  1  0
 11 13  1  0
 13 14  2  0
  5 15  1  0
 15 16  1  0
 16 17  2  0
 17 18  1  0
 18 19  2  0
 19 20  1  0
 20 21  2  0
 21  2  1  0
 14  8  1  0
 21 16  1  0
  1 22  1  0
  1 23  1  0
  1 24  1  0
  3 25  1  0
  3 26  1  0
  4 27  1  0
  4 28  1  0
  5 29  1  1
  9 30  1  0
 10 31  1  0
 12 32  1  0
 12 33  1  0
 13 34  1  0
 14 35  1  0
 15 36  1  0
 15 37  1  0
 17 38  1  0
 18 39  1  0
 19 40  1  0
 20 41  1  0
M  CHG  1   5   1
M  END
>  <UniqueID>  (9) 
9

>  <SMILES>  (9) 
CN1CC[N@H+](C(=O)c2ccc(N)cc2)Cc2ccccc21

>  <Energy>  (9) 
62.93257345342417

>  <Genealogy>  (9) 
CN1CC[NH+](C(=O)c2ccc(N)cc2)Cc2ccccc21 (protonated)
CN1CC[N@H+](C(=O)c2ccc(N)cc2)Cc2ccccc21 (chirality)
CN1CC[N@H+](C(=O)c2ccc(N)cc2)Cc2ccccc21 (3D coordinates assigned)
CN1CC[N@H+](C(=O)c2ccc(N)cc2)Cc2ccccc21 (nonaromatic ring conformer: 62.93257345342417 kcal/mol)

>  <smiles>  (9) 
CN1CCN(C(=O)c2ccc(N)cc2)Cc2ccccc21

>  <score_type>  (9) 
oracle

>  <origin>  (9) 
adg

>  <m_score__min__energy>  (9) 
-4.2599999999999998

>  <m_primary>  (9) 
energy

$$$$
9:0
     RDKit          3D

 38 40  0  0  0  0  0  0  0  0999 V2000
   62.5010   30.8630   50.1320 C   0  0  0  0  0  0  0  0  0  0  0  0
   62.4220   31.8380   48.9900 C   0  0  0  0  0  0  0  0  0  0  0  0
   61.2710   31.8780   48.1840 C   0  0  0  0  0  0  0  0  0  0  0  0
   61.1770   32.7760   47.1040 C   0  0  0  0  0  0  0  0  0  0  0  0
   59.9880   32.8670   46.2970 N   0  0  0  0  0  0  0  0  0  0  0  0
   58.8290   33.6330   46.6610 C   0  0  0  0  0  0  0  0  0  0  0  0
   58.5540   33.8310   47.8750 O   0  0  0  0  0  0  0  0  0  0  0  0
   57.8790   34.1340   45.6100 C   0  0  0  0  0  0  0  0  0  0  0  0
   58.1590   33.3770   43.9660 S   0  0  0  0  0  0  0  0  0  0  0  0
   57.7170   31.7120   44.4600 C   0  0  0  0  0  0  0  0  0  0  0  0
   56.4580   31.2420   44.5100 N   0  0  0  0  0  0  0  0  0  0  0  0
   56.5550   29.9780   44.8970 N   0  0  0  0  0  0  0  0  0  0  0  0
   57.8680   29.7330   45.0690 C   0  0  0  0  0  0  0  0  0  0  0  0
   58.4370   28.4440   45.4910 C   0  0  0  0  0  0  0  0  0  0  0  0
   58.9570   28.1670   46.7380 C   0  0  0  0  0  0  0  0  0  0  0  0
   59.3830   26.8550   46.6840 C   0  0  0  0  0  0  0  0  0  0  0  0
   59.1460   26.3570   45.4910 O   0  0  0  0  0  0  0  0  0  0  0  0
   58.5800   27.2830   44.7510 C   0  0  0  0  0  0  0  0  0  0  0  0
   58.1750   27.0690   43.3280 C   0  0  0  0  0  0  0  0  0  0  0  0
   58.5870   30.7970   44.8060 O   0  0  0  0  0  0  0  0  0  0  0  0
   62.2410   33.6530   46.8560 C   0  0  0  0  0  0  0  0  0  0  0  0
   63.3930   33.6130   47.6440 C   0  0  0  0  0  0  0  0  0  0  0  0
   63.4930   32.7090   48.7050 C   0  0  0  0  0  0  0  0  0  0  0  0
   65.1040   32.7030   49.7470 Br  0  0  0  0  0  0  0  0  0  0  0  0
   62.4567   31.4103   51.0851 H   0  0  0  0  0  0  0  0  0  0  0  0
   61.6569   30.1602   50.0731 H   0  0  0  0  0  0  0  0  0  0  0  0
   63.4473   30.3052   50.0731 H   0  0  0  0  0  0  0  0  0  0  0  0
   60.4330   31.1989   48.4000 H   0  0  0  0  0  0  0  0  0  0  0  0
   59.9670   32.3530   45.3880 H   0  0  0  0  0  0  0  0  0  0  0  0
   56.8516   33.9057   45.9298 H   0  0  0  0  0  0  0  0  0  0  0  0
   58.0479   35.2159   45.5052 H   0  0  0  0  0  0  0  0  0  0  0  0
   59.0194   28.8502   47.5978 H   0  0  0  0  0  0  0  0  0  0  0  0
   59.8511   26.3079   47.5156 H   0  0  0  0  0  0  0  0  0  0  0  0
   57.2028   26.5553   43.2968 H   0  0  0  0  0  0  0  0  0  0  0  0
   58.0925   28.0412   42.8201 H   0  0  0  0  0  0  0  0  0  0  0  0
   58.9317   26.4530   42.8201 H   0  0  0  0  0  0  0  0  0  0  0  0
   62.1682   34.3795   46.0333 H   0  0  0  0  0  0  0  0  0  0  0  0
   64.2269   34.2972   47.4283 H   0  0  0  0  0  0  0  0  0  0  0  0
  1  2  1  0
  2  3  2  0
  3  4  1  0
  4  5  1  0
  5  6  1  0
  6  7  2  0
  6  8  1  0
  8  9  1  0
  9 10  1  0
 10 11  2  0
 11 12  1  0
 12 13  2  0
 13 14  1  0
 14 15  1  0
 15 16  2  0
 16 17  1  0
 17 18  1  0
 18 19  1  0
 13 20  1  0
  4 21  2  0
 21 22  1  0
 22 23  2  0
 23 24  1  0
 23  2  1  0
 20 10  1  0
 18 14  2  0
  1 25  1  0
  1 26  1  0
  1 27  1  0
  3 28  1  0
  5 29  1  0
  8 30  1  0
  8 31  1  0
 15 32  1  0
 16 33  1  0
 19 34  1  0
 19 35  1  0
 19 36  1  0
 21 37  1  0
 22 38  1  0
M  END
>  <UniqueID>  (10) 
10

>  <SMILES>  (10) 
Cc1cc(NC(=O)CSc2nnc(-c3ccoc3C)o2)ccc1Br

>  <Energy>  (10) 
95.47190786478899

>  <Genealogy>  (10) 
Cc1cc(NC(=O)CSc2nnc(-c3ccoc3C)o2)ccc1Br (3D coordinates assigned)
Cc1cc(NC(=O)CSc2nnc(-c3ccoc3C)o2)ccc1Br (optimized conformer: 95.47190786478899 kcal/mol)

>  <smiles>  (10) 
Cc1cc(NC(=O)CSc2nnc(-c3ccoc3C)o2)ccc1Br

>  <score_type>  (10) 
oracle

>  <origin>  (10) 
adg

>  <m_score__min__energy>  (10) 
-8.0600000000000005

>  <m_primary>  (10) 
energy

$$$$
10:0
     RDKit          3D

 32 33  0  0  0  0  0  0  0  0999 V2000
   60.9770   32.8060   46.7440 C   0  0  0  0  0  0  0  0  0  0  0  0
   59.9330   33.8250   46.9470 N   0  0  0  0  0  0  0  0  0  0  0  0
   58.7540   33.2730   47.6630 C   0  0  0  0  0  0  0  0  0  0  0  0
   57.5330   33.0230   46.7570 C   0  0  0  0  0  0  0  0  0  0  0  0
   57.9680   32.6630   45.4050 N   0  0  0  0  0  0  0  0  0  0  0  0
   57.5310   31.4390   44.7790 C   0  0  0  0  0  0  0  0  0  0  0  0
   57.2260   31.4100   43.4120 C   0  0  0  0  0  0  0  0  0  0  0  0
   56.7890   30.2220   42.8280 C   0  0  0  0  0  0  0  0  0  0  0  0
   56.6530   29.0960   43.5780 N   0  0  0  0  0  0  0  0  0  0  0  0
   56.9310   29.0860   44.9160 C   0  0  0  0  0  0  0  0  0  0  0  0
   56.7690   27.8430   45.7070 C   0  0  0  0  0  0  0  0  0  0  0  0
   55.5640   27.0860   45.6220 N   0  0  0  0  0  0  0  0  0  0  0  0
   57.6950   27.4430   46.4640 O   0  0  0  0  0  0  0  0  0  0  0  0
   57.3730   30.2690   45.5350 C   0  0  0  0  0  0  0  0  0  0  0  0
   58.8760   33.5720   44.6970 C   0  0  0  0  0  0  0  0  0  0  0  0
   59.5840   34.5140   45.6850 C   0  0  0  0  0  0  0  0  0  0  0  0
   61.3392   32.4525   47.7207 H   0  0  0  0  0  0  0  0  0  0  0  0
   60.5584   31.9595   46.1799 H   0  0  0  0  0  0  0  0  0  0  0  0
   61.8131   33.2450   46.1799 H   0  0  0  0  0  0  0  0  0  0  0  0
   59.0449   32.3173   48.1235 H   0  0  0  0  0  0  0  0  0  0  0  0
   58.4511   34.0254   48.4060 H   0  0  0  0  0  0  0  0  0  0  0  0
   56.9326   32.2019   47.1757 H   0  0  0  0  0  0  0  0  0  0  0  0
   56.9310   33.9423   46.7062 H   0  0  0  0  0  0  0  0  0  0  0  0
   57.3308   32.3198   42.8027 H   0  0  0  0  0  0  0  0  0  0  0  0
   56.5528   30.1953   41.7540 H   0  0  0  0  0  0  0  0  0  0  0  0
   56.3220   28.2280   43.1000 H   0  0  0  0  0  0  0  0  0  0  0  0
   54.8670   27.0960   46.4000 H   0  0  0  0  0  0  0  0  0  0  0  0
   57.5947   30.2762   46.6124 H   0  0  0  0  0  0  0  0  0  0  0  0
   59.6310   32.9806   44.1583 H   0  0  0  0  0  0  0  0  0  0  0  0
   58.2892   34.1776   43.9906 H   0  0  0  0  0  0  0  0  0  0  0  0
   60.5060   34.8914   45.2186 H   0  0  0  0  0  0  0  0  0  0  0  0
   58.8960   35.3382   45.9244 H   0  0  0  0  0  0  0  0  0  0  0  0
  1  2  1  0
  2  3  1  0
  3  4  1  0
  4  5  1  0
  5  6  1  0
  6  7  2  0
  7  8  1  0
  8  9  2  0
  9 10  1  0
 10 11  1  0
 11 12  1  0
 11 13  2  0
 10 14  2  0
  5 15  1  0
 15 16  1  0
 16  2  1  0
 14  6  1  0
  1 17  1  0
  1 18  1  0
  1 19  1  0
  3 20  1  0
  3 21  1  0
  4 22  1  0
  4 23  1  0
  7 24  1  0
  8 25  1  0
  9 26  1  0
 12 27  1  0
 14 28  1  0
 15 29  1  0
 15 30  1  0
 16 31  1  0
 16 32  1  0
M  CHG  2   9   1  12  -1
M  END
>  <UniqueID>  (11) 
11

>  <SMILES>  (11) 
CN1CCN(c2cc[nH+]c(C([NH-])=O)c2)CC1

>  <Energy>  (11) 
42.65320358740437

>  <Genealogy>  (11) 
CN1CCN(c2cc[nH+]c(C([NH-])=O)c2)CC1 (protonated)
CN1CCN(c2cc[nH+]c(C([NH-])=O)c2)CC1 (3D coordinates assigned)
CN1CCN(c2cc[nH+]c(C([NH-])=O)c2)CC1 (nonaromatic ring conformer: 42.65320358740437 kcal/mol)

>  <smiles>  (11) 
CN1CCN(c2ccnc(C(N)=O)c2)CC1

>  <score_type>  (11) 
oracle

>  <origin>  (11) 
adg

>  <m_score__min__energy>  (11) 
-7.6799999999999997

>  <m_primary>  (11) 
energy

$$$$
11:0
     RDKit          3D

 28 28  0  0  0  0  0  0  0  0999 V2000
   54.1270   25.0630   45.6210 C   0  0  0  0  0  0  0  0  0  0  0  0
   54.7760   26.3120   45.9920 N   0  0  0  0  0  0  0  0  0  0  0  0
   56.1520   26.3850   46.3750 C   0  0  0  0  0  0  0  0  0  0  0  0
   56.6540   25.4960   47.1140 O   0  0  0  0  0  0  0  0  0  0  0  0
   56.9840   27.4970   45.9070 C   0  0  0  0  0  0  0  0  0  0  0  0
   58.2240   27.4960   46.1420 O   0  0  0  0  0  0  0  0  0  0  0  0
   56.3930   28.5530   45.2060 O   0  0  0  0  0  0  0  0  0  0  0  0
   56.9880   29.1650   44.0620 C   0  0  0  0  0  0  0  0  0  0  0  0
   57.4060   30.5750   44.3790 C   0  0  0  0  0  0  0  0  0  0  0  0
   57.4260   31.5430   43.3650 C   0  0  0  0  0  0  0  0  0  0  0  0
   57.8320   32.8520   43.6450 C   0  0  0  0  0  0  0  0  0  0  0  0
   58.2280   33.2080   44.9480 C   0  0  0  0  0  0  0  0  0  0  0  0
   58.6430   34.5070   45.2800 O   0  0  0  0  0  0  0  0  0  0  0  0
   59.6360   34.8080   46.2530 C   0  0  0  0  0  0  0  0  0  0  0  0
   58.2110   32.2370   45.9560 C   0  0  0  0  0  0  0  0  0  0  0  0
   57.8050   30.9300   45.6770 C   0  0  0  0  0  0  0  0  0  0  0  0
   53.8416   24.5138   46.5304 H   0  0  0  0  0  0  0  0  0  0  0  0
   53.2275   25.2798   45.0261 H   0  0  0  0  0  0  0  0  0  0  0  0
   54.8214   24.4515   45.0261 H   0  0  0  0  0  0  0  0  0  0  0  0
   57.8718   28.5845   43.7590 H   0  0  0  0  0  0  0  0  0  0  0  0
   56.2514   29.1864   43.2453 H   0  0  0  0  0  0  0  0  0  0  0  0
   57.1207   31.2716   42.3436 H   0  0  0  0  0  0  0  0  0  0  0  0
   57.8418   33.6059   42.8440 H   0  0  0  0  0  0  0  0  0  0  0  0
   59.2131   34.6798   47.2603 H   0  0  0  0  0  0  0  0  0  0  0  0
   60.4920   34.1290   46.1256 H   0  0  0  0  0  0  0  0  0  0  0  0
   59.9709   35.8480   46.1256 H   0  0  0  0  0  0  0  0  0  0  0  0
   58.5201   32.5056   46.9769 H   0  0  0  0  0  0  0  0  0  0  0  0
   57.7979   30.1759   46.4778 H   0  0  0  0  0  0  0  0  0  0  0  0
  1  2  1  0
  2  3  1  0
  3  4  2  0
  3  5  1  0
  5  6  2  0
  5  7  1  0
  7  8  1  0
  8  9  1  0
  9 10  2  0
 10 11  1  0
 11 12  2  0
 12 13  1  0
 13 14  1  0
 12 15  1  0
 15 16  2  0
 16  9  1  0
  1 17  1  0
  1 18  1  0
  1 19  1  0
  8 20  1  0
  8 21  1  0
 10 22  1  0
 11 23  1  0
 14 24  1  0
 14 25  1  0
 14 26  1  0
 15 27  1  0
 16 28  1  0
M  CHG  1   2  -1
M  END
>  <UniqueID>  (12) 
12

>  <SMILES>  (12) 
C[N-]C(=O)C(=O)OCc1ccc(OC)cc1

>  <Energy>  (12) 
19.40611685678153

>  <Genealogy>  (12) 
C[N-]C(=O)C(=O)OCc1ccc(OC)cc1 (protonated)
C[N-]C(=O)C(=O)OCc1ccc(OC)cc1 (3D coordinates assigned)
C[N-]C(=O)C(=O)OCc1ccc(OC)cc1 (optimized conformer: 19.40611685678153 kcal/mol)

>  <smiles>  (12) 
CNC(=O)C(=O)OCc1ccc(OC)cc1

>  <score_type>  (12) 
oracle

>  <origin>  (12) 
adg

>  <m_score__min__energy>  (12) 
-7.5499999999999998

>  <m_primary>  (12) 
energy

$$$$
12:0
     RDKit          3D

 43 46  0  0  0  0  0  0  0  0999 V2000
   53.6799   24.2661   46.0806 H   0  0  0  0  0  0  0  0  0  0  0  0
   54.6730   24.4900   45.6640 C   0  0  0  0  0  0  0  0  0  0  0  0
   55.2990   25.6530   45.9870 N   0  0  0  0  0  0  0  0  0  0  0  0
   56.5300   25.9730   45.4980 C   0  0  0  0  0  0  0  0  0  0  0  0
   57.1540   27.2520   45.8890 C   0  0  0  0  0  0  0  0  0  0  0  0
   58.0990   27.2710   46.8640 N   0  0  0  0  0  0  0  0  0  0  0  0
   58.6810   28.4390   47.2420 C   0  0  0  0  0  0  0  0  0  0  0  0
   59.6860   28.4610   48.2770 N   0  0  0  0  0  0  0  0  0  0  0  0
   60.0360   29.7410   48.9060 C   0  0  0  0  0  0  0  0  0  0  0  0
   60.4094   30.4303   48.1344 H   0  0  0  0  0  0  0  0  0  0  0  0
   59.1363   30.1511   49.3879 H   0  0  0  0  0  0  0  0  0  0  0  0
   61.1160   29.5530   49.9730 C   0  0  0  0  0  0  0  0  0  0  0  0
   62.0855   29.3809   49.4826 H   0  0  0  0  0  0  0  0  0  0  0  0
   61.1665   30.4578   50.5965 H   0  0  0  0  0  0  0  0  0  0  0  0
   60.7920   28.4030   50.8230 N   0  0  0  0  0  0  0  0  0  0  0  0
   59.8430   28.5560   51.2410 H   0  0  0  0  0  0  0  0  0  0  0  0
   60.7860   27.1290   50.0780 C   0  0  0  0  0  0  0  0  0  0  0  0
   61.7723   26.6568   50.1976 H   0  0  0  0  0  0  0  0  0  0  0  0
   59.9661   26.5267   50.4964 H   0  0  0  0  0  0  0  0  0  0  0  0
   60.4990   27.2700   48.5660 C   0  0  0  0  0  0  0  0  0  0  0  0
   61.4547   27.3512   48.0275 H   0  0  0  0  0  0  0  0  0  0  0  0
   59.9372   26.3828   48.2387 H   0  0  0  0  0  0  0  0  0  0  0  0
   58.3100   29.5930   46.6290 N   0  0  0  0  0  0  0  0  0  0  0  0
   57.3740   29.5860   45.6430 C   0  0  0  0  0  0  0  0  0  0  0  0
   56.9950   30.6880   45.0630 N   0  0  0  0  0  0  0  0  0  0  0  0
   57.6100   31.9820   45.1850 C   0  0  0  0  0  0  0  0  0  0  0  0
   57.7780   32.6180   46.4320 C   0  0  0  0  0  0  0  0  0  0  0  0
   57.4127   32.1318   47.3486 H   0  0  0  0  0  0  0  0  0  0  0  0
   58.4070   33.8640   46.5080 C   0  0  0  0  0  0  0  0  0  0  0  0
   58.5204   34.3635   47.4815 H   0  0  0  0  0  0  0  0  0  0  0  0
   58.8920   34.4760   45.3490 C   0  0  0  0  0  0  0  0  0  0  0  0
   59.3794   35.4603   45.4097 H   0  0  0  0  0  0  0  0  0  0  0  0
   58.7580   33.8380   44.1130 C   0  0  0  0  0  0  0  0  0  0  0  0
   59.1471   34.3164   43.2021 H   0  0  0  0  0  0  0  0  0  0  0  0
   58.1290   32.5910   44.0340 C   0  0  0  0  0  0  0  0  0  0  0  0
   58.0410   32.0846   43.0615 H   0  0  0  0  0  0  0  0  0  0  0  0
   56.7940   28.4140   45.2840 N   0  0  0  0  0  0  0  0  0  0  0  0
   57.1790   25.0770   44.6300 C   0  0  0  0  0  0  0  0  0  0  0  0
   58.1731   25.3181   44.2255 H   0  0  0  0  0  0  0  0  0  0  0  0
   56.5500   23.8780   44.2860 C   0  0  0  0  0  0  0  0  0  0  0  0
   57.0480   23.1698   43.6074 H   0  0  0  0  0  0  0  0  0  0  0  0
   55.2900   23.5800   44.8040 C   0  0  0  0  0  0  0  0  0  0  0  0
   54.7879   22.6382   44.5378 H   0  0  0  0  0  0  0  0  0  0  0  0
  1  2  1  0
  2  3  2  0
  3  4  1  0
  4  5  1  0
  5  6  2  0
  6  7  1  0
  7  8  1  0
  8  9  1  0
  9 10  1  0
  9 11  1  0
  9 12  1  0
 12 13  1  0
 12 14  1  0
 12 15  1  0
 15 16  1  0
 15 17  1  0
 17 18  1  0
 17 19  1  0
 17 20  1  0
 20 21  1  0
 20 22  1  0
  7 23  2  0
 23 24  1  0
 24 25  2  0
 25 26  1  0
 26 27  2  0
 27 28  1  0
 27 29  1  0
 29 30  1  0
 29 31  2  0
 31 32  1  0
 31 33  1  0
 33 34  1  0
 33 35  2  0
 35 36  1  0
 24 37  1  0
  4 38  2  0
 38 39  1  0
 38 40  1  0
 40 41  1  0
 40 42  2  0
 42 43  1  0
 42  2  1  0
 37  5  1  0
 20  8  1  0
 35 26  1  0
M  CHG  1  37  -1
M  END
>  <UniqueID>  (13) 
13

>  <SMILES>  (13) 
c1ccc(/N=c2\nc(N3CCNCC3)nc(-c3ccccn3)[n-]2)cc1

>  <Energy>  (13) 
58.277844915774054

>  <Genealogy>  (13) 
c1ccc(N=c2nc(N3CCNCC3)nc(-c3ccccn3)[n-]2)cc1 (protonated)
c1ccc(/N=c2\nc(N3CCNCC3)nc(-c3ccccn3)[n-]2)cc1 (cis-trans isomerization)
c1ccc(/N=c2\nc(N3CCNCC3)nc(-c3ccccn3)[n-]2)cc1 (3D coordinates assigned)
c1ccc(/N=c2\nc(N3CCNCC3)nc(-c3ccccn3)[n-]2)cc1 (nonaromatic ring conformer: 58.277844915774054 kcal/mol)

>  <smiles>  (13) 
c1ccc(N=c2nc(N3CCNCC3)nc(-c3ccccn3)[nH]2)cc1

>  <score_type>  (13) 
oracle

>  <origin>  (13) 
adg

>  <m_score__min__energy>  (13) 
-8.9900000000000002

>  <m_primary>  (13) 
energy

$$$$
13:0
     RDKit          3D

 50 53  0  0  0  0  0  0  0  0999 V2000
   58.8720   24.5500   45.9530 C   0  0  0  0  0  0  0  0  0  0  0  0
   57.5860   25.2740   46.2900 C   0  0  0  0  0  0  0  0  0  0  0  0
   56.4870   24.9750   45.3220 C   0  0  0  0  0  0  0  0  0  0  0  0
   57.8940   26.7340   46.3110 C   0  0  0  0  0  0  0  0  0  0  0  0
   57.7980   27.4420   45.1310 C   0  0  0  0  0  0  0  0  0  0  0  0
   58.0800   28.7930   45.1360 C   0  0  0  0  0  0  0  0  0  0  0  0
   57.9920   29.5710   43.9260 N   0  0  0  0  0  0  0  0  0  0  0  0
   57.0010   30.9770   43.8190 S   0  0  0  0  0  0  0  0  0  0  0  0
   56.7610   31.2630   42.3640 O   0  0  0  0  0  0  0  0  0  0  0  0
   55.7350   30.6860   44.5260 O   0  0  0  0  0  0  0  0  0  0  0  0
   57.7680   32.3140   44.6300 C   0  0  0  0  0  0  0  0  0  0  0  0
   58.5210   33.3590   44.0900 C   0  0  0  0  0  0  0  0  0  0  0  0
   59.0210   34.2860   44.8930 C   0  0  0  0  0  0  0  0  0  0  0  0
   58.7890   34.2010   46.2490 C   0  0  0  0  0  0  0  0  0  0  0  0
   57.7570   32.6460   46.3820 S   0  0  0  0  0  0  0  0  0  0  0  0
   58.4530   29.4060   46.3290 C   0  0  0  0  0  0  0  0  0  0  0  0
   58.5600   28.7340   47.5160 C   0  0  0  0  0  0  0  0  0  0  0  0
   58.9160   29.2530   48.7260 O   0  0  0  0  0  0  0  0  0  0  0  0
   59.2940   30.5290   49.0210 C   0  0  0  0  0  0  0  0  0  0  0  0
   60.4230   31.0250   48.3550 C   0  0  0  0  0  0  0  0  0  0  0  0
   60.8930   32.3030   48.5800 C   0  0  0  0  0  0  0  0  0  0  0  0
   62.0790   32.7860   47.8610 C   0  0  0  0  0  0  0  0  0  0  0  0
   62.0710   33.6820   46.8110 C   0  0  0  0  0  0  0  0  0  0  0  0
   63.3670   33.8920   46.3960 C   0  0  0  0  0  0  0  0  0  0  0  0
   64.1360   33.1270   47.1930 N   0  0  0  0  0  0  0  0  0  0  0  0
   63.3730   32.4650   48.0680 N   0  0  0  0  0  0  0  0  0  0  0  0
   60.2550   33.1270   49.4720 C   0  0  0  0  0  0  0  0  0  0  0  0
   59.1440   32.6210   50.1190 C   0  0  0  0  0  0  0  0  0  0  0  0
   58.7100   31.3700   49.8780 N   0  0  0  0  0  0  0  0  0  0  0  0
   58.2670   27.3660   47.4760 C   0  0  0  0  0  0  0  0  0  0  0  0
   59.3847   24.2614   46.8824 H   0  0  0  0  0  0  0  0  0  0  0  0
   58.6423   23.6486   45.3658 H   0  0  0  0  0  0  0  0  0  0  0  0
   59.5235   25.2139   45.3658 H   0  0  0  0  0  0  0  0  0  0  0  0
   57.2194   24.9310   47.2687 H   0  0  0  0  0  0  0  0  0  0  0  0
   55.5693   24.7253   45.8748 H   0  0  0  0  0  0  0  0  0  0  0  0
   56.3057   25.8565   44.6894 H   0  0  0  0  0  0  0  0  0  0  0  0
   56.7772   24.1232   44.6894 H   0  0  0  0  0  0  0  0  0  0  0  0
   57.5011   26.9373   44.1998 H   0  0  0  0  0  0  0  0  0  0  0  0
   58.5730   29.2160   43.1350 H   0  0  0  0  0  0  0  0  0  0  0  0
   58.6975   33.4118   43.0055 H   0  0  0  0  0  0  0  0  0  0  0  0
   59.6154   35.1153   44.4819 H   0  0  0  0  0  0  0  0  0  0  0  0
   59.1252   34.8761   47.0498 H   0  0  0  0  0  0  0  0  0  0  0  0
   58.6725   30.4838   46.3167 H   0  0  0  0  0  0  0  0  0  0  0  0
   60.9476   30.3797   47.6350 H   0  0  0  0  0  0  0  0  0  0  0  0
   61.1759   34.1514   46.3769 H   0  0  0  0  0  0  0  0  0  0  0  0
   63.7044   34.5494   45.5811 H   0  0  0  0  0  0  0  0  0  0  0  0
   65.1780   33.1010   47.0900 H   0  0  0  0  0  0  0  0  0  0  0  0
   60.6133   34.1491   49.6644 H   0  0  0  0  0  0  0  0  0  0  0  0
   58.6056   33.2506   50.8426 H   0  0  0  0  0  0  0  0  0  0  0  0
   58.3368   26.7781   48.4031 H   0  0  0  0  0  0  0  0  0  0  0  0
  1  2  1  0
  2  3  1  0
  2  4  1  0
  4  5  2  0
  5  6  1  0
  6  7  1  0
  7  8  1  0
  8  9  2  0
  8 10  2  0
  8 11  1  0
 11 12  2  0
 12 13  1  0
 13 14  2  0
 14 15  1  0
  6 16  2  0
 16 17  1  0
 17 18  1  0
 18 19  1  0
 19 20  2  0
 20 21  1  0
 21 22  1  0
 22 23  1  0
 23 24  2  0
 24 25  1  0
 25 26  1  0
 21 27  2  0
 27 28  1  0
 28 29  2  0
 17 30  2  0
 30  4  1  0
 15 11  1  0
 29 19  1  0
 26 22  2  0
  1 31  1  0
  1 32  1  0
  1 33  1  0
  2 34  1  0
  3 35  1  0
  3 36  1  0
  3 37  1  0
  5 38  1  0
  7 39  1  0
 12 40  1  0
 13 41  1  0
 14 42  1  0
 16 43  1  0
 20 44  1  0
 23 45  1  0
 24 46  1  0
 25 47  1  0
 27 48  1  0
 28 49  1  0
 30 50  1  0
M  END
>  <smiles>  (14) 
CC(C)c1cc(NS(=O)(=O)c2cccs2)cc(Oc2cc(-c3cc[nH]n3)ccn2)c1

>  <score_type>  (14) 
oracle

>  <origin>  (14) 
adg

>  <m_score__min__energy>  (14) 
-10.32

>  <m_primary>  (14) 
energy

$$$$
14:0
     RDKit          3D

 37 38  0  0  0  0  0  0  0  0999 V2000
   63.3250   33.8120   47.7190 C   0  0  0  0  0  0  0  0  0  0  0  0
   62.1870   33.0540   47.1200 C   0  0  0  0  0  0  0  0  0  0  0  0
   62.2410   31.7950   47.0720 O   0  0  0  0  0  0  0  0  0  0  0  0
   61.0910   33.7640   46.5210 N   0  0  0  0  0  0  0  0  0  0  0  0
   59.8690   33.1440   46.0850 C   0  0  0  0  0  0  0  0  0  0  0  0
   59.3440   32.0140   46.7370 C   0  0  0  0  0  0  0  0  0  0  0  0
   58.1430   31.4440   46.3060 C   0  0  0  0  0  0  0  0  0  0  0  0
   57.4310   32.0160   45.2400 C   0  0  0  0  0  0  0  0  0  0  0  0
   56.2170   31.4280   44.7580 N   0  0  0  0  0  0  0  0  0  0  0  0
   56.0670   30.0830   44.2900 C   0  0  0  0  0  0  0  0  0  0  0  0
   55.2430   29.3300   44.8770 O   0  0  0  0  0  0  0  0  0  0  0  0
   56.9610   29.5310   43.2040 C   0  0  0  0  0  0  0  0  0  0  0  0
   57.7830   28.3560   43.6720 C   0  0  0  0  0  0  0  0  0  0  0  0
   57.7750   27.3080   42.9690 O   0  0  0  0  0  0  0  0  0  0  0  0
   58.6120   28.4050   44.9070 C   0  0  0  0  0  0  0  0  0  0  0  0
   59.9190   28.9290   44.8550 C   0  0  0  0  0  0  0  0  0  0  0  0
   60.7100   28.9830   46.0060 C   0  0  0  0  0  0  0  0  0  0  0  0
   60.2110   28.5180   47.2240 C   0  0  0  0  0  0  0  0  0  0  0  0
   58.9170   27.9990   47.2940 C   0  0  0  0  0  0  0  0  0  0  0  0
   58.1200   27.9420   46.1450 C   0  0  0  0  0  0  0  0  0  0  0  0
   57.9570   33.1330   44.5840 C   0  0  0  0  0  0  0  0  0  0  0  0
   59.1580   33.7050   45.0140 C   0  0  0  0  0  0  0  0  0  0  0  0
   63.2582   33.7675   48.8161 H   0  0  0  0  0  0  0  0  0  0  0  0
   64.2756   33.3660   47.3912 H   0  0  0  0  0  0  0  0  0  0  0  0
   63.2798   34.8610   47.3912 H   0  0  0  0  0  0  0  0  0  0  0  0
   61.2280   34.7790   46.3160 H   0  0  0  0  0  0  0  0  0  0  0  0
   59.8817   31.5763   47.5910 H   0  0  0  0  0  0  0  0  0  0  0  0
   57.7541   30.5436   46.8040 H   0  0  0  0  0  0  0  0  0  0  0  0
   56.3329   29.2082   42.3606 H   0  0  0  0  0  0  0  0  0  0  0  0
   57.6580   30.3289   42.9081 H   0  0  0  0  0  0  0  0  0  0  0  0
   60.3204   29.2989   43.9000 H   0  0  0  0  0  0  0  0  0  0  0  0
   61.7292   29.3933   45.9519 H   0  0  0  0  0  0  0  0  0  0  0  0
   60.8368   28.5605   48.1276 H   0  0  0  0  0  0  0  0  0  0  0  0
   58.5230   27.6342   48.2540 H   0  0  0  0  0  0  0  0  0  0  0  0
   57.1010   27.5325   46.2080 H   0  0  0  0  0  0  0  0  0  0  0  0
   57.4228   33.5643   43.7246 H   0  0  0  0  0  0  0  0  0  0  0  0
   59.5480   34.6010   44.5090 H   0  0  0  0  0  0  0  0  0  0  0  0
  1  2  1  0
  2  3  2  0
  2  4  1  0
  4  5  1  0
  5  6  2  0
  6  7  1  0
  7  8  2  0
  8  9  1  0
  9 10  1  0
 10 11  2  0
 10 12  1  0
 12 13  1  0
 13 14  2  0
 13 15  1  0
 15 16  2  0
 16 17  1  0
 17 18  2  0
 18 19  1  0
 19 20  2  0
  8 21  1  0
 21 22  2  0
 22  5  1  0
 20 15  1  0
  1 23  1  0
  1 24  1  0
  1 25  1  0
  4 26  1  0
  6 27  1  0
  7 28  1  0
 12 29  1  0
 12 30  1  0
 16 31  1  0
 17 32  1  0
 18 33  1  0
 19 34  1  0
 20 35  1  0
 21 36  1  0
 22 37  1  0
M  CHG  1   9  -1
M  END
>  <UniqueID>  (15) 
14

>  <SMILES>  (15) 
CC(=O)Nc1ccc([N-]C(=O)CC(=O)c2ccccc2)cc1

>  <Energy>  (15) 
46.20562253068943

>  <Genealogy>  (15) 
CC(=O)Nc1ccc([N-]C(=O)CC(=O)c2ccccc2)cc1 (protonated)
CC(=O)Nc1ccc([N-]C(=O)CC(=O)c2ccccc2)cc1 (3D coordinates assigned)
CC(=O)Nc1ccc([N-]C(=O)CC(=O)c2ccccc2)cc1 (optimized conformer: 46.20562253068943 kcal/mol)

>  <smiles>  (15) 
CC(=O)Nc1ccc(NC(=O)CC(=O)c2ccccc2)cc1

>  <score_type>  (15) 
oracle

>  <origin>  (15) 
adg

>  <m_score__min__energy>  (15) 
-8.8100000000000005

>  <m_primary>  (15) 
energy

$$$$
15:0
     RDKit          3D

 35 37  0  0  0  0  0  0  0  0999 V2000
   56.8800   29.3770   43.0510 O   0  0  0  0  0  0  0  0  0  0  0  0
   56.5730   29.6690   44.4930 S   0  0  0  0  0  0  0  0  0  0  0  0
   55.5360   30.7560   44.5380 O   0  0  0  0  0  0  0  0  0  0  0  0
   55.9200   28.2420   45.2500 N   0  0  0  0  0  0  0  0  0  0  0  0
   56.9110   27.5410   46.0710 C   0  0  0  0  0  0  0  0  0  0  0  0
   57.2160   26.1470   45.5140 C   0  0  0  0  0  0  0  0  0  0  0  0
   55.9700   25.3170   45.4770 C   0  0  0  0  0  0  0  0  0  0  0  0
   55.8430   24.0710   44.9120 C   0  0  0  0  0  0  0  0  0  0  0  0
   54.5620   23.6770   45.0170 N   0  0  0  0  0  0  0  0  0  0  0  0
   53.9490   24.7070   45.6390 C   0  0  0  0  0  0  0  0  0  0  0  0
   54.7750   25.7350   45.9290 N   0  0  0  0  0  0  0  0  0  0  0  0
   58.0250   30.2470   45.3130 C   0  0  0  0  0  0  0  0  0  0  0  0
   59.1860   29.4630   45.3420 C   0  0  0  0  0  0  0  0  0  0  0  0
   60.3220   29.9130   46.0180 C   0  0  0  0  0  0  0  0  0  0  0  0
   60.3200   31.1560   46.6770 C   0  0  0  0  0  0  0  0  0  0  0  0
   61.5020   31.6040   47.3750 N   0  0  0  0  0  0  0  0  0  0  0  0
   61.9270   31.2140   48.5960 C   0  0  0  0  0  0  0  0  0  0  0  0
   63.0900   31.8920   48.8930 C   0  0  0  0  0  0  0  0  0  0  0  0
   63.3200   32.6920   47.7940 C   0  0  0  0  0  0  0  0  0  0  0  0
   62.3430   32.5040   46.8870 N   0  0  0  0  0  0  0  0  0  0  0  0
   59.1460   31.9340   46.6490 C   0  0  0  0  0  0  0  0  0  0  0  0
   58.0090   31.4800   45.9740 C   0  0  0  0  0  0  0  0  0  0  0  0
   57.8401   28.1295   46.0901 H   0  0  0  0  0  0  0  0  0  0  0  0
   56.5000   27.4254   47.0848 H   0  0  0  0  0  0  0  0  0  0  0  0
   57.6178   26.2437   44.4946 H   0  0  0  0  0  0  0  0  0  0  0  0
   57.9537   25.6554   46.1653 H   0  0  0  0  0  0  0  0  0  0  0  0
   56.6557   23.4913   44.4499 H   0  0  0  0  0  0  0  0  0  0  0  0
   52.8772   24.7084   45.8863 H   0  0  0  0  0  0  0  0  0  0  0  0
   59.2026   28.4894   44.8303 H   0  0  0  0  0  0  0  0  0  0  0  0
   61.2278   29.2891   46.0354 H   0  0  0  0  0  0  0  0  0  0  0  0
   61.4287   30.4786   49.2448 H   0  0  0  0  0  0  0  0  0  0  0  0
   63.6997   31.8123   49.8051 H   0  0  0  0  0  0  0  0  0  0  0  0
   64.1713   33.3786   47.6763 H   0  0  0  0  0  0  0  0  0  0  0  0
   59.1237   32.9066   47.1624 H   0  0  0  0  0  0  0  0  0  0  0  0
   57.0972   32.0953   45.9625 H   0  0  0  0  0  0  0  0  0  0  0  0
  1  2  2  0
  2  3  2  0
  2  4  1  0
  4  5  1  0
  5  6  1  0
  6  7  1  0
  7  8  2  0
  8  9  1  0
  9 10  1  0
 10 11  2  0
  2 12  1  0
 12 13  2  0
 13 14  1  0
 14 15  2  0
 15 16  1  0
 16 17  1  0
 17 18  2  0
 18 19  1  0
 19 20  2  0
 15 21  1  0
 21 22  2  0
 11  7  1  0
 22 12  1  0
 20 16  1  0
  5 23  1  0
  5 24  1  0
  6 25  1  0
  6 26  1  0
  8 27  1  0
 10 28  1  0
 13 29  1  0
 14 30  1  0
 17 31  1  0
 18 32  1  0
 19 33  1  0
 21 34  1  0
 22 35  1  0
M  CHG  2   4  -1   9  -1
M  END
>  <UniqueID>  (16) 
15

>  <SMILES>  (16) 
O=S(=O)([N-]CCc1c[n-]cn1)c1ccc(-n2cccn2)cc1

>  <Energy>  (16) 
93.52711603275259

>  <Genealogy>  (16) 
O=S(=O)([N-]CCc1c[n-]cn1)c1ccc(-n2cccn2)cc1 (protonated)
O=S(=O)([N-]CCc1c[n-]cn1)c1ccc(-n2cccn2)cc1 (3D coordinates assigned)
O=S(=O)([N-]CCc1c[n-]cn1)c1ccc(-n2cccn2)cc1 (optimized conformer: 93.52711603275259 kcal/mol)

>  <smiles>  (16) 
O=S(=O)(NCCc1c[nH]cn1)c1ccc(-n2cccn2)cc1

>  <score_type>  (16) 
oracle

>  <origin>  (16) 
adg

>  <m_score__min__energy>  (16) 
-10.949999999999999

>  <m_primary>  (16) 
energy

$$$$
16:0
     RDKit          3D

 44 46  0  0  0  0  0  0  0  0999 V2000
   60.7770   29.0670   49.6130 Cl  0  0  0  0  0  0  0  0  0  0  0  0
   60.0000   29.0860   48.0400 C   0  0  0  0  0  0  0  0  0  0  0  0
   60.5490   29.8340   46.9950 C   0  0  0  0  0  0  0  0  0  0  0  0
   59.9280   29.8480   45.7410 C   0  0  0  0  0  0  0  0  0  0  0  0
   58.7590   29.1020   45.5140 C   0  0  0  0  0  0  0  0  0  0  0  0
   58.1480   29.1350   44.2100 N   0  0  0  0  0  0  0  0  0  0  0  0
   56.7060   29.0500   43.9700 C   0  0  0  0  0  0  0  0  0  0  0  0
   56.2450   30.1990   43.0720 C   0  0  0  0  0  0  0  0  0  0  0  0
   57.4100   30.8770   42.4870 N   0  0  0  0  0  0  0  0  0  0  0  0
   57.4020   32.3210   42.7670 C   0  0  0  0  0  0  0  0  0  0  0  0
   57.6440   32.6190   44.2190 C   0  0  0  0  0  0  0  0  0  0  0  0
   58.3420   33.6880   44.7380 C   0  0  0  0  0  0  0  0  0  0  0  0
   58.3750   33.4950   46.0670 N   0  0  0  0  0  0  0  0  0  0  0  0
   59.0500   34.3320   47.0530 C   0  0  0  0  0  0  0  0  0  0  0  0
   60.4140   33.7710   47.3680 C   0  0  0  0  0  0  0  0  0  0  0  0
   61.4640   33.9740   46.4560 C   0  0  0  0  0  0  0  0  0  0  0  0
   62.7360   33.4570   46.7110 C   0  0  0  0  0  0  0  0  0  0  0  0
   62.9720   32.7250   47.8750 C   0  0  0  0  0  0  0  0  0  0  0  0
   61.9340   32.4970   48.7800 C   0  0  0  0  0  0  0  0  0  0  0  0
   60.6530   33.0070   48.5330 C   0  0  0  0  0  0  0  0  0  0  0  0
   59.2780   32.6310   49.8150 Br  0  0  0  0  0  0  0  0  0  0  0  0
   57.7460   32.3640   46.3460 N   0  0  0  0  0  0  0  0  0  0  0  0
   57.2890   31.8060   45.2340 N   0  0  0  0  0  0  0  0  0  0  0  0
   58.2130   28.3540   46.5770 C   0  0  0  0  0  0  0  0  0  0  0  0
   58.8290   28.3530   47.8310 C   0  0  0  0  0  0  0  0  0  0  0  0
   61.4703   30.4124   47.1583 H   0  0  0  0  0  0  0  0  0  0  0  0
   60.3587   30.4482   44.9259 H   0  0  0  0  0  0  0  0  0  0  0  0
   58.7680   29.1980   43.3700 H   0  0  0  0  0  0  0  0  0  0  0  0
   56.4762   28.0925   43.4797 H   0  0  0  0  0  0  0  0  0  0  0  0
   56.1799   29.1178   44.9336 H   0  0  0  0  0  0  0  0  0  0  0  0
   55.6125   29.7999   42.2653 H   0  0  0  0  0  0  0  0  0  0  0  0
   55.6714   30.9199   43.6732 H   0  0  0  0  0  0  0  0  0  0  0  0
   58.2810   30.4590   42.8940 H   0  0  0  0  0  0  0  0  0  0  0  0
   58.1912   32.8018   42.1704 H   0  0  0  0  0  0  0  0  0  0  0  0
   56.4075   32.7104   42.5037 H   0  0  0  0  0  0  0  0  0  0  0  0
   58.7818   34.5270   44.1788 H   0  0  0  0  0  0  0  0  0  0  0  0
   59.1601   35.3499   46.6508 H   0  0  0  0  0  0  0  0  0  0  0  0
   58.4502   34.3545   47.9748 H   0  0  0  0  0  0  0  0  0  0  0  0
   61.2823   34.5450   45.5335 H   0  0  0  0  0  0  0  0  0  0  0  0
   63.5524   33.6270   45.9936 H   0  0  0  0  0  0  0  0  0  0  0  0
   63.9769   32.3272   48.0798 H   0  0  0  0  0  0  0  0  0  0  0  0
   62.1232   31.9132   49.6929 H   0  0  0  0  0  0  0  0  0  0  0  0
   57.2961   27.7674   46.4181 H   0  0  0  0  0  0  0  0  0  0  0  0
   58.3906   27.7732   48.6566 H   0  0  0  0  0  0  0  0  0  0  0  0
  1  2  1  0
  2  3  2  0
  3  4  1  0
  4  5  2  0
  5  6  1  0
  6  7  1  0
  7  8  1  0
  8  9  1  0
  9 10  1  0
 10 11  1  0
 11 12  2  0
 12 13  1  0
 13 14  1  0
 14 15  1  0
 15 16  2  0
 16 17  1  0
 17 18  2  0
 18 19  1  0
 19 20  2  0
 20 21  1  0
 13 22  1  0
 22 23  2  0
  5 24  1  0
 24 25  2  0
 25  2  1  0
 23 11  1  0
 20 15  1  0
  3 26  1  0
  4 27  1  0
  6 28  1  0
  7 29  1  0
  7 30  1  0
  8 31  1  0
  8 32  1  0
  9 33  1  0
 10 34  1  0
 10 35  1  0
 12 36  1  0
 14 37  1  0
 14 38  1  0
 16 39  1  0
 17 40  1  0
 18 41  1  0
 19 42  1  0
 24 43  1  0
 25 44  1  0
M  END
>  <UniqueID>  (17) 
16

>  <SMILES>  (17) 
Clc1ccc(NCCNCc2cn(Cc3ccccc3Br)nn2)cc1

>  <Energy>  (17) 
74.67801962082605

>  <Genealogy>  (17) 
Clc1ccc(NCCNCc2cn(Cc3ccccc3Br)nn2)cc1 (3D coordinates assigned)
Clc1ccc(NCCNCc2cn(Cc3ccccc3Br)nn2)cc1 (optimized conformer: 74.67801962082605 kcal/mol)

>  <smiles>  (17) 
Clc1ccc(NCCNCc2cn(Cc3ccccc3Br)nn2)cc1

>  <score_type>  (17) 
oracle

>  <origin>  (17) 
adg

>  <m_score__min__energy>  (17) 
-8.0099999999999998

>  <m_primary>  (17) 
energy

$$$$
17:0
     RDKit          3D

 41 44  0  0  0  0  0  0  0  0999 V2000
   62.9700   33.8510   46.0780 N   0  0  0  0  0  0  0  0  0  0  0  0
   62.9440   33.6370   47.2990 C   0  0  0  0  0  0  0  0  0  0  0  0
   64.0740   33.1160   47.8660 N   0  0  0  0  0  0  0  0  0  0  0  0
   64.1730   32.7920   49.1580 C   0  0  0  0  0  0  0  0  0  0  0  0
   63.0990   32.9950   49.9410 N   0  0  0  0  0  0  0  0  0  0  0  0
   61.9680   33.5000   49.4530 C   0  0  0  0  0  0  0  0  0  0  0  0
   61.8640   33.8350   48.1210 C   0  0  0  0  0  0  0  0  0  0  0  0
   60.6040   34.3230   47.8700 C   0  0  0  0  0  0  0  0  0  0  0  0
   59.9740   34.8680   46.6710 C   0  0  0  0  0  0  0  0  0  0  0  0
   59.0490   33.9730   45.9610 C   0  0  0  0  0  0  0  0  0  0  0  0
   59.0000   32.6440   46.4270 C   0  0  0  0  0  0  0  0  0  0  0  0
   58.1870   31.7000   45.8390 C   0  0  0  0  0  0  0  0  0  0  0  0
   57.3840   31.9960   44.7750 C   0  0  0  0  0  0  0  0  0  0  0  0
   57.4220   33.3030   44.3080 C   0  0  0  0  0  0  0  0  0  0  0  0
   58.2480   34.2620   44.9030 C   0  0  0  0  0  0  0  0  0  0  0  0
   59.9750   34.2660   49.0740 N   0  0  0  0  0  0  0  0  0  0  0  0
   60.7730   33.7860   49.9950 N   0  0  0  0  0  0  0  0  0  0  0  0
   60.4910   33.5290   51.4160 C   0  0  0  0  0  0  0  0  0  0  0  0
   59.2910   32.6240   51.4790 C   0  0  0  0  0  0  0  0  0  0  0  0
   59.2310   31.4030   50.8560 C   0  0  0  0  0  0  0  0  0  0  0  0
   58.0570   30.6830   51.0030 C   0  0  0  0  0  0  0  0  0  0  0  0
   56.9800   31.1650   51.7480 C   0  0  0  0  0  0  0  0  0  0  0  0
   55.8680   30.4300   51.8610 F   0  0  0  0  0  0  0  0  0  0  0  0
   57.0490   32.4040   52.3770 C   0  0  0  0  0  0  0  0  0  0  0  0
   58.2300   33.1210   52.2250 C   0  0  0  0  0  0  0  0  0  0  0  0
   58.3180   34.3490   52.8440 F   0  0  0  0  0  0  0  0  0  0  0  0
   63.5350   34.0480   45.3110 H   0  0  0  0  0  0  0  0  0  0  0  0
   64.9330   32.9440   47.2600 H   0  0  0  0  0  0  0  0  0  0  0  0
   65.1034   32.3725   49.5683 H   0  0  0  0  0  0  0  0  0  0  0  0
   59.4120   35.7665   46.9658 H   0  0  0  0  0  0  0  0  0  0  0  0
   60.7970   35.0601   45.9669 H   0  0  0  0  0  0  0  0  0  0  0  0
   59.6272   32.3528   47.2825 H   0  0  0  0  0  0  0  0  0  0  0  0
   58.1846   30.6754   46.2393 H   0  0  0  0  0  0  0  0  0  0  0  0
   56.7385   31.2360   44.3105 H   0  0  0  0  0  0  0  0  0  0  0  0
   56.7906   33.5896   43.4540 H   0  0  0  0  0  0  0  0  0  0  0  0
   58.2489   35.2856   44.5002 H   0  0  0  0  0  0  0  0  0  0  0  0
   61.3558   33.0405   51.8887 H   0  0  0  0  0  0  0  0  0  0  0  0
   60.2963   34.4706   51.9502 H   0  0  0  0  0  0  0  0  0  0  0  0
   60.0753   31.0144   50.2677 H   0  0  0  0  0  0  0  0  0  0  0  0
   57.9708   29.6999   50.5170 H   0  0  0  0  0  0  0  0  0  0  0  0
   56.2083   32.7978   52.9670 H   0  0  0  0  0  0  0  0  0  0  0  0
  1  2  2  3
  2  3  1  0
  3  4  1  0
  4  5  2  0
  5  6  1  0
  6  7  2  0
  7  8  1  0
  8  9  1  0
  9 10  1  0
 10 11  2  0
 11 12  1  0
 12 13  2  0
 13 14  1  0
 14 15  2  0
  8 16  2  0
 16 17  1  0
 17 18  1  0
 18 19  1  0
 19 20  2  0
 20 21  1  0
 21 22  2  0
 22 23  1  0
 22 24  1  0
 24 25  2  0
 25 26  1  0
  7  2  1  0
 15 10  1  0
 25 19  1  0
 17  6  1  0
  1 27  1  0
  3 28  1  0
  4 29  1  0
  9 30  1  0
  9 31  1  0
 11 32  1  0
 12 33  1  0
 13 34  1  0
 14 35  1  0
 15 36  1  0
 18 37  1  0
 18 38  1  0
 20 39  1  0
 21 40  1  0
 24 41  1  0
M  END
>  <smiles>  (18) 
N=c1[nH]cnc2c1c(Cc1ccccc1)nn2Cc1ccc(F)cc1F

>  <score_type>  (18) 
oracle

>  <origin>  (18) 
adg

>  <m_score__min__energy>  (18) 
-7.4100000000000001

>  <m_primary>  (18) 
energy

$$$$
18:0
     RDKit          3D

 32 33  0  0  0  0  0  0  0  0999 V2000
   60.2710   28.5580   49.3220 C   0  0  0  0  0  0  0  0  0  0  0  0
   60.3720   27.5370   48.1970 C   0  0  0  0  0  0  0  0  0  0  0  0
   59.1840   27.6000   47.3540 N   0  0  0  0  0  0  0  0  0  0  0  0
   58.3170   26.6040   47.2330 N   0  0  0  0  0  0  0  0  0  0  0  0
   57.4120   27.0200   46.3300 C   0  0  0  0  0  0  0  0  0  0  0  0
   56.2960   26.2280   45.9010 N   0  0  0  0  0  0  0  0  0  0  0  0
   55.1380   26.6790   46.0190 O   0  0  0  0  0  0  0  0  0  0  0  0
   56.4760   24.9880   45.3370 O   0  0  0  0  0  0  0  0  0  0  0  0
   57.7740   28.2890   45.9100 C   0  0  0  0  0  0  0  0  0  0  0  0
   57.0090   29.3090   44.7010 S   0  0  0  0  0  0  0  0  0  0  0  0
   55.5260   29.3420   44.9440 O   0  0  0  0  0  0  0  0  0  0  0  0
   57.2650   28.7240   43.3400 O   0  0  0  0  0  0  0  0  0  0  0  0
   57.6360   30.9520   44.8030 C   0  0  0  0  0  0  0  0  0  0  0  0
   58.0820   31.4560   46.0320 C   0  0  0  0  0  0  0  0  0  0  0  0
   58.5820   32.7590   46.1180 C   0  0  0  0  0  0  0  0  0  0  0  0
   58.6470   33.5690   44.9740 C   0  0  0  0  0  0  0  0  0  0  0  0
   59.1470   34.9800   45.0740 C   0  0  0  0  0  0  0  0  0  0  0  0
   58.1760   33.0700   43.7500 C   0  0  0  0  0  0  0  0  0  0  0  0
   57.6770   31.7670   43.6650 C   0  0  0  0  0  0  0  0  0  0  0  0
   58.9000   28.6260   46.5640 N   0  0  0  0  0  0  0  0  0  0  0  0
   60.3221   28.0413   50.2918 H   0  0  0  0  0  0  0  0  0  0  0  0
   61.1027   29.2736   49.2435 H   0  0  0  0  0  0  0  0  0  0  0  0
   59.3152   29.0967   49.2435 H   0  0  0  0  0  0  0  0  0  0  0  0
   61.2620   27.7538   47.5880 H   0  0  0  0  0  0  0  0  0  0  0  0
   60.4517   26.5296   48.6316 H   0  0  0  0  0  0  0  0  0  0  0  0
   58.0387   30.8248   46.9318 H   0  0  0  0  0  0  0  0  0  0  0  0
   58.9259   33.1508   47.0866 H   0  0  0  0  0  0  0  0  0  0  0  0
   59.2461   35.2597   46.1332 H   0  0  0  0  0  0  0  0  0  0  0  0
   60.1273   35.0574   44.5810 H   0  0  0  0  0  0  0  0  0  0  0  0
   58.4342   35.6574   44.5810 H   0  0  0  0  0  0  0  0  0  0  0  0
   58.1995   33.7069   42.8535 H   0  0  0  0  0  0  0  0  0  0  0  0
   57.3152   31.3805   42.7008 H   0  0  0  0  0  0  0  0  0  0  0  0
  1  2  1  0
  2  3  1  0
  3  4  1  0
  4  5  2  0
  5  6  1  0
  6  7  2  0
  6  8  1  0
  5  9  1  0
  9 10  1  0
 10 11  2  0
 10 12  2  0
 10 13  1  0
 13 14  2  0
 14 15  1  0
 15 16  2  0
 16 17  1  0
 16 18  1  0
 18 19  2  0
  9 20  2  0
 20  3  1  0
 19 13  1  0
  1 21  1  0
  1 22  1  0
  1 23  1  0
  2 24  1  0
  2 25  1  0
 14 26  1  0
 15 27  1  0
 17 28  1  0
 17 29  1  0
 17 30  1  0
 18 31  1  0
 19 32  1  0
M  CHG  2   6   1   8  -1
M  END
>  <UniqueID>  (19) 
17

>  <SMILES>  (19) 
CCn1nc([N+](=O)[O-])c(S(=O)(=O)c2ccc(C)cc2)n1

>  <Energy>  (19) 
64.97236738938518

>  <Genealogy>  (19) 
CCn1nc([N+](=O)[O-])c(S(=O)(=O)c2ccc(C)cc2)n1 (3D coordinates assigned)
CCn1nc([N+](=O)[O-])c(S(=O)(=O)c2ccc(C)cc2)n1 (optimized conformer: 64.97236738938518 kcal/mol)

>  <smiles>  (19) 
CCn1nc([N+](=O)[O-])c(S(=O)(=O)c2ccc(C)cc2)n1

>  <score_type>  (19) 
oracle

>  <origin>  (19) 
adg

>  <m_score__min__energy>  (19) 
-8.3100000000000005

>  <m_primary>  (19) 
energy

$$$$
19:0
     RDKit          3D

 38 40  0  0  0  0  0  0  0  0999 V2000
   56.3600   27.1820   45.6210 C   0  0  0  0  0  0  0  0  0  0  0  0
   56.3580   28.5900   45.1230 C   0  0  0  0  0  0  0  0  0  0  0  0
   55.2380   29.3120   44.9190 N   0  0  0  0  0  0  0  0  0  0  0  0
   55.5860   30.4910   44.4230 N   0  0  0  0  0  0  0  0  0  0  0  0
   56.9260   30.5240   44.3000 C   0  0  0  0  0  0  0  0  0  0  0  0
   57.8120   31.9010   43.6730 Cl  0  0  0  0  0  0  0  0  0  0  0  0
   57.4580   29.3260   44.7290 C   0  0  0  0  0  0  0  0  0  0  0  0
   58.9020   28.9080   44.7490 C   0  0  0  0  0  0  0  0  0  0  0  0
   59.3070   28.4300   46.0910 N   0  0  0  0  0  0  0  0  0  0  0  0
   60.7310   28.6970   46.4050 C   0  0  0  0  0  0  0  0  0  0  0  0
   61.0220   30.2030   46.5180 C   0  0  0  0  0  0  0  0  0  0  0  0
   59.8690   30.9070   47.0890 N   0  0  0  0  0  0  0  0  0  0  0  0
   59.6700   32.3100   46.8210 C   0  0  0  0  0  0  0  0  0  0  0  0
   58.3710   32.8440   46.7510 C   0  0  0  0  0  0  0  0  0  0  0  0
   58.1800   34.2070   46.5110 C   0  0  0  0  0  0  0  0  0  0  0  0
   59.2820   35.0500   46.3450 C   0  0  0  0  0  0  0  0  0  0  0  0
   60.5760   34.5320   46.4230 C   0  0  0  0  0  0  0  0  0  0  0  0
   60.7720   33.1680   46.6630 C   0  0  0  0  0  0  0  0  0  0  0  0
   58.9340   30.1480   47.9230 C   0  0  0  0  0  0  0  0  0  0  0  0
   58.3940   28.9250   47.1540 C   0  0  0  0  0  0  0  0  0  0  0  0
   56.3600   27.1821   46.7210 H   0  0  0  0  0  0  0  0  0  0  0  0
   55.4626   26.6621   45.2544 H   0  0  0  0  0  0  0  0  0  0  0  0
   57.2589   26.6647   45.2544 H   0  0  0  0  0  0  0  0  0  0  0  0
   59.0502   28.0973   44.0204 H   0  0  0  0  0  0  0  0  0  0  0  0
   59.5191   29.7814   44.4915 H   0  0  0  0  0  0  0  0  0  0  0  0
   60.9807   28.2140   47.3612 H   0  0  0  0  0  0  0  0  0  0  0  0
   61.3421   28.2929   45.5845 H   0  0  0  0  0  0  0  0  0  0  0  0
   61.8969   30.3550   47.1672 H   0  0  0  0  0  0  0  0  0  0  0  0
   61.2216   30.6034   45.5131 H   0  0  0  0  0  0  0  0  0  0  0  0
   57.5006   32.1850   46.8859 H   0  0  0  0  0  0  0  0  0  0  0  0
   57.1609   34.6170   46.4526 H   0  0  0  0  0  0  0  0  0  0  0  0
   59.1298   36.1223   46.1528 H   0  0  0  0  0  0  0  0  0  0  0  0
   61.4426   35.1974   46.2956 H   0  0  0  0  0  0  0  0  0  0  0  0
   61.7934   32.7649   46.7284 H   0  0  0  0  0  0  0  0  0  0  0  0
   59.4541   29.8048   48.8295 H   0  0  0  0  0  0  0  0  0  0  0  0
   58.0897   30.7991   48.1936 H   0  0  0  0  0  0  0  0  0  0  0  0
   58.2263   28.1100   47.8735 H   0  0  0  0  0  0  0  0  0  0  0  0
   57.4676   29.2456   46.6550 H   0  0  0  0  0  0  0  0  0  0  0  0
  1  2  1  0
  2  3  1  0
  3  4  1  0
  4  5  2  0
  5  6  1  0
  5  7  1  0
  7  8  1  0
  8  9  1  0
  9 10  1  0
 10 11  1  0
 11 12  1  0
 12 13  1  0
 13 14  2  0
 14 15  1  0
 15 16  2  0
 16 17  1  0
 17 18  2  0
 12 19  1  0
 19 20  1  0
  7  2  2  0
 20  9  1  0
 18 13  1  0
  1 21  1  0
  1 22  1  0
  1 23  1  0
  8 24  1  0
  8 25  1  0
 10 26  1  0
 10 27  1  0
 11 28  1  0
 11 29  1  0
 14 30  1  0
 15 31  1  0
 16 32  1  0
 17 33  1  0
 18 34  1  0
 19 35  1  0
 19 36  1  0
 20 37  1  0
 20 38  1  0
M  CHG  1   3  -1
M  END
>  <UniqueID>  (20) 
18

>  <SMILES>  (20) 
Cc1[n-]nc(Cl)c1CN1CCN(c2ccccc2)CC1

>  <Energy>  (20) 
79.60072328115824

>  <Genealogy>  (20) 
Cc1[n-]nc(Cl)c1CN1CCN(c2ccccc2)CC1 (protonated)
Cc1[n-]nc(Cl)c1CN1CCN(c2ccccc2)CC1 (3D coordinates assigned)
Cc1[n-]nc(Cl)c1CN1CCN(c2ccccc2)CC1 (nonaromatic ring conformer: 79.60072328115824 kcal/mol)

>  <smiles>  (20) 
Cc1[nH]nc(Cl)c1CN1CCN(c2ccccc2)CC1

>  <score_type>  (20) 
oracle

>  <origin>  (20) 
adg

>  <m_score__min__energy>  (20) 
-9.2300000000000004

>  <m_primary>  (20) 
energy

$$$$
20:0
     RDKit          3D

 31 33  0  0  0  0  0  0  0  0999 V2000
   57.8170   27.4980   42.9010 N   0  0  0  0  0  0  0  0  0  0  0  0
   57.7960   27.7910   44.3390 C   0  0  1  0  0  0  0  0  0  0  0  0
   59.1940   27.6080   44.9740 C   0  0  0  0  0  0  0  0  0  0  0  0
   59.6900   29.0010   45.4060 C   0  0  0  0  0  0  0  0  0  0  0  0
   58.5220   29.8950   45.1840 C   0  0  0  0  0  0  0  0  0  0  0  0
   58.4330   31.2750   45.4400 C   0  0  0  0  0  0  0  0  0  0  0  0
   59.5460   32.0360   46.0450 C   0  0  0  0  0  0  0  0  0  0  0  0
   59.6720   33.4130   45.7980 C   0  0  0  0  0  0  0  0  0  0  0  0
   60.7170   34.1400   46.3750 C   0  0  0  0  0  0  0  0  0  0  0  0
   61.6390   33.4990   47.2090 C   0  0  0  0  0  0  0  0  0  0  0  0
   62.6520   34.2050   47.7690 F   0  0  0  0  0  0  0  0  0  0  0  0
   61.5120   32.1320   47.4710 C   0  0  0  0  0  0  0  0  0  0  0  0
   60.4670   31.4020   46.8950 C   0  0  0  0  0  0  0  0  0  0  0  0
   57.2420   31.9290   45.0750 C   0  0  0  0  0  0  0  0  0  0  0  0
   56.2180   31.2340   44.5020 N   0  0  0  0  0  0  0  0  0  0  0  0
   56.3090   29.8980   44.2510 C   0  0  0  0  0  0  0  0  0  0  0  0
   57.4840   29.2250   44.5870 C   0  0  0  0  0  0  0  0  0  0  0  0
   56.8750   27.1610   42.5990 H   0  0  0  0  0  0  0  0  0  0  0  0
   58.5320   26.7650   42.6830 H   0  0  0  0  0  0  0  0  0  0  0  0
   58.0410   28.3680   42.3650 H   0  0  0  0  0  0  0  0  0  0  0  0
   57.0461   27.1081   44.7648 H   0  0  0  0  0  0  0  0  0  0  0  0
   59.1255   26.9452   45.8492 H   0  0  0  0  0  0  0  0  0  0  0  0
   59.8909   27.1537   44.2543 H   0  0  0  0  0  0  0  0  0  0  0  0
   59.9822   28.9985   46.4665 H   0  0  0  0  0  0  0  0  0  0  0  0
   60.5778   29.3233   44.8422 H   0  0  0  0  0  0  0  0  0  0  0  0
   58.9450   33.9214   45.1476 H   0  0  0  0  0  0  0  0  0  0  0  0
   60.8144   35.2169   46.1731 H   0  0  0  0  0  0  0  0  0  0  0  0
   62.2346   31.6296   48.1309 H   0  0  0  0  0  0  0  0  0  0  0  0
   60.3662   30.3276   47.1085 H   0  0  0  0  0  0  0  0  0  0  0  0
   57.1359   33.0093   45.2532 H   0  0  0  0  0  0  0  0  0  0  0  0
   55.4686   29.3580   43.7903 H   0  0  0  0  0  0  0  0  0  0  0  0
  1  2  1  0
  2  3  1  0
  3  4  1  0
  4  5  1  0
  5  6  2  0
  6  7  1  0
  7  8  2  0
  8  9  1  0
  9 10  2  0
 10 11  1  0
 10 12  1  0
 12 13  2  0
  6 14  1  0
 14 15  2  0
 15 16  1  0
 16 17  2  0
 17  2  1  0
 17  5  1  0
 13  7  1  0
  1 18  1  0
  1 19  1  0
  1 20  1  0
  2 21  1  1
  3 22  1  0
  3 23  1  0
  4 24  1  0
  4 25  1  0
  8 26  1  0
  9 27  1  0
 12 28  1  0
 13 29  1  0
 14 30  1  0
 16 31  1  0
M  CHG  1   1   1
M  END
>  <UniqueID>  (21) 
19

>  <SMILES>  (21) 
[NH3+][C@H]1CCc2c(-c3ccc(F)cc3)cncc21

>  <Energy>  (21) 
48.133165282395524

>  <Genealogy>  (21) 
[NH3+]C1CCc2c(-c3ccc(F)cc3)cncc21 (protonated)
[NH3+][C@H]1CCc2c(-c3ccc(F)cc3)cncc21 (chirality)
[NH3+][C@H]1CCc2c(-c3ccc(F)cc3)cncc21 (3D coordinates assigned)
[NH3+][C@H]1CCc2c(-c3ccc(F)cc3)cncc21 (nonaromatic ring conformer: 48.133165282395524 kcal/mol)

>  <smiles>  (21) 
NC1CCc2c(-c3ccc(F)cc3)cncc21

>  <score_type>  (21) 
oracle

>  <origin>  (21) 
adg

>  <m_score__min__energy>  (21) 
-5.4299999999999997

>  <m_primary>  (21) 
energy

$$$$
21:0
     RDKit          3D

 48 51  0  0  0  0  0  0  0  0999 V2000
   59.3080   35.6980   47.1220 O   0  0  0  0  0  0  0  0  0  0  0  0
   59.8110   34.5910   46.7880 C   0  0  0  0  0  0  0  0  0  0  0  0
   59.0880   33.7380   45.8290 C   0  0  0  0  0  0  0  0  0  0  0  0
   58.2430   34.2330   44.8370 C   0  0  0  0  0  0  0  0  0  0  0  0
   57.6690   32.9240   43.9540 S   0  0  0  0  0  0  0  0  0  0  0  0
   58.5190   31.7830   44.8570 C   0  0  0  0  0  0  0  0  0  0  0  0
   58.5040   30.3180   44.6380 C   0  0  0  0  0  0  0  0  0  0  0  0
   57.4430   29.6980   43.9500 C   0  0  0  0  0  0  0  0  0  0  0  0
   57.4420   28.3140   43.7520 C   0  0  0  0  0  0  0  0  0  0  0  0
   58.4940   27.5340   44.2350 C   0  0  0  0  0  0  0  0  0  0  0  0
   59.5520   28.1380   44.9190 C   0  0  0  0  0  0  0  0  0  0  0  0
   59.5590   29.5210   45.1220 C   0  0  0  0  0  0  0  0  0  0  0  0
   59.2420   32.3850   45.8270 N   0  0  0  0  0  0  0  0  0  0  0  0
   61.0640   34.1830   47.3620 N   0  0  0  0  0  0  0  0  0  0  0  0
   61.2550   34.2890   48.8160 C   0  0  0  0  0  0  0  0  0  0  0  0
   62.7420   34.2210   49.1930 C   0  0  0  0  0  0  0  0  0  0  0  0
   63.4640   32.9990   48.5710 C   0  0  0  0  0  0  0  0  0  0  0  0
   63.3460   31.7630   49.4950 C   0  0  0  0  0  0  0  0  0  0  0  0
   61.9390   31.2180   49.5320 C   0  0  0  0  0  0  0  0  0  0  0  0
   61.4450   30.4400   48.4710 C   0  0  0  0  0  0  0  0  0  0  0  0
   60.1470   29.9210   48.5240 C   0  0  0  0  0  0  0  0  0  0  0  0
   59.3360   30.1720   49.6340 C   0  0  0  0  0  0  0  0  0  0  0  0
   59.8210   30.9430   50.6930 C   0  0  0  0  0  0  0  0  0  0  0  0
   61.1170   31.4650   50.6460 C   0  0  0  0  0  0  0  0  0  0  0  0
   62.9810   32.6810   47.1250 C   0  0  0  0  0  0  0  0  0  0  0  0
   62.1980   33.8340   46.4960 C   0  0  0  0  0  0  0  0  0  0  0  0
   57.9963   35.2908   44.6635 H   0  0  0  0  0  0  0  0  0  0  0  0
   56.6105   30.3060   43.5663 H   0  0  0  0  0  0  0  0  0  0  0  0
   56.6092   27.8380   43.2136 H   0  0  0  0  0  0  0  0  0  0  0  0
   58.4901   26.4454   44.0773 H   0  0  0  0  0  0  0  0  0  0  0  0
   60.3816   27.5236   45.2988 H   0  0  0  0  0  0  0  0  0  0  0  0
   60.3941   29.9897   45.6633 H   0  0  0  0  0  0  0  0  0  0  0  0
   60.8417   35.2478   49.1622 H   0  0  0  0  0  0  0  0  0  0  0  0
   60.7378   33.4447   49.2952 H   0  0  0  0  0  0  0  0  0  0  0  0
   63.2363   35.1382   48.8403 H   0  0  0  0  0  0  0  0  0  0  0  0
   62.8021   34.1198   50.2867 H   0  0  0  0  0  0  0  0  0  0  0  0
   64.5275   33.2663   48.4838 H   0  0  0  0  0  0  0  0  0  0  0  0
   64.0217   30.9775   49.1256 H   0  0  0  0  0  0  0  0  0  0  0  0
   63.6174   32.0735   50.5148 H   0  0  0  0  0  0  0  0  0  0  0  0
   62.0809   30.2386   47.5963 H   0  0  0  0  0  0  0  0  0  0  0  0
   59.7640   29.3141   47.6903 H   0  0  0  0  0  0  0  0  0  0  0  0
   58.3158   29.7625   49.6738 H   0  0  0  0  0  0  0  0  0  0  0  0
   59.1816   31.1399   51.5661 H   0  0  0  0  0  0  0  0  0  0  0  0
   61.4949   32.0707   51.4828 H   0  0  0  0  0  0  0  0  0  0  0  0
   63.8605   32.4703   46.4988 H   0  0  0  0  0  0  0  0  0  0  0  0
   62.3057   31.8147   47.1839 H   0  0  0  0  0  0  0  0  0  0  0  0
   62.8571   34.7076   46.3845 H   0  0  0  0  0  0  0  0  0  0  0  0
   61.8250   33.5287   45.5072 H   0  0  0  0  0  0  0  0  0  0  0  0
  1  2  2  0
  2  3  1  0
  3  4  2  0
  4  5  1  0
  5  6  1  0
  6  7  1  0
  7  8  2  0
  8  9  1  0
  9 10  2  0
 10 11  1  0
 11 12  2  0
  6 13  2  0
  2 14  1  0
 14 15  1  0
 15 16  1  0
 16 17  1  0
 17 18  1  0
 18 19  1  0
 19 20  2  0
 20 21  1  0
 21 22  2  0
 22 23  1  0
 23 24  2  0
 17 25  1  0
 25 26  1  0
 13  3  1  0
 26 14  1  0
 12  7  1  0
 24 19  1  0
  4 27  1  0
  8 28  1  0
  9 29  1  0
 10 30  1  0
 11 31  1  0
 12 32  1  0
 15 33  1  0
 15 34  1  0
 16 35  1  0
 16 36  1  0
 17 37  1  0
 18 38  1  0
 18 39  1  0
 20 40  1  0
 21 41  1  0
 22 42  1  0
 23 43  1  0
 24 44  1  0
 25 45  1  0
 25 46  1  0
 26 47  1  0
 26 48  1  0
M  END
>  <UniqueID>  (22) 
20

>  <SMILES>  (22) 
O=C(c1csc(-c2ccccc2)n1)N1CCC(Cc2ccccc2)CC1

>  <Energy>  (22) 
86.26080975620411

>  <Genealogy>  (22) 
O=C(c1csc(-c2ccccc2)n1)N1CCC(Cc2ccccc2)CC1 (3D coordinates assigned)
O=C(c1csc(-c2ccccc2)n1)N1CCC(Cc2ccccc2)CC1 (nonaromatic ring conformer: 86.26080975620411 kcal/mol)

>  <smiles>  (22) 
O=C(c1csc(-c2ccccc2)n1)N1CCC(Cc2ccccc2)CC1

>  <score_type>  (22) 
oracle

>  <origin>  (22) 
adg

>  <m_score__min__energy>  (22) 
-8.6899999999999995

>  <m_primary>  (22) 
energy

$$$$
22:0
     RDKit          3D

 48 51  0  0  0  0  0  0  0  0999 V2000
   58.7880   32.5750   47.9800 C   0  0  0  0  0  0  0  0  0  0  0  0
   59.3770   33.5250   47.0360 N   0  0  0  0  0  0  0  0  0  0  0  0
   58.8060   34.0610   45.9380 C   0  0  0  0  0  0  0  0  0  0  0  0
   57.1380   33.7240   45.3630 S   0  0  0  0  0  0  0  0  0  0  0  0
   57.6700   32.7370   43.9200 C   0  0  0  0  0  0  0  0  0  0  0  0
   57.7620   31.2760   44.2690 C   0  0  0  0  0  0  0  0  0  0  0  0
   58.4900   30.8640   45.3940 C   0  0  0  0  0  0  0  0  0  0  0  0
   58.6060   29.5060   45.7040 C   0  0  0  0  0  0  0  0  0  0  0  0
   58.0030   28.5330   44.8850 C   0  0  0  0  0  0  0  0  0  0  0  0
   58.1120   27.0870   45.1930 C   0  0  0  0  0  0  0  0  0  0  0  0
   58.9760   26.7060   46.0310 O   0  0  0  0  0  0  0  0  0  0  0  0
   57.2590   26.1200   44.5520 N   0  0  0  0  0  0  0  0  0  0  0  0
   57.2430   24.7210   44.8860 C   0  0  0  0  0  0  0  0  0  0  0  0
   57.3920   24.3330   46.2260 C   0  0  0  0  0  0  0  0  0  0  0  0
   57.4030   22.9790   46.5730 C   0  0  0  0  0  0  0  0  0  0  0  0
   57.2820   21.9990   45.5840 C   0  0  0  0  0  0  0  0  0  0  0  0
   57.2960   20.6880   45.9310 F   0  0  0  0  0  0  0  0  0  0  0  0
   57.1580   22.3750   44.2400 C   0  0  0  0  0  0  0  0  0  0  0  0
   57.0340   21.1520   42.9870 Cl  0  0  0  0  0  0  0  0  0  0  0  0
   57.1450   23.7300   43.8910 C   0  0  0  0  0  0  0  0  0  0  0  0
   57.2650   28.9530   43.7650 C   0  0  0  0  0  0  0  0  0  0  0  0
   57.1490   30.3110   43.4560 C   0  0  0  0  0  0  0  0  0  0  0  0
   59.6370   34.9150   45.3140 N   0  0  0  0  0  0  0  0  0  0  0  0
   60.7600   34.9410   46.0160 N   0  0  0  0  0  0  0  0  0  0  0  0
   60.6010   34.1020   47.0610 C   0  0  0  0  0  0  0  0  0  0  0  0
   61.6500   33.8810   48.0850 C   0  0  0  0  0  0  0  0  0  0  0  0
   61.4090   34.2030   49.4330 C   0  0  0  0  0  0  0  0  0  0  0  0
   62.4080   33.9820   50.3820 C   0  0  0  0  0  0  0  0  0  0  0  0
   63.6350   33.4460   49.9900 C   0  0  0  0  0  0  0  0  0  0  0  0
   63.8440   33.1360   48.6460 C   0  0  0  0  0  0  0  0  0  0  0  0
   62.8580   33.3570   47.7360 N   0  0  0  0  0  0  0  0  0  0  0  0
   58.9930   32.9056   49.0089 H   0  0  0  0  0  0  0  0  0  0  0  0
   57.7007   32.5258   47.8204 H   0  0  0  0  0  0  0  0  0  0  0  0
   59.2274   31.5793   47.8204 H   0  0  0  0  0  0  0  0  0  0  0  0
   56.9408   32.8672   43.1068 H   0  0  0  0  0  0  0  0  0  0  0  0
   58.6649   33.0851   43.6055 H   0  0  0  0  0  0  0  0  0  0  0  0
   58.9731   31.6144   46.0370 H   0  0  0  0  0  0  0  0  0  0  0  0
   59.1725   29.1955   46.5943 H   0  0  0  0  0  0  0  0  0  0  0  0
   56.6460   26.4220   43.7640 H   0  0  0  0  0  0  0  0  0  0  0  0
   57.5008   25.0988   47.0081 H   0  0  0  0  0  0  0  0  0  0  0  0
   57.5072   22.6840   47.6276 H   0  0  0  0  0  0  0  0  0  0  0  0
   57.0578   24.0222   42.8341 H   0  0  0  0  0  0  0  0  0  0  0  0
   56.7737   28.2052   43.1251 H   0  0  0  0  0  0  0  0  0  0  0  0
   56.5747   30.6245   42.5717 H   0  0  0  0  0  0  0  0  0  0  0  0
   60.4401   34.6259   49.7368 H   0  0  0  0  0  0  0  0  0  0  0  0
   62.2282   34.2302   51.4384 H   0  0  0  0  0  0  0  0  0  0  0  0
   64.4280   33.2700   50.7317 H   0  0  0  0  0  0  0  0  0  0  0  0
   64.8064   32.7128   48.3224 H   0  0  0  0  0  0  0  0  0  0  0  0
  1  2  1  0
  2  3  1  0
  3  4  1  0
  4  5  1  0
  5  6  1  0
  6  7  2  0
  7  8  1  0
  8  9  2  0
  9 10  1  0
 10 11  2  0
 10 12  1  0
 12 13  1  0
 13 14  2  0
 14 15  1  0
 15 16  2  0
 16 17  1  0
 16 18  1  0
 18 19  1  0
 18 20  2  0
  9 21  1  0
 21 22  2  0
  3 23  2  0
 23 24  1  0
 24 25  2  0
 25 26  1  0
 26 27  2  0
 27 28  1  0
 28 29  2  0
 29 30  1  0
 30 31  2  0
 25  2  1  0
 31 26  1  0
 22  6  1  0
 20 13  1  0
  1 32  1  0
  1 33  1  0
  1 34  1  0
  5 35  1  0
  5 36  1  0
  7 37  1  0
  8 38  1  0
 12 39  1  0
 14 40  1  0
 15 41  1  0
 20 42  1  0
 21 43  1  0
 22 44  1  0
 27 45  1  0
 28 46  1  0
 29 47  1  0
 30 48  1  0
M  END
>  <UniqueID>  (23) 
21

>  <SMILES>  (23) 
Cn1c(SCc2ccc(C(=O)Nc3ccc(F)c(Cl)c3)cc2)nnc1-c1ccccn1

>  <Energy>  (23) 
92.0275106735885

>  <Genealogy>  (23) 
Cn1c(SCc2ccc(C(=O)Nc3ccc(F)c(Cl)c3)cc2)nnc1-c1ccccn1 (3D coordinates assigned)
Cn1c(SCc2ccc(C(=O)Nc3ccc(F)c(Cl)c3)cc2)nnc1-c1ccccn1 (optimized conformer: 92.0275106735885 kcal/mol)

>  <smiles>  (23) 
Cn1c(SCc2ccc(C(=O)Nc3ccc(F)c(Cl)c3)cc2)nnc1-c1ccccn1

>  <score_type>  (23) 
oracle

>  <origin>  (23) 
adg

>  <m_score__min__energy>  (23) 
-9.8300000000000001

>  <m_primary>  (23) 
energy

$$$$
23:0
     RDKit          3D

 38 40  0  0  0  0  0  0  0  0999 V2000
   60.0180   36.2600   45.8640 O   0  0  0  0  0  0  0  0  0  0  0  0
   59.5070   35.1650   46.2180 C   0  0  0  0  0  0  0  0  0  0  0  0
   59.3240   34.5210   47.4270 C   0  0  0  0  0  0  0  0  0  0  0  0
   59.6570   34.8440   48.7800 N   0  0  0  0  0  0  0  0  0  0  0  0
   60.5560   34.0280   49.5930 C   0  0  0  0  0  0  0  0  0  0  0  0
   61.6490   33.4050   48.7570 C   0  0  0  0  0  0  0  0  0  0  0  0
   62.7100   34.1890   48.2640 C   0  0  0  0  0  0  0  0  0  0  0  0
   63.7010   33.6160   47.4640 C   0  0  0  0  0  0  0  0  0  0  0  0
   63.6340   32.2620   47.1270 C   0  0  0  0  0  0  0  0  0  0  0  0
   62.5690   31.4820   47.5800 C   0  0  0  0  0  0  0  0  0  0  0  0
   61.5720   32.0490   48.3820 C   0  0  0  0  0  0  0  0  0  0  0  0
   60.5350   31.2750   48.7880 F   0  0  0  0  0  0  0  0  0  0  0  0
   58.7100   33.4670   46.7650 C   0  0  0  0  0  0  0  0  0  0  0  0
   58.1670   32.1960   47.1420 N   0  0  0  0  0  0  0  0  0  0  0  0
   58.9320   31.1200   46.5010 C   0  0  0  0  0  0  0  0  0  0  0  0
   58.1480   30.5250   45.3670 C   0  0  0  0  0  0  0  0  0  0  0  0
   58.5400   29.3100   44.7850 C   0  0  0  0  0  0  0  0  0  0  0  0
   57.7650   28.7600   43.7610 C   0  0  0  0  0  0  0  0  0  0  0  0
   56.6100   29.4180   43.3340 C   0  0  0  0  0  0  0  0  0  0  0  0
   56.2440   30.6210   43.9430 C   0  0  0  0  0  0  0  0  0  0  0  0
   57.0100   31.1400   44.9400 N   0  0  0  0  0  0  0  0  0  0  0  0
   58.9050   34.1130   45.5600 C   0  0  0  0  0  0  0  0  0  0  0  0
   58.6480   33.8470   44.3570 O   0  0  0  0  0  0  0  0  0  0  0  0
   59.2110   35.6840   49.2120 H   0  0  0  0  0  0  0  0  0  0  0  0
   61.0149   34.6632   50.3649 H   0  0  0  0  0  0  0  0  0  0  0  0
   59.9679   33.2184   50.0497 H   0  0  0  0  0  0  0  0  0  0  0  0
   62.7585   35.2599   48.5107 H   0  0  0  0  0  0  0  0  0  0  0  0
   64.5359   34.2320   47.0986 H   0  0  0  0  0  0  0  0  0  0  0  0
   64.4206   31.8106   46.5046 H   0  0  0  0  0  0  0  0  0  0  0  0
   62.5130   30.4182   47.3058 H   0  0  0  0  0  0  0  0  0  0  0  0
   58.2070   32.1020   48.1810 H   0  0  0  0  0  0  0  0  0  0  0  0
   57.1680   32.1550   46.8330 H   0  0  0  0  0  0  0  0  0  0  0  0
   59.8771   31.5283   46.1135 H   0  0  0  0  0  0  0  0  0  0  0  0
   59.1362   30.3353   47.2444 H   0  0  0  0  0  0  0  0  0  0  0  0
   59.4485   28.7956   45.1315 H   0  0  0  0  0  0  0  0  0  0  0  0
   58.0640   27.8108   43.2923 H   0  0  0  0  0  0  0  0  0  0  0  0
   55.9948   28.9938   42.5268 H   0  0  0  0  0  0  0  0  0  0  0  0
   55.3359   31.1487   43.6160 H   0  0  0  0  0  0  0  0  0  0  0  0
  1  2  2  0
  2  3  1  0
  3  4  1  0
  4  5  1  0
  5  6  1  0
  6  7  2  0
  7  8  1  0
  8  9  2  0
  9 10  1  0
 10 11  2  0
 11 12  1  0
  3 13  2  0
 13 14  1  0
 14 15  1  0
 15 16  1  0
 16 17  2  0
 17 18  1  0
 18 19  2  0
 19 20  1  0
 20 21  2  0
 13 22  1  0
 22 23  2  0
 22  2  1  0
 11  6  1  0
 21 16  1  0
  4 24  1  0
  5 25  1  0
  5 26  1  0
  7 27  1  0
  8 28  1  0
  9 29  1  0
 10 30  1  0
 14 31  1  0
 14 32  1  0
 15 33  1  0
 15 34  1  0
 17 35  1  0
 18 36  1  0
 19 37  1  0
 20 38  1  0
M  CHG  1  14   1
M  END
>  <UniqueID>  (24) 
22

>  <SMILES>  (24) 
O=c1c(NCc2ccccc2F)c([NH2+]Cc2ccccn2)c1=O

>  <Energy>  (24) 
27.478131069737714

>  <Genealogy>  (24) 
O=c1c(NCc2ccccc2F)c([NH2+]Cc2ccccn2)c1=O (protonated)
O=c1c(NCc2ccccc2F)c([NH2+]Cc2ccccn2)c1=O (3D coordinates assigned)
O=c1c(NCc2ccccc2F)c([NH2+]Cc2ccccn2)c1=O (optimized conformer: 27.478131069737714 kcal/mol)

>  <smiles>  (24) 
O=c1c(NCc2ccccn2)c(NCc2ccccc2F)c1=O

>  <score_type>  (24) 
oracle

>  <origin>  (24) 
adg

>  <m_score__min__energy>  (24) 
-5.5099999999999998

>  <m_primary>  (24) 
energy

$$$$
24:0
     RDKit          3D

 36 37  0  0  0  0  0  0  0  0999 V2000
   59.8928   30.3118   48.4435 H   0  0  0  0  0  0  0  0  0  0  0  0
   60.1150   30.6480   47.4200 C   0  0  0  0  0  0  0  0  0  0  0  0
   60.7380   29.7980   46.5950 C   0  0  0  0  0  0  0  0  0  0  0  0
   61.7068   29.3707   46.8931 H   0  0  0  0  0  0  0  0  0  0  0  0
   60.1410   29.4150   45.2690 C   0  0  0  0  0  0  0  0  0  0  0  0
   60.8466   28.7651   44.7307 H   0  0  0  0  0  0  0  0  0  0  0  0
   59.9469   30.3319   44.6932 H   0  0  0  0  0  0  0  0  0  0  0  0
   58.8330   28.6770   45.4580 C   0  0  0  0  0  0  0  0  0  0  0  0
   58.8630   27.4160   46.0720 C   0  0  0  0  0  0  0  0  0  0  0  0
   59.8248   26.9962   46.4017 H   0  0  0  0  0  0  0  0  0  0  0  0
   57.6920   26.6880   46.2700 C   0  0  0  0  0  0  0  0  0  0  0  0
   57.7357   25.7046   46.7609 H   0  0  0  0  0  0  0  0  0  0  0  0
   56.4580   27.2020   45.8470 C   0  0  0  0  0  0  0  0  0  0  0  0
   55.2580   26.4920   46.0110 O   0  0  0  0  0  0  0  0  0  0  0  0
   55.0560   25.1400   45.6080 C   0  0  0  0  0  0  0  0  0  0  0  0
   54.9607   24.5021   46.4991 H   0  0  0  0  0  0  0  0  0  0  0  0
   54.1374   25.0699   45.0069 H   0  0  0  0  0  0  0  0  0  0  0  0
   55.9140   24.8045   45.0069 H   0  0  0  0  0  0  0  0  0  0  0  0
   56.4110   28.4640   45.2430 C   0  0  0  0  0  0  0  0  0  0  0  0
   55.1800   28.9620   44.8250 O   0  0  0  0  0  0  0  0  0  0  0  0
   57.5850   29.2280   45.0650 C   0  0  0  0  0  0  0  0  0  0  0  0
   57.4930   30.5850   44.4050 C   0  0  0  0  0  0  0  0  0  0  0  0
   57.4401   31.3658   45.1780 H   0  0  0  0  0  0  0  0  0  0  0  0
   58.3821   30.7490   43.7784 H   0  0  0  0  0  0  0  0  0  0  0  0
   56.5899   30.6275   43.7784 H   0  0  0  0  0  0  0  0  0  0  0  0
   59.7090   32.0170   47.0280 C   0  0  0  0  0  0  0  0  0  0  0  0
   60.6500   33.0180   46.7110 C   0  0  0  0  0  0  0  0  0  0  0  0
   61.7258   32.7952   46.7665 H   0  0  0  0  0  0  0  0  0  0  0  0
   60.2220   34.2940   46.3260 C   0  0  0  0  0  0  0  0  0  0  0  0
   60.9616   35.0726   46.0877 H   0  0  0  0  0  0  0  0  0  0  0  0
   58.8580   34.5800   46.2440 C   0  0  0  0  0  0  0  0  0  0  0  0
   58.5238   35.5840   45.9434 H   0  0  0  0  0  0  0  0  0  0  0  0
   57.9160   33.5900   46.5440 C   0  0  0  0  0  0  0  0  0  0  0  0
   56.8415   33.8164   46.4788 H   0  0  0  0  0  0  0  0  0  0  0  0
   58.3390   32.3120   46.9270 C   0  0  0  0  0  0  0  0  0  0  0  0
   57.5943   31.5338   47.1503 H   0  0  0  0  0  0  0  0  0  0  0  0
  1  2  1  0
  2  3  2  0
  3  4  1  0
  3  5  1  0
  5  6  1  0
  5  7  1  0
  5  8  1  0
  8  9  2  0
  9 10  1  0
  9 11  1  0
 11 12  1  0
 11 13  2  0
 13 14  1  0
 14 15  1  0
 15 16  1  0
 15 17  1  0
 15 18  1  0
 13 19  1  0
 19 20  1  0
 19 21  2  0
 21 22  1  0
 22 23  1  0
 22 24  1  0
 22 25  1  0
  2 26  1  0
 26 27  2  0
 27 28  1  0
 27 29  1  0
 29 30  1  0
 29 31  2  0
 31 32  1  0
 31 33  1  0
 33 34  1  0
 33 35  2  0
 35 36  1  0
 21  8  1  0
 35 26  1  0
M  CHG  1  20  -1
M  END
>  <UniqueID>  (25) 
23

>  <SMILES>  (25) 
COc1ccc(C/C=C/c2ccccc2)c(C)c1[O-]

>  <Energy>  (25) 
38.11511106535041

>  <Genealogy>  (25) 
COc1ccc(CC=Cc2ccccc2)c(C)c1[O-] (protonated)
COc1ccc(C/C=C/c2ccccc2)c(C)c1[O-] (cis-trans isomerization)
COc1ccc(C/C=C/c2ccccc2)c(C)c1[O-] (3D coordinates assigned)
COc1ccc(C/C=C/c2ccccc2)c(C)c1[O-] (optimized conformer: 38.11511106535041 kcal/mol)

>  <smiles>  (25) 
COc1ccc(CC=Cc2ccccc2)c(C)c1O

>  <score_type>  (25) 
oracle

>  <origin>  (25) 
adg

>  <m_score__min__energy>  (25) 
-11.18

>  <m_primary>  (25) 
energy

$$$$
25:0
     RDKit          3D

 26 27  0  0  0  0  0  0  0  0999 V2000
   58.3611   32.6302   43.0731 H   0  0  0  0  0  0  0  0  0  0  0  0
   57.8100   32.5420   44.0210 C   0  0  0  0  0  0  0  0  0  0  0  0
   57.3360   31.2080   44.4510 C   0  0  0  0  0  0  0  0  0  0  0  0
   56.1090   31.0130   44.6640 O   0  0  0  0  0  0  0  0  0  0  0  0
   58.2570   30.1410   44.7080 N   0  0  0  0  0  0  0  0  0  0  0  0
   57.9410   28.8650   45.2810 C   0  0  0  0  0  0  0  0  0  0  0  0
   58.9700   28.1070   45.8560 C   0  0  0  0  0  0  0  0  0  0  0  0
   60.0025   28.4862   45.8416 H   0  0  0  0  0  0  0  0  0  0  0  0
   58.6910   26.8710   46.4480 C   0  0  0  0  0  0  0  0  0  0  0  0
   59.5058   26.2745   46.8843 H   0  0  0  0  0  0  0  0  0  0  0  0
   57.3790   26.3930   46.4860 C   0  0  0  0  0  0  0  0  0  0  0  0
   57.1622   25.4173   46.9453 H   0  0  0  0  0  0  0  0  0  0  0  0
   56.3410   27.1550   45.9400 C   0  0  0  0  0  0  0  0  0  0  0  0
   55.0340   26.6870   45.9940 O   0  0  0  0  0  0  0  0  0  0  0  0
   56.6170   28.3910   45.3460 C   0  0  0  0  0  0  0  0  0  0  0  0
   55.7973   28.9942   44.9286 H   0  0  0  0  0  0  0  0  0  0  0  0
   57.5910   33.6440   44.7460 C   0  0  0  0  0  0  0  0  0  0  0  0
   56.7867   34.3324   44.4473 H   0  0  0  0  0  0  0  0  0  0  0  0
   58.4000   33.9570   45.9330 C   0  0  0  0  0  0  0  0  0  0  0  0
   59.2180   34.9810   46.0330 O   0  0  0  0  0  0  0  0  0  0  0  0
   59.7730   34.9570   47.2230 C   0  0  0  0  0  0  0  0  0  0  0  0
   60.5038   35.6898   47.5956 H   0  0  0  0  0  0  0  0  0  0  0  0
   59.3010   33.8740   47.9350 C   0  0  0  0  0  0  0  0  0  0  0  0
   59.5770   33.5858   48.9601 H   0  0  0  0  0  0  0  0  0  0  0  0
   58.4140   33.2260   47.1030 C   0  0  0  0  0  0  0  0  0  0  0  0
   57.8375   32.3159   47.3253 H   0  0  0  0  0  0  0  0  0  0  0  0
  1  2  1  0
  2  3  1  0
  3  4  2  0
  3  5  1  0
  5  6  1  0
  6  7  2  0
  7  8  1  0
  7  9  1  0
  9 10  1  0
  9 11  2  0
 11 12  1  0
 11 13  1  0
 13 14  1  0
 13 15  2  0
 15 16  1  0
  2 17  2  0
 17 18  1  0
 17 19  1  0
 19 20  1  0
 20 21  1  0
 21 22  1  0
 21 23  2  0
 23 24  1  0
 23 25  1  0
 25 26  1  0
 15  6  1  0
 25 19  2  0
M  CHG  2   5  -1  14  -1
M  END
>  <UniqueID>  (26) 
24

>  <SMILES>  (26) 
O=C(/C=C/c1ccco1)[N-]c1cccc([O-])c1

>  <Energy>  (26) 
54.98975313212533

>  <Genealogy>  (26) 
O=C(C=Cc1ccco1)[N-]c1cccc([O-])c1 (protonated)
O=C(/C=C/c1ccco1)[N-]c1cccc([O-])c1 (cis-trans isomerization)
O=C(/C=C/c1ccco1)[N-]c1cccc([O-])c1 (3D coordinates assigned)
O=C(/C=C/c1ccco1)[N-]c1cccc([O-])c1 (optimized conformer: 54.98975313212533 kcal/mol)

>  <smiles>  (26) 
O=C(C=Cc1ccco1)Nc1cccc(O)c1

>  <score_type>  (26) 
oracle

>  <origin>  (26) 
adg

>  <m_score__min__energy>  (26) 
-10.98

>  <m_primary>  (26) 
energy

$$$$
26:0
     RDKit          3D

 48 49  0  0  0  0  0  0  0  0999 V2000
   60.9850   30.3650   47.9980 C   0  0  0  0  0  0  0  0  0  0  0  0
   61.8260   31.5610   47.5450 C   0  0  0  0  0  0  0  0  0  0  0  0
   61.6250   32.7810   48.3510 N   0  0  0  0  0  0  0  0  0  0  0  0
   62.7680   33.7060   48.4950 C   0  0  0  0  0  0  0  0  0  0  0  0
   63.6920   33.7620   47.2740 C   0  0  0  0  0  0  0  0  0  0  0  0
   60.0230   33.4840   48.2820 S   0  0  0  0  0  0  0  0  0  0  0  0
   59.1860   32.8810   49.3740 O   0  0  0  0  0  0  0  0  0  0  0  0
   60.1050   34.9640   48.5330 O   0  0  0  0  0  0  0  0  0  0  0  0
   59.2200   33.1880   46.7380 C   0  0  0  0  0  0  0  0  0  0  0  0
   59.0850   34.2140   45.7940 C   0  0  0  0  0  0  0  0  0  0  0  0
   58.4620   33.9660   44.5700 C   0  0  0  0  0  0  0  0  0  0  0  0
   57.9500   32.6970   44.2820 C   0  0  0  0  0  0  0  0  0  0  0  0
   57.4110   32.4730   43.0570 F   0  0  0  0  0  0  0  0  0  0  0  0
   58.0470   31.6650   45.2350 C   0  0  0  0  0  0  0  0  0  0  0  0
   57.5160   30.3110   44.9640 C   0  0  0  0  0  0  0  0  0  0  0  0
   56.2700   30.1590   44.8400 O   0  0  0  0  0  0  0  0  0  0  0  0
   58.4000   29.1830   44.8390 N   0  0  0  0  0  0  0  0  0  0  0  0
   57.9610   27.8460   44.5450 C   0  0  0  0  0  0  0  0  0  0  0  0
   58.1840   27.2630   43.2870 C   0  0  0  0  0  0  0  0  0  0  0  0
   57.7700   25.9540   43.0360 C   0  0  0  0  0  0  0  0  0  0  0  0
   57.1450   25.2090   44.0380 C   0  0  0  0  0  0  0  0  0  0  0  0
   56.9340   25.7630   45.3150 C   0  0  0  0  0  0  0  0  0  0  0  0
   56.2800   24.9800   46.4000 C   0  0  0  0  0  0  0  0  0  0  0  0
   57.0620   24.4020   47.5420 C   0  0  0  0  0  0  0  0  0  0  0  0
   55.0350   24.7900   46.3710 O   0  0  0  0  0  0  0  0  0  0  0  0
   57.3560   27.0850   45.5570 C   0  0  0  0  0  0  0  0  0  0  0  0
   58.6900   31.9190   46.4570 C   0  0  0  0  0  0  0  0  0  0  0  0
   60.9601   30.3296   49.0971 H   0  0  0  0  0  0  0  0  0  0  0  0
   59.9606   30.4696   47.6112 H   0  0  0  0  0  0  0  0  0  0  0  0
   61.4300   29.4363   47.6112 H   0  0  0  0  0  0  0  0  0  0  0  0
   62.8875   31.2789   47.6048 H   0  0  0  0  0  0  0  0  0  0  0  0
   61.5067   31.8025   46.5204 H   0  0  0  0  0  0  0  0  0  0  0  0
   62.3727   34.7167   48.6744 H   0  0  0  0  0  0  0  0  0  0  0  0
   63.3745   33.3292   49.3318 H   0  0  0  0  0  0  0  0  0  0  0  0
   64.7380   33.8254   47.6084 H   0  0  0  0  0  0  0  0  0  0  0  0
   63.5550   32.8539   46.6685 H   0  0  0  0  0  0  0  0  0  0  0  0
   63.4463   34.6469   46.6685 H   0  0  0  0  0  0  0  0  0  0  0  0
   59.4715   35.2191   46.0183 H   0  0  0  0  0  0  0  0  0  0  0  0
   58.3733   34.7731   43.8279 H   0  0  0  0  0  0  0  0  0  0  0  0
   59.4190   29.3210   45.0190 H   0  0  0  0  0  0  0  0  0  0  0  0
   58.6867   27.8400   42.4968 H   0  0  0  0  0  0  0  0  0  0  0  0
   57.9368   25.5074   42.0447 H   0  0  0  0  0  0  0  0  0  0  0  0
   56.8148   24.1810   43.8279 H   0  0  0  0  0  0  0  0  0  0  0  0
   56.6182   24.7300   48.4935 H   0  0  0  0  0  0  0  0  0  0  0  0
   57.0368   23.3038   47.4850 H   0  0  0  0  0  0  0  0  0  0  0  0
   58.1045   24.7483   47.4850 H   0  0  0  0  0  0  0  0  0  0  0  0
   57.2092   27.5271   46.5535 H   0  0  0  0  0  0  0  0  0  0  0  0
   58.7794   31.1149   47.2022 H   0  0  0  0  0  0  0  0  0  0  0  0
  1  2  1  0
  2  3  1  0
  3  4  1  0
  4  5  1  0
  3  6  1  0
  6  7  2  0
  6  8  2  0
  6  9  1  0
  9 10  2  0
 10 11  1  0
 11 12  2  0
 12 13  1  0
 12 14  1  0
 14 15  1  0
 15 16  2  0
 15 17  1  0
 17 18  1  0
 18 19  2  0
 19 20  1  0
 20 21  2  0
 21 22  1  0
 22 23  1  0
 23 24  1  0
 23 25  2  0
 22 26  2  0
 14 27  2  0
 27  9  1  0
 26 18  1  0
  1 28  1  0
  1 29  1  0
  1 30  1  0
  2 31  1  0
  2 32  1  0
  4 33  1  0
  4 34  1  0
  5 35  1  0
  5 36  1  0
  5 37  1  0
 10 38  1  0
 11 39  1  0
 17 40  1  0
 19 41  1  0
 20 42  1  0
 21 43  1  0
 24 44  1  0
 24 45  1  0
 24 46  1  0
 26 47  1  0
 27 48  1  0
M  END
>  <UniqueID>  (27) 
25

>  <SMILES>  (27) 
CCN(CC)S(=O)(=O)c1ccc(F)c(C(=O)Nc2cccc(C(C)=O)c2)c1

>  <Energy>  (27) 
63.152400341340694

>  <Genealogy>  (27) 
CCN(CC)S(=O)(=O)c1ccc(F)c(C(=O)Nc2cccc(C(C)=O)c2)c1 (3D coordinates assigned)
CCN(CC)S(=O)(=O)c1ccc(F)c(C(=O)Nc2cccc(C(C)=O)c2)c1 (optimized conformer: 63.152400341340694 kcal/mol)

>  <smiles>  (27) 
CCN(CC)S(=O)(=O)c1ccc(F)c(C(=O)Nc2cccc(C(C)=O)c2)c1

>  <score_type>  (27) 
oracle

>  <origin>  (27) 
adg

>  <m_score__min__energy>  (27) 
-8.9000000000000004

>  <m_primary>  (27) 
energy

$$$$
27:0
     RDKit          3D

 37 39  0  0  0  0  0  0  0  0999 V2000
   60.3732   28.2755   46.0995 H   0  0  0  0  0  0  0  0  0  0  0  0
   59.3070   28.5060   45.9580 C   0  0  0  0  0  0  0  0  0  0  0  0
   58.3800   27.5180   46.0500 N   0  0  0  0  0  0  0  0  0  0  0  0
   57.0530   27.7800   45.8820 C   0  0  0  0  0  0  0  0  0  0  0  0
   56.1630   26.8330   45.9420 N   0  0  0  0  0  0  0  0  0  0  0  0
   56.2140   25.5570   45.2820 C   0  0  0  0  0  0  0  0  0  0  0  0
   57.2860   25.1900   44.4460 C   0  0  0  0  0  0  0  0  0  0  0  0
   58.1037   25.9017   44.2591 H   0  0  0  0  0  0  0  0  0  0  0  0
   57.3150   23.9230   43.8520 C   0  0  0  0  0  0  0  0  0  0  0  0
   58.1476   23.6469   43.1883 H   0  0  0  0  0  0  0  0  0  0  0  0
   56.2860   23.0060   44.1010 C   0  0  0  0  0  0  0  0  0  0  0  0
   56.3170   21.7030   43.4900 C   0  0  0  0  0  0  0  0  0  0  0  0
   56.3420   20.6560   42.9970 N   0  0  0  0  0  0  0  0  0  0  0  0
   55.2350   23.3560   44.9560 C   0  0  0  0  0  0  0  0  0  0  0  0
   54.4301   22.6346   45.1604 H   0  0  0  0  0  0  0  0  0  0  0  0
   55.2060   24.6210   45.5510 C   0  0  0  0  0  0  0  0  0  0  0  0
   54.3859   24.8836   46.2354 H   0  0  0  0  0  0  0  0  0  0  0  0
   56.6530   29.0480   45.6030 N   0  0  0  0  0  0  0  0  0  0  0  0
   57.5470   30.0710   45.5130 C   0  0  0  0  0  0  0  0  0  0  0  0
   57.1300   31.3740   45.2090 O   0  0  0  0  0  0  0  0  0  0  0  0
   57.8200   32.5470   45.5540 C   0  0  0  0  0  0  0  0  0  0  0  0
   58.2020   32.8170   46.8820 C   0  0  0  0  0  0  0  0  0  0  0  0
   57.9502   32.1029   47.6799 H   0  0  0  0  0  0  0  0  0  0  0  0
   58.8990   33.9870   47.1910 C   0  0  0  0  0  0  0  0  0  0  0  0
   59.1867   34.1963   48.2319 H   0  0  0  0  0  0  0  0  0  0  0  0
   59.2310   34.8910   46.1810 C   0  0  0  0  0  0  0  0  0  0  0  0
   59.7742   35.8153   46.4274 H   0  0  0  0  0  0  0  0  0  0  0  0
   58.8740   34.6230   44.8570 C   0  0  0  0  0  0  0  0  0  0  0  0
   59.1439   35.3345   44.0627 H   0  0  0  0  0  0  0  0  0  0  0  0
   58.1700   33.4460   44.5340 C   0  0  0  0  0  0  0  0  0  0  0  0
   57.7980   33.1380   43.2160 O   0  0  0  0  0  0  0  0  0  0  0  0
   58.0920   31.9070   42.5630 C   0  0  0  0  0  0  0  0  0  0  0  0
   58.2782   31.1275   43.3165 H   0  0  0  0  0  0  0  0  0  0  0  0
   57.2389   31.6127   41.9341 H   0  0  0  0  0  0  0  0  0  0  0  0
   58.9860   32.0300   41.9341 H   0  0  0  0  0  0  0  0  0  0  0  0
   58.9060   29.8130   45.6840 C   0  0  0  0  0  0  0  0  0  0  0  0
   59.6461   30.6229   45.6045 H   0  0  0  0  0  0  0  0  0  0  0  0
  1  2  1  0
  2  3  1  0
  3  4  1  0
  4  5  2  0
  5  6  1  0
  6  7  2  0
  7  8  1  0
  7  9  1  0
  9 10  1  0
  9 11  2  0
 11 12  1  0
 12 13  3  0
 11 14  1  0
 14 15  1  0
 14 16  2  0
 16 17  1  0
  4 18  1  0
 18 19  2  0
 19 20  1  0
 20 21  1  0
 21 22  2  0
 22 23  1  0
 22 24  1  0
 24 25  1  0
 24 26  2  0
 26 27  1  0
 26 28  1  0
 28 29  1  0
 28 30  2  0
 30 31  1  0
 31 32  1  0
 32 33  1  0
 32 34  1  0
 32 35  1  0
 19 36  1  0
 36 37  1  0
 36  2  2  0
 16  6  1  0
 30 21  1  0
M  CHG  1   3  -1
M  END
>  <UniqueID>  (28) 
26

>  <SMILES>  (28) 
COc1ccccc1Oc1cc[n-]/c(=N\c2ccc(C#N)cc2)n1

>  <Energy>  (28) 
50.70672645206026

>  <Genealogy>  (28) 
COc1ccccc1Oc1cc[n-]c(=Nc2ccc(C#N)cc2)n1 (protonated)
COc1ccccc1Oc1cc[n-]/c(=N\c2ccc(C#N)cc2)n1 (cis-trans isomerization)
COc1ccccc1Oc1cc[n-]/c(=N\c2ccc(C#N)cc2)n1 (3D coordinates assigned)
COc1ccccc1Oc1cc[n-]/c(=N\c2ccc(C#N)cc2)n1 (optimized conformer: 50.70672645206026 kcal/mol)

>  <smiles>  (28) 
COc1ccccc1Oc1cc[nH]c(=Nc2ccc(C#N)cc2)n1

>  <score_type>  (28) 
oracle

>  <origin>  (28) 
adg

>  <m_score__min__energy>  (28) 
-10.16

>  <m_primary>  (28) 
energy

$$$$
28:0
     RDKit          3D

 41 44  0  0  0  0  0  0  0  0999 V2000
   57.1570   33.3710   45.0570 C   0  0  0  0  0  0  0  0  0  0  0  0
   58.1080   32.3180   45.5750 C   0  0  0  0  0  0  0  0  0  0  0  0
   59.3100   32.6480   46.1140 C   0  0  0  0  0  0  0  0  0  0  0  0
   59.7390   34.0940   46.2780 C   0  0  0  0  0  0  0  0  0  0  0  0
   61.2630   34.2170   46.3710 C   0  0  0  0  0  0  0  0  0  0  0  0
   61.8140   33.2720   47.4020 C   0  0  0  0  0  0  0  0  0  0  0  0
   62.8920   33.6490   48.2160 C   0  0  0  0  0  0  0  0  0  0  0  0
   63.4150   32.7580   49.1680 C   0  0  0  0  0  0  0  0  0  0  0  0
   64.5510   33.1620   50.0360 C   0  0  0  0  0  0  0  0  0  0  0  0
   65.8560   32.7130   49.7610 C   0  0  0  0  0  0  0  0  0  0  0  0
   66.9250   33.0940   50.5780 C   0  0  0  0  0  0  0  0  0  0  0  0
   66.7020   33.9240   51.6800 C   0  0  0  0  0  0  0  0  0  0  0  0
   67.7400   34.2910   52.4730 F   0  0  0  0  0  0  0  0  0  0  0  0
   65.4120   34.3750   51.9650 C   0  0  0  0  0  0  0  0  0  0  0  0
   64.3400   33.9970   51.1490 C   0  0  0  0  0  0  0  0  0  0  0  0
   62.8390   31.4820   49.2940 C   0  0  0  0  0  0  0  0  0  0  0  0
   61.7770   31.0970   48.4740 C   0  0  0  0  0  0  0  0  0  0  0  0
   61.2740   31.9760   47.4970 C   0  0  0  0  0  0  0  0  0  0  0  0
   60.1700   31.6080   46.6420 N   0  0  0  0  0  0  0  0  0  0  0  0
   60.0500   30.2540   46.0800 C   0  0  0  0  0  0  0  0  0  0  0  0
   58.5880   29.8220   46.0860 C   0  0  0  0  0  0  0  0  0  0  0  0
   57.7340   30.8840   45.4590 C   0  0  0  0  0  0  0  0  0  0  0  0
   56.6710   30.5450   44.8720 O   0  0  0  0  0  0  0  0  0  0  0  0
   56.6878   33.8906   45.9055 H   0  0  0  0  0  0  0  0  0  0  0  0
   57.7119   34.0966   44.4442 H   0  0  0  0  0  0  0  0  0  0  0  0
   56.3788   32.8927   44.4442 H   0  0  0  0  0  0  0  0  0  0  0  0
   59.3853   34.6728   45.4120 H   0  0  0  0  0  0  0  0  0  0  0  0
   59.3026   34.4813   47.2105 H   0  0  0  0  0  0  0  0  0  0  0  0
   61.7042   33.9793   45.3918 H   0  0  0  0  0  0  0  0  0  0  0  0
   61.5158   35.2461   46.6658 H   0  0  0  0  0  0  0  0  0  0  0  0
   63.3320   34.6514   48.1081 H   0  0  0  0  0  0  0  0  0  0  0  0
   66.0366   32.0572   48.8966 H   0  0  0  0  0  0  0  0  0  0  0  0
   67.9420   32.7402   50.3532 H   0  0  0  0  0  0  0  0  0  0  0  0
   65.2380   35.0286   52.8325 H   0  0  0  0  0  0  0  0  0  0  0  0
   63.3256   34.3549   51.3790 H   0  0  0  0  0  0  0  0  0  0  0  0
   63.2289   30.7802   50.0460 H   0  0  0  0  0  0  0  0  0  0  0  0
   61.3299   30.0990   48.5924 H   0  0  0  0  0  0  0  0  0  0  0  0
   60.4274   30.2524   45.0468 H   0  0  0  0  0  0  0  0  0  0  0  0
   60.6390   29.5533   46.6899 H   0  0  0  0  0  0  0  0  0  0  0  0
   58.4826   28.8870   45.5162 H   0  0  0  0  0  0  0  0  0  0  0  0
   58.2631   29.6658   47.1252 H   0  0  0  0  0  0  0  0  0  0  0  0
  1  2  1  0
  2  3  2  0
  3  4  1  0
  4  5  1  0
  5  6  1  0
  6  7  2  0
  7  8  1  0
  8  9  1  0
  9 10  2  0
 10 11  1  0
 11 12  2  0
 12 13  1  0
 12 14  1  0
 14 15  2  0
  8 16  2  0
 16 17  1  0
 17 18  2  0
 18 19  1  0
 19 20  1  0
 20 21  1  0
 21 22  1  0
 22 23  2  0
 22  2  1  0
 19  3  1  0
 18  6  1  0
 15  9  1  0
  1 24  1  0
  1 25  1  0
  1 26  1  0
  4 27  1  0
  4 28  1  0
  5 29  1  0
  5 30  1  0
  7 31  1  0
 10 32  1  0
 11 33  1  0
 14 34  1  0
 15 35  1  0
 16 36  1  0
 17 37  1  0
 20 38  1  0
 20 39  1  0
 21 40  1  0
 21 41  1  0
M  END
>  <UniqueID>  (29) 
27

>  <SMILES>  (29) 
CC1=C2CCc3cc(-c4ccc(F)cc4)ccc3N2CCC1=O

>  <Energy>  (29) 
56.80396190644503

>  <Genealogy>  (29) 
CC1=C2CCc3cc(-c4ccc(F)cc4)ccc3N2CCC1=O (3D coordinates assigned)
CC1=C2CCc3cc(-c4ccc(F)cc4)ccc3N2CCC1=O (nonaromatic ring conformer: 56.80396190644503 kcal/mol)

>  <smiles>  (29) 
CC1=C2CCc3cc(-c4ccc(F)cc4)ccc3N2CCC1=O

>  <score_type>  (29) 
oracle

>  <origin>  (29) 
adg

>  <m_score__min__energy>  (29) 
-7.9800000000000004

>  <m_primary>  (29) 
energy

$$$$
29:0
     RDKit          3D

 37 40  0  0  1  0  0  0  0  0999 V2000
   56.2830   29.5370   42.6140 N   0  0  0  0  0  0  0  0  0  0  0  0
   57.0200   30.7640   42.7500 C   0  0  0  0  0  0  0  0  0  0  0  0
   57.3750   31.6180   41.7130 C   0  0  0  0  0  0  0  0  0  0  0  0
   58.0580   32.6580   42.2490 N   0  0  0  0  0  0  0  0  0  0  0  0
   58.1420   32.4840   43.5810 C   0  0  0  0  0  0  0  0  0  0  0  0
   58.6790   33.1540   44.6160 N   0  0  0  0  0  0  0  0  0  0  0  0
   58.5950   32.7080   45.8850 C   0  0  0  0  0  0  0  0  0  0  0  0
   59.1280   33.3980   46.8140 N   0  0  0  0  0  0  0  0  0  0  0  0
   60.4810   33.2960   47.2410 C   0  0  0  0  0  0  0  0  0  0  0  0
   60.8590   32.7120   48.4310 C   0  0  0  0  0  0  0  0  0  0  0  0
   62.2240   32.6820   48.7200 C   0  0  0  0  0  0  0  0  0  0  0  0
   63.1660   33.2130   47.8610 C   0  0  0  0  0  0  0  0  0  0  0  0
   64.5190   33.1540   48.2040 O   0  0  0  0  0  0  0  0  0  0  0  0
   62.7790   33.7940   46.6770 C   0  0  0  0  0  0  0  0  0  0  0  0
   61.4360   33.8330   46.3710 C   0  0  0  0  0  0  0  0  0  0  0  0
   57.9670   31.5650   46.1770 N   0  0  0  0  0  0  0  0  0  0  0  0
   57.4220   30.8760   45.1610 C   0  0  0  0  0  0  0  0  0  0  0  0
   56.8200   29.7720   45.4700 N   0  0  0  0  0  0  0  0  0  0  0  0
   57.4640   28.4950   45.5660 C   0  0  0  0  0  0  0  0  0  0  0  0
   58.8390   28.3000   46.0230 C   0  0  0  0  0  0  0  0  0  0  0  0
   58.5260   28.1650   44.5780 C   0  0  0  0  0  0  0  0  0  0  0  0
   57.5010   31.3160   43.8830 N   0  0  0  0  0  0  0  0  0  0  0  0
   55.8640   29.2500   41.6940 H   0  0  0  0  0  0  0  0  0  0  0  0
   56.1890   28.9450   43.4830 H   0  0  0  0  0  0  0  0  0  0  0  0
   57.1429   31.4752   40.6473 H   0  0  0  0  0  0  0  0  0  0  0  0
   58.4580   33.4670   41.7230 H   0  0  0  0  0  0  0  0  0  0  0  0
   60.1167   32.2878   49.1231 H   0  0  0  0  0  0  0  0  0  0  0  0
   62.5598   32.2213   49.6607 H   0  0  0  0  0  0  0  0  0  0  0  0
   65.1810   32.7260   47.5750 H   0  0  0  0  0  0  0  0  0  0  0  0
   63.5249   34.2185   45.9889 H   0  0  0  0  0  0  0  0  0  0  0  0
   61.1094   34.2939   45.4271 H   0  0  0  0  0  0  0  0  0  0  0  0
   57.9280   31.2590   47.1740 H   0  0  0  0  0  0  0  0  0  0  0  0
   56.5059   28.0691   45.8988 H   0  0  0  0  0  0  0  0  0  0  0  0
   59.4256   29.1598   46.3789 H   0  0  0  0  0  0  0  0  0  0  0  0
   59.3213   27.6569   46.7739 H   0  0  0  0  0  0  0  0  0  0  0  0
   58.8726   28.9263   43.8637 H   0  0  0  0  0  0  0  0  0  0  0  0
   58.6715   27.3875   43.8135 H   0  0  0  0  0  0  0  0  0  0  0  0
  1  2  1  0
  2  3  2  0
  3  4  1  0
  4  5  1  0
  5  6  2  0
  6  7  1  0
  7  8  2  0
  8  9  1  0
  9 10  2  0
 10 11  1  0
 11 12  2  0
 12 13  1  0
 12 14  1  0
 14 15  2  0
  7 16  1  0
 16 17  1  0
 17 18  2  0
 18 19  1  0
 19 20  1  0
 20 21  1  0
 17 22  1  0
 22  2  1  0
 22  5  1  0
 15  9  1  0
 21 19  1  0
  1 23  1  0
  1 24  1  0
  3 25  1  0
  4 26  1  0
 10 27  1  0
 11 28  1  0
 13 29  1  0
 14 30  1  0
 15 31  1  0
 16 32  1  0
 19 33  1  0
 20 34  1  0
 20 35  1  0
 21 36  1  0
 21 37  1  0
M  END
>  <smiles>  (30) 
Nc1c[nH]c2nc(=Nc3ccc(O)cc3)[nH]c(=NC3CC3)n12

>  <score_type>  (30) 
oracle

>  <origin>  (30) 
adg

>  <m_score__min__energy>  (30) 
-7.04

>  <m_primary>  (30) 
energy

$$$$
30:0
     RDKit          3D

 20 21  0  0  0  0  0  0  0  0999 V2000
   57.2300   32.5240   41.2710 N   0  0  0  0  0  0  0  0  0  0  0  0
   57.1380   31.5360   41.8670 C   0  0  0  0  0  0  0  0  0  0  0  0
   57.0190   30.2850   42.6200 C   0  0  0  0  0  0  0  0  0  0  0  0
   56.0120   30.5460   44.1180 S   0  0  0  0  0  0  0  0  0  0  0  0
   57.1230   31.7610   44.8270 C   0  0  0  0  0  0  0  0  0  0  0  0
   57.7520   31.5800   46.0170 N   0  0  0  0  0  0  0  0  0  0  0  0
   58.4590   32.7160   46.1490 C   0  0  0  0  0  0  0  0  0  0  0  0
   59.2990   33.0810   47.1990 C   0  0  0  0  0  0  0  0  0  0  0  0
   59.9390   34.3330   47.1190 C   0  0  0  0  0  0  0  0  0  0  0  0
   59.7250   35.1780   46.0040 C   0  0  0  0  0  0  0  0  0  0  0  0
   58.8690   34.7770   44.9610 C   0  0  0  0  0  0  0  0  0  0  0  0
   58.2540   33.5330   45.0760 C   0  0  0  0  0  0  0  0  0  0  0  0
   57.4090   32.9400   44.2250 N   0  0  0  0  0  0  0  0  0  0  0  0
   56.5388   29.5241   41.9872 H   0  0  0  0  0  0  0  0  0  0  0  0
   58.0230   29.9472   42.9164 H   0  0  0  0  0  0  0  0  0  0  0  0
   59.4567   32.4148   48.0600 H   0  0  0  0  0  0  0  0  0  0  0  0
   60.6098   34.6563   47.9286 H   0  0  0  0  0  0  0  0  0  0  0  0
   60.2304   36.1536   45.9522 H   0  0  0  0  0  0  0  0  0  0  0  0
   58.6925   35.4222   44.0878 H   0  0  0  0  0  0  0  0  0  0  0  0
   57.0490   33.3030   43.3130 H   0  0  0  0  0  0  0  0  0  0  0  0
  1  2  3  0
  2  3  1  0
  3  4  1  0
  4  5  1  0
  5  6  2  0
  6  7  1  0
  7  8  2  0
  8  9  1  0
  9 10  2  0
 10 11  1  0
 11 12  2  0
 12 13  1  0
 13  5  1  0
 12  7  1  0
  3 14  1  0
  3 15  1  0
  8 16  1  0
  9 17  1  0
 10 18  1  0
 11 19  1  0
 13 20  1  0
M  END
>  <UniqueID>  (31) 
28

>  <SMILES>  (31) 
N#CCSc1nc2ccccc2[nH]1

>  <Energy>  (31) 
51.765026692646344

>  <Genealogy>  (31) 
N#CCSc1nc2ccccc2[nH]1 (3D coordinates assigned)
N#CCSc1nc2ccccc2[nH]1 (optimized conformer: 51.765026692646344 kcal/mol)

>  <smiles>  (31) 
N#CCSc1nc2ccccc2[nH]1

>  <score_type>  (31) 
oracle

>  <origin>  (31) 
adg

>  <m_score__min__energy>  (31) 
-5.4500000000000002

>  <m_primary>  (31) 
energy

$$$$
31:0
     RDKit          3D

 32 34  0  0  0  0  0  0  0  0999 V2000
   56.4600   29.6810   42.7390 N   0  0  0  0  0  0  0  0  0  0  0  0
   56.4540   29.4760   44.1520 C   0  0  0  0  0  0  0  0  0  0  0  0
   55.4000   29.6960   44.8080 O   0  0  0  0  0  0  0  0  0  0  0  0
   57.6440   28.9380   44.8410 C   0  0  0  0  0  0  0  0  0  0  0  0
   57.9530   27.5800   44.6610 C   0  0  0  0  0  0  0  0  0  0  0  0
   59.0840   27.0250   45.2600 C   0  0  0  0  0  0  0  0  0  0  0  0
   59.9190   27.8150   46.0450 C   0  0  0  0  0  0  0  0  0  0  0  0
   59.6310   29.1720   46.2430 C   0  0  0  0  0  0  0  0  0  0  0  0
   58.4810   29.7400   45.6580 C   0  0  0  0  0  0  0  0  0  0  0  0
   58.1390   31.1550   46.0530 C   0  0  0  0  0  0  0  0  0  0  0  0
   59.3910   32.0340   46.0170 C   0  0  0  0  0  0  0  0  0  0  0  0
   60.5230   31.4240   46.7390 N   0  0  0  0  0  0  0  0  0  0  0  0
   61.6460   32.2540   47.1030 C   0  0  0  0  0  0  0  0  0  0  0  0
   62.4700   31.8900   48.1230 N   0  0  0  0  0  0  0  0  0  0  0  0
   63.5300   32.6630   48.4710 C   0  0  0  0  0  0  0  0  0  0  0  0
   63.7700   33.8430   47.7730 C   0  0  0  0  0  0  0  0  0  0  0  0
   62.9350   34.1860   46.7600 N   0  0  0  0  0  0  0  0  0  0  0  0
   61.8990   33.4120   46.4320 N   0  0  0  0  0  0  0  0  0  0  0  0
   60.5060   30.0060   47.1460 C   0  0  0  0  0  0  0  0  0  0  0  0
   57.2920   29.4190   42.1660 H   0  0  0  0  0  0  0  0  0  0  0  0
   55.6160   30.0640   42.2600 H   0  0  0  0  0  0  0  0  0  0  0  0
   57.2979   26.9488   44.0426 H   0  0  0  0  0  0  0  0  0  0  0  0
   59.3166   25.9602   45.1116 H   0  0  0  0  0  0  0  0  0  0  0  0
   60.8103   27.3714   46.5127 H   0  0  0  0  0  0  0  0  0  0  0  0
   57.3930   31.5572   45.3518 H   0  0  0  0  0  0  0  0  0  0  0  0
   57.7328   31.1528   47.0752 H   0  0  0  0  0  0  0  0  0  0  0  0
   59.6833   32.1907   44.9682 H   0  0  0  0  0  0  0  0  0  0  0  0
   59.1488   32.9857   46.5126 H   0  0  0  0  0  0  0  0  0  0  0  0
   64.1921   32.3602   49.2956 H   0  0  0  0  0  0  0  0  0  0  0  0
   64.6219   34.4864   48.0380 H   0  0  0  0  0  0  0  0  0  0  0  0
   61.5327   29.6129   47.1085 H   0  0  0  0  0  0  0  0  0  0  0  0
   60.0965   29.9488   48.1653 H   0  0  0  0  0  0  0  0  0  0  0  0
  1  2  1  0
  2  3  2  0
  2  4  1  0
  4  5  2  0
  5  6  1  0
  6  7  2  0
  7  8  1  0
  8  9  2  0
  9 10  1  0
 10 11  1  0
 11 12  1  0
 12 13  1  0
 13 14  2  0
 14 15  1  0
 15 16  2  0
 16 17  1  0
 17 18  2  0
 12 19  1  0
  9  4  1  0
 18 13  1  0
 19  8  1  0
  1 20  1  0
  1 21  1  0
  5 22  1  0
  6 23  1  0
  7 24  1  0
 10 25  1  0
 10 26  1  0
 11 27  1  0
 11 28  1  0
 15 29  1  0
 16 30  1  0
 19 31  1  0
 19 32  1  0
M  END
>  <UniqueID>  (32) 
29

>  <SMILES>  (32) 
NC(=O)c1cccc2c1CCN(c1nccnn1)C2

>  <Energy>  (32) 
45.463373828467944

>  <Genealogy>  (32) 
NC(=O)c1cccc2c1CCN(c1nccnn1)C2 (3D coordinates assigned)
NC(=O)c1cccc2c1CCN(c1nccnn1)C2 (nonaromatic ring conformer: 45.463373828467944 kcal/mol)

>  <smiles>  (32) 
NC(=O)c1cccc2c1CCN(c1nccnn1)C2

>  <score_type>  (32) 
oracle

>  <origin>  (32) 
adg

>  <m_score__min__energy>  (32) 
-7.2300000000000004

>  <m_primary>  (32) 
energy

$$$$
32:0
     RDKit          3D

 54 58  0  0  0  0  0  0  0  0999 V2000
   56.4240   25.4830   45.5680 C   0  0  0  0  0  0  0  0  0  0  0  0
   57.4640   26.3840   46.1780 C   0  0  0  0  0  0  0  0  0  0  0  0
   58.1650   25.9310   47.3070 C   0  0  0  0  0  0  0  0  0  0  0  0
   59.1810   26.7030   47.8710 C   0  0  0  0  0  0  0  0  0  0  0  0
   59.5260   27.9400   47.3150 C   0  0  0  0  0  0  0  0  0  0  0  0
   60.5710   28.7190   47.9270 N   0  0  0  0  0  0  0  0  0  0  0  0
   60.4400   30.0990   48.3110 C   0  0  0  0  0  0  0  0  0  0  0  0
   59.4040   30.7550   48.0200 O   0  0  0  0  0  0  0  0  0  0  0  0
   61.5240   30.7650   49.0600 C   0  0  0  0  0  0  0  0  0  0  0  0
   61.8110   30.3040   50.3530 C   0  0  0  0  0  0  0  0  0  0  0  0
   62.8500   30.8630   51.0950 C   0  0  0  0  0  0  0  0  0  0  0  0
   63.6160   31.8980   50.5630 C   0  0  0  0  0  0  0  0  0  0  0  0
   63.3350   32.3980   49.2840 C   0  0  0  0  0  0  0  0  0  0  0  0
   64.0920   33.4600   48.7650 C   0  0  0  0  0  0  0  0  0  0  0  0
   63.7980   33.9830   47.5060 C   0  0  0  0  0  0  0  0  0  0  0  0
   62.7450   33.4590   46.7560 C   0  0  0  0  0  0  0  0  0  0  0  0
   61.9860   32.3970   47.2550 C   0  0  0  0  0  0  0  0  0  0  0  0
   62.2770   31.8390   48.5180 C   0  0  0  0  0  0  0  0  0  0  0  0
   58.7970   28.4200   46.2140 C   0  0  0  0  0  0  0  0  0  0  0  0
   57.7570   27.6670   45.6550 C   0  0  0  0  0  0  0  0  0  0  0  0
   57.0640   28.2210   44.5250 N   0  0  0  0  0  0  0  0  0  0  0  0
   56.3960   29.4890   44.4660 C   0  0  0  0  0  0  0  0  0  0  0  0
   55.1380   29.5010   44.3940 O   0  0  0  0  0  0  0  0  0  0  0  0
   57.1320   30.7780   44.4550 C   0  0  0  0  0  0  0  0  0  0  0  0
   57.4380   31.4340   43.2460 C   0  0  0  0  0  0  0  0  0  0  0  0
   58.1420   32.6430   43.2550 C   0  0  0  0  0  0  0  0  0  0  0  0
   58.5300   33.2160   44.4680 C   0  0  0  0  0  0  0  0  0  0  0  0
   58.1870   32.5980   45.6780 C   0  0  0  0  0  0  0  0  0  0  0  0
   57.4990   31.3830   45.6730 C   0  0  0  0  0  0  0  0  0  0  0  0
   58.5440   33.2140   46.8820 O   0  0  0  0  0  0  0  0  0  0  0  0
   59.0020   34.5680   46.9130 C   0  0  0  0  0  0  0  0  0  0  0  0
   59.8950   34.8560   45.7000 C   0  0  0  0  0  0  0  0  0  0  0  0
   59.2590   34.4090   44.4980 O   0  0  0  0  0  0  0  0  0  0  0  0
   55.8530   24.9883   46.3675 H   0  0  0  0  0  0  0  0  0  0  0  0
   55.7414   26.0799   44.9453 H   0  0  0  0  0  0  0  0  0  0  0  0
   56.9176   24.7223   44.9453 H   0  0  0  0  0  0  0  0  0  0  0  0
   57.9105   24.9575   47.7514 H   0  0  0  0  0  0  0  0  0  0  0  0
   59.7152   26.3364   48.7599 H   0  0  0  0  0  0  0  0  0  0  0  0
   61.5080   28.2690   48.0390 H   0  0  0  0  0  0  0  0  0  0  0  0
   61.2091   29.4918   50.7866 H   0  0  0  0  0  0  0  0  0  0  0  0
   63.0662   30.4853   52.1052 H   0  0  0  0  0  0  0  0  0  0  0  0
   64.4440   32.3242   51.1485 H   0  0  0  0  0  0  0  0  0  0  0  0
   64.9203   33.8814   49.3535 H   0  0  0  0  0  0  0  0  0  0  0  0
   64.3986   34.8117   47.1029 H   0  0  0  0  0  0  0  0  0  0  0  0
   62.5113   33.8832   45.7684 H   0  0  0  0  0  0  0  0  0  0  0  0
   61.1550   31.9927   46.6584 H   0  0  0  0  0  0  0  0  0  0  0  0
   59.0468   29.4016   45.7849 H   0  0  0  0  0  0  0  0  0  0  0  0
   57.1214   30.9928   42.2894 H   0  0  0  0  0  0  0  0  0  0  0  0
   58.3899   33.1422   42.3067 H   0  0  0  0  0  0  0  0  0  0  0  0
   57.2422   30.8957   46.6252 H   0  0  0  0  0  0  0  0  0  0  0  0
   58.1350   35.2448   46.8941 H   0  0  0  0  0  0  0  0  0  0  0  0
   59.5848   34.7275   47.8322 H   0  0  0  0  0  0  0  0  0  0  0  0
   60.0779   35.9386   45.6328 H   0  0  0  0  0  0  0  0  0  0  0  0
   60.8478   34.3199   45.8216 H   0  0  0  0  0  0  0  0  0  0  0  0
  1  2  1  0
  2  3  2  0
  3  4  1  0
  4  5  2  0
  5  6  1  0
  6  7  1  0
  7  8  2  0
  7  9  1  0
  9 10  2  0
 10 11  1  0
 11 12  2  0
 12 13  1  0
 13 14  2  0
 14 15  1  0
 15 16  2  0
 16 17  1  0
 17 18  2  0
  5 19  1  0
 19 20  2  0
 20 21  1  0
 21 22  1  0
 22 23  2  0
 22 24  1  0
 24 25  2  0
 25 26  1  0
 26 27  2  0
 27 28  1  0
 28 29  2  0
 28 30  1  0
 30 31  1  0
 31 32  1  0
 32 33  1  0
 20  2  1  0
 29 24  1  0
 18  9  1  0
 33 27  1  0
 18 13  1  0
  1 34  1  0
  1 35  1  0
  1 36  1  0
  3 37  1  0
  4 38  1  0
  6 39  1  0
 10 40  1  0
 11 41  1  0
 12 42  1  0
 14 43  1  0
 15 44  1  0
 16 45  1  0
 17 46  1  0
 19 47  1  0
 25 48  1  0
 26 49  1  0
 29 50  1  0
 31 51  1  0
 31 52  1  0
 32 53  1  0
 32 54  1  0
M  CHG  1  21  -1
M  END
>  <UniqueID>  (33) 
30

>  <SMILES>  (33) 
Cc1ccc(NC(=O)c2cccc3ccccc23)cc1[N-]C(=O)c1ccc2c(c1)OCCO2

>  <Energy>  (33) 
85.11630693729956

>  <Genealogy>  (33) 
Cc1ccc(NC(=O)c2cccc3ccccc23)cc1[N-]C(=O)c1ccc2c(c1)OCCO2 (protonated)
Cc1ccc(NC(=O)c2cccc3ccccc23)cc1[N-]C(=O)c1ccc2c(c1)OCCO2 (3D coordinates assigned)
Cc1ccc(NC(=O)c2cccc3ccccc23)cc1[N-]C(=O)c1ccc2c(c1)OCCO2 (nonaromatic ring conformer: 85.11630693729956 kcal/mol)

>  <smiles>  (33) 
Cc1ccc(NC(=O)c2cccc3ccccc23)cc1NC(=O)c1ccc2c(c1)OCCO2

>  <score_type>  (33) 
oracle

>  <origin>  (33) 
adg

>  <m_score__min__energy>  (33) 
-11.15

>  <m_primary>  (33) 
energy

$$$$
33:0
     RDKit          3D

 35 35  0  0  0  0  0  0  0  0999 V2000
   63.3190   33.8480   46.3810 C   0  0  0  0  0  0  0  0  0  0  0  0
   62.8660   33.1760   47.4490 C   0  0  0  0  0  0  0  0  0  0  0  0
   63.0000   31.6770   47.4910 C   0  0  0  0  0  0  0  0  0  0  0  0
   62.2140   33.9220   48.5940 C   0  0  0  0  0  0  0  0  0  0  0  0
   60.7540   33.7460   48.5660 N   0  0  0  0  0  0  0  0  0  0  0  0
   60.1570   34.5220   47.4700 C   0  0  0  0  0  0  0  0  0  0  0  0
   59.2150   33.6630   46.6670 C   0  0  0  0  0  0  0  0  0  0  0  0
   58.0730   34.2250   46.0780 C   0  0  0  0  0  0  0  0  0  0  0  0
   57.1780   33.4230   45.3630 C   0  0  0  0  0  0  0  0  0  0  0  0
   57.4080   32.0380   45.2380 C   0  0  0  0  0  0  0  0  0  0  0  0
   56.5460   31.1830   44.5320 O   0  0  0  0  0  0  0  0  0  0  0  0
   56.8030   30.6270   43.2420 C   0  0  0  0  0  0  0  0  0  0  0  0
   57.3970   31.6770   42.3100 C   0  0  0  0  0  0  0  0  0  0  0  0
   58.5450   31.4820   45.8380 C   0  0  0  0  0  0  0  0  0  0  0  0
   59.4390   32.2830   46.5520 C   0  0  0  0  0  0  0  0  0  0  0  0
   63.2260   34.9433   46.3403 H   0  0  0  0  0  0  0  0  0  0  0  0
   63.7837   33.3041   45.5454 H   0  0  0  0  0  0  0  0  0  0  0  0
   63.0301   31.3408   48.5379 H   0  0  0  0  0  0  0  0  0  0  0  0
   62.1393   31.2176   46.9829 H   0  0  0  0  0  0  0  0  0  0  0  0
   63.9285   31.3775   46.9829 H   0  0  0  0  0  0  0  0  0  0  0  0
   62.6059   33.5354   49.5463 H   0  0  0  0  0  0  0  0  0  0  0  0
   62.4427   34.9933   48.4934 H   0  0  0  0  0  0  0  0  0  0  0  0
   60.3460   34.0680   49.4750 H   0  0  0  0  0  0  0  0  0  0  0  0
   60.5330   32.7300   48.4280 H   0  0  0  0  0  0  0  0  0  0  0  0
   59.6014   35.3734   47.8901 H   0  0  0  0  0  0  0  0  0  0  0  0
   60.9603   34.8817   46.8102 H   0  0  0  0  0  0  0  0  0  0  0  0
   57.8802   35.3032   46.1791 H   0  0  0  0  0  0  0  0  0  0  0  0
   56.2905   33.8750   44.8960 H   0  0  0  0  0  0  0  0  0  0  0  0
   57.5120   29.7921   43.3436 H   0  0  0  0  0  0  0  0  0  0  0  0
   55.8535   30.2722   42.8148 H   0  0  0  0  0  0  0  0  0  0  0  0
   57.8521   32.4814   42.9065 H   0  0  0  0  0  0  0  0  0  0  0  0
   58.1655   31.2114   41.6755 H   0  0  0  0  0  0  0  0  0  0  0  0
   56.6020   32.0959   41.6755 H   0  0  0  0  0  0  0  0  0  0  0  0
   58.7359   30.4026   45.7458 H   0  0  0  0  0  0  0  0  0  0  0  0
   60.3222   31.8300   47.0260 H   0  0  0  0  0  0  0  0  0  0  0  0
  1  2  2  0
  2  3  1  0
  2  4  1  0
  4  5  1  0
  5  6  1  0
  6  7  1  0
  7  8  2  0
  8  9  1  0
  9 10  2  0
 10 11  1  0
 11 12  1  0
 12 13  1  0
 10 14  1  0
 14 15  2  0
 15  7  1  0
  1 16  1  0
  1 17  1  0
  3 18  1  0
  3 19  1  0
  3 20  1  0
  4 21  1  0
  4 22  1  0
  5 23  1  0
  5 24  1  0
  6 25  1  0
  6 26  1  0
  8 27  1  0
  9 28  1  0
 12 29  1  0
 12 30  1  0
 13 31  1  0
 13 32  1  0
 13 33  1  0
 14 34  1  0
 15 35  1  0
M  CHG  1   5   1
M  END
>  <UniqueID>  (34) 
31

>  <SMILES>  (34) 
C=C(C)C[NH2+]Cc1ccc(OCC)cc1

>  <Energy>  (34) 
24.649769829229278

>  <Genealogy>  (34) 
C=C(C)C[NH2+]Cc1ccc(OCC)cc1 (protonated)
C=C(C)C[NH2+]Cc1ccc(OCC)cc1 (3D coordinates assigned)
C=C(C)C[NH2+]Cc1ccc(OCC)cc1 (optimized conformer: 24.649769829229278 kcal/mol)

>  <smiles>  (34) 
C=C(C)CNCc1ccc(OCC)cc1

>  <score_type>  (34) 
oracle

>  <origin>  (34) 
adg

>  <m_score__min__energy>  (34) 
-3.9900000000000002

>  <m_primary>  (34) 
energy

$$$$
34:0
     RDKit          3D

 26 28  0  0  0  0  0  0  0  0999 V2000
   60.1471   36.0303   45.6377 H   0  0  0  0  0  0  0  0  0  0  0  0
   59.6310   35.1250   45.9900 C   0  0  0  0  0  0  0  0  0  0  0  0
   59.1020   34.2520   45.0920 N   0  0  0  0  0  0  0  0  0  0  0  0
   58.4540   33.1150   45.4760 C   0  0  0  0  0  0  0  0  0  0  0  0
   57.9040   32.2110   44.4370 C   0  0  0  0  0  0  0  0  0  0  0  0
   57.6880   32.5390   43.0810 C   0  0  0  0  0  0  0  0  0  0  0  0
   57.9035   33.5159   42.6235 H   0  0  0  0  0  0  0  0  0  0  0  0
   57.0370   31.1800   42.2530 S   0  0  0  0  0  0  0  0  0  0  0  0
   57.0700   30.2700   43.6550 C   0  0  0  0  0  0  0  0  0  0  0  0
   56.7190   29.0090   43.9460 N   0  0  0  0  0  0  0  0  0  0  0  0
   57.0330   28.9910   45.2790 C   0  0  0  0  0  0  0  0  0  0  0  0
   56.8740   27.9560   46.0540 N   0  0  0  0  0  0  0  0  0  0  0  0
   56.3670   26.6540   45.7110 C   0  0  0  0  0  0  0  0  0  0  0  0
   55.1740   26.3810   46.0040 O   0  0  0  0  0  0  0  0  0  0  0  0
   57.1930   25.6090   45.0220 C   0  0  0  0  0  0  0  0  0  0  0  0
   57.6904   24.9797   45.7747 H   0  0  0  0  0  0  0  0  0  0  0  0
   56.5426   24.9835   44.3930 H   0  0  0  0  0  0  0  0  0  0  0  0
   57.9518   26.0973   44.3930 H   0  0  0  0  0  0  0  0  0  0  0  0
   57.5370   30.1650   45.7490 N   0  0  0  0  0  0  0  0  0  0  0  0
   57.5360   30.9310   44.6810 N   0  0  0  0  0  0  0  0  0  0  0  0
   58.3260   32.8350   46.8490 C   0  0  0  0  0  0  0  0  0  0  0  0
   57.8065   31.9245   47.1823 H   0  0  0  0  0  0  0  0  0  0  0  0
   58.8630   33.7210   47.7860 C   0  0  0  0  0  0  0  0  0  0  0  0
   58.7678   33.5095   48.8613 H   0  0  0  0  0  0  0  0  0  0  0  0
   59.5200   34.8740   47.3570 C   0  0  0  0  0  0  0  0  0  0  0  0
   59.9455   35.5769   48.0883 H   0  0  0  0  0  0  0  0  0  0  0  0
  1  2  1  0
  2  3  2  0
  3  4  1  0
  4  5  1  0
  5  6  2  0
  6  7  1  0
  6  8  1  0
  8  9  1  0
  9 10  2  0
 10 11  1  0
 11 12  2  0
 12 13  1  0
 13 14  2  0
 13 15  1  0
 15 16  1  0
 15 17  1  0
 15 18  1  0
 11 19  1  0
 19 20  1  0
  4 21  2  0
 21 22  1  0
 21 23  1  0
 23 24  1  0
 23 25  2  0
 25 26  1  0
 25  2  1  0
 20  5  1  0
 20  9  1  0
M  CHG  1  19  -1
M  END
>  <UniqueID>  (35) 
32

>  <SMILES>  (35) 
CC(=O)/N=c1\nc2scc(-c3ccccn3)n2[n-]1

>  <Energy>  (35) 
116.6276423234117

>  <Genealogy>  (35) 
CC(=O)N=c1nc2scc(-c3ccccn3)n2[n-]1 (protonated)
CC(=O)/N=c1\nc2scc(-c3ccccn3)n2[n-]1 (cis-trans isomerization)
CC(=O)/N=c1\nc2scc(-c3ccccn3)n2[n-]1 (3D coordinates assigned)
CC(=O)/N=c1\nc2scc(-c3ccccn3)n2[n-]1 (optimized conformer: 116.6276423234117 kcal/mol)

>  <smiles>  (35) 
CC(=O)N=c1nc2scc(-c3ccccn3)n2[nH]1

>  <score_type>  (35) 
oracle

>  <origin>  (35) 
adg

>  <m_score__min__energy>  (35) 
-8.9199999999999999

>  <m_primary>  (35) 
energy

$$$$
35:0
     RDKit          3D

 33 35  0  0  0  0  0  0  0  0999 V2000
   56.1500   29.9600   44.0660 C   0  0  0  0  0  0  0  0  0  0  0  0
   56.8010   30.6760   45.1680 N   0  0  0  0  0  0  0  0  0  0  0  0
   58.2220   30.9160   44.8820 C   0  0  0  0  0  0  0  0  0  0  0  0
   58.6870   32.1940   45.5340 C   0  0  0  0  0  0  0  0  0  0  0  0
   59.8200   32.1760   46.3640 C   0  0  0  0  0  0  0  0  0  0  0  0
   60.2940   33.3560   46.9660 C   0  0  0  0  0  0  0  0  0  0  0  0
   61.4900   33.3220   47.8440 C   0  0  0  0  0  0  0  0  0  0  0  0
   61.5710   33.9350   49.0550 N   0  0  0  0  0  0  0  0  0  0  0  0
   62.7800   33.7430   49.6440 C   0  0  0  0  0  0  0  0  0  0  0  0
   63.1530   34.2570   50.8900 C   0  0  0  0  0  0  0  0  0  0  0  0
   64.4430   33.9800   51.3760 C   0  0  0  0  0  0  0  0  0  0  0  0
   65.3400   33.1990   50.6190 C   0  0  0  0  0  0  0  0  0  0  0  0
   64.9550   32.6900   49.3680 C   0  0  0  0  0  0  0  0  0  0  0  0
   63.6720   32.9790   48.9100 C   0  0  0  0  0  0  0  0  0  0  0  0
   62.9410   32.5210   47.4700 S   0  0  0  0  0  0  0  0  0  0  0  0
   59.6090   34.5610   46.7260 C   0  0  0  0  0  0  0  0  0  0  0  0
   58.4860   34.5850   45.8960 C   0  0  0  0  0  0  0  0  0  0  0  0
   58.0260   33.4120   45.2970 C   0  0  0  0  0  0  0  0  0  0  0  0
   56.9390   33.4650   44.4860 F   0  0  0  0  0  0  0  0  0  0  0  0
   55.4630   29.2044   44.4748 H   0  0  0  0  0  0  0  0  0  0  0  0
   55.5848   30.6735   43.4483 H   0  0  0  0  0  0  0  0  0  0  0  0
   56.9139   29.4651   43.4483 H   0  0  0  0  0  0  0  0  0  0  0  0
   56.3320   31.6090   45.2490 H   0  0  0  0  0  0  0  0  0  0  0  0
   58.8158   30.0754   45.2703 H   0  0  0  0  0  0  0  0  0  0  0  0
   58.3542   31.0050   43.7936 H   0  0  0  0  0  0  0  0  0  0  0  0
   60.3440   31.2261   46.5459 H   0  0  0  0  0  0  0  0  0  0  0  0
   60.8140   34.5100   49.4850 H   0  0  0  0  0  0  0  0  0  0  0  0
   62.4509   34.8661   51.4783 H   0  0  0  0  0  0  0  0  0  0  0  0
   64.7546   34.3755   52.3540 H   0  0  0  0  0  0  0  0  0  0  0  0
   66.3461   32.9873   51.0100 H   0  0  0  0  0  0  0  0  0  0  0  0
   65.6466   32.0809   48.7675 H   0  0  0  0  0  0  0  0  0  0  0  0
   59.9605   35.4915   47.1957 H   0  0  0  0  0  0  0  0  0  0  0  0
   57.9611   35.5343   45.7135 H   0  0  0  0  0  0  0  0  0  0  0  0
  1  2  1  0
  2  3  1  0
  3  4  1  0
  4  5  2  0
  5  6  1  0
  6  7  1  0
  7  8  2  0
  8  9  1  0
  9 10  2  0
 10 11  1  0
 11 12  2  0
 12 13  1  0
 13 14  2  0
 14 15  1  0
  6 16  2  0
 16 17  1  0
 17 18  2  0
 18 19  1  0
 18  4  1  0
 15  7  1  0
 14  9  1  0
  1 20  1  0
  1 21  1  0
  1 22  1  0
  2 23  1  0
  3 24  1  0
  3 25  1  0
  5 26  1  0
  8 27  1  0
 10 28  1  0
 11 29  1  0
 12 30  1  0
 13 31  1  0
 16 32  1  0
 17 33  1  0
M  CHG  1   8   1
M  END
>  <UniqueID>  (36) 
33

>  <SMILES>  (36) 
CNCc1cc(-c2[nH+]c3ccccc3s2)ccc1F

>  <Energy>  (36) 
70.87959227275569

>  <Genealogy>  (36) 
CNCc1cc(-c2[nH+]c3ccccc3s2)ccc1F (protonated)
CNCc1cc(-c2[nH+]c3ccccc3s2)ccc1F (3D coordinates assigned)
CNCc1cc(-c2[nH+]c3ccccc3s2)ccc1F (optimized conformer: 70.87959227275569 kcal/mol)

>  <smiles>  (36) 
CNCc1cc(-c2nc3ccccc3s2)ccc1F

>  <score_type>  (36) 
oracle

>  <origin>  (36) 
adg

>  <m_score__min__energy>  (36) 
-5.4800000000000004

>  <m_primary>  (36) 
energy

$$$$
36:0
     RDKit          3D

 33 33  0  0  0  0  0  0  0  0999 V2000
   57.7660   25.6580   44.6350 C   0  0  0  0  0  0  0  0  0  0  0  0
   57.6530   26.7450   45.7020 C   0  0  0  0  0  0  0  0  0  0  0  0
   58.1530   28.1260   45.2020 C   0  0  1  0  0  0  0  0  0  0  0  0
   59.6800   28.1490   45.0890 C   0  0  0  0  0  0  0  0  0  0  0  0
   57.5880   28.4560   43.8800 N   0  0  0  0  0  0  0  0  0  0  0  0
   56.5820   29.8770   43.9420 S   0  0  0  0  0  0  0  0  0  0  0  0
   55.4290   29.6250   44.8730 O   0  0  0  0  0  0  0  0  0  0  0  0
   56.0300   30.1600   42.5720 O   0  0  0  0  0  0  0  0  0  0  0  0
   57.4940   31.2710   44.5170 C   0  0  0  0  0  0  0  0  0  0  0  0
   57.7780   32.3300   43.6440 C   0  0  0  0  0  0  0  0  0  0  0  0
   58.4440   33.4670   44.1120 C   0  0  0  0  0  0  0  0  0  0  0  0
   58.8250   33.5530   45.4560 C   0  0  0  0  0  0  0  0  0  0  0  0
   59.6550   35.0230   46.0620 S   0  0  0  0  0  0  0  0  0  0  0  0
   59.3570   34.6130   47.8110 C   0  0  0  0  0  0  0  0  0  0  0  0
   58.5520   32.4920   46.3270 C   0  0  0  0  0  0  0  0  0  0  0  0
   57.8870   31.3560   45.8600 C   0  0  0  0  0  0  0  0  0  0  0  0
   57.8680   24.6764   45.1209 H   0  0  0  0  0  0  0  0  0  0  0  0
   56.8623   25.6645   44.0078 H   0  0  0  0  0  0  0  0  0  0  0  0
   58.6490   25.8502   44.0078 H   0  0  0  0  0  0  0  0  0  0  0  0
   56.5980   26.8387   45.9991 H   0  0  0  0  0  0  0  0  0  0  0  0
   58.2882   26.4475   46.5493 H   0  0  0  0  0  0  0  0  0  0  0  0
   57.8199   28.8694   45.9412 H   0  0  0  0  0  0  0  0  0  0  0  0
   60.1221   28.1557   46.0962 H   0  0  0  0  0  0  0  0  0  0  0  0
   60.0209   27.2559   44.5448 H   0  0  0  0  0  0  0  0  0  0  0  0
   59.9938   29.0520   44.5448 H   0  0  0  0  0  0  0  0  0  0  0  0
   57.0150   27.6650   43.5060 H   0  0  0  0  0  0  0  0  0  0  0  0
   57.4763   32.2666   42.5881 H   0  0  0  0  0  0  0  0  0  0  0  0
   58.6687   34.2947   43.4232 H   0  0  0  0  0  0  0  0  0  0  0  0
   59.8826   35.3362   48.4518 H   0  0  0  0  0  0  0  0  0  0  0  0
   58.2777   34.6556   48.0188 H   0  0  0  0  0  0  0  0  0  0  0  0
   59.7307   33.5995   48.0188 H   0  0  0  0  0  0  0  0  0  0  0  0
   58.8616   32.5529   47.3808 H   0  0  0  0  0  0  0  0  0  0  0  0
   57.6710   30.5255   46.5481 H   0  0  0  0  0  0  0  0  0  0  0  0
  1  2  1  0
  2  3  1  0
  3  4  1  0
  3  5  1  0
  5  6  1  0
  6  7  2  0
  6  8  2  0
  6  9  1  0
  9 10  2  0
 10 11  1  0
 11 12  2  0
 12 13  1  0
 13 14  1  0
 12 15  1  0
 15 16  2  0
 16  9  1  0
  1 17  1  0
  1 18  1  0
  1 19  1  0
  2 20  1  0
  2 21  1  0
  3 22  1  1
  4 23  1  0
  4 24  1  0
  4 25  1  0
  5 26  1  0
 10 27  1  0
 11 28  1  0
 14 29  1  0
 14 30  1  0
 14 31  1  0
 15 32  1  0
 16 33  1  0
M  END
>  <UniqueID>  (37) 
34

>  <SMILES>  (37) 
CC[C@@H](C)NS(=O)(=O)c1ccc(SC)cc1

>  <Energy>  (37) 
20.383737114783173

>  <Genealogy>  (37) 
CC[C@@H](C)NS(=O)(=O)c1ccc(SC)cc1 (chirality)
CC[C@@H](C)NS(=O)(=O)c1ccc(SC)cc1 (3D coordinates assigned)
CC[C@@H](C)NS(=O)(=O)c1ccc(SC)cc1 (optimized conformer: 20.383737114783173 kcal/mol)

>  <smiles>  (37) 
CCC(C)NS(=O)(=O)c1ccc(SC)cc1

>  <score_type>  (37) 
oracle

>  <origin>  (37) 
adg

>  <m_score__min__energy>  (37) 
-7.1799999999999997

>  <m_primary>  (37) 
energy

$$$$
37:0
     RDKit          3D

 47 51  0  0  0  0  0  0  0  0999 V2000
   57.6850   34.2230   44.8730 C   0  0  0  0  0  0  0  0  0  0  0  0
   58.6740   33.7110   45.8340 N   0  0  0  0  0  0  0  0  0  0  0  0
   58.3020   34.1080   47.2090 C   0  0  0  0  0  0  0  0  0  0  0  0
   59.2020   33.3980   48.2360 C   0  0  0  0  0  0  0  0  0  0  0  0
   60.6520   33.4980   47.8450 C   0  0  0  0  0  0  0  0  0  0  0  0
   61.0100   33.8160   46.5360 C   0  0  0  0  0  0  0  0  0  0  0  0
   62.6880   33.8230   46.3640 S   0  0  0  0  0  0  0  0  0  0  0  0
   62.9650   33.3700   47.9560 C   0  0  0  0  0  0  0  0  0  0  0  0
   64.1720   33.1680   48.5260 N   0  0  0  0  0  0  0  0  0  0  0  0
   64.2430   32.7960   49.8360 C   0  0  0  0  0  0  0  0  0  0  0  0
   65.5360   32.5800   50.4380 N   0  0  0  0  0  0  0  0  0  0  0  0
   66.5580   33.4580   50.5490 C   0  0  0  0  0  0  0  0  0  0  0  0
   67.6230   32.8600   51.1920 C   0  0  0  0  0  0  0  0  0  0  0  0
   67.2350   31.5690   51.4860 C   0  0  0  0  0  0  0  0  0  0  0  0
   65.9480   31.4290   51.0090 C   0  0  0  0  0  0  0  0  0  0  0  0
   63.0860   32.6330   50.5580 N   0  0  0  0  0  0  0  0  0  0  0  0
   61.8540   32.8340   50.0000 C   0  0  0  0  0  0  0  0  0  0  0  0
   60.6840   32.6390   50.8060 N   0  0  0  0  0  0  0  0  0  0  0  0
   59.9590   33.8110   51.3080 C   0  0  0  0  0  0  0  0  0  0  0  0
   59.2830   33.4730   52.6380 C   0  0  0  0  0  0  0  0  0  0  0  0
   60.1870   32.7480   53.4450 O   0  0  0  0  0  0  0  0  0  0  0  0
   60.3720   31.4290   52.9470 C   0  0  0  0  0  0  0  0  0  0  0  0
   60.4250   31.3260   51.4040 C   0  0  0  0  0  0  0  0  0  0  0  0
   61.7770   33.2180   48.6500 C   0  0  0  0  0  0  0  0  0  0  0  0
   60.0190   34.2190   45.4880 C   0  0  0  0  0  0  0  0  0  0  0  0
   56.8368   34.6621   45.4186 H   0  0  0  0  0  0  0  0  0  0  0  0
   58.1522   34.9925   44.2409 H   0  0  0  0  0  0  0  0  0  0  0  0
   57.3264   33.3973   44.2409 H   0  0  0  0  0  0  0  0  0  0  0  0
   58.4193   35.1965   47.3160 H   0  0  0  0  0  0  0  0  0  0  0  0
   57.2563   33.8200   47.3924 H   0  0  0  0  0  0  0  0  0  0  0  0
   59.0622   33.8668   49.2212 H   0  0  0  0  0  0  0  0  0  0  0  0
   58.9216   32.3349   48.2710 H   0  0  0  0  0  0  0  0  0  0  0  0
   66.5431   34.4947   50.1816 H   0  0  0  0  0  0  0  0  0  0  0  0
   68.5932   33.3231   51.4249 H   0  0  0  0  0  0  0  0  0  0  0  0
   67.8338   30.8024   51.9995 H   0  0  0  0  0  0  0  0  0  0  0  0
   65.3451   30.5119   51.0834 H   0  0  0  0  0  0  0  0  0  0  0  0
   63.1250   32.3450   51.5590 H   0  0  0  0  0  0  0  0  0  0  0  0
   60.6656   34.6405   51.4582 H   0  0  0  0  0  0  0  0  0  0  0  0
   59.1924   34.1044   50.5757 H   0  0  0  0  0  0  0  0  0  0  0  0
   58.9948   34.4022   53.1513 H   0  0  0  0  0  0  0  0  0  0  0  0
   58.3836   32.8673   52.4530 H   0  0  0  0  0  0  0  0  0  0  0  0
   61.3186   31.0395   53.3498 H   0  0  0  0  0  0  0  0  0  0  0  0
   59.4953   30.8478   53.2689 H   0  0  0  0  0  0  0  0  0  0  0  0
   61.2291   30.6329   51.1157 H   0  0  0  0  0  0  0  0  0  0  0  0
   59.4546   30.9569   51.0405 H   0  0  0  0  0  0  0  0  0  0  0  0
   59.9867   35.3165   45.4214 H   0  0  0  0  0  0  0  0  0  0  0  0
   60.3257   33.7927   44.5214 H   0  0  0  0  0  0  0  0  0  0  0  0
  1  2  1  0
  2  3  1  0
  3  4  1  0
  4  5  1  0
  5  6  2  0
  6  7  1  0
  7  8  1  0
  8  9  2  0
  9 10  1  0
 10 11  1  0
 11 12  1  0
 12 13  2  0
 13 14  1  0
 14 15  2  0
 10 16  2  0
 16 17  1  0
 17 18  1  0
 18 19  1  0
 19 20  1  0
 20 21  1  0
 21 22  1  0
 22 23  1  0
 17 24  2  0
  6 25  1  0
 25  2  1  0
 24  5  1  0
 24  8  1  0
 15 11  1  0
 23 18  1  0
  1 26  1  0
  1 27  1  0
  1 28  1  0
  3 29  1  0
  3 30  1  0
  4 31  1  0
  4 32  1  0
 12 33  1  0
 13 34  1  0
 14 35  1  0
 15 36  1  0
 16 37  1  0
 19 38  1  0
 19 39  1  0
 20 40  1  0
 20 41  1  0
 22 42  1  0
 22 43  1  0
 23 44  1  0
 23 45  1  0
 25 46  1  0
 25 47  1  0
M  CHG  1  16   1
M  END
>  <UniqueID>  (38) 
35

>  <SMILES>  (38) 
CN1CCc2c(sc3nc(-n4cccc4)[nH+]c(N4CCOCC4)c23)C1

>  <Energy>  (38) 
127.71831836111375

>  <Genealogy>  (38) 
CN1CCc2c(sc3nc(-n4cccc4)[nH+]c(N4CCOCC4)c23)C1 (protonated)
CN1CCc2c(sc3nc(-n4cccc4)[nH+]c(N4CCOCC4)c23)C1 (3D coordinates assigned)
CN1CCc2c(sc3nc(-n4cccc4)[nH+]c(N4CCOCC4)c23)C1 (nonaromatic ring conformer: 127.71831836111375 kcal/mol)

>  <smiles>  (38) 
CN1CCc2c(sc3nc(-n4cccc4)nc(N4CCOCC4)c23)C1

>  <score_type>  (38) 
oracle

>  <origin>  (38) 
adg

>  <m_score__min__energy>  (38) 
-5.7300000000000004

>  <m_primary>  (38) 
energy

$$$$
38:0
     RDKit          3D

 25 26  0  0  0  0  0  0  0  0999 V2000
   57.4720   30.6400   44.8110 Cl  0  0  0  0  0  0  0  0  0  0  0  0
   58.0550   32.2190   45.3290 C   0  0  0  0  0  0  0  0  0  0  0  0
   57.8320   33.3180   44.4950 C   0  0  0  0  0  0  0  0  0  0  0  0
   58.2760   34.5850   44.8690 C   0  0  0  0  0  0  0  0  0  0  0  0
   58.9470   34.7630   46.0790 C   0  0  0  0  0  0  0  0  0  0  0  0
   59.1870   33.6700   46.9330 C   0  0  0  0  0  0  0  0  0  0  0  0
   59.8870   33.9120   48.2500 C   0  0  0  0  0  0  0  0  0  0  0  0
   61.3700   33.6650   48.1240 C   0  0  0  0  0  0  0  0  0  0  0  0
   62.1510   33.4070   49.2630 C   0  0  0  0  0  0  0  0  0  0  0  0
   63.5270   33.1930   49.1410 C   0  0  0  0  0  0  0  0  0  0  0  0
   64.1330   33.2330   47.8820 C   0  0  0  0  0  0  0  0  0  0  0  0
   63.3640   33.4850   46.7440 C   0  0  0  0  0  0  0  0  0  0  0  0
   61.9870   33.7000   46.8620 C   0  0  0  0  0  0  0  0  0  0  0  0
   58.7310   32.3850   46.5530 C   0  0  0  0  0  0  0  0  0  0  0  0
   59.0010   30.9820   47.5900 Cl  0  0  0  0  0  0  0  0  0  0  0  0
   57.3040   33.1825   43.5396 H   0  0  0  0  0  0  0  0  0  0  0  0
   58.0970   35.4464   44.2087 H   0  0  0  0  0  0  0  0  0  0  0  0
   59.2917   35.7667   46.3684 H   0  0  0  0  0  0  0  0  0  0  0  0
   59.7204   34.9541   48.5604 H   0  0  0  0  0  0  0  0  0  0  0  0
   59.4772   33.2182   48.9988 H   0  0  0  0  0  0  0  0  0  0  0  0
   61.6775   33.3732   50.2553 H   0  0  0  0  0  0  0  0  0  0  0  0
   64.1335   32.9929   50.0366 H   0  0  0  0  0  0  0  0  0  0  0  0
   65.2161   33.0659   47.7877 H   0  0  0  0  0  0  0  0  0  0  0  0
   63.8417   33.5145   45.7536 H   0  0  0  0  0  0  0  0  0  0  0  0
   61.3845   33.8973   45.9631 H   0  0  0  0  0  0  0  0  0  0  0  0
  1  2  1  0
  2  3  2  0
  3  4  1  0
  4  5  2  0
  5  6  1  0
  6  7  1  0
  7  8  1  0
  8  9  2  0
  9 10  1  0
 10 11  2  0
 11 12  1  0
 12 13  2  0
  6 14  2  0
 14 15  1  0
 14  2  1  0
 13  8  1  0
  3 16  1  0
  4 17  1  0
  5 18  1  0
  7 19  1  0
  7 20  1  0
  9 21  1  0
 10 22  1  0
 11 23  1  0
 12 24  1  0
 13 25  1  0
M  END
>  <UniqueID>  (39) 
36

>  <SMILES>  (39) 
Clc1cccc(Cc2ccccc2)c1Cl

>  <Energy>  (39) 
27.10815861653444

>  <Genealogy>  (39) 
Clc1cccc(Cc2ccccc2)c1Cl (3D coordinates assigned)
Clc1cccc(Cc2ccccc2)c1Cl (optimized conformer: 27.10815861653444 kcal/mol)

>  <smiles>  (39) 
Clc1cccc(Cc2ccccc2)c1Cl

>  <score_type>  (39) 
oracle

>  <origin>  (39) 
adg

>  <m_score__min__energy>  (39) 
-6.7599999999999998

>  <m_primary>  (39) 
energy

$$$$
39:0
     RDKit          3D

 32 33  0  0  0  0  0  0  0  0999 V2000
   57.1660   31.4960   42.0250 O   0  0  0  0  0  0  0  0  0  0  0  0
   56.9660   31.1380   43.2170 C   0  0  0  0  0  0  0  0  0  0  0  0
   55.9680   30.0680   43.5100 C   0  0  0  0  0  0  0  0  0  0  0  0
   56.1480   29.6400   44.8540 O   0  0  0  0  0  0  0  0  0  0  0  0
   56.6800   28.3940   45.1940 C   0  0  0  0  0  0  0  0  0  0  0  0
   55.9380   27.4710   45.6280 O   0  0  0  0  0  0  0  0  0  0  0  0
   58.1500   28.1620   45.0420 C   0  0  0  0  0  0  0  0  0  0  0  0
   58.9130   29.1240   45.9050 C   0  0  0  0  0  0  0  0  0  0  0  0
   58.5270   29.4530   47.2140 C   0  0  0  0  0  0  0  0  0  0  0  0
   59.4160   30.3040   47.8550 C   0  0  0  0  0  0  0  0  0  0  0  0
   60.6830   30.6270   46.8000 S   0  0  0  0  0  0  0  0  0  0  0  0
   60.1180   29.7010   45.5170 C   0  0  0  0  0  0  0  0  0  0  0  0
   57.6340   31.8050   44.2970 N   0  0  0  0  0  0  0  0  0  0  0  0
   58.2800   33.1030   44.1290 C   0  0  0  0  0  0  0  0  0  0  0  0
   58.6750   33.6450   45.4650 C   0  0  0  0  0  0  0  0  0  0  0  0
   59.3370   34.8340   45.6950 C   0  0  0  0  0  0  0  0  0  0  0  0
   59.4490   34.9350   47.0650 C   0  0  0  0  0  0  0  0  0  0  0  0
   58.8470   33.8060   47.5840 C   0  0  0  0  0  0  0  0  0  0  0  0
   58.3920   33.0580   46.6050 O   0  0  0  0  0  0  0  0  0  0  0  0
   54.9501   30.4641   43.3797 H   0  0  0  0  0  0  0  0  0  0  0  0
   56.1098   29.2213   42.8223 H   0  0  0  0  0  0  0  0  0  0  0  0
   58.3895   27.1320   45.3448 H   0  0  0  0  0  0  0  0  0  0  0  0
   58.4334   28.3170   43.9905 H   0  0  0  0  0  0  0  0  0  0  0  0
   57.6088   29.0730   47.6858 H   0  0  0  0  0  0  0  0  0  0  0  0
   59.3097   30.6985   48.8763 H   0  0  0  0  0  0  0  0  0  0  0  0
   60.6130   29.5736   44.5430 H   0  0  0  0  0  0  0  0  0  0  0  0
   57.5450   31.4180   45.2640 H   0  0  0  0  0  0  0  0  0  0  0  0
   59.1762   32.9871   43.5018 H   0  0  0  0  0  0  0  0  0  0  0  0
   57.5789   33.7994   43.6458 H   0  0  0  0  0  0  0  0  0  0  0  0
   59.6991   35.5505   44.9430 H   0  0  0  0  0  0  0  0  0  0  0  0
   59.9226   35.7507   47.6309 H   0  0  0  0  0  0  0  0  0  0  0  0
   58.7615   33.5690   48.6548 H   0  0  0  0  0  0  0  0  0  0  0  0
  1  2  2  0
  2  3  1  0
  3  4  1  0
  4  5  1  0
  5  6  2  0
  5  7  1  0
  7  8  1  0
  8  9  1  0
  9 10  2  0
 10 11  1  0
 11 12  1  0
  2 13  1  0
 13 14  1  0
 14 15  1  0
 15 16  2  0
 16 17  1  0
 17 18  2  0
 18 19  1  0
 12  8  2  0
 19 15  1  0
  3 20  1  0
  3 21  1  0
  7 22  1  0
  7 23  1  0
  9 24  1  0
 10 25  1  0
 12 26  1  0
 13 27  1  0
 14 28  1  0
 14 29  1  0
 16 30  1  0
 17 31  1  0
 18 32  1  0
M  END
>  <UniqueID>  (40) 
37

>  <SMILES>  (40) 
O=C(COC(=O)Cc1ccsc1)NCc1ccco1

>  <Energy>  (40) 
72.8866468926835

>  <Genealogy>  (40) 
O=C(COC(=O)Cc1ccsc1)NCc1ccco1 (3D coordinates assigned)
O=C(COC(=O)Cc1ccsc1)NCc1ccco1 (optimized conformer: 72.8866468926835 kcal/mol)

>  <smiles>  (40) 
O=C(COC(=O)Cc1ccsc1)NCc1ccco1

>  <score_type>  (40) 
oracle

>  <origin>  (40) 
adg

>  <m_score__min__energy>  (40) 
-6.2000000000000002

>  <m_primary>  (40) 
energy

$$$$
40:0
     RDKit          3D

 50 53  0  0  0  0  0  0  0  0999 V2000
   54.7560   28.5010   44.5140 H   0  0  0  0  0  0  0  0  0  0  0  0
   55.2020   29.3590   44.7410 O   0  0  0  0  0  0  0  0  0  0  0  0
   56.5350   29.2430   44.3250 C   0  0  0  0  0  0  0  0  0  0  0  0
   56.8657   30.1983   43.8914 H   0  0  0  0  0  0  0  0  0  0  0  0
   56.6099   28.4454   43.5712 H   0  0  0  0  0  0  0  0  0  0  0  0
   57.4120   28.8980   45.4980 C   0  0  0  0  0  0  0  0  0  0  0  0
   58.1020   29.9080   46.1810 C   0  0  0  0  0  0  0  0  0  0  0  0
   58.0517   30.9457   45.8194 H   0  0  0  0  0  0  0  0  0  0  0  0
   58.8570   29.6030   47.3240 C   0  0  0  0  0  0  0  0  0  0  0  0
   59.5990   30.6220   48.0090 N   0  0  0  0  0  0  0  0  0  0  0  0
   60.1160   31.7380   47.5580 C   0  0  0  0  0  0  0  0  0  0  0  0
   61.4800   31.9790   47.8390 C   0  0  0  0  0  0  0  0  0  0  0  0
   62.1580   32.9980   47.1550 C   0  0  0  0  0  0  0  0  0  0  0  0
   61.5030   33.7850   46.2620 N   0  0  0  0  0  0  0  0  0  0  0  0
   62.0410   34.5170   45.7430 H   0  0  0  0  0  0  0  0  0  0  0  0
   60.1580   33.6850   46.0740 C   0  0  0  0  0  0  0  0  0  0  0  0
   59.5070   34.5950   45.2240 C   0  0  0  0  0  0  0  0  0  0  0  0
   60.0977   35.3222   44.6475 H   0  0  0  0  0  0  0  0  0  0  0  0
   58.1190   34.5830   45.1060 C   0  0  0  0  0  0  0  0  0  0  0  0
   57.6187   35.2777   44.4153 H   0  0  0  0  0  0  0  0  0  0  0  0
   57.3660   33.6900   45.8640 C   0  0  0  0  0  0  0  0  0  0  0  0
   56.2680   33.7097   45.8013 H   0  0  0  0  0  0  0  0  0  0  0  0
   57.9970   32.7700   46.7030 C   0  0  0  0  0  0  0  0  0  0  0  0
   57.3893   32.0973   47.3260 H   0  0  0  0  0  0  0  0  0  0  0  0
   59.4090   32.6920   46.7620 C   0  0  0  0  0  0  0  0  0  0  0  0
   63.6380   33.1590   47.3770 C   0  0  0  0  0  0  0  0  0  0  0  0
   64.1760   32.3639   46.8400 H   0  0  0  0  0  0  0  0  0  0  0  0
   63.9559   34.1425   47.0007 H   0  0  0  0  0  0  0  0  0  0  0  0
   63.9540   33.0650   48.8740 C   0  0  0  0  0  0  0  0  0  0  0  0
   65.0465   33.0283   48.9971 H   0  0  0  0  0  0  0  0  0  0  0  0
   63.5082   33.9488   49.3538 H   0  0  0  0  0  0  0  0  0  0  0  0
   63.3420   31.8190   49.5600 C   0  0  0  0  0  0  0  0  0  0  0  0
   64.1612   31.1260   49.8020 H   0  0  0  0  0  0  0  0  0  0  0  0
   62.8059   32.1888   50.4465 H   0  0  0  0  0  0  0  0  0  0  0  0
   62.3020   31.0540   48.7160 C   0  0  0  0  0  0  0  0  0  0  0  0
   62.8289   30.3331   48.0736 H   0  0  0  0  0  0  0  0  0  0  0  0
   61.6139   30.5469   49.4083 H   0  0  0  0  0  0  0  0  0  0  0  0
   58.9750   28.2720   47.7410 C   0  0  0  0  0  0  0  0  0  0  0  0
   59.6134   28.0235   48.6017 H   0  0  0  0  0  0  0  0  0  0  0  0
   58.2830   27.2510   47.0670 C   0  0  0  0  0  0  0  0  0  0  0  0
   58.3520   25.8790   47.4790 N   0  0  0  0  0  0  0  0  0  0  0  0
   57.3030   24.6040   46.9470 S   0  0  0  0  0  0  0  0  0  0  0  0
   55.9040   25.1430   46.8420 O   0  0  0  0  0  0  0  0  0  0  0  0
   57.3140   23.4790   47.9420 O   0  0  0  0  0  0  0  0  0  0  0  0
   57.8110   24.0220   45.3430 C   0  0  0  0  0  0  0  0  0  0  0  0
   58.5301   23.1982   45.4627 H   0  0  0  0  0  0  0  0  0  0  0  0
   56.9318   23.6635   44.7876 H   0  0  0  0  0  0  0  0  0  0  0  0
   58.2851   24.8447   44.7876 H   0  0  0  0  0  0  0  0  0  0  0  0
   57.4920   27.5750   45.9580 C   0  0  0  0  0  0  0  0  0  0  0  0
   56.9276   26.7842   45.4422 H   0  0  0  0  0  0  0  0  0  0  0  0
  1  2  1  0
  2  3  1  0
  3  4  1  0
  3  5  1  0
  3  6  1  0
  6  7  2  0
  7  8  1  0
  7  9  1  0
  9 10  1  0
 10 11  2  0
 11 12  1  0
 12 13  2  0
 13 14  1  0
 14 15  1  0
 14 16  1  0
 16 17  2  0
 17 18  1  0
 17 19  1  0
 19 20  1  0
 19 21  2  0
 21 22  1  0
 21 23  1  0
 23 24  1  0
 23 25  2  0
 13 26  1  0
 26 27  1  0
 26 28  1  0
 26 29  1  0
 29 30  1  0
 29 31  1  0
 29 32  1  0
 32 33  1  0
 32 34  1  0
 32 35  1  0
 35 36  1  0
 35 37  1  0
  9 38  2  0
 38 39  1  0
 38 40  1  0
 40 41  1  0
 41 42  1  0
 42 43  2  0
 42 44  2  0
 42 45  1  0
 45 46  1  0
 45 47  1  0
 45 48  1  0
 40 49  2  0
 49 50  1  0
 49  6  1  0
 25 11  1  0
 35 12  1  0
 25 16  1  0
M  CHG  1  41  -1
M  END
>  <UniqueID>  (41) 
38

>  <SMILES>  (41) 
CS(=O)(=O)[N-]c1cc(CO)cc(/N=c2/c3c([nH]c4ccccc24)CCCC3)c1

>  <Energy>  (41) 
80.04096615054472

>  <Genealogy>  (41) 
CS(=O)(=O)[N-]c1cc(CO)cc(N=c2c3c([nH]c4ccccc24)CCCC3)c1 (protonated)
CS(=O)(=O)[N-]c1cc(CO)cc(/N=c2/c3c([nH]c4ccccc24)CCCC3)c1 (cis-trans isomerization)
CS(=O)(=O)[N-]c1cc(CO)cc(/N=c2/c3c([nH]c4ccccc24)CCCC3)c1 (3D coordinates assigned)
CS(=O)(=O)[N-]c1cc(CO)cc(/N=c2/c3c([nH]c4ccccc24)CCCC3)c1 (nonaromatic ring conformer: 80.04096615054472 kcal/mol)

>  <smiles>  (41) 
CS(=O)(=O)Nc1cc(CO)cc(N=c2c3c([nH]c4ccccc24)CCCC3)c1

>  <score_type>  (41) 
oracle

>  <origin>  (41) 
adg

>  <m_score__min__energy>  (41) 
-11.880000000000001

>  <m_primary>  (41) 
energy

$$$$
41:0
     RDKit          3D

 29 30  0  0  1  0  0  0  0  0999 V2000
   57.7550   32.6970   43.0150 O   0  0  0  0  0  0  0  0  0  0  0  0
   58.1910   32.7030   44.1990 C   0  0  0  0  0  0  0  0  0  0  0  0
   58.6990   31.5370   44.8430 N   0  0  0  0  0  0  0  0  0  0  0  0
   57.9910   30.4710   45.0430 C   0  0  0  0  0  0  0  0  0  0  0  0
   58.5040   29.4410   45.8090 C   0  0  0  0  0  0  0  0  0  0  0  0
   57.7070   28.3330   45.9860 C   0  0  0  0  0  0  0  0  0  0  0  0
   56.4830   28.2480   45.4410 N   0  0  0  0  0  0  0  0  0  0  0  0
   55.6740   27.1490   45.6070 O   0  0  0  0  0  0  0  0  0  0  0  0
   56.0260   29.2740   44.7030 C   0  0  0  0  0  0  0  0  0  0  0  0
   54.8720   29.2550   44.1590 O   0  0  0  0  0  0  0  0  0  0  0  0
   56.7530   30.3970   44.4860 N   0  0  0  0  0  0  0  0  0  0  0  0
   58.1810   33.9890   44.9840 C   0  0  0  0  0  0  0  0  0  0  0  0
   57.7600   33.7730   46.3960 C   0  0  0  0  0  0  0  0  0  0  0  0
   58.9190   34.2970   47.2380 C   0  0  0  0  0  0  0  0  0  0  0  0
   59.6370   35.2610   46.3210 C   0  0  0  0  0  0  0  0  0  0  0  0
   59.5570   34.5860   44.9800 C   0  0  0  0  0  0  0  0  0  0  0  0
   59.5063   29.5042   46.2578 H   0  0  0  0  0  0  0  0  0  0  0  0
   58.0831   27.4944   46.5904 H   0  0  0  0  0  0  0  0  0  0  0  0
   54.7720   27.0920   45.1370 H   0  0  0  0  0  0  0  0  0  0  0  0
   56.3870   31.1940   43.9080 H   0  0  0  0  0  0  0  0  0  0  0  0
   57.4581   34.6660   44.5055 H   0  0  0  0  0  0  0  0  0  0  0  0
   56.8389   34.3331   46.6148 H   0  0  0  0  0  0  0  0  0  0  0  0
   57.5425   32.7152   46.6051 H   0  0  0  0  0  0  0  0  0  0  0  0
   58.5472   34.8148   48.1345 H   0  0  0  0  0  0  0  0  0  0  0  0
   59.5750   33.4916   47.5998 H   0  0  0  0  0  0  0  0  0  0  0  0
   59.1311   36.2376   46.3016 H   0  0  0  0  0  0  0  0  0  0  0  0
   60.6697   35.4688   46.6378 H   0  0  0  0  0  0  0  0  0  0  0  0
   59.6695   35.3144   44.1634 H   0  0  0  0  0  0  0  0  0  0  0  0
   60.3517   33.8422   44.8211 H   0  0  0  0  0  0  0  0  0  0  0  0
  1  2  2  0
  2  3  1  0
  3  4  2  0
  4  5  1  0
  5  6  2  0
  6  7  1  0
  7  8  1  0
  7  9  1  0
  9 10  2  0
  9 11  1  0
  2 12  1  0
 12 13  1  0
 13 14  1  0
 14 15  1  0
 15 16  1  0
 11  4  1  0
 16 12  1  0
  5 17  1  0
  6 18  1  0
  8 19  1  0
 11 20  1  0
 12 21  1  0
 13 22  1  0
 13 23  1  0
 14 24  1  0
 14 25  1  0
 15 26  1  0
 15 27  1  0
 16 28  1  0
 16 29  1  0
M  END
>  <smiles>  (42) 
O=C(N=c1ccn(O)c(=O)[nH]1)C1CCCC1

>  <score_type>  (42) 
oracle

>  <origin>  (42) 
adg

>  <m_score__min__energy>  (42) 
-6.8700000000000001

>  <m_primary>  (42) 
energy

$$$$
42:0
     RDKit          3D

 29 31  0  0  0  0  0  0  0  0999 V2000
   59.5354   35.6365   47.8919 H   0  0  0  0  0  0  0  0  0  0  0  0
   59.2610   34.8870   47.1350 C   0  0  0  0  0  0  0  0  0  0  0  0
   58.5620   33.7360   47.5120 C   0  0  0  0  0  0  0  0  0  0  0  0
   58.2951   33.5764   48.5671 H   0  0  0  0  0  0  0  0  0  0  0  0
   58.2020   32.7880   46.5500 C   0  0  0  0  0  0  0  0  0  0  0  0
   57.6704   31.8740   46.8532 H   0  0  0  0  0  0  0  0  0  0  0  0
   58.5160   32.9980   45.2010 C   0  0  0  0  0  0  0  0  0  0  0  0
   58.1920   31.9870   44.2380 N   0  0  0  0  0  0  0  0  0  0  0  0
   57.5450   30.8580   44.3830 C   0  0  0  0  0  0  0  0  0  0  0  0
   56.2830   30.7870   43.7820 C   0  0  0  0  0  0  0  0  0  0  0  0
   55.9610   31.5815   43.0927 H   0  0  0  0  0  0  0  0  0  0  0  0
   55.4330   29.7190   44.0500 C   0  0  0  0  0  0  0  0  0  0  0  0
   54.4356   29.6851   43.5874 H   0  0  0  0  0  0  0  0  0  0  0  0
   55.8260   28.7190   44.8780 N   0  0  0  0  0  0  0  0  0  0  0  0
   55.1500   27.9450   45.0710 H   0  0  0  0  0  0  0  0  0  0  0  0
   57.0820   28.6830   45.4070 C   0  0  0  0  0  0  0  0  0  0  0  0
   57.4730   27.5820   46.1870 C   0  0  0  0  0  0  0  0  0  0  0  0
   56.7388   26.8032   46.4408 H   0  0  0  0  0  0  0  0  0  0  0  0
   58.7860   27.4710   46.6410 C   0  0  0  0  0  0  0  0  0  0  0  0
   59.0783   26.6218   47.2762 H   0  0  0  0  0  0  0  0  0  0  0  0
   59.7270   28.4340   46.2910 C   0  0  0  0  0  0  0  0  0  0  0  0
   60.7711   28.3230   46.6188 H   0  0  0  0  0  0  0  0  0  0  0  0
   59.3530   29.5420   45.5250 C   0  0  0  0  0  0  0  0  0  0  0  0
   60.1150   30.2753   45.2224 H   0  0  0  0  0  0  0  0  0  0  0  0
   58.0060   29.7320   45.1340 C   0  0  0  0  0  0  0  0  0  0  0  0
   59.2520   34.1380   44.8320 C   0  0  0  0  0  0  0  0  0  0  0  0
   59.5460   34.2851   43.7823 H   0  0  0  0  0  0  0  0  0  0  0  0
   59.6110   35.0850   45.7960 C   0  0  0  0  0  0  0  0  0  0  0  0
   60.1689   35.9859   45.5008 H   0  0  0  0  0  0  0  0  0  0  0  0
  1  2  1  0
  2  3  2  0
  3  4  1  0
  3  5  1  0
  5  6  1  0
  5  7  2  0
  7  8  1  0
  8  9  2  0
  9 10  1  0
 10 11  1  0
 10 12  2  0
 12 13  1  0
 12 14  1  0
 14 15  1  0
 14 16  1  0
 16 17  2  0
 17 18  1  0
 17 19  1  0
 19 20  1  0
 19 21  2  0
 21 22  1  0
 21 23  1  0
 23 24  1  0
 23 25  2  0
  7 26  1  0
 26 27  1  0
 26 28  2  0
 28 29  1  0
 28  2  1  0
 25  9  1  0
 25 16  1  0
M  END
>  <UniqueID>  (43) 
39

>  <SMILES>  (43) 
c1ccc(/N=c2/cc[nH]c3ccccc23)cc1

>  <Energy>  (43) 
55.260097029284125

>  <Genealogy>  (43) 
c1ccc(/N=c2/cc[nH]c3ccccc23)cc1 (cis-trans isomerization)
c1ccc(/N=c2/cc[nH]c3ccccc23)cc1 (3D coordinates assigned)
c1ccc(/N=c2/cc[nH]c3ccccc23)cc1 (optimized conformer: 55.260097029284125 kcal/mol)

>  <smiles>  (43) 
c1ccc(N=c2cc[nH]c3ccccc23)cc1

>  <score_type>  (43) 
oracle

>  <origin>  (43) 
adg

>  <m_score__min__energy>  (43) 
-7.3600000000000003

>  <m_primary>  (43) 
energy

$$$$
43:0
     RDKit          3D

 40 44  0  0  0  0  0  0  0  0999 V2000
   57.1150   30.8250   43.4890 C   0  0  0  0  0  0  0  0  0  0  0  0
   57.0230   30.9800   44.9020 O   0  0  0  0  0  0  0  0  0  0  0  0
   57.7740   31.8990   45.6500 C   0  0  0  0  0  0  0  0  0  0  0  0
   57.7020   33.2520   45.3030 C   0  0  0  0  0  0  0  0  0  0  0  0
   58.4290   34.2060   46.0160 C   0  0  0  0  0  0  0  0  0  0  0  0
   59.2390   33.8170   47.0840 C   0  0  0  0  0  0  0  0  0  0  0  0
   59.3270   32.4630   47.4520 C   0  0  0  0  0  0  0  0  0  0  0  0
   60.2030   32.0290   48.6090 C   0  0  2  0  0  0  0  0  0  0  0  0
   59.4060   31.9820   49.9000 C   0  0  0  0  0  0  0  0  0  0  0  0
   58.4540   30.9500   50.0690 C   0  0  0  0  0  0  0  0  0  0  0  0
   57.7190   30.9180   51.2460 C   0  0  0  0  0  0  0  0  0  0  0  0
   57.8850   31.8400   52.2250 C   0  0  0  0  0  0  0  0  0  0  0  0
   58.8040   32.8760   52.1150 C   0  0  0  0  0  0  0  0  0  0  0  0
   59.5940   32.9580   50.9460 C   0  0  0  0  0  0  0  0  0  0  0  0
   60.5190   34.0700   50.8140 N   0  0  0  0  0  0  0  0  0  0  0  0
   61.4980   33.8470   49.7880 C   0  0  0  0  0  0  0  0  0  0  0  0
   62.6420   34.5820   49.5420 C   0  0  0  0  0  0  0  0  0  0  0  0
   63.1950   34.1460   48.4280 O   0  0  0  0  0  0  0  0  0  0  0  0
   62.4480   33.1770   47.9420 C   0  0  0  0  0  0  0  0  0  0  0  0
   62.7220   32.4970   46.7630 O   0  0  0  0  0  0  0  0  0  0  0  0
   61.3620   32.9580   48.7610 C   0  0  0  0  0  0  0  0  0  0  0  0
   57.0210   31.5660   53.2680 O   0  0  0  0  0  0  0  0  0  0  0  0
   56.2670   30.3960   52.9220 C   0  0  0  0  0  0  0  0  0  0  0  0
   56.7430   30.0160   51.6240 O   0  0  0  0  0  0  0  0  0  0  0  0
   58.5920   31.5070   46.7280 C   0  0  0  0  0  0  0  0  0  0  0  0
   57.6638   29.9005   43.2565 H   0  0  0  0  0  0  0  0  0  0  0  0
   56.1038   30.7690   43.0597 H   0  0  0  0  0  0  0  0  0  0  0  0
   57.6485   31.6859   43.0597 H   0  0  0  0  0  0  0  0  0  0  0  0
   57.0673   33.5665   44.4614 H   0  0  0  0  0  0  0  0  0  0  0  0
   58.3636   35.2676   45.7356 H   0  0  0  0  0  0  0  0  0  0  0  0
   59.8114   34.5737   47.6406 H   0  0  0  0  0  0  0  0  0  0  0  0
   60.5796   31.0185   48.3920 H   0  0  0  0  0  0  0  0  0  0  0  0
   58.2998   30.1916   49.2873 H   0  0  0  0  0  0  0  0  0  0  0  0
   58.9144   33.6168   52.9207 H   0  0  0  0  0  0  0  0  0  0  0  0
   61.0210   34.2170   51.7200 H   0  0  0  0  0  0  0  0  0  0  0  0
   59.9760   34.9310   50.5730 H   0  0  0  0  0  0  0  0  0  0  0  0
   63.0276   35.3969   50.1723 H   0  0  0  0  0  0  0  0  0  0  0  0
   56.4467   29.5913   53.6502 H   0  0  0  0  0  0  0  0  0  0  0  0
   55.1839   30.5878   52.9242 H   0  0  0  0  0  0  0  0  0  0  0  0
   58.6564   30.4446   47.0057 H   0  0  0  0  0  0  0  0  0  0  0  0
  1  2  1  0
  2  3  1  0
  3  4  2  0
  4  5  1  0
  5  6  2  0
  6  7  1  0
  7  8  1  0
  8  9  1  0
  9 10  2  0
 10 11  1  0
 11 12  2  0
 12 13  1  0
 13 14  2  0
 14 15  1  0
 15 16  1  0
 16 17  2  0
 17 18  1  0
 18 19  1  0
 19 20  1  0
 19 21  2  0
 12 22  1  0
 22 23  1  0
 23 24  1  0
  7 25  2  0
 25  3  1  0
 21  8  1  0
 14  9  1  0
 21 16  1  0
 24 11  1  0
  1 26  1  0
  1 27  1  0
  1 28  1  0
  4 29  1  0
  5 30  1  0
  6 31  1  0
  8 32  1  6
 10 33  1  0
 13 34  1  0
 15 35  1  0
 15 36  1  0
 17 37  1  0
 23 38  1  0
 23 39  1  0
 25 40  1  0
M  CHG  2  15   1  20  -1
M  END
>  <UniqueID>  (44) 
40

>  <SMILES>  (44) 
COc1cccc([C@@H]2c3cc4c(cc3[NH2+]c3coc([O-])c32)OCO4)c1

>  <Energy>  (44) 
110.04727722927048

>  <Genealogy>  (44) 
COc1cccc(C2c3cc4c(cc3[NH2+]c3coc([O-])c32)OCO4)c1 (protonated)
COc1cccc([C@@H]2c3cc4c(cc3[NH2+]c3coc([O-])c32)OCO4)c1 (chirality)
COc1cccc([C@@H]2c3cc4c(cc3[NH2+]c3coc([O-])c32)OCO4)c1 (3D coordinates assigned)
COc1cccc([C@@H]2c3cc4c(cc3[NH2+]c3coc([O-])c32)OCO4)c1 (nonaromatic ring conformer: 110.04727722927048 kcal/mol)

>  <smiles>  (44) 
COc1cccc(C2c3cc4c(cc3Nc3coc(O)c32)OCO4)c1

>  <score_type>  (44) 
oracle

>  <origin>  (44) 
adg

>  <m_score__min__energy>  (44) 
-6.75

>  <m_primary>  (44) 
energy

$$$$
44:0
     RDKit          3D

 42 44  0  0  0  0  0  0  0  0999 V2000
   57.7112   27.9673   47.0282 H   0  0  0  0  0  0  0  0  0  0  0  0
   57.5940   27.5050   46.0370 C   0  0  0  0  0  0  0  0  0  0  0  0
   57.8580   28.2040   44.9780 N   0  0  0  0  0  0  0  0  0  0  0  0
   57.5260   29.5660   44.8750 N   0  0  0  0  0  0  0  0  0  0  0  0
   58.1510   30.6330   45.4160 C   0  0  0  0  0  0  0  0  0  0  0  0
   59.4240   30.5960   46.2160 C   0  0  0  0  0  0  0  0  0  0  0  0
   60.1664   31.2536   45.7402 H   0  0  0  0  0  0  0  0  0  0  0  0
   59.7881   29.5584   46.2448 H   0  0  0  0  0  0  0  0  0  0  0  0
   59.1900   31.0610   47.6330 C   0  0  0  0  0  0  0  0  0  0  0  0
   59.3830   32.4060   47.9730 C   0  0  0  0  0  0  0  0  0  0  0  0
   59.7237   33.1192   47.2079 H   0  0  0  0  0  0  0  0  0  0  0  0
   59.1460   32.8480   49.2760 C   0  0  0  0  0  0  0  0  0  0  0  0
   59.2939   33.9082   49.5293 H   0  0  0  0  0  0  0  0  0  0  0  0
   58.7190   31.9450   50.2670 C   0  0  0  0  0  0  0  0  0  0  0  0
   58.4640   32.3530   51.5850 O   0  0  0  0  0  0  0  0  0  0  0  0
   57.1780   32.3520   52.1960 C   0  0  0  0  0  0  0  0  0  0  0  0
   57.2919   32.3521   53.2901 H   0  0  0  0  0  0  0  0  0  0  0  0
   56.6236   33.2497   51.8850 H   0  0  0  0  0  0  0  0  0  0  0  0
   56.6250   31.4534   51.8850 H   0  0  0  0  0  0  0  0  0  0  0  0
   58.5410   30.5910   49.9410 C   0  0  0  0  0  0  0  0  0  0  0  0
   58.1200   29.7140   50.9530 O   0  0  0  0  0  0  0  0  0  0  0  0
   58.9090   29.3380   52.0770 C   0  0  0  0  0  0  0  0  0  0  0  0
   58.3731   29.5934   53.0031 H   0  0  0  0  0  0  0  0  0  0  0  0
   59.0953   28.2543   52.0481 H   0  0  0  0  0  0  0  0  0  0  0  0
   59.8681   29.8759   52.0481 H   0  0  0  0  0  0  0  0  0  0  0  0
   58.7840   30.1540   48.6240 C   0  0  0  0  0  0  0  0  0  0  0  0
   58.6543   29.0916   48.3699 H   0  0  0  0  0  0  0  0  0  0  0  0
   57.3890   31.7430   45.2980 N   0  0  0  0  0  0  0  0  0  0  0  0
   56.2610   31.3880   44.6950 N   0  0  0  0  0  0  0  0  0  0  0  0
   56.3510   30.0650   44.4690 C   0  0  0  0  0  0  0  0  0  0  0  0
   55.4310   29.3790   43.9510 O   0  0  0  0  0  0  0  0  0  0  0  0
   57.1390   26.1010   45.9450 C   0  0  0  0  0  0  0  0  0  0  0  0
   58.1100   25.0860   45.9010 C   0  0  0  0  0  0  0  0  0  0  0  0
   59.1774   25.3514   45.9179 H   0  0  0  0  0  0  0  0  0  0  0  0
   57.7310   23.7420   45.8360 C   0  0  0  0  0  0  0  0  0  0  0  0
   58.4995   22.9559   45.7982 H   0  0  0  0  0  0  0  0  0  0  0  0
   56.3790   23.3960   45.8190 C   0  0  0  0  0  0  0  0  0  0  0  0
   56.0828   22.3380   45.7662 H   0  0  0  0  0  0  0  0  0  0  0  0
   55.4030   24.3920   45.8690 C   0  0  0  0  0  0  0  0  0  0  0  0
   54.3384   24.1155   45.8565 H   0  0  0  0  0  0  0  0  0  0  0  0
   55.7710   25.7410   45.9350 C   0  0  0  0  0  0  0  0  0  0  0  0
   54.7710   26.7050   46.0070 O   0  0  0  0  0  0  0  0  0  0  0  0
  1  2  1  0
  2  3  2  0
  3  4  1  0
  4  5  1  0
  5  6  1  0
  6  7  1  0
  6  8  1  0
  6  9  1  0
  9 10  2  0
 10 11  1  0
 10 12  1  0
 12 13  1  0
 12 14  2  0
 14 15  1  0
 15 16  1  0
 16 17  1  0
 16 18  1  0
 16 19  1  0
 14 20  1  0
 20 21  1  0
 21 22  1  0
 22 23  1  0
 22 24  1  0
 22 25  1  0
 20 26  2  0
 26 27  1  0
  5 28  2  0
 28 29  1  0
 29 30  1  0
 30 31  2  0
  2 32  1  0
 32 33  2  0
 33 34  1  0
 33 35  1  0
 35 36  1  0
 35 37  2  0
 37 38  1  0
 37 39  1  0
 39 40  1  0
 39 41  2  0
 41 42  1  0
 30  4  1  0
 41 32  1  0
 26  9  1  0
M  CHG  2  29  -1  42  -1
M  END
>  <UniqueID>  (45) 
41

>  <SMILES>  (45) 
COc1ccc(Cc2n[n-]c(=O)n2/N=C/c2ccccc2[O-])cc1OC

>  <Energy>  (45) 
83.68873768155615

>  <Genealogy>  (45) 
COc1ccc(Cc2n[n-]c(=O)n2N=Cc2ccccc2[O-])cc1OC (protonated)
COc1ccc(Cc2n[n-]c(=O)n2/N=C/c2ccccc2[O-])cc1OC (cis-trans isomerization)
COc1ccc(Cc2n[n-]c(=O)n2/N=C/c2ccccc2[O-])cc1OC (3D coordinates assigned)
COc1ccc(Cc2n[n-]c(=O)n2/N=C/c2ccccc2[O-])cc1OC (optimized conformer: 83.68873768155615 kcal/mol)

>  <smiles>  (45) 
COc1ccc(Cc2n[nH]c(=O)n2N=Cc2ccccc2O)cc1OC

>  <score_type>  (45) 
oracle

>  <origin>  (45) 
adg

>  <m_score__min__energy>  (45) 
-12.49

>  <m_primary>  (45) 
energy

$$$$
45:0
     RDKit          3D

 54 57  0  0  0  0  0  0  0  0999 V2000
   62.9280   34.1920   49.0250 C   0  0  0  0  0  0  0  0  0  0  0  0
   62.6510   33.3210   47.7910 C   0  0  0  0  0  0  0  0  0  0  0  0
   63.4050   33.8460   46.5640 C   0  0  0  0  0  0  0  0  0  0  0  0
   61.1640   33.2190   47.5090 C   0  0  0  0  0  0  0  0  0  0  0  0
   60.3280   34.3270   47.7100 C   0  0  0  0  0  0  0  0  0  0  0  0
   58.9920   34.2340   47.4750 N   0  0  0  0  0  0  0  0  0  0  0  0
   58.4200   33.0750   47.0540 C   0  0  0  0  0  0  0  0  0  0  0  0
   59.2030   31.9280   46.8550 C   0  0  0  0  0  0  0  0  0  0  0  0
   58.6070   30.6560   46.3810 C   0  0  0  0  0  0  0  0  0  0  0  0
   59.0320   29.4920   46.9390 N   0  0  0  0  0  0  0  0  0  0  0  0
   58.5290   28.2970   46.5480 C   0  0  0  0  0  0  0  0  0  0  0  0
   58.9840   27.1060   47.1110 C   0  0  0  0  0  0  0  0  0  0  0  0
   58.4650   25.9230   46.6930 N   0  0  0  0  0  0  0  0  0  0  0  0
   57.5020   25.8730   45.7290 C   0  0  0  0  0  0  0  0  0  0  0  0
   56.9570   24.6080   45.3060 N   0  0  0  0  0  0  0  0  0  0  0  0
   57.8360   23.4370   45.1940 C   0  0  0  0  0  0  0  0  0  0  0  0
   57.0190   22.1480   45.0160 C   0  0  0  0  0  0  0  0  0  0  0  0
   56.0340   22.2380   43.9100 N   0  0  0  0  0  0  0  0  0  0  0  0
   56.6190   21.7930   42.6350 C   0  0  0  0  0  0  0  0  0  0  0  0
   55.3750   23.5630   43.7620 C   0  0  0  0  0  0  0  0  0  0  0  0
   55.5300   24.4580   44.9970 C   0  0  0  0  0  0  0  0  0  0  0  0
   57.0540   27.0320   45.1720 N   0  0  0  0  0  0  0  0  0  0  0  0
   57.5390   28.2450   45.5560 C   0  0  0  0  0  0  0  0  0  0  0  0
   57.0680   29.4070   45.0000 N   0  0  0  0  0  0  0  0  0  0  0  0
   56.0360   29.3430   43.9530 C   0  0  0  0  0  0  0  0  0  0  0  0
   57.5980   30.6140   45.3930 C   0  0  0  0  0  0  0  0  0  0  0  0
   57.1720   31.6900   44.8900 O   0  0  0  0  0  0  0  0  0  0  0  0
   60.5850   32.0150   47.0720 C   0  0  0  0  0  0  0  0  0  0  0  0
   62.7416   33.6058   49.9369 H   0  0  0  0  0  0  0  0  0  0  0  0
   63.9763   34.5249   49.0110 H   0  0  0  0  0  0  0  0  0  0  0  0
   62.2645   35.0693   49.0110 H   0  0  0  0  0  0  0  0  0  0  0  0
   63.0211   32.3087   48.0106 H   0  0  0  0  0  0  0  0  0  0  0  0
   64.2666   34.4459   46.8921 H   0  0  0  0  0  0  0  0  0  0  0  0
   63.7579   32.9973   45.9597 H   0  0  0  0  0  0  0  0  0  0  0  0
   62.7315   34.4715   45.9597 H   0  0  0  0  0  0  0  0  0  0  0  0
   60.7561   35.2778   48.0602 H   0  0  0  0  0  0  0  0  0  0  0  0
   58.3910   35.0750   47.6210 H   0  0  0  0  0  0  0  0  0  0  0  0
   57.3365   33.0362   46.8682 H   0  0  0  0  0  0  0  0  0  0  0  0
   59.7600   27.1243   47.8904 H   0  0  0  0  0  0  0  0  0  0  0  0
   58.4976   23.5661   44.3247 H   0  0  0  0  0  0  0  0  0  0  0  0
   58.4254   23.3525   46.1189 H   0  0  0  0  0  0  0  0  0  0  0  0
   57.7112   21.3200   44.8032 H   0  0  0  0  0  0  0  0  0  0  0  0
   56.4567   21.9819   45.9467 H   0  0  0  0  0  0  0  0  0  0  0  0
   57.4799   21.1382   42.8353 H   0  0  0  0  0  0  0  0  0  0  0  0
   55.8634   21.2393   42.0584 H   0  0  0  0  0  0  0  0  0  0  0  0
   56.9510   22.6689   42.0584 H   0  0  0  0  0  0  0  0  0  0  0  0
   55.8193   24.0795   42.8984 H   0  0  0  0  0  0  0  0  0  0  0  0
   54.2991   23.3787   43.6258 H   0  0  0  0  0  0  0  0  0  0  0  0
   55.0915   25.4460   44.7932 H   0  0  0  0  0  0  0  0  0  0  0  0
   55.0117   24.0011   45.8529 H   0  0  0  0  0  0  0  0  0  0  0  0
   55.0424   29.2814   44.4208 H   0  0  0  0  0  0  0  0  0  0  0  0
   56.0915   30.2463   43.3277 H   0  0  0  0  0  0  0  0  0  0  0  0
   56.2027   28.4535   43.3277 H   0  0  0  0  0  0  0  0  0  0  0  0
   61.2212   31.1345   46.8990 H   0  0  0  0  0  0  0  0  0  0  0  0
  1  2  1  0
  2  3  1  0
  2  4  1  0
  4  5  2  0
  5  6  1  0
  6  7  2  0
  7  8  1  0
  8  9  1  0
  9 10  2  0
 10 11  1  0
 11 12  2  0
 12 13  1  0
 13 14  2  0
 14 15  1  0
 15 16  1  0
 16 17  1  0
 17 18  1  0
 18 19  1  0
 18 20  1  0
 20 21  1  0
 14 22  1  0
 22 23  2  0
 23 24  1  0
 24 25  1  0
 24 26  1  0
 26 27  2  0
  8 28  2  0
 28  4  1  0
 26  9  1  0
 23 11  1  0
 21 15  1  0
  1 29  1  0
  1 30  1  0
  1 31  1  0
  2 32  1  0
  3 33  1  0
  3 34  1  0
  3 35  1  0
  5 36  1  0
  6 37  1  0
  7 38  1  0
 12 39  1  0
 16 40  1  0
 16 41  1  0
 17 42  1  0
 17 43  1  0
 19 44  1  0
 19 45  1  0
 19 46  1  0
 20 47  1  0
 20 48  1  0
 21 49  1  0
 21 50  1  0
 25 51  1  0
 25 52  1  0
 25 53  1  0
 28 54  1  0
M  CHG  1   6   1
M  END
>  <UniqueID>  (46) 
42

>  <SMILES>  (46) 
CC(C)c1c[nH+]cc(-c2nc3cnc(N4CCN(C)CC4)nc3n(C)c2=O)c1

>  <Energy>  (46) 
74.06021028404918

>  <Genealogy>  (46) 
CC(C)c1c[nH+]cc(-c2nc3cnc(N4CCN(C)CC4)nc3n(C)c2=O)c1 (protonated)
CC(C)c1c[nH+]cc(-c2nc3cnc(N4CCN(C)CC4)nc3n(C)c2=O)c1 (3D coordinates assigned)
CC(C)c1c[nH+]cc(-c2nc3cnc(N4CCN(C)CC4)nc3n(C)c2=O)c1 (nonaromatic ring conformer: 74.06021028404918 kcal/mol)

>  <smiles>  (46) 
CC(C)c1cncc(-c2nc3cnc(N4CCN(C)CC4)nc3n(C)c2=O)c1

>  <score_type>  (46) 
oracle

>  <origin>  (46) 
adg

>  <m_score__min__energy>  (46) 
-6.8300000000000001

>  <m_primary>  (46) 
energy

$$$$
46:0
     RDKit          3D

 29 30  0  0  0  0  0  0  0  0999 V2000
   56.9789   29.7726   42.3303 H   0  0  0  0  0  0  0  0  0  0  0  0
   56.9610   29.3580   43.3490 C   0  0  0  0  0  0  0  0  0  0  0  0
   56.0790   30.0190   44.3320 C   0  0  0  0  0  0  0  0  0  0  0  0
   55.1610   29.3440   44.8690 O   0  0  0  0  0  0  0  0  0  0  0  0
   56.2690   31.3970   44.6800 N   0  0  0  0  0  0  0  0  0  0  0  0
   57.4520   32.0020   45.2190 C   0  0  0  0  0  0  0  0  0  0  0  0
   57.7220   33.3760   45.0780 C   0  0  0  0  0  0  0  0  0  0  0  0
   57.0211   34.0191   44.5255 H   0  0  0  0  0  0  0  0  0  0  0  0
   58.8800   33.9260   45.6390 C   0  0  0  0  0  0  0  0  0  0  0  0
   59.0931   34.9983   45.5177 H   0  0  0  0  0  0  0  0  0  0  0  0
   59.7660   33.1150   46.3530 C   0  0  0  0  0  0  0  0  0  0  0  0
   60.6795   33.5477   46.7870 H   0  0  0  0  0  0  0  0  0  0  0  0
   59.4920   31.7540   46.5160 C   0  0  0  0  0  0  0  0  0  0  0  0
   60.3450   30.9700   47.2170 F   0  0  0  0  0  0  0  0  0  0  0  0
   58.3350   31.2020   45.9560 C   0  0  0  0  0  0  0  0  0  0  0  0
   58.1171   30.1328   46.0952 H   0  0  0  0  0  0  0  0  0  0  0  0
   57.7430   28.2940   43.5930 C   0  0  0  0  0  0  0  0  0  0  0  0
   57.9185   27.5940   42.7628 H   0  0  0  0  0  0  0  0  0  0  0  0
   58.3870   27.9880   44.8880 C   0  0  0  0  0  0  0  0  0  0  0  0
   57.6290   27.3960   45.9110 C   0  0  0  0  0  0  0  0  0  0  0  0
   56.5613   27.1856   45.7506 H   0  0  0  0  0  0  0  0  0  0  0  0
   58.2270   27.0730   47.1330 C   0  0  0  0  0  0  0  0  0  0  0  0
   57.6253   26.6246   47.9373 H   0  0  0  0  0  0  0  0  0  0  0  0
   59.5880   27.3190   47.3340 C   0  0  0  0  0  0  0  0  0  0  0  0
   60.0543   27.0733   48.2995 H   0  0  0  0  0  0  0  0  0  0  0  0
   60.3570   27.8770   46.3090 C   0  0  0  0  0  0  0  0  0  0  0  0
   61.4300   28.0622   46.4652 H   0  0  0  0  0  0  0  0  0  0  0  0
   59.7630   28.2000   45.0850 C   0  0  0  0  0  0  0  0  0  0  0  0
   60.3743   28.6214   44.2734 H   0  0  0  0  0  0  0  0  0  0  0  0
  1  2  1  0
  2  3  1  0
  3  4  2  0
  3  5  1  0
  5  6  1  0
  6  7  2  0
  7  8  1  0
  7  9  1  0
  9 10  1  0
  9 11  2  0
 11 12  1  0
 11 13  1  0
 13 14  1  0
 13 15  2  0
 15 16  1  0
  2 17  2  0
 17 18  1  0
 17 19  1  0
 19 20  2  0
 20 21  1  0
 20 22  1  0
 22 23  1  0
 22 24  2  0
 24 25  1  0
 24 26  1  0
 26 27  1  0
 26 28  2  0
 28 29  1  0
 15  6  1  0
 28 19  1  0
M  CHG  1   5  -1
M  END
>  <UniqueID>  (47) 
43

>  <SMILES>  (47) 
O=C(/C=C\c1ccccc1)[N-]c1cccc(F)c1

>  <Energy>  (47) 
40.196353415100546

>  <Genealogy>  (47) 
O=C(C=Cc1ccccc1)[N-]c1cccc(F)c1 (protonated)
O=C(/C=C\c1ccccc1)[N-]c1cccc(F)c1 (cis-trans isomerization)
O=C(/C=C\c1ccccc1)[N-]c1cccc(F)c1 (3D coordinates assigned)
O=C(/C=C\c1ccccc1)[N-]c1cccc(F)c1 (optimized conformer: 40.196353415100546 kcal/mol)

>  <smiles>  (47) 
O=C(C=Cc1ccccc1)Nc1cccc(F)c1

>  <score_type>  (47) 
oracle

>  <origin>  (47) 
adg

>  <m_score__min__energy>  (47) 
-8.6600000000000001

>  <m_primary>  (47) 
energy

$$$$
47:0
     RDKit          3D

 50 53  0  0  0  0  0  0  0  0999 V2000
   59.9472   26.3764   45.3824 H   0  0  0  0  0  0  0  0  0  0  0  0
   59.2110   27.1560   45.1370 C   0  0  0  0  0  0  0  0  0  0  0  0
   59.5560   28.7750   44.8260 S   0  0  0  0  0  0  0  0  0  0  0  0
   57.9500   29.1740   44.5540 C   0  0  0  0  0  0  0  0  0  0  0  0
   57.5520   30.3810   44.2740 N   0  0  0  0  0  0  0  0  0  0  0  0
   57.9090   31.5790   44.9820 C   0  0  0  0  0  0  0  0  0  0  0  0
   57.0930   32.7090   44.8620 C   0  0  0  0  0  0  0  0  0  0  0  0
   56.2091   32.6794   44.2079 H   0  0  0  0  0  0  0  0  0  0  0  0
   57.3960   33.8740   45.5690 C   0  0  0  0  0  0  0  0  0  0  0  0
   56.7569   34.7628   45.4614 H   0  0  0  0  0  0  0  0  0  0  0  0
   58.5090   33.9140   46.4130 C   0  0  0  0  0  0  0  0  0  0  0  0
   58.7475   34.8381   46.9600 H   0  0  0  0  0  0  0  0  0  0  0  0
   59.3250   32.7810   46.5670 C   0  0  0  0  0  0  0  0  0  0  0  0
   60.4580   32.8130   47.4560 N   0  0  0  0  0  0  0  0  0  0  0  0
   61.2000   31.5930   47.7870 C   0  0  0  0  0  0  0  0  0  0  0  0
   60.8113   30.7579   47.1857 H   0  0  0  0  0  0  0  0  0  0  0  0
   61.0737   31.3780   48.8584 H   0  0  0  0  0  0  0  0  0  0  0  0
   62.6990   31.7790   47.4880 C   0  0  0  0  0  0  0  0  0  0  0  0
   62.8843   31.4769   46.4467 H   0  0  0  0  0  0  0  0  0  0  0  0
   63.2478   31.1592   48.2123 H   0  0  0  0  0  0  0  0  0  0  0  0
   63.1810   33.1750   47.6630 N   0  0  0  0  0  0  0  0  0  0  0  0
   63.3850   33.8510   46.3700 C   0  0  0  0  0  0  0  0  0  0  0  0
   63.6987   34.8906   46.5453 H   0  0  0  0  0  0  0  0  0  0  0  0
   64.1641   33.3241   45.7997 H   0  0  0  0  0  0  0  0  0  0  0  0
   62.4444   33.8430   45.7997 H   0  0  0  0  0  0  0  0  0  0  0  0
   62.3340   33.9750   48.5740 C   0  0  0  0  0  0  0  0  0  0  0  0
   62.7552   34.9880   48.6537 H   0  0  0  0  0  0  0  0  0  0  0  0
   62.3185   33.4744   49.5534 H   0  0  0  0  0  0  0  0  0  0  0  0
   60.8850   34.0770   48.0670 C   0  0  0  0  0  0  0  0  0  0  0  0
   60.8204   34.8799   47.3179 H   0  0  0  0  0  0  0  0  0  0  0  0
   60.2268   34.2968   48.9205 H   0  0  0  0  0  0  0  0  0  0  0  0
   59.0010   31.6060   45.8670 C   0  0  0  0  0  0  0  0  0  0  0  0
   59.6071   30.6997   46.0129 H   0  0  0  0  0  0  0  0  0  0  0  0
   57.1370   28.1040   44.7160 N   0  0  0  0  0  0  0  0  0  0  0  0
   56.0950   28.1440   44.6780 H   0  0  0  0  0  0  0  0  0  0  0  0
   57.8290   26.9720   45.0300 C   0  0  0  0  0  0  0  0  0  0  0  0
   57.1600   25.6640   45.2370 C   0  0  0  0  0  0  0  0  0  0  0  0
   56.3200   25.4540   46.3440 C   0  0  0  0  0  0  0  0  0  0  0  0
   56.1470   26.2698   47.0613 H   0  0  0  0  0  0  0  0  0  0  0  0
   55.7040   24.2170   46.5390 C   0  0  0  0  0  0  0  0  0  0  0  0
   55.0533   24.0609   47.4120 H   0  0  0  0  0  0  0  0  0  0  0  0
   55.9100   23.1770   45.6310 C   0  0  0  0  0  0  0  0  0  0  0  0
   55.4316   22.2009   45.7996 H   0  0  0  0  0  0  0  0  0  0  0  0
   56.7250   23.3700   44.5030 C   0  0  0  0  0  0  0  0  0  0  0  0
   56.9940   22.2330   43.5500 C   0  0  0  0  0  0  0  0  0  0  0  0
   56.6580   22.5880   42.2550 F   0  0  0  0  0  0  0  0  0  0  0  0
   56.2410   21.1360   43.9260 F   0  0  0  0  0  0  0  0  0  0  0  0
   58.3350   21.8880   43.5690 F   0  0  0  0  0  0  0  0  0  0  0  0
   57.3660   24.6090   44.3270 C   0  0  0  0  0  0  0  0  0  0  0  0
   58.0368   24.7562   43.4677 H   0  0  0  0  0  0  0  0  0  0  0  0
  1  2  1  0
  2  3  1  0
  3  4  1  0
  4  5  2  0
  5  6  1  0
  6  7  2  0
  7  8  1  0
  7  9  1  0
  9 10  1  0
  9 11  2  0
 11 12  1  0
 11 13  1  0
 13 14  1  0
 14 15  1  0
 15 16  1  0
 15 17  1  0
 15 18  1  0
 18 19  1  0
 18 20  1  0
 18 21  1  0
 21 22  1  0
 22 23  1  0
 22 24  1  0
 22 25  1  0
 21 26  1  0
 26 27  1  0
 26 28  1  0
 26 29  1  0
 29 30  1  0
 29 31  1  0
 13 32  2  0
 32 33  1  0
  4 34  1  0
 34 35  1  0
 34 36  1  0
 36 37  1  0
 37 38  2  0
 38 39  1  0
 38 40  1  0
 40 41  1  0
 40 42  2  0
 42 43  1  0
 42 44  1  0
 44 45  1  0
 45 46  1  0
 45 47  1  0
 45 48  1  0
 44 49  2  0
 49 50  1  0
 36  2  2  0
 49 37  1  0
 32  6  1  0
 29 14  1  0
M  END
>  <UniqueID>  (48) 
44

>  <SMILES>  (48) 
CN1CCN(c2cccc(/N=c3\[nH]c(-c4cccc(C(F)(F)F)c4)cs3)c2)CC1

>  <Energy>  (48) 
104.8600292350355

>  <Genealogy>  (48) 
CN1CCN(c2cccc(/N=c3\[nH]c(-c4cccc(C(F)(F)F)c4)cs3)c2)CC1 (cis-trans isomerization)
CN1CCN(c2cccc(/N=c3\[nH]c(-c4cccc(C(F)(F)F)c4)cs3)c2)CC1 (3D coordinates assigned)
CN1CCN(c2cccc(/N=c3\[nH]c(-c4cccc(C(F)(F)F)c4)cs3)c2)CC1 (nonaromatic ring conformer: 104.8600292350355 kcal/mol)

>  <smiles>  (48) 
CN1CCN(c2cccc(N=c3[nH]c(-c4cccc(C(F)(F)F)c4)cs3)c2)CC1

>  <score_type>  (48) 
oracle

>  <origin>  (48) 
adg

>  <m_score__min__energy>  (48) 
-8.4600000000000009

>  <m_primary>  (48) 
energy

$$$$
48:0
     RDKit          3D

 44 46  0  0  0  0  0  0  0  0999 V2000
   59.5466   29.1315   48.4859 H   0  0  0  0  0  0  0  0  0  0  0  0
   58.8870   29.0440   47.6100 C   0  0  0  0  0  0  0  0  0  0  0  0
   58.2230   27.8410   47.3560 C   0  0  0  0  0  0  0  0  0  0  0  0
   58.3636   26.9862   48.0339 H   0  0  0  0  0  0  0  0  0  0  0  0
   57.3770   27.7150   46.2410 C   0  0  0  0  0  0  0  0  0  0  0  0
   56.6720   26.4410   45.9710 C   0  0  0  0  0  0  0  0  0  0  0  0
   55.3160   26.3290   45.9850 N   0  0  0  0  0  0  0  0  0  0  0  0
   55.1240   25.0340   45.6960 C   0  0  0  0  0  0  0  0  0  0  0  0
   53.9130   24.3570   45.5780 C   0  0  0  0  0  0  0  0  0  0  0  0
   52.9537   24.8750   45.7247 H   0  0  0  0  0  0  0  0  0  0  0  0
   53.9610   22.9850   45.2640 C   0  0  0  0  0  0  0  0  0  0  0  0
   53.0262   22.4144   45.1613 H   0  0  0  0  0  0  0  0  0  0  0  0
   55.2040   22.3370   45.0800 C   0  0  0  0  0  0  0  0  0  0  0  0
   55.2310   21.2649   44.8354 H   0  0  0  0  0  0  0  0  0  0  0  0
   56.4070   23.0560   45.2080 C   0  0  0  0  0  0  0  0  0  0  0  0
   57.3814   22.5655   45.0667 H   0  0  0  0  0  0  0  0  0  0  0  0
   56.3200   24.4110   45.5200 C   0  0  0  0  0  0  0  0  0  0  0  0
   57.3260   25.2810   45.6880 N   0  0  0  0  0  0  0  0  0  0  0  0
   57.2080   28.8180   45.3840 C   0  0  0  0  0  0  0  0  0  0  0  0
   56.5484   28.7338   44.5077 H   0  0  0  0  0  0  0  0  0  0  0  0
   57.8740   30.0210   45.6400 C   0  0  0  0  0  0  0  0  0  0  0  0
   57.7351   30.8770   44.9633 H   0  0  0  0  0  0  0  0  0  0  0  0
   58.7150   30.1430   46.7500 C   0  0  0  0  0  0  0  0  0  0  0  0
   59.3830   31.3900   46.9810 N   0  0  0  0  0  0  0  0  0  0  0  0
   58.8040   32.3640   47.5560 N   0  0  0  0  0  0  0  0  0  0  0  0
   58.0420   33.3400   46.7870 C   0  0  0  0  0  0  0  0  0  0  0  0
   58.1621   34.3308   47.2496 H   0  0  0  0  0  0  0  0  0  0  0  0
   56.9867   33.0298   46.7886 H   0  0  0  0  0  0  0  0  0  0  0  0
   58.5020   33.4080   45.3790 N   0  0  0  0  0  0  0  0  0  0  0  0
   59.2000   32.6310   45.2850 H   0  0  0  0  0  0  0  0  0  0  0  0
   59.2570   34.6570   45.0800 C   0  0  0  0  0  0  0  0  0  0  0  0
   58.6219   35.2946   44.4474 H   0  0  0  0  0  0  0  0  0  0  0  0
   60.1892   34.3386   44.5906 H   0  0  0  0  0  0  0  0  0  0  0  0
   59.6810   35.4780   46.3060 C   0  0  0  0  0  0  0  0  0  0  0  0
   59.4022   34.9382   47.2230 H   0  0  0  0  0  0  0  0  0  0  0  0
   60.7703   35.6299   46.2867 H   0  0  0  0  0  0  0  0  0  0  0  0
   59.1743   36.4541   46.2867 H   0  0  0  0  0  0  0  0  0  0  0  0
   57.4010   33.0990   44.4300 C   0  0  0  0  0  0  0  0  0  0  0  0
   56.6520   32.4833   44.9495 H   0  0  0  0  0  0  0  0  0  0  0  0
   56.9789   34.0563   44.0904 H   0  0  0  0  0  0  0  0  0  0  0  0
   57.8810   32.3410   43.1880 C   0  0  0  0  0  0  0  0  0  0  0  0
   58.4456   31.4493   43.4981 H   0  0  0  0  0  0  0  0  0  0  0  0
   57.0122   32.0342   42.5871 H   0  0  0  0  0  0  0  0  0  0  0  0
   58.5298   32.9952   42.5871 H   0  0  0  0  0  0  0  0  0  0  0  0
  1  2  1  0
  2  3  2  0
  3  4  1  0
  3  5  1  0
  5  6  1  0
  6  7  2  0
  7  8  1  0
  8  9  2  0
  9 10  1  0
  9 11  1  0
 11 12  1  0
 11 13  2  0
 13 14  1  0
 13 15  1  0
 15 16  1  0
 15 17  2  0
 17 18  1  0
  5 19  2  0
 19 20  1  0
 19 21  1  0
 21 22  1  0
 21 23  2  0
 23 24  1  0
 24 25  2  0
 25 26  1  0
 26 27  1  0
 26 28  1  0
 26 29  1  0
 29 30  1  0
 29 31  1  0
 31 32  1  0
 31 33  1  0
 31 34  1  0
 34 35  1  0
 34 36  1  0
 34 37  1  0
 29 38  1  0
 38 39  1  0
 38 40  1  0
 38 41  1  0
 41 42  1  0
 41 43  1  0
 41 44  1  0
 23  2  1  0
 18  6  1  0
 17  8  1  0
M  CHG  2  18  -1  29   1
M  END
>  <UniqueID>  (49) 
45

>  <SMILES>  (49) 
CC[NH+](CC)C/N=N/c1ccc(-c2nc3ccccc3[n-]2)cc1

>  <Energy>  (49) 
83.1687038331205

>  <Genealogy>  (49) 
CC[NH+](CC)CN=Nc1ccc(-c2nc3ccccc3[n-]2)cc1 (protonated)
CC[NH+](CC)C/N=N/c1ccc(-c2nc3ccccc3[n-]2)cc1 (cis-trans isomerization)
CC[NH+](CC)C/N=N/c1ccc(-c2nc3ccccc3[n-]2)cc1 (3D coordinates assigned)
CC[NH+](CC)C/N=N/c1ccc(-c2nc3ccccc3[n-]2)cc1 (optimized conformer: 83.1687038331205 kcal/mol)

>  <smiles>  (49) 
CCN(CC)CN=Nc1ccc(-c2nc3ccccc3[nH]2)cc1

>  <score_type>  (49) 
oracle

>  <origin>  (49) 
adg

>  <m_score__min__energy>  (49) 
-6.9699999999999998

>  <m_primary>  (49) 
energy

$$$$
49:0
     RDKit          3D

 28 30  0  0  1  0  0  0  0  0999 V2000
   57.7700   32.3170   42.6130 C   0  0  0  0  0  0  0  0  0  0  0  0
   58.1530   32.4690   43.9170 C   0  0  0  0  0  0  0  0  0  0  0  0
   57.8030   31.5210   44.8560 C   0  0  0  0  0  0  0  0  0  0  0  0
   57.0470   30.3940   44.4550 C   0  0  0  0  0  0  0  0  0  0  0  0
   56.6090   29.5210   45.3870 N   0  0  0  0  0  0  0  0  0  0  0  0
   56.9870   28.3990   45.7230 C   0  0  0  0  0  0  0  0  0  0  0  0
   56.1210   27.3660   45.6160 N   0  0  0  0  0  0  0  0  0  0  0  0
   56.4080   26.1020   45.9470 C   0  0  0  0  0  0  0  0  0  0  0  0
   57.6310   25.8380   46.4170 N   0  0  0  0  0  0  0  0  0  0  0  0
   58.5180   26.8390   46.5380 C   0  0  0  0  0  0  0  0  0  0  0  0
   59.7610   26.5050   47.0260 C   0  0  0  0  0  0  0  0  0  0  0  0
   60.6740   27.5120   47.1540 C   0  0  0  0  0  0  0  0  0  0  0  0
   60.4580   28.8200   46.8400 C   0  0  0  0  0  0  0  0  0  0  0  0
   59.1790   29.1330   46.3420 C   0  0  0  0  0  0  0  0  0  0  0  0
   58.2340   28.1570   46.1970 C   0  0  0  0  0  0  0  0  0  0  0  0
   56.6630   30.2530   43.1160 C   0  0  0  0  0  0  0  0  0  0  0  0
   57.0320   31.2220   42.2090 C   0  0  0  0  0  0  0  0  0  0  0  0
   58.0546   33.0799   41.8734 H   0  0  0  0  0  0  0  0  0  0  0  0
   58.7411   33.3486   44.2176 H   0  0  0  0  0  0  0  0  0  0  0  0
   58.1085   31.6399   45.9060 H   0  0  0  0  0  0  0  0  0  0  0  0
   55.1520   27.5350   45.2520 H   0  0  0  0  0  0  0  0  0  0  0  0
   55.6596   25.3036   45.8356 H   0  0  0  0  0  0  0  0  0  0  0  0
   60.0086   25.4692   47.3015 H   0  0  0  0  0  0  0  0  0  0  0  0
   61.6675   27.2448   47.5434 H   0  0  0  0  0  0  0  0  0  0  0  0
   61.2369   29.5861   46.9680 H   0  0  0  0  0  0  0  0  0  0  0  0
   58.9387   30.1708   46.0677 H   0  0  0  0  0  0  0  0  0  0  0  0
   56.0752   29.3812   42.7929 H   0  0  0  0  0  0  0  0  0  0  0  0
   56.7363   31.1227   41.1542 H   0  0  0  0  0  0  0  0  0  0  0  0
  1  2  2  0
  2  3  1  0
  3  4  2  0
  4  5  1  0
  5  6  2  0
  6  7  1  0
  7  8  1  0
  8  9  2  0
  9 10  1  0
 10 11  2  0
 11 12  1  0
 12 13  2  0
 13 14  1  0
 14 15  2  0
  4 16  1  0
 16 17  2  0
 17  1  1  0
 15  6  1  0
 15 10  1  0
  1 18  1  0
  2 19  1  0
  3 20  1  0
  7 21  1  0
  8 22  1  0
 11 23  1  0
 12 24  1  0
 13 25  1  0
 14 26  1  0
 16 27  1  0
 17 28  1  0
M  END
>  <smiles>  (50) 
c1ccc(N=c2[nH]cnc3ccccc23)cc1

>  <score_type>  (50) 
oracle

>  <origin>  (50) 
adg

>  <m_score__min__energy>  (50) 
-6.6299999999999999

>  <m_primary>  (50) 
energy

$$$$
50:0
     RDKit          3D

 24 24  0  0  0  0  0  0  0  0999 V2000
   56.3010   30.0860   42.8720 C   0  0  0  0  0  0  0  0  0  0  0  0
   56.2370   29.4620   44.2330 C   0  0  0  0  0  0  0  0  0  0  0  0
   55.1480   29.5170   44.8660 O   0  0  0  0  0  0  0  0  0  0  0  0
   57.4030   28.7770   44.8490 C   0  0  0  0  0  0  0  0  0  0  0  0
   58.6910   29.2650   44.5640 C   0  0  0  0  0  0  0  0  0  0  0  0
   59.8210   28.6720   45.1270 C   0  0  0  0  0  0  0  0  0  0  0  0
   59.6820   27.5780   45.9780 C   0  0  0  0  0  0  0  0  0  0  0  0
   58.4160   27.0660   46.2600 C   0  0  0  0  0  0  0  0  0  0  0  0
   57.2640   27.6490   45.6970 C   0  0  0  0  0  0  0  0  0  0  0  0
   55.9620   27.0900   45.9330 N   0  0  0  0  0  0  0  0  0  0  0  0
   55.5360   25.4100   45.8820 S   0  0  0  0  0  0  0  0  0  0  0  0
   56.3920   24.5980   44.5490 C   0  0  0  0  0  0  0  0  0  0  0  0
   55.8650   24.7550   47.1950 O   0  0  0  0  0  0  0  0  0  0  0  0
   54.0560   25.2960   45.6450 O   0  0  0  0  0  0  0  0  0  0  0  0
   56.4128   31.1756   42.9731 H   0  0  0  0  0  0  0  0  0  0  0  0
   57.1621   29.6786   42.3219 H   0  0  0  0  0  0  0  0  0  0  0  0
   55.3752   29.8618   42.3219 H   0  0  0  0  0  0  0  0  0  0  0  0
   58.8086   30.1252   43.8886 H   0  0  0  0  0  0  0  0  0  0  0  0
   60.8216   29.0681   44.8991 H   0  0  0  0  0  0  0  0  0  0  0  0
   60.5732   27.1168   46.4287 H   0  0  0  0  0  0  0  0  0  0  0  0
   58.3160   26.1983   46.9287 H   0  0  0  0  0  0  0  0  0  0  0  0
   57.1317   23.8963   44.9618 H   0  0  0  0  0  0  0  0  0  0  0  0
   55.6685   24.0464   43.9308 H   0  0  0  0  0  0  0  0  0  0  0  0
   56.9047   25.3496   43.9308 H   0  0  0  0  0  0  0  0  0  0  0  0
  1  2  1  0
  2  3  2  0
  2  4  1  0
  4  5  2  0
  5  6  1  0
  6  7  2  0
  7  8  1  0
  8  9  2  0
  9 10  1  0
 10 11  1  0
 11 12  1  0
 11 13  2  0
 11 14  2  0
  9  4  1  0
  1 15  1  0
  1 16  1  0
  1 17  1  0
  5 18  1  0
  6 19  1  0
  7 20  1  0
  8 21  1  0
 12 22  1  0
 12 23  1  0
 12 24  1  0
M  CHG  1  10  -1
M  END
>  <UniqueID>  (51) 
46

>  <SMILES>  (51) 
CC(=O)c1ccccc1[N-]S(C)(=O)=O

>  <Energy>  (51) 
25.24665235682515

>  <Genealogy>  (51) 
CC(=O)c1ccccc1[N-]S(C)(=O)=O (protonated)
CC(=O)c1ccccc1[N-]S(C)(=O)=O (3D coordinates assigned)
CC(=O)c1ccccc1[N-]S(C)(=O)=O (optimized conformer: 25.24665235682515 kcal/mol)

>  <smiles>  (51) 
CC(=O)c1ccccc1NS(C)(=O)=O

>  <score_type>  (51) 
oracle

>  <origin>  (51) 
adg

>  <m_score__min__energy>  (51) 
-8.6300000000000008

>  <m_primary>  (51) 
energy

$$$$
51:0
     RDKit          3D

 28 29  0  0  0  0  0  0  0  0999 V2000
   58.2300   25.8610   47.2980 C   0  0  0  0  0  0  0  0  0  0  0  0
   58.4270   26.9650   46.3510 N   0  0  0  0  0  0  0  0  0  0  0  0
   57.3870   27.8130   46.0800 C   0  0  0  0  0  0  0  0  0  0  0  0
   57.5430   28.8810   45.1820 C   0  0  0  0  0  0  0  0  0  0  0  0
   56.4170   29.7960   44.8750 C   0  0  0  0  0  0  0  0  0  0  0  0
   55.2410   29.3440   44.8640 O   0  0  0  0  0  0  0  0  0  0  0  0
   56.6250   31.1750   44.5380 N   0  0  0  0  0  0  0  0  0  0  0  0
   57.5330   32.0780   45.1860 C   0  0  0  0  0  0  0  0  0  0  0  0
   58.1280   31.7670   46.4220 C   0  0  0  0  0  0  0  0  0  0  0  0
   59.0000   32.6760   47.0300 C   0  0  0  0  0  0  0  0  0  0  0  0
   59.2690   33.9040   46.4210 C   0  0  0  0  0  0  0  0  0  0  0  0
   58.6610   34.2280   45.2040 C   0  0  0  0  0  0  0  0  0  0  0  0
   58.9150   35.4240   44.6170 F   0  0  0  0  0  0  0  0  0  0  0  0
   57.7900   33.3210   44.5930 C   0  0  0  0  0  0  0  0  0  0  0  0
   58.7990   29.0890   44.5990 C   0  0  0  0  0  0  0  0  0  0  0  0
   59.8550   28.2320   44.8950 C   0  0  0  0  0  0  0  0  0  0  0  0
   59.6570   27.1680   45.7780 C   0  0  0  0  0  0  0  0  0  0  0  0
   60.6230   26.4010   46.0410 O   0  0  0  0  0  0  0  0  0  0  0  0
   58.2983   26.2439   48.3269 H   0  0  0  0  0  0  0  0  0  0  0  0
   57.2378   25.4136   47.1384 H   0  0  0  0  0  0  0  0  0  0  0  0
   59.0062   25.0981   47.1384 H   0  0  0  0  0  0  0  0  0  0  0  0
   56.4161   27.6555   46.5724 H   0  0  0  0  0  0  0  0  0  0  0  0
   57.9071   30.8070   46.9114 H   0  0  0  0  0  0  0  0  0  0  0  0
   59.4748   32.4234   47.9895 H   0  0  0  0  0  0  0  0  0  0  0  0
   59.9586   34.6157   46.8984 H   0  0  0  0  0  0  0  0  0  0  0  0
   57.3041   33.5846   43.6420 H   0  0  0  0  0  0  0  0  0  0  0  0
   58.9512   29.9302   43.9067 H   0  0  0  0  0  0  0  0  0  0  0  0
   60.8415   28.3920   44.4354 H   0  0  0  0  0  0  0  0  0  0  0  0
  1  2  1  0
  2  3  1  0
  3  4  2  0
  4  5  1  0
  5  6  2  0
  5  7  1  0
  7  8  1  0
  8  9  2  0
  9 10  1  0
 10 11  2  0
 11 12  1  0
 12 13  1  0
 12 14  2  0
  4 15  1  0
 15 16  2  0
 16 17  1  0
 17 18  2  0
 17  2  1  0
 14  8  1  0
  1 19  1  0
  1 20  1  0
  1 21  1  0
  3 22  1  0
  9 23  1  0
 10 24  1  0
 11 25  1  0
 14 26  1  0
 15 27  1  0
 16 28  1  0
M  CHG  1   7  -1
M  END
>  <UniqueID>  (52) 
47

>  <SMILES>  (52) 
Cn1cc(C(=O)[N-]c2cccc(F)c2)ccc1=O

>  <Energy>  (52) 
37.436474532454014

>  <Genealogy>  (52) 
Cn1cc(C(=O)[N-]c2cccc(F)c2)ccc1=O (protonated)
Cn1cc(C(=O)[N-]c2cccc(F)c2)ccc1=O (3D coordinates assigned)
Cn1cc(C(=O)[N-]c2cccc(F)c2)ccc1=O (optimized conformer: 37.436474532454014 kcal/mol)

>  <smiles>  (52) 
Cn1cc(C(=O)Nc2cccc(F)c2)ccc1=O

>  <score_type>  (52) 
oracle

>  <origin>  (52) 
adg

>  <m_score__min__energy>  (52) 
-7.79

>  <m_primary>  (52) 
energy

$$$$
52:0
     RDKit          3D

 40 42  0  0  0  0  0  0  0  0999 V2000
   55.5290   28.9580   44.8690 O   0  0  0  0  0  0  0  0  0  0  0  0
   56.4610   29.8050   44.8570 C   0  0  0  0  0  0  0  0  0  0  0  0
   56.1190   31.1990   44.8340 N   0  0  0  0  0  0  0  0  0  0  0  0
   57.0260   32.3120   44.8640 C   0  0  0  0  0  0  0  0  0  0  0  0
   57.0210   33.2490   45.9130 C   0  0  0  0  0  0  0  0  0  0  0  0
   57.9280   34.3140   45.9100 C   0  0  0  0  0  0  0  0  0  0  0  0
   58.8580   34.4390   44.8760 C   0  0  0  0  0  0  0  0  0  0  0  0
   58.8870   33.4950   43.8460 C   0  0  0  0  0  0  0  0  0  0  0  0
   57.9790   32.4310   43.8440 C   0  0  0  0  0  0  0  0  0  0  0  0
   57.8630   29.3490   44.9850 C   0  0  0  0  0  0  0  0  0  0  0  0
   58.3210   28.3410   44.1190 C   0  0  0  0  0  0  0  0  0  0  0  0
   59.6210   27.8440   44.2310 C   0  0  0  0  0  0  0  0  0  0  0  0
   60.4790   28.3490   45.2060 C   0  0  0  0  0  0  0  0  0  0  0  0
   60.0420   29.3500   46.0730 C   0  0  0  0  0  0  0  0  0  0  0  0
   58.7340   29.8590   45.9820 C   0  0  0  0  0  0  0  0  0  0  0  0
   58.2940   30.8610   46.9140 N   0  0  0  0  0  0  0  0  0  0  0  0
   59.2210   31.2850   48.3170 S   0  0  0  0  0  0  0  0  0  0  0  0
   58.4490   32.2500   49.1740 O   0  0  0  0  0  0  0  0  0  0  0  0
   59.4890   30.0460   49.1240 O   0  0  0  0  0  0  0  0  0  0  0  0
   60.7590   31.9870   47.8230 C   0  0  0  0  0  0  0  0  0  0  0  0
   61.9640   31.3350   48.1180 C   0  0  0  0  0  0  0  0  0  0  0  0
   63.1830   31.9080   47.7420 C   0  0  0  0  0  0  0  0  0  0  0  0
   63.2030   33.1330   47.0680 C   0  0  0  0  0  0  0  0  0  0  0  0
   62.0040   33.7900   46.7780 C   0  0  0  0  0  0  0  0  0  0  0  0
   60.7830   33.2210   47.1560 C   0  0  0  0  0  0  0  0  0  0  0  0
   56.3015   33.1440   46.7384 H   0  0  0  0  0  0  0  0  0  0  0  0
   57.9085   35.0542   46.7235 H   0  0  0  0  0  0  0  0  0  0  0  0
   59.5672   35.2798   44.8722 H   0  0  0  0  0  0  0  0  0  0  0  0
   59.6249   33.5888   43.0357 H   0  0  0  0  0  0  0  0  0  0  0  0
   58.0134   31.6839   43.0374 H   0  0  0  0  0  0  0  0  0  0  0  0
   57.6490   27.9400   43.3459 H   0  0  0  0  0  0  0  0  0  0  0  0
   59.9680   27.0535   43.5493 H   0  0  0  0  0  0  0  0  0  0  0  0
   61.5033   27.9572   45.2919 H   0  0  0  0  0  0  0  0  0  0  0  0
   60.7278   29.7459   46.8365 H   0  0  0  0  0  0  0  0  0  0  0  0
   57.3310   31.2540   46.8530 H   0  0  0  0  0  0  0  0  0  0  0  0
   61.9509   30.3704   48.6465 H   0  0  0  0  0  0  0  0  0  0  0  0
   64.1271   31.3945   47.9767 H   0  0  0  0  0  0  0  0  0  0  0  0
   64.1620   33.5794   46.7662 H   0  0  0  0  0  0  0  0  0  0  0  0
   62.0203   34.7558   46.2518 H   0  0  0  0  0  0  0  0  0  0  0  0
   59.8408   33.7418   46.9300 H   0  0  0  0  0  0  0  0  0  0  0  0
  1  2  2  0
  2  3  1  0
  3  4  1  0
  4  5  2  0
  5  6  1  0
  6  7  2  0
  7  8  1  0
  8  9  2  0
  2 10  1  0
 10 11  2  0
 11 12  1  0
 12 13  2  0
 13 14  1  0
 14 15  2  0
 15 16  1  0
 16 17  1  0
 17 18  2  0
 17 19  2  0
 17 20  1  0
 20 21  2  0
 21 22  1  0
 22 23  2  0
 23 24  1  0
 24 25  2  0
  9  4  1  0
 15 10  1  0
 25 20  1  0
  5 26  1  0
  6 27  1  0
  7 28  1  0
  8 29  1  0
  9 30  1  0
 11 31  1  0
 12 32  1  0
 13 33  1  0
 14 34  1  0
 16 35  1  0
 21 36  1  0
 22 37  1  0
 23 38  1  0
 24 39  1  0
 25 40  1  0
M  CHG  1   3  -1
M  END
>  <UniqueID>  (53) 
48

>  <SMILES>  (53) 
O=C([N-]c1ccccc1)c1ccccc1NS(=O)(=O)c1ccccc1

>  <Energy>  (53) 
54.72516280234663

>  <Genealogy>  (53) 
O=C([N-]c1ccccc1)c1ccccc1NS(=O)(=O)c1ccccc1 (protonated)
O=C([N-]c1ccccc1)c1ccccc1NS(=O)(=O)c1ccccc1 (3D coordinates assigned)
O=C([N-]c1ccccc1)c1ccccc1NS(=O)(=O)c1ccccc1 (optimized conformer: 54.72516280234663 kcal/mol)

>  <smiles>  (53) 
O=C(Nc1ccccc1)c1ccccc1NS(=O)(=O)c1ccccc1

>  <score_type>  (53) 
oracle

>  <origin>  (53) 
adg

>  <m_score__min__energy>  (53) 
-10.73

>  <m_primary>  (53) 
energy

$$$$
53:0
     RDKit          3D

 33 34  0  0  0  0  0  0  0  0999 V2000
   58.1210   32.7520   43.2190 C   0  0  0  0  0  0  0  0  0  0  0  0
   58.4440   33.1320   44.6390 C   0  0  0  0  0  0  0  0  0  0  0  0
   58.6950   34.4810   44.9400 C   0  0  0  0  0  0  0  0  0  0  0  0
   58.9760   34.8780   46.2500 C   0  0  0  0  0  0  0  0  0  0  0  0
   59.0180   33.9310   47.2730 C   0  0  0  0  0  0  0  0  0  0  0  0
   58.7900   32.5830   46.9890 C   0  0  0  0  0  0  0  0  0  0  0  0
   58.5190   32.1650   45.6760 C   0  0  0  0  0  0  0  0  0  0  0  0
   58.3130   30.7220   45.4190 C   0  0  0  0  0  0  0  0  0  0  0  0
   57.1320   30.2680   44.8100 C   0  0  0  0  0  0  0  0  0  0  0  0
   56.9440   28.9040   44.5650 C   0  0  0  0  0  0  0  0  0  0  0  0
   57.9400   27.9780   44.9130 C   0  0  0  0  0  0  0  0  0  0  0  0
   57.7190   26.5040   44.6820 C   0  0  0  0  0  0  0  0  0  0  0  0
   57.4560   25.7560   45.9950 C   0  0  0  0  0  0  0  0  0  0  0  0
   55.9910   25.6410   46.2830 C   0  0  0  0  0  0  0  0  0  0  0  0
   55.5290   24.5960   46.8130 O   0  0  0  0  0  0  0  0  0  0  0  0
   55.1420   26.7060   46.0060 O   0  0  0  0  0  0  0  0  0  0  0  0
   59.1220   28.4330   45.5180 C   0  0  0  0  0  0  0  0  0  0  0  0
   59.3100   29.7970   45.7620 C   0  0  0  0  0  0  0  0  0  0  0  0
   57.4086   31.9139   43.2167 H   0  0  0  0  0  0  0  0  0  0  0  0
   57.6748   33.6139   42.7012 H   0  0  0  0  0  0  0  0  0  0  0  0
   59.0435   32.4505   42.7012 H   0  0  0  0  0  0  0  0  0  0  0  0
   58.6701   35.2321   44.1367 H   0  0  0  0  0  0  0  0  0  0  0  0
   59.1642   35.9383   46.4745 H   0  0  0  0  0  0  0  0  0  0  0  0
   59.2310   34.2465   48.3050 H   0  0  0  0  0  0  0  0  0  0  0  0
   58.8230   31.8418   47.8011 H   0  0  0  0  0  0  0  0  0  0  0  0
   56.3513   30.9884   44.5244 H   0  0  0  0  0  0  0  0  0  0  0  0
   56.0114   28.5552   44.0975 H   0  0  0  0  0  0  0  0  0  0  0  0
   56.8519   26.3735   44.0178 H   0  0  0  0  0  0  0  0  0  0  0  0
   58.6304   26.0882   44.2277 H   0  0  0  0  0  0  0  0  0  0  0  0
   57.8853   24.7459   45.9220 H   0  0  0  0  0  0  0  0  0  0  0  0
   57.9227   26.3245   46.8129 H   0  0  0  0  0  0  0  0  0  0  0  0
   59.9040   27.7133   45.8015 H   0  0  0  0  0  0  0  0  0  0  0  0
   60.2445   30.1463   46.2253 H   0  0  0  0  0  0  0  0  0  0  0  0
  1  2  1  0
  2  3  2  0
  3  4  1  0
  4  5  2  0
  5  6  1  0
  6  7  2  0
  7  8  1  0
  8  9  2  0
  9 10  1  0
 10 11  2  0
 11 12  1  0
 12 13  1  0
 13 14  1  0
 14 15  2  0
 14 16  1  0
 11 17  1  0
 17 18  2  0
  7  2  1  0
 18  8  1  0
  1 19  1  0
  1 20  1  0
  1 21  1  0
  3 22  1  0
  4 23  1  0
  5 24  1  0
  6 25  1  0
  9 26  1  0
 10 27  1  0
 12 28  1  0
 12 29  1  0
 13 30  1  0
 13 31  1  0
 17 32  1  0
 18 33  1  0
M  CHG  1  16  -1
M  END
>  <UniqueID>  (54) 
49

>  <SMILES>  (54) 
Cc1ccccc1-c1ccc(CCC(=O)[O-])cc1

>  <Energy>  (54) 
36.99731215433712

>  <Genealogy>  (54) 
Cc1ccccc1-c1ccc(CCC(=O)[O-])cc1 (protonated)
Cc1ccccc1-c1ccc(CCC(=O)[O-])cc1 (3D coordinates assigned)
Cc1ccccc1-c1ccc(CCC(=O)[O-])cc1 (optimized conformer: 36.99731215433712 kcal/mol)

>  <smiles>  (54) 
Cc1ccccc1-c1ccc(CCC(=O)O)cc1

>  <score_type>  (54) 
oracle

>  <origin>  (54) 
adg

>  <m_score__min__energy>  (54) 
-10.289999999999999

>  <m_primary>  (54) 
energy

$$$$
54:0
     RDKit          3D

 76 81  0  0  0  0  0  0  0  0999 V2000
   59.4110   28.5770   45.6180 C   0  0  0  0  0  0  0  0  0  0  0  0
   59.0050   29.9760   45.3600 C   0  0  0  0  0  0  0  0  0  0  0  0
   58.4690   30.3100   44.1150 C   0  0  0  0  0  0  0  0  0  0  0  0
   58.0700   31.5640   43.7780 C   0  0  0  0  0  0  0  0  0  0  0  0
   57.4130   31.9430   42.2240 Cl  0  0  0  0  0  0  0  0  0  0  0  0
   58.2130   32.5510   44.7530 C   0  0  0  0  0  0  0  0  0  0  0  0
   58.7470   32.2190   45.9940 C   0  0  0  0  0  0  0  0  0  0  0  0
   59.1530   30.9620   46.3440 C   0  0  0  0  0  0  0  0  0  0  0  0
   59.6890   30.5720   47.5770 N   0  0  0  0  0  0  0  0  0  0  0  0
   60.6080   31.3030   48.3650 C   0  0  0  0  0  0  0  0  0  0  0  0
   61.0410   32.4300   48.0080 O   0  0  0  0  0  0  0  0  0  0  0  0
   61.1380   30.8250   49.6540 C   0  0  0  0  0  0  0  0  0  0  0  0
   62.4840   30.8790   49.9660 C   0  0  0  0  0  0  0  0  0  0  0  0
   62.9400   30.3840   51.2090 C   0  0  0  0  0  0  0  0  0  0  0  0
   64.3340   30.4990   51.4060 N   0  0  0  0  0  0  0  0  0  0  0  0
   65.2340   29.4770   51.7360 C   0  0  0  0  0  0  0  0  0  0  0  0
   64.8060   28.2820   51.8540 O   0  0  0  0  0  0  0  0  0  0  0  0
   66.6510   29.8080   51.9420 C   0  0  0  0  0  0  0  0  0  0  0  0
   67.0460   31.1480   51.4830 C   0  0  0  0  0  0  0  0  0  0  0  0
   68.0930   31.7470   52.2080 C   0  0  0  0  0  0  0  0  0  0  0  0
   68.5690   32.9940   51.8660 C   0  0  0  0  0  0  0  0  0  0  0  0
   68.0080   33.6680   50.7930 C   0  0  0  0  0  0  0  0  0  0  0  0
   66.9700   33.0370   50.0990 C   0  0  0  0  0  0  0  0  0  0  0  0
   66.5250   31.8150   50.4570 N   0  0  0  0  0  0  0  0  0  0  0  0
   62.0440   29.8590   52.0990 C   0  0  0  0  0  0  0  0  0  0  0  0
   60.6760   29.7970   51.8100 C   0  0  0  0  0  0  0  0  0  0  0  0
   60.3020   30.2920   50.5810 C   0  0  0  0  0  0  0  0  0  0  0  0
   58.8240   30.2050   50.2720 C   0  0  0  0  0  0  0  0  0  0  0  0
   58.1930   30.6470   51.5720 C   0  0  0  0  0  0  0  0  0  0  0  0
   58.3390   29.5640   52.5480 N   0  0  0  0  0  0  0  0  0  0  0  0
   57.5190   29.8900   53.6630 C   0  0  0  0  0  0  0  0  0  0  0  0
   56.1080   29.9950   53.3060 C   0  0  0  0  0  0  0  0  0  0  0  0
   55.5640   29.6970   52.0830 C   0  0  0  0  0  0  0  0  0  0  0  0
   54.1910   29.7900   51.8530 C   0  0  0  0  0  0  0  0  0  0  0  0
   53.3500   30.1900   52.8800 C   0  0  0  0  0  0  0  0  0  0  0  0
   51.8780   30.2460   52.6410 C   0  0  0  0  0  0  0  0  0  0  0  0
   51.0730   29.5450   53.2610 O   0  0  0  0  0  0  0  0  0  0  0  0
   51.5110   31.1940   51.6260 N   0  0  0  0  0  0  0  0  0  0  0  0
   51.4140   30.7620   50.4150 C   0  0  0  0  0  0  0  0  0  0  0  0
   50.8790   31.2820   49.3210 N   0  0  0  0  0  0  0  0  0  0  0  0
   51.0370   30.4280   48.3390 N   0  0  0  0  0  0  0  0  0  0  0  0
   51.6680   29.3470   48.7610 N   0  0  0  0  0  0  0  0  0  0  0  0
   51.9010   29.5490   50.0370 N   0  0  0  0  0  0  0  0  0  0  0  0
   53.8710   30.4970   54.1120 C   0  0  0  0  0  0  0  0  0  0  0  0
   55.2320   30.4000   54.3250 C   0  0  0  0  0  0  0  0  0  0  0  0
   59.7000   29.2380   52.7980 C   0  0  0  0  0  0  0  0  0  0  0  0
   59.4612   28.4040   46.7031 H   0  0  0  0  0  0  0  0  0  0  0  0
   58.6743   27.8931   45.1713 H   0  0  0  0  0  0  0  0  0  0  0  0
   60.3994   28.3937   45.1713 H   0  0  0  0  0  0  0  0  0  0  0  0
   58.3638   29.5127   43.3645 H   0  0  0  0  0  0  0  0  0  0  0  0
   57.9054   33.5858   44.5420 H   0  0  0  0  0  0  0  0  0  0  0  0
   58.8489   33.0196   46.7414 H   0  0  0  0  0  0  0  0  0  0  0  0
   59.3870   29.6400   47.9920 H   0  0  0  0  0  0  0  0  0  0  0  0
   63.1990   31.3066   49.2478 H   0  0  0  0  0  0  0  0  0  0  0  0
   64.7300   31.4830   51.2840 H   0  0  0  0  0  0  0  0  0  0  0  0
   66.8653   29.7385   53.0187 H   0  0  0  0  0  0  0  0  0  0  0  0
   67.2266   29.0921   51.3369 H   0  0  0  0  0  0  0  0  0  0  0  0
   68.5378   31.2119   53.0600 H   0  0  0  0  0  0  0  0  0  0  0  0
   69.3882   33.4511   52.4404 H   0  0  0  0  0  0  0  0  0  0  0  0
   68.3665   34.6649   50.4971 H   0  0  0  0  0  0  0  0  0  0  0  0
   66.5066   33.5486   49.2426 H   0  0  0  0  0  0  0  0  0  0  0  0
   62.4070   29.4766   53.0644 H   0  0  0  0  0  0  0  0  0  0  0  0
   58.5497   30.8792   49.4473 H   0  0  0  0  0  0  0  0  0  0  0  0
   58.5019   29.2053   49.9452 H   0  0  0  0  0  0  0  0  0  0  0  0
   58.6985   31.5512   51.9419 H   0  0  0  0  0  0  0  0  0  0  0  0
   57.1282   30.8755   51.4171 H   0  0  0  0  0  0  0  0  0  0  0  0
   57.6326   29.1058   54.4260 H   0  0  0  0  0  0  0  0  0  0  0  0
   57.8425   30.8711   54.0409 H   0  0  0  0  0  0  0  0  0  0  0  0
   56.2254   29.3772   51.2643 H   0  0  0  0  0  0  0  0  0  0  0  0
   53.7783   29.5474   50.8627 H   0  0  0  0  0  0  0  0  0  0  0  0
   51.9250   28.5010   48.1780 H   0  0  0  0  0  0  0  0  0  0  0  0
   52.3820   28.8760   50.6480 H   0  0  0  0  0  0  0  0  0  0  0  0
   53.2066   30.8193   54.9273 H   0  0  0  0  0  0  0  0  0  0  0  0
   55.6392   30.6460   55.3168 H   0  0  0  0  0  0  0  0  0  0  0  0
   59.9654   29.6215   53.7942 H   0  0  0  0  0  0  0  0  0  0  0  0
   59.7738   28.1434   52.7176 H   0  0  0  0  0  0  0  0  0  0  0  0
  1  2  1  0
  2  3  2  0
  3  4  1  0
  4  5  1  0
  4  6  2  0
  6  7  1  0
  7  8  2  0
  8  9  1  0
  9 10  1  0
 10 11  2  0
 10 12  1  0
 12 13  2  0
 13 14  1  0
 14 15  1  0
 15 16  1  0
 16 17  2  0
 16 18  1  0
 18 19  1  0
 19 20  2  0
 20 21  1  0
 21 22  2  0
 22 23  1  0
 23 24  2  0
 14 25  2  0
 25 26  1  0
 26 27  2  0
 27 28  1  0
 28 29  1  0
 29 30  1  0
 30 31  1  0
 31 32  1  0
 32 33  2  0
 33 34  1  0
 34 35  2  0
 35 36  1  0
 36 37  2  0
 36 38  1  0
 38 39  2  3
 39 40  1  0
 40 41  2  0
 41 42  1  0
 42 43  1  0
 35 44  1  0
 44 45  2  0
 30 46  1  0
  8  2  1  0
 27 12  1  0
 45 32  1  0
 24 19  1  0
 46 26  1  0
 43 39  1  0
  1 47  1  0
  1 48  1  0
  1 49  1  0
  3 50  1  0
  6 51  1  0
  7 52  1  0
  9 53  1  0
 13 54  1  0
 15 55  1  0
 18 56  1  0
 18 57  1  0
 20 58  1  0
 21 59  1  0
 22 60  1  0
 23 61  1  0
 25 62  1  0
 28 63  1  0
 28 64  1  0
 29 65  1  0
 29 66  1  0
 31 67  1  0
 31 68  1  0
 33 69  1  0
 34 70  1  0
 42 71  1  0
 43 72  1  0
 44 73  1  0
 45 74  1  0
 46 75  1  0
 46 76  1  0
M  END
>  <smiles>  (55) 
Cc1cc(Cl)ccc1NC(=O)c1cc(NC(=O)Cc2ccccn2)cc2c1CCN(Cc1ccc(C(=O)N=c3nn[nH][nH]3)cc1)C2

>  <score_type>  (55) 
oracle

>  <origin>  (55) 
adg

>  <m_score__min__energy>  (55) 
-11.140000000000001

>  <m_primary>  (55) 
energy

$$$$
55:0
     RDKit          3D

 23 24  0  0  0  0  0  0  0  0999 V2000
   57.9800   28.5650   47.1100 O   0  0  0  0  0  0  0  0  0  0  0  0
   57.6220   28.7260   45.9120 C   0  0  0  0  0  0  0  0  0  0  0  0
   57.0220   27.6400   45.1860 N   0  0  0  0  0  0  0  0  0  0  0  0
   57.0690   26.2690   45.6160 C   0  0  0  0  0  0  0  0  0  0  0  0
   58.2770   25.5470   45.6200 C   0  0  0  0  0  0  0  0  0  0  0  0
   58.2970   24.2060   46.0180 C   0  0  0  0  0  0  0  0  0  0  0  0
   57.1150   23.5720   46.4050 C   0  0  0  0  0  0  0  0  0  0  0  0
   55.9070   24.2740   46.3850 C   0  0  0  0  0  0  0  0  0  0  0  0
   55.8790   25.6150   45.9860 C   0  0  0  0  0  0  0  0  0  0  0  0
   54.6970   26.2800   45.9770 F   0  0  0  0  0  0  0  0  0  0  0  0
   57.7900   30.0480   45.2830 C   0  0  0  0  0  0  0  0  0  0  0  0
   57.6620   30.3210   43.9220 C   0  0  0  0  0  0  0  0  0  0  0  0
   57.8650   31.6700   43.6080 C   0  0  0  0  0  0  0  0  0  0  0  0
   57.7540   32.3400   41.8220 Br  0  0  0  0  0  0  0  0  0  0  0  0
   58.1480   32.4570   44.7160 C   0  0  0  0  0  0  0  0  0  0  0  0
   58.4560   34.1830   44.7160 Cl  0  0  0  0  0  0  0  0  0  0  0  0
   58.1490   31.4860   46.0860 S   0  0  0  0  0  0  0  0  0  0  0  0
   56.4500   27.8680   44.3410 H   0  0  0  0  0  0  0  0  0  0  0  0
   59.2100   26.0395   45.3087 H   0  0  0  0  0  0  0  0  0  0  0  0
   59.2461   23.6500   46.0260 H   0  0  0  0  0  0  0  0  0  0  0  0
   57.1346   22.5200   46.7256 H   0  0  0  0  0  0  0  0  0  0  0  0
   54.9754   23.7711   46.6837 H   0  0  0  0  0  0  0  0  0  0  0  0
   57.4253   29.5535   43.1704 H   0  0  0  0  0  0  0  0  0  0  0  0
  1  2  2  0
  2  3  1  0
  3  4  1  0
  4  5  2  0
  5  6  1  0
  6  7  2  0
  7  8  1  0
  8  9  2  0
  9 10  1  0
  2 11  1  0
 11 12  2  0
 12 13  1  0
 13 14  1  0
 13 15  2  0
 15 16  1  0
 15 17  1  0
  9  4  1  0
 17 11  1  0
  3 18  1  0
  5 19  1  0
  6 20  1  0
  7 21  1  0
  8 22  1  0
 12 23  1  0
M  END
>  <UniqueID>  (56) 
50

>  <SMILES>  (56) 
O=C(Nc1ccccc1F)c1cc(Br)c(Cl)s1

>  <Energy>  (56) 
53.808280521236085

>  <Genealogy>  (56) 
O=C(Nc1ccccc1F)c1cc(Br)c(Cl)s1 (3D coordinates assigned)
O=C(Nc1ccccc1F)c1cc(Br)c(Cl)s1 (optimized conformer: 53.808280521236085 kcal/mol)

>  <smiles>  (56) 
O=C(Nc1ccccc1F)c1cc(Br)c(Cl)s1

>  <score_type>  (56) 
oracle

>  <origin>  (56) 
adg

>  <m_score__min__energy>  (56) 
-6.6200000000000001

>  <m_primary>  (56) 
energy

$$$$
56:0
     RDKit          3D

 37 39  0  0  0  0  0  0  0  0999 V2000
   63.8990   33.4640   48.3720 C   0  0  0  0  0  0  0  0  0  0  0  0
   62.6890   34.1070   47.9900 O   0  0  0  0  0  0  0  0  0  0  0  0
   61.6040   33.4110   47.4470 C   0  0  0  0  0  0  0  0  0  0  0  0
   61.4780   32.0390   47.6890 C   0  0  0  0  0  0  0  0  0  0  0  0
   60.3970   31.3390   47.1490 C   0  0  0  0  0  0  0  0  0  0  0  0
   59.4480   32.0140   46.3740 C   0  0  0  0  0  0  0  0  0  0  0  0
   58.3500   31.3430   45.8180 C   0  0  0  0  0  0  0  0  0  0  0  0
   57.3940   32.0510   45.0750 C   0  0  0  0  0  0  0  0  0  0  0  0
   56.2650   31.3790   44.5090 N   0  0  0  0  0  0  0  0  0  0  0  0
   56.1470   29.9570   44.3620 C   0  0  0  0  0  0  0  0  0  0  0  0
   55.1590   29.3720   44.8780 O   0  0  0  0  0  0  0  0  0  0  0  0
   57.2190   29.1380   43.6910 C   0  0  0  0  0  0  0  0  0  0  0  0
   58.1430   28.4790   44.6840 C   0  0  0  0  0  0  0  0  0  0  0  0
   57.6200   27.7060   45.7360 C   0  0  0  0  0  0  0  0  0  0  0  0
   58.4750   27.0960   46.6580 C   0  0  0  0  0  0  0  0  0  0  0  0
   59.8600   27.2350   46.5270 C   0  0  0  0  0  0  0  0  0  0  0  0
   60.3900   27.9820   45.4720 C   0  0  0  0  0  0  0  0  0  0  0  0
   59.5370   28.5970   44.5490 C   0  0  0  0  0  0  0  0  0  0  0  0
   57.5780   33.4160   44.8270 C   0  0  0  0  0  0  0  0  0  0  0  0
   58.6760   34.0920   45.3700 C   0  0  0  0  0  0  0  0  0  0  0  0
   59.6090   33.3990   46.1500 C   0  0  0  0  0  0  0  0  0  0  0  0
   60.6730   34.0540   46.6870 N   0  0  0  0  0  0  0  0  0  0  0  0
   63.9650   33.4290   49.4695 H   0  0  0  0  0  0  0  0  0  0  0  0
   63.9124   32.4398   47.9710 H   0  0  0  0  0  0  0  0  0  0  0  0
   64.7553   34.0260   47.9710 H   0  0  0  0  0  0  0  0  0  0  0  0
   62.2263   31.5144   48.3013 H   0  0  0  0  0  0  0  0  0  0  0  0
   60.2920   30.2595   47.3326 H   0  0  0  0  0  0  0  0  0  0  0  0
   58.2379   30.2586   45.9648 H   0  0  0  0  0  0  0  0  0  0  0  0
   56.7388   28.3573   43.0828 H   0  0  0  0  0  0  0  0  0  0  0  0
   57.8219   29.8173   43.0705 H   0  0  0  0  0  0  0  0  0  0  0  0
   56.5315   27.5808   45.8337 H   0  0  0  0  0  0  0  0  0  0  0  0
   58.0579   26.5060   47.4874 H   0  0  0  0  0  0  0  0  0  0  0  0
   60.5322   26.7564   47.2544 H   0  0  0  0  0  0  0  0  0  0  0  0
   61.4799   28.0868   45.3668 H   0  0  0  0  0  0  0  0  0  0  0  0
   59.9593   29.1754   43.7140 H   0  0  0  0  0  0  0  0  0  0  0  0
   56.8552   33.9605   44.2016 H   0  0  0  0  0  0  0  0  0  0  0  0
   58.8061   35.1683   45.1839 H   0  0  0  0  0  0  0  0  0  0  0  0
  1  2  1  0
  2  3  1  0
  3  4  2  0
  4  5  1  0
  5  6  2  0
  6  7  1  0
  7  8  2  0
  8  9  1  0
  9 10  1  0
 10 11  2  0
 10 12  1  0
 12 13  1  0
 13 14  2  0
 14 15  1  0
 15 16  2  0
 16 17  1  0
 17 18  2  0
  8 19  1  0
 19 20  2  0
 20 21  1  0
 21 22  2  0
 22  3  1  0
 21  6  1  0
 18 13  1  0
  1 23  1  0
  1 24  1  0
  1 25  1  0
  4 26  1  0
  5 27  1  0
  7 28  1  0
 12 29  1  0
 12 30  1  0
 14 31  1  0
 15 32  1  0
 16 33  1  0
 17 34  1  0
 18 35  1  0
 19 36  1  0
 20 37  1  0
M  CHG  1   9  -1
M  END
>  <UniqueID>  (57) 
51

>  <SMILES>  (57) 
COc1ccc2cc([N-]C(=O)Cc3ccccc3)ccc2n1

>  <Energy>  (57) 
44.23809244564924

>  <Genealogy>  (57) 
COc1ccc2cc([N-]C(=O)Cc3ccccc3)ccc2n1 (protonated)
COc1ccc2cc([N-]C(=O)Cc3ccccc3)ccc2n1 (3D coordinates assigned)
COc1ccc2cc([N-]C(=O)Cc3ccccc3)ccc2n1 (optimized conformer: 44.23809244564924 kcal/mol)

>  <smiles>  (57) 
COc1ccc2cc(NC(=O)Cc3ccccc3)ccc2n1

>  <score_type>  (57) 
oracle

>  <origin>  (57) 
adg

>  <m_score__min__energy>  (57) 
-9.3000000000000007

>  <m_primary>  (57) 
energy

$$$$
57:0
     RDKit          3D

 37 39  0  0  0  0  0  0  0  0999 V2000
   59.5290   29.5970   46.1630 C   0  0  0  0  0  0  0  0  0  0  0  0
   58.9070   30.8500   45.6120 C   0  0  0  0  0  0  0  0  0  0  0  0
   58.2200   30.8040   44.3890 C   0  0  0  0  0  0  0  0  0  0  0  0
   57.6540   31.9590   43.8530 C   0  0  0  0  0  0  0  0  0  0  0  0
   57.7620   33.1730   44.5300 C   0  0  0  0  0  0  0  0  0  0  0  0
   58.4320   33.2460   45.7610 C   0  0  0  0  0  0  0  0  0  0  0  0
   58.5380   34.5820   46.4470 C   0  0  0  0  0  0  0  0  0  0  0  0
   59.0300   32.0790   46.3000 C   0  0  0  0  0  0  0  0  0  0  0  0
   59.7590   32.1320   47.5450 N   0  0  0  0  0  0  0  0  0  0  0  0
   59.0030   31.7690   48.7170 C   0  0  0  0  0  0  0  0  0  0  0  0
   57.9120   32.3490   48.9600 O   0  0  0  0  0  0  0  0  0  0  0  0
   59.4960   30.8740   49.6600 O   0  0  0  0  0  0  0  0  0  0  0  0
   60.7280   31.0690   50.3240 C   0  0  0  0  0  0  0  0  0  0  0  0
   61.8520   30.7120   49.3660 C   0  0  0  0  0  0  0  0  0  0  0  0
   62.1570   31.8090   48.3720 C   0  0  0  0  0  0  0  0  0  0  0  0
   63.5170   32.1670   48.2510 C   0  0  0  0  0  0  0  0  0  0  0  0
   63.9250   33.1660   47.3740 C   0  0  0  0  0  0  0  0  0  0  0  0
   62.9910   33.8230   46.5900 C   0  0  0  0  0  0  0  0  0  0  0  0
   61.6450   33.4770   46.6680 C   0  0  0  0  0  0  0  0  0  0  0  0
   61.1850   32.4570   47.5400 C   0  0  0  0  0  0  0  0  0  0  0  0
   59.5117   29.6319   47.2623 H   0  0  0  0  0  0  0  0  0  0  0  0
   58.9607   28.7219   45.8149 H   0  0  0  0  0  0  0  0  0  0  0  0
   60.5697   29.5206   45.8149 H   0  0  0  0  0  0  0  0  0  0  0  0
   58.1277   29.8496   43.8499 H   0  0  0  0  0  0  0  0  0  0  0  0
   57.1201   31.9128   42.8924 H   0  0  0  0  0  0  0  0  0  0  0  0
   57.3184   34.0811   44.0957 H   0  0  0  0  0  0  0  0  0  0  0  0
   58.5264   34.4363   47.5372 H   0  0  0  0  0  0  0  0  0  0  0  0
   59.4778   35.0719   46.1525 H   0  0  0  0  0  0  0  0  0  0  0  0
   57.6872   35.2139   46.1525 H   0  0  0  0  0  0  0  0  0  0  0  0
   60.8219   32.1211   50.6310 H   0  0  0  0  0  0  0  0  0  0  0  0
   60.7790   30.4326   51.2198 H   0  0  0  0  0  0  0  0  0  0  0  0
   62.7602   30.5090   49.9525 H   0  0  0  0  0  0  0  0  0  0  0  0
   61.5259   29.8320   48.7923 H   0  0  0  0  0  0  0  0  0  0  0  0
   64.2685   31.6457   48.8622 H   0  0  0  0  0  0  0  0  0  0  0  0
   64.9894   33.4345   47.3028 H   0  0  0  0  0  0  0  0  0  0  0  0
   63.3138   34.6201   45.9041 H   0  0  0  0  0  0  0  0  0  0  0  0
   60.9183   34.0089   46.0364 H   0  0  0  0  0  0  0  0  0  0  0  0
  1  2  1  0
  2  3  2  0
  3  4  1  0
  4  5  2  0
  5  6  1  0
  6  7  1  0
  6  8  2  0
  8  9  1  0
  9 10  1  0
 10 11  2  0
 10 12  1  0
 12 13  1  0
 13 14  1  0
 14 15  1  0
 15 16  2  0
 16 17  1  0
 17 18  2  0
 18 19  1  0
 19 20  2  0
  8  2  1  0
 20  9  1  0
 20 15  1  0
  1 21  1  0
  1 22  1  0
  1 23  1  0
  3 24  1  0
  4 25  1  0
  5 26  1  0
  7 27  1  0
  7 28  1  0
  7 29  1  0
 13 30  1  0
 13 31  1  0
 14 32  1  0
 14 33  1  0
 16 34  1  0
 17 35  1  0
 18 36  1  0
 19 37  1  0
M  END
>  <UniqueID>  (58) 
52

>  <SMILES>  (58) 
Cc1cccc(C)c1N1C(=O)OCCc2ccccc21

>  <Energy>  (58) 
59.86784972605626

>  <Genealogy>  (58) 
Cc1cccc(C)c1N1C(=O)OCCc2ccccc21 (3D coordinates assigned)
Cc1cccc(C)c1N1C(=O)OCCc2ccccc21 (nonaromatic ring conformer: 59.86784972605626 kcal/mol)

>  <smiles>  (58) 
Cc1cccc(C)c1N1C(=O)OCCc2ccccc21

>  <score_type>  (58) 
oracle

>  <origin>  (58) 
adg

>  <m_score__min__energy>  (58) 
-5.1399999999999997

>  <m_primary>  (58) 
energy

$$$$
58:0
     RDKit          3D

 54 56  0  0  0  0  0  0  0  0999 V2000
   58.2270   23.4880   46.3520 N   0  0  0  0  0  0  0  0  0  0  0  0
   57.9230   24.5800   46.1120 C   0  0  0  0  0  0  0  0  0  0  0  0
   57.5410   25.9380   45.8120 C   0  0  0  0  0  0  0  0  0  0  0  0
   58.5030   26.8640   45.3980 C   0  0  0  0  0  0  0  0  0  0  0  0
   58.1430   28.1390   45.0580 N   0  0  0  0  0  0  0  0  0  0  0  0
   59.1630   29.0770   44.5540 C   0  0  0  0  0  0  0  0  0  0  0  0
   59.7830   29.9240   45.6880 C   0  0  0  0  0  0  0  0  0  0  0  0
   58.7980   30.3330   46.8000 C   0  0  0  0  0  0  0  0  0  0  0  0
   58.8850   29.5200   48.1020 C   0  0  0  0  0  0  0  0  0  0  0  0
   60.3260   29.2450   48.5560 C   0  0  0  0  0  0  0  0  0  0  0  0
   60.4030   29.0680   50.0770 C   0  0  0  0  0  0  0  0  0  0  0  0
   59.0790   29.4490   50.7770 C   0  0  0  0  0  0  0  0  0  0  0  0
   59.1910   30.6970   51.6710 C   0  0  0  0  0  0  0  0  0  0  0  0
   58.5720   31.9760   51.0760 C   0  0  0  0  0  0  0  0  0  0  0  0
   59.6080   32.9510   50.4820 C   0  0  0  0  0  0  0  0  0  0  0  0
   59.2860   33.3360   49.0700 C   0  0  0  0  0  0  0  0  0  0  0  0
   58.1810   32.8820   48.4230 N   0  0  0  0  0  0  0  0  0  0  0  0
   58.2930   33.4620   47.2200 C   0  0  0  0  0  0  0  0  0  0  0  0
   57.4350   33.3350   46.1310 C   0  0  0  0  0  0  0  0  0  0  0  0
   57.7620   34.0390   44.9570 C   0  0  0  0  0  0  0  0  0  0  0  0
   58.9280   34.8370   44.9050 C   0  0  0  0  0  0  0  0  0  0  0  0
   59.7740   34.9350   46.0240 C   0  0  0  0  0  0  0  0  0  0  0  0
   59.4170   34.2270   47.1690 C   0  0  0  0  0  0  0  0  0  0  0  0
   60.0710   34.1690   48.3360 N   0  0  0  0  0  0  0  0  0  0  0  0
   56.8360   28.5340   45.2100 C   0  0  0  0  0  0  0  0  0  0  0  0
   56.4910   29.7240   44.9740 O   0  0  0  0  0  0  0  0  0  0  0  0
   55.8940   27.6460   45.6240 N   0  0  0  0  0  0  0  0  0  0  0  0
   56.2120   26.3610   45.9150 C   0  0  0  0  0  0  0  0  0  0  0  0
   55.3070   25.5640   46.2830 O   0  0  0  0  0  0  0  0  0  0  0  0
   59.5600   26.5642   45.3451 H   0  0  0  0  0  0  0  0  0  0  0  0
   59.9620   28.5022   44.0629 H   0  0  0  0  0  0  0  0  0  0  0  0
   58.6733   29.7629   43.8471 H   0  0  0  0  0  0  0  0  0  0  0  0
   60.5944   29.3401   46.1470 H   0  0  0  0  0  0  0  0  0  0  0  0
   60.1308   30.8581   45.2228 H   0  0  0  0  0  0  0  0  0  0  0  0
   58.9872   31.3880   47.0474 H   0  0  0  0  0  0  0  0  0  0  0  0
   57.7933   30.1422   46.3947 H   0  0  0  0  0  0  0  0  0  0  0  0
   58.3700   30.0792   48.8970 H   0  0  0  0  0  0  0  0  0  0  0  0
   58.4150   28.5448   47.9071 H   0  0  0  0  0  0  0  0  0  0  0  0
   60.6867   28.3270   48.0691 H   0  0  0  0  0  0  0  0  0  0  0  0
   60.9509   30.1049   48.2730 H   0  0  0  0  0  0  0  0  0  0  0  0
   60.6314   28.0153   50.3000 H   0  0  0  0  0  0  0  0  0  0  0  0
   61.1897   29.7373   50.4554 H   0  0  0  0  0  0  0  0  0  0  0  0
   58.3202   29.6418   50.0043 H   0  0  0  0  0  0  0  0  0  0  0  0
   58.8063   28.6075   51.4308 H   0  0  0  0  0  0  0  0  0  0  0  0
   58.6838   30.4824   52.6232 H   0  0  0  0  0  0  0  0  0  0  0  0
   60.2660   30.8988   51.7875 H   0  0  0  0  0  0  0  0  0  0  0  0
   57.8732   31.6842   50.2782 H   0  0  0  0  0  0  0  0  0  0  0  0
   58.0722   32.5038   51.9016 H   0  0  0  0  0  0  0  0  0  0  0  0
   59.6315   33.8609   51.0997 H   0  0  0  0  0  0  0  0  0  0  0  0
   60.5832   32.4421   50.4769 H   0  0  0  0  0  0  0  0  0  0  0  0
   56.5337   32.7068   46.1862 H   0  0  0  0  0  0  0  0  0  0  0  0
   57.1074   33.9681   44.0758 H   0  0  0  0  0  0  0  0  0  0  0  0
   59.1749   35.3846   43.9835 H   0  0  0  0  0  0  0  0  0  0  0  0
   60.6860   35.5494   45.9960 H   0  0  0  0  0  0  0  0  0  0  0  0
  1  2  3  0
  2  3  1  0
  3  4  2  0
  4  5  1  0
  5  6  1  0
  6  7  1  0
  7  8  1  0
  8  9  1  0
  9 10  1  0
 10 11  1  0
 11 12  1  0
 12 13  1  0
 13 14  1  0
 14 15  1  0
 15 16  1  0
 16 17  2  0
 17 18  1  0
 18 19  2  0
 19 20  1  0
 20 21  2  0
 21 22  1  0
 22 23  2  0
 23 24  1  0
  5 25  1  0
 25 26  2  0
 25 27  1  0
 27 28  1  0
 28 29  2  0
 28  3  1  0
 24 16  1  0
 23 18  1  0
  4 30  1  0
  6 31  1  0
  6 32  1  0
  7 33  1  0
  7 34  1  0
  8 35  1  0
  8 36  1  0
  9 37  1  0
  9 38  1  0
 10 39  1  0
 10 40  1  0
 11 41  1  0
 11 42  1  0
 12 43  1  0
 12 44  1  0
 13 45  1  0
 13 46  1  0
 14 47  1  0
 14 48  1  0
 15 49  1  0
 15 50  1  0
 19 51  1  0
 20 52  1  0
 21 53  1  0
 22 54  1  0
M  CHG  2  24  -1  27  -1
M  END
>  <UniqueID>  (59) 
53

>  <SMILES>  (59) 
N#Cc1cn(CCCCCCCCCCc2nc3ccccc3[n-]2)c(=O)[n-]c1=O

>  <Energy>  (59) 
77.77525202901344

>  <Genealogy>  (59) 
N#Cc1cn(CCCCCCCCCCc2nc3ccccc3[n-]2)c(=O)[n-]c1=O (protonated)
N#Cc1cn(CCCCCCCCCCc2nc3ccccc3[n-]2)c(=O)[n-]c1=O (3D coordinates assigned)
N#Cc1cn(CCCCCCCCCCc2nc3ccccc3[n-]2)c(=O)[n-]c1=O (optimized conformer: 77.77525202901344 kcal/mol)

>  <smiles>  (59) 
N#Cc1cn(CCCCCCCCCCc2nc3ccccc3[nH]2)c(=O)[nH]c1=O

>  <score_type>  (59) 
oracle

>  <origin>  (59) 
adg

>  <m_score__min__energy>  (59) 
-11.5

>  <m_primary>  (59) 
energy

$$$$
59:0
     RDKit          3D

 34 35  0  0  0  0  0  0  0  0999 V2000
   60.7300   29.7210   46.5110 C   0  0  0  0  0  0  0  0  0  0  0  0
   61.3610   30.9550   46.7640 O   0  0  0  0  0  0  0  0  0  0  0  0
   61.1850   31.3020   48.1240 C   0  0  0  0  0  0  0  0  0  0  0  0
   61.8520   32.6670   48.4080 C   0  0  1  0  0  0  0  0  0  0  0  0
   63.3090   32.6790   47.9300 C   0  0  0  0  0  0  0  0  0  0  0  0
   63.2830   33.3500   46.5600 C   0  0  0  0  0  0  0  0  0  0  0  0
   61.8550   33.8460   46.3740 C   0  0  0  0  0  0  0  0  0  0  0  0
   61.2350   33.7960   47.6930 N   0  0  0  0  0  0  0  0  0  0  0  0
   59.4860   33.8980   47.6740 S   0  0  0  0  0  0  0  0  0  0  0  0
   59.0990   35.3410   47.5100 O   0  0  0  0  0  0  0  0  0  0  0  0
   58.9460   33.4290   48.9980 O   0  0  0  0  0  0  0  0  0  0  0  0
   58.7250   32.9810   46.3650 C   0  0  0  0  0  0  0  0  0  0  0  0
   58.7290   33.4600   45.0470 C   0  0  0  0  0  0  0  0  0  0  0  0
   58.1400   32.7090   44.0290 C   0  0  0  0  0  0  0  0  0  0  0  0
   57.5680   31.4710   44.3350 C   0  0  0  0  0  0  0  0  0  0  0  0
   56.9550   30.6780   43.3030 C   0  0  0  0  0  0  0  0  0  0  0  0
   56.4630   30.0400   42.4740 N   0  0  0  0  0  0  0  0  0  0  0  0
   57.6000   31.0060   45.6110 N   0  0  0  0  0  0  0  0  0  0  0  0
   58.1660   31.7210   46.6190 C   0  0  0  0  0  0  0  0  0  0  0  0
   60.4810   29.2340   47.4654 H   0  0  0  0  0  0  0  0  0  0  0  0
   59.8085   29.8917   45.9350 H   0  0  0  0  0  0  0  0  0  0  0  0
   61.4078   29.0738   45.9350 H   0  0  0  0  0  0  0  0  0  0  0  0
   60.1100   31.3675   48.3477 H   0  0  0  0  0  0  0  0  0  0  0  0
   61.6499   30.5324   48.7577 H   0  0  0  0  0  0  0  0  0  0  0  0
   61.7418   32.7871   49.4959 H   0  0  0  0  0  0  0  0  0  0  0  0
   63.9376   33.2525   48.6271 H   0  0  0  0  0  0  0  0  0  0  0  0
   63.7303   31.6641   47.8794 H   0  0  0  0  0  0  0  0  0  0  0  0
   63.9890   34.1930   46.5319 H   0  0  0  0  0  0  0  0  0  0  0  0
   63.5799   32.6551   45.7607 H   0  0  0  0  0  0  0  0  0  0  0  0
   61.8558   34.8773   45.9913 H   0  0  0  0  0  0  0  0  0  0  0  0
   61.3061   33.2282   45.6480 H   0  0  0  0  0  0  0  0  0  0  0  0
   59.1967   34.4283   44.8155 H   0  0  0  0  0  0  0  0  0  0  0  0
   58.1260   33.0875   42.9963 H   0  0  0  0  0  0  0  0  0  0  0  0
   58.1854   31.3089   47.6387 H   0  0  0  0  0  0  0  0  0  0  0  0
  1  2  1  0
  2  3  1  0
  3  4  1  0
  4  5  1  0
  5  6  1  0
  6  7  1  0
  7  8  1  0
  8  9  1  0
  9 10  2  0
  9 11  2  0
  9 12  1  0
 12 13  2  0
 13 14  1  0
 14 15  2  0
 15 16  1  0
 16 17  3  0
 15 18  1  0
 18 19  2  0
  8  4  1  0
 19 12  1  0
  1 20  1  0
  1 21  1  0
  1 22  1  0
  3 23  1  0
  3 24  1  0
  4 25  1  1
  5 26  1  0
  5 27  1  0
  6 28  1  0
  6 29  1  0
  7 30  1  0
  7 31  1  0
 13 32  1  0
 14 33  1  0
 19 34  1  0
M  END
>  <UniqueID>  (60) 
54

>  <SMILES>  (60) 
COC[C@H]1CCCN1S(=O)(=O)c1ccc(C#N)nc1

>  <Energy>  (60) 
41.648572088590434

>  <Genealogy>  (60) 
COC[C@H]1CCCN1S(=O)(=O)c1ccc(C#N)nc1 (chirality)
COC[C@H]1CCCN1S(=O)(=O)c1ccc(C#N)nc1 (3D coordinates assigned)
COC[C@H]1CCCN1S(=O)(=O)c1ccc(C#N)nc1 (nonaromatic ring conformer: 41.648572088590434 kcal/mol)

>  <smiles>  (60) 
COCC1CCCN1S(=O)(=O)c1ccc(C#N)nc1

>  <score_type>  (60) 
oracle

>  <origin>  (60) 
adg

>  <m_score__min__energy>  (60) 
-6.9100000000000001

>  <m_primary>  (60) 
energy

$$$$
60:0
     RDKit          3D

 43 45  0  0  0  0  0  0  0  0999 V2000
   58.8322   32.3857   49.0567 H   0  0  0  0  0  0  0  0  0  0  0  0
   58.9520   32.9170   48.1010 C   0  0  0  0  0  0  0  0  0  0  0  0
   58.1350   32.5890   47.0150 C   0  0  0  0  0  0  0  0  0  0  0  0
   57.3799   31.7960   47.1198 H   0  0  0  0  0  0  0  0  0  0  0  0
   58.2710   33.2640   45.7920 C   0  0  0  0  0  0  0  0  0  0  0  0
   57.4110   32.8620   44.6180 C   0  0  0  0  0  0  0  0  0  0  0  0
   58.0571   32.7100   43.7408 H   0  0  0  0  0  0  0  0  0  0  0  0
   56.6812   33.6660   44.4421 H   0  0  0  0  0  0  0  0  0  0  0  0
   56.6680   31.6280   44.8760 N   0  0  0  0  0  0  0  0  0  0  0  0
   56.9570   30.3560   44.7590 C   0  0  0  0  0  0  0  0  0  0  0  0
   57.4090   29.7410   45.8840 N   0  0  0  0  0  0  0  0  0  0  0  0
   57.7730   28.4380   45.9150 C   0  0  0  0  0  0  0  0  0  0  0  0
   58.2330   27.8580   47.1020 C   0  0  0  0  0  0  0  0  0  0  0  0
   58.2971   28.4606   48.0200 H   0  0  0  0  0  0  0  0  0  0  0  0
   58.6110   26.5130   47.1210 C   0  0  0  0  0  0  0  0  0  0  0  0
   58.9660   26.0576   48.0572 H   0  0  0  0  0  0  0  0  0  0  0  0
   58.5400   25.7390   45.9500 C   0  0  0  0  0  0  0  0  0  0  0  0
   58.9150   24.2820   45.9810 C   0  0  0  0  0  0  0  0  0  0  0  0
   58.7068   23.8770   46.9823 H   0  0  0  0  0  0  0  0  0  0  0  0
   59.9854   24.1877   45.7455 H   0  0  0  0  0  0  0  0  0  0  0  0
   58.1150   23.4960   44.9470 C   0  0  0  0  0  0  0  0  0  0  0  0
   57.4213   22.8144   45.4609 H   0  0  0  0  0  0  0  0  0  0  0  0
   57.5440   24.1941   44.3172 H   0  0  0  0  0  0  0  0  0  0  0  0
   58.8029   22.9127   44.3172 H   0  0  0  0  0  0  0  0  0  0  0  0
   58.0650   26.3240   44.7640 C   0  0  0  0  0  0  0  0  0  0  0  0
   57.9899   25.7201   43.8477 H   0  0  0  0  0  0  0  0  0  0  0  0
   57.6860   27.6750   44.7430 C   0  0  0  0  0  0  0  0  0  0  0  0
   57.2220   28.2580   43.6050 N   0  0  0  0  0  0  0  0  0  0  0  0
   57.1480   27.6720   42.7420 H   0  0  0  0  0  0  0  0  0  0  0  0
   56.8430   29.5740   43.5640 C   0  0  0  0  0  0  0  0  0  0  0  0
   56.2710   30.0830   42.2660 C   0  0  0  0  0  0  0  0  0  0  0  0
   55.4645   30.8007   42.4771 H   0  0  0  0  0  0  0  0  0  0  0  0
   57.0625   30.5809   41.6867 H   0  0  0  0  0  0  0  0  0  0  0  0
   55.8684   29.2390   41.6867 H   0  0  0  0  0  0  0  0  0  0  0  0
   59.2790   34.2360   45.6560 C   0  0  0  0  0  0  0  0  0  0  0  0
   59.4246   34.7414   44.6899 H   0  0  0  0  0  0  0  0  0  0  0  0
   60.0960   34.5630   46.7410 C   0  0  0  0  0  0  0  0  0  0  0  0
   60.8783   35.3277   46.6259 H   0  0  0  0  0  0  0  0  0  0  0  0
   59.9240   33.9210   47.9770 C   0  0  0  0  0  0  0  0  0  0  0  0
   60.8270   34.2460   49.1290 C   0  0  0  0  0  0  0  0  0  0  0  0
   60.2981   34.0556   50.0745 H   0  0  0  0  0  0  0  0  0  0  0  0
   61.7268   33.6153   49.0788 H   0  0  0  0  0  0  0  0  0  0  0  0
   61.1185   35.3055   49.0788 H   0  0  0  0  0  0  0  0  0  0  0  0
  1  2  1  0
  2  3  2  0
  3  4  1  0
  3  5  1  0
  5  6  1  0
  6  7  1  0
  6  8  1  0
  6  9  1  0
  9 10  2  0
 10 11  1  0
 11 12  1  0
 12 13  2  0
 13 14  1  0
 13 15  1  0
 15 16  1  0
 15 17  2  0
 17 18  1  0
 18 19  1  0
 18 20  1  0
 18 21  1  0
 21 22  1  0
 21 23  1  0
 21 24  1  0
 17 25  1  0
 25 26  1  0
 25 27  2  0
 27 28  1  0
 28 29  1  0
 28 30  2  0
 30 31  1  0
 31 32  1  0
 31 33  1  0
 31 34  1  0
  5 35  2  0
 35 36  1  0
 35 37  1  0
 37 38  1  0
 37 39  2  0
 39 40  1  0
 40 41  1  0
 40 42  1  0
 40 43  1  0
 39  2  1  0
 30 10  1  0
 27 12  1  0
M  CHG  2  11  -1  28   1
M  END
>  <UniqueID>  (61) 
55

>  <SMILES>  (61) 
CCc1ccc2[n-]/c(=N/Cc3ccc(C)cc3)c(C)[nH+]c2c1

>  <Energy>  (61) 
56.85312273063375

>  <Genealogy>  (61) 
CCc1ccc2[n-]c(=NCc3ccc(C)cc3)c(C)[nH+]c2c1 (protonated)
CCc1ccc2[n-]/c(=N/Cc3ccc(C)cc3)c(C)[nH+]c2c1 (cis-trans isomerization)
CCc1ccc2[n-]/c(=N/Cc3ccc(C)cc3)c(C)[nH+]c2c1 (3D coordinates assigned)
CCc1ccc2[n-]/c(=N/Cc3ccc(C)cc3)c(C)[nH+]c2c1 (optimized conformer: 56.85312273063375 kcal/mol)

>  <smiles>  (61) 
CCc1ccc2[nH]c(=NCc3ccc(C)cc3)c(C)nc2c1

>  <score_type>  (61) 
oracle

>  <origin>  (61) 
adg

>  <m_score__min__energy>  (61) 
-7.8499999999999996

>  <m_primary>  (61) 
energy

$$$$
61:0
     RDKit          3D

 13 13  0  0  0  0  0  0  0  0999 V2000
   50.1445   32.1378   55.3809 H   0  0  0  0  0  0  0  0  0  0  0  0
   50.3070   32.3350   54.3110 C   0  0  0  0  0  0  0  0  0  0  0  0
   49.9690   33.4840   53.6830 N   0  0  0  0  0  0  0  0  0  0  0  0
   50.2640   33.4880   52.3840 N   0  0  0  0  0  0  0  0  0  0  0  0
   50.8410   32.3390   51.9700 C   0  0  0  0  0  0  0  0  0  0  0  0
   51.2230   32.0930   50.7510 N   0  0  0  0  0  0  0  0  0  0  0  0
   51.7780   30.8770   50.2220 C   0  0  0  0  0  0  0  0  0  0  0  0
   51.3210   30.4320   49.1360 O   0  0  0  0  0  0  0  0  0  0  0  0
   52.8760   30.1140   50.9030 C   0  0  0  0  0  0  0  0  0  0  0  0
   52.7578   30.1961   51.9935 H   0  0  0  0  0  0  0  0  0  0  0  0
   52.8250   29.0557   50.6073 H   0  0  0  0  0  0  0  0  0  0  0  0
   53.8501   30.5308   50.6073 H   0  0  0  0  0  0  0  0  0  0  0  0
   51.0110   31.2450   53.2340 S   0  0  0  0  0  0  0  0  0  0  0  0
  1  2  1  0
  2  3  2  0
  3  4  1  0
  4  5  1  0
  5  6  2  0
  6  7  1  0
  7  8  2  0
  7  9  1  0
  9 10  1  0
  9 11  1  0
  9 12  1  0
  5 13  1  0
 13  2  1  0
M  CHG  1   4  -1
M  END
>  <UniqueID>  (62) 
56

>  <SMILES>  (62) 
CC(=O)/N=c1\[n-]ncs1

>  <Energy>  (62) 
47.41436459358388

>  <Genealogy>  (62) 
CC(=O)N=c1[n-]ncs1 (protonated)
CC(=O)/N=c1\[n-]ncs1 (cis-trans isomerization)
CC(=O)/N=c1\[n-]ncs1 (3D coordinates assigned)
CC(=O)/N=c1\[n-]ncs1 (optimized conformer: 47.41436459358388 kcal/mol)

>  <smiles>  (62) 
CC(=O)N=c1[nH]ncs1

>  <score_type>  (62) 
oracle

>  <origin>  (62) 
adg

>  <m_score__min__energy>  (62) 
-7.5499999999999998

>  <m_primary>  (62) 
energy

$$$$
62:0
     RDKit          3D

 32 35  0  0  1  0  0  0  0  0999 V2000
   59.5950   25.5200   46.3360 Cl  0  0  0  0  0  0  0  0  0  0  0  0
   59.0050   27.0270   45.6660 C   0  0  0  0  0  0  0  0  0  0  0  0
   59.8560   28.0370   45.2490 C   0  0  0  0  0  0  0  0  0  0  0  0
   59.3370   29.2000   44.7300 C   0  0  0  0  0  0  0  0  0  0  0  0
   57.9600   29.4100   44.6030 C   0  0  0  0  0  0  0  0  0  0  0  0
   57.4960   30.5990   44.0740 C   0  0  0  0  0  0  0  0  0  0  0  0
   58.3640   31.4640   43.7200 N   0  0  0  0  0  0  0  0  0  0  0  0
   58.6830   32.5160   44.5960 C   0  0  0  0  0  0  0  0  0  0  0  0
   58.5690   33.8250   44.1190 C   0  0  0  0  0  0  0  0  0  0  0  0
   58.8630   34.9150   44.9170 C   0  0  0  0  0  0  0  0  0  0  0  0
   59.2850   34.7020   46.2240 C   0  0  0  0  0  0  0  0  0  0  0  0
   59.6220   35.5990   47.1690 N   0  0  0  0  0  0  0  0  0  0  0  0
   59.9500   34.8950   48.2380 N   0  0  0  0  0  0  0  0  0  0  0  0
   59.8360   33.5720   48.0210 C   0  0  0  0  0  0  0  0  0  0  0  0
   59.4090   33.4090   46.7310 C   0  0  0  0  0  0  0  0  0  0  0  0
   59.1040   32.3520   45.8990 C   0  0  0  0  0  0  0  0  0  0  0  0
   56.1410   30.7640   43.9650 C   0  0  0  0  0  0  0  0  0  0  0  0
   55.3170   29.7370   44.3900 C   0  0  0  0  0  0  0  0  0  0  0  0
   55.7890   28.5840   44.9040 N   0  0  0  0  0  0  0  0  0  0  0  0
   57.1110   28.3980   45.0190 C   0  0  0  0  0  0  0  0  0  0  0  0
   57.6500   27.2200   45.5460 C   0  0  0  0  0  0  0  0  0  0  0  0
   60.9453   27.9091   45.3328 H   0  0  0  0  0  0  0  0  0  0  0  0
   60.0278   29.9915   44.4039 H   0  0  0  0  0  0  0  0  0  0  0  0
   58.2373   33.9919   43.0836 H   0  0  0  0  0  0  0  0  0  0  0  0
   58.7642   35.9372   44.5228 H   0  0  0  0  0  0  0  0  0  0  0  0
   59.6220   36.6490   47.0680 H   0  0  0  0  0  0  0  0  0  0  0  0
   60.0466   32.7711   48.7451 H   0  0  0  0  0  0  0  0  0  0  0  0
   59.2012   31.3298   46.2935 H   0  0  0  0  0  0  0  0  0  0  0  0
   55.7179   31.6905   43.5496 H   0  0  0  0  0  0  0  0  0  0  0  0
   54.2281   29.8674   44.3046 H   0  0  0  0  0  0  0  0  0  0  0  0
   55.1450   27.8160   45.2200 H   0  0  0  0  0  0  0  0  0  0  0  0
   56.9674   26.4226   45.8749 H   0  0  0  0  0  0  0  0  0  0  0  0
  1  2  1  0
  2  3  2  0
  3  4  1  0
  4  5  2  0
  5  6  1  0
  6  7  2  0
  7  8  1  0
  8  9  2  0
  9 10  1  0
 10 11  2  0
 11 12  1  0
 12 13  1  0
 13 14  2  0
 14 15  1  0
 15 16  2  0
  6 17  1  0
 17 18  2  0
 18 19  1  0
 19 20  1  0
 20 21  2  0
 21  2  1  0
 20  5  1  0
 16  8  1  0
 15 11  1  0
  3 22  1  0
  4 23  1  0
  9 24  1  0
 10 25  1  0
 12 26  1  0
 14 27  1  0
 16 28  1  0
 17 29  1  0
 18 30  1  0
 19 31  1  0
 21 32  1  0
M  END
>  <smiles>  (63) 
Clc1ccc2c(=Nc3ccc4[nH]ncc4c3)cc[nH]c2c1

>  <score_type>  (63) 
oracle

>  <origin>  (63) 
adg

>  <m_score__min__energy>  (63) 
-7.8700000000000001

>  <m_primary>  (63) 
energy

$$$$
63:0
     RDKit          3D

 35 36  0  0  0  0  0  0  0  0999 V2000
   57.5286   32.9532   43.2491 H   0  0  0  0  0  0  0  0  0  0  0  0
   58.1340   32.3550   43.9460 C   0  0  0  0  0  0  0  0  0  0  0  0
   58.4860   31.1470   43.6180 N   0  0  0  0  0  0  0  0  0  0  0  0
   58.6240   30.0180   44.5020 C   0  0  0  0  0  0  0  0  0  0  0  0
   59.8460   29.7250   45.1450 C   0  0  0  0  0  0  0  0  0  0  0  0
   60.7079   30.3947   45.0083 H   0  0  0  0  0  0  0  0  0  0  0  0
   59.9710   28.5930   45.9530 C   0  0  0  0  0  0  0  0  0  0  0  0
   60.9287   28.3744   46.4480 H   0  0  0  0  0  0  0  0  0  0  0  0
   58.8840   27.7400   46.1330 C   0  0  0  0  0  0  0  0  0  0  0  0
   58.9898   26.8401   46.7566 H   0  0  0  0  0  0  0  0  0  0  0  0
   57.6620   28.0250   45.5240 C   0  0  0  0  0  0  0  0  0  0  0  0
   56.8088   27.3463   45.6701 H   0  0  0  0  0  0  0  0  0  0  0  0
   57.5110   29.1720   44.7250 C   0  0  0  0  0  0  0  0  0  0  0  0
   56.1900   29.4430   44.1130 C   0  0  0  0  0  0  0  0  0  0  0  0
   55.1450   29.3200   44.8070 O   0  0  0  0  0  0  0  0  0  0  0  0
   56.0780   29.8850   42.7590 N   0  0  0  0  0  0  0  0  0  0  0  0
   55.1370   30.0210   42.3280 H   0  0  0  0  0  0  0  0  0  0  0  0
   56.9220   30.1620   42.2090 H   0  0  0  0  0  0  0  0  0  0  0  0
   58.5380   32.9330   45.2440 C   0  0  0  0  0  0  0  0  0  0  0  0
   59.5050   33.9520   45.3240 C   0  0  0  0  0  0  0  0  0  0  0  0
   59.9767   34.3325   44.4060 H   0  0  0  0  0  0  0  0  0  0  0  0
   59.8690   34.4830   46.5650 C   0  0  0  0  0  0  0  0  0  0  0  0
   60.6201   35.2850   46.6170 H   0  0  0  0  0  0  0  0  0  0  0  0
   59.2830   34.0000   47.7440 C   0  0  0  0  0  0  0  0  0  0  0  0
   59.6510   34.5950   49.0760 C   0  0  0  0  0  0  0  0  0  0  0  0
   58.9425   34.2388   49.8384 H   0  0  0  0  0  0  0  0  0  0  0  0
   59.6084   35.6913   48.9967 H   0  0  0  0  0  0  0  0  0  0  0  0
   61.0650   34.1880   49.4780 C   0  0  0  0  0  0  0  0  0  0  0  0
   61.1422   34.1658   50.5751 H   0  0  0  0  0  0  0  0  0  0  0  0
   61.2878   33.1893   49.0744 H   0  0  0  0  0  0  0  0  0  0  0  0
   61.7847   34.9155   49.0744 H   0  0  0  0  0  0  0  0  0  0  0  0
   58.3100   32.9920   47.6640 C   0  0  0  0  0  0  0  0  0  0  0  0
   57.8329   32.6179   48.5818 H   0  0  0  0  0  0  0  0  0  0  0  0
   57.9440   32.4610   46.4240 C   0  0  0  0  0  0  0  0  0  0  0  0
   57.1844   31.6670   46.3730 H   0  0  0  0  0  0  0  0  0  0  0  0
  1  2  1  0
  2  3  2  0
  3  4  1  0
  4  5  2  0
  5  6  1  0
  5  7  1  0
  7  8  1  0
  7  9  2  0
  9 10  1  0
  9 11  1  0
 11 12  1  0
 11 13  2  0
 13 14  1  0
 14 15  2  0
 14 16  1  0
 16 17  1  0
 16 18  1  0
  2 19  1  0
 19 20  2  0
 20 21  1  0
 20 22  1  0
 22 23  1  0
 22 24  2  0
 24 25  1  0
 25 26  1  0
 25 27  1  0
 25 28  1  0
 28 29  1  0
 28 30  1  0
 28 31  1  0
 24 32  1  0
 32 33  1  0
 32 34  2  0
 34 35  1  0
 13  4  1  0
 34 19  1  0
M  END
>  <UniqueID>  (64) 
57

>  <SMILES>  (64) 
CCc1ccc(/C=N/c2ccccc2C(N)=O)cc1

>  <Energy>  (64) 
38.442561585076945

>  <Genealogy>  (64) 
CCc1ccc(/C=N/c2ccccc2C(N)=O)cc1 (cis-trans isomerization)
CCc1ccc(/C=N/c2ccccc2C(N)=O)cc1 (3D coordinates assigned)
CCc1ccc(/C=N/c2ccccc2C(N)=O)cc1 (optimized conformer: 38.442561585076945 kcal/mol)

>  <smiles>  (64) 
CCc1ccc(C=Nc2ccccc2C(N)=O)cc1

>  <score_type>  (64) 
oracle

>  <origin>  (64) 
adg

>  <m_score__min__energy>  (64) 
-7.7699999999999996

>  <m_primary>  (64) 
energy

$$$$
64:0
     RDKit          3D

 36 37  0  0  0  0  0  0  0  0999 V2000
   56.2740   29.4000   42.6960 O   0  0  0  0  0  0  0  0  0  0  0  0
   56.4250   29.7300   44.1550 S   0  0  0  0  0  0  0  0  0  0  0  0
   55.1600   29.3430   44.8680 O   0  0  0  0  0  0  0  0  0  0  0  0
   56.7110   31.4800   44.3570 C   0  0  0  0  0  0  0  0  0  0  0  0
   57.7600   31.9740   43.3530 C   0  0  0  0  0  0  0  0  0  0  0  0
   58.3360   33.2680   43.7550 N   0  0  0  0  0  0  0  0  0  0  0  0
   57.6010   33.9420   44.8430 C   0  0  0  0  0  0  0  0  0  0  0  0
   58.3040   33.8400   46.1780 C   0  0  0  0  0  0  0  0  0  0  0  0
   57.9330   32.8490   47.1020 C   0  0  0  0  0  0  0  0  0  0  0  0
   58.6120   32.7300   48.3180 C   0  0  0  0  0  0  0  0  0  0  0  0
   59.6650   33.5960   48.6200 C   0  0  0  0  0  0  0  0  0  0  0  0
   60.0410   34.5850   47.7050 C   0  0  0  0  0  0  0  0  0  0  0  0
   59.3640   34.7080   46.4870 C   0  0  0  0  0  0  0  0  0  0  0  0
   57.7810   28.8410   44.8430 C   0  0  0  0  0  0  0  0  0  0  0  0
   59.1000   29.2130   44.5470 C   0  0  0  0  0  0  0  0  0  0  0  0
   60.1700   28.5340   45.1380 C   0  0  0  0  0  0  0  0  0  0  0  0
   59.9290   27.4820   46.0260 C   0  0  0  0  0  0  0  0  0  0  0  0
   58.6150   27.1110   46.3280 C   0  0  0  0  0  0  0  0  0  0  0  0
   57.5420   27.7890   45.7400 C   0  0  0  0  0  0  0  0  0  0  0  0
   55.7683   32.0220   44.1913 H   0  0  0  0  0  0  0  0  0  0  0  0
   57.0810   31.6639   45.3764 H   0  0  0  0  0  0  0  0  0  0  0  0
   58.5676   31.2301   43.2870 H   0  0  0  0  0  0  0  0  0  0  0  0
   57.2649   32.1081   42.3799 H   0  0  0  0  0  0  0  0  0  0  0  0
   59.3170   33.0980   44.0790 H   0  0  0  0  0  0  0  0  0  0  0  0
   57.4895   35.0055   44.5852 H   0  0  0  0  0  0  0  0  0  0  0  0
   56.6267   33.4413   44.9434 H   0  0  0  0  0  0  0  0  0  0  0  0
   57.1049   32.1640   46.8677 H   0  0  0  0  0  0  0  0  0  0  0  0
   58.3164   31.9529   49.0382 H   0  0  0  0  0  0  0  0  0  0  0  0
   60.1986   33.5005   49.5771 H   0  0  0  0  0  0  0  0  0  0  0  0
   60.8703   35.2671   47.9436 H   0  0  0  0  0  0  0  0  0  0  0  0
   59.6626   35.4865   45.7695 H   0  0  0  0  0  0  0  0  0  0  0  0
   59.2934   30.0405   43.8486 H   0  0  0  0  0  0  0  0  0  0  0  0
   61.2036   28.8285   44.9035 H   0  0  0  0  0  0  0  0  0  0  0  0
   60.7721   26.9464   46.4869 H   0  0  0  0  0  0  0  0  0  0  0  0
   58.4249   26.2848   47.0289 H   0  0  0  0  0  0  0  0  0  0  0  0
   56.5093   27.4969   45.9813 H   0  0  0  0  0  0  0  0  0  0  0  0
  1  2  2  0
  2  3  2  0
  2  4  1  0
  4  5  1  0
  5  6  1  0
  6  7  1  0
  7  8  1  0
  8  9  2  0
  9 10  1  0
 10 11  2  0
 11 12  1  0
 12 13  2  0
  2 14  1  0
 14 15  2  0
 15 16  1  0
 16 17  2  0
 17 18  1  0
 18 19  2  0
 13  8  1  0
 19 14  1  0
  4 20  1  0
  4 21  1  0
  5 22  1  0
  5 23  1  0
  6 24  1  0
  7 25  1  0
  7 26  1  0
  9 27  1  0
 10 28  1  0
 11 29  1  0
 12 30  1  0
 13 31  1  0
 15 32  1  0
 16 33  1  0
 17 34  1  0
 18 35  1  0
 19 36  1  0
M  END
>  <UniqueID>  (65) 
58

>  <SMILES>  (65) 
O=S(=O)(CCNCc1ccccc1)c1ccccc1

>  <Energy>  (65) 
30.24225630806245

>  <Genealogy>  (65) 
O=S(=O)(CCNCc1ccccc1)c1ccccc1 (3D coordinates assigned)
O=S(=O)(CCNCc1ccccc1)c1ccccc1 (optimized conformer: 30.24225630806245 kcal/mol)

>  <smiles>  (65) 
O=S(=O)(CCNCc1ccccc1)c1ccccc1

>  <score_type>  (65) 
oracle

>  <origin>  (65) 
adg

>  <m_score__min__energy>  (65) 
-7.6100000000000003

>  <m_primary>  (65) 
energy

$$$$
65:0
     RDKit          3D

 32 34  0  0  0  0  0  0  0  0999 V2000
   59.0510   27.2870   44.9230 O   0  0  0  0  0  0  0  0  0  0  0  0
   57.8060   27.1440   45.0690 C   0  0  0  0  0  0  0  0  0  0  0  0
   56.9290   28.2650   44.8700 N   0  0  0  0  0  0  0  0  0  0  0  0
   57.3520   29.6370   44.9510 C   0  0  0  0  0  0  0  0  0  0  0  0
   58.0820   30.1160   46.0560 C   0  0  0  0  0  0  0  0  0  0  0  0
   58.4610   31.4620   46.1210 C   0  0  0  0  0  0  0  0  0  0  0  0
   58.1060   32.3400   45.0950 C   0  0  0  0  0  0  0  0  0  0  0  0
   57.3640   31.8770   44.0040 C   0  0  0  0  0  0  0  0  0  0  0  0
   56.9840   30.5340   43.9360 C   0  0  0  0  0  0  0  0  0  0  0  0
   57.2600   25.8000   45.3730 C   0  0  0  0  0  0  0  0  0  0  0  0
   58.0940   24.6730   45.2510 C   0  0  0  0  0  0  0  0  0  0  0  0
   57.6040   23.3880   45.5220 C   0  0  0  0  0  0  0  0  0  0  0  0
   58.4340   22.2620   45.3890 C   0  0  0  0  0  0  0  0  0  0  0  0
   57.9340   20.9850   45.6610 C   0  0  0  0  0  0  0  0  0  0  0  0
   56.6060   20.8210   46.0650 C   0  0  0  0  0  0  0  0  0  0  0  0
   55.7700   21.9330   46.2010 C   0  0  0  0  0  0  0  0  0  0  0  0
   56.2610   23.2210   45.9310 C   0  0  0  0  0  0  0  0  0  0  0  0
   55.4340   24.3430   46.0680 C   0  0  0  0  0  0  0  0  0  0  0  0
   55.9270   25.6240   45.8010 C   0  0  0  0  0  0  0  0  0  0  0  0
   55.0870   26.7170   45.9920 O   0  0  0  0  0  0  0  0  0  0  0  0
   55.9560   28.0690   44.5420 H   0  0  0  0  0  0  0  0  0  0  0  0
   58.3554   29.4298   46.8711 H   0  0  0  0  0  0  0  0  0  0  0  0
   59.0395   31.8286   46.9818 H   0  0  0  0  0  0  0  0  0  0  0  0
   58.4100   33.3960   45.1450 H   0  0  0  0  0  0  0  0  0  0  0  0
   57.0793   32.5703   43.1989 H   0  0  0  0  0  0  0  0  0  0  0  0
   56.3919   30.1770   43.0804 H   0  0  0  0  0  0  0  0  0  0  0  0
   59.1412   24.8019   44.9398 H   0  0  0  0  0  0  0  0  0  0  0  0
   59.4795   22.3855   45.0702 H   0  0  0  0  0  0  0  0  0  0  0  0
   58.5878   20.1066   45.5567 H   0  0  0  0  0  0  0  0  0  0  0  0
   56.2176   19.8138   46.2766 H   0  0  0  0  0  0  0  0  0  0  0  0
   54.7258   21.7992   46.5200 H   0  0  0  0  0  0  0  0  0  0  0  0
   54.3893   24.2156   46.3879 H   0  0  0  0  0  0  0  0  0  0  0  0
  1  2  2  0
  2  3  1  0
  3  4  1  0
  4  5  2  0
  5  6  1  0
  6  7  2  0
  7  8  1  0
  8  9  2  0
  2 10  1  0
 10 11  2  0
 11 12  1  0
 12 13  2  0
 13 14  1  0
 14 15  2  0
 15 16  1  0
 16 17  2  0
 17 18  1  0
 18 19  2  0
 19 20  1  0
  9  4  1  0
 19 10  1  0
 17 12  1  0
  3 21  1  0
  5 22  1  0
  6 23  1  0
  7 24  1  0
  8 25  1  0
  9 26  1  0
 11 27  1  0
 13 28  1  0
 14 29  1  0
 15 30  1  0
 16 31  1  0
 18 32  1  0
M  CHG  1  20  -1
M  END
>  <UniqueID>  (66) 
59

>  <SMILES>  (66) 
O=C(Nc1ccccc1)c1cc2ccccc2cc1[O-]

>  <Energy>  (66) 
45.53354249911257

>  <Genealogy>  (66) 
O=C(Nc1ccccc1)c1cc2ccccc2cc1[O-] (protonated)
O=C(Nc1ccccc1)c1cc2ccccc2cc1[O-] (3D coordinates assigned)
O=C(Nc1ccccc1)c1cc2ccccc2cc1[O-] (optimized conformer: 45.53354249911257 kcal/mol)

>  <smiles>  (66) 
O=C(Nc1ccccc1)c1cc2ccccc2cc1O

>  <score_type>  (66) 
oracle

>  <origin>  (66) 
adg

>  <m_score__min__energy>  (66) 
-10.33

>  <m_primary>  (66) 
energy

$$$$
66:0
     RDKit          3D

 37 39  0  0  0  0  0  0  0  0999 V2000
   61.6140   28.6050   44.5040 C   0  0  0  0  0  0  0  0  0  0  0  0
   60.4540   27.9180   45.0930 N   0  0  0  0  0  0  0  0  0  0  0  0
   59.2030   28.3990   44.4710 C   0  0  0  0  0  0  0  0  0  0  0  0
   57.9600   27.8940   45.2320 C   0  0  0  0  0  0  0  0  0  0  0  0
   58.3240   26.8100   46.1630 N   0  0  0  0  0  0  0  0  0  0  0  0
   57.1140   26.2440   46.7930 C   0  0  0  0  0  0  0  0  0  0  0  0
   56.5080   25.1700   45.9160 C   0  0  0  0  0  0  0  0  0  0  0  0
   55.1510   25.2530   45.5420 C   0  0  0  0  0  0  0  0  0  0  0  0
   54.3580   26.3040   45.9930 O   0  0  0  0  0  0  0  0  0  0  0  0
   54.5850   24.2810   44.7130 C   0  0  0  0  0  0  0  0  0  0  0  0
   55.3570   23.2210   44.2350 C   0  0  0  0  0  0  0  0  0  0  0  0
   56.7100   23.1300   44.5830 C   0  0  0  0  0  0  0  0  0  0  0  0
   57.5130   22.0880   44.1090 C   0  0  0  0  0  0  0  0  0  0  0  0
   58.8570   22.0390   44.4720 C   0  0  0  0  0  0  0  0  0  0  0  0
   59.3700   23.0370   45.3040 C   0  0  0  0  0  0  0  0  0  0  0  0
   60.5830   23.0130   45.6420 O   0  0  0  0  0  0  0  0  0  0  0  0
   58.5840   24.0170   45.7430 O   0  0  0  0  0  0  0  0  0  0  0  0
   57.2940   24.1060   45.4240 C   0  0  0  0  0  0  0  0  0  0  0  0
   59.2730   27.3120   47.1840 C   0  0  0  0  0  0  0  0  0  0  0  0
   60.4150   28.1330   46.5500 C   0  0  0  0  0  0  0  0  0  0  0  0
   62.2603   28.9878   45.3076 H   0  0  0  0  0  0  0  0  0  0  0  0
   62.1822   27.8976   43.8820 H   0  0  0  0  0  0  0  0  0  0  0  0
   61.2668   29.4432   43.8820 H   0  0  0  0  0  0  0  0  0  0  0  0
   59.2020   29.4990   44.4757 H   0  0  0  0  0  0  0  0  0  0  0  0
   59.1584   28.0105   43.4428 H   0  0  0  0  0  0  0  0  0  0  0  0
   57.5219   28.7271   45.8013 H   0  0  0  0  0  0  0  0  0  0  0  0
   57.2329   27.5056   44.5037 H   0  0  0  0  0  0  0  0  0  0  0  0
   57.3840   25.8065   47.7655 H   0  0  0  0  0  0  0  0  0  0  0  0
   56.3761   27.0485   46.9286 H   0  0  0  0  0  0  0  0  0  0  0  0
   53.5231   24.3517   44.4350 H   0  0  0  0  0  0  0  0  0  0  0  0
   54.9029   22.4580   43.5856 H   0  0  0  0  0  0  0  0  0  0  0  0
   57.0868   21.3132   43.4547 H   0  0  0  0  0  0  0  0  0  0  0  0
   59.5043   21.2270   44.1091 H   0  0  0  0  0  0  0  0  0  0  0  0
   58.7271   27.9505   47.8941 H   0  0  0  0  0  0  0  0  0  0  0  0
   59.7176   26.4444   47.6936 H   0  0  0  0  0  0  0  0  0  0  0  0
   60.2504   29.2012   46.7545 H   0  0  0  0  0  0  0  0  0  0  0  0
   61.3719   27.8083   46.9845 H   0  0  0  0  0  0  0  0  0  0  0  0
  1  2  1  0
  2  3  1  0
  3  4  1  0
  4  5  1  0
  5  6  1  0
  6  7  1  0
  7  8  2  0
  8  9  1  0
  8 10  1  0
 10 11  2  0
 11 12  1  0
 12 13  1  0
 13 14  2  0
 14 15  1  0
 15 16  2  0
 15 17  1  0
 17 18  1  0
  5 19  1  0
 19 20  1  0
 20  2  1  0
 18  7  1  0
 18 12  2  0
  1 21  1  0
  1 22  1  0
  1 23  1  0
  3 24  1  0
  3 25  1  0
  4 26  1  0
  4 27  1  0
  6 28  1  0
  6 29  1  0
 10 30  1  0
 11 31  1  0
 13 32  1  0
 14 33  1  0
 19 34  1  0
 19 35  1  0
 20 36  1  0
 20 37  1  0
M  CHG  1   9  -1
M  END
>  <UniqueID>  (67) 
60

>  <SMILES>  (67) 
CN1CCN(Cc2c([O-])ccc3ccc(=O)oc23)CC1

>  <Energy>  (67) 
50.71713795719339

>  <Genealogy>  (67) 
CN1CCN(Cc2c([O-])ccc3ccc(=O)oc23)CC1 (protonated)
CN1CCN(Cc2c([O-])ccc3ccc(=O)oc23)CC1 (3D coordinates assigned)
CN1CCN(Cc2c([O-])ccc3ccc(=O)oc23)CC1 (nonaromatic ring conformer: 50.71713795719339 kcal/mol)

>  <smiles>  (67) 
CN1CCN(Cc2c(O)ccc3ccc(=O)oc23)CC1

>  <score_type>  (67) 
oracle

>  <origin>  (67) 
adg

>  <m_score__min__energy>  (67) 
-10.970000000000001

>  <m_primary>  (67) 
energy

$$$$
67:0
     RDKit          3D

 27 29  0  0  0  0  0  0  0  0999 V2000
   60.1030   32.5590   46.1710 O   0  0  0  0  0  0  0  0  0  0  0  0
   59.7300   31.4160   46.5580 C   0  0  0  0  0  0  0  0  0  0  0  0
   60.4840   30.7080   47.5140 C   0  0  0  0  0  0  0  0  0  0  0  0
   61.7110   31.2790   48.1250 C   0  0  0  0  0  0  0  0  0  0  0  0
   62.0230   31.0320   49.4750 C   0  0  0  0  0  0  0  0  0  0  0  0
   63.1840   31.5650   50.0420 C   0  0  0  0  0  0  0  0  0  0  0  0
   64.0470   32.3470   49.2690 C   0  0  0  0  0  0  0  0  0  0  0  0
   65.6330   33.0740   50.0460 Br  0  0  0  0  0  0  0  0  0  0  0  0
   63.7500   32.5920   47.9250 C   0  0  0  0  0  0  0  0  0  0  0  0
   62.5910   32.0610   47.3540 C   0  0  0  0  0  0  0  0  0  0  0  0
   60.0510   29.4260   47.8850 C   0  0  0  0  0  0  0  0  0  0  0  0
   58.9530   28.8970   47.3560 O   0  0  0  0  0  0  0  0  0  0  0  0
   58.2080   29.5360   46.4600 C   0  0  0  0  0  0  0  0  0  0  0  0
   57.0620   28.9190   45.9460 C   0  0  0  0  0  0  0  0  0  0  0  0
   56.2720   29.5790   45.0000 C   0  0  0  0  0  0  0  0  0  0  0  0
   55.1350   28.9630   44.4940 O   0  0  0  0  0  0  0  0  0  0  0  0
   56.6260   30.8590   44.5630 C   0  0  0  0  0  0  0  0  0  0  0  0
   57.7700   31.4850   45.0690 C   0  0  0  0  0  0  0  0  0  0  0  0
   58.5700   30.8300   46.0230 C   0  0  0  0  0  0  0  0  0  0  0  0
   61.3488   30.4155   50.0878 H   0  0  0  0  0  0  0  0  0  0  0  0
   63.4190   31.3687   51.0985 H   0  0  0  0  0  0  0  0  0  0  0  0
   64.4308   33.2045   47.3156 H   0  0  0  0  0  0  0  0  0  0  0  0
   62.3648   32.2553   46.2952 H   0  0  0  0  0  0  0  0  0  0  0  0
   60.6285   28.8511   48.6239 H   0  0  0  0  0  0  0  0  0  0  0  0
   56.7818   27.9115   46.2873 H   0  0  0  0  0  0  0  0  0  0  0  0
   56.0026   31.3757   43.8185 H   0  0  0  0  0  0  0  0  0  0  0  0
   58.0447   32.4915   44.7203 H   0  0  0  0  0  0  0  0  0  0  0  0
  1  2  2  0
  2  3  1  0
  3  4  1  0
  4  5  2  0
  5  6  1  0
  6  7  2  0
  7  8  1  0
  7  9  1  0
  9 10  2  0
  3 11  2  0
 11 12  1  0
 12 13  1  0
 13 14  2  0
 14 15  1  0
 15 16  1  0
 15 17  2  0
 17 18  1  0
 18 19  2  0
 19  2  1  0
 10  4  1  0
 19 13  1  0
  5 20  1  0
  6 21  1  0
  9 22  1  0
 10 23  1  0
 11 24  1  0
 14 25  1  0
 17 26  1  0
 18 27  1  0
M  CHG  1  16  -1
M  END
>  <UniqueID>  (68) 
61

>  <SMILES>  (68) 
O=c1c(-c2ccc(Br)cc2)coc2cc([O-])ccc12

>  <Energy>  (68) 
42.145179671284595

>  <Genealogy>  (68) 
O=c1c(-c2ccc(Br)cc2)coc2cc([O-])ccc12 (protonated)
O=c1c(-c2ccc(Br)cc2)coc2cc([O-])ccc12 (3D coordinates assigned)
O=c1c(-c2ccc(Br)cc2)coc2cc([O-])ccc12 (optimized conformer: 42.145179671284595 kcal/mol)

>  <smiles>  (68) 
O=c1c(-c2ccc(Br)cc2)coc2cc(O)ccc12

>  <score_type>  (68) 
oracle

>  <origin>  (68) 
adg

>  <m_score__min__energy>  (68) 
-9.1500000000000004

>  <m_primary>  (68) 
energy

$$$$
68:0
     RDKit          3D

 49 51  0  0  0  0  0  0  0  0999 V2000
   59.3552   26.5125   44.7761 H   0  0  0  0  0  0  0  0  0  0  0  0
   58.6280   27.3260   44.9150 C   0  0  0  0  0  0  0  0  0  0  0  0
   58.8210   28.9180   44.4040 S   0  0  0  0  0  0  0  0  0  0  0  0
   57.3250   29.3930   44.9920 C   0  0  0  0  0  0  0  0  0  0  0  0
   56.8770   30.6110   44.9180 N   0  0  0  0  0  0  0  0  0  0  0  0
   57.6160   31.8150   45.1890 C   0  0  0  0  0  0  0  0  0  0  0  0
   57.0270   33.0420   44.8760 C   0  0  0  0  0  0  0  0  0  0  0  0
   56.0287   33.0661   44.4146 H   0  0  0  0  0  0  0  0  0  0  0  0
   57.6950   34.2380   45.1440 C   0  0  0  0  0  0  0  0  0  0  0  0
   57.2225   35.1960   44.8813 H   0  0  0  0  0  0  0  0  0  0  0  0
   58.9630   34.2310   45.7450 C   0  0  0  0  0  0  0  0  0  0  0  0
   59.6470   35.5440   46.0210 C   0  0  0  0  0  0  0  0  0  0  0  0
   59.7257   35.6951   47.1077 H   0  0  0  0  0  0  0  0  0  0  0  0
   60.6540   35.5330   45.5784 H   0  0  0  0  0  0  0  0  0  0  0  0
   59.0609   36.3629   45.5784 H   0  0  0  0  0  0  0  0  0  0  0  0
   59.5520   32.9940   46.1040 C   0  0  0  0  0  0  0  0  0  0  0  0
   61.1400   32.9100   46.8900 S   0  0  0  0  0  0  0  0  0  0  0  0
   62.1810   33.5460   46.0110 O   0  0  0  0  0  0  0  0  0  0  0  0
   61.5040   31.4650   47.0870 O   0  0  0  0  0  0  0  0  0  0  0  0
   61.0850   33.7240   48.4380 N   0  0  0  0  0  0  0  0  0  0  0  0
   62.2090   33.4120   49.3430 C   0  0  0  0  0  0  0  0  0  0  0  0
   62.0536   32.4020   49.7500 H   0  0  0  0  0  0  0  0  0  0  0  0
   62.2130   34.1900   50.1206 H   0  0  0  0  0  0  0  0  0  0  0  0
   63.5840   33.4530   48.6750 C   0  0  0  0  0  0  0  0  0  0  0  0
   64.3665   33.4763   49.4477 H   0  0  0  0  0  0  0  0  0  0  0  0
   63.7140   32.5583   48.0484 H   0  0  0  0  0  0  0  0  0  0  0  0
   63.6605   34.3538   48.0484 H   0  0  0  0  0  0  0  0  0  0  0  0
   59.7490   33.8510   49.0600 C   0  0  0  0  0  0  0  0  0  0  0  0
   59.8615   34.4084   50.0016 H   0  0  0  0  0  0  0  0  0  0  0  0
   59.1127   34.3652   48.3247 H   0  0  0  0  0  0  0  0  0  0  0  0
   59.0560   32.5180   49.3740 C   0  0  0  0  0  0  0  0  0  0  0  0
   58.9883   32.3878   50.4642 H   0  0  0  0  0  0  0  0  0  0  0  0
   58.0446   32.5197   48.9414 H   0  0  0  0  0  0  0  0  0  0  0  0
   59.6384   31.6911   48.9414 H   0  0  0  0  0  0  0  0  0  0  0  0
   58.8670   31.7990   45.8290 C   0  0  0  0  0  0  0  0  0  0  0  0
   59.3159   30.8374   46.1186 H   0  0  0  0  0  0  0  0  0  0  0  0
   56.6730   28.3740   45.5930 N   0  0  0  0  0  0  0  0  0  0  0  0
   57.3840   27.2140   45.5470 C   0  0  0  0  0  0  0  0  0  0  0  0
   56.8490   25.9590   46.1380 C   0  0  0  0  0  0  0  0  0  0  0  0
   55.6970   25.3640   45.5880 C   0  0  0  0  0  0  0  0  0  0  0  0
   55.1935   25.8387   44.7329 H   0  0  0  0  0  0  0  0  0  0  0  0
   55.1880   24.1760   46.1190 C   0  0  0  0  0  0  0  0  0  0  0  0
   54.2857   23.7220   45.6834 H   0  0  0  0  0  0  0  0  0  0  0  0
   55.8230   23.5640   47.2020 C   0  0  0  0  0  0  0  0  0  0  0  0
   55.4226   22.6273   47.6170 H   0  0  0  0  0  0  0  0  0  0  0  0
   56.9650   24.1410   47.7570 C   0  0  0  0  0  0  0  0  0  0  0  0
   57.4624   23.6591   48.6116 H   0  0  0  0  0  0  0  0  0  0  0  0
   57.4800   25.3300   47.2310 C   0  0  0  0  0  0  0  0  0  0  0  0
   58.3828   25.7773   47.6725 H   0  0  0  0  0  0  0  0  0  0  0  0
  1  2  1  0
  2  3  1  0
  3  4  1  0
  4  5  2  0
  5  6  1  0
  6  7  2  0
  7  8  1  0
  7  9  1  0
  9 10  1  0
  9 11  2  0
 11 12  1  0
 12 13  1  0
 12 14  1  0
 12 15  1  0
 11 16  1  0
 16 17  1  0
 17 18  2  0
 17 19  2  0
 17 20  1  0
 20 21  1  0
 21 22  1  0
 21 23  1  0
 21 24  1  0
 24 25  1  0
 24 26  1  0
 24 27  1  0
 20 28  1  0
 28 29  1  0
 28 30  1  0
 28 31  1  0
 31 32  1  0
 31 33  1  0
 31 34  1  0
 16 35  2  0
 35 36  1  0
  4 37  1  0
 37 38  1  0
 38 39  1  0
 39 40  2  0
 40 41  1  0
 40 42  1  0
 42 43  1  0
 42 44  2  0
 44 45  1  0
 44 46  1  0
 46 47  1  0
 46 48  2  0
 48 49  1  0
 38  2  2  0
 48 39  1  0
 35  6  1  0
M  CHG  1  37  -1
M  END
>  <UniqueID>  (69) 
62

>  <SMILES>  (69) 
CCN(CC)S(=O)(=O)c1cc(/N=c2\[n-]c(-c3ccccc3)cs2)ccc1C

>  <Energy>  (69) 
93.30148614639172

>  <Genealogy>  (69) 
CCN(CC)S(=O)(=O)c1cc(N=c2[n-]c(-c3ccccc3)cs2)ccc1C (protonated)
CCN(CC)S(=O)(=O)c1cc(/N=c2\[n-]c(-c3ccccc3)cs2)ccc1C (cis-trans isomerization)
CCN(CC)S(=O)(=O)c1cc(/N=c2\[n-]c(-c3ccccc3)cs2)ccc1C (3D coordinates assigned)
CCN(CC)S(=O)(=O)c1cc(/N=c2\[n-]c(-c3ccccc3)cs2)ccc1C (optimized conformer: 93.30148614639172 kcal/mol)

>  <smiles>  (69) 
CCN(CC)S(=O)(=O)c1cc(N=c2[nH]c(-c3ccccc3)cs2)ccc1C

>  <score_type>  (69) 
oracle

>  <origin>  (69) 
adg

>  <m_score__min__energy>  (69) 
-10.26

>  <m_primary>  (69) 
energy

$$$$
69:0
     RDKit          3D

 27 29  0  0  0  0  0  0  0  0999 V2000
   57.7940   26.8680   42.8680 C   0  0  0  0  0  0  0  0  0  0  0  0
   57.4830   28.2670   43.2870 C   0  0  0  0  0  0  0  0  0  0  0  0
   58.2470   29.0590   44.1200 C   0  0  0  0  0  0  0  0  0  0  0  0
   57.5790   30.2700   44.1220 C   0  0  0  0  0  0  0  0  0  0  0  0
   57.9730   31.4770   44.8640 C   0  0  0  0  0  0  0  0  0  0  0  0
   57.8440   32.7460   44.2820 C   0  0  0  0  0  0  0  0  0  0  0  0
   58.2260   33.8720   45.0130 C   0  0  0  0  0  0  0  0  0  0  0  0
   58.1130   35.0180   44.4970 O   0  0  0  0  0  0  0  0  0  0  0  0
   58.7320   33.7110   46.3130 C   0  0  0  0  0  0  0  0  0  0  0  0
   59.1350   34.8010   47.1040 C   0  0  0  0  0  0  0  0  0  0  0  0
   59.6310   34.5850   48.3940 C   0  0  0  0  0  0  0  0  0  0  0  0
   59.7280   33.2850   48.9020 C   0  0  0  0  0  0  0  0  0  0  0  0
   59.3290   32.1960   48.1240 C   0  0  0  0  0  0  0  0  0  0  0  0
   58.8320   32.3990   46.8330 C   0  0  0  0  0  0  0  0  0  0  0  0
   58.4550   31.3560   46.0990 O   0  0  0  0  0  0  0  0  0  0  0  0
   56.5250   30.1780   43.3410 O   0  0  0  0  0  0  0  0  0  0  0  0
   56.4470   28.9890   42.8230 N   0  0  0  0  0  0  0  0  0  0  0  0
   57.9335   26.2404   43.7605 H   0  0  0  0  0  0  0  0  0  0  0  0
   56.9621   26.4716   42.2674 H   0  0  0  0  0  0  0  0  0  0  0  0
   58.7155   26.8614   42.2674 H   0  0  0  0  0  0  0  0  0  0  0  0
   59.1694   28.7905   44.6558 H   0  0  0  0  0  0  0  0  0  0  0  0
   57.4466   32.8529   43.2619 H   0  0  0  0  0  0  0  0  0  0  0  0
   59.0602   35.8246   46.7082 H   0  0  0  0  0  0  0  0  0  0  0  0
   59.9457   35.4397   49.0108 H   0  0  0  0  0  0  0  0  0  0  0  0
   60.1195   33.1203   49.9167 H   0  0  0  0  0  0  0  0  0  0  0  0
   59.4059   31.1758   48.5280 H   0  0  0  0  0  0  0  0  0  0  0  0
   55.7080   28.6720   42.1580 H   0  0  0  0  0  0  0  0  0  0  0  0
  1  2  1  0
  2  3  1  0
  3  4  2  0
  4  5  1  0
  5  6  2  0
  6  7  1  0
  7  8  2  0
  7  9  1  0
  9 10  2  0
 10 11  1  0
 11 12  2  0
 12 13  1  0
 13 14  2  0
 14 15  1  0
  4 16  1  0
 16 17  1  0
 17  2  2  0
 15  5  1  0
 14  9  1  0
  1 18  1  0
  1 19  1  0
  1 20  1  0
  3 21  1  0
  6 22  1  0
 10 23  1  0
 11 24  1  0
 12 25  1  0
 13 26  1  0
 17 27  1  0
M  CHG  1  17   1
M  END
>  <UniqueID>  (70) 
63

>  <SMILES>  (70) 
Cc1cc(-c2cc(=O)c3ccccc3o2)o[nH+]1

>  <Energy>  (70) 
63.561080248258634

>  <Genealogy>  (70) 
Cc1cc(-c2cc(=O)c3ccccc3o2)o[nH+]1 (protonated)
Cc1cc(-c2cc(=O)c3ccccc3o2)o[nH+]1 (3D coordinates assigned)
Cc1cc(-c2cc(=O)c3ccccc3o2)o[nH+]1 (optimized conformer: 63.561080248258634 kcal/mol)

>  <smiles>  (70) 
Cc1cc(-c2cc(=O)c3ccccc3o2)on1

>  <score_type>  (70) 
oracle

>  <origin>  (70) 
adg

>  <m_score__min__energy>  (70) 
-5.2400000000000002

>  <m_primary>  (70) 
energy

$$$$
70:0
     RDKit          3D

 50 54  0  0  0  0  0  0  0  0999 V2000
   63.6850   33.8820   50.3390 C   0  0  0  0  0  0  0  0  0  0  0  0
   63.0780   32.9070   49.3740 C   0  0  0  0  0  0  0  0  0  0  0  0
   62.3870   31.7810   49.8480 C   0  0  0  0  0  0  0  0  0  0  0  0
   61.7840   30.8960   48.9500 C   0  0  0  0  0  0  0  0  0  0  0  0
   61.8630   31.1200   47.5700 C   0  0  0  0  0  0  0  0  0  0  0  0
   61.1820   30.2200   46.6840 N   0  0  0  0  0  0  0  0  0  0  0  0
   60.2980   29.1670   47.0830 C   0  0  0  0  0  0  0  0  0  0  0  0
   60.7530   28.0370   47.4050 O   0  0  0  0  0  0  0  0  0  0  0  0
   58.8270   29.4350   47.1860 C   0  0  0  0  0  0  0  0  0  0  0  0
   58.2940   29.9560   45.9150 N   0  0  0  0  0  0  0  0  0  0  0  0
   57.8910   29.1920   44.8540 C   0  0  0  0  0  0  0  0  0  0  0  0
   57.6310   27.7380   44.9000 C   0  0  0  0  0  0  0  0  0  0  0  0
   56.9370   27.1700   45.9820 C   0  0  0  0  0  0  0  0  0  0  0  0
   56.6670   25.7980   46.0020 C   0  0  0  0  0  0  0  0  0  0  0  0
   57.0750   24.9880   44.9390 C   0  0  0  0  0  0  0  0  0  0  0  0
   57.7480   25.5490   43.8500 C   0  0  0  0  0  0  0  0  0  0  0  0
   58.0200   26.9210   43.8260 C   0  0  0  0  0  0  0  0  0  0  0  0
   57.7530   29.9100   43.7160 N   0  0  0  0  0  0  0  0  0  0  0  0
   58.0610   31.1620   44.0720 C   0  0  0  0  0  0  0  0  0  0  0  0
   58.1570   32.2690   43.2420 C   0  0  0  0  0  0  0  0  0  0  0  0
   58.5740   33.4470   43.7840 N   0  0  0  0  0  0  0  0  0  0  0  0
   58.8650   33.5720   45.1140 C   0  0  0  0  0  0  0  0  0  0  0  0
   59.2790   34.8140   45.6090 C   0  0  0  0  0  0  0  0  0  0  0  0
   59.5430   34.9760   46.9700 C   0  0  0  0  0  0  0  0  0  0  0  0
   59.3620   33.9080   47.8500 C   0  0  0  0  0  0  0  0  0  0  0  0
   59.6580   34.1320   49.5650 Cl  0  0  0  0  0  0  0  0  0  0  0  0
   58.9390   32.6630   47.3740 C   0  0  0  0  0  0  0  0  0  0  0  0
   58.7390   32.4560   45.9960 C   0  0  0  0  0  0  0  0  0  0  0  0
   58.3640   31.2210   45.4070 C   0  0  0  0  0  0  0  0  0  0  0  0
   62.5250   32.2670   47.0970 C   0  0  0  0  0  0  0  0  0  0  0  0
   63.1260   33.1540   47.9950 C   0  0  0  0  0  0  0  0  0  0  0  0
   63.4808   33.5540   51.3689 H   0  0  0  0  0  0  0  0  0  0  0  0
   64.7721   33.9288   50.1779 H   0  0  0  0  0  0  0  0  0  0  0  0
   63.2472   34.8782   50.1779 H   0  0  0  0  0  0  0  0  0  0  0  0
   62.3198   31.5945   50.9300 H   0  0  0  0  0  0  0  0  0  0  0  0
   61.2432   30.0168   49.3302 H   0  0  0  0  0  0  0  0  0  0  0  0
   58.3076   28.4983   47.4367 H   0  0  0  0  0  0  0  0  0  0  0  0
   58.6626   30.1891   47.9698 H   0  0  0  0  0  0  0  0  0  0  0  0
   56.6052   27.8064   46.8156 H   0  0  0  0  0  0  0  0  0  0  0  0
   56.1327   25.3558   46.8558 H   0  0  0  0  0  0  0  0  0  0  0  0
   56.8664   23.9082   44.9593 H   0  0  0  0  0  0  0  0  0  0  0  0
   58.0640   24.9113   43.0113 H   0  0  0  0  0  0  0  0  0  0  0  0
   58.5404   27.3615   42.9628 H   0  0  0  0  0  0  0  0  0  0  0  0
   57.4830   29.5640   42.7690 H   0  0  0  0  0  0  0  0  0  0  0  0
   57.9031   32.1975   42.1741 H   0  0  0  0  0  0  0  0  0  0  0  0
   59.3968   35.6657   44.9229 H   0  0  0  0  0  0  0  0  0  0  0  0
   59.8942   35.9469   47.3495 H   0  0  0  0  0  0  0  0  0  0  0  0
   58.7613   31.8396   48.0814 H   0  0  0  0  0  0  0  0  0  0  0  0
   62.5701   32.4670   46.0163 H   0  0  0  0  0  0  0  0  0  0  0  0
   63.6393   34.0506   47.6174 H   0  0  0  0  0  0  0  0  0  0  0  0
  1  2  1  0
  2  3  2  0
  3  4  1  0
  4  5  2  0
  5  6  1  0
  6  7  1  0
  7  8  2  0
  7  9  1  0
  9 10  1  0
 10 11  1  0
 11 12  1  0
 12 13  2  0
 13 14  1  0
 14 15  2  0
 15 16  1  0
 16 17  2  0
 11 18  2  0
 18 19  1  0
 19 20  2  0
 20 21  1  0
 21 22  2  0
 22 23  1  0
 23 24  2  0
 24 25  1  0
 25 26  1  0
 25 27  2  0
 27 28  1  0
 28 29  2  0
  5 30  1  0
 30 31  2  0
 31  2  1  0
 29 10  1  0
 17 12  1  0
 29 19  1  0
 28 22  1  0
  1 32  1  0
  1 33  1  0
  1 34  1  0
  3 35  1  0
  4 36  1  0
  9 37  1  0
  9 38  1  0
 13 39  1  0
 14 40  1  0
 15 41  1  0
 16 42  1  0
 17 43  1  0
 18 44  1  0
 20 45  1  0
 23 46  1  0
 24 47  1  0
 27 48  1  0
 30 49  1  0
 31 50  1  0
M  CHG  2   6  -1  18   1
M  END
>  <UniqueID>  (71) 
64

>  <SMILES>  (71) 
Cc1ccc([N-]C(=O)Cn2c(-c3ccccc3)[nH+]c3cnc4ccc(Cl)cc4c32)cc1

>  <Energy>  (71) 
111.0172163372487

>  <Genealogy>  (71) 
Cc1ccc([N-]C(=O)Cn2c(-c3ccccc3)[nH+]c3cnc4ccc(Cl)cc4c32)cc1 (protonated)
Cc1ccc([N-]C(=O)Cn2c(-c3ccccc3)[nH+]c3cnc4ccc(Cl)cc4c32)cc1 (3D coordinates assigned)
Cc1ccc([N-]C(=O)Cn2c(-c3ccccc3)[nH+]c3cnc4ccc(Cl)cc4c32)cc1 (optimized conformer: 111.0172163372487 kcal/mol)

>  <smiles>  (71) 
Cc1ccc(NC(=O)Cn2c(-c3ccccc3)nc3cnc4ccc(Cl)cc4c32)cc1

>  <score_type>  (71) 
oracle

>  <origin>  (71) 
adg

>  <m_score__min__energy>  (71) 
-8.4900000000000002

>  <m_primary>  (71) 
energy

$$$$
71:0
     RDKit          3D

 32 34  0  0  0  0  0  0  0  0999 V2000
   59.5094   35.8262   46.5720 H   0  0  0  0  0  0  0  0  0  0  0  0
   59.1280   34.8460   46.2500 C   0  0  0  0  0  0  0  0  0  0  0  0
   58.8470   33.8600   47.2000 C   0  0  0  0  0  0  0  0  0  0  0  0
   59.0027   34.0671   48.2691 H   0  0  0  0  0  0  0  0  0  0  0  0
   58.3680   32.6100   46.7930 C   0  0  0  0  0  0  0  0  0  0  0  0
   58.1541   31.8332   47.5418 H   0  0  0  0  0  0  0  0  0  0  0  0
   58.1600   32.3460   45.4290 C   0  0  0  0  0  0  0  0  0  0  0  0
   58.4330   33.3450   44.4790 C   0  0  0  0  0  0  0  0  0  0  0  0
   58.9250   34.5880   44.8910 C   0  0  0  0  0  0  0  0  0  0  0  0
   59.1525   35.3635   44.1447 H   0  0  0  0  0  0  0  0  0  0  0  0
   58.2380   33.0910   43.1170 O   0  0  0  0  0  0  0  0  0  0  0  0
   57.4330   32.0110   42.6340 C   0  0  0  0  0  0  0  0  0  0  0  0
   57.8369   31.6723   41.6685 H   0  0  0  0  0  0  0  0  0  0  0  0
   56.4016   32.3788   42.5293 H   0  0  0  0  0  0  0  0  0  0  0  0
   57.4140   30.8440   43.5890 C   0  0  0  0  0  0  0  0  0  0  0  0
   57.7050   31.0260   44.9480 C   0  0  0  0  0  0  0  0  0  0  0  0
   57.5960   29.9740   45.8030 N   0  0  0  0  0  0  0  0  0  0  0  0
   57.1940   28.7470   45.3780 C   0  0  0  0  0  0  0  0  0  0  0  0
   57.1190   27.7820   46.2510 N   0  0  0  0  0  0  0  0  0  0  0  0
   56.4130   26.5420   46.1170 C   0  0  0  0  0  0  0  0  0  0  0  0
   55.1590   26.5670   45.9930 O   0  0  0  0  0  0  0  0  0  0  0  0
   57.1490   25.2430   45.9140 C   0  0  0  0  0  0  0  0  0  0  0  0
   56.5544   24.4253   46.3475 H   0  0  0  0  0  0  0  0  0  0  0  0
   58.1286   25.3242   46.4077 H   0  0  0  0  0  0  0  0  0  0  0  0
   57.3860   24.9510   44.4340 C   0  0  0  0  0  0  0  0  0  0  0  0
   58.0764   24.1005   44.3340 H   0  0  0  0  0  0  0  0  0  0  0  0
   56.4288   24.7051   43.9509 H   0  0  0  0  0  0  0  0  0  0  0  0
   57.8235   25.8371   43.9509 H   0  0  0  0  0  0  0  0  0  0  0  0
   56.9170   28.5530   44.0530 N   0  0  0  0  0  0  0  0  0  0  0  0
   56.6610   27.6130   43.6810 H   0  0  0  0  0  0  0  0  0  0  0  0
   57.0070   29.5780   43.1640 C   0  0  0  0  0  0  0  0  0  0  0  0
   56.7582   29.4090   42.1059 H   0  0  0  0  0  0  0  0  0  0  0  0
  1  2  1  0
  2  3  2  0
  3  4  1  0
  3  5  1  0
  5  6  1  0
  5  7  2  0
  7  8  1  0
  8  9  2  0
  9 10  1  0
  8 11  1  0
 11 12  1  0
 12 13  1  0
 12 14  1  0
 12 15  1  0
 15 16  1  0
 16 17  2  0
 17 18  1  0
 18 19  2  0
 19 20  1  0
 20 21  2  0
 20 22  1  0
 22 23  1  0
 22 24  1  0
 22 25  1  0
 25 26  1  0
 25 27  1  0
 25 28  1  0
 18 29  1  0
 29 30  1  0
 29 31  1  0
 31 32  1  0
  9  2  1  0
 31 15  2  0
 16  7  1  0
M  END
>  <UniqueID>  (72) 
65

>  <SMILES>  (72) 
CCC(=O)/N=c1/nc2c(c[nH]1)COc1ccccc1-2

>  <Energy>  (72) 
44.886611789929354

>  <Genealogy>  (72) 
CCC(=O)/N=c1/nc2c(c[nH]1)COc1ccccc1-2 (cis-trans isomerization)
CCC(=O)/N=c1/nc2c(c[nH]1)COc1ccccc1-2 (3D coordinates assigned)
CCC(=O)/N=c1/nc2c(c[nH]1)COc1ccccc1-2 (nonaromatic ring conformer: 44.886611789929354 kcal/mol)

>  <smiles>  (72) 
CCC(=O)N=c1nc2c(c[nH]1)COc1ccccc1-2

>  <score_type>  (72) 
oracle

>  <origin>  (72) 
adg

>  <m_score__min__energy>  (72) 
-7.6100000000000003

>  <m_primary>  (72) 
energy

$$$$
72:0
     RDKit          3D

 27 29  0  0  0  0  0  0  0  0999 V2000
   54.7810   29.5990   43.6000 O   0  0  0  0  0  0  0  0  0  0  0  0
   55.7750   29.7860   44.3480 C   0  0  0  0  0  0  0  0  0  0  0  0
   56.3630   31.1710   44.4920 C   0  0  0  0  0  0  0  0  0  0  0  0
   57.8840   31.1310   44.7960 C   0  0  1  0  0  0  0  0  0  0  0  0
   58.3520   32.4750   45.3110 C   0  0  0  0  0  0  0  0  0  0  0  0
   58.3750   32.7360   46.6920 C   0  0  0  0  0  0  0  0  0  0  0  0
   58.8250   33.9700   47.1710 C   0  0  0  0  0  0  0  0  0  0  0  0
   59.2630   34.9510   46.2780 C   0  0  0  0  0  0  0  0  0  0  0  0
   59.2560   34.6990   44.9040 C   0  0  0  0  0  0  0  0  0  0  0  0
   58.8080   33.4660   44.4210 C   0  0  0  0  0  0  0  0  0  0  0  0
   58.1970   30.0580   45.7490 N   0  0  0  0  0  0  0  0  0  0  0  0
   59.3240   29.9110   46.4270 N   0  0  0  0  0  0  0  0  0  0  0  0
   59.3170   28.6940   47.0120 C   0  0  0  0  0  0  0  0  0  0  0  0
   58.1500   28.0260   46.6670 C   0  0  0  0  0  0  0  0  0  0  0  0
   57.4870   28.9270   45.8630 C   0  0  0  0  0  0  0  0  0  0  0  0
   56.2910   28.7030   45.1260 N   0  0  0  0  0  0  0  0  0  0  0  0
   56.2032   31.7234   43.5543 H   0  0  0  0  0  0  0  0  0  0  0  0
   55.8617   31.6655   45.3371 H   0  0  0  0  0  0  0  0  0  0  0  0
   58.4233   30.9151   43.8619 H   0  0  0  0  0  0  0  0  0  0  0  0
   58.0370   31.9649   47.3999 H   0  0  0  0  0  0  0  0  0  0  0  0
   58.8342   34.1688   48.2529 H   0  0  0  0  0  0  0  0  0  0  0  0
   59.6136   35.9223   46.6570 H   0  0  0  0  0  0  0  0  0  0  0  0
   59.6032   35.4712   44.2017 H   0  0  0  0  0  0  0  0  0  0  0  0
   58.8118   33.2689   43.3388 H   0  0  0  0  0  0  0  0  0  0  0  0
   60.1020   30.6060   46.4600 H   0  0  0  0  0  0  0  0  0  0  0  0
   60.1111   28.2947   47.6600 H   0  0  0  0  0  0  0  0  0  0  0  0
   57.8304   27.0165   46.9650 H   0  0  0  0  0  0  0  0  0  0  0  0
  1  2  2  0
  2  3  1  0
  3  4  1  0
  4  5  1  0
  5  6  2  0
  6  7  1  0
  7  8  2  0
  8  9  1  0
  9 10  2  0
  4 11  1  0
 11 12  1  0
 12 13  2  0
 13 14  1  0
 14 15  2  0
 15 16  1  0
 16  2  1  0
 10  5  1  0
 15 11  1  0
  3 17  1  0
  3 18  1  0
  4 19  1  6
  6 20  1  0
  7 21  1  0
  8 22  1  0
  9 23  1  0
 10 24  1  0
 12 25  1  0
 13 26  1  0
 14 27  1  0
M  CHG  2  12   1  16  -1
M  END
>  <UniqueID>  (73) 
66

>  <SMILES>  (73) 
O=C1C[C@@H](c2ccccc2)n2[nH+]ccc2[N-]1

>  <Energy>  (73) 
62.80043419993779

>  <Genealogy>  (73) 
O=C1CC(c2ccccc2)n2[nH+]ccc2[N-]1 (protonated)
O=C1C[C@@H](c2ccccc2)n2[nH+]ccc2[N-]1 (chirality)
O=C1C[C@@H](c2ccccc2)n2[nH+]ccc2[N-]1 (3D coordinates assigned)
O=C1C[C@@H](c2ccccc2)n2[nH+]ccc2[N-]1 (nonaromatic ring conformer: 62.80043419993779 kcal/mol)

>  <smiles>  (73) 
O=C1CC(c2ccccc2)n2nccc2N1

>  <score_type>  (73) 
oracle

>  <origin>  (73) 
adg

>  <m_score__min__energy>  (73) 
-6.3600000000000003

>  <m_primary>  (73) 
energy

$$$$
73:0
     RDKit          3D

 52 55  0  0  0  0  0  0  0  0999 V2000
   64.7070   34.2530   52.1820 C   0  0  0  0  0  0  0  0  0  0  0  0
   65.3010   33.9980   50.8760 N   0  0  0  0  0  0  0  0  0  0  0  0
   64.8540   32.9970   49.9530 C   0  0  0  0  0  0  0  0  0  0  0  0
   65.5970   32.0060   49.7280 O   0  0  0  0  0  0  0  0  0  0  0  0
   63.5710   33.1090   49.2290 C   0  0  0  0  0  0  0  0  0  0  0  0
   63.3210   32.2990   48.1150 C   0  0  0  0  0  0  0  0  0  0  0  0
   62.1050   32.3940   47.4390 C   0  0  0  0  0  0  0  0  0  0  0  0
   61.1300   33.2940   47.8930 C   0  0  0  0  0  0  0  0  0  0  0  0
   59.8760   33.4130   47.1990 N   0  0  0  0  0  0  0  0  0  0  0  0
   59.8490   33.9870   45.8460 C   0  0  0  0  0  0  0  0  0  0  0  0
   58.8600   33.2420   44.9250 C   0  0  0  0  0  0  0  0  0  0  0  0
   57.8210   32.3840   45.6900 C   0  0  0  0  0  0  0  0  0  0  0  0
   57.4140   33.0790   47.0010 C   0  0  0  0  0  0  0  0  0  0  0  0
   58.6200   33.2360   47.9440 C   0  0  0  0  0  0  0  0  0  0  0  0
   58.3080   30.9260   45.9160 C   0  0  0  0  0  0  0  0  0  0  0  0
   57.3550   30.1430   45.0710 C   0  0  0  0  0  0  0  0  0  0  0  0
   57.3860   28.6720   44.8880 C   0  0  0  0  0  0  0  0  0  0  0  0
   58.1590   28.0930   43.8650 C   0  0  0  0  0  0  0  0  0  0  0  0
   58.1850   26.7080   43.6960 C   0  0  0  0  0  0  0  0  0  0  0  0
   57.4430   25.8810   44.5420 C   0  0  0  0  0  0  0  0  0  0  0  0
   56.6640   26.4400   45.5720 C   0  0  0  0  0  0  0  0  0  0  0  0
   55.9040   25.6540   46.4490 O   0  0  0  0  0  0  0  0  0  0  0  0
   56.3270   24.4030   46.9830 C   0  0  0  0  0  0  0  0  0  0  0  0
   56.6420   27.8300   45.7370 C   0  0  0  0  0  0  0  0  0  0  0  0
   56.4630   30.8950   44.5240 N   0  0  0  0  0  0  0  0  0  0  0  0
   56.6750   32.2030   44.8690 O   0  0  0  0  0  0  0  0  0  0  0  0
   61.3840   34.0620   48.9930 N   0  0  0  0  0  0  0  0  0  0  0  0
   62.5650   33.9820   49.6650 C   0  0  0  0  0  0  0  0  0  0  0  0
   65.4116   33.9505   52.9707 H   0  0  0  0  0  0  0  0  0  0  0  0
   64.4848   35.3258   52.2806 H   0  0  0  0  0  0  0  0  0  0  0  0
   63.7762   33.6752   52.2806 H   0  0  0  0  0  0  0  0  0  0  0  0
   64.0853   31.5861   47.7721 H   0  0  0  0  0  0  0  0  0  0  0  0
   61.9119   31.7674   46.5558 H   0  0  0  0  0  0  0  0  0  0  0  0
   59.5463   35.0424   45.9133 H   0  0  0  0  0  0  0  0  0  0  0  0
   60.8561   33.8903   45.4143 H   0  0  0  0  0  0  0  0  0  0  0  0
   58.3192   33.9863   44.3221 H   0  0  0  0  0  0  0  0  0  0  0  0
   59.4538   32.5522   44.3072 H   0  0  0  0  0  0  0  0  0  0  0  0
   57.0080   34.0746   46.7685 H   0  0  0  0  0  0  0  0  0  0  0  0
   56.6566   32.4596   47.5036 H   0  0  0  0  0  0  0  0  0  0  0  0
   58.4590   34.1155   48.5847 H   0  0  0  0  0  0  0  0  0  0  0  0
   58.7054   32.3191   48.5457 H   0  0  0  0  0  0  0  0  0  0  0  0
   59.3454   30.7941   45.5747 H   0  0  0  0  0  0  0  0  0  0  0  0
   58.3161   30.6208   46.9728 H   0  0  0  0  0  0  0  0  0  0  0  0
   58.7469   28.7364   43.1938 H   0  0  0  0  0  0  0  0  0  0  0  0
   58.7927   26.2657   42.8928 H   0  0  0  0  0  0  0  0  0  0  0  0
   57.4675   24.7901   44.4029 H   0  0  0  0  0  0  0  0  0  0  0  0
   56.3113   24.4493   48.0819 H   0  0  0  0  0  0  0  0  0  0  0  0
   55.6473   23.6091   46.6397 H   0  0  0  0  0  0  0  0  0  0  0  0
   57.3490   24.1845   46.6397 H   0  0  0  0  0  0  0  0  0  0  0  0
   56.0348   28.2709   46.5414 H   0  0  0  0  0  0  0  0  0  0  0  0
   60.6520   34.7160   49.3500 H   0  0  0  0  0  0  0  0  0  0  0  0
   62.7308   34.6062   50.5555 H   0  0  0  0  0  0  0  0  0  0  0  0
  1  2  1  0
  2  3  1  0
  3  4  2  0
  3  5  1  0
  5  6  2  0
  6  7  1  0
  7  8  2  0
  8  9  1  0
  9 10  1  0
 10 11  1  0
 11 12  1  0
 12 13  1  0
 13 14  1  0
 12 15  1  0
 15 16  1  0
 16 17  1  0
 17 18  2  0
 18 19  1  0
 19 20  2  0
 20 21  1  0
 21 22  1  0
 22 23  1  0
 21 24  2  0
 16 25  2  0
 25 26  1  0
  8 27  1  0
 27 28  2  0
 28  5  1  0
 14  9  1  0
 24 17  1  0
 26 12  1  0
  1 29  1  0
  1 30  1  0
  1 31  1  0
  6 32  1  0
  7 33  1  0
 10 34  1  0
 10 35  1  0
 11 36  1  0
 11 37  1  0
 13 38  1  0
 13 39  1  0
 14 40  1  0
 14 41  1  0
 15 42  1  0
 15 43  1  0
 18 44  1  0
 19 45  1  0
 20 46  1  0
 23 47  1  0
 23 48  1  0
 23 49  1  0
 24 50  1  0
 27 51  1  0
 28 52  1  0
M  CHG  2   2  -1  27   1
M  END
>  <UniqueID>  (74) 
67

>  <SMILES>  (74) 
C[N-]C(=O)c1ccc(N2CCC3(CC2)CC(c2cccc(OC)c2)=NO3)[nH+]c1

>  <Energy>  (74) 
79.70199240803149

>  <Genealogy>  (74) 
C[N-]C(=O)c1ccc(N2CCC3(CC2)CC(c2cccc(OC)c2)=NO3)[nH+]c1 (protonated)
C[N-]C(=O)c1ccc(N2CCC3(CC2)CC(c2cccc(OC)c2)=NO3)[nH+]c1 (3D coordinates assigned)
C[N-]C(=O)c1ccc(N2CCC3(CC2)CC(c2cccc(OC)c2)=NO3)[nH+]c1 (nonaromatic ring conformer: 79.70199240803149 kcal/mol)

>  <smiles>  (74) 
CNC(=O)c1ccc(N2CCC3(CC2)CC(c2cccc(OC)c2)=NO3)nc1

>  <score_type>  (74) 
oracle

>  <origin>  (74) 
adg

>  <m_score__min__energy>  (74) 
-8.4499999999999993

>  <m_primary>  (74) 
energy

$$$$
74:0
     RDKit          3D

 25 24  0  0  0  0  0  0  0  0999 V2000
   55.3800   29.0610   44.8890 N   0  0  0  0  0  0  0  0  0  0  0  0
   56.1410   29.8490   43.9770 C   0  0  0  0  0  0  0  0  0  0  0  0
   55.8670   29.8220   42.7480 O   0  0  0  0  0  0  0  0  0  0  0  0
   57.2780   30.7030   44.4770 C   0  0  2  0  0  0  0  0  0  0  0  0
   58.3060   30.7890   43.4400 N   0  0  0  0  0  0  0  0  0  0  0  0
   57.8870   30.1120   45.7670 C   0  0  0  0  0  0  0  0  0  0  0  0
   58.0250   28.5780   45.7450 C   0  0  0  0  0  0  0  0  0  0  0  0
   59.1110   28.0740   44.7650 C   0  0  0  0  0  0  0  0  0  0  0  0
   58.5530   27.1700   43.6520 C   0  0  0  0  0  0  0  0  0  0  0  0
   57.4830   27.8280   42.9010 N   0  0  0  0  0  0  0  0  0  0  0  0
   54.4110   29.3410   45.1600 H   0  0  0  0  0  0  0  0  0  0  0  0
   56.8916   31.7066   44.7083 H   0  0  0  0  0  0  0  0  0  0  0  0
   58.3590   31.7810   43.1090 H   0  0  0  0  0  0  0  0  0  0  0  0
   57.9890   30.2300   42.6140 H   0  0  0  0  0  0  0  0  0  0  0  0
   58.8869   30.5479   45.9094 H   0  0  0  0  0  0  0  0  0  0  0  0
   57.1982   30.3593   46.5882 H   0  0  0  0  0  0  0  0  0  0  0  0
   58.2836   28.2364   46.7581 H   0  0  0  0  0  0  0  0  0  0  0  0
   57.0628   28.1697   45.4022 H   0  0  0  0  0  0  0  0  0  0  0  0
   59.5922   28.9461   44.2983 H   0  0  0  0  0  0  0  0  0  0  0  0
   59.8226   27.4714   45.3485 H   0  0  0  0  0  0  0  0  0  0  0  0
   59.3683   26.9139   42.9594 H   0  0  0  0  0  0  0  0  0  0  0  0
   58.1349   26.2678   44.1224 H   0  0  0  0  0  0  0  0  0  0  0  0
   57.2150   27.2490   42.0730 H   0  0  0  0  0  0  0  0  0  0  0  0
   56.6480   27.9330   43.5210 H   0  0  0  0  0  0  0  0  0  0  0  0
   57.7830   28.7780   42.5850 H   0  0  0  0  0  0  0  0  0  0  0  0
  1  2  1  0
  2  3  2  0
  2  4  1  0
  4  5  1  0
  4  6  1  0
  6  7  1  0
  7  8  1  0
  8  9  1  0
  9 10  1  0
  1 11  1  0
  4 12  1  1
  5 13  1  0
  5 14  1  0
  6 15  1  0
  6 16  1  0
  7 17  1  0
  7 18  1  0
  8 19  1  0
  8 20  1  0
  9 21  1  0
  9 22  1  0
 10 23  1  0
 10 24  1  0
 10 25  1  0
M  CHG  2   1  -1  10   1
M  END
>  <UniqueID>  (75) 
68

>  <SMILES>  (75) 
[NH-]C(=O)[C@H](N)CCCC[NH3+]

>  <Energy>  (75) 
14.739297795611321

>  <Genealogy>  (75) 
[NH-]C(=O)C(N)CCCC[NH3+] (protonated)
[NH-]C(=O)[C@H](N)CCCC[NH3+] (chirality)
[NH-]C(=O)[C@H](N)CCCC[NH3+] (3D coordinates assigned)
[NH-]C(=O)[C@H](N)CCCC[NH3+] (optimized conformer: 14.739297795611321 kcal/mol)

>  <smiles>  (75) 
NCCCCC(N)C(N)=O

>  <score_type>  (75) 
oracle

>  <origin>  (75) 
adg

>  <m_score__min__energy>  (75) 
-5.8200000000000003

>  <m_primary>  (75) 
energy

$$$$
75:0
     RDKit          3D

 49 52  0  0  0  0  0  0  0  0999 V2000
   66.7860   33.0100   50.5740 C   0  0  0  0  0  0  0  0  0  0  0  0
   65.4690   33.4410   50.8990 O   0  0  0  0  0  0  0  0  0  0  0  0
   64.3650   33.3530   50.0350 C   0  0  0  0  0  0  0  0  0  0  0  0
   64.5170   33.0740   48.6630 C   0  0  0  0  0  0  0  0  0  0  0  0
   63.4000   32.9740   47.8300 C   0  0  0  0  0  0  0  0  0  0  0  0
   62.1060   33.1440   48.3490 C   0  0  0  0  0  0  0  0  0  0  0  0
   60.9050   33.0160   47.4910 C   0  0  0  0  0  0  0  0  0  0  0  0
   60.2430   31.8530   47.2490 N   0  0  0  0  0  0  0  0  0  0  0  0
   59.2390   32.2280   46.4430 C   0  0  0  0  0  0  0  0  0  0  0  0
   58.2380   31.4420   45.8790 C   0  0  0  0  0  0  0  0  0  0  0  0
   57.2660   32.0880   45.0850 C   0  0  0  0  0  0  0  0  0  0  0  0
   56.2030   31.3440   44.4810 N   0  0  0  0  0  0  0  0  0  0  0  0
   56.1420   29.9150   44.3890 C   0  0  0  0  0  0  0  0  0  0  0  0
   55.1820   29.3130   44.9360 O   0  0  0  0  0  0  0  0  0  0  0  0
   57.2460   29.1120   43.7480 C   0  0  0  0  0  0  0  0  0  0  0  0
   58.2050   28.5400   44.7640 C   0  0  0  0  0  0  0  0  0  0  0  0
   57.7250   27.8700   45.9030 C   0  0  0  0  0  0  0  0  0  0  0  0
   58.6180   27.3370   46.8380 C   0  0  0  0  0  0  0  0  0  0  0  0
   59.9950   27.4820   46.6530 C   0  0  0  0  0  0  0  0  0  0  0  0
   60.4820   28.1700   45.5380 C   0  0  0  0  0  0  0  0  0  0  0  0
   59.5930   28.7060   44.6020 C   0  0  0  0  0  0  0  0  0  0  0  0
   57.3710   33.4780   44.8310 C   0  0  0  0  0  0  0  0  0  0  0  0
   58.4060   34.2370   45.4110 C   0  0  0  0  0  0  0  0  0  0  0  0
   59.3180   33.5670   46.2200 C   0  0  0  0  0  0  0  0  0  0  0  0
   60.3490   34.0470   46.8680 O   0  0  0  0  0  0  0  0  0  0  0  0
   61.9530   33.4220   49.7170 C   0  0  0  0  0  0  0  0  0  0  0  0
   63.0720   33.5440   50.5570 C   0  0  0  0  0  0  0  0  0  0  0  0
   62.8730   33.8180   52.0270 C   0  0  0  0  0  0  0  0  0  0  0  0
   63.6440   32.9360   52.7930 O   0  0  0  0  0  0  0  0  0  0  0  0
   67.3503   32.8253   51.5000 H   0  0  0  0  0  0  0  0  0  0  0  0
   66.7334   32.0822   49.9854 H   0  0  0  0  0  0  0  0  0  0  0  0
   67.2921   33.7894   49.9854 H   0  0  0  0  0  0  0  0  0  0  0  0
   65.5242   32.9336   48.2436 H   0  0  0  0  0  0  0  0  0  0  0  0
   63.5349   32.7605   46.7594 H   0  0  0  0  0  0  0  0  0  0  0  0
   60.4480   30.8890   47.5920 H   0  0  0  0  0  0  0  0  0  0  0  0
   58.2056   30.3553   46.0463 H   0  0  0  0  0  0  0  0  0  0  0  0
   56.7968   28.2836   43.1805 H   0  0  0  0  0  0  0  0  0  0  0  0
   57.8151   29.7873   43.0922 H   0  0  0  0  0  0  0  0  0  0  0  0
   56.6413   27.7645   46.0595 H   0  0  0  0  0  0  0  0  0  0  0  0
   58.2356   26.8029   47.7203 H   0  0  0  0  0  0  0  0  0  0  0  0
   60.6962   27.0547   47.3849 H   0  0  0  0  0  0  0  0  0  0  0  0
   61.5663   28.2898   45.3969 H   0  0  0  0  0  0  0  0  0  0  0  0
   59.9803   29.2604   43.7344 H   0  0  0  0  0  0  0  0  0  0  0  0
   56.6373   33.9689   44.1747 H   0  0  0  0  0  0  0  0  0  0  0  0
   58.4900   35.3189   45.2310 H   0  0  0  0  0  0  0  0  0  0  0  0
   60.9436   33.5458   50.1362 H   0  0  0  0  0  0  0  0  0  0  0  0
   63.1768   34.8518   52.2481 H   0  0  0  0  0  0  0  0  0  0  0  0
   61.8113   33.6762   52.2775 H   0  0  0  0  0  0  0  0  0  0  0  0
   64.5580   32.9470   52.4020 H   0  0  0  0  0  0  0  0  0  0  0  0
  1  2  1  0
  2  3  1  0
  3  4  2  0
  4  5  1  0
  5  6  2  0
  6  7  1  0
  7  8  2  0
  8  9  1  0
  9 10  2  0
 10 11  1  0
 11 12  1  0
 12 13  1  0
 13 14  2  0
 13 15  1  0
 15 16  1  0
 16 17  2  0
 17 18  1  0
 18 19  2  0
 19 20  1  0
 20 21  2  0
 11 22  2  0
 22 23  1  0
 23 24  2  0
 24 25  1  0
  6 26  1  0
 26 27  2  0
 27 28  1  0
 28 29  1  0
 27  3  1  0
 25  7  1  0
 24  9  1  0
 21 16  1  0
  1 30  1  0
  1 31  1  0
  1 32  1  0
  4 33  1  0
  5 34  1  0
  8 35  1  0
 10 36  1  0
 15 37  1  0
 15 38  1  0
 17 39  1  0
 18 40  1  0
 19 41  1  0
 20 42  1  0
 21 43  1  0
 22 44  1  0
 23 45  1  0
 26 46  1  0
 28 47  1  0
 28 48  1  0
 29 49  1  0
M  CHG  2   8   1  12  -1
M  END
>  <UniqueID>  (76) 
69

>  <SMILES>  (76) 
COc1ccc(-c2[nH+]c3cc([N-]C(=O)Cc4ccccc4)ccc3o2)cc1CO

>  <Energy>  (76) 
97.01926931986007

>  <Genealogy>  (76) 
COc1ccc(-c2[nH+]c3cc([N-]C(=O)Cc4ccccc4)ccc3o2)cc1CO (protonated)
COc1ccc(-c2[nH+]c3cc([N-]C(=O)Cc4ccccc4)ccc3o2)cc1CO (3D coordinates assigned)
COc1ccc(-c2[nH+]c3cc([N-]C(=O)Cc4ccccc4)ccc3o2)cc1CO (optimized conformer: 97.01926931986007 kcal/mol)

>  <smiles>  (76) 
COc1ccc(-c2nc3cc(NC(=O)Cc4ccccc4)ccc3o2)cc1CO

>  <score_type>  (76) 
oracle

>  <origin>  (76) 
adg

>  <m_score__min__energy>  (76) 
-8.3100000000000005

>  <m_primary>  (76) 
energy

$$$$
76:0
     RDKit          3D

 44 46  0  0  0  0  0  0  0  0999 V2000
   56.6410   23.4220   43.3270 C   0  0  0  0  0  0  0  0  0  0  0  0
   56.2280   23.9210   44.7070 C   0  0  0  0  0  0  0  0  0  0  0  0
   57.2340   24.7680   45.2620 O   0  0  0  0  0  0  0  0  0  0  0  0
   57.3870   26.1380   44.9960 C   0  0  0  0  0  0  0  0  0  0  0  0
   56.7020   27.0480   45.8100 C   0  0  0  0  0  0  0  0  0  0  0  0
   56.8190   28.4240   45.5950 C   0  0  0  0  0  0  0  0  0  0  0  0
   57.6390   28.9150   44.5660 C   0  0  0  0  0  0  0  0  0  0  0  0
   57.7540   30.3700   44.3250 C   0  0  0  0  0  0  0  0  0  0  0  0
   57.8750   30.7900   43.1410 O   0  0  0  0  0  0  0  0  0  0  0  0
   57.7450   31.3130   45.4120 N   0  0  0  0  0  0  0  0  0  0  0  0
   58.5840   31.0630   46.5970 C   0  0  0  0  0  0  0  0  0  0  0  0
   58.7080   32.3150   47.4720 C   0  0  0  0  0  0  0  0  0  0  0  0
   58.9430   33.4930   46.6270 N   0  0  0  0  0  0  0  0  0  0  0  0
   59.9020   34.4900   47.0120 C   0  0  0  0  0  0  0  0  0  0  0  0
   59.5520   35.7000   47.0650 O   0  0  0  0  0  0  0  0  0  0  0  0
   61.3010   34.1310   47.3090 C   0  0  0  0  0  0  0  0  0  0  0  0
   62.2780   33.8290   46.3670 C   0  0  0  0  0  0  0  0  0  0  0  0
   63.5060   33.4700   46.9370 C   0  0  0  0  0  0  0  0  0  0  0  0
   63.5000   33.4780   48.3250 C   0  0  0  0  0  0  0  0  0  0  0  0
   61.9660   33.9270   48.8420 S   0  0  0  0  0  0  0  0  0  0  0  0
   58.0790   33.7480   45.4650 C   0  0  0  0  0  0  0  0  0  0  0  0
   57.0750   32.6110   45.2530 C   0  0  0  0  0  0  0  0  0  0  0  0
   58.3160   28.0050   43.7400 C   0  0  0  0  0  0  0  0  0  0  0  0
   58.1990   26.6290   43.9550 C   0  0  0  0  0  0  0  0  0  0  0  0
   57.3389   22.5787   43.4357 H   0  0  0  0  0  0  0  0  0  0  0  0
   55.7491   23.0909   42.7747 H   0  0  0  0  0  0  0  0  0  0  0  0
   57.1329   24.2363   42.7747 H   0  0  0  0  0  0  0  0  0  0  0  0
   55.2885   24.4864   44.6197 H   0  0  0  0  0  0  0  0  0  0  0  0
   56.0928   23.0534   45.3696 H   0  0  0  0  0  0  0  0  0  0  0  0
   56.0656   26.6764   46.6266 H   0  0  0  0  0  0  0  0  0  0  0  0
   56.2656   29.1265   46.2355 H   0  0  0  0  0  0  0  0  0  0  0  0
   58.1318   30.2552   47.1911 H   0  0  0  0  0  0  0  0  0  0  0  0
   59.5903   30.7808   46.2539 H   0  0  0  0  0  0  0  0  0  0  0  0
   57.7781   32.4549   48.0427 H   0  0  0  0  0  0  0  0  0  0  0  0
   59.5536   32.1910   48.1645 H   0  0  0  0  0  0  0  0  0  0  0  0
   62.1038   33.8681   45.2816 H   0  0  0  0  0  0  0  0  0  0  0  0
   64.3920   33.2065   46.3407 H   0  0  0  0  0  0  0  0  0  0  0  0
   64.3530   33.2325   48.9747 H   0  0  0  0  0  0  0  0  0  0  0  0
   57.5279   34.6859   45.6281 H   0  0  0  0  0  0  0  0  0  0  0  0
   58.7151   33.8186   44.5703 H   0  0  0  0  0  0  0  0  0  0  0  0
   56.2660   32.6965   45.9935 H   0  0  0  0  0  0  0  0  0  0  0  0
   56.6595   32.6809   44.2369 H   0  0  0  0  0  0  0  0  0  0  0  0
   58.9436   28.3774   42.9170 H   0  0  0  0  0  0  0  0  0  0  0  0
   58.7438   25.9258   43.3079 H   0  0  0  0  0  0  0  0  0  0  0  0
  1  2  1  0
  2  3  1  0
  3  4  1  0
  4  5  2  0
  5  6  1  0
  6  7  2  0
  7  8  1  0
  8  9  2  0
  8 10  1  0
 10 11  1  0
 11 12  1  0
 12 13  1  0
 13 14  1  0
 14 15  2  0
 14 16  1  0
 16 17  2  0
 17 18  1  0
 18 19  2  0
 19 20  1  0
 13 21  1  0
 21 22  1  0
  7 23  1  0
 23 24  2  0
 24  4  1  0
 22 10  1  0
 20 16  1  0
  1 25  1  0
  1 26  1  0
  1 27  1  0
  2 28  1  0
  2 29  1  0
  5 30  1  0
  6 31  1  0
 11 32  1  0
 11 33  1  0
 12 34  1  0
 12 35  1  0
 17 36  1  0
 18 37  1  0
 19 38  1  0
 21 39  1  0
 21 40  1  0
 22 41  1  0
 22 42  1  0
 23 43  1  0
 24 44  1  0
M  END
>  <UniqueID>  (77) 
70

>  <SMILES>  (77) 
CCOc1ccc(C(=O)N2CCN(C(=O)c3cccs3)CC2)cc1

>  <Energy>  (77) 
78.2151248952328

>  <Genealogy>  (77) 
CCOc1ccc(C(=O)N2CCN(C(=O)c3cccs3)CC2)cc1 (3D coordinates assigned)
CCOc1ccc(C(=O)N2CCN(C(=O)c3cccs3)CC2)cc1 (nonaromatic ring conformer: 78.2151248952328 kcal/mol)

>  <smiles>  (77) 
CCOc1ccc(C(=O)N2CCN(C(=O)c3cccs3)CC2)cc1

>  <score_type>  (77) 
oracle

>  <origin>  (77) 
adg

>  <m_score__min__energy>  (77) 
-7.1200000000000001

>  <m_primary>  (77) 
energy

$$$$
77:0
     RDKit          3D

 33 36  0  0  0  0  0  0  0  0999 V2000
   55.5870   29.2480   44.9300 N   0  0  0  0  0  0  0  0  0  0  0  0
   56.9940   29.4720   44.9140 C   0  0  0  0  0  0  0  0  0  0  0  0
   57.7670   28.5660   44.5020 O   0  0  0  0  0  0  0  0  0  0  0  0
   57.5390   30.7520   45.3750 C   0  0  0  0  0  0  0  0  0  0  0  0
   57.9590   30.9710   46.6390 N   0  0  0  0  0  0  0  0  0  0  0  0
   58.4270   32.2380   46.8380 C   0  0  0  0  0  0  0  0  0  0  0  0
   58.3670   33.0360   45.6890 C   0  0  0  0  0  0  0  0  0  0  0  0
   57.7200   32.1230   44.4280 S   0  0  0  0  0  0  0  0  0  0  0  0
   58.8430   34.4390   45.5500 C   0  0  2  0  0  0  0  0  0  0  0  0
   58.8480   34.8110   44.2160 F   0  0  0  0  0  0  0  0  0  0  0  0
   60.2520   34.5320   46.1070 C   0  0  0  0  0  0  0  0  0  0  0  0
   60.2120   34.7060   47.5140 O   0  0  0  0  0  0  0  0  0  0  0  0
   59.6850   33.8240   48.4710 C   0  0  0  0  0  0  0  0  0  0  0  0
   59.9970   34.1410   49.7980 C   0  0  0  0  0  0  0  0  0  0  0  0
   59.5660   33.3470   50.8550 C   0  0  0  0  0  0  0  0  0  0  0  0
   58.7990   32.2050   50.6210 C   0  0  0  0  0  0  0  0  0  0  0  0
   58.3680   31.3890   51.8300 C   0  0  0  0  0  0  0  0  0  0  0  0
   57.3810   32.0310   52.7940 C   0  0  0  0  0  0  0  0  0  0  0  0
   56.9260   30.9040   51.8740 C   0  0  0  0  0  0  0  0  0  0  0  0
   58.4620   31.8800   49.2920 C   0  0  0  0  0  0  0  0  0  0  0  0
   58.8840   32.6720   48.1970 C   0  0  0  0  0  0  0  0  0  0  0  0
   55.1500   28.6240   45.6430 H   0  0  0  0  0  0  0  0  0  0  0  0
   58.1709   35.1122   46.1023 H   0  0  0  0  0  0  0  0  0  0  0  0
   60.7979   33.6067   45.8707 H   0  0  0  0  0  0  0  0  0  0  0  0
   60.7612   35.3949   45.6530 H   0  0  0  0  0  0  0  0  0  0  0  0
   60.5967   35.0385   50.0096 H   0  0  0  0  0  0  0  0  0  0  0  0
   59.8324   33.6219   51.8862 H   0  0  0  0  0  0  0  0  0  0  0  0
   59.3528   30.9091   51.9294 H   0  0  0  0  0  0  0  0  0  0  0  0
   57.4744   31.8543   53.8757 H   0  0  0  0  0  0  0  0  0  0  0  0
   57.0427   33.0589   52.9913 H   0  0  0  0  0  0  0  0  0  0  0  0
   56.6911   29.9138   52.2916 H   0  0  0  0  0  0  0  0  0  0  0  0
   56.1233   30.7813   51.1320 H   0  0  0  0  0  0  0  0  0  0  0  0
   57.8530   30.9844   49.0996 H   0  0  0  0  0  0  0  0  0  0  0  0
  1  2  1  0
  2  3  2  0
  2  4  1  0
  4  5  2  0
  5  6  1  0
  6  7  2  0
  7  8  1  0
  7  9  1  0
  9 10  1  0
  9 11  1  0
 11 12  1  0
 12 13  1  0
 13 14  2  0
 14 15  1  0
 15 16  2  0
 16 17  1  0
 17 18  1  0
 18 19  1  0
 16 20  1  0
 20 21  2  0
  8  4  1  0
 21 13  1  0
 21  6  1  0
 19 17  1  0
  1 22  1  0
  9 23  1  1
 11 24  1  0
 11 25  1  0
 14 26  1  0
 15 27  1  0
 17 28  1  0
 18 29  1  0
 18 30  1  0
 19 31  1  0
 19 32  1  0
 20 33  1  0
M  CHG  1   1  -1
M  END
>  <UniqueID>  (78) 
71

>  <SMILES>  (78) 
[NH-]C(=O)c1nc2c(s1)[C@H](F)COc1ccc(C3CC3)cc1-2

>  <Energy>  (78) 
342.0248006093704

>  <Genealogy>  (78) 
[NH-]C(=O)c1nc2c(s1)C(F)COc1ccc(C3CC3)cc1-2 (protonated)
[NH-]C(=O)c1nc2c(s1)[C@H](F)COc1ccc(C3CC3)cc1-2 (chirality)
[NH-]C(=O)c1nc2c(s1)[C@H](F)COc1ccc(C3CC3)cc1-2 (3D coordinates assigned)
[NH-]C(=O)c1nc2c(s1)[C@H](F)COc1ccc(C3CC3)cc1-2 (nonaromatic ring conformer: 342.0248006093704 kcal/mol)

>  <smiles>  (78) 
NC(=O)c1nc2c(s1)C(F)COc1ccc(C3CC3)cc1-2

>  <score_type>  (78) 
oracle

>  <origin>  (78) 
adg

>  <m_score__min__energy>  (78) 
-8.6199999999999992

>  <m_primary>  (78) 
energy

$$$$
78:0
     RDKit          3D

 48 50  0  0  0  0  0  0  0  0999 V2000
   57.6020   34.0900   44.8980 C   0  0  0  0  0  0  0  0  0  0  0  0
   57.1260   33.4690   46.0590 C   0  0  0  0  0  0  0  0  0  0  0  0
   57.9320   33.4110   47.2030 C   0  0  0  0  0  0  0  0  0  0  0  0
   59.2180   33.9800   47.1940 C   0  0  0  0  0  0  0  0  0  0  0  0
   60.0890   33.9180   48.4270 C   0  0  0  0  0  0  0  0  0  0  0  0
   59.3110   33.4820   49.6770 C   0  0  0  0  0  0  0  0  0  0  0  0
   59.2290   31.9530   49.8200 C   0  0  0  0  0  0  0  0  0  0  0  0
   60.6090   31.3100   49.5790 C   0  0  0  0  0  0  0  0  0  0  0  0
   60.5130   30.0410   48.8100 N   0  0  0  0  0  0  0  0  0  0  0  0
   61.1270   30.2010   47.4640 C   0  0  0  0  0  0  0  0  0  0  0  0
   60.1460   30.7790   46.4370 C   0  0  0  0  0  0  0  0  0  0  0  0
   58.9350   29.9530   46.3580 N   0  0  0  0  0  0  0  0  0  0  0  0
   58.0270   30.1390   45.2530 C   0  0  0  0  0  0  0  0  0  0  0  0
   58.3890   30.9020   44.1270 C   0  0  0  0  0  0  0  0  0  0  0  0
   57.4750   31.0590   43.0790 C   0  0  0  0  0  0  0  0  0  0  0  0
   56.2120   30.4690   43.1620 C   0  0  0  0  0  0  0  0  0  0  0  0
   55.8760   29.7320   44.3000 C   0  0  0  0  0  0  0  0  0  0  0  0
   56.7790   29.5880   45.3080 N   0  0  0  0  0  0  0  0  0  0  0  0
   58.6870   28.9590   47.4110 C   0  0  0  0  0  0  0  0  0  0  0  0
   59.1050   29.5340   48.7720 C   0  0  0  0  0  0  0  0  0  0  0  0
   59.6880   34.6060   46.0240 C   0  0  0  0  0  0  0  0  0  0  0  0
   58.8840   34.6530   44.8790 C   0  0  0  0  0  0  0  0  0  0  0  0
   56.9684   34.1357   44.0000 H   0  0  0  0  0  0  0  0  0  0  0  0
   56.1190   33.0266   46.0727 H   0  0  0  0  0  0  0  0  0  0  0  0
   57.5575   32.9183   48.1124 H   0  0  0  0  0  0  0  0  0  0  0  0
   60.9016   33.1983   48.2487 H   0  0  0  0  0  0  0  0  0  0  0  0
   60.4776   34.9303   48.6122 H   0  0  0  0  0  0  0  0  0  0  0  0
   59.8133   33.8924   50.5654 H   0  0  0  0  0  0  0  0  0  0  0  0
   58.2836   33.8627   49.5793 H   0  0  0  0  0  0  0  0  0  0  0  0
   58.8860   31.7028   50.8348 H   0  0  0  0  0  0  0  0  0  0  0  0
   58.5217   31.5647   49.0723 H   0  0  0  0  0  0  0  0  0  0  0  0
   61.2359   32.0178   49.0169 H   0  0  0  0  0  0  0  0  0  0  0  0
   61.0479   31.0768   50.5603 H   0  0  0  0  0  0  0  0  0  0  0  0
   61.0950   29.3260   49.3090 H   0  0  0  0  0  0  0  0  0  0  0  0
   61.9898   30.8782   47.5479 H   0  0  0  0  0  0  0  0  0  0  0  0
   61.4292   29.2032   47.1133 H   0  0  0  0  0  0  0  0  0  0  0  0
   59.8682   31.8001   46.7372 H   0  0  0  0  0  0  0  0  0  0  0  0
   60.6319   30.7916   45.4502 H   0  0  0  0  0  0  0  0  0  0  0  0
   59.3824   31.3711   44.0712 H   0  0  0  0  0  0  0  0  0  0  0  0
   57.7511   31.6464   42.1909 H   0  0  0  0  0  0  0  0  0  0  0  0
   55.4897   30.5834   42.3403 H   0  0  0  0  0  0  0  0  0  0  0  0
   54.8819   29.2682   44.3814 H   0  0  0  0  0  0  0  0  0  0  0  0
   57.6161   28.7085   47.4329 H   0  0  0  0  0  0  0  0  0  0  0  0
   59.2735   28.0521   47.2023 H   0  0  0  0  0  0  0  0  0  0  0  0
   58.4302   30.3671   49.0179 H   0  0  0  0  0  0  0  0  0  0  0  0
   59.0424   28.7109   49.4990 H   0  0  0  0  0  0  0  0  0  0  0  0
   60.6900   35.0596   46.0094 H   0  0  0  0  0  0  0  0  0  0  0  0
   59.2598   35.1328   43.9632 H   0  0  0  0  0  0  0  0  0  0  0  0
  1  2  2  0
  2  3  1  0
  3  4  2  0
  4  5  1  0
  5  6  1  0
  6  7  1  0
  7  8  1  0
  8  9  1  0
  9 10  1  0
 10 11  1  0
 11 12  1  0
 12 13  1  0
 13 14  2  0
 14 15  1  0
 15 16  2  0
 16 17  1  0
 17 18  2  0
 12 19  1  0
 19 20  1  0
  4 21  1  0
 21 22  2  0
 22  1  1  0
 20  9  1  0
 18 13  1  0
  1 23  1  0
  2 24  1  0
  3 25  1  0
  5 26  1  0
  5 27  1  0
  6 28  1  0
  6 29  1  0
  7 30  1  0
  7 31  1  0
  8 32  1  0
  8 33  1  0
  9 34  1  0
 10 35  1  0
 10 36  1  0
 11 37  1  0
 11 38  1  0
 14 39  1  0
 15 40  1  0
 16 41  1  0
 17 42  1  0
 19 43  1  0
 19 44  1  0
 20 45  1  0
 20 46  1  0
 21 47  1  0
 22 48  1  0
M  CHG  1   9   1
M  END
>  <UniqueID>  (79) 
72

>  <SMILES>  (79) 
c1ccc(CCCC[NH+]2CCN(c3ccccn3)CC2)cc1

>  <Energy>  (79) 
55.52201125409957

>  <Genealogy>  (79) 
c1ccc(CCCC[NH+]2CCN(c3ccccn3)CC2)cc1 (protonated)
c1ccc(CCCC[NH+]2CCN(c3ccccn3)CC2)cc1 (3D coordinates assigned)
c1ccc(CCCC[NH+]2CCN(c3ccccn3)CC2)cc1 (nonaromatic ring conformer: 55.52201125409957 kcal/mol)

>  <smiles>  (79) 
c1ccc(CCCCN2CCN(c3ccccn3)CC2)cc1

>  <score_type>  (79) 
oracle

>  <origin>  (79) 
adg

>  <m_score__min__energy>  (79) 
-5.7800000000000002

>  <m_primary>  (79) 
energy

$$$$
79:0
     RDKit          3D

 39 41  0  0  0  0  0  0  0  0999 V2000
   59.2660   35.7260   47.1060 O   0  0  0  0  0  0  0  0  0  0  0  0
   59.3340   34.4690   46.9970 C   0  0  0  0  0  0  0  0  0  0  0  0
   60.5550   33.7760   47.4900 C   0  0  0  0  0  0  0  0  0  0  0  0
   61.6280   33.4680   46.6300 C   0  0  0  0  0  0  0  0  0  0  0  0
   62.7600   32.8100   47.1190 C   0  0  0  0  0  0  0  0  0  0  0  0
   62.8350   32.4460   48.4650 C   0  0  0  0  0  0  0  0  0  0  0  0
   61.7750   32.7360   49.3250 C   0  0  0  0  0  0  0  0  0  0  0  0
   60.6390   33.3930   48.8410 C   0  0  0  0  0  0  0  0  0  0  0  0
   58.2140   33.7430   46.4260 N   0  0  0  0  0  0  0  0  0  0  0  0
   58.2590   32.3020   46.8030 C   0  0  0  0  0  0  0  0  0  0  0  0
   58.8800   31.4230   45.7010 C   0  0  0  0  0  0  0  0  0  0  0  0
   58.1770   31.5540   44.4020 N   0  0  0  0  0  0  0  0  0  0  0  0
   57.1050   30.2020   44.1220 S   0  0  0  0  0  0  0  0  0  0  0  0
   55.7840   30.4530   44.7940 O   0  0  0  0  0  0  0  0  0  0  0  0
   56.8830   30.0190   42.6470 O   0  0  0  0  0  0  0  0  0  0  0  0
   57.8230   28.7400   44.7700 C   0  0  0  0  0  0  0  0  0  0  0  0
   59.1580   28.3840   44.6710 C   0  0  0  0  0  0  0  0  0  0  0  0
   59.4450   27.1640   45.2930 C   0  0  0  0  0  0  0  0  0  0  0  0
   58.3360   26.5630   45.8780 C   0  0  0  0  0  0  0  0  0  0  0  0
   56.9980   27.5500   45.6240 S   0  0  0  0  0  0  0  0  0  0  0  0
   57.4370   32.8230   44.2480 C   0  0  0  0  0  0  0  0  0  0  0  0
   58.1640   33.9690   44.9600 C   0  0  0  0  0  0  0  0  0  0  0  0
   61.5743   33.7471   45.5674 H   0  0  0  0  0  0  0  0  0  0  0  0
   63.5947   32.5781   46.4412 H   0  0  0  0  0  0  0  0  0  0  0  0
   63.7288   31.9311   48.8471 H   0  0  0  0  0  0  0  0  0  0  0  0
   61.8329   32.4475   50.3849 H   0  0  0  0  0  0  0  0  0  0  0  0
   59.8040   33.6121   49.5227 H   0  0  0  0  0  0  0  0  0  0  0  0
   57.3270   34.1160   46.8400 H   0  0  0  0  0  0  0  0  0  0  0  0
   58.8588   32.1956   47.7189 H   0  0  0  0  0  0  0  0  0  0  0  0
   57.2234   31.9641   46.9561 H   0  0  0  0  0  0  0  0  0  0  0  0
   59.9305   31.7194   45.5643 H   0  0  0  0  0  0  0  0  0  0  0  0
   58.7923   30.3747   46.0226 H   0  0  0  0  0  0  0  0  0  0  0  0
   59.9135   28.9964   44.1571 H   0  0  0  0  0  0  0  0  0  0  0  0
   60.4522   26.7223   45.3169 H   0  0  0  0  0  0  0  0  0  0  0  0
   58.3340   25.6037   46.4162 H   0  0  0  0  0  0  0  0  0  0  0  0
   57.3497   33.0615   43.1777 H   0  0  0  0  0  0  0  0  0  0  0  0
   56.4400   32.7056   44.6977 H   0  0  0  0  0  0  0  0  0  0  0  0
   59.1911   34.0384   44.5723 H   0  0  0  0  0  0  0  0  0  0  0  0
   57.6141   34.9025   44.7696 H   0  0  0  0  0  0  0  0  0  0  0  0
  1  2  2  0
  2  3  1  0
  3  4  2  0
  4  5  1  0
  5  6  2  0
  6  7  1  0
  7  8  2  0
  2  9  1  0
  9 10  1  0
 10 11  1  0
 11 12  1  0
 12 13  1  0
 13 14  2  0
 13 15  2  0
 13 16  1  0
 16 17  2  0
 17 18  1  0
 18 19  2  0
 19 20  1  0
 12 21  1  0
 21 22  1  0
  8  3  1  0
 22  9  1  0
 20 16  1  0
  4 23  1  0
  5 24  1  0
  6 25  1  0
  7 26  1  0
  8 27  1  0
  9 28  1  0
 10 29  1  0
 10 30  1  0
 11 31  1  0
 11 32  1  0
 17 33  1  0
 18 34  1  0
 19 35  1  0
 21 36  1  0
 21 37  1  0
 22 38  1  0
 22 39  1  0
M  CHG  1   9   1
M  END
>  <UniqueID>  (80) 
73

>  <SMILES>  (80) 
O=C(c1ccccc1)[NH+]1CCN(S(=O)(=O)c2cccs2)CC1

>  <Energy>  (80) 
82.20752711452728

>  <Genealogy>  (80) 
O=C(c1ccccc1)[NH+]1CCN(S(=O)(=O)c2cccs2)CC1 (protonated)
O=C(c1ccccc1)[NH+]1CCN(S(=O)(=O)c2cccs2)CC1 (3D coordinates assigned)
O=C(c1ccccc1)[NH+]1CCN(S(=O)(=O)c2cccs2)CC1 (nonaromatic ring conformer: 82.20752711452728 kcal/mol)

>  <smiles>  (80) 
O=C(c1ccccc1)N1CCN(S(=O)(=O)c2cccs2)CC1

>  <score_type>  (80) 
oracle

>  <origin>  (80) 
adg

>  <m_score__min__energy>  (80) 
-6.9299999999999997

>  <m_primary>  (80) 
energy

$$$$
80:0
     RDKit          3D

 42 42  0  0  0  0  0  0  0  0999 V2000
   54.8254   30.7550   54.4657 H   0  0  0  0  0  0  0  0  0  0  0  0
   54.9250   30.2770   53.4800 C   0  0  0  0  0  0  0  0  0  0  0  0
   56.2330   30.2990   52.8040 C   0  0  0  0  0  0  0  0  0  0  0  0
   56.5450   29.3570   52.0280 O   0  0  0  0  0  0  0  0  0  0  0  0
   57.1450   31.3770   53.0280 N   0  0  0  0  0  0  0  0  0  0  0  0
   57.0890   32.6520   52.3240 C   0  0  0  0  0  0  0  0  0  0  0  0
   57.0112   33.4715   53.0536 H   0  0  0  0  0  0  0  0  0  0  0  0
   56.2109   32.6689   51.6616 H   0  0  0  0  0  0  0  0  0  0  0  0
   58.3610   32.8270   51.4930 C   0  0  0  0  0  0  0  0  0  0  0  0
   58.2649   33.7369   50.8824 H   0  0  0  0  0  0  0  0  0  0  0  0
   58.4803   31.9360   50.8591 H   0  0  0  0  0  0  0  0  0  0  0  0
   59.6130   32.9530   52.3820 C   0  0  0  0  0  0  0  0  0  0  0  0
   59.3656   32.5981   53.3933 H   0  0  0  0  0  0  0  0  0  0  0  0
   59.9147   34.0108   52.3893 H   0  0  0  0  0  0  0  0  0  0  0  0
   60.8020   32.1270   51.8430 C   0  0  0  0  0  0  0  0  0  0  0  0
   61.4385   31.8308   52.6898 H   0  0  0  0  0  0  0  0  0  0  0  0
   61.3495   32.7573   51.1268 H   0  0  0  0  0  0  0  0  0  0  0  0
   60.3490   30.8590   51.0990 C   0  0  0  0  0  0  0  0  0  0  0  0
   61.2263   30.2213   50.9156 H   0  0  0  0  0  0  0  0  0  0  0  0
   59.8793   31.1670   50.1532 H   0  0  0  0  0  0  0  0  0  0  0  0
   59.3610   30.0970   51.8720 N   0  0  0  0  0  0  0  0  0  0  0  0
   58.3500   30.2040   51.6280 H   0  0  0  0  0  0  0  0  0  0  0  0
   59.6690   29.2960   52.8570 C   0  0  0  0  0  0  0  0  0  0  0  0
   60.9680   28.6960   52.8990 N   0  0  0  0  0  0  0  0  0  0  0  0
   61.6700   28.8760   52.1480 H   0  0  0  0  0  0  0  0  0  0  0  0
   61.2270   28.0530   53.6800 H   0  0  0  0  0  0  0  0  0  0  0  0
   58.7360   28.9970   53.9050 N   0  0  0  0  0  0  0  0  0  0  0  0
   59.0040   28.3290   54.6620 H   0  0  0  0  0  0  0  0  0  0  0  0
   57.7900   29.4320   53.9600 H   0  0  0  0  0  0  0  0  0  0  0  0
   53.8510   29.6910   52.9290 C   0  0  0  0  0  0  0  0  0  0  0  0
   53.6332   28.6480   53.2024 H   0  0  0  0  0  0  0  0  0  0  0  0
   52.9410   30.3660   51.9740 C   0  0  0  0  0  0  0  0  0  0  0  0
   52.7330   29.8950   50.6630 C   0  0  0  0  0  0  0  0  0  0  0  0
   53.2687   29.0008   50.3118 H   0  0  0  0  0  0  0  0  0  0  0  0
   51.8490   30.5580   49.8050 C   0  0  0  0  0  0  0  0  0  0  0  0
   51.6983   30.1875   48.7803 H   0  0  0  0  0  0  0  0  0  0  0  0
   51.1570   31.6890   50.2450 C   0  0  0  0  0  0  0  0  0  0  0  0
   50.2800   32.3410   49.3860 O   0  0  0  0  0  0  0  0  0  0  0  0
   51.3450   32.1570   51.5500 C   0  0  0  0  0  0  0  0  0  0  0  0
   50.6540   33.2790   51.9960 O   0  0  0  0  0  0  0  0  0  0  0  0
   52.2280   31.4970   52.4090 C   0  0  0  0  0  0  0  0  0  0  0  0
   52.3666   31.8661   53.4359 H   0  0  0  0  0  0  0  0  0  0  0  0
  1  2  1  0
  2  3  1  0
  3  4  2  0
  3  5  1  0
  5  6  1  0
  6  7  1  0
  6  8  1  0
  6  9  1  0
  9 10  1  0
  9 11  1  0
  9 12  1  0
 12 13  1  0
 12 14  1  0
 12 15  1  0
 15 16  1  0
 15 17  1  0
 15 18  1  0
 18 19  1  0
 18 20  1  0
 18 21  1  0
 21 22  1  0
 21 23  2  3
 23 24  1  0
 24 25  1  0
 24 26  1  0
 23 27  1  0
 27 28  1  0
 27 29  1  0
  2 30  2  0
 30 31  1  0
 30 32  1  0
 32 33  2  0
 33 34  1  0
 33 35  1  0
 35 36  1  0
 35 37  2  0
 37 38  1  0
 37 39  1  0
 39 40  1  0
 39 41  2  0
 41 42  1  0
 41 32  1  0
M  CHG  4   5  -1  21   1  38  -1  40  -1
M  END
>  <UniqueID>  (81) 
74

>  <SMILES>  (81) 
NC(N)=[NH+]CCCCC[N-]C(=O)/C=C/c1ccc([O-])c([O-])c1

>  <Energy>  (81) 
31.380525703242128

>  <Genealogy>  (81) 
NC(N)=[NH+]CCCCC[N-]C(=O)C=Cc1ccc([O-])c([O-])c1 (protonated)
NC(N)=[NH+]CCCCC[N-]C(=O)/C=C/c1ccc([O-])c([O-])c1 (cis-trans isomerization)
NC(N)=[NH+]CCCCC[N-]C(=O)/C=C/c1ccc([O-])c([O-])c1 (3D coordinates assigned)
NC(N)=[NH+]CCCCC[N-]C(=O)/C=C/c1ccc([O-])c([O-])c1 (optimized conformer: 31.380525703242128 kcal/mol)

>  <smiles>  (81) 
NC(N)=NCCCCCNC(=O)C=Cc1ccc(O)c(O)c1

>  <score_type>  (81) 
oracle

>  <origin>  (81) 
adg

>  <m_score__min__energy>  (81) 
-13.65

>  <m_primary>  (81) 
energy

$$$$
81:0
     RDKit          3D

 40 42  0  0  0  0  0  0  0  0999 V2000
   59.2560   34.9930   45.2980 C   0  0  0  0  0  0  0  0  0  0  0  0
   58.6050   34.4200   46.5510 C   0  0  0  0  0  0  0  0  0  0  0  0
   59.0380   33.0360   46.7630 N   0  0  0  0  0  0  0  0  0  0  0  0
   59.9210   32.5650   47.6870 C   0  0  0  0  0  0  0  0  0  0  0  0
   60.5620   33.4020   48.7590 C   0  0  0  0  0  0  0  0  0  0  0  0
   61.7050   34.1680   48.2150 N   0  0  0  0  0  0  0  0  0  0  0  0
   62.0730   33.7480   46.8360 C   0  0  0  0  0  0  0  0  0  0  0  0
   63.3910   32.9510   46.7460 C   0  0  0  0  0  0  0  0  0  0  0  0
   63.5670   32.0440   47.9630 C   0  0  0  0  0  0  0  0  0  0  0  0
   63.5740   32.8540   49.2700 C   0  0  0  0  0  0  0  0  0  0  0  0
   62.8650   34.2160   49.1340 C   0  0  0  0  0  0  0  0  0  0  0  0
   60.1390   31.2310   47.5650 N   0  0  0  0  0  0  0  0  0  0  0  0
   59.3800   30.8650   46.5190 C   0  0  0  0  0  0  0  0  0  0  0  0
   59.2480   29.6010   45.9550 C   0  0  0  0  0  0  0  0  0  0  0  0
   58.3980   29.4630   44.8400 C   0  0  0  0  0  0  0  0  0  0  0  0
   58.2130   27.8750   44.1090 Cl  0  0  0  0  0  0  0  0  0  0  0  0
   57.7120   30.5930   44.3210 C   0  0  0  0  0  0  0  0  0  0  0  0
   56.6520   30.4480   42.9260 Cl  0  0  0  0  0  0  0  0  0  0  0  0
   57.8740   31.8590   44.9200 C   0  0  0  0  0  0  0  0  0  0  0  0
   58.7190   31.9530   46.0260 C   0  0  0  0  0  0  0  0  0  0  0  0
   60.0528   35.6943   45.5867 H   0  0  0  0  0  0  0  0  0  0  0  0
   59.6860   34.1750   44.7014 H   0  0  0  0  0  0  0  0  0  0  0  0
   58.4992   35.5234   44.7014 H   0  0  0  0  0  0  0  0  0  0  0  0
   58.8949   35.0279   47.4207 H   0  0  0  0  0  0  0  0  0  0  0  0
   57.5123   34.4373   46.4258 H   0  0  0  0  0  0  0  0  0  0  0  0
   59.8170   34.1037   49.1623 H   0  0  0  0  0  0  0  0  0  0  0  0
   60.9302   32.7359   49.5532 H   0  0  0  0  0  0  0  0  0  0  0  0
   61.2623   33.1192   46.4394 H   0  0  0  0  0  0  0  0  0  0  0  0
   62.2219   34.6700   46.2548 H   0  0  0  0  0  0  0  0  0  0  0  0
   63.3762   32.3331   45.8361 H   0  0  0  0  0  0  0  0  0  0  0  0
   64.2293   33.6626   46.7153 H   0  0  0  0  0  0  0  0  0  0  0  0
   62.7379   31.3218   47.9940 H   0  0  0  0  0  0  0  0  0  0  0  0
   64.5329   31.5257   47.8717 H   0  0  0  0  0  0  0  0  0  0  0  0
   63.0634   32.2685   50.0488 H   0  0  0  0  0  0  0  0  0  0  0  0
   64.6242   33.0525   49.5304 H   0  0  0  0  0  0  0  0  0  0  0  0
   62.5137   34.5305   50.1278 H   0  0  0  0  0  0  0  0  0  0  0  0
   63.5913   34.9279   48.7148 H   0  0  0  0  0  0  0  0  0  0  0  0
   60.7570   30.6260   48.1500 H   0  0  0  0  0  0  0  0  0  0  0  0
   59.7898   28.7365   46.3662 H   0  0  0  0  0  0  0  0  0  0  0  0
   57.3511   32.7438   44.5280 H   0  0  0  0  0  0  0  0  0  0  0  0
  1  2  1  0
  2  3  1  0
  3  4  1  0
  4  5  1  0
  5  6  1  0
  6  7  1  0
  7  8  1  0
  8  9  1  0
  9 10  1  0
 10 11  1  0
  4 12  2  0
 12 13  1  0
 13 14  2  0
 14 15  1  0
 15 16  1  0
 15 17  2  0
 17 18  1  0
 17 19  1  0
 19 20  2  0
 20  3  1  0
 11  6  1  0
 20 13  1  0
  1 21  1  0
  1 22  1  0
  1 23  1  0
  2 24  1  0
  2 25  1  0
  5 26  1  0
  5 27  1  0
  7 28  1  0
  7 29  1  0
  8 30  1  0
  8 31  1  0
  9 32  1  0
  9 33  1  0
 10 34  1  0
 10 35  1  0
 11 36  1  0
 11 37  1  0
 12 38  1  0
 14 39  1  0
 19 40  1  0
M  CHG  1  12   1
M  END
>  <UniqueID>  (82) 
75

>  <SMILES>  (82) 
CCn1c(CN2CCCCC2)[nH+]c2cc(Cl)c(Cl)cc21

>  <Energy>  (82) 
84.21482374142461

>  <Genealogy>  (82) 
CCn1c(CN2CCCCC2)[nH+]c2cc(Cl)c(Cl)cc21 (protonated)
CCn1c(CN2CCCCC2)[nH+]c2cc(Cl)c(Cl)cc21 (3D coordinates assigned)
CCn1c(CN2CCCCC2)[nH+]c2cc(Cl)c(Cl)cc21 (nonaromatic ring conformer: 84.21482374142461 kcal/mol)

>  <smiles>  (82) 
CCn1c(CN2CCCCC2)nc2cc(Cl)c(Cl)cc21

>  <score_type>  (82) 
oracle

>  <origin>  (82) 
adg

>  <m_score__min__energy>  (82) 
-5.9000000000000004

>  <m_primary>  (82) 
energy

$$$$
82:0
     RDKit          3D

 29 30  0  0  0  0  0  0  0  0999 V2000
   56.7780   27.0480   45.6670 C   0  0  0  0  0  0  0  0  0  0  0  0
   56.0530   28.2010   45.2530 O   0  0  0  0  0  0  0  0  0  0  0  0
   56.6410   29.3560   44.7150 C   0  0  0  0  0  0  0  0  0  0  0  0
   56.4620   29.6180   43.3520 C   0  0  0  0  0  0  0  0  0  0  0  0
   57.0230   30.7570   42.7700 C   0  0  0  0  0  0  0  0  0  0  0  0
   57.7740   31.6430   43.5450 C   0  0  0  0  0  0  0  0  0  0  0  0
   57.9760   31.3910   44.9110 C   0  0  0  0  0  0  0  0  0  0  0  0
   58.7660   32.3370   45.7320 C   0  0  0  0  0  0  0  0  0  0  0  0
   59.9360   31.8700   46.3560 C   0  0  0  0  0  0  0  0  0  0  0  0
   60.7270   32.7340   47.1160 C   0  0  0  0  0  0  0  0  0  0  0  0
   60.3620   34.0710   47.2620 C   0  0  0  0  0  0  0  0  0  0  0  0
   59.1960   34.5490   46.6600 C   0  0  0  0  0  0  0  0  0  0  0  0
   58.3770   33.6900   45.9070 C   0  0  0  0  0  0  0  0  0  0  0  0
   57.1150   34.2410   45.2950 C   0  0  0  0  0  0  0  0  0  0  0  0
   57.3970   30.2510   45.4950 C   0  0  0  0  0  0  0  0  0  0  0  0
   56.8042   27.0064   46.7659 H   0  0  0  0  0  0  0  0  0  0  0  0
   56.2847   26.1453   45.2775 H   0  0  0  0  0  0  0  0  0  0  0  0
   57.8053   27.1014   45.2775 H   0  0  0  0  0  0  0  0  0  0  0  0
   55.8753   28.9219   42.7346 H   0  0  0  0  0  0  0  0  0  0  0  0
   56.8729   30.9565   41.6987 H   0  0  0  0  0  0  0  0  0  0  0  0
   58.2089   32.5417   43.0834 H   0  0  0  0  0  0  0  0  0  0  0  0
   60.2306   30.8160   46.2447 H   0  0  0  0  0  0  0  0  0  0  0  0
   61.6403   32.3585   47.6006 H   0  0  0  0  0  0  0  0  0  0  0  0
   60.9935   34.7511   47.8525 H   0  0  0  0  0  0  0  0  0  0  0  0
   58.9162   35.6065   46.7761 H   0  0  0  0  0  0  0  0  0  0  0  0
   56.4219   34.5436   46.0938 H   0  0  0  0  0  0  0  0  0  0  0  0
   57.3603   35.1139   44.6722 H   0  0  0  0  0  0  0  0  0  0  0  0
   56.6416   33.4677   44.6722 H   0  0  0  0  0  0  0  0  0  0  0  0
   57.5357   30.0571   46.5689 H   0  0  0  0  0  0  0  0  0  0  0  0
  1  2  1  0
  2  3  1  0
  3  4  2  0
  4  5  1  0
  5  6  2  0
  6  7  1  0
  7  8  1  0
  8  9  2  0
  9 10  1  0
 10 11  2  0
 11 12  1  0
 12 13  2  0
 13 14  1  0
  7 15  2  0
 15  3  1  0
 13  8  1  0
  1 16  1  0
  1 17  1  0
  1 18  1  0
  4 19  1  0
  5 20  1  0
  6 21  1  0
  9 22  1  0
 10 23  1  0
 11 24  1  0
 12 25  1  0
 14 26  1  0
 14 27  1  0
 14 28  1  0
 15 29  1  0
M  END
>  <UniqueID>  (83) 
76

>  <SMILES>  (83) 
COc1cccc(-c2ccccc2C)c1

>  <Energy>  (83) 
35.863023629876096

>  <Genealogy>  (83) 
COc1cccc(-c2ccccc2C)c1 (3D coordinates assigned)
COc1cccc(-c2ccccc2C)c1 (optimized conformer: 35.863023629876096 kcal/mol)

>  <smiles>  (83) 
COc1cccc(-c2ccccc2C)c1

>  <score_type>  (83) 
oracle

>  <origin>  (83) 
adg

>  <m_score__min__energy>  (83) 
-6.5099999999999998

>  <m_primary>  (83) 
energy

$$$$
83:0
     RDKit          3D

 29 29  0  0  0  0  0  0  0  0999 V2000
   56.2500   30.2710   43.7230 C   0  0  0  0  0  0  0  0  0  0  0  0
   57.7670   30.4140   43.8030 C   0  0  0  0  0  0  0  0  0  0  0  0
   58.2720   30.1450   45.2260 C   0  0  0  0  0  0  0  0  0  0  0  0
   59.1380   28.8780   45.3170 C   0  0  0  0  0  0  0  0  0  0  0  0
   58.3500   27.6810   45.8050 C   0  0  0  0  0  0  0  0  0  0  0  0
   56.9490   27.7190   45.6910 C   0  0  0  0  0  0  0  0  0  0  0  0
   56.1640   26.6450   46.1150 C   0  0  0  0  0  0  0  0  0  0  0  0
   54.7810   26.7160   45.9950 O   0  0  0  0  0  0  0  0  0  0  0  0
   56.7630   25.5040   46.6590 C   0  0  0  0  0  0  0  0  0  0  0  0
   55.9360   24.4480   47.0750 O   0  0  0  0  0  0  0  0  0  0  0  0
   55.0610   23.7240   46.2160 C   0  0  0  0  0  0  0  0  0  0  0  0
   58.1630   25.4500   46.7670 C   0  0  0  0  0  0  0  0  0  0  0  0
   58.9610   26.5190   46.3400 C   0  0  0  0  0  0  0  0  0  0  0  0
   60.3450   26.3790   46.4620 O   0  0  0  0  0  0  0  0  0  0  0  0
   55.8313   30.2315   44.7394 H   0  0  0  0  0  0  0  0  0  0  0  0
   55.8282   31.1334   43.1859 H   0  0  0  0  0  0  0  0  0  0  0  0
   55.9968   29.3450   43.1859 H   0  0  0  0  0  0  0  0  0  0  0  0
   58.2327   29.6938   43.1142 H   0  0  0  0  0  0  0  0  0  0  0  0
   58.0363   31.4437   43.5252 H   0  0  0  0  0  0  0  0  0  0  0  0
   58.8720   31.0061   45.5555 H   0  0  0  0  0  0  0  0  0  0  0  0
   57.3920   29.9936   45.8685 H   0  0  0  0  0  0  0  0  0  0  0  0
   59.5426   28.6530   44.3192 H   0  0  0  0  0  0  0  0  0  0  0  0
   59.9433   29.0705   46.0412 H   0  0  0  0  0  0  0  0  0  0  0  0
   56.4643   28.6081   45.2614 H   0  0  0  0  0  0  0  0  0  0  0  0
   54.3537   23.1387   46.8220 H   0  0  0  0  0  0  0  0  0  0  0  0
   54.5041   24.4290   45.5812 H   0  0  0  0  0  0  0  0  0  0  0  0
   55.6493   23.0450   45.5812 H   0  0  0  0  0  0  0  0  0  0  0  0
   58.6394   24.5548   47.1933 H   0  0  0  0  0  0  0  0  0  0  0  0
   61.0090   27.1170   46.2740 H   0  0  0  0  0  0  0  0  0  0  0  0
  1  2  1  0
  2  3  1  0
  3  4  1  0
  4  5  1  0
  5  6  2  0
  6  7  1  0
  7  8  1  0
  7  9  2  0
  9 10  1  0
 10 11  1  0
  9 12  1  0
 12 13  2  0
 13 14  1  0
 13  5  1  0
  1 15  1  0
  1 16  1  0
  1 17  1  0
  2 18  1  0
  2 19  1  0
  3 20  1  0
  3 21  1  0
  4 22  1  0
  4 23  1  0
  6 24  1  0
 11 25  1  0
 11 26  1  0
 11 27  1  0
 12 28  1  0
 14 29  1  0
M  CHG  1   8  -1
M  END
>  <UniqueID>  (84) 
77

>  <SMILES>  (84) 
CCCCc1cc([O-])c(OC)cc1O

>  <Energy>  (84) 
22.027499188012442

>  <Genealogy>  (84) 
CCCCc1cc([O-])c(OC)cc1O (protonated)
CCCCc1cc([O-])c(OC)cc1O (3D coordinates assigned)
CCCCc1cc([O-])c(OC)cc1O (optimized conformer: 22.027499188012442 kcal/mol)

>  <smiles>  (84) 
CCCCc1cc(O)c(OC)cc1O

>  <score_type>  (84) 
oracle

>  <origin>  (84) 
adg

>  <m_score__min__energy>  (84) 
-9.0899999999999999

>  <m_primary>  (84) 
energy

$$$$
84:0
     RDKit          3D

 32 33  0  0  0  0  0  0  0  0999 V2000
   57.4068   33.8941   44.3098 H   0  0  0  0  0  0  0  0  0  0  0  0
   57.9960   33.6690   45.2110 C   0  0  0  0  0  0  0  0  0  0  0  0
   59.1220   34.5590   45.5610 C   0  0  0  0  0  0  0  0  0  0  0  0
   59.2710   35.6180   44.8930 O   0  0  0  0  0  0  0  0  0  0  0  0
   60.0670   34.2730   46.6680 C   0  0  0  0  0  0  0  0  0  0  0  0
   59.6910   34.4640   48.0110 C   0  0  0  0  0  0  0  0  0  0  0  0
   58.6772   34.8177   48.2498 H   0  0  0  0  0  0  0  0  0  0  0  0
   60.5980   34.2070   49.0430 C   0  0  0  0  0  0  0  0  0  0  0  0
   60.2928   34.3481   50.0903 H   0  0  0  0  0  0  0  0  0  0  0  0
   61.8920   33.7710   48.7460 C   0  0  0  0  0  0  0  0  0  0  0  0
   62.6035   33.5656   49.5594 H   0  0  0  0  0  0  0  0  0  0  0  0
   62.2820   33.5960   47.4160 C   0  0  0  0  0  0  0  0  0  0  0  0
   63.3020   33.2562   47.1832 H   0  0  0  0  0  0  0  0  0  0  0  0
   61.3780   33.8520   46.3800 C   0  0  0  0  0  0  0  0  0  0  0  0
   61.6939   33.7234   45.3342 H   0  0  0  0  0  0  0  0  0  0  0  0
   57.6620   32.5980   45.9460 C   0  0  0  0  0  0  0  0  0  0  0  0
   56.8634   32.7078   46.6945 H   0  0  0  0  0  0  0  0  0  0  0  0
   58.3140   31.2720   45.8020 C   0  0  0  0  0  0  0  0  0  0  0  0
   59.6020   31.0280   46.3210 C   0  0  0  0  0  0  0  0  0  0  0  0
   60.1462   31.8356   46.8325 H   0  0  0  0  0  0  0  0  0  0  0  0
   60.1920   29.7700   46.1910 C   0  0  0  0  0  0  0  0  0  0  0  0
   61.1998   29.5922   46.5944 H   0  0  0  0  0  0  0  0  0  0  0  0
   59.5070   28.7380   45.5510 C   0  0  0  0  0  0  0  0  0  0  0  0
   59.9767   27.7487   45.4473 H   0  0  0  0  0  0  0  0  0  0  0  0
   58.2270   28.9580   45.0420 C   0  0  0  0  0  0  0  0  0  0  0  0
   57.6904   28.1385   44.5415 H   0  0  0  0  0  0  0  0  0  0  0  0
   57.6160   30.2220   45.1640 C   0  0  0  0  0  0  0  0  0  0  0  0
   56.3290   30.4700   44.6550 O   0  0  0  0  0  0  0  0  0  0  0  0
   55.8620   30.0290   43.3860 C   0  0  0  0  0  0  0  0  0  0  0  0
   55.0689   29.2800   43.5272 H   0  0  0  0  0  0  0  0  0  0  0  0
   55.4613   30.8860   42.8247 H   0  0  0  0  0  0  0  0  0  0  0  0
   56.6946   29.5800   42.8247 H   0  0  0  0  0  0  0  0  0  0  0  0
  1  2  1  0
  2  3  1  0
  3  4  2  0
  3  5  1  0
  5  6  2  0
  6  7  1  0
  6  8  1  0
  8  9  1  0
  8 10  2  0
 10 11  1  0
 10 12  1  0
 12 13  1  0
 12 14  2  0
 14 15  1  0
  2 16  2  0
 16 17  1  0
 16 18  1  0
 18 19  2  0
 19 20  1  0
 19 21  1  0
 21 22  1  0
 21 23  2  0
 23 24  1  0
 23 25  1  0
 25 26  1  0
 25 27  2  0
 27 28  1  0
 28 29  1  0
 29 30  1  0
 29 31  1  0
 29 32  1  0
 14  5  1  0
 27 18  1  0
M  END
>  <UniqueID>  (85) 
78

>  <SMILES>  (85) 
COc1ccccc1/C=C/C(=O)c1ccccc1

>  <Energy>  (85) 
39.99596540267672

>  <Genealogy>  (85) 
COc1ccccc1/C=C/C(=O)c1ccccc1 (cis-trans isomerization)
COc1ccccc1/C=C/C(=O)c1ccccc1 (3D coordinates assigned)
COc1ccccc1/C=C/C(=O)c1ccccc1 (optimized conformer: 39.99596540267672 kcal/mol)

>  <smiles>  (85) 
COc1ccccc1C=CC(=O)c1ccccc1

>  <score_type>  (85) 
oracle

>  <origin>  (85) 
adg

>  <m_score__min__energy>  (85) 
-6.71

>  <m_primary>  (85) 
energy

$$$$
85:0
     RDKit          3D

 30 31  0  0  0  0  0  0  0  0999 V2000
   55.2590   29.3050   44.8630 O   0  0  0  0  0  0  0  0  0  0  0  0
   56.4260   29.7110   44.6230 C   0  0  0  0  0  0  0  0  0  0  0  0
   56.6460   31.1220   44.4990 N   0  0  0  0  0  0  0  0  0  0  0  0
   57.8640   31.7580   44.0040 C   0  0  0  0  0  0  0  0  0  0  0  0
   58.4460   32.6880   45.0420 C   0  0  0  0  0  0  0  0  0  0  0  0
   58.4000   34.0780   44.8310 C   0  0  0  0  0  0  0  0  0  0  0  0
   58.9300   34.9570   45.7790 C   0  0  0  0  0  0  0  0  0  0  0  0
   59.5220   34.4600   46.9410 C   0  0  0  0  0  0  0  0  0  0  0  0
   59.5940   33.0830   47.1540 C   0  0  0  0  0  0  0  0  0  0  0  0
   59.0640   32.1910   46.2120 C   0  0  0  0  0  0  0  0  0  0  0  0
   59.2380   30.3110   46.5580 Br  0  0  0  0  0  0  0  0  0  0  0  0
   57.5000   28.7690   44.4580 N   0  0  0  0  0  0  0  0  0  0  0  0
   57.3930   27.3690   44.7670 C   0  0  0  0  0  0  0  0  0  0  0  0
   56.8420   26.9750   45.9970 C   0  0  0  0  0  0  0  0  0  0  0  0
   56.7060   25.6200   46.3110 C   0  0  0  0  0  0  0  0  0  0  0  0
   57.1040   24.6450   45.3910 C   0  0  0  0  0  0  0  0  0  0  0  0
   57.6310   25.0250   44.1540 C   0  0  0  0  0  0  0  0  0  0  0  0
   57.7700   26.3800   43.8380 C   0  0  0  0  0  0  0  0  0  0  0  0
   58.6035   30.9805   43.7618 H   0  0  0  0  0  0  0  0  0  0  0  0
   57.6151   32.3440   43.1070 H   0  0  0  0  0  0  0  0  0  0  0  0
   57.9434   34.4759   43.9128 H   0  0  0  0  0  0  0  0  0  0  0  0
   58.8806   36.0427   45.6092 H   0  0  0  0  0  0  0  0  0  0  0  0
   59.9320   35.1542   47.6893 H   0  0  0  0  0  0  0  0  0  0  0  0
   60.0697   32.6952   48.0669 H   0  0  0  0  0  0  0  0  0  0  0  0
   58.3810   29.0880   44.0020 H   0  0  0  0  0  0  0  0  0  0  0  0
   56.5151   27.7383   46.7185 H   0  0  0  0  0  0  0  0  0  0  0  0
   56.2857   25.3203   47.2823 H   0  0  0  0  0  0  0  0  0  0  0  0
   57.0022   23.5787   45.6412 H   0  0  0  0  0  0  0  0  0  0  0  0
   57.9369   24.2574   43.4279 H   0  0  0  0  0  0  0  0  0  0  0  0
   58.1758   26.6749   42.8590 H   0  0  0  0  0  0  0  0  0  0  0  0
  1  2  2  0
  2  3  1  0
  3  4  1  0
  4  5  1  0
  5  6  2  0
  6  7  1  0
  7  8  2  0
  8  9  1  0
  9 10  2  0
 10 11  1  0
  2 12  1  0
 12 13  1  0
 13 14  2  0
 14 15  1  0
 15 16  2  0
 16 17  1  0
 17 18  2  0
 10  5  1  0
 18 13  1  0
  4 19  1  0
  4 20  1  0
  6 21  1  0
  7 22  1  0
  8 23  1  0
  9 24  1  0
 12 25  1  0
 14 26  1  0
 15 27  1  0
 16 28  1  0
 17 29  1  0
 18 30  1  0
M  CHG  1   3  -1
M  END
>  <UniqueID>  (86) 
79

>  <SMILES>  (86) 
O=C([N-]Cc1ccccc1Br)Nc1ccccc1

>  <Energy>  (86) 
33.874112504339394

>  <Genealogy>  (86) 
O=C([N-]Cc1ccccc1Br)Nc1ccccc1 (protonated)
O=C([N-]Cc1ccccc1Br)Nc1ccccc1 (3D coordinates assigned)
O=C([N-]Cc1ccccc1Br)Nc1ccccc1 (optimized conformer: 33.874112504339394 kcal/mol)

>  <smiles>  (86) 
O=C(NCc1ccccc1Br)Nc1ccccc1

>  <score_type>  (86) 
oracle

>  <origin>  (86) 
adg

>  <m_score__min__energy>  (86) 
-8.6400000000000006

>  <m_primary>  (86) 
energy

$$$$
86:0
     RDKit          3D

 27 28  0  0  0  0  0  0  0  0999 V2000
   56.6197   31.0023   42.0014 H   0  0  0  0  0  0  0  0  0  0  0  0
   57.0660   31.2200   42.9830 C   0  0  0  0  0  0  0  0  0  0  0  0
   56.8330   30.2420   44.0680 C   0  0  0  0  0  0  0  0  0  0  0  0
   55.6600   30.1230   44.5150 O   0  0  0  0  0  0  0  0  0  0  0  0
   57.9040   29.3690   44.6080 C   0  0  0  0  0  0  0  0  0  0  0  0
   57.8530   27.9720   44.4440 C   0  0  0  0  0  0  0  0  0  0  0  0
   57.0009   27.5140   43.9205 H   0  0  0  0  0  0  0  0  0  0  0  0
   58.8780   27.1630   44.9420 C   0  0  0  0  0  0  0  0  0  0  0  0
   58.8349   26.0730   44.8006 H   0  0  0  0  0  0  0  0  0  0  0  0
   59.9570   27.7360   45.6190 C   0  0  0  0  0  0  0  0  0  0  0  0
   60.7653   27.0982   46.0062 H   0  0  0  0  0  0  0  0  0  0  0  0
   60.0090   29.1190   45.8040 C   0  0  0  0  0  0  0  0  0  0  0  0
   60.8564   29.5693   46.3418 H   0  0  0  0  0  0  0  0  0  0  0  0
   58.9860   29.9330   45.3070 C   0  0  0  0  0  0  0  0  0  0  0  0
   59.0281   31.0209   45.4638 H   0  0  0  0  0  0  0  0  0  0  0  0
   57.7790   32.3530   43.1000 C   0  0  0  0  0  0  0  0  0  0  0  0
   58.2059   32.7803   42.1807 H   0  0  0  0  0  0  0  0  0  0  0  0
   58.0350   33.0710   44.3680 C   0  0  0  0  0  0  0  0  0  0  0  0
   57.1330   33.0180   45.4450 C   0  0  0  0  0  0  0  0  0  0  0  0
   56.2114   32.4235   45.3600 H   0  0  0  0  0  0  0  0  0  0  0  0
   57.3970   33.7000   46.5920 N   0  0  0  0  0  0  0  0  0  0  0  0
   58.5170   34.4560   46.7310 C   0  0  0  0  0  0  0  0  0  0  0  0
   58.7087   34.9853   47.6760 H   0  0  0  0  0  0  0  0  0  0  0  0
   59.4250   34.5620   45.6760 C   0  0  0  0  0  0  0  0  0  0  0  0
   60.3281   35.1813   45.7806 H   0  0  0  0  0  0  0  0  0  0  0  0
   59.1760   33.8750   44.4880 C   0  0  0  0  0  0  0  0  0  0  0  0
   59.8762   33.9646   43.6444 H   0  0  0  0  0  0  0  0  0  0  0  0
  1  2  1  0
  2  3  1  0
  3  4  2  0
  3  5  1  0
  5  6  2  0
  6  7  1  0
  6  8  1  0
  8  9  1  0
  8 10  2  0
 10 11  1  0
 10 12  1  0
 12 13  1  0
 12 14  2  0
 14 15  1  0
  2 16  2  0
 16 17  1  0
 16 18  1  0
 18 19  2  0
 19 20  1  0
 19 21  1  0
 21 22  2  0
 22 23  1  0
 22 24  1  0
 24 25  1  0
 24 26  2  0
 26 27  1  0
 14  5  1  0
 26 18  1  0
M  END
>  <UniqueID>  (87) 
80

>  <SMILES>  (87) 
O=C(/C=C\c1cccnc1)c1ccccc1

>  <Energy>  (87) 
39.017848367996216

>  <Genealogy>  (87) 
O=C(/C=C\c1cccnc1)c1ccccc1 (cis-trans isomerization)
O=C(/C=C\c1cccnc1)c1ccccc1 (3D coordinates assigned)
O=C(/C=C\c1cccnc1)c1ccccc1 (optimized conformer: 39.017848367996216 kcal/mol)

>  <smiles>  (87) 
O=C(C=Cc1cccnc1)c1ccccc1

>  <score_type>  (87) 
oracle

>  <origin>  (87) 
adg

>  <m_score__min__energy>  (87) 
-6.8600000000000003

>  <m_primary>  (87) 
energy

$$$$
87:0
     RDKit          3D

 30 32  0  0  0  0  0  0  0  0999 V2000
   58.1440   32.3480   47.8900 C   0  0  0  0  0  0  0  0  0  0  0  0
   58.2690   32.7350   46.4730 N   0  0  0  0  0  0  0  0  0  0  0  0
   58.8170   33.9570   46.1320 C   0  0  0  0  0  0  0  0  0  0  0  0
   59.2770   34.9580   47.1730 C   0  0  0  0  0  0  0  0  0  0  0  0
   60.3000   34.3700   48.0380 N   0  0  0  0  0  0  0  0  0  0  0  0
   60.2520   34.1920   49.3840 C   0  0  0  0  0  0  0  0  0  0  0  0
   61.4040   33.6840   49.9030 N   0  0  0  0  0  0  0  0  0  0  0  0
   62.1900   33.5610   48.8170 C   0  0  0  0  0  0  0  0  0  0  0  0
   63.4980   33.1060   48.7220 C   0  0  0  0  0  0  0  0  0  0  0  0
   64.3810   32.5610   50.1380 Cl  0  0  0  0  0  0  0  0  0  0  0  0
   64.0800   33.0990   47.4840 N   0  0  0  0  0  0  0  0  0  0  0  0
   63.3960   33.5300   46.3740 C   0  0  0  0  0  0  0  0  0  0  0  0
   62.1090   33.9780   46.4800 N   0  0  0  0  0  0  0  0  0  0  0  0
   61.5370   33.9770   47.7090 C   0  0  0  0  0  0  0  0  0  0  0  0
   58.9250   34.3230   44.7800 C   0  0  0  0  0  0  0  0  0  0  0  0
   58.5080   33.4450   43.7860 C   0  0  0  0  0  0  0  0  0  0  0  0
   57.9850   32.2070   44.1370 C   0  0  0  0  0  0  0  0  0  0  0  0
   57.8740   31.8590   45.4860 C   0  0  0  0  0  0  0  0  0  0  0  0
   57.4040   30.7240   45.7740 O   0  0  0  0  0  0  0  0  0  0  0  0
   58.4193   33.2003   48.5285 H   0  0  0  0  0  0  0  0  0  0  0  0
   57.1050   32.0535   48.0994 H   0  0  0  0  0  0  0  0  0  0  0  0
   58.8144   31.5014   48.0994 H   0  0  0  0  0  0  0  0  0  0  0  0
   59.6959   35.8398   46.6660 H   0  0  0  0  0  0  0  0  0  0  0  0
   58.4144   35.2476   47.7912 H   0  0  0  0  0  0  0  0  0  0  0  0
   59.3696   34.4343   49.9944 H   0  0  0  0  0  0  0  0  0  0  0  0
   65.0630   32.7630   47.3790 H   0  0  0  0  0  0  0  0  0  0  0  0
   63.8884   33.5146   45.3905 H   0  0  0  0  0  0  0  0  0  0  0  0
   59.3397   35.3048   44.5077 H   0  0  0  0  0  0  0  0  0  0  0  0
   58.5918   33.7293   42.7267 H   0  0  0  0  0  0  0  0  0  0  0  0
   57.6596   31.5035   43.3565 H   0  0  0  0  0  0  0  0  0  0  0  0
  1  2  1  0
  2  3  1  0
  3  4  1  0
  4  5  1  0
  5  6  1  0
  6  7  2  0
  7  8  1  0
  8  9  2  0
  9 10  1  0
  9 11  1  0
 11 12  2  0
 12 13  1  0
 13 14  2  0
  3 15  2  0
 15 16  1  0
 16 17  2  0
 17 18  1  0
 18 19  2  0
 18  2  1  0
 14  5  1  0
 14  8  1  0
  1 20  1  0
  1 21  1  0
  1 22  1  0
  4 23  1  0
  4 24  1  0
  6 25  1  0
 11 26  1  0
 12 27  1  0
 15 28  1  0
 16 29  1  0
 17 30  1  0
M  CHG  1  11   1
M  END
>  <UniqueID>  (88) 
81

>  <SMILES>  (88) 
Cn1c(Cn2cnc3c(Cl)[nH+]cnc32)cccc1=O

>  <Energy>  (88) 
77.31063477321801

>  <Genealogy>  (88) 
Cn1c(Cn2cnc3c(Cl)[nH+]cnc32)cccc1=O (protonated)
Cn1c(Cn2cnc3c(Cl)[nH+]cnc32)cccc1=O (3D coordinates assigned)
Cn1c(Cn2cnc3c(Cl)[nH+]cnc32)cccc1=O (optimized conformer: 77.31063477321801 kcal/mol)

>  <smiles>  (88) 
Cn1c(Cn2cnc3c(Cl)ncnc32)cccc1=O

>  <score_type>  (88) 
oracle

>  <origin>  (88) 
adg

>  <m_score__min__energy>  (88) 
-5.75

>  <m_primary>  (88) 
energy

$$$$
88:0
     RDKit          3D

 34 36  0  0  1  0  0  0  0  0999 V2000
   57.0230   30.5620   43.2430 C   0  0  0  0  0  0  0  0  0  0  0  0
   56.6590   31.2150   44.4930 N   0  0  0  0  0  0  0  0  0  0  0  0
   57.3710   32.1180   45.0460 C   0  0  0  0  0  0  0  0  0  0  0  0
   58.0520   31.8660   46.2410 C   0  0  0  0  0  0  0  0  0  0  0  0
   58.7840   32.8790   46.7600 C   0  0  0  0  0  0  0  0  0  0  0  0
   59.5430   32.7830   47.9790 N   0  0  0  0  0  0  0  0  0  0  0  0
   58.9620   32.3460   49.2250 C   0  0  0  0  0  0  0  0  0  0  0  0
   59.4870   32.9970   50.4470 C   0  0  0  0  0  0  0  0  0  0  0  0
   60.6910   33.8420   50.3280 C   0  0  0  0  0  0  0  0  0  0  0  0
   61.4850   33.6570   49.0860 C   0  0  0  0  0  0  0  0  0  0  0  0
   62.8210   34.0060   49.0550 C   0  0  0  0  0  0  0  0  0  0  0  0
   63.5640   33.8400   47.9030 C   0  0  0  0  0  0  0  0  0  0  0  0
   62.9710   33.3180   46.7640 C   0  0  0  0  0  0  0  0  0  0  0  0
   61.6370   32.9600   46.7640 C   0  0  0  0  0  0  0  0  0  0  0  0
   60.9210   33.1400   47.9330 C   0  0  0  0  0  0  0  0  0  0  0  0
   58.8500   34.0850   46.1410 N   0  0  0  0  0  0  0  0  0  0  0  0
   58.1920   34.3230   44.9880 C   0  0  0  0  0  0  0  0  0  0  0  0
   57.4690   33.3240   44.4750 N   0  0  0  0  0  0  0  0  0  0  0  0
   57.5480   29.6202   43.4606 H   0  0  0  0  0  0  0  0  0  0  0  0
   56.1135   30.3490   42.6622 H   0  0  0  0  0  0  0  0  0  0  0  0
   57.6825   31.2236   42.6622 H   0  0  0  0  0  0  0  0  0  0  0  0
   57.9951   30.8863   46.7379 H   0  0  0  0  0  0  0  0  0  0  0  0
   57.8801   32.5392   49.1785 H   0  0  0  0  0  0  0  0  0  0  0  0
   59.2242   31.2818   49.3186 H   0  0  0  0  0  0  0  0  0  0  0  0
   58.6829   33.6308   50.8493 H   0  0  0  0  0  0  0  0  0  0  0  0
   59.8055   32.1594   51.0850 H   0  0  0  0  0  0  0  0  0  0  0  0
   60.3720   34.8938   50.3722 H   0  0  0  0  0  0  0  0  0  0  0  0
   61.3517   33.5425   51.1549 H   0  0  0  0  0  0  0  0  0  0  0  0
   63.2974   34.4199   49.9560 H   0  0  0  0  0  0  0  0  0  0  0  0
   64.6271   34.1222   47.8891 H   0  0  0  0  0  0  0  0  0  0  0  0
   63.5693   33.1875   45.8502 H   0  0  0  0  0  0  0  0  0  0  0  0
   61.1600   32.5454   45.8637 H   0  0  0  0  0  0  0  0  0  0  0  0
   59.4080   34.8790   46.5230 H   0  0  0  0  0  0  0  0  0  0  0  0
   58.2486   35.3019   44.4895 H   0  0  0  0  0  0  0  0  0  0  0  0
  1  2  1  0
  2  3  2  0
  3  4  1  0
  4  5  2  0
  5  6  1  0
  6  7  1  0
  7  8  1  0
  8  9  1  0
  9 10  1  0
 10 11  2  0
 11 12  1  0
 12 13  2  0
 13 14  1  0
 14 15  2  0
  5 16  1  0
 16 17  1  0
 17 18  2  0
 18  3  1  0
 15  6  1  0
 15 10  1  0
  1 19  1  0
  1 20  1  0
  1 21  1  0
  4 22  1  0
  7 23  1  0
  7 24  1  0
  8 25  1  0
  8 26  1  0
  9 27  1  0
  9 28  1  0
 11 29  1  0
 12 30  1  0
 13 31  1  0
 14 32  1  0
 16 33  1  0
 17 34  1  0
M  END
>  <smiles>  (89) 
CN=c1cc(N2CCCc3ccccc32)[nH]cn1

>  <score_type>  (89) 
oracle

>  <origin>  (89) 
adg

>  <m_score__min__energy>  (89) 
-6.4199999999999999

>  <m_primary>  (89) 
energy

$$$$
89:0
     RDKit          3D

 36 39  0  0  0  0  0  0  0  0999 V2000
   58.4660   32.8710   43.6550 O   0  0  0  0  0  0  0  0  0  0  0  0
   57.8230   33.0610   45.0010 S   0  0  0  0  0  0  0  0  0  0  0  0
   56.8160   34.1720   44.9130 O   0  0  0  0  0  0  0  0  0  0  0  0
   57.0160   31.5970   45.4500 N   0  0  0  0  0  0  0  0  0  0  0  0
   57.3060   30.3290   44.8520 C   0  0  0  0  0  0  0  0  0  0  0  0
   56.7380   29.8010   43.7090 C   0  0  0  0  0  0  0  0  0  0  0  0
   57.2740   28.5900   43.4660 N   0  0  0  0  0  0  0  0  0  0  0  0
   58.1730   28.3410   44.4390 C   0  0  0  0  0  0  0  0  0  0  0  0
   58.2210   29.4060   45.3220 C   0  0  0  0  0  0  0  0  0  0  0  0
   59.0780   29.5230   46.5110 C   0  0  0  0  0  0  0  0  0  0  0  0
   58.9720   28.7100   47.5920 N   0  0  0  0  0  0  0  0  0  0  0  0
   59.8810   29.0380   48.5430 C   0  0  0  0  0  0  0  0  0  0  0  0
   60.0130   28.3830   49.7690 C   0  0  0  0  0  0  0  0  0  0  0  0
   61.0000   28.8240   50.6680 C   0  0  0  0  0  0  0  0  0  0  0  0
   61.8370   29.9080   50.3340 C   0  0  0  0  0  0  0  0  0  0  0  0
   61.6930   30.5610   49.0990 C   0  0  0  0  0  0  0  0  0  0  0  0
   60.7080   30.1050   48.2280 C   0  0  0  0  0  0  0  0  0  0  0  0
   60.3060   30.6780   46.7040 S   0  0  0  0  0  0  0  0  0  0  0  0
   59.0300   33.4750   46.2130 C   0  0  0  0  0  0  0  0  0  0  0  0
   60.3260   33.8350   45.8160 C   0  0  0  0  0  0  0  0  0  0  0  0
   61.2850   34.1750   46.7730 C   0  0  0  0  0  0  0  0  0  0  0  0
   60.9560   34.1550   48.1330 C   0  0  0  0  0  0  0  0  0  0  0  0
   62.1600   34.5840   49.3340 Cl  0  0  0  0  0  0  0  0  0  0  0  0
   59.6660   33.7920   48.5330 C   0  0  0  0  0  0  0  0  0  0  0  0
   58.7050   33.4510   47.5760 C   0  0  0  0  0  0  0  0  0  0  0  0
   55.9693   30.2922   43.0944 H   0  0  0  0  0  0  0  0  0  0  0  0
   57.0360   27.9590   42.6710 H   0  0  0  0  0  0  0  0  0  0  0  0
   58.7790   27.4265   44.5195 H   0  0  0  0  0  0  0  0  0  0  0  0
   59.3574   27.5381   50.0266 H   0  0  0  0  0  0  0  0  0  0  0  0
   61.1198   28.3199   51.6383 H   0  0  0  0  0  0  0  0  0  0  0  0
   62.6068   30.2441   51.0443 H   0  0  0  0  0  0  0  0  0  0  0  0
   62.3400   31.4083   48.8280 H   0  0  0  0  0  0  0  0  0  0  0  0
   60.5881   33.8497   44.7478 H   0  0  0  0  0  0  0  0  0  0  0  0
   62.2998   34.4587   46.4573 H   0  0  0  0  0  0  0  0  0  0  0  0
   59.4069   33.7747   49.6019 H   0  0  0  0  0  0  0  0  0  0  0  0
   57.6919   33.1634   47.8937 H   0  0  0  0  0  0  0  0  0  0  0  0
  1  2  2  0
  2  3  2  0
  2  4  1  0
  4  5  1  0
  5  6  2  0
  6  7  1  0
  7  8  1  0
  8  9  2  0
  9 10  1  0
 10 11  2  0
 11 12  1  0
 12 13  2  0
 13 14  1  0
 14 15  2  0
 15 16  1  0
 16 17  2  0
 17 18  1  0
  2 19  1  0
 19 20  2  0
 20 21  1  0
 21 22  2  0
 22 23  1  0
 22 24  1  0
 24 25  2  0
  9  5  1  0
 18 10  1  0
 25 19  1  0
 17 12  1  0
  6 26  1  0
  7 27  1  0
  8 28  1  0
 13 29  1  0
 14 30  1  0
 15 31  1  0
 16 32  1  0
 20 33  1  0
 21 34  1  0
 24 35  1  0
 25 36  1  0
M  CHG  1   4  -1
M  END
>  <UniqueID>  (90) 
82

>  <SMILES>  (90) 
O=S(=O)([N-]c1c[nH]cc1-c1nc2ccccc2s1)c1ccc(Cl)cc1

>  <Energy>  (90) 
103.17810673015207

>  <Genealogy>  (90) 
O=S(=O)([N-]c1c[nH]cc1-c1nc2ccccc2s1)c1ccc(Cl)cc1 (protonated)
O=S(=O)([N-]c1c[nH]cc1-c1nc2ccccc2s1)c1ccc(Cl)cc1 (3D coordinates assigned)
O=S(=O)([N-]c1c[nH]cc1-c1nc2ccccc2s1)c1ccc(Cl)cc1 (optimized conformer: 103.17810673015207 kcal/mol)

>  <smiles>  (90) 
O=S(=O)(Nc1c[nH]cc1-c1nc2ccccc2s1)c1ccc(Cl)cc1

>  <score_type>  (90) 
oracle

>  <origin>  (90) 
adg

>  <m_score__min__energy>  (90) 
-9.6699999999999999

>  <m_primary>  (90) 
energy

$$$$
90:0
     RDKit          3D

 53 57  0  0  0  0  0  0  0  0999 V2000
   65.2020   33.0600   49.3960 C   0  0  0  0  0  0  0  0  0  0  0  0
   63.8740   33.4050   48.8060 C   0  0  0  0  0  0  0  0  0  0  0  0
   63.5720   33.4600   47.1420 S   0  0  0  0  0  0  0  0  0  0  0  0
   61.9520   33.8370   47.3120 C   0  0  0  0  0  0  0  0  0  0  0  0
   61.0500   33.9790   46.3140 N   0  0  0  0  0  0  0  0  0  0  0  0
   59.7510   34.2430   46.6300 C   0  0  0  0  0  0  0  0  0  0  0  0
   58.7320   34.3570   45.5450 C   0  0  0  0  0  0  0  0  0  0  0  0
   57.2460   33.3700   45.9340 S   0  0  0  0  0  0  0  0  0  0  0  0
   57.7760   31.9080   45.0300 C   0  0  0  0  0  0  0  0  0  0  0  0
   57.3280   31.6010   43.7980 N   0  0  0  0  0  0  0  0  0  0  0  0
   57.9350   30.4760   43.4570 N   0  0  0  0  0  0  0  0  0  0  0  0
   58.7370   30.1020   44.4710 C   0  0  0  0  0  0  0  0  0  0  0  0
   59.5050   28.8070   44.4900 C   0  0  0  0  0  0  0  0  0  0  0  0
   58.9200   27.8160   45.4660 C   0  0  0  0  0  0  0  0  0  0  0  0
   57.5550   27.4850   45.4170 C   0  0  0  0  0  0  0  0  0  0  0  0
   57.0090   26.5930   46.3480 C   0  0  0  0  0  0  0  0  0  0  0  0
   57.8190   26.0320   47.3380 C   0  0  0  0  0  0  0  0  0  0  0  0
   59.1740   26.3660   47.4050 C   0  0  0  0  0  0  0  0  0  0  0  0
   59.7210   27.2620   46.4830 C   0  0  0  0  0  0  0  0  0  0  0  0
   58.6630   30.9930   45.4850 N   0  0  0  0  0  0  0  0  0  0  0  0
   59.2870   30.9350   46.7780 C   0  0  0  0  0  0  0  0  0  0  0  0
   60.6630   30.6840   46.8900 C   0  0  0  0  0  0  0  0  0  0  0  0
   61.2720   30.6340   48.1460 C   0  0  0  0  0  0  0  0  0  0  0  0
   60.5130   30.8380   49.3010 C   0  0  0  0  0  0  0  0  0  0  0  0
   61.1070   30.7940   50.5190 F   0  0  0  0  0  0  0  0  0  0  0  0
   59.1410   31.0890   49.1990 C   0  0  0  0  0  0  0  0  0  0  0  0
   58.5300   31.1360   47.9420 C   0  0  0  0  0  0  0  0  0  0  0  0
   59.3720   34.3510   47.9400 N   0  0  0  0  0  0  0  0  0  0  0  0
   60.2670   34.2060   48.9570 C   0  0  0  0  0  0  0  0  0  0  0  0
   59.8760   34.3050   50.1500 O   0  0  0  0  0  0  0  0  0  0  0  0
   61.6060   33.9320   48.6460 C   0  0  0  0  0  0  0  0  0  0  0  0
   62.6920   33.6880   49.5130 C   0  0  0  0  0  0  0  0  0  0  0  0
   62.5920   33.7010   51.0130 C   0  0  0  0  0  0  0  0  0  0  0  0
   65.1315   33.0783   50.4936 H   0  0  0  0  0  0  0  0  0  0  0  0
   65.5005   32.0545   49.0645 H   0  0  0  0  0  0  0  0  0  0  0  0
   65.9521   33.7931   49.0645 H   0  0  0  0  0  0  0  0  0  0  0  0
   58.4432   35.4124   45.4326 H   0  0  0  0  0  0  0  0  0  0  0  0
   59.1709   33.9752   44.6114 H   0  0  0  0  0  0  0  0  0  0  0  0
   57.7720   29.9640   42.5610 H   0  0  0  0  0  0  0  0  0  0  0  0
   59.4841   28.3671   43.4820 H   0  0  0  0  0  0  0  0  0  0  0  0
   60.5349   29.0279   44.8070 H   0  0  0  0  0  0  0  0  0  0  0  0
   56.9120   27.9292   44.6429 H   0  0  0  0  0  0  0  0  0  0  0  0
   55.9411   26.3338   46.2997 H   0  0  0  0  0  0  0  0  0  0  0  0
   57.3899   25.3270   48.0652 H   0  0  0  0  0  0  0  0  0  0  0  0
   59.8110   25.9229   48.1847 H   0  0  0  0  0  0  0  0  0  0  0  0
   60.7840   27.5364   46.5520 H   0  0  0  0  0  0  0  0  0  0  0  0
   61.2655   30.5257   45.9834 H   0  0  0  0  0  0  0  0  0  0  0  0
   62.3507   30.4337   48.2258 H   0  0  0  0  0  0  0  0  0  0  0  0
   58.5423   31.2495   50.1077 H   0  0  0  0  0  0  0  0  0  0  0  0
   57.4502   31.3316   47.8655 H   0  0  0  0  0  0  0  0  0  0  0  0
   63.5937   33.5708   51.4484 H   0  0  0  0  0  0  0  0  0  0  0  0
   62.1703   34.6615   51.3441 H   0  0  0  0  0  0  0  0  0  0  0  0
   61.9388   32.8802   51.3441 H   0  0  0  0  0  0  0  0  0  0  0  0
  1  2  1  0
  2  3  1  0
  3  4  1  0
  4  5  1  0
  5  6  1  0
  6  7  1  0
  7  8  1  0
  8  9  1  0
  9 10  2  0
 10 11  1  0
 11 12  2  0
 12 13  1  0
 13 14  1  0
 14 15  2  0
 15 16  1  0
 16 17  2  0
 17 18  1  0
 18 19  2  0
 12 20  1  0
 20 21  1  0
 21 22  2  0
 22 23  1  0
 23 24  2  0
 24 25  1  0
 24 26  1  0
 26 27  2  0
  6 28  2  0
 28 29  1  0
 29 30  2  0
 29 31  1  0
 31 32  1  0
 32 33  1  0
 32  2  2  0
 31  4  2  0
 20  9  1  0
 27 21  1  0
 19 14  1  0
  1 34  1  0
  1 35  1  0
  1 36  1  0
  7 37  1  0
  7 38  1  0
 11 39  1  0
 13 40  1  0
 13 41  1  0
 15 42  1  0
 16 43  1  0
 17 44  1  0
 18 45  1  0
 19 46  1  0
 22 47  1  0
 23 48  1  0
 26 49  1  0
 27 50  1  0
 33 51  1  0
 33 52  1  0
 33 53  1  0
M  CHG  2   5  -1  11   1
M  END
>  <UniqueID>  (91) 
83

>  <SMILES>  (91) 
Cc1sc2[n-]c(CSc3n[nH+]c(Cc4ccccc4)n3-c3ccc(F)cc3)nc(=O)c2c1C

>  <Energy>  (91) 
119.7842882633206

>  <Genealogy>  (91) 
Cc1sc2[n-]c(CSc3n[nH+]c(Cc4ccccc4)n3-c3ccc(F)cc3)nc(=O)c2c1C (protonated)
Cc1sc2[n-]c(CSc3n[nH+]c(Cc4ccccc4)n3-c3ccc(F)cc3)nc(=O)c2c1C (3D coordinates assigned)
Cc1sc2[n-]c(CSc3n[nH+]c(Cc4ccccc4)n3-c3ccc(F)cc3)nc(=O)c2c1C (optimized conformer: 119.7842882633206 kcal/mol)

>  <smiles>  (91) 
Cc1sc2[nH]c(CSc3nnc(Cc4ccccc4)n3-c3ccc(F)cc3)nc(=O)c2c1C

>  <score_type>  (91) 
oracle

>  <origin>  (91) 
adg

>  <m_score__min__energy>  (91) 
-9.8499999999999996

>  <m_primary>  (91) 
energy

$$$$
91:0
     RDKit          3D

 45 49  0  0  0  0  0  0  0  0999 V2000
   58.6040   25.3790   47.1760 O   0  0  0  0  0  0  0  0  0  0  0  0
   58.3800   26.4360   46.5240 C   0  0  0  0  0  0  0  0  0  0  0  0
   57.5330   26.4490   45.3970 C   0  0  0  0  0  0  0  0  0  0  0  0
   56.8340   25.2240   44.9340 C   0  0  0  0  0  0  0  0  0  0  0  0
   57.3030   24.5320   43.8040 C   0  0  0  0  0  0  0  0  0  0  0  0
   56.6430   23.3840   43.3540 C   0  0  0  0  0  0  0  0  0  0  0  0
   55.5080   22.9200   44.0240 C   0  0  0  0  0  0  0  0  0  0  0  0
   55.0290   23.6060   45.1430 C   0  0  0  0  0  0  0  0  0  0  0  0
   55.6860   24.7550   45.5970 C   0  0  0  0  0  0  0  0  0  0  0  0
   57.3730   27.6290   44.7110 N   0  0  0  0  0  0  0  0  0  0  0  0
   57.9830   28.7640   45.0940 N   0  0  0  0  0  0  0  0  0  0  0  0
   57.7860   29.9760   44.3400 C   0  0  0  0  0  0  0  0  0  0  0  0
   57.1940   29.9410   43.0650 C   0  0  0  0  0  0  0  0  0  0  0  0
   57.0150   31.1210   42.3370 C   0  0  0  0  0  0  0  0  0  0  0  0
   57.4300   32.3440   42.8720 C   0  0  0  0  0  0  0  0  0  0  0  0
   58.0270   32.3880   44.1350 C   0  0  0  0  0  0  0  0  0  0  0  0
   58.5970   34.0600   44.8640 Br  0  0  0  0  0  0  0  0  0  0  0  0
   58.2080   31.2090   44.8660 C   0  0  0  0  0  0  0  0  0  0  0  0
   58.7930   28.7330   46.1900 C   0  0  0  0  0  0  0  0  0  0  0  0
   59.5040   29.7710   46.6740 N   0  0  0  0  0  0  0  0  0  0  0  0
   60.1600   29.2350   47.7360 C   0  0  0  0  0  0  0  0  0  0  0  0
   61.0820   30.0120   48.6010 C   0  0  0  0  0  0  0  0  0  0  0  0
   61.8140   31.0860   48.0580 C   0  0  0  0  0  0  0  0  0  0  0  0
   62.6850   31.8280   48.8600 C   0  0  0  0  0  0  0  0  0  0  0  0
   62.8400   31.5080   50.2110 C   0  0  0  0  0  0  0  0  0  0  0  0
   62.1210   30.4450   50.7620 C   0  0  0  0  0  0  0  0  0  0  0  0
   61.2460   29.7000   49.9640 C   0  0  0  0  0  0  0  0  0  0  0  0
   59.8350   27.8880   47.8610 C   0  0  0  0  0  0  0  0  0  0  0  0
   58.9750   27.6000   46.8730 N   0  0  0  0  0  0  0  0  0  0  0  0
   58.1939   24.8953   43.2708 H   0  0  0  0  0  0  0  0  0  0  0  0
   57.0180   22.8455   42.4712 H   0  0  0  0  0  0  0  0  0  0  0  0
   54.9919   22.0151   43.6707 H   0  0  0  0  0  0  0  0  0  0  0  0
   54.1336   23.2421   45.6681 H   0  0  0  0  0  0  0  0  0  0  0  0
   55.3029   25.2937   46.4762 H   0  0  0  0  0  0  0  0  0  0  0  0
   56.7310   27.6470   43.8870 H   0  0  0  0  0  0  0  0  0  0  0  0
   56.8701   28.9803   42.6383 H   0  0  0  0  0  0  0  0  0  0  0  0
   56.5471   31.0871   41.3421 H   0  0  0  0  0  0  0  0  0  0  0  0
   57.2867   33.2719   42.2989 H   0  0  0  0  0  0  0  0  0  0  0  0
   58.6830   31.2473   45.8574 H   0  0  0  0  0  0  0  0  0  0  0  0
   61.6991   31.3425   46.9945 H   0  0  0  0  0  0  0  0  0  0  0  0
   63.2501   32.6663   48.4265 H   0  0  0  0  0  0  0  0  0  0  0  0
   63.5275   32.0925   50.8400 H   0  0  0  0  0  0  0  0  0  0  0  0
   62.2429   30.1929   51.8258 H   0  0  0  0  0  0  0  0  0  0  0  0
   60.6822   28.8646   50.4047 H   0  0  0  0  0  0  0  0  0  0  0  0
   60.2117   27.1918   48.6248 H   0  0  0  0  0  0  0  0  0  0  0  0
  1  2  2  0
  2  3  1  0
  3  4  1  0
  4  5  2  0
  5  6  1  0
  6  7  2  0
  7  8  1  0
  8  9  2  0
  3 10  2  0
 10 11  1  0
 11 12  1  0
 12 13  2  0
 13 14  1  0
 14 15  2  0
 15 16  1  0
 16 17  1  0
 16 18  2  0
 11 19  1  0
 19 20  2  0
 20 21  1  0
 21 22  1  0
 22 23  2  0
 23 24  1  0
 24 25  2  0
 25 26  1  0
 26 27  2  0
 21 28  2  0
 28 29  1  0
 29  2  1  0
  9  4  1  0
 18 12  1  0
 29 19  1  0
 27 22  1  0
  5 30  1  0
  6 31  1  0
  7 32  1  0
  8 33  1  0
  9 34  1  0
 10 35  1  0
 13 36  1  0
 14 37  1  0
 15 38  1  0
 18 39  1  0
 23 40  1  0
 24 41  1  0
 25 42  1  0
 26 43  1  0
 27 44  1  0
 28 45  1  0
M  CHG  1  10   1
M  END
>  <UniqueID>  (92) 
84

>  <SMILES>  (92) 
O=c1c(-c2ccccc2)[nH+]n(-c2cccc(Br)c2)c2nc(-c3ccccc3)cn12

>  <Energy>  (92) 
102.67182807348135

>  <Genealogy>  (92) 
O=c1c(-c2ccccc2)[nH+]n(-c2cccc(Br)c2)c2nc(-c3ccccc3)cn12 (protonated)
O=c1c(-c2ccccc2)[nH+]n(-c2cccc(Br)c2)c2nc(-c3ccccc3)cn12 (3D coordinates assigned)
O=c1c(-c2ccccc2)[nH+]n(-c2cccc(Br)c2)c2nc(-c3ccccc3)cn12 (optimized conformer: 102.67182807348135 kcal/mol)

>  <smiles>  (92) 
O=c1c(-c2ccccc2)nn(-c2cccc(Br)c2)c2nc(-c3ccccc3)cn12

>  <score_type>  (92) 
oracle

>  <origin>  (92) 
adg

>  <m_score__min__energy>  (92) 
-7.3099999999999996

>  <m_primary>  (92) 
energy

$$$$
92:0
     RDKit          3D

 37 39  0  0  0  0  0  0  0  0999 V2000
   56.1842   29.6147   42.8870 H   0  0  0  0  0  0  0  0  0  0  0  0
   56.6390   29.6990   43.8850 C   0  0  0  0  0  0  0  0  0  0  0  0
   56.5810   28.6570   44.6680 N   0  0  0  0  0  0  0  0  0  0  0  0
   57.6890   27.9340   45.2280 C   0  0  0  0  0  0  0  0  0  0  0  0
   58.9730   28.4700   45.0550 C   0  0  0  0  0  0  0  0  0  0  0  0
   59.1059   29.3850   44.4591 H   0  0  0  0  0  0  0  0  0  0  0  0
   60.0840   27.8530   45.6320 C   0  0  0  0  0  0  0  0  0  0  0  0
   61.0854   28.2882   45.4990 H   0  0  0  0  0  0  0  0  0  0  0  0
   59.9250   26.6850   46.3770 C   0  0  0  0  0  0  0  0  0  0  0  0
   60.7990   26.2099   46.8464 H   0  0  0  0  0  0  0  0  0  0  0  0
   58.6590   26.1180   46.5280 C   0  0  0  0  0  0  0  0  0  0  0  0
   58.5437   25.1944   47.1142 H   0  0  0  0  0  0  0  0  0  0  0  0
   57.5270   26.7140   45.9390 C   0  0  0  0  0  0  0  0  0  0  0  0
   56.2200   26.0250   46.0510 C   0  0  0  0  0  0  0  0  0  0  0  0
   55.1550   26.7010   46.0320 O   0  0  0  0  0  0  0  0  0  0  0  0
   56.1660   24.6080   46.2710 N   0  0  0  0  0  0  0  0  0  0  0  0
   56.4680   23.5780   45.3200 C   0  0  0  0  0  0  0  0  0  0  0  0
   56.8330   22.2760   45.7150 C   0  0  0  0  0  0  0  0  0  0  0  0
   56.9210   22.0313   46.7838 H   0  0  0  0  0  0  0  0  0  0  0  0
   57.0840   21.2930   44.7510 C   0  0  0  0  0  0  0  0  0  0  0  0
   57.3762   20.2795   45.0632 H   0  0  0  0  0  0  0  0  0  0  0  0
   56.9640   21.5970   43.3930 C   0  0  0  0  0  0  0  0  0  0  0  0
   57.1696   20.8250   42.6369 H   0  0  0  0  0  0  0  0  0  0  0  0
   56.5830   22.8810   42.9940 C   0  0  0  0  0  0  0  0  0  0  0  0
   56.4829   23.1177   41.9244 H   0  0  0  0  0  0  0  0  0  0  0  0
   56.3290   23.8650   43.9550 C   0  0  0  0  0  0  0  0  0  0  0  0
   56.0180   24.8712   43.6374 H   0  0  0  0  0  0  0  0  0  0  0  0
   57.2730   30.9850   44.2450 C   0  0  0  0  0  0  0  0  0  0  0  0
   57.3580   31.3190   45.5620 N   0  0  0  0  0  0  0  0  0  0  0  0
   57.9150   32.4870   45.9770 C   0  0  0  0  0  0  0  0  0  0  0  0
   57.9765   32.7160   47.0511 H   0  0  0  0  0  0  0  0  0  0  0  0
   58.4090   33.3960   45.0400 C   0  0  0  0  0  0  0  0  0  0  0  0
   58.8736   34.3370   45.3696 H   0  0  0  0  0  0  0  0  0  0  0  0
   58.3070   33.0980   43.6810 C   0  0  0  0  0  0  0  0  0  0  0  0
   58.6812   33.8103   42.9309 H   0  0  0  0  0  0  0  0  0  0  0  0
   57.7290   31.8940   43.2750 C   0  0  0  0  0  0  0  0  0  0  0  0
   57.6313   31.6587   42.2049 H   0  0  0  0  0  0  0  0  0  0  0  0
  1  2  1  0
  2  3  2  0
  3  4  1  0
  4  5  2  0
  5  6  1  0
  5  7  1  0
  7  8  1  0
  7  9  2  0
  9 10  1  0
  9 11  1  0
 11 12  1  0
 11 13  2  0
 13 14  1  0
 14 15  2  0
 14 16  1  0
 16 17  1  0
 17 18  2  0
 18 19  1  0
 18 20  1  0
 20 21  1  0
 20 22  2  0
 22 23  1  0
 22 24  1  0
 24 25  1  0
 24 26  2  0
 26 27  1  0
  2 28  1  0
 28 29  2  0
 29 30  1  0
 30 31  1  0
 30 32  2  0
 32 33  1  0
 32 34  1  0
 34 35  1  0
 34 36  2  0
 36 37  1  0
 13  4  1  0
 26 17  1  0
 36 28  1  0
M  CHG  1  16  -1
M  END
>  <UniqueID>  (93) 
85

>  <SMILES>  (93) 
O=C([N-]c1ccccc1)c1ccccc1/N=C\c1ccccn1

>  <Energy>  (93) 
58.397447843980444

>  <Genealogy>  (93) 
O=C([N-]c1ccccc1)c1ccccc1N=Cc1ccccn1 (protonated)
O=C([N-]c1ccccc1)c1ccccc1/N=C\c1ccccn1 (cis-trans isomerization)
O=C([N-]c1ccccc1)c1ccccc1/N=C\c1ccccn1 (3D coordinates assigned)
O=C([N-]c1ccccc1)c1ccccc1/N=C\c1ccccn1 (optimized conformer: 58.397447843980444 kcal/mol)

>  <smiles>  (93) 
O=C(Nc1ccccc1)c1ccccc1N=Cc1ccccn1

>  <score_type>  (93) 
oracle

>  <origin>  (93) 
adg

>  <m_score__min__energy>  (93) 
-10.25

>  <m_primary>  (93) 
energy

$$$$
93:0
     RDKit          3D

 49 52  0  0  0  0  0  0  0  0999 V2000
   59.2730   35.0020   45.1430 C   0  0  0  0  0  0  0  0  0  0  0  0
   59.6270   33.7710   45.7630 O   0  0  0  0  0  0  0  0  0  0  0  0
   58.7950   33.1180   46.6790 C   0  0  0  0  0  0  0  0  0  0  0  0
   58.1050   33.7970   47.4890 O   0  0  0  0  0  0  0  0  0  0  0  0
   58.7360   31.6340   46.6900 C   0  0  0  0  0  0  0  0  0  0  0  0
   57.9400   30.9760   45.7280 C   0  0  0  0  0  0  0  0  0  0  0  0
   57.8810   29.5880   45.7360 C   0  0  0  0  0  0  0  0  0  0  0  0
   57.0200   28.5940   44.6980 S   0  0  0  0  0  0  0  0  0  0  0  0
   57.5340   27.1430   45.4010 C   0  0  0  0  0  0  0  0  0  0  0  0
   57.1380   25.8090   44.9030 C   0  0  0  0  0  0  0  0  0  0  0  0
   57.4040   25.4270   43.5780 C   0  0  0  0  0  0  0  0  0  0  0  0
   57.0140   24.1690   43.1110 C   0  0  0  0  0  0  0  0  0  0  0  0
   56.3380   23.2740   43.9630 C   0  0  0  0  0  0  0  0  0  0  0  0
   55.9310   21.9990   43.5440 O   0  0  0  0  0  0  0  0  0  0  0  0
   56.8100   20.9990   43.0400 C   0  0  0  0  0  0  0  0  0  0  0  0
   56.0540   23.6660   45.2750 C   0  0  0  0  0  0  0  0  0  0  0  0
   56.4440   24.9240   45.7420 C   0  0  0  0  0  0  0  0  0  0  0  0
   58.3750   27.4340   46.4910 C   0  0  0  0  0  0  0  0  0  0  0  0
   58.9770   26.3960   47.3980 C   0  0  0  0  0  0  0  0  0  0  0  0
   58.5770   28.8200   46.6520 C   0  0  0  0  0  0  0  0  0  0  0  0
   59.3810   29.4480   47.6090 C   0  0  0  0  0  0  0  0  0  0  0  0
   59.4500   30.8590   47.6500 C   0  0  0  0  0  0  0  0  0  0  0  0
   60.2590   31.4990   48.6030 O   0  0  0  0  0  0  0  0  0  0  0  0
   61.4070   32.2550   48.3220 C   0  0  0  0  0  0  0  0  0  0  0  0
   61.6220   33.4400   49.0370 C   0  0  0  0  0  0  0  0  0  0  0  0
   62.7590   34.2160   48.7940 C   0  0  0  0  0  0  0  0  0  0  0  0
   63.6960   33.8070   47.8420 C   0  0  0  0  0  0  0  0  0  0  0  0
   63.5020   32.6150   47.1390 C   0  0  0  0  0  0  0  0  0  0  0  0
   62.3670   31.8350   47.3810 C   0  0  0  0  0  0  0  0  0  0  0  0
   59.0569   35.7534   45.9167 H   0  0  0  0  0  0  0  0  0  0  0  0
   60.1074   35.3503   44.5165 H   0  0  0  0  0  0  0  0  0  0  0  0
   58.3811   34.8538   44.5165 H   0  0  0  0  0  0  0  0  0  0  0  0
   57.3743   31.5540   44.9824 H   0  0  0  0  0  0  0  0  0  0  0  0
   57.9231   26.1232   42.9028 H   0  0  0  0  0  0  0  0  0  0  0  0
   57.2358   23.8766   42.0740 H   0  0  0  0  0  0  0  0  0  0  0  0
   57.2788   20.4657   43.8801 H   0  0  0  0  0  0  0  0  0  0  0  0
   56.2406   20.2864   42.4252 H   0  0  0  0  0  0  0  0  0  0  0  0
   57.5898   21.4723   42.4252 H   0  0  0  0  0  0  0  0  0  0  0  0
   55.5187   22.9777   45.9456 H   0  0  0  0  0  0  0  0  0  0  0  0
   56.2055   25.2223   46.7736 H   0  0  0  0  0  0  0  0  0  0  0  0
   58.8100   26.6839   48.4464 H   0  0  0  0  0  0  0  0  0  0  0  0
   58.5037   25.4219   47.2054 H   0  0  0  0  0  0  0  0  0  0  0  0
   60.0576   26.3231   47.2054 H   0  0  0  0  0  0  0  0  0  0  0  0
   59.9573   28.8459   48.3269 H   0  0  0  0  0  0  0  0  0  0  0  0
   60.8919   33.7619   49.7942 H   0  0  0  0  0  0  0  0  0  0  0  0
   62.9162   35.1501   49.3532 H   0  0  0  0  0  0  0  0  0  0  0  0
   64.5860   34.4229   47.6459 H   0  0  0  0  0  0  0  0  0  0  0  0
   64.2432   32.2898   46.3941 H   0  0  0  0  0  0  0  0  0  0  0  0
   62.2236   30.8909   46.8350 H   0  0  0  0  0  0  0  0  0  0  0  0
  1  2  1  0
  2  3  1  0
  3  4  2  0
  3  5  1  0
  5  6  2  0
  6  7  1  0
  7  8  1  0
  8  9  1  0
  9 10  1  0
 10 11  2  0
 11 12  1  0
 12 13  2  0
 13 14  1  0
 14 15  1  0
 13 16  1  0
 16 17  2  0
  9 18  2  0
 18 19  1  0
 18 20  1  0
 20 21  1  0
 21 22  2  0
 22 23  1  0
 23 24  1  0
 24 25  2  0
 25 26  1  0
 26 27  2  0
 27 28  1  0
 28 29  2  0
 22  5  1  0
 29 24  1  0
 20  7  2  0
 17 10  1  0
  1 30  1  0
  1 31  1  0
  1 32  1  0
  6 33  1  0
 11 34  1  0
 12 35  1  0
 15 36  1  0
 15 37  1  0
 15 38  1  0
 16 39  1  0
 17 40  1  0
 19 41  1  0
 19 42  1  0
 19 43  1  0
 21 44  1  0
 25 45  1  0
 26 46  1  0
 27 47  1  0
 28 48  1  0
 29 49  1  0
M  END
>  <UniqueID>  (94) 
86

>  <SMILES>  (94) 
COC(=O)c1cc2sc(-c3ccc(OC)cc3)c(C)c2cc1Oc1ccccc1

>  <Energy>  (94) 
94.75201829470585

>  <Genealogy>  (94) 
COC(=O)c1cc2sc(-c3ccc(OC)cc3)c(C)c2cc1Oc1ccccc1 (3D coordinates assigned)
COC(=O)c1cc2sc(-c3ccc(OC)cc3)c(C)c2cc1Oc1ccccc1 (optimized conformer: 94.75201829470585 kcal/mol)

>  <smiles>  (94) 
COC(=O)c1cc2sc(-c3ccc(OC)cc3)c(C)c2cc1Oc1ccccc1

>  <score_type>  (94) 
oracle

>  <origin>  (94) 
adg

>  <m_score__min__energy>  (94) 
-8.0199999999999996

>  <m_primary>  (94) 
energy

$$$$
94:0
     RDKit          3D

 31 33  0  0  0  0  0  0  0  0999 V2000
   55.7200   29.0330   45.2440 O   0  0  0  0  0  0  0  0  0  0  0  0
   56.7210   29.7120   44.8950 C   0  0  0  0  0  0  0  0  0  0  0  0
   58.0760   29.0490   44.8660 C   0  0  0  0  0  0  0  0  0  0  0  0
   58.8810   29.4030   46.0790 C   0  0  0  0  0  0  0  0  0  0  0  0
   58.8870   28.6380   47.2430 C   0  0  0  0  0  0  0  0  0  0  0  0
   60.0040   29.3200   48.2990 S   0  0  0  0  0  0  0  0  0  0  0  0
   60.4250   30.5560   47.2390 C   0  0  0  0  0  0  0  0  0  0  0  0
   61.4490   31.5770   47.4850 C   0  0  0  0  0  0  0  0  0  0  0  0
   61.6140   32.7510   46.7600 C   0  0  0  0  0  0  0  0  0  0  0  0
   62.6940   33.5260   47.2030 C   0  0  0  0  0  0  0  0  0  0  0  0
   63.3800   32.9660   48.2730 C   0  0  0  0  0  0  0  0  0  0  0  0
   62.6440   31.5070   48.6680 S   0  0  0  0  0  0  0  0  0  0  0  0
   59.7330   30.4640   46.0830 N   0  0  0  0  0  0  0  0  0  0  0  0
   56.5240   31.0760   44.4930 N   0  0  0  0  0  0  0  0  0  0  0  0
   57.3340   32.1900   44.8850 C   0  0  0  0  0  0  0  0  0  0  0  0
   58.0920   32.8590   43.9170 C   0  0  0  0  0  0  0  0  0  0  0  0
   58.9140   33.9290   44.2830 C   0  0  0  0  0  0  0  0  0  0  0  0
   58.9640   34.3520   45.6150 C   0  0  0  0  0  0  0  0  0  0  0  0
   60.0040   35.6880   46.0740 Cl  0  0  0  0  0  0  0  0  0  0  0  0
   58.1810   33.7090   46.5800 C   0  0  0  0  0  0  0  0  0  0  0  0
   57.3620   32.6350   46.2170 C   0  0  0  0  0  0  0  0  0  0  0  0
   57.9405   27.9579   44.8317 H   0  0  0  0  0  0  0  0  0  0  0  0
   58.6164   29.4020   43.9753 H   0  0  0  0  0  0  0  0  0  0  0  0
   58.2713   27.7473   47.4368 H   0  0  0  0  0  0  0  0  0  0  0  0
   60.9626   33.0424   45.9229 H   0  0  0  0  0  0  0  0  0  0  0  0
   62.9723   34.4873   46.7464 H   0  0  0  0  0  0  0  0  0  0  0  0
   64.2554   33.4026   48.7761 H   0  0  0  0  0  0  0  0  0  0  0  0
   58.0408   32.5419   42.8650 H   0  0  0  0  0  0  0  0  0  0  0  0
   59.5226   34.4391   43.5218 H   0  0  0  0  0  0  0  0  0  0  0  0
   58.2096   34.0488   47.6258 H   0  0  0  0  0  0  0  0  0  0  0  0
   56.7391   32.1382   46.9754 H   0  0  0  0  0  0  0  0  0  0  0  0
  1  2  2  0
  2  3  1  0
  3  4  1  0
  4  5  2  0
  5  6  1  0
  6  7  1  0
  7  8  1  0
  8  9  2  0
  9 10  1  0
 10 11  2  0
 11 12  1  0
  7 13  2  0
  2 14  1  0
 14 15  1  0
 15 16  2  0
 16 17  1  0
 17 18  2  0
 18 19  1  0
 18 20  1  0
 20 21  2  0
 13  4  1  0
 21 15  1  0
 12  8  1  0
  3 22  1  0
  3 23  1  0
  5 24  1  0
  9 25  1  0
 10 26  1  0
 11 27  1  0
 16 28  1  0
 17 29  1  0
 20 30  1  0
 21 31  1  0
M  CHG  1  14  -1
M  END
>  <UniqueID>  (95) 
87

>  <SMILES>  (95) 
O=C(Cc1csc(-c2cccs2)n1)[N-]c1ccc(Cl)cc1

>  <Energy>  (95) 
88.39222067497802

>  <Genealogy>  (95) 
O=C(Cc1csc(-c2cccs2)n1)[N-]c1ccc(Cl)cc1 (protonated)
O=C(Cc1csc(-c2cccs2)n1)[N-]c1ccc(Cl)cc1 (3D coordinates assigned)
O=C(Cc1csc(-c2cccs2)n1)[N-]c1ccc(Cl)cc1 (optimized conformer: 88.39222067497802 kcal/mol)

>  <smiles>  (95) 
O=C(Cc1csc(-c2cccs2)n1)Nc1ccc(Cl)cc1

>  <score_type>  (95) 
oracle

>  <origin>  (95) 
adg

>  <m_score__min__energy>  (95) 
-9.4199999999999999

>  <m_primary>  (95) 
energy

$$$$
