0:0
     RDKit          3D

 31 33  0  0  0  0  0  0  0  0999 V2000
   59.3537   35.4426   44.4921 H   0  0  0  0  0  0  0  0  0  0  0  0
   58.9630   34.5150   44.9360 C   0  0  0  0  0  0  0  0  0  0  0  0
   59.1380   34.2670   46.3000 C   0  0  0  0  0  0  0  0  0  0  0  0
   59.6654   34.9995   46.9288 H   0  0  0  0  0  0  0  0  0  0  0  0
   58.6430   33.0880   46.8660 C   0  0  0  0  0  0  0  0  0  0  0  0
   58.8540   32.7830   48.5810 Cl  0  0  0  0  0  0  0  0  0  0  0  0
   57.9750   32.1550   46.0670 C   0  0  0  0  0  0  0  0  0  0  0  0
   57.5873   31.2281   46.5147 H   0  0  0  0  0  0  0  0  0  0  0  0
   57.7970   32.3970   44.6940 C   0  0  0  0  0  0  0  0  0  0  0  0
   57.0470   31.4150   43.8320 C   0  0  0  0  0  0  0  0  0  0  0  0
   57.7587   30.8927   43.1757 H   0  0  0  0  0  0  0  0  0  0  0  0
   56.3073   31.9635   43.2304 H   0  0  0  0  0  0  0  0  0  0  0  0
   56.3470   30.4330   44.6610 N   0  0  0  0  0  0  0  0  0  0  0  0
   56.8850   29.3530   45.1500 C   0  0  0  0  0  0  0  0  0  0  0  0
   58.1780   29.3530   45.5750 N   0  0  0  0  0  0  0  0  0  0  0  0
   58.7500   28.2390   46.0960 C   0  0  0  0  0  0  0  0  0  0  0  0
   60.0790   28.2740   46.5320 C   0  0  0  0  0  0  0  0  0  0  0  0
   60.6603   29.2043   46.4505 H   0  0  0  0  0  0  0  0  0  0  0  0
   60.6680   27.1270   47.0710 C   0  0  0  0  0  0  0  0  0  0  0  0
   61.7127   27.1561   47.4142 H   0  0  0  0  0  0  0  0  0  0  0  0
   59.9320   25.9420   47.1750 C   0  0  0  0  0  0  0  0  0  0  0  0
   60.3998   25.0414   47.5993 H   0  0  0  0  0  0  0  0  0  0  0  0
   58.6030   25.8990   46.7410 C   0  0  0  0  0  0  0  0  0  0  0  0
   58.0277   24.9651   46.8237 H   0  0  0  0  0  0  0  0  0  0  0  0
   58.0020   27.0490   46.1990 C   0  0  0  0  0  0  0  0  0  0  0  0
   56.6710   27.0670   45.7510 C   0  0  0  0  0  0  0  0  0  0  0  0
   55.9550   26.0290   45.8180 O   0  0  0  0  0  0  0  0  0  0  0  0
   56.1440   28.2140   45.2380 N   0  0  0  0  0  0  0  0  0  0  0  0
   55.1510   28.2170   44.9090 H   0  0  0  0  0  0  0  0  0  0  0  0
   58.2920   33.5860   44.1340 C   0  0  0  0  0  0  0  0  0  0  0  0
   58.1516   33.7873   43.0617 H   0  0  0  0  0  0  0  0  0  0  0  0
  1  2  1  0
  2  3  2  0
  3  4  1  0
  3  5  1  0
  5  6  1  0
  5  7  2  0
  7  8  1  0
  7  9  1  0
  9 10  1  0
 10 11  1  0
 10 12  1  0
 10 13  1  0
 13 14  2  0
 14 15  1  0
 15 16  1  0
 16 17  2  0
 17 18  1  0
 17 19  1  0
 19 20  1  0
 19 21  2  0
 21 22  1  0
 21 23  1  0
 23 24  1  0
 23 25  2  0
 25 26  1  0
 26 27  2  0
 26 28  1  0
 28 29  1  0
  9 30  2  0
 30 31  1  0
 30  2  1  0
 28 14  1  0
 25 16  1  0
M  CHG  1  15  -1
M  END
>  <UniqueID>  (1) 
1

>  <SMILES>  (1) 
O=c1[nH]/c(=N/Cc2cccc(Cl)c2)[n-]c2ccccc12

>  <Energy>  (1) 
36.86480166812211

>  <Genealogy>  (1) 
O=c1[nH]c(=NCc2cccc(Cl)c2)[n-]c2ccccc12 (protonated)
O=c1[nH]/c(=N/Cc2cccc(Cl)c2)[n-]c2ccccc12 (cis-trans isomerization)
O=c1[nH]/c(=N/Cc2cccc(Cl)c2)[n-]c2ccccc12 (3D coordinates assigned)
O=c1[nH]/c(=N/Cc2cccc(Cl)c2)[n-]c2ccccc12 (optimized conformer: 36.86480166812211 kcal/mol)

>  <smiles>  (1) 
O=c1[nH]c(=NCc2cccc(Cl)c2)[nH]c2ccccc12

>  <score_type>  (1) 
oracle

>  <origin>  (1) 
adg

>  <m_score__min__energy>  (1) 
-9.7400000000000002

>  <m_primary>  (1) 
energy

$$$$
1:0
     RDKit          3D

 47 49  0  0  0  0  0  0  0  0999 V2000
   62.4990   32.4030   47.4630 C   0  0  0  0  0  0  0  0  0  0  0  0
   61.5000   33.4460   47.8580 C   0  0  0  0  0  0  0  0  0  0  0  0
   61.8040   34.2650   48.7660 O   0  0  0  0  0  0  0  0  0  0  0  0
   60.2010   33.5760   47.1500 C   0  0  0  0  0  0  0  0  0  0  0  0
   60.1230   34.4150   46.0230 C   0  0  0  0  0  0  0  0  0  0  0  0
   58.9070   34.6260   45.3720 C   0  0  0  0  0  0  0  0  0  0  0  0
   57.7490   34.0050   45.8350 C   0  0  0  0  0  0  0  0  0  0  0  0
   57.8050   33.1590   46.9420 C   0  0  0  0  0  0  0  0  0  0  0  0
   59.0230   32.9250   47.6100 C   0  0  0  0  0  0  0  0  0  0  0  0
   59.0490   31.9410   48.7210 C   0  0  0  0  0  0  0  0  0  0  0  0
   58.2140   32.0710   49.8290 C   0  0  0  0  0  0  0  0  0  0  0  0
   58.2620   31.1370   50.8090 N   0  0  0  0  0  0  0  0  0  0  0  0
   59.0930   30.0610   50.7630 C   0  0  0  0  0  0  0  0  0  0  0  0
   59.0400   29.2420   51.7680 N   0  0  0  0  0  0  0  0  0  0  0  0
   59.9540   29.9180   49.6250 C   0  0  0  0  0  0  0  0  0  0  0  0
   60.8130   28.9560   49.4140 N   0  0  0  0  0  0  0  0  0  0  0  0
   60.6930   27.5010   49.4150 C   0  0  0  0  0  0  0  0  0  0  0  0
   60.7480   26.9800   47.9770 C   0  0  0  0  0  0  0  0  0  0  0  0
   59.7580   27.6950   47.0930 C   0  0  0  0  0  0  0  0  0  0  0  0
   58.3970   27.3560   47.1380 C   0  0  0  0  0  0  0  0  0  0  0  0
   57.4720   28.0430   46.3460 C   0  0  0  0  0  0  0  0  0  0  0  0
   57.8950   29.0840   45.5100 C   0  0  0  0  0  0  0  0  0  0  0  0
   56.7310   29.9410   44.5050 S   0  0  0  0  0  0  0  0  0  0  0  0
   55.1440   29.3290   44.8120 N   0  0  0  0  0  0  0  0  0  0  0  0
   57.0690   29.7470   43.0540 O   0  0  0  0  0  0  0  0  0  0  0  0
   56.7720   31.4110   44.8180 O   0  0  0  0  0  0  0  0  0  0  0  0
   59.2540   29.4270   45.4640 C   0  0  0  0  0  0  0  0  0  0  0  0
   60.1790   28.7400   46.2550 C   0  0  0  0  0  0  0  0  0  0  0  0
   59.8810   30.8710   48.6570 N   0  0  0  0  0  0  0  0  0  0  0  0
   62.9329   31.9500   48.3666 H   0  0  0  0  0  0  0  0  0  0  0  0
   62.0004   31.6251   46.8661 H   0  0  0  0  0  0  0  0  0  0  0  0
   63.2976   32.8676   46.8661 H   0  0  0  0  0  0  0  0  0  0  0  0
   61.0317   34.9106   45.6507 H   0  0  0  0  0  0  0  0  0  0  0  0
   58.8626   35.2839   44.4916 H   0  0  0  0  0  0  0  0  0  0  0  0
   56.7897   34.1822   45.3268 H   0  0  0  0  0  0  0  0  0  0  0  0
   56.8871   32.6684   47.2980 H   0  0  0  0  0  0  0  0  0  0  0  0
   57.5230   32.9233   49.9071 H   0  0  0  0  0  0  0  0  0  0  0  0
   59.5310   28.3420   51.9020 H   0  0  0  0  0  0  0  0  0  0  0  0
   61.5210   27.0658   49.9939 H   0  0  0  0  0  0  0  0  0  0  0  0
   59.7340   27.2140   49.8709 H   0  0  0  0  0  0  0  0  0  0  0  0
   61.7613   27.1364   47.5785 H   0  0  0  0  0  0  0  0  0  0  0  0
   60.4924   25.9101   47.9871 H   0  0  0  0  0  0  0  0  0  0  0  0
   58.0563   26.5459   47.7995 H   0  0  0  0  0  0  0  0  0  0  0  0
   56.4083   27.7649   46.3796 H   0  0  0  0  0  0  0  0  0  0  0  0
   55.2070   28.7310   45.6650 H   0  0  0  0  0  0  0  0  0  0  0  0
   59.5928   30.2389   44.8036 H   0  0  0  0  0  0  0  0  0  0  0  0
   61.2424   29.0194   46.2209 H   0  0  0  0  0  0  0  0  0  0  0  0
  1  2  1  0
  2  3  2  0
  2  4  1  0
  4  5  2  0
  5  6  1  0
  6  7  2  0
  7  8  1  0
  8  9  2  0
  9 10  1  0
 10 11  2  0
 11 12  1  0
 12 13  1  0
 13 14  2  3
 13 15  1  0
 15 16  2  3
 16 17  1  0
 17 18  1  0
 18 19  1  0
 19 20  2  0
 20 21  1  0
 21 22  2  0
 22 23  1  0
 23 24  1  0
 23 25  2  0
 23 26  2  0
 22 27  1  0
 27 28  2  0
 15 29  1  0
  9  4  1  0
 29 10  1  0
 28 19  1  0
  1 30  1  0
  1 31  1  0
  1 32  1  0
  5 33  1  0
  6 34  1  0
  7 35  1  0
  8 36  1  0
 11 37  1  0
 14 38  1  0
 17 39  1  0
 17 40  1  0
 18 41  1  0
 18 42  1  0
 20 43  1  0
 21 44  1  0
 24 45  1  0
 27 46  1  0
 28 47  1  0
M  CHG  3  12  -1  24  -1  29  -1
M  END
>  <UniqueID>  (2) 
2

>  <SMILES>  (2) 
CC(=O)c1ccccc1-c1c[n-]c(=N)c(=NCCc2ccc(S([NH-])(=O)=O)cc2)[n-]1

>  <Energy>  (2) 
71.34430914577995

>  <Genealogy>  (2) 
CC(=O)c1ccccc1-c1c[n-]c(=N)c(=NCCc2ccc(S([NH-])(=O)=O)cc2)[n-]1 (protonated)
CC(=O)c1ccccc1-c1c[n-]c(=N)c(=NCCc2ccc(S([NH-])(=O)=O)cc2)[n-]1 (3D coordinates assigned)
CC(=O)c1ccccc1-c1c[n-]c(=N)c(=NCCc2ccc(S([NH-])(=O)=O)cc2)[n-]1 (optimized conformer: 71.34430914577995 kcal/mol)

>  <smiles>  (2) 
CC(=O)c1ccccc1-c1c[nH]c(=N)c(=NCCc2ccc(S(N)(=O)=O)cc2)[nH]1

>  <score_type>  (2) 
oracle

>  <origin>  (2) 
adg

>  <m_score__min__energy>  (2) 
-13.17

>  <m_primary>  (2) 
energy

$$$$
2:0
     RDKit          3D

 55 58  0  0  0  0  0  0  0  0999 V2000
   56.6600   23.4500   43.1490 C   0  0  0  0  0  0  0  0  0  0  0  0
   56.8670   24.0690   44.5030 C   0  0  0  0  0  0  0  0  0  0  0  0
   58.1490   24.4940   44.8880 C   0  0  0  0  0  0  0  0  0  0  0  0
   58.3650   25.1040   46.1270 C   0  0  0  0  0  0  0  0  0  0  0  0
   59.6680   25.5240   46.4400 O   0  0  0  0  0  0  0  0  0  0  0  0
   60.0360   26.8480   46.8250 C   0  0  0  0  0  0  0  0  0  0  0  0
   59.3710   27.8660   45.9530 C   0  0  0  0  0  0  0  0  0  0  0  0
   59.9790   28.5640   44.9290 C   0  0  0  0  0  0  0  0  0  0  0  0
   59.0000   29.3690   44.3910 C   0  0  0  0  0  0  0  0  0  0  0  0
   57.8540   29.1070   45.1200 C   0  0  0  0  0  0  0  0  0  0  0  0
   56.5350   29.7230   44.8930 C   0  0  0  0  0  0  0  0  0  0  0  0
   55.5090   28.9940   44.8740 O   0  0  0  0  0  0  0  0  0  0  0  0
   56.3770   31.1420   44.7720 N   0  0  0  0  0  0  0  0  0  0  0  0
   57.3960   32.1320   44.9720 C   0  0  0  0  0  0  0  0  0  0  0  0
   57.9800   32.8180   43.8940 C   0  0  0  0  0  0  0  0  0  0  0  0
   58.9200   33.8220   44.1310 C   0  0  0  0  0  0  0  0  0  0  0  0
   59.2920   34.1480   45.4380 C   0  0  0  0  0  0  0  0  0  0  0  0
   58.7080   33.4770   46.5260 C   0  0  0  0  0  0  0  0  0  0  0  0
   59.0780   33.8390   47.9470 C   0  0  0  0  0  0  0  0  0  0  0  0
   60.1720   33.0160   48.5100 N   0  0  0  0  0  0  0  0  0  0  0  0
   59.7370   31.8050   49.2360 C   0  0  0  0  0  0  0  0  0  0  0  0
   59.6390   30.5580   48.3210 C   0  0  0  0  0  0  0  0  0  0  0  0
   60.1920   30.7630   47.0350 O   0  0  0  0  0  0  0  0  0  0  0  0
   61.4670   31.3530   47.1540 C   0  0  0  0  0  0  0  0  0  0  0  0
   61.3320   32.8110   47.6140 C   0  0  0  0  0  0  0  0  0  0  0  0
   57.7440   32.4840   46.2810 C   0  0  0  0  0  0  0  0  0  0  0  0
   58.1040   28.2020   46.0390 O   0  0  0  0  0  0  0  0  0  0  0  0
   57.2790   25.2760   47.0040 C   0  0  0  0  0  0  0  0  0  0  0  0
   55.9990   24.8590   46.6300 C   0  0  0  0  0  0  0  0  0  0  0  0
   55.7840   24.2620   45.3840 C   0  0  0  0  0  0  0  0  0  0  0  0
   54.1480   23.7740   44.9530 Cl  0  0  0  0  0  0  0  0  0  0  0  0
   56.3132   22.4130   43.2690 H   0  0  0  0  0  0  0  0  0  0  0  0
   55.9059   24.0268   42.5935 H   0  0  0  0  0  0  0  0  0  0  0  0
   57.6094   23.4571   42.5935 H   0  0  0  0  0  0  0  0  0  0  0  0
   58.9969   24.3444   44.2034 H   0  0  0  0  0  0  0  0  0  0  0  0
   59.7330   27.0161   47.8690 H   0  0  0  0  0  0  0  0  0  0  0  0
   61.1256   26.9535   46.7174 H   0  0  0  0  0  0  0  0  0  0  0  0
   61.0289   28.4920   44.6089 H   0  0  0  0  0  0  0  0  0  0  0  0
   59.1071   30.0748   43.5541 H   0  0  0  0  0  0  0  0  0  0  0  0
   57.6961   32.5636   42.8622 H   0  0  0  0  0  0  0  0  0  0  0  0
   59.3707   34.3599   43.2840 H   0  0  0  0  0  0  0  0  0  0  0  0
   60.0435   34.9314   45.6156 H   0  0  0  0  0  0  0  0  0  0  0  0
   59.3928   34.8928   47.9652 H   0  0  0  0  0  0  0  0  0  0  0  0
   58.1878   33.6535   48.5659 H   0  0  0  0  0  0  0  0  0  0  0  0
   60.4612   31.5967   50.0374 H   0  0  0  0  0  0  0  0  0  0  0  0
   58.7312   32.0021   49.6355 H   0  0  0  0  0  0  0  0  0  0  0  0
   60.1755   29.7278   48.8035 H   0  0  0  0  0  0  0  0  0  0  0  0
   58.5701   30.3370   48.1847 H   0  0  0  0  0  0  0  0  0  0  0  0
   62.0601   30.7922   47.8914 H   0  0  0  0  0  0  0  0  0  0  0  0
   61.9679   31.3290   46.1749 H   0  0  0  0  0  0  0  0  0  0  0  0
   62.2480   33.0980   48.1511 H   0  0  0  0  0  0  0  0  0  0  0  0
   61.1776   33.4316   46.7190 H   0  0  0  0  0  0  0  0  0  0  0  0
   57.2575   31.9777   47.1278 H   0  0  0  0  0  0  0  0  0  0  0  0
   57.4380   25.7407   47.9883 H   0  0  0  0  0  0  0  0  0  0  0  0
   55.1546   25.0013   47.3205 H   0  0  0  0  0  0  0  0  0  0  0  0
  1  2  1  0
  2  3  2  0
  3  4  1  0
  4  5  1  0
  5  6  1  0
  6  7  1  0
  7  8  2  0
  8  9  1  0
  9 10  2  0
 10 11  1  0
 11 12  2  0
 11 13  1  0
 13 14  1  0
 14 15  2  0
 15 16  1  0
 16 17  2  0
 17 18  1  0
 18 19  1  0
 19 20  1  0
 20 21  1  0
 21 22  1  0
 22 23  1  0
 23 24  1  0
 24 25  1  0
 18 26  2  0
 10 27  1  0
  4 28  2  0
 28 29  1  0
 29 30  2  0
 30 31  1  0
 30  2  1  0
 27  7  1  0
 26 14  1  0
 25 20  1  0
  1 32  1  0
  1 33  1  0
  1 34  1  0
  3 35  1  0
  6 36  1  0
  6 37  1  0
  8 38  1  0
  9 39  1  0
 15 40  1  0
 16 41  1  0
 17 42  1  0
 19 43  1  0
 19 44  1  0
 21 45  1  0
 21 46  1  0
 22 47  1  0
 22 48  1  0
 24 49  1  0
 24 50  1  0
 25 51  1  0
 25 52  1  0
 26 53  1  0
 28 54  1  0
 29 55  1  0
M  CHG  1  13  -1
M  END
>  <UniqueID>  (3) 
3

>  <SMILES>  (3) 
Cc1cc(OCc2ccc(C(=O)[N-]c3cccc(CN4CCOCC4)c3)o2)ccc1Cl

>  <Energy>  (3) 
96.52448504235183

>  <Genealogy>  (3) 
Cc1cc(OCc2ccc(C(=O)[N-]c3cccc(CN4CCOCC4)c3)o2)ccc1Cl (protonated)
Cc1cc(OCc2ccc(C(=O)[N-]c3cccc(CN4CCOCC4)c3)o2)ccc1Cl (3D coordinates assigned)
Cc1cc(OCc2ccc(C(=O)[N-]c3cccc(CN4CCOCC4)c3)o2)ccc1Cl (nonaromatic ring conformer: 96.52448504235183 kcal/mol)

>  <smiles>  (3) 
Cc1cc(OCc2ccc(C(=O)Nc3cccc(CN4CCOCC4)c3)o2)ccc1Cl

>  <score_type>  (3) 
oracle

>  <origin>  (3) 
adg

>  <m_score__min__energy>  (3) 
-11.02

>  <m_primary>  (3) 
energy

$$$$
3:0
     RDKit          3D

 60 64  0  0  0  0  0  0  0  0999 V2000
   58.4940   31.5040   43.5210 O   0  0  0  0  0  0  0  0  0  0  0  0
   57.6690   31.8960   44.3880 C   0  0  0  0  0  0  0  0  0  0  0  0
   57.3840   33.3670   44.5190 C   0  0  0  0  0  0  0  0  0  0  0  0
   57.5880   33.8090   45.8610 O   0  0  0  0  0  0  0  0  0  0  0  0
   58.8060   33.7620   46.5590 C   0  0  0  0  0  0  0  0  0  0  0  0
   58.7740   33.4390   47.9190 C   0  0  0  0  0  0  0  0  0  0  0  0
   59.9550   33.3820   48.6650 C   0  0  0  0  0  0  0  0  0  0  0  0
   61.1940   33.6480   48.0570 C   0  0  0  0  0  0  0  0  0  0  0  0
   62.4510   33.5950   48.8450 C   0  0  0  0  0  0  0  0  0  0  0  0
   62.5370   34.2310   50.0930 C   0  0  0  0  0  0  0  0  0  0  0  0
   63.7220   34.1590   50.8240 C   0  0  0  0  0  0  0  0  0  0  0  0
   64.8260   33.4700   50.3090 C   0  0  0  0  0  0  0  0  0  0  0  0
   66.0750   33.3720   51.0910 C   0  0  0  0  0  0  0  0  0  0  0  0
   66.7130   34.4270   51.3570 O   0  0  0  0  0  0  0  0  0  0  0  0
   66.5820   32.1040   51.5420 N   0  0  0  0  0  0  0  0  0  0  0  0
   67.6320   31.9860   52.5580 C   0  0  0  0  0  0  0  0  0  0  0  0
   68.0120   30.5550   52.4860 C   0  0  0  0  0  0  0  0  0  0  0  0
   68.9730   29.8840   53.2430 C   0  0  0  0  0  0  0  0  0  0  0  0
   69.1860   28.5180   52.9990 C   0  0  0  0  0  0  0  0  0  0  0  0
   68.4400   27.8500   52.0090 C   0  0  0  0  0  0  0  0  0  0  0  0
   67.4780   28.5470   51.2580 C   0  0  0  0  0  0  0  0  0  0  0  0
   67.2840   29.9040   51.5180 C   0  0  0  0  0  0  0  0  0  0  0  0
   66.3330   30.8300   50.8590 C   0  0  0  0  0  0  0  0  0  0  0  0
   64.6990   32.8340   49.0670 C   0  0  0  0  0  0  0  0  0  0  0  0
   63.5340   32.9100   48.3680 N   0  0  0  0  0  0  0  0  0  0  0  0
   61.2270   33.9670   46.6900 C   0  0  0  0  0  0  0  0  0  0  0  0
   60.0450   34.0210   45.9450 C   0  0  0  0  0  0  0  0  0  0  0  0
   57.0430   30.9260   45.2360 N   0  0  0  0  0  0  0  0  0  0  0  0
   57.6260   29.6380   45.5870 C   0  0  0  0  0  0  0  0  0  0  0  0
   58.7980   29.8580   46.4990 C   0  0  0  0  0  0  0  0  0  0  0  0
   60.0520   30.2080   45.9700 C   0  0  0  0  0  0  0  0  0  0  0  0
   61.1520   30.3750   46.8190 C   0  0  0  0  0  0  0  0  0  0  0  0
   61.0100   30.1820   48.1960 C   0  0  0  0  0  0  0  0  0  0  0  0
   59.7680   29.8190   48.7270 C   0  0  0  0  0  0  0  0  0  0  0  0
   58.6670   29.6510   47.8820 C   0  0  0  0  0  0  0  0  0  0  0  0
   58.0560   33.9248   43.8503 H   0  0  0  0  0  0  0  0  0  0  0  0
   56.3336   33.5466   44.2462 H   0  0  0  0  0  0  0  0  0  0  0  0
   57.8108   33.2278   48.4064 H   0  0  0  0  0  0  0  0  0  0  0  0
   59.9143   33.1274   49.7344 H   0  0  0  0  0  0  0  0  0  0  0  0
   61.6738   34.7835   50.4925 H   0  0  0  0  0  0  0  0  0  0  0  0
   63.7894   34.6452   51.8084 H   0  0  0  0  0  0  0  0  0  0  0  0
   68.4878   32.6341   52.3182 H   0  0  0  0  0  0  0  0  0  0  0  0
   67.2999   32.2947   53.5602 H   0  0  0  0  0  0  0  0  0  0  0  0
   69.5512   30.4139   54.0143 H   0  0  0  0  0  0  0  0  0  0  0  0
   69.9382   27.9676   53.5832 H   0  0  0  0  0  0  0  0  0  0  0  0
   68.6107   26.7794   51.8229 H   0  0  0  0  0  0  0  0  0  0  0  0
   66.8908   28.0339   50.4822 H   0  0  0  0  0  0  0  0  0  0  0  0
   66.5431   30.9115   49.7823 H   0  0  0  0  0  0  0  0  0  0  0  0
   65.2866   30.4983   50.9305 H   0  0  0  0  0  0  0  0  0  0  0  0
   65.5475   32.2689   48.6539 H   0  0  0  0  0  0  0  0  0  0  0  0
   63.4890   32.4390   47.4370 H   0  0  0  0  0  0  0  0  0  0  0  0
   62.1901   34.1760   46.2014 H   0  0  0  0  0  0  0  0  0  0  0  0
   60.0841   34.2672   44.8736 H   0  0  0  0  0  0  0  0  0  0  0  0
   56.8729   29.0205   46.0984 H   0  0  0  0  0  0  0  0  0  0  0  0
   57.9599   29.1228   44.6743 H   0  0  0  0  0  0  0  0  0  0  0  0
   60.1693   30.3511   44.8857 H   0  0  0  0  0  0  0  0  0  0  0  0
   62.1296   30.6585   46.4020 H   0  0  0  0  0  0  0  0  0  0  0  0
   61.8751   30.3156   48.8622 H   0  0  0  0  0  0  0  0  0  0  0  0
   59.6574   29.6655   49.8106 H   0  0  0  0  0  0  0  0  0  0  0  0
   57.6942   29.3555   48.3020 H   0  0  0  0  0  0  0  0  0  0  0  0
  1  2  2  0
  2  3  1  0
  3  4  1  0
  4  5  1  0
  5  6  2  0
  6  7  1  0
  7  8  2  0
  8  9  1  0
  9 10  2  0
 10 11  1  0
 11 12  2  0
 12 13  1  0
 13 14  2  0
 13 15  1  0
 15 16  1  0
 16 17  1  0
 17 18  2  0
 18 19  1  0
 19 20  2  0
 20 21  1  0
 21 22  2  0
 22 23  1  0
 12 24  1  0
 24 25  2  0
  8 26  1  0
 26 27  2  0
  2 28  1  0
 28 29  1  0
 29 30  1  0
 30 31  2  0
 31 32  1  0
 32 33  2  0
 33 34  1  0
 34 35  2  0
 27  5  1  0
 35 30  1  0
 25  9  1  0
 23 15  1  0
 22 17  1  0
  3 36  1  0
  3 37  1  0
  6 38  1  0
  7 39  1  0
 10 40  1  0
 11 41  1  0
 16 42  1  0
 16 43  1  0
 18 44  1  0
 19 45  1  0
 20 46  1  0
 21 47  1  0
 23 48  1  0
 23 49  1  0
 24 50  1  0
 25 51  1  0
 26 52  1  0
 27 53  1  0
 29 54  1  0
 29 55  1  0
 31 56  1  0
 32 57  1  0
 33 58  1  0
 34 59  1  0
 35 60  1  0
M  CHG  2  25   1  28  -1
M  END
>  <UniqueID>  (4) 
4

>  <SMILES>  (4) 
O=C(COc1ccc(-c2ccc(C(=O)N3Cc4ccccc4C3)c[nH+]2)cc1)[N-]Cc1ccccc1

>  <Energy>  (4) 
82.82801852997507

>  <Genealogy>  (4) 
O=C(COc1ccc(-c2ccc(C(=O)N3Cc4ccccc4C3)c[nH+]2)cc1)[N-]Cc1ccccc1 (protonated)
O=C(COc1ccc(-c2ccc(C(=O)N3Cc4ccccc4C3)c[nH+]2)cc1)[N-]Cc1ccccc1 (3D coordinates assigned)
O=C(COc1ccc(-c2ccc(C(=O)N3Cc4ccccc4C3)c[nH+]2)cc1)[N-]Cc1ccccc1 (nonaromatic ring conformer: 82.82801852997507 kcal/mol)

>  <smiles>  (4) 
O=C(COc1ccc(-c2ccc(C(=O)N3Cc4ccccc4C3)cn2)cc1)NCc1ccccc1

>  <score_type>  (4) 
oracle

>  <origin>  (4) 
adg

>  <m_score__min__energy>  (4) 
-9.0899999999999999

>  <m_primary>  (4) 
energy

$$$$
4:0
     RDKit          3D

 35 37  0  0  0  0  0  0  0  0999 V2000
   53.3445   27.9115   52.9985 H   0  0  0  0  0  0  0  0  0  0  0  0
   54.4060   28.2000   52.9920 C   0  0  0  0  0  0  0  0  0  0  0  0
   55.1772   27.4656   53.2675 H   0  0  0  0  0  0  0  0  0  0  0  0
   54.7590   29.4440   52.6490 C   0  0  0  0  0  0  0  0  0  0  0  0
   53.9150   30.4870   52.2580 C   0  0  0  0  0  0  0  0  0  0  0  0
   52.5710   30.4650   52.1830 C   0  0  0  0  0  0  0  0  0  0  0  0
   52.0091   30.1455   53.0730 H   0  0  0  0  0  0  0  0  0  0  0  0
   51.8070   30.8430   50.9810 C   0  0  0  0  0  0  0  0  0  0  0  0
   51.7720   30.0970   49.8640 N   0  0  0  0  0  0  0  0  0  0  0  0
   51.0410   30.8460   49.0090 C   0  0  0  0  0  0  0  0  0  0  0  0
   50.7730   30.4690   47.8380 O   0  0  0  0  0  0  0  0  0  0  0  0
   50.6320   32.0330   49.5030 N   0  0  0  0  0  0  0  0  0  0  0  0
   51.1340   32.0230   50.7480 C   0  0  0  0  0  0  0  0  0  0  0  0
   51.0200   33.0910   51.6300 O   0  0  0  0  0  0  0  0  0  0  0  0
   54.7410   31.5740   52.0060 C   0  0  0  0  0  0  0  0  0  0  0  0
   54.4298   32.5798   51.6875 H   0  0  0  0  0  0  0  0  0  0  0  0
   56.0300   31.1400   52.2350 C   0  0  0  0  0  0  0  0  0  0  0  0
   57.5020   32.1360   52.0300 S   0  0  0  0  0  0  0  0  0  0  0  0
   58.4710   30.7290   51.4890 C   0  0  0  0  0  0  0  0  0  0  0  0
   59.1260   29.9270   52.4300 C   0  0  0  0  0  0  0  0  0  0  0  0
   59.0361   30.1540   53.5026 H   0  0  0  0  0  0  0  0  0  0  0  0
   59.8950   28.8370   52.0090 C   0  0  0  0  0  0  0  0  0  0  0  0
   60.4105   28.2107   52.7520 H   0  0  0  0  0  0  0  0  0  0  0  0
   60.0120   28.5380   50.6370 C   0  0  0  0  0  0  0  0  0  0  0  0
   60.7710   27.4590   50.1640 O   0  0  0  0  0  0  0  0  0  0  0  0
   61.2880   26.4190   50.9870 C   0  0  0  0  0  0  0  0  0  0  0  0
   61.1543   26.6880   52.0452 H   0  0  0  0  0  0  0  0  0  0  0  0
   60.7504   25.4828   50.7759 H   0  0  0  0  0  0  0  0  0  0  0  0
   62.3589   26.2824   50.7759 H   0  0  0  0  0  0  0  0  0  0  0  0
   59.3480   29.3460   49.7040 C   0  0  0  0  0  0  0  0  0  0  0  0
   59.4314   29.1210   48.6305 H   0  0  0  0  0  0  0  0  0  0  0  0
   58.5810   30.4350   50.1260 C   0  0  0  0  0  0  0  0  0  0  0  0
   58.0630   31.0619   49.3853 H   0  0  0  0  0  0  0  0  0  0  0  0
   56.0430   29.8540   52.6230 N   0  0  0  0  0  0  0  0  0  0  0  0
   56.8910   29.2890   52.8560 H   0  0  0  0  0  0  0  0  0  0  0  0
  1  2  1  0
  2  3  1  0
  2  4  2  0
  4  5  1  0
  5  6  2  0
  6  7  1  0
  6  8  1  0
  8  9  1  0
  9 10  1  0
 10 11  2  0
 10 12  1  0
 12 13  1  0
 13 14  1  0
  5 15  1  0
 15 16  1  0
 15 17  2  0
 17 18  1  0
 18 19  1  0
 19 20  2  0
 20 21  1  0
 20 22  1  0
 22 23  1  0
 22 24  2  0
 24 25  1  0
 25 26  1  0
 26 27  1  0
 26 28  1  0
 26 29  1  0
 24 30  1  0
 30 31  1  0
 30 32  2  0
 32 33  1  0
 17 34  1  0
 34 35  1  0
 34  4  1  0
 13  8  2  0
 32 19  1  0
M  CHG  3   9  -1  12  -1  14  -1
M  END
>  <UniqueID>  (5) 
5

>  <SMILES>  (5) 
C=c1[nH]c(Sc2ccc(OC)cc2)c/c1=C\c1[n-]c(=O)[n-]c1[O-]

>  <Energy>  (5) 
95.0948711637888

>  <Genealogy>  (5) 
C=c1[nH]c(Sc2ccc(OC)cc2)cc1=Cc1[n-]c(=O)[n-]c1[O-] (protonated)
C=c1[nH]c(Sc2ccc(OC)cc2)c/c1=C\c1[n-]c(=O)[n-]c1[O-] (cis-trans isomerization)
C=c1[nH]c(Sc2ccc(OC)cc2)c/c1=C\c1[n-]c(=O)[n-]c1[O-] (3D coordinates assigned)
C=c1[nH]c(Sc2ccc(OC)cc2)c/c1=C\c1[n-]c(=O)[n-]c1[O-] (optimized conformer: 95.0948711637888 kcal/mol)

>  <smiles>  (5) 
C=c1[nH]c(Sc2ccc(OC)cc2)cc1=Cc1[nH]c(=O)[nH]c1O

>  <score_type>  (5) 
oracle

>  <origin>  (5) 
adg

>  <m_score__min__energy>  (5) 
-15.720000000000001

>  <m_primary>  (5) 
energy

$$$$
5:0
     RDKit          3D

 60 64  0  0  0  0  0  0  0  0999 V2000
   58.3970   34.1830   44.5070 C   0  0  0  0  0  0  0  0  0  0  0  0
   57.5870   32.9530   44.5200 N   0  0  0  0  0  0  0  0  0  0  0  0
   57.8310   32.1670   43.2900 C   0  0  0  0  0  0  0  0  0  0  0  0
   57.1720   30.7890   43.3790 C   0  0  0  0  0  0  0  0  0  0  0  0
   57.6570   30.0590   44.5580 N   0  0  0  0  0  0  0  0  0  0  0  0
   57.5440   28.6190   44.6140 C   0  0  0  0  0  0  0  0  0  0  0  0
   57.8960   27.8320   43.5040 C   0  0  0  0  0  0  0  0  0  0  0  0
   57.7920   26.4390   43.5580 C   0  0  0  0  0  0  0  0  0  0  0  0
   57.3530   25.8030   44.7280 C   0  0  0  0  0  0  0  0  0  0  0  0
   57.2310   24.3700   44.7500 N   0  0  0  0  0  0  0  0  0  0  0  0
   57.7040   23.5420   45.8260 C   0  0  0  0  0  0  0  0  0  0  0  0
   58.5170   24.0050   46.6710 O   0  0  0  0  0  0  0  0  0  0  0  0
   57.2070   22.1540   45.9540 C   0  0  0  0  0  0  0  0  0  0  0  0
   57.3240   21.5590   47.1730 N   0  0  0  0  0  0  0  0  0  0  0  0
   57.0060   20.2560   47.3980 C   0  0  0  0  0  0  0  0  0  0  0  0
   57.1680   19.7030   48.7950 C   0  0  2  0  0  0  0  0  0  0  0  0
   55.9170   19.9880   49.6810 C   0  0  0  0  0  0  0  0  0  0  0  0
   56.4990   20.7100   50.8430 C   0  0  0  0  0  0  0  0  0  0  0  0
   55.8500   21.2160   51.9720 C   0  0  0  0  0  0  0  0  0  0  0  0
   56.6180   21.8910   52.9380 C   0  0  0  0  0  0  0  0  0  0  0  0
   58.0090   22.0470   52.7570 C   0  0  0  0  0  0  0  0  0  0  0  0
   58.6360   21.5310   51.6070 C   0  0  0  0  0  0  0  0  0  0  0  0
   57.8460   20.8670   50.6690 C   0  0  0  0  0  0  0  0  0  0  0  0
   58.2730   20.3030   49.4840 O   0  0  0  0  0  0  0  0  0  0  0  0
   56.5320   19.4770   46.3340 C   0  0  0  0  0  0  0  0  0  0  0  0
   56.3810   20.0530   45.0740 C   0  0  0  0  0  0  0  0  0  0  0  0
   56.6950   21.4050   44.8620 C   0  0  0  0  0  0  0  0  0  0  0  0
   56.4060   21.9980   43.5360 C   0  0  0  0  0  0  0  0  0  0  0  0
   55.1600   22.6520   43.3000 N   0  0  0  0  0  0  0  0  0  0  0  0
   57.2720   21.9720   42.6200 O   0  0  0  0  0  0  0  0  0  0  0  0
   56.9820   26.5860   45.8340 C   0  0  0  0  0  0  0  0  0  0  0  0
   57.0830   27.9790   45.7790 C   0  0  0  0  0  0  0  0  0  0  0  0
   58.3840   30.7980   45.6000 C   0  0  0  0  0  0  0  0  0  0  0  0
   57.7720   32.1950   45.7880 C   0  0  0  0  0  0  0  0  0  0  0  0
   58.6037   34.4969   45.5408 H   0  0  0  0  0  0  0  0  0  0  0  0
   59.3462   33.9914   43.9852 H   0  0  0  0  0  0  0  0  0  0  0  0
   57.8460   34.9794   43.9852 H   0  0  0  0  0  0  0  0  0  0  0  0
   57.4150   32.7095   42.4282 H   0  0  0  0  0  0  0  0  0  0  0  0
   58.9159   32.0292   43.1721 H   0  0  0  0  0  0  0  0  0  0  0  0
   56.0817   30.9139   43.4544 H   0  0  0  0  0  0  0  0  0  0  0  0
   57.4277   30.2147   42.4764 H   0  0  0  0  0  0  0  0  0  0  0  0
   58.2565   28.3165   42.5846 H   0  0  0  0  0  0  0  0  0  0  0  0
   58.0565   25.8373   42.6760 H   0  0  0  0  0  0  0  0  0  0  0  0
   56.8400   23.8960   43.9050 H   0  0  0  0  0  0  0  0  0  0  0  0
   57.3230   18.6229   48.6561 H   0  0  0  0  0  0  0  0  0  0  0  0
   55.1879   20.6161   49.1481 H   0  0  0  0  0  0  0  0  0  0  0  0
   55.3648   19.0794   49.9629 H   0  0  0  0  0  0  0  0  0  0  0  0
   54.7651   21.0896   52.1023 H   0  0  0  0  0  0  0  0  0  0  0  0
   56.1330   22.2985   53.8373 H   0  0  0  0  0  0  0  0  0  0  0  0
   58.6051   22.5735   53.5169 H   0  0  0  0  0  0  0  0  0  0  0  0
   59.7188   21.6483   51.4526 H   0  0  0  0  0  0  0  0  0  0  0  0
   56.2808   18.4178   46.4923 H   0  0  0  0  0  0  0  0  0  0  0  0
   56.0120   19.4421   44.2369 H   0  0  0  0  0  0  0  0  0  0  0  0
   54.3760   22.5730   43.9830 H   0  0  0  0  0  0  0  0  0  0  0  0
   56.6100   26.1002   46.7481 H   0  0  0  0  0  0  0  0  0  0  0  0
   56.7993   28.5807   46.6551 H   0  0  0  0  0  0  0  0  0  0  0  0
   58.3219   30.2439   46.5482 H   0  0  0  0  0  0  0  0  0  0  0  0
   59.4353   30.9059   45.2949 H   0  0  0  0  0  0  0  0  0  0  0  0
   56.7891   32.0798   46.2682 H   0  0  0  0  0  0  0  0  0  0  0  0
   58.4797   32.7714   46.4019 H   0  0  0  0  0  0  0  0  0  0  0  0
  1  2  1  0
  2  3  1  0
  3  4  1  0
  4  5  1  0
  5  6  1  0
  6  7  2  0
  7  8  1  0
  8  9  2  0
  9 10  1  0
 10 11  1  0
 11 12  2  0
 11 13  1  0
 13 14  2  0
 14 15  1  0
 15 16  1  0
 16 17  1  0
 17 18  1  0
 18 19  2  0
 19 20  1  0
 20 21  2  0
 21 22  1  0
 22 23  2  0
 23 24  1  0
 15 25  2  0
 25 26  1  0
 26 27  2  0
 27 28  1  0
 28 29  1  0
 28 30  2  0
  9 31  1  0
 31 32  2  0
  5 33  1  0
 33 34  1  0
 34  2  1  0
 32  6  1  0
 27 13  1  0
 24 16  1  0
 23 18  1  0
  1 35  1  0
  1 36  1  0
  1 37  1  0
  3 38  1  0
  3 39  1  0
  4 40  1  0
  4 41  1  0
  7 42  1  0
  8 43  1  0
 10 44  1  0
 16 45  1  6
 17 46  1  0
 17 47  1  0
 19 48  1  0
 20 49  1  0
 21 50  1  0
 22 51  1  0
 25 52  1  0
 26 53  1  0
 29 54  1  0
 31 55  1  0
 32 56  1  0
 33 57  1  0
 33 58  1  0
 34 59  1  0
 34 60  1  0
M  CHG  1  29  -1
M  END
>  <UniqueID>  (6) 
6

>  <SMILES>  (6) 
CN1CCN(c2ccc(NC(=O)c3nc([C@@H]4Cc5ccccc5O4)ccc3C([NH-])=O)cc2)CC1

>  <Energy>  (6) 
103.87839023624194

>  <Genealogy>  (6) 
CN1CCN(c2ccc(NC(=O)c3nc(C4Cc5ccccc5O4)ccc3C([NH-])=O)cc2)CC1 (protonated)
CN1CCN(c2ccc(NC(=O)c3nc([C@@H]4Cc5ccccc5O4)ccc3C([NH-])=O)cc2)CC1 (chirality)
CN1CCN(c2ccc(NC(=O)c3nc([C@@H]4Cc5ccccc5O4)ccc3C([NH-])=O)cc2)CC1 (3D coordinates assigned)
CN1CCN(c2ccc(NC(=O)c3nc([C@@H]4Cc5ccccc5O4)ccc3C([NH-])=O)cc2)CC1 (nonaromatic ring conformer: 103.87839023624194 kcal/mol)

>  <smiles>  (6) 
CN1CCN(c2ccc(NC(=O)c3nc(C4Cc5ccccc5O4)ccc3C(N)=O)cc2)CC1

>  <score_type>  (6) 
oracle

>  <origin>  (6) 
adg

>  <m_score__min__energy>  (6) 
-11.029999999999999

>  <m_primary>  (6) 
energy

$$$$
6:0
     RDKit          3D

 47 48  0  0  0  0  0  0  0  0999 V2000
   63.7320   32.3050   48.2300 C   0  0  0  0  0  0  0  0  0  0  0  0
   63.9290   33.5100   49.1420 C   0  0  0  0  0  0  0  0  0  0  0  0
   62.7010   34.2130   49.3200 O   0  0  0  0  0  0  0  0  0  0  0  0
   61.4610   33.5790   49.4730 C   0  0  0  0  0  0  0  0  0  0  0  0
   61.1020   33.1680   50.6110 O   0  0  0  0  0  0  0  0  0  0  0  0
   60.6000   33.3920   48.3310 N   0  0  0  0  0  0  0  0  0  0  0  0
   61.0800   33.7430   46.9870 C   0  0  0  0  0  0  0  0  0  0  0  0
   59.9360   34.2970   46.1340 C   0  0  0  0  0  0  0  0  0  0  0  0
   58.7600   33.4250   46.2320 N   0  0  0  0  0  0  0  0  0  0  0  0
   57.9280   33.2090   45.0750 C   0  0  0  0  0  0  0  0  0  0  0  0
   57.9420   34.0460   44.1300 O   0  0  0  0  0  0  0  0  0  0  0  0
   57.0120   32.0200   44.9850 C   0  0  0  0  0  0  0  0  0  0  0  0
   57.5470   31.0300   44.0470 N   0  0  0  0  0  0  0  0  0  0  0  0
   56.9100   29.4550   44.4190 S   0  0  0  0  0  0  0  0  0  0  0  0
   55.4540   29.5920   44.7700 O   0  0  0  0  0  0  0  0  0  0  0  0
   57.0490   28.5730   43.2090 O   0  0  0  0  0  0  0  0  0  0  0  0
   57.7720   28.7470   45.7960 C   0  0  0  0  0  0  0  0  0  0  0  0
   58.7430   29.5300   46.4430 C   0  0  0  0  0  0  0  0  0  0  0  0
   59.5180   29.0010   47.4750 C   0  0  0  0  0  0  0  0  0  0  0  0
   59.3330   27.6820   47.8800 C   0  0  0  0  0  0  0  0  0  0  0  0
   58.3580   26.8920   47.2670 C   0  0  0  0  0  0  0  0  0  0  0  0
   57.5520   27.4130   46.2370 C   0  0  0  0  0  0  0  0  0  0  0  0
   56.4900   26.5460   45.6790 C   0  0  0  0  0  0  0  0  0  0  0  0
   56.7930   25.5700   44.9420 O   0  0  0  0  0  0  0  0  0  0  0  0
   55.1560   26.7510   46.0080 O   0  0  0  0  0  0  0  0  0  0  0  0
   58.2720   33.1090   47.5810 C   0  0  0  0  0  0  0  0  0  0  0  0
   59.4070   32.5390   48.4310 C   0  0  0  0  0  0  0  0  0  0  0  0
   63.5845   31.4026   48.8415 H   0  0  0  0  0  0  0  0  0  0  0  0
   62.8483   32.4662   47.5951 H   0  0  0  0  0  0  0  0  0  0  0  0
   64.6210   32.1764   47.5951 H   0  0  0  0  0  0  0  0  0  0  0  0
   64.2935   33.1661   50.1212 H   0  0  0  0  0  0  0  0  0  0  0  0
   64.6611   34.1881   48.6792 H   0  0  0  0  0  0  0  0  0  0  0  0
   61.8690   34.5047   47.0724 H   0  0  0  0  0  0  0  0  0  0  0  0
   61.4761   32.8375   46.5041 H   0  0  0  0  0  0  0  0  0  0  0  0
   59.6721   35.3037   46.4903 H   0  0  0  0  0  0  0  0  0  0  0  0
   60.2616   34.3424   45.0843 H   0  0  0  0  0  0  0  0  0  0  0  0
   56.9159   31.5610   45.9800 H   0  0  0  0  0  0  0  0  0  0  0  0
   56.0280   32.3554   44.6254 H   0  0  0  0  0  0  0  0  0  0  0  0
   58.5830   30.9810   44.1820 H   0  0  0  0  0  0  0  0  0  0  0  0
   58.8939   30.5741   46.1314 H   0  0  0  0  0  0  0  0  0  0  0  0
   60.2760   29.6265   47.9692 H   0  0  0  0  0  0  0  0  0  0  0  0
   59.9554   27.2616   48.6837 H   0  0  0  0  0  0  0  0  0  0  0  0
   58.2182   25.8507   47.5927 H   0  0  0  0  0  0  0  0  0  0  0  0
   57.8891   34.0257   48.0532 H   0  0  0  0  0  0  0  0  0  0  0  0
   57.4681   32.3618   47.5068 H   0  0  0  0  0  0  0  0  0  0  0  0
   59.0837   32.4896   49.4813 H   0  0  0  0  0  0  0  0  0  0  0  0
   59.6564   31.5322   48.0646 H   0  0  0  0  0  0  0  0  0  0  0  0
  1  2  1  0
  2  3  1  0
  3  4  1  0
  4  5  2  0
  4  6  1  0
  6  7  1  0
  7  8  1  0
  8  9  1  0
  9 10  1  0
 10 11  2  0
 10 12  1  0
 12 13  1  0
 13 14  1  0
 14 15  2  0
 14 16  2  0
 14 17  1  0
 17 18  2  0
 18 19  1  0
 19 20  2  0
 20 21  1  0
 21 22  2  0
 22 23  1  0
 23 24  2  0
 23 25  1  0
  9 26  1  0
 26 27  1  0
 27  6  1  0
 22 17  1  0
  1 28  1  0
  1 29  1  0
  1 30  1  0
  2 31  1  0
  2 32  1  0
  7 33  1  0
  7 34  1  0
  8 35  1  0
  8 36  1  0
 12 37  1  0
 12 38  1  0
 13 39  1  0
 18 40  1  0
 19 41  1  0
 20 42  1  0
 21 43  1  0
 26 44  1  0
 26 45  1  0
 27 46  1  0
 27 47  1  0
M  CHG  1  25  -1
M  END
>  <UniqueID>  (7) 
7

>  <SMILES>  (7) 
CCOC(=O)N1CCN(C(=O)CNS(=O)(=O)c2ccccc2C(=O)[O-])CC1

>  <Energy>  (7) 
47.304988185737905

>  <Genealogy>  (7) 
CCOC(=O)N1CCN(C(=O)CNS(=O)(=O)c2ccccc2C(=O)[O-])CC1 (protonated)
CCOC(=O)N1CCN(C(=O)CNS(=O)(=O)c2ccccc2C(=O)[O-])CC1 (3D coordinates assigned)
CCOC(=O)N1CCN(C(=O)CNS(=O)(=O)c2ccccc2C(=O)[O-])CC1 (nonaromatic ring conformer: 47.304988185737905 kcal/mol)

>  <smiles>  (7) 
CCOC(=O)N1CCN(C(=O)CNS(=O)(=O)c2ccccc2C(=O)O)CC1

>  <score_type>  (7) 
oracle

>  <origin>  (7) 
adg

>  <m_score__min__energy>  (7) 
-10.380000000000001

>  <m_primary>  (7) 
energy

$$$$
7:0
     RDKit          3D

 58 61  0  0  0  0  0  0  0  0999 V2000
   58.8580   24.1550   46.3680 O   0  0  0  0  0  0  0  0  0  0  0  0
   58.2910   25.0560   47.0460 C   0  0  0  0  0  0  0  0  0  0  0  0
   58.9970   26.3530   47.3010 C   0  0  0  0  0  0  0  0  0  0  0  0
   58.3540   27.4530   46.5810 N   0  0  0  0  0  0  0  0  0  0  0  0
   59.0860   28.6040   46.1200 C   0  0  0  0  0  0  0  0  0  0  0  0
   60.3320   28.6680   46.3180 O   0  0  0  0  0  0  0  0  0  0  0  0
   58.4150   29.6940   45.3690 C   0  0  0  0  0  0  0  0  0  0  0  0
   57.7750   29.4090   44.1490 C   0  0  0  0  0  0  0  0  0  0  0  0
   57.1110   30.4160   43.4440 C   0  0  0  0  0  0  0  0  0  0  0  0
   57.0780   31.7170   43.9450 C   0  0  0  0  0  0  0  0  0  0  0  0
   57.7290   32.0260   45.1480 C   0  0  0  0  0  0  0  0  0  0  0  0
   57.6490   33.6670   45.8020 S   0  0  0  0  0  0  0  0  0  0  0  0
   56.4560   33.7830   46.7100 O   0  0  0  0  0  0  0  0  0  0  0  0
   57.4720   34.6420   44.6710 O   0  0  0  0  0  0  0  0  0  0  0  0
   59.0910   34.0540   46.7180 N   0  0  0  0  0  0  0  0  0  0  0  0
   58.9710   33.5250   48.0910 C   0  0  0  0  0  0  0  0  0  0  0  0
   60.2830   33.7000   48.8570 C   0  0  0  0  0  0  0  0  0  0  0  0
   61.3890   33.0330   48.1510 N   0  0  0  0  0  0  0  0  0  0  0  0
   62.5990   32.6850   48.8650 C   0  0  0  0  0  0  0  0  0  0  0  0
   63.7830   33.4280   48.6800 C   0  0  0  0  0  0  0  0  0  0  0  0
   64.9530   33.0890   49.3690 C   0  0  0  0  0  0  0  0  0  0  0  0
   64.9590   32.0060   50.2510 C   0  0  0  0  0  0  0  0  0  0  0  0
   63.7930   31.2660   50.4520 C   0  0  0  0  0  0  0  0  0  0  0  0
   62.6200   31.6020   49.7700 C   0  0  0  0  0  0  0  0  0  0  0  0
   61.1990   32.6320   46.7490 C   0  0  0  0  0  0  0  0  0  0  0  0
   60.3310   33.6610   46.0010 C   0  0  0  0  0  0  0  0  0  0  0  0
   58.4070   31.0170   45.8490 C   0  0  0  0  0  0  0  0  0  0  0  0
   56.9080   24.9300   47.4020 N   0  0  0  0  0  0  0  0  0  0  0  0
   55.9130   24.4970   46.6750 C   0  0  0  0  0  0  0  0  0  0  0  0
   55.7710   23.1480   46.5390 N   0  0  0  0  0  0  0  0  0  0  0  0
   54.7650   22.5850   45.8200 C   0  0  0  0  0  0  0  0  0  0  0  0
   53.8290   23.3940   45.1780 C   0  0  0  0  0  0  0  0  0  0  0  0
   53.9560   24.7790   45.2650 C   0  0  0  0  0  0  0  0  0  0  0  0
   55.0050   25.3480   45.9960 C   0  0  0  0  0  0  0  0  0  0  0  0
   55.1460   26.7320   45.9810 O   0  0  0  0  0  0  0  0  0  0  0  0
   58.9750   26.5681   48.3795 H   0  0  0  0  0  0  0  0  0  0  0  0
   60.0342   26.2620   46.9461 H   0  0  0  0  0  0  0  0  0  0  0  0
   57.3370   27.3520   46.3590 H   0  0  0  0  0  0  0  0  0  0  0  0
   57.7976   28.3853   43.7470 H   0  0  0  0  0  0  0  0  0  0  0  0
   56.6131   30.1821   42.4915 H   0  0  0  0  0  0  0  0  0  0  0  0
   56.5398   32.5030   43.3950 H   0  0  0  0  0  0  0  0  0  0  0  0
   58.1711   34.0663   48.6174 H   0  0  0  0  0  0  0  0  0  0  0  0
   58.7352   32.4520   48.0361 H   0  0  0  0  0  0  0  0  0  0  0  0
   60.5076   34.7729   48.9486 H   0  0  0  0  0  0  0  0  0  0  0  0
   60.1745   33.2471   49.8535 H   0  0  0  0  0  0  0  0  0  0  0  0
   63.7871   34.2825   47.9873 H   0  0  0  0  0  0  0  0  0  0  0  0
   65.8700   33.6768   49.2156 H   0  0  0  0  0  0  0  0  0  0  0  0
   65.8814   31.7368   50.7864 H   0  0  0  0  0  0  0  0  0  0  0  0
   63.7970   30.4154   51.1495 H   0  0  0  0  0  0  0  0  0  0  0  0
   61.7043   31.0167   49.9403 H   0  0  0  0  0  0  0  0  0  0  0  0
   62.1805   32.5622   46.2573 H   0  0  0  0  0  0  0  0  0  0  0  0
   60.6902   31.6570   46.7260 H   0  0  0  0  0  0  0  0  0  0  0  0
   60.9347   34.5657   45.8364 H   0  0  0  0  0  0  0  0  0  0  0  0
   60.0131   33.1814   45.0635 H   0  0  0  0  0  0  0  0  0  0  0  0
   58.9366   31.2621   46.7814 H   0  0  0  0  0  0  0  0  0  0  0  0
   54.6892   21.4902   45.7445 H   0  0  0  0  0  0  0  0  0  0  0  0
   53.0008   22.9450   44.6101 H   0  0  0  0  0  0  0  0  0  0  0  0
   53.2281   25.4283   44.7565 H   0  0  0  0  0  0  0  0  0  0  0  0
  1  2  2  0
  2  3  1  0
  3  4  1  0
  4  5  1  0
  5  6  2  0
  5  7  1  0
  7  8  2  0
  8  9  1  0
  9 10  2  0
 10 11  1  0
 11 12  1  0
 12 13  2  0
 12 14  2  0
 12 15  1  0
 15 16  1  0
 16 17  1  0
 17 18  1  0
 18 19  1  0
 19 20  2  0
 20 21  1  0
 21 22  2  0
 22 23  1  0
 23 24  2  0
 18 25  1  0
 25 26  1  0
 11 27  2  0
  2 28  1  0
 28 29  2  3
 29 30  1  0
 30 31  1  0
 31 32  2  0
 32 33  1  0
 33 34  2  0
 34 35  1  0
 27  7  1  0
 34 29  1  0
 26 15  1  0
 24 19  1  0
  3 36  1  0
  3 37  1  0
  4 38  1  0
  8 39  1  0
  9 40  1  0
 10 41  1  0
 16 42  1  0
 16 43  1  0
 17 44  1  0
 17 45  1  0
 20 46  1  0
 21 47  1  0
 22 48  1  0
 23 49  1  0
 24 50  1  0
 25 51  1  0
 25 52  1  0
 26 53  1  0
 26 54  1  0
 27 55  1  0
 31 56  1  0
 32 57  1  0
 33 58  1  0
M  CHG  2  30  -1  35  -1
M  END
>  <UniqueID>  (8) 
8

>  <SMILES>  (8) 
O=C(CNC(=O)c1cccc(S(=O)(=O)N2CCN(c3ccccc3)CC2)c1)N=c1[n-]cccc1[O-]

>  <Energy>  (8) 
82.10150364173558

>  <Genealogy>  (8) 
O=C(CNC(=O)c1cccc(S(=O)(=O)N2CCN(c3ccccc3)CC2)c1)N=c1[n-]cccc1[O-] (protonated)
O=C(CNC(=O)c1cccc(S(=O)(=O)N2CCN(c3ccccc3)CC2)c1)N=c1[n-]cccc1[O-] (3D coordinates assigned)
O=C(CNC(=O)c1cccc(S(=O)(=O)N2CCN(c3ccccc3)CC2)c1)N=c1[n-]cccc1[O-] (nonaromatic ring conformer: 82.10150364173558 kcal/mol)

>  <smiles>  (8) 
O=C(CNC(=O)c1cccc(S(=O)(=O)N2CCN(c3ccccc3)CC2)c1)N=c1[nH]cccc1O

>  <score_type>  (8) 
oracle

>  <origin>  (8) 
adg

>  <m_score__min__energy>  (8) 
-15.43

>  <m_primary>  (8) 
energy

$$$$
8:0
     RDKit          3D

 50 52  0  0  0  0  0  0  0  0999 V2000
   57.2768   31.4036   52.4838 H   0  0  0  0  0  0  0  0  0  0  0  0
   57.9980   31.0260   51.7440 C   0  0  0  0  0  0  0  0  0  0  0  0
   58.1210   31.6560   50.5060 C   0  0  0  0  0  0  0  0  0  0  0  0
   57.5028   32.5357   50.2735 H   0  0  0  0  0  0  0  0  0  0  0  0
   59.0290   31.1710   49.5600 C   0  0  0  0  0  0  0  0  0  0  0  0
   59.1149   31.6663   48.5816 H   0  0  0  0  0  0  0  0  0  0  0  0
   59.8330   30.0550   49.8500 C   0  0  0  0  0  0  0  0  0  0  0  0
   60.7840   29.5670   48.8260 C   0  0  0  0  0  0  0  0  0  0  0  0
   61.8990   30.1370   48.7000 O   0  0  0  0  0  0  0  0  0  0  0  0
   60.4380   28.5230   47.9030 N   0  0  0  0  0  0  0  0  0  0  0  0
   59.4290   28.5220   47.0800 C   0  0  0  0  0  0  0  0  0  0  0  0
   58.5160   27.5270   47.0700 N   0  0  0  0  0  0  0  0  0  0  0  0
   57.5100   27.7670   46.1850 C   0  0  0  0  0  0  0  0  0  0  0  0
   56.3950   26.7930   45.9880 C   0  0  0  0  0  0  0  0  0  0  0  0
   56.0183   26.4639   46.9677 H   0  0  0  0  0  0  0  0  0  0  0  0
   55.5819   27.2753   45.4256 H   0  0  0  0  0  0  0  0  0  0  0  0
   56.7637   25.9225   45.4256 H   0  0  0  0  0  0  0  0  0  0  0  0
   57.6340   28.9630   45.4780 C   0  0  0  0  0  0  0  0  0  0  0  0
   56.4830   29.6220   44.3230 S   0  0  0  0  0  0  0  0  0  0  0  0
   55.1450   28.9750   44.5440 O   0  0  0  0  0  0  0  0  0  0  0  0
   56.9310   29.3410   42.9150 O   0  0  0  0  0  0  0  0  0  0  0  0
   56.3410   31.3330   44.5640 N   0  0  0  0  0  0  0  0  0  0  0  0
   57.3660   32.1730   45.1170 C   0  0  0  0  0  0  0  0  0  0  0  0
   57.4780   32.3720   46.5020 C   0  0  0  0  0  0  0  0  0  0  0  0
   56.7898   31.8527   47.1852 H   0  0  0  0  0  0  0  0  0  0  0  0
   58.4550   33.2230   47.0190 C   0  0  0  0  0  0  0  0  0  0  0  0
   58.5353   33.3660   48.1067 H   0  0  0  0  0  0  0  0  0  0  0  0
   59.3350   33.8970   46.1610 C   0  0  0  0  0  0  0  0  0  0  0  0
   60.3880   34.8090   46.7260 C   0  0  0  0  0  0  0  0  0  0  0  0
   60.6928   35.5300   45.9532 H   0  0  0  0  0  0  0  0  0  0  0  0
   59.9686   35.3347   47.5965 H   0  0  0  0  0  0  0  0  0  0  0  0
   61.8170   33.8780   47.2540 S   0  0  0  0  0  0  0  0  0  0  0  0
   61.5240   32.4100   47.1120 O   0  0  0  0  0  0  0  0  0  0  0  0
   63.0060   34.2280   46.4020 O   0  0  0  0  0  0  0  0  0  0  0  0
   62.1890   34.2390   48.9580 C   0  0  0  0  0  0  0  0  0  0  0  0
   61.5535   33.6223   49.6106 H   0  0  0  0  0  0  0  0  0  0  0  0
   63.2471   34.0143   49.1579 H   0  0  0  0  0  0  0  0  0  0  0  0
   61.9961   35.3033   49.1579 H   0  0  0  0  0  0  0  0  0  0  0  0
   59.2460   33.6860   44.7770 C   0  0  0  0  0  0  0  0  0  0  0  0
   59.9423   34.2024   44.0999 H   0  0  0  0  0  0  0  0  0  0  0  0
   58.2740   32.8200   44.2500 C   0  0  0  0  0  0  0  0  0  0  0  0
   58.1690   32.6400   42.7590 C   0  0  0  0  0  0  0  0  0  0  0  0
   57.6259   31.7090   42.5394 H   0  0  0  0  0  0  0  0  0  0  0  0
   57.6264   33.4923   42.3241 H   0  0  0  0  0  0  0  0  0  0  0  0
   59.1780   32.5872   42.3241 H   0  0  0  0  0  0  0  0  0  0  0  0
   59.0270   29.7510   45.9950 S   0  0  0  0  0  0  0  0  0  0  0  0
   59.7130   29.4280   51.1100 C   0  0  0  0  0  0  0  0  0  0  0  0
   60.6420   27.9920   51.5250 Cl  0  0  0  0  0  0  0  0  0  0  0  0
   58.7900   29.9160   52.0450 C   0  0  0  0  0  0  0  0  0  0  0  0
   58.6888   29.4214   53.0223 H   0  0  0  0  0  0  0  0  0  0  0  0
  1  2  1  0
  2  3  2  0
  3  4  1  0
  3  5  1  0
  5  6  1  0
  5  7  2  0
  7  8  1  0
  8  9  2  0
  8 10  1  0
 10 11  2  0
 11 12  1  0
 12 13  1  0
 13 14  1  0
 14 15  1  0
 14 16  1  0
 14 17  1  0
 13 18  2  0
 18 19  1  0
 19 20  2  0
 19 21  2  0
 19 22  1  0
 22 23  1  0
 23 24  2  0
 24 25  1  0
 24 26  1  0
 26 27  1  0
 26 28  2  0
 28 29  1  0
 29 30  1  0
 29 31  1  0
 29 32  1  0
 32 33  2  0
 32 34  2  0
 32 35  1  0
 35 36  1  0
 35 37  1  0
 35 38  1  0
 28 39  1  0
 39 40  1  0
 39 41  2  0
 41 42  1  0
 42 43  1  0
 42 44  1  0
 42 45  1  0
 18 46  1  0
  7 47  1  0
 47 48  1  0
 47 49  2  0
 49 50  1  0
 49  2  1  0
 46 11  1  0
 41 23  1  0
M  CHG  2  12  -1  22  -1
M  END
>  <UniqueID>  (9) 
9

>  <SMILES>  (9) 
Cc1cc(CS(C)(=O)=O)ccc1[N-]S(=O)(=O)c1s/c(=N\C(=O)c2ccccc2Cl)[n-]c1C

>  <Energy>  (9) 
86.51607314298226

>  <Genealogy>  (9) 
Cc1cc(CS(C)(=O)=O)ccc1[N-]S(=O)(=O)c1sc(=NC(=O)c2ccccc2Cl)[n-]c1C (protonated)
Cc1cc(CS(C)(=O)=O)ccc1[N-]S(=O)(=O)c1s/c(=N\C(=O)c2ccccc2Cl)[n-]c1C (cis-trans isomerization)
Cc1cc(CS(C)(=O)=O)ccc1[N-]S(=O)(=O)c1s/c(=N\C(=O)c2ccccc2Cl)[n-]c1C (3D coordinates assigned)
Cc1cc(CS(C)(=O)=O)ccc1[N-]S(=O)(=O)c1s/c(=N\C(=O)c2ccccc2Cl)[n-]c1C (optimized conformer: 86.51607314298226 kcal/mol)

>  <smiles>  (9) 
Cc1cc(CS(C)(=O)=O)ccc1NS(=O)(=O)c1sc(=NC(=O)c2ccccc2Cl)[nH]c1C

>  <score_type>  (9) 
oracle

>  <origin>  (9) 
adg

>  <m_score__min__energy>  (9) 
-12.59

>  <m_primary>  (9) 
energy

$$$$
9:0
     RDKit          3D

 36 38  0  0  0  0  0  0  0  0999 V2000
   59.0080   29.2470   44.5170 C   0  0  0  0  0  0  0  0  0  0  0  0
   57.8010   29.2010   45.0790 C   0  0  0  0  0  0  0  0  0  0  0  0
   56.4030   29.9030   44.2750 S   0  0  0  0  0  0  0  0  0  0  0  0
   55.1520   29.3190   44.8680 O   0  0  0  0  0  0  0  0  0  0  0  0
   56.4400   29.6090   42.8020 O   0  0  0  0  0  0  0  0  0  0  0  0
   56.3890   31.6190   44.5230 N   0  0  0  0  0  0  0  0  0  0  0  0
   57.4680   32.3830   45.0770 C   0  0  0  0  0  0  0  0  0  0  0  0
   58.2140   33.2920   44.3050 C   0  0  0  0  0  0  0  0  0  0  0  0
   59.2680   34.0060   44.8820 C   0  0  0  0  0  0  0  0  0  0  0  0
   59.6070   33.8040   46.2290 C   0  0  0  0  0  0  0  0  0  0  0  0
   60.6970   34.5690   46.8530 C   0  0  0  0  0  0  0  0  0  0  0  0
   61.7590   34.0160   47.4590 C   0  0  0  0  0  0  0  0  0  0  0  0
   63.0460   33.7290   46.8190 C   0  0  0  0  0  0  0  0  0  0  0  0
   63.3490   34.0100   45.6290 O   0  0  0  0  0  0  0  0  0  0  0  0
   63.9280   33.0660   47.7160 N   0  0  0  0  0  0  0  0  0  0  0  0
   63.2030   32.9750   48.9360 C   0  0  0  0  0  0  0  0  0  0  0  0
   63.6900   32.4710   50.1410 C   0  0  0  0  0  0  0  0  0  0  0  0
   62.8710   32.5470   51.2770 C   0  0  0  0  0  0  0  0  0  0  0  0
   61.5990   33.1490   51.1990 C   0  0  0  0  0  0  0  0  0  0  0  0
   60.6060   33.2810   52.6390 Cl  0  0  0  0  0  0  0  0  0  0  0  0
   61.1310   33.6650   49.9790 C   0  0  0  0  0  0  0  0  0  0  0  0
   61.9360   33.5310   48.8400 C   0  0  0  0  0  0  0  0  0  0  0  0
   58.8390   32.9290   47.0070 C   0  0  0  0  0  0  0  0  0  0  0  0
   57.7820   32.2170   46.4320 C   0  0  0  0  0  0  0  0  0  0  0  0
   59.8722   28.8032   45.0329 H   0  0  0  0  0  0  0  0  0  0  0  0
   59.1404   29.7288   43.5370 H   0  0  0  0  0  0  0  0  0  0  0  0
   57.6770   28.7174   46.0592 H   0  0  0  0  0  0  0  0  0  0  0  0
   57.9670   33.4414   43.2436 H   0  0  0  0  0  0  0  0  0  0  0  0
   59.8345   34.7297   44.2776 H   0  0  0  0  0  0  0  0  0  0  0  0
   60.6379   35.6669   46.8209 H   0  0  0  0  0  0  0  0  0  0  0  0
   64.9110   32.7620   47.5340 H   0  0  0  0  0  0  0  0  0  0  0  0
   64.6934   32.0240   50.1995 H   0  0  0  0  0  0  0  0  0  0  0  0
   63.2233   32.1346   52.2340 H   0  0  0  0  0  0  0  0  0  0  0  0
   60.1525   34.1640   49.9192 H   0  0  0  0  0  0  0  0  0  0  0  0
   59.0683   32.8012   48.0752 H   0  0  0  0  0  0  0  0  0  0  0  0
   57.1929   31.5216   47.0480 H   0  0  0  0  0  0  0  0  0  0  0  0
  1  2  2  0
  2  3  1  0
  3  4  2  0
  3  5  2  0
  3  6  1  0
  6  7  1  0
  7  8  2  0
  8  9  1  0
  9 10  2  0
 10 11  1  0
 11 12  2  3
 12 13  1  0
 13 14  2  0
 13 15  1  0
 15 16  1  0
 16 17  2  0
 17 18  1  0
 18 19  2  0
 19 20  1  0
 19 21  1  0
 21 22  2  0
 10 23  1  0
 23 24  2  0
 24  7  1  0
 22 12  1  0
 22 16  1  0
  1 25  1  0
  1 26  1  0
  2 27  1  0
  8 28  1  0
  9 29  1  0
 11 30  1  0
 15 31  1  0
 17 32  1  0
 18 33  1  0
 21 34  1  0
 23 35  1  0
 24 36  1  0
M  CHG  1   6  -1
M  END
>  <UniqueID>  (10) 
10

>  <SMILES>  (10) 
C=CS(=O)(=O)[N-]c1ccc(C=C2C(=O)Nc3ccc(Cl)cc32)cc1

>  <Energy>  (10) 
77.98587283307285

>  <Genealogy>  (10) 
C=CS(=O)(=O)[N-]c1ccc(C=C2C(=O)Nc3ccc(Cl)cc32)cc1 (protonated)
C=CS(=O)(=O)[N-]c1ccc(C=C2C(=O)Nc3ccc(Cl)cc32)cc1 (3D coordinates assigned)
C=CS(=O)(=O)[N-]c1ccc(C=C2C(=O)Nc3ccc(Cl)cc32)cc1 (nonaromatic ring conformer: 77.98587283307285 kcal/mol)

>  <smiles>  (10) 
C=CS(=O)(=O)Nc1ccc(C=C2C(=O)Nc3ccc(Cl)cc32)cc1

>  <score_type>  (10) 
oracle

>  <origin>  (10) 
adg

>  <m_score__min__energy>  (10) 
-10.69

>  <m_primary>  (10) 
energy

$$$$
10:0
     RDKit          3D

 56 58  0  0  0  0  0  0  0  0999 V2000
   59.8570   26.9580   45.6160 C   0  0  0  0  0  0  0  0  0  0  0  0
   58.9790   28.1170   45.3590 N   0  0  0  0  0  0  0  0  0  0  0  0
   58.9340   29.1650   46.2490 C   0  0  0  0  0  0  0  0  0  0  0  0
   59.7490   29.1800   47.5220 C   0  0  0  0  0  0  0  0  0  0  0  0
   59.0510   29.9630   48.5340 N   0  0  0  0  0  0  0  0  0  0  0  0
   59.6500   30.4770   49.7300 C   0  0  0  0  0  0  0  0  0  0  0  0
   59.4780   29.8480   50.8070 O   0  0  0  0  0  0  0  0  0  0  0  0
   60.5500   31.6930   49.7120 C   0  0  0  0  0  0  0  0  0  0  0  0
   60.6400   32.3270   48.3740 N   0  0  1  0  0  0  0  0  0  0  0  0
   60.0190   33.6720   48.3870 C   0  0  0  0  0  0  0  0  0  0  0  0
   59.1750   33.9210   47.1580 C   0  0  0  0  0  0  0  0  0  0  0  0
   59.7150   34.6090   46.0590 C   0  0  0  0  0  0  0  0  0  0  0  0
   58.9400   34.8290   44.9160 C   0  0  0  0  0  0  0  0  0  0  0  0
   57.6240   34.3620   44.8600 C   0  0  0  0  0  0  0  0  0  0  0  0
   57.0800   33.6750   45.9490 C   0  0  0  0  0  0  0  0  0  0  0  0
   57.8510   33.4540   47.0940 C   0  0  0  0  0  0  0  0  0  0  0  0
   62.3120   32.4660   47.8570 S   0  0  0  0  0  0  0  0  0  0  0  0
   62.7810   31.1530   47.2940 O   0  0  0  0  0  0  0  0  0  0  0  0
   62.4290   33.4930   46.7650 O   0  0  0  0  0  0  0  0  0  0  0  0
   63.3690   32.9320   49.1910 C   0  0  0  0  0  0  0  0  0  0  0  0
   62.9710   33.9270   50.0970 C   0  0  0  0  0  0  0  0  0  0  0  0
   63.8170   34.3040   51.1440 C   0  0  0  0  0  0  0  0  0  0  0  0
   65.0600   33.6840   51.2970 C   0  0  0  0  0  0  0  0  0  0  0  0
   65.4590   32.6860   50.4040 C   0  0  0  0  0  0  0  0  0  0  0  0
   64.6160   32.3080   49.3540 C   0  0  0  0  0  0  0  0  0  0  0  0
   58.0670   30.2330   46.0150 C   0  0  0  0  0  0  0  0  0  0  0  0
   57.3110   30.2560   44.8530 C   0  0  0  0  0  0  0  0  0  0  0  0
   56.5180   31.2180   44.6610 O   0  0  0  0  0  0  0  0  0  0  0  0
   57.4280   29.2480   43.9350 N   0  0  0  0  0  0  0  0  0  0  0  0
   56.6190   29.2740   42.7020 C   0  0  0  0  0  0  0  0  0  0  0  0
   58.2430   28.1750   44.1970 C   0  0  0  0  0  0  0  0  0  0  0  0
   58.3140   27.2300   43.3590 O   0  0  0  0  0  0  0  0  0  0  0  0
   59.9660   26.8141   46.7011 H   0  0  0  0  0  0  0  0  0  0  0  0
   59.4136   26.0559   45.1692 H   0  0  0  0  0  0  0  0  0  0  0  0
   60.8454   27.1406   45.1692 H   0  0  0  0  0  0  0  0  0  0  0  0
   59.8841   28.1499   47.8835 H   0  0  0  0  0  0  0  0  0  0  0  0
   60.7330   29.6297   47.3233 H   0  0  0  0  0  0  0  0  0  0  0  0
   60.1549   32.4322   50.4244 H   0  0  0  0  0  0  0  0  0  0  0  0
   61.5613   31.3583   49.9865 H   0  0  0  0  0  0  0  0  0  0  0  0
   60.1440   31.7350   47.6670 H   0  0  0  0  0  0  0  0  0  0  0  0
   59.3811   33.7595   49.2789 H   0  0  0  0  0  0  0  0  0  0  0  0
   60.8273   34.4180   48.3994 H   0  0  0  0  0  0  0  0  0  0  0  0
   60.7512   34.9761   46.0975 H   0  0  0  0  0  0  0  0  0  0  0  0
   59.3671   35.3708   44.0592 H   0  0  0  0  0  0  0  0  0  0  0  0
   57.0166   34.5350   43.9594 H   0  0  0  0  0  0  0  0  0  0  0  0
   56.0440   33.3078   45.9050 H   0  0  0  0  0  0  0  0  0  0  0  0
   57.4195   32.9122   47.9486 H   0  0  0  0  0  0  0  0  0  0  0  0
   61.9902   34.4118   49.9829 H   0  0  0  0  0  0  0  0  0  0  0  0
   63.5041   35.0892   51.8479 H   0  0  0  0  0  0  0  0  0  0  0  0
   65.7249   33.9818   52.1211 H   0  0  0  0  0  0  0  0  0  0  0  0
   66.4368   32.1973   50.5270 H   0  0  0  0  0  0  0  0  0  0  0  0
   64.9308   31.5199   48.6542 H   0  0  0  0  0  0  0  0  0  0  0  0
   57.9840   31.0502   46.7466 H   0  0  0  0  0  0  0  0  0  0  0  0
   55.5514   29.3083   42.9646 H   0  0  0  0  0  0  0  0  0  0  0  0
   56.8800   30.1642   42.1109 H   0  0  0  0  0  0  0  0  0  0  0  0
   56.8223   28.3689   42.1109 H   0  0  0  0  0  0  0  0  0  0  0  0
  1  2  1  0
  2  3  1  0
  3  4  1  0
  4  5  1  0
  5  6  1  0
  6  7  2  0
  6  8  1  0
  8  9  1  0
  9 10  1  0
 10 11  1  0
 11 12  2  0
 12 13  1  0
 13 14  2  0
 14 15  1  0
 15 16  2  0
  9 17  1  0
 17 18  2  0
 17 19  2  0
 17 20  1  0
 20 21  2  0
 21 22  1  0
 22 23  2  0
 23 24  1  0
 24 25  2  0
  3 26  2  0
 26 27  1  0
 27 28  2  0
 27 29  1  0
 29 30  1  0
 29 31  1  0
 31 32  2  0
 31  2  1  0
 16 11  1  0
 25 20  1  0
  1 33  1  0
  1 34  1  0
  1 35  1  0
  4 36  1  0
  4 37  1  0
  8 38  1  0
  8 39  1  0
  9 40  1  6
 10 41  1  0
 10 42  1  0
 12 43  1  0
 13 44  1  0
 14 45  1  0
 15 46  1  0
 16 47  1  0
 21 48  1  0
 22 49  1  0
 23 50  1  0
 24 51  1  0
 25 52  1  0
 26 53  1  0
 30 54  1  0
 30 55  1  0
 30 56  1  0
M  CHG  2   5  -1   9   1
M  END
>  <UniqueID>  (11) 
11

>  <SMILES>  (11) 
Cn1c(C[N-]C(=O)C[N@@H+](Cc2ccccc2)S(=O)(=O)c2ccccc2)cc(=O)n(C)c1=O

>  <Energy>  (11) 
64.4438733292105

>  <Genealogy>  (11) 
Cn1c(C[N-]C(=O)C[NH+](Cc2ccccc2)S(=O)(=O)c2ccccc2)cc(=O)n(C)c1=O (protonated)
Cn1c(C[N-]C(=O)C[N@@H+](Cc2ccccc2)S(=O)(=O)c2ccccc2)cc(=O)n(C)c1=O (chirality)
Cn1c(C[N-]C(=O)C[N@@H+](Cc2ccccc2)S(=O)(=O)c2ccccc2)cc(=O)n(C)c1=O (3D coordinates assigned)
Cn1c(C[N-]C(=O)C[N@@H+](Cc2ccccc2)S(=O)(=O)c2ccccc2)cc(=O)n(C)c1=O (optimized conformer: 64.4438733292105 kcal/mol)

>  <smiles>  (11) 
Cn1c(CNC(=O)CN(Cc2ccccc2)S(=O)(=O)c2ccccc2)cc(=O)n(C)c1=O

>  <score_type>  (11) 
oracle

>  <origin>  (11) 
adg

>  <m_score__min__energy>  (11) 
-9.0700000000000003

>  <m_primary>  (11) 
energy

$$$$
11:0
     RDKit          3D

 40 42  0  0  0  0  0  0  0  0999 V2000
   54.7450   28.5740   44.5130 H   0  0  0  0  0  0  0  0  0  0  0  0
   55.5350   28.5070   45.1280 O   0  0  0  0  0  0  0  0  0  0  0  0
   55.9450   27.2730   45.6070 C   0  0  0  0  0  0  0  0  0  0  0  0
   55.1290   26.3170   46.0670 N   0  0  0  0  0  0  0  0  0  0  0  0
   55.9710   25.3380   46.4310 C   0  0  0  0  0  0  0  0  0  0  0  0
   55.5790   24.2360   46.8980 O   0  0  0  0  0  0  0  0  0  0  0  0
   57.2720   25.6220   46.2270 N   0  0  0  0  0  0  0  0  0  0  0  0
   57.2460   26.8520   45.6860 C   0  0  0  0  0  0  0  0  0  0  0  0
   58.4340   27.6800   45.4170 C   0  0  0  0  0  0  0  0  0  0  0  0
   59.3102   27.1900   44.9674 H   0  0  0  0  0  0  0  0  0  0  0  0
   58.5190   28.9980   45.6850 C   0  0  0  0  0  0  0  0  0  0  0  0
   57.9970   29.9950   44.9160 C   0  0  0  0  0  0  0  0  0  0  0  0
   57.3808   29.7503   44.0383 H   0  0  0  0  0  0  0  0  0  0  0  0
   58.2440   31.3090   45.2420 C   0  0  0  0  0  0  0  0  0  0  0  0
   58.4570   32.8080   45.4090 C   0  0  0  0  0  0  0  0  0  0  0  0
   59.5980   33.2760   45.8450 N   0  0  0  0  0  0  0  0  0  0  0  0
   59.8740   34.0370   47.3760 S   0  0  0  0  0  0  0  0  0  0  0  0
   59.5600   35.5070   47.2600 O   0  0  0  0  0  0  0  0  0  0  0  0
   58.9450   33.4290   48.3860 O   0  0  0  0  0  0  0  0  0  0  0  0
   61.5360   33.8560   47.9440 C   0  0  0  0  0  0  0  0  0  0  0  0
   61.8310   34.1250   49.2920 C   0  0  0  0  0  0  0  0  0  0  0  0
   61.0564   34.5547   49.9442 H   0  0  0  0  0  0  0  0  0  0  0  0
   63.0970   33.8520   49.8100 C   0  0  0  0  0  0  0  0  0  0  0  0
   63.3154   34.0515   50.8695 H   0  0  0  0  0  0  0  0  0  0  0  0
   64.0920   33.3210   48.9720 C   0  0  0  0  0  0  0  0  0  0  0  0
   65.0963   33.1160   49.3713 H   0  0  0  0  0  0  0  0  0  0  0  0
   63.8050   33.0540   47.6330 C   0  0  0  0  0  0  0  0  0  0  0  0
   64.5837   32.6337   46.9796 H   0  0  0  0  0  0  0  0  0  0  0  0
   62.5280   33.3190   47.1160 C   0  0  0  0  0  0  0  0  0  0  0  0
   62.3066   33.1047   46.0600 H   0  0  0  0  0  0  0  0  0  0  0  0
   57.3770   33.6940   44.8460 C   0  0  0  0  0  0  0  0  0  0  0  0
   56.8144   34.1556   45.6708 H   0  0  0  0  0  0  0  0  0  0  0  0
   57.8336   34.4811   44.2280 H   0  0  0  0  0  0  0  0  0  0  0  0
   56.6943   33.0924   44.2280 H   0  0  0  0  0  0  0  0  0  0  0  0
   58.8890   30.9870   46.4580 N   0  0  0  0  0  0  0  0  0  0  0  0
   59.2440   31.6530   47.2020 H   0  0  0  0  0  0  0  0  0  0  0  0
   59.1050   29.6870   46.6840 C   0  0  0  0  0  0  0  0  0  0  0  0
   59.7790   29.2270   47.7430 C   0  0  0  0  0  0  0  0  0  0  0  0
   59.9244   28.1446   47.8747 H   0  0  0  0  0  0  0  0  0  0  0  0
   60.1882   29.9309   48.4827 H   0  0  0  0  0  0  0  0  0  0  0  0
  1  2  1  0
  2  3  1  0
  3  4  1  0
  4  5  1  0
  5  6  2  0
  5  7  1  0
  7  8  1  0
  8  9  1  0
  9 10  1  0
  9 11  2  0
 11 12  1  0
 12 13  1  0
 12 14  2  0
 14 15  1  0
 15 16  2  3
 16 17  1  0
 17 18  2  0
 17 19  2  0
 17 20  1  0
 20 21  2  0
 21 22  1  0
 21 23  1  0
 23 24  1  0
 23 25  2  0
 25 26  1  0
 25 27  1  0
 27 28  1  0
 27 29  2  0
 29 30  1  0
 15 31  1  0
 31 32  1  0
 31 33  1  0
 31 34  1  0
 14 35  1  0
 35 36  1  0
 35 37  1  0
 37 38  2  0
 38 39  1  0
 38 40  1  0
  8  3  2  0
 37 11  1  0
 29 20  1  0
M  CHG  2   4  -1   7  -1
M  END
>  <UniqueID>  (12) 
12

>  <SMILES>  (12) 
C=c1[nH]c(C(C)=NS(=O)(=O)c2ccccc2)c/c1=C/c1[n-]c(=O)[n-]c1O

>  <Energy>  (12) 
223.9119502682968

>  <Genealogy>  (12) 
C=c1[nH]c(C(C)=NS(=O)(=O)c2ccccc2)cc1=Cc1[n-]c(=O)[n-]c1O (protonated)
C=c1[nH]c(C(C)=NS(=O)(=O)c2ccccc2)c/c1=C/c1[n-]c(=O)[n-]c1O (cis-trans isomerization)
C=c1[nH]c(C(C)=NS(=O)(=O)c2ccccc2)c/c1=C/c1[n-]c(=O)[n-]c1O (3D coordinates assigned)
C=c1[nH]c(C(C)=NS(=O)(=O)c2ccccc2)c/c1=C/c1[n-]c(=O)[n-]c1O (optimized conformer: 223.9119502682968 kcal/mol)

>  <smiles>  (12) 
C=c1[nH]c(C(C)=NS(=O)(=O)c2ccccc2)cc1=Cc1[nH]c(=O)[nH]c1O

>  <score_type>  (12) 
oracle

>  <origin>  (12) 
adg

>  <m_score__min__energy>  (12) 
-13.98

>  <m_primary>  (12) 
energy

$$$$
12:0
     RDKit          3D

 57 59  0  0  0  0  0  0  0  0999 V2000
   59.7080   32.7870   48.5280 C   0  0  0  0  0  0  0  0  0  0  0  0
   59.4830   33.5380   47.2420 C   0  0  0  0  0  0  0  0  0  0  0  0
   59.6600   34.9300   47.2200 C   0  0  0  0  0  0  0  0  0  0  0  0
   59.4830   35.6460   46.0360 C   0  0  0  0  0  0  0  0  0  0  0  0
   59.1200   34.9860   44.8630 C   0  0  0  0  0  0  0  0  0  0  0  0
   58.9120   33.5990   44.8650 C   0  0  0  0  0  0  0  0  0  0  0  0
   58.5110   32.9010   43.5940 C   0  0  0  0  0  0  0  0  0  0  0  0
   59.0840   32.8700   46.0610 C   0  0  0  0  0  0  0  0  0  0  0  0
   58.8890   31.4480   46.0610 N   0  0  0  0  0  0  0  0  0  0  0  0
   57.6620   30.8480   45.6290 C   0  0  0  0  0  0  0  0  0  0  0  0
   56.7130   31.5700   45.2170 O   0  0  0  0  0  0  0  0  0  0  0  0
   57.4900   29.3530   45.7090 C   0  0  1  0  0  0  0  0  0  0  0  0
   56.9190   28.7950   44.4040 C   0  0  0  0  0  0  0  0  0  0  0  0
   58.1170   28.2030   43.6540 C   0  0  2  0  0  0  0  0  0  0  0  0
   57.7740   27.0520   42.9220 O   0  0  0  0  0  0  0  0  0  0  0  0
   59.1810   27.9220   44.7150 C   0  0  0  0  0  0  0  0  0  0  0  0
   58.7790   28.6930   45.8830 N   0  0  0  0  0  0  0  0  0  0  0  0
   59.5290   28.7420   47.1120 C   0  0  0  0  0  0  0  0  0  0  0  0
   60.7550   29.0420   47.0870 O   0  0  0  0  0  0  0  0  0  0  0  0
   58.8770   28.4780   48.4350 C   0  0  0  0  0  0  0  0  0  0  0  0
   59.4820   29.3250   49.4500 N   0  0  0  0  0  0  0  0  0  0  0  0
   60.6520   28.9360   50.1720 C   0  0  0  0  0  0  0  0  0  0  0  0
   60.5880   27.9590   50.9640 O   0  0  0  0  0  0  0  0  0  0  0  0
   61.8530   29.6310   49.9890 O   0  0  0  0  0  0  0  0  0  0  0  0
   62.1050   30.9230   50.5380 C   0  0  0  0  0  0  0  0  0  0  0  0
   62.5130   31.8850   49.4550 C   0  0  0  0  0  0  0  0  0  0  0  0
   62.7250   33.2390   49.7640 C   0  0  0  0  0  0  0  0  0  0  0  0
   63.1180   34.1350   48.7650 C   0  0  0  0  0  0  0  0  0  0  0  0
   63.3090   33.6850   47.4550 C   0  0  0  0  0  0  0  0  0  0  0  0
   63.1080   32.3380   47.1430 C   0  0  0  0  0  0  0  0  0  0  0  0
   62.7130   31.4380   48.1380 C   0  0  0  0  0  0  0  0  0  0  0  0
   59.5086   33.4524   49.3809 H   0  0  0  0  0  0  0  0  0  0  0  0
   59.0295   31.9223   48.5712 H   0  0  0  0  0  0  0  0  0  0  0  0
   60.7502   32.4378   48.5712 H   0  0  0  0  0  0  0  0  0  0  0  0
   59.9401   35.4599   48.1424 H   0  0  0  0  0  0  0  0  0  0  0  0
   59.6305   36.7360   46.0279 H   0  0  0  0  0  0  0  0  0  0  0  0
   58.9960   35.5563   43.9306 H   0  0  0  0  0  0  0  0  0  0  0  0
   57.9768   31.9712   43.8391 H   0  0  0  0  0  0  0  0  0  0  0  0
   57.8527   33.5581   43.0068 H   0  0  0  0  0  0  0  0  0  0  0  0
   59.4103   32.6633   43.0068 H   0  0  0  0  0  0  0  0  0  0  0  0
   59.7110   30.8350   46.2650 H   0  0  0  0  0  0  0  0  0  0  0  0
   56.8162   29.1644   46.5578 H   0  0  0  0  0  0  0  0  0  0  0  0
   56.1726   28.0146   44.6134 H   0  0  0  0  0  0  0  0  0  0  0  0
   56.4119   29.5730   43.8144 H   0  0  0  0  0  0  0  0  0  0  0  0
   58.4935   28.9064   42.8967 H   0  0  0  0  0  0  0  0  0  0  0  0
   56.8220   27.1350   42.6530 H   0  0  0  0  0  0  0  0  0  0  0  0
   59.2110   26.8488   44.9545 H   0  0  0  0  0  0  0  0  0  0  0  0
   60.1868   28.2013   44.3682 H   0  0  0  0  0  0  0  0  0  0  0  0
   57.8019   28.7001   48.3650 H   0  0  0  0  0  0  0  0  0  0  0  0
   59.0156   27.4215   48.7082 H   0  0  0  0  0  0  0  0  0  0  0  0
   61.1915   31.2935   51.0261 H   0  0  0  0  0  0  0  0  0  0  0  0
   62.9214   30.8452   51.2710 H   0  0  0  0  0  0  0  0  0  0  0  0
   62.5814   33.5953   50.7947 H   0  0  0  0  0  0  0  0  0  0  0  0
   63.2771   35.1955   49.0101 H   0  0  0  0  0  0  0  0  0  0  0  0
   63.6174   34.3913   46.6702 H   0  0  0  0  0  0  0  0  0  0  0  0
   63.2608   31.9846   46.1126 H   0  0  0  0  0  0  0  0  0  0  0  0
   62.5585   30.3778   47.8890 H   0  0  0  0  0  0  0  0  0  0  0  0
  1  2  1  0
  2  3  2  0
  3  4  1  0
  4  5  2  0
  5  6  1  0
  6  7  1  0
  6  8  2  0
  8  9  1  0
  9 10  1  0
 10 11  2  0
 10 12  1  0
 12 13  1  0
 13 14  1  0
 14 15  1  0
 14 16  1  0
 16 17  1  0
 17 18  1  0
 18 19  2  0
 18 20  1  0
 20 21  1  0
 21 22  1  0
 22 23  2  0
 22 24  1  0
 24 25  1  0
 25 26  1  0
 26 27  2  0
 27 28  1  0
 28 29  2  0
 29 30  1  0
 30 31  2  0
  8  2  1  0
 17 12  1  0
 31 26  1  0
  1 32  1  0
  1 33  1  0
  1 34  1  0
  3 35  1  0
  4 36  1  0
  5 37  1  0
  7 38  1  0
  7 39  1  0
  7 40  1  0
  9 41  1  0
 12 42  1  1
 13 43  1  0
 13 44  1  0
 14 45  1  6
 15 46  1  0
 16 47  1  0
 16 48  1  0
 20 49  1  0
 20 50  1  0
 25 51  1  0
 25 52  1  0
 27 53  1  0
 28 54  1  0
 29 55  1  0
 30 56  1  0
 31 57  1  0
M  CHG  1  21  -1
M  END
>  <UniqueID>  (13) 
13

>  <SMILES>  (13) 
Cc1cccc(C)c1NC(=O)[C@H]1C[C@H](O)CN1C(=O)C[N-]C(=O)OCc1ccccc1

>  <Energy>  (13) 
58.56626134025063

>  <Genealogy>  (13) 
Cc1cccc(C)c1NC(=O)C1CC(O)CN1C(=O)C[N-]C(=O)OCc1ccccc1 (protonated)
Cc1cccc(C)c1NC(=O)[C@H]1C[C@H](O)CN1C(=O)C[N-]C(=O)OCc1ccccc1 (chirality)
Cc1cccc(C)c1NC(=O)[C@H]1C[C@H](O)CN1C(=O)C[N-]C(=O)OCc1ccccc1 (3D coordinates assigned)
Cc1cccc(C)c1NC(=O)[C@H]1C[C@H](O)CN1C(=O)C[N-]C(=O)OCc1ccccc1 (nonaromatic ring conformer: 58.56626134025063 kcal/mol)

>  <smiles>  (13) 
Cc1cccc(C)c1NC(=O)C1CC(O)CN1C(=O)CNC(=O)OCc1ccccc1

>  <score_type>  (13) 
oracle

>  <origin>  (13) 
adg

>  <m_score__min__energy>  (13) 
-9.3100000000000005

>  <m_primary>  (13) 
energy

$$$$
13:0
     RDKit          3D

 28 29  0  0  0  0  0  0  0  0999 V2000
   59.3360   35.2920   45.1770 C   0  0  0  0  0  0  0  0  0  0  0  0
   58.9560   34.6990   46.8550 S   0  0  0  0  0  0  0  0  0  0  0  0
   58.6220   33.0220   46.3160 C   0  0  0  0  0  0  0  0  0  0  0  0
   57.7800   32.7910   45.2230 C   0  0  0  0  0  0  0  0  0  0  0  0
   57.5150   31.4830   44.8030 C   0  0  0  0  0  0  0  0  0  0  0  0
   58.0800   30.3910   45.4890 C   0  0  0  0  0  0  0  0  0  0  0  0
   57.8560   29.0350   45.0780 N   0  0  0  0  0  0  0  0  0  0  0  0
   56.7130   28.2240   45.3870 C   0  0  0  0  0  0  0  0  0  0  0  0
   55.5540   28.6610   45.1480 O   0  0  0  0  0  0  0  0  0  0  0  0
   56.8780   26.8970   46.0390 C   0  0  0  0  0  0  0  0  0  0  0  0
   58.1510   26.4930   46.4860 C   0  0  0  0  0  0  0  0  0  0  0  0
   58.3270   25.2530   47.0990 C   0  0  0  0  0  0  0  0  0  0  0  0
   57.2280   24.4130   47.2680 C   0  0  0  0  0  0  0  0  0  0  0  0
   57.3690   23.2890   47.8180 O   0  0  0  0  0  0  0  0  0  0  0  0
   56.0020   24.8070   46.8390 N   0  0  0  0  0  0  0  0  0  0  0  0
   55.7950   26.0090   46.2380 C   0  0  0  0  0  0  0  0  0  0  0  0
   54.5070   26.3380   45.8350 O   0  0  0  0  0  0  0  0  0  0  0  0
   58.9390   30.6320   46.5690 C   0  0  0  0  0  0  0  0  0  0  0  0
   59.2010   31.9400   46.9880 C   0  0  0  0  0  0  0  0  0  0  0  0
   59.9285   36.2166   45.2403 H   0  0  0  0  0  0  0  0  0  0  0  0
   59.9108   34.5243   44.6382 H   0  0  0  0  0  0  0  0  0  0  0  0
   58.3984   35.4935   44.6382 H   0  0  0  0  0  0  0  0  0  0  0  0
   57.3249   33.6402   44.6922 H   0  0  0  0  0  0  0  0  0  0  0  0
   56.8634   31.3073   43.9344 H   0  0  0  0  0  0  0  0  0  0  0  0
   59.0140   27.1615   46.3504 H   0  0  0  0  0  0  0  0  0  0  0  0
   59.3232   24.9410   47.4457 H   0  0  0  0  0  0  0  0  0  0  0  0
   59.4107   29.7864   47.0910 H   0  0  0  0  0  0  0  0  0  0  0  0
   59.8636   32.1187   47.8476 H   0  0  0  0  0  0  0  0  0  0  0  0
  1  2  1  0
  2  3  1  0
  3  4  2  0
  4  5  1  0
  5  6  2  0
  6  7  1  0
  7  8  1  0
  8  9  2  0
  8 10  1  0
 10 11  1  0
 11 12  2  0
 12 13  1  0
 13 14  2  0
 13 15  1  0
 15 16  1  0
 16 17  1  0
  6 18  1  0
 18 19  2  0
 19  3  1  0
 16 10  2  0
  1 20  1  0
  1 21  1  0
  1 22  1  0
  4 23  1  0
  5 24  1  0
 11 25  1  0
 12 26  1  0
 18 27  1  0
 19 28  1  0
M  CHG  3   7  -1  15  -1  17  -1
M  END
>  <UniqueID>  (14) 
14

>  <SMILES>  (14) 
CSc1ccc([N-]C(=O)c2ccc(=O)[n-]c2[O-])cc1

>  <Energy>  (14) 
31.725083059568263

>  <Genealogy>  (14) 
CSc1ccc([N-]C(=O)c2ccc(=O)[n-]c2[O-])cc1 (protonated)
CSc1ccc([N-]C(=O)c2ccc(=O)[n-]c2[O-])cc1 (3D coordinates assigned)
CSc1ccc([N-]C(=O)c2ccc(=O)[n-]c2[O-])cc1 (optimized conformer: 31.725083059568263 kcal/mol)

>  <smiles>  (14) 
CSc1ccc(NC(=O)c2ccc(=O)[nH]c2O)cc1

>  <score_type>  (14) 
oracle

>  <origin>  (14) 
adg

>  <m_score__min__energy>  (14) 
-14.4

>  <m_primary>  (14) 
energy

$$$$
14:0
     RDKit          3D

 65 69  0  0  0  0  0  0  0  0999 V2000
   59.2010   21.9570   44.1840 C   0  0  0  0  0  0  0  0  0  0  0  0
   57.8540   22.6170   44.1110 C   0  0  0  0  0  0  0  0  0  0  0  0
   56.9970   22.3740   43.0300 C   0  0  0  0  0  0  0  0  0  0  0  0
   55.7400   22.9790   42.9830 C   0  0  0  0  0  0  0  0  0  0  0  0
   55.3270   23.8220   44.0160 C   0  0  0  0  0  0  0  0  0  0  0  0
   56.1680   24.0690   45.1170 C   0  0  0  0  0  0  0  0  0  0  0  0
   55.7130   24.9410   46.2250 C   0  0  0  0  0  0  0  0  0  0  0  0
   55.5220   24.4450   47.3690 O   0  0  0  0  0  0  0  0  0  0  0  0
   55.5810   26.3550   46.0280 N   0  0  0  0  0  0  0  0  0  0  0  0
   56.6610   27.2920   45.9040 C   0  0  0  0  0  0  0  0  0  0  0  0
   56.6070   28.3810   44.9930 C   0  0  0  0  0  0  0  0  0  0  0  0
   57.6170   29.3580   44.9850 C   0  0  0  0  0  0  0  0  0  0  0  0
   58.6770   29.2080   45.8740 C   0  0  0  0  0  0  0  0  0  0  0  0
   58.7710   28.1270   46.7000 C   0  0  0  0  0  0  0  0  0  0  0  0
   57.7800   27.1470   46.7430 C   0  0  0  0  0  0  0  0  0  0  0  0
   59.9160   28.3520   47.5690 C   0  0  0  0  0  0  0  0  0  0  0  0
   60.4340   27.4620   48.2960 O   0  0  0  0  0  0  0  0  0  0  0  0
   60.4530   29.6840   47.4400 N   0  0  2  0  0  0  0  0  0  0  0  0
   60.0920   30.4880   48.6010 C   0  0  0  0  0  0  0  0  0  0  0  0
   58.9440   30.8870   48.7470 O   0  0  0  0  0  0  0  0  0  0  0  0
   61.1470   30.9460   49.5880 C   0  0  0  0  0  0  0  0  0  0  0  0
   61.7230   32.2820   49.3030 N   0  0  0  0  0  0  0  0  0  0  0  0
   61.1400   33.4260   50.0150 C   0  0  0  0  0  0  0  0  0  0  0  0
   60.0730   34.1250   49.1770 C   0  0  0  0  0  0  0  0  0  0  0  0
   60.6550   34.5910   47.9050 N   0  0  0  0  0  0  0  0  0  0  0  0
   59.6440   35.3220   47.1070 C   0  0  0  0  0  0  0  0  0  0  0  0
   58.9030   34.3990   46.1750 C   0  0  0  0  0  0  0  0  0  0  0  0
   59.2240   34.3580   44.8050 C   0  0  0  0  0  0  0  0  0  0  0  0
   58.5920   33.4390   43.9570 C   0  0  0  0  0  0  0  0  0  0  0  0
   57.6330   32.5610   44.4710 C   0  0  0  0  0  0  0  0  0  0  0  0
   57.3080   32.5970   45.8320 C   0  0  0  0  0  0  0  0  0  0  0  0
   57.9400   33.5090   46.6830 C   0  0  0  0  0  0  0  0  0  0  0  0
   61.1380   33.4300   47.1290 C   0  0  0  0  0  0  0  0  0  0  0  0
   62.1530   32.5750   47.9200 C   0  0  0  0  0  0  0  0  0  0  0  0
   59.7480   30.1230   46.2520 C   0  0  0  0  0  0  0  0  0  0  0  0
   60.0150   31.1900   45.6400 O   0  0  0  0  0  0  0  0  0  0  0  0
   57.4360   23.4580   45.1550 C   0  0  0  0  0  0  0  0  0  0  0  0
   59.4846   21.8180   45.2377 H   0  0  0  0  0  0  0  0  0  0  0  0
   59.1573   20.9782   43.6839 H   0  0  0  0  0  0  0  0  0  0  0  0
   59.9477   22.5913   43.6839 H   0  0  0  0  0  0  0  0  0  0  0  0
   57.3152   21.7052   42.2167 H   0  0  0  0  0  0  0  0  0  0  0  0
   55.0726   22.7908   42.1291 H   0  0  0  0  0  0  0  0  0  0  0  0
   54.3360   24.2972   43.9691 H   0  0  0  0  0  0  0  0  0  0  0  0
   55.7668   28.4601   44.2874 H   0  0  0  0  0  0  0  0  0  0  0  0
   57.5711   30.2151   44.2971 H   0  0  0  0  0  0  0  0  0  0  0  0
   57.8713   26.2821   47.4165 H   0  0  0  0  0  0  0  0  0  0  0  0
   61.4860   29.6640   47.2740 H   0  0  0  0  0  0  0  0  0  0  0  0
   60.6905   30.9759   50.5883 H   0  0  0  0  0  0  0  0  0  0  0  0
   61.9763   30.2273   49.5123 H   0  0  0  0  0  0  0  0  0  0  0  0
   60.6828   33.0693   50.9497 H   0  0  0  0  0  0  0  0  0  0  0  0
   61.9434   34.1485   50.2213 H   0  0  0  0  0  0  0  0  0  0  0  0
   59.2554   33.4198   48.9666 H   0  0  0  0  0  0  0  0  0  0  0  0
   59.6856   34.9903   49.7349 H   0  0  0  0  0  0  0  0  0  0  0  0
   58.9228   35.7944   47.7902 H   0  0  0  0  0  0  0  0  0  0  0  0
   60.1639   36.0790   46.5015 H   0  0  0  0  0  0  0  0  0  0  0  0
   59.9750   35.0511   44.3981 H   0  0  0  0  0  0  0  0  0  0  0  0
   58.8500   33.4083   42.8881 H   0  0  0  0  0  0  0  0  0  0  0  0
   57.1336   31.8415   43.8055 H   0  0  0  0  0  0  0  0  0  0  0  0
   56.5527   31.9054   46.2336 H   0  0  0  0  0  0  0  0  0  0  0  0
   57.6833   33.5303   47.7524 H   0  0  0  0  0  0  0  0  0  0  0  0
   60.2766   32.7998   46.8628 H   0  0  0  0  0  0  0  0  0  0  0  0
   61.6483   33.8137   46.2332 H   0  0  0  0  0  0  0  0  0  0  0  0
   62.2939   31.6217   47.3895 H   0  0  0  0  0  0  0  0  0  0  0  0
   63.0846   33.1562   47.9863 H   0  0  0  0  0  0  0  0  0  0  0  0
   58.1044   23.6409   46.0092 H   0  0  0  0  0  0  0  0  0  0  0  0
  1  2  1  0
  2  3  2  0
  3  4  1  0
  4  5  2  0
  5  6  1  0
  6  7  1  0
  7  8  2  0
  7  9  1  0
  9 10  1  0
 10 11  2  0
 11 12  1  0
 12 13  2  0
 13 14  1  0
 14 15  2  0
 14 16  1  0
 16 17  2  0
 16 18  1  0
 18 19  1  0
 19 20  2  0
 19 21  1  0
 21 22  1  0
 22 23  1  0
 23 24  1  0
 24 25  1  0
 25 26  1  0
 26 27  1  0
 27 28  2  0
 28 29  1  0
 29 30  2  0
 30 31  1  0
 31 32  2  0
 25 33  1  0
 33 34  1  0
 18 35  1  0
 35 36  2  0
  6 37  2  0
 37  2  1  0
 15 10  1  0
 34 22  1  0
 35 13  1  0
 32 27  1  0
  1 38  1  0
  1 39  1  0
  1 40  1  0
  3 41  1  0
  4 42  1  0
  5 43  1  0
 11 44  1  0
 12 45  1  0
 15 46  1  0
 18 47  1  6
 21 48  1  0
 21 49  1  0
 23 50  1  0
 23 51  1  0
 24 52  1  0
 24 53  1  0
 26 54  1  0
 26 55  1  0
 28 56  1  0
 29 57  1  0
 30 58  1  0
 31 59  1  0
 32 60  1  0
 33 61  1  0
 33 62  1  0
 34 63  1  0
 34 64  1  0
 37 65  1  0
M  CHG  2   9  -1  18   1
M  END
>  <UniqueID>  (15) 
15

>  <SMILES>  (15) 
Cc1cccc(C(=O)[N-]c2ccc3c(c2)C(=O)[N@H+](C(=O)CN2CCN(Cc4ccccc4)CC2)C3=O)c1

>  <Energy>  (15) 
113.13106782360617

>  <Genealogy>  (15) 
Cc1cccc(C(=O)[N-]c2ccc3c(c2)C(=O)[NH+](C(=O)CN2CCN(Cc4ccccc4)CC2)C3=O)c1 (protonated)
Cc1cccc(C(=O)[N-]c2ccc3c(c2)C(=O)[N@H+](C(=O)CN2CCN(Cc4ccccc4)CC2)C3=O)c1 (chirality)
Cc1cccc(C(=O)[N-]c2ccc3c(c2)C(=O)[N@H+](C(=O)CN2CCN(Cc4ccccc4)CC2)C3=O)c1 (3D coordinates assigned)
Cc1cccc(C(=O)[N-]c2ccc3c(c2)C(=O)[N@H+](C(=O)CN2CCN(Cc4ccccc4)CC2)C3=O)c1 (nonaromatic ring conformer: 113.13106782360617 kcal/mol)

>  <smiles>  (15) 
Cc1cccc(C(=O)Nc2ccc3c(c2)C(=O)N(C(=O)CN2CCN(Cc4ccccc4)CC2)C3=O)c1

>  <score_type>  (15) 
oracle

>  <origin>  (15) 
adg

>  <m_score__min__energy>  (15) 
-10.91

>  <m_primary>  (15) 
energy

$$$$
15:0
     RDKit          3D

 51 54  0  0  0  0  0  0  0  0999 V2000
   59.1330   25.6300   46.7130 C   0  0  0  0  0  0  0  0  0  0  0  0
   58.9790   26.2880   45.5540 C   0  0  0  0  0  0  0  0  0  0  0  0
   59.5410   27.5160   45.1570 C   0  0  0  0  0  0  0  0  0  0  0  0
   60.4450   28.3040   45.7700 C   0  0  0  0  0  0  0  0  0  0  0  0
   60.1270   29.4120   46.6820 C   0  0  0  0  0  0  0  0  0  0  0  0
   59.9320   30.6160   46.1530 O   0  0  0  0  0  0  0  0  0  0  0  0
   59.6210   31.6930   46.8710 C   0  0  0  0  0  0  0  0  0  0  0  0
   59.4260   32.9550   46.1950 N   0  0  0  0  0  0  0  0  0  0  0  0
   60.3700   34.0680   46.3680 C   0  0  0  0  0  0  0  0  0  0  0  0
   59.6730   35.4070   46.1040 C   0  0  0  0  0  0  0  0  0  0  0  0
   58.9850   35.3830   44.8700 O   0  0  0  0  0  0  0  0  0  0  0  0
   57.9250   34.4520   44.9400 C   0  0  0  0  0  0  0  0  0  0  0  0
   58.4640   33.0270   45.0880 C   0  0  0  0  0  0  0  0  0  0  0  0
   59.4950   31.5770   48.2640 C   0  0  0  0  0  0  0  0  0  0  0  0
   59.7010   30.3370   48.8680 C   0  0  0  0  0  0  0  0  0  0  0  0
   59.5780   30.2310   50.1170 O   0  0  0  0  0  0  0  0  0  0  0  0
   60.0460   29.2270   48.0800 C   0  0  0  0  0  0  0  0  0  0  0  0
   60.2600   27.8700   48.7090 C   0  0  0  0  0  0  0  0  0  0  0  0
   59.0300   27.8390   43.9470 N   0  0  0  0  0  0  0  0  0  0  0  0
   58.2150   26.8240   43.6160 C   0  0  0  0  0  0  0  0  0  0  0  0
   57.5590   26.7880   42.5410 O   0  0  0  0  0  0  0  0  0  0  0  0
   58.1680   25.8610   44.5550 N   0  0  0  0  0  0  0  0  0  0  0  0
   57.3310   24.6940   44.5270 C   0  0  0  0  0  0  0  0  0  0  0  0
   57.7340   23.5930   43.7570 C   0  0  0  0  0  0  0  0  0  0  0  0
   56.9830   22.4180   43.7470 C   0  0  0  0  0  0  0  0  0  0  0  0
   55.8210   22.3280   44.5130 C   0  0  0  0  0  0  0  0  0  0  0  0
   55.4030   23.4160   45.2830 C   0  0  0  0  0  0  0  0  0  0  0  0
   56.1420   24.6160   45.2970 C   0  0  0  0  0  0  0  0  0  0  0  0
   55.6390   25.7640   46.0930 C   0  0  0  0  0  0  0  0  0  0  0  0
   56.3190   26.2190   47.0510 O   0  0  0  0  0  0  0  0  0  0  0  0
   54.4030   26.3390   45.8220 O   0  0  0  0  0  0  0  0  0  0  0  0
   58.6209   24.6696   46.8725 H   0  0  0  0  0  0  0  0  0  0  0  0
   59.7714   26.0509   47.5038 H   0  0  0  0  0  0  0  0  0  0  0  0
   61.5080   28.1019   45.5720 H   0  0  0  0  0  0  0  0  0  0  0  0
   60.7572   34.0579   47.3976 H   0  0  0  0  0  0  0  0  0  0  0  0
   61.1963   33.9490   45.6517 H   0  0  0  0  0  0  0  0  0  0  0  0
   58.9545   35.6046   46.9131 H   0  0  0  0  0  0  0  0  0  0  0  0
   60.4358   36.1986   46.0656 H   0  0  0  0  0  0  0  0  0  0  0  0
   57.2920   34.6903   45.8075 H   0  0  0  0  0  0  0  0  0  0  0  0
   57.3391   34.5133   44.0110 H   0  0  0  0  0  0  0  0  0  0  0  0
   57.6271   32.3423   45.2902 H   0  0  0  0  0  0  0  0  0  0  0  0
   58.9716   32.7393   44.1555 H   0  0  0  0  0  0  0  0  0  0  0  0
   59.2363   32.4555   48.8734 H   0  0  0  0  0  0  0  0  0  0  0  0
   60.2447   27.9672   49.8046 H   0  0  0  0  0  0  0  0  0  0  0  0
   59.4584   27.1875   48.3902 H   0  0  0  0  0  0  0  0  0  0  0  0
   61.2327   27.4674   48.3902 H   0  0  0  0  0  0  0  0  0  0  0  0
   59.2370   28.6870   43.3730 H   0  0  0  0  0  0  0  0  0  0  0  0
   58.6522   23.6571   43.1546 H   0  0  0  0  0  0  0  0  0  0  0  0
   57.3068   21.5629   43.1355 H   0  0  0  0  0  0  0  0  0  0  0  0
   55.2326   21.3986   44.5108 H   0  0  0  0  0  0  0  0  0  0  0  0
   54.4862   23.3352   45.8855 H   0  0  0  0  0  0  0  0  0  0  0  0
  1  2  2  0
  2  3  1  0
  3  4  2  3
  4  5  1  0
  5  6  1  0
  6  7  1  0
  7  8  1  0
  8  9  1  0
  9 10  1  0
 10 11  1  0
 11 12  1  0
 12 13  1  0
  7 14  2  0
 14 15  1  0
 15 16  2  0
 15 17  1  0
 17 18  1  0
  3 19  1  0
 19 20  1  0
 20 21  2  0
 20 22  1  0
 22 23  1  0
 23 24  2  0
 24 25  1  0
 25 26  2  0
 26 27  1  0
 27 28  2  0
 28 29  1  0
 29 30  2  0
 29 31  1  0
 22  2  1  0
 28 23  1  0
 17  5  2  0
 13  8  1  0
  1 32  1  0
  1 33  1  0
  4 34  1  0
  9 35  1  0
  9 36  1  0
 10 37  1  0
 10 38  1  0
 12 39  1  0
 12 40  1  0
 13 41  1  0
 13 42  1  0
 14 43  1  0
 18 44  1  0
 18 45  1  0
 18 46  1  0
 19 47  1  0
 24 48  1  0
 25 49  1  0
 26 50  1  0
 27 51  1  0
M  CHG  1  31  -1
M  END
>  <UniqueID>  (16) 
16

>  <SMILES>  (16) 
C=c1c(=Cc2oc(N3CCOCC3)cc(=O)c2C)[nH]c(=O)n1-c1ccccc1C(=O)[O-]

>  <Energy>  (16) 
117.3895152373157

>  <Genealogy>  (16) 
C=c1c(=Cc2oc(N3CCOCC3)cc(=O)c2C)[nH]c(=O)n1-c1ccccc1C(=O)[O-] (protonated)
C=c1c(=Cc2oc(N3CCOCC3)cc(=O)c2C)[nH]c(=O)n1-c1ccccc1C(=O)[O-] (3D coordinates assigned)
C=c1c(=Cc2oc(N3CCOCC3)cc(=O)c2C)[nH]c(=O)n1-c1ccccc1C(=O)[O-] (nonaromatic ring conformer: 117.3895152373157 kcal/mol)

>  <smiles>  (16) 
C=c1c(=Cc2oc(N3CCOCC3)cc(=O)c2C)[nH]c(=O)n1-c1ccccc1C(=O)O

>  <score_type>  (16) 
oracle

>  <origin>  (16) 
adg

>  <m_score__min__energy>  (16) 
-11.16

>  <m_primary>  (16) 
energy

$$$$
16:0
     RDKit          3D

 61 64  0  0  0  0  0  0  0  0999 V2000
   57.7320   20.9510   44.2380 N   0  0  0  0  0  0  0  0  0  0  0  0
   56.7670   21.8800   43.7340 C   0  0  0  0  0  0  0  0  0  0  0  0
   56.0230   21.5250   42.7800 O   0  0  0  0  0  0  0  0  0  0  0  0
   56.6300   23.2460   44.3020 C   0  0  0  0  0  0  0  0  0  0  0  0
   55.4800   23.5880   45.0370 C   0  0  0  0  0  0  0  0  0  0  0  0
   55.3460   24.8610   45.5980 C   0  0  0  0  0  0  0  0  0  0  0  0
   56.3570   25.8230   45.4240 C   0  0  0  0  0  0  0  0  0  0  0  0
   56.2800   27.1340   46.0030 N   0  0  0  0  0  0  0  0  0  0  0  0
   56.7960   28.3600   45.4680 C   0  0  0  0  0  0  0  0  0  0  0  0
   56.3460   28.8340   44.3920 O   0  0  0  0  0  0  0  0  0  0  0  0
   57.9610   29.0230   46.1540 C   0  0  0  0  0  0  0  0  0  0  0  0
   58.0970   28.5470   47.6220 C   0  0  0  0  0  0  0  0  0  0  0  0
   59.3520   27.6870   47.8390 C   0  0  0  0  0  0  0  0  0  0  0  0
   60.5970   28.3940   47.4460 N   0  0  0  0  0  0  0  0  0  0  0  0
   61.1460   29.1790   48.5740 C   0  0  0  0  0  0  0  0  0  0  0  0
   60.9540   30.6590   48.3510 C   0  0  0  0  0  0  0  0  0  0  0  0
   59.7970   31.2980   48.8170 C   0  0  0  0  0  0  0  0  0  0  0  0
   59.6210   32.6710   48.6190 C   0  0  0  0  0  0  0  0  0  0  0  0
   60.6010   33.4300   47.9680 C   0  0  0  0  0  0  0  0  0  0  0  0
   60.3730   34.8050   47.7980 O   0  0  0  0  0  0  0  0  0  0  0  0
   59.2750   35.3800   47.0860 C   0  0  0  0  0  0  0  0  0  0  0  0
   58.6740   34.3840   46.1300 C   0  0  0  0  0  0  0  0  0  0  0  0
   57.5740   33.5950   46.5110 C   0  0  0  0  0  0  0  0  0  0  0  0
   57.0340   32.6630   45.6220 C   0  0  0  0  0  0  0  0  0  0  0  0
   57.5930   32.5040   44.3500 C   0  0  0  0  0  0  0  0  0  0  0  0
   58.6950   33.2740   43.9680 C   0  0  0  0  0  0  0  0  0  0  0  0
   59.2370   34.2080   44.8550 C   0  0  0  0  0  0  0  0  0  0  0  0
   61.7710   32.7910   47.5140 C   0  0  0  0  0  0  0  0  0  0  0  0
   61.9430   31.4160   47.7020 C   0  0  0  0  0  0  0  0  0  0  0  0
   60.4650   29.2190   46.2120 C   0  0  0  0  0  0  0  0  0  0  0  0
   59.2590   28.8230   45.3500 C   0  0  0  0  0  0  0  0  0  0  0  0
   57.5120   25.4760   44.7150 C   0  0  0  0  0  0  0  0  0  0  0  0
   57.6510   24.2030   44.1570 C   0  0  0  0  0  0  0  0  0  0  0  0
   57.7440   19.9670   43.8840 H   0  0  0  0  0  0  0  0  0  0  0  0
   58.4840   21.2430   44.9020 H   0  0  0  0  0  0  0  0  0  0  0  0
   54.6788   22.8464   45.1713 H   0  0  0  0  0  0  0  0  0  0  0  0
   54.4457   25.1116   46.1783 H   0  0  0  0  0  0  0  0  0  0  0  0
   57.7673   30.1052   46.1912 H   0  0  0  0  0  0  0  0  0  0  0  0
   58.1544   29.4291   48.2767 H   0  0  0  0  0  0  0  0  0  0  0  0
   57.2186   27.9289   47.8596 H   0  0  0  0  0  0  0  0  0  0  0  0
   59.4181   27.4208   48.9043 H   0  0  0  0  0  0  0  0  0  0  0  0
   59.2596   26.7927   47.2053 H   0  0  0  0  0  0  0  0  0  0  0  0
   60.6305   28.8855   49.5003 H   0  0  0  0  0  0  0  0  0  0  0  0
   62.2241   28.9743   48.6497 H   0  0  0  0  0  0  0  0  0  0  0  0
   59.0238   30.7168   49.3409 H   0  0  0  0  0  0  0  0  0  0  0  0
   58.7034   33.1597   48.9783 H   0  0  0  0  0  0  0  0  0  0  0  0
   58.5060   35.6979   47.8055 H   0  0  0  0  0  0  0  0  0  0  0  0
   59.6423   36.2423   46.5103 H   0  0  0  0  0  0  0  0  0  0  0  0
   57.1370   33.7124   47.5136 H   0  0  0  0  0  0  0  0  0  0  0  0
   56.1687   32.0538   45.9224 H   0  0  0  0  0  0  0  0  0  0  0  0
   57.1648   31.7721   43.6493 H   0  0  0  0  0  0  0  0  0  0  0  0
   59.1360   33.1448   42.9686 H   0  0  0  0  0  0  0  0  0  0  0  0
   60.1083   34.8080   44.5535 H   0  0  0  0  0  0  0  0  0  0  0  0
   62.5535   33.3764   47.0090 H   0  0  0  0  0  0  0  0  0  0  0  0
   62.8580   30.9246   47.3396 H   0  0  0  0  0  0  0  0  0  0  0  0
   60.3544   30.2733   46.5058 H   0  0  0  0  0  0  0  0  0  0  0  0
   61.3690   29.0528   45.6078 H   0  0  0  0  0  0  0  0  0  0  0  0
   59.2315   29.4520   44.4480 H   0  0  0  0  0  0  0  0  0  0  0  0
   59.3493   27.7659   45.0593 H   0  0  0  0  0  0  0  0  0  0  0  0
   58.3194   26.2135   44.5957 H   0  0  0  0  0  0  0  0  0  0  0  0
   58.5647   23.9471   43.6006 H   0  0  0  0  0  0  0  0  0  0  0  0
  1  2  1  0
  2  3  2  0
  2  4  1  0
  4  5  2  0
  5  6  1  0
  6  7  2  0
  7  8  1  0
  8  9  1  0
  9 10  2  0
  9 11  1  0
 11 12  1  0
 12 13  1  0
 13 14  1  0
 14 15  1  0
 15 16  1  0
 16 17  2  0
 17 18  1  0
 18 19  2  0
 19 20  1  0
 20 21  1  0
 21 22  1  0
 22 23  2  0
 23 24  1  0
 24 25  2  0
 25 26  1  0
 26 27  2  0
 19 28  1  0
 28 29  2  0
 14 30  1  0
 30 31  1  0
  7 32  1  0
 32 33  2  0
 33  4  1  0
 31 11  1  0
 29 16  1  0
 27 22  1  0
  1 34  1  0
  1 35  1  0
  5 36  1  0
  6 37  1  0
 11 38  1  0
 12 39  1  0
 12 40  1  0
 13 41  1  0
 13 42  1  0
 15 43  1  0
 15 44  1  0
 17 45  1  0
 18 46  1  0
 21 47  1  0
 21 48  1  0
 23 49  1  0
 24 50  1  0
 25 51  1  0
 26 52  1  0
 27 53  1  0
 28 54  1  0
 29 55  1  0
 30 56  1  0
 30 57  1  0
 31 58  1  0
 31 59  1  0
 32 60  1  0
 33 61  1  0
M  CHG  1   8  -1
M  END
>  <UniqueID>  (17) 
17

>  <SMILES>  (17) 
NC(=O)c1ccc([N-]C(=O)C2CCN(Cc3ccc(OCc4ccccc4)cc3)CC2)cc1

>  <Energy>  (17) 
77.79368535629608

>  <Genealogy>  (17) 
NC(=O)c1ccc([N-]C(=O)C2CCN(Cc3ccc(OCc4ccccc4)cc3)CC2)cc1 (protonated)
NC(=O)c1ccc([N-]C(=O)C2CCN(Cc3ccc(OCc4ccccc4)cc3)CC2)cc1 (3D coordinates assigned)
NC(=O)c1ccc([N-]C(=O)C2CCN(Cc3ccc(OCc4ccccc4)cc3)CC2)cc1 (nonaromatic ring conformer: 77.79368535629608 kcal/mol)

>  <smiles>  (17) 
NC(=O)c1ccc(NC(=O)C2CCN(Cc3ccc(OCc4ccccc4)cc3)CC2)cc1

>  <score_type>  (17) 
oracle

>  <origin>  (17) 
adg

>  <m_score__min__energy>  (17) 
-11.699999999999999

>  <m_primary>  (17) 
energy

$$$$
17:0
     RDKit          3D

 47 49  0  0  0  0  0  0  0  0999 V2000
   58.4760   23.1640   45.0690 C   0  0  0  0  0  0  0  0  0  0  0  0
   57.4960   24.2510   44.7350 C   0  0  0  0  0  0  0  0  0  0  0  0
   56.3740   23.9140   44.2660 O   0  0  0  0  0  0  0  0  0  0  0  0
   57.8100   25.7000   44.9150 C   0  0  0  0  0  0  0  0  0  0  0  0
   57.8160   26.5100   43.8390 C   0  0  0  0  0  0  0  0  0  0  0  0
   57.6960   28.0000   43.8810 C   0  0  0  0  0  0  0  0  0  0  0  0
   58.8730   28.6670   44.5990 C   0  0  1  0  0  0  0  0  0  0  0  0
   59.0990   30.0360   44.0940 N   0  0  0  0  0  0  0  0  0  0  0  0
   57.7180   31.0680   44.3470 S   0  0  0  0  0  0  0  0  0  0  0  0
   56.6720   30.3150   45.1210 O   0  0  0  0  0  0  0  0  0  0  0  0
   57.1490   31.4520   43.0110 O   0  0  0  0  0  0  0  0  0  0  0  0
   58.1640   32.5410   45.2070 C   0  0  0  0  0  0  0  0  0  0  0  0
   57.8490   32.6890   46.5660 C   0  0  0  0  0  0  0  0  0  0  0  0
   58.1860   33.8650   47.2420 C   0  0  0  0  0  0  0  0  0  0  0  0
   58.8530   34.8930   46.5680 C   0  0  0  0  0  0  0  0  0  0  0  0
   59.1910   34.7400   45.2210 C   0  0  0  0  0  0  0  0  0  0  0  0
   58.8510   33.5660   44.5420 C   0  0  0  0  0  0  0  0  0  0  0  0
   58.6300   28.6340   46.0980 C   0  0  0  0  0  0  0  0  0  0  0  0
   58.6780   29.7130   46.8350 N   0  0  0  0  0  0  0  0  0  0  0  0
   59.8280   30.3470   47.4150 C   0  0  0  0  0  0  0  0  0  0  0  0
   59.8110   30.8090   48.7430 C   0  0  0  0  0  0  0  0  0  0  0  0
   60.9230   31.4720   49.2710 C   0  0  0  0  0  0  0  0  0  0  0  0
   62.0400   31.7170   48.4660 C   0  0  0  0  0  0  0  0  0  0  0  0
   63.4380   32.5410   49.1320 Cl  0  0  0  0  0  0  0  0  0  0  0  0
   62.0390   31.3090   47.1280 C   0  0  0  0  0  0  0  0  0  0  0  0
   60.9310   30.6370   46.6020 C   0  0  0  0  0  0  0  0  0  0  0  0
   58.3030   27.3790   46.8090 C   0  0  0  0  0  0  0  0  0  0  0  0
   58.1250   26.1390   46.3080 C   0  0  0  0  0  0  0  0  0  0  0  0
   58.5609   23.0699   46.1617 H   0  0  0  0  0  0  0  0  0  0  0  0
   58.1256   22.2114   44.6450 H   0  0  0  0  0  0  0  0  0  0  0  0
   59.4597   23.4142   44.6450 H   0  0  0  0  0  0  0  0  0  0  0  0
   57.9172   26.0380   42.8506 H   0  0  0  0  0  0  0  0  0  0  0  0
   57.6526   28.3789   42.8492 H   0  0  0  0  0  0  0  0  0  0  0  0
   56.7822   28.2444   44.4425 H   0  0  0  0  0  0  0  0  0  0  0  0
   59.7965   28.1073   44.3893 H   0  0  0  0  0  0  0  0  0  0  0  0
   59.2800   30.0220   43.0640 H   0  0  0  0  0  0  0  0  0  0  0  0
   57.3351   31.8769   47.1013 H   0  0  0  0  0  0  0  0  0  0  0  0
   57.9265   33.9820   48.3045 H   0  0  0  0  0  0  0  0  0  0  0  0
   59.1114   35.8216   47.0981 H   0  0  0  0  0  0  0  0  0  0  0  0
   59.7253   35.5442   44.6940 H   0  0  0  0  0  0  0  0  0  0  0  0
   59.1234   33.4464   43.4830 H   0  0  0  0  0  0  0  0  0  0  0  0
   58.9203   30.6483   49.3682 H   0  0  0  0  0  0  0  0  0  0  0  0
   60.9193   31.8012   50.3206 H   0  0  0  0  0  0  0  0  0  0  0  0
   62.9101   31.5168   46.4892 H   0  0  0  0  0  0  0  0  0  0  0  0
   60.9258   30.3347   45.5444 H   0  0  0  0  0  0  0  0  0  0  0  0
   58.1889   27.4693   47.8993 H   0  0  0  0  0  0  0  0  0  0  0  0
   58.2279   25.3238   47.0394 H   0  0  0  0  0  0  0  0  0  0  0  0
  1  2  1  0
  2  3  2  0
  2  4  1  0
  4  5  2  0
  5  6  1  0
  6  7  1  0
  7  8  1  0
  8  9  1  0
  9 10  2  0
  9 11  2  0
  9 12  1  0
 12 13  2  0
 13 14  1  0
 14 15  2  0
 15 16  1  0
 16 17  2  0
  7 18  1  0
 18 19  2  3
 19 20  1  0
 20 21  2  0
 21 22  1  0
 22 23  2  0
 23 24  1  0
 23 25  1  0
 25 26  2  0
 18 27  1  0
 27 28  2  0
 28  4  1  0
 17 12  1  0
 26 20  1  0
  1 29  1  0
  1 30  1  0
  1 31  1  0
  5 32  1  0
  6 33  1  0
  6 34  1  0
  7 35  1  1
  8 36  1  0
 13 37  1  0
 14 38  1  0
 15 39  1  0
 16 40  1  0
 17 41  1  0
 21 42  1  0
 22 43  1  0
 25 44  1  0
 26 45  1  0
 27 46  1  0
 28 47  1  0
M  END
>  <UniqueID>  (18) 
18

>  <SMILES>  (18) 
CC(=O)C1=CC[C@@H](NS(=O)(=O)c2ccccc2)C(=Nc2ccc(Cl)cc2)C=C1

>  <Energy>  (18) 
65.1319506695904

>  <Genealogy>  (18) 
CC(=O)C1=CC[C@@H](NS(=O)(=O)c2ccccc2)C(=Nc2ccc(Cl)cc2)C=C1 (chirality)
CC(=O)C1=CC[C@@H](NS(=O)(=O)c2ccccc2)C(=Nc2ccc(Cl)cc2)C=C1 (3D coordinates assigned)
CC(=O)C1=CC[C@@H](NS(=O)(=O)c2ccccc2)C(=Nc2ccc(Cl)cc2)C=C1 (nonaromatic ring conformer: 65.1319506695904 kcal/mol)

>  <smiles>  (18) 
CC(=O)C1=CCC(NS(=O)(=O)c2ccccc2)C(=Nc2ccc(Cl)cc2)C=C1

>  <score_type>  (18) 
oracle

>  <origin>  (18) 
adg

>  <m_score__min__energy>  (18) 
-7.4199999999999999

>  <m_primary>  (18) 
energy

$$$$
18:0
     RDKit          3D

 44 46  0  0  0  0  0  0  0  0999 V2000
   55.1430   26.7030   45.9760 N   0  0  0  0  0  0  0  0  0  0  0  0
   56.2600   25.4040   46.2110 S   0  0  0  0  0  0  0  0  0  0  0  0
   56.9180   25.0480   44.9080 O   0  0  0  0  0  0  0  0  0  0  0  0
   55.5190   24.2050   46.7310 O   0  0  0  0  0  0  0  0  0  0  0  0
   57.4630   25.8680   47.3680 N   0  0  0  0  0  0  0  0  0  0  0  0
   58.3780   26.9610   47.2140 C   0  0  0  0  0  0  0  0  0  0  0  0
   59.3470   27.2680   48.1870 C   0  0  0  0  0  0  0  0  0  0  0  0
   60.2210   28.3410   47.9940 C   0  0  0  0  0  0  0  0  0  0  0  0
   60.1370   29.1170   46.8360 C   0  0  0  0  0  0  0  0  0  0  0  0
   59.1710   28.8280   45.8620 C   0  0  0  0  0  0  0  0  0  0  0  0
   59.1020   29.6390   44.5940 C   0  0  0  0  0  0  0  0  0  0  0  0
   58.4230   30.9200   44.8450 N   0  0  0  0  0  0  0  0  0  0  0  0
   59.1640   31.9930   45.2550 C   0  0  0  0  0  0  0  0  0  0  0  0
   58.5600   33.2320   45.5250 C   0  0  0  0  0  0  0  0  0  0  0  0
   59.3720   34.4070   45.9570 C   0  0  0  0  0  0  0  0  0  0  0  0
   59.5460   35.3700   45.1620 O   0  0  0  0  0  0  0  0  0  0  0  0
   60.0160   34.4850   47.3180 C   0  0  0  0  0  0  0  0  0  0  0  0
   61.2000   33.5560   47.4140 C   0  0  0  0  0  0  0  0  0  0  0  0
   62.3970   33.8660   46.7440 C   0  0  0  0  0  0  0  0  0  0  0  0
   63.4910   33.0010   46.8210 C   0  0  0  0  0  0  0  0  0  0  0  0
   63.4040   31.8250   47.5710 C   0  0  0  0  0  0  0  0  0  0  0  0
   62.2220   31.5140   48.2480 C   0  0  0  0  0  0  0  0  0  0  0  0
   61.1240   32.3750   48.1730 C   0  0  0  0  0  0  0  0  0  0  0  0
   57.1630   33.3160   45.3720 C   0  0  0  0  0  0  0  0  0  0  0  0
   56.5490   34.3960   45.5820 O   0  0  0  0  0  0  0  0  0  0  0  0
   56.4590   32.2260   44.9810 N   0  0  0  0  0  0  0  0  0  0  0  0
   57.0630   31.0400   44.7210 C   0  0  0  0  0  0  0  0  0  0  0  0
   56.3580   30.0600   44.3640 O   0  0  0  0  0  0  0  0  0  0  0  0
   58.3000   27.7430   46.0550 C   0  0  0  0  0  0  0  0  0  0  0  0
   55.5390   27.3140   45.2280 H   0  0  0  0  0  0  0  0  0  0  0  0
   59.4167   26.6616   49.1021 H   0  0  0  0  0  0  0  0  0  0  0  0
   60.9780   28.5753   48.7570 H   0  0  0  0  0  0  0  0  0  0  0  0
   60.8309   29.9575   46.6877 H   0  0  0  0  0  0  0  0  0  0  0  0
   60.1221   29.8337   44.2315 H   0  0  0  0  0  0  0  0  0  0  0  0
   58.5355   29.0751   43.8383 H   0  0  0  0  0  0  0  0  0  0  0  0
   60.2520   31.8843   45.3755 H   0  0  0  0  0  0  0  0  0  0  0  0
   60.3536   35.5165   47.4968 H   0  0  0  0  0  0  0  0  0  0  0  0
   59.2744   34.1839   48.0725 H   0  0  0  0  0  0  0  0  0  0  0  0
   62.4720   34.7933   46.1570 H   0  0  0  0  0  0  0  0  0  0  0  0
   64.4229   33.2459   46.2903 H   0  0  0  0  0  0  0  0  0  0  0  0
   64.2661   31.1442   47.6283 H   0  0  0  0  0  0  0  0  0  0  0  0
   62.1557   30.5899   48.8410 H   0  0  0  0  0  0  0  0  0  0  0  0
   60.1964   32.1278   48.7100 H   0  0  0  0  0  0  0  0  0  0  0  0
   57.5487   27.5051   45.2876 H   0  0  0  0  0  0  0  0  0  0  0  0
  1  2  1  0
  2  3  2  0
  2  4  2  0
  2  5  1  0
  5  6  1  0
  6  7  2  0
  7  8  1  0
  8  9  2  0
  9 10  1  0
 10 11  1  0
 11 12  1  0
 12 13  1  0
 13 14  2  0
 14 15  1  0
 15 16  2  0
 15 17  1  0
 17 18  1  0
 18 19  2  0
 19 20  1  0
 20 21  2  0
 21 22  1  0
 22 23  2  0
 14 24  1  0
 24 25  2  0
 24 26  1  0
 26 27  1  0
 27 28  2  0
 10 29  2  0
 29  6  1  0
 27 12  1  0
 23 18  1  0
  1 30  1  0
  7 31  1  0
  8 32  1  0
  9 33  1  0
 11 34  1  0
 11 35  1  0
 13 36  1  0
 17 37  1  0
 17 38  1  0
 19 39  1  0
 20 40  1  0
 21 41  1  0
 22 42  1  0
 23 43  1  0
 29 44  1  0
M  CHG  3   1  -1   5  -1  26  -1
M  END
>  <UniqueID>  (19) 
19

>  <SMILES>  (19) 
[NH-]S(=O)(=O)[N-]c1cccc(Cn2cc(C(=O)Cc3ccccc3)c(=O)[n-]c2=O)c1

>  <Energy>  (19) 
51.582874898500854

>  <Genealogy>  (19) 
[NH-]S(=O)(=O)[N-]c1cccc(Cn2cc(C(=O)Cc3ccccc3)c(=O)[n-]c2=O)c1 (protonated)
[NH-]S(=O)(=O)[N-]c1cccc(Cn2cc(C(=O)Cc3ccccc3)c(=O)[n-]c2=O)c1 (3D coordinates assigned)
[NH-]S(=O)(=O)[N-]c1cccc(Cn2cc(C(=O)Cc3ccccc3)c(=O)[n-]c2=O)c1 (optimized conformer: 51.582874898500854 kcal/mol)

>  <smiles>  (19) 
NS(=O)(=O)Nc1cccc(Cn2cc(C(=O)Cc3ccccc3)c(=O)[nH]c2=O)c1

>  <score_type>  (19) 
oracle

>  <origin>  (19) 
adg

>  <m_score__min__energy>  (19) 
-14.91

>  <m_primary>  (19) 
energy

$$$$
19:0
     RDKit          3D

 49 52  0  0  0  0  0  0  0  0999 V2000
   56.0407   30.4445   44.4142 H   0  0  0  0  0  0  0  0  0  0  0  0
   56.3600   29.3920   44.4310 C   0  0  0  0  0  0  0  0  0  0  0  0
   55.6603   28.6000   44.1258 H   0  0  0  0  0  0  0  0  0  0  0  0
   57.6040   29.0740   44.8240 C   0  0  0  0  0  0  0  0  0  0  0  0
   58.1530   27.7860   44.8980 C   0  0  0  0  0  0  0  0  0  0  0  0
   57.5180   26.6220   44.6410 C   0  0  0  0  0  0  0  0  0  0  0  0
   57.3611   26.3572   43.5849 H   0  0  0  0  0  0  0  0  0  0  0  0
   57.0150   25.6720   45.6590 C   0  0  0  0  0  0  0  0  0  0  0  0
   57.6740   24.6000   46.1350 N   0  0  0  0  0  0  0  0  0  0  0  0
   56.7960   24.0440   46.9950 C   0  0  0  0  0  0  0  0  0  0  0  0
   57.0570   23.0030   47.6530 O   0  0  0  0  0  0  0  0  0  0  0  0
   55.6140   24.6870   47.0930 N   0  0  0  0  0  0  0  0  0  0  0  0
   55.7690   25.7120   46.2390 C   0  0  0  0  0  0  0  0  0  0  0  0
   54.7880   26.6670   45.9950 O   0  0  0  0  0  0  0  0  0  0  0  0
   59.4670   27.9530   45.3230 C   0  0  0  0  0  0  0  0  0  0  0  0
   60.2076   27.1578   45.4938 H   0  0  0  0  0  0  0  0  0  0  0  0
   59.6620   29.3100   45.4890 C   0  0  0  0  0  0  0  0  0  0  0  0
   60.9120   29.9290   46.0360 C   0  0  0  0  0  0  0  0  0  0  0  0
   60.8786   29.9125   47.1354 H   0  0  0  0  0  0  0  0  0  0  0  0
   61.7861   29.3596   45.6871 H   0  0  0  0  0  0  0  0  0  0  0  0
   60.9890   30.9694   45.6871 H   0  0  0  0  0  0  0  0  0  0  0  0
   58.5370   29.9900   45.1890 N   0  0  0  0  0  0  0  0  0  0  0  0
   58.3540   31.4050   45.3650 C   0  0  0  0  0  0  0  0  0  0  0  0
   57.8170   32.1530   44.3650 N   0  0  0  0  0  0  0  0  0  0  0  0
   57.6910   33.5010   44.4920 C   0  0  0  0  0  0  0  0  0  0  0  0
   57.2247   34.0872   43.6864 H   0  0  0  0  0  0  0  0  0  0  0  0
   58.1400   34.1250   45.6120 N   0  0  0  0  0  0  0  0  0  0  0  0
   58.7150   33.4240   46.6250 C   0  0  0  0  0  0  0  0  0  0  0  0
   59.2330   34.1420   47.8050 C   0  0  0  0  0  0  0  0  0  0  0  0
   59.8890   35.2030   47.6290 O   0  0  0  0  0  0  0  0  0  0  0  0
   59.0480   33.6600   49.1460 N   0  0  0  0  0  0  0  0  0  0  0  0
   60.0590   32.9830   49.9550 C   0  0  0  0  0  0  0  0  0  0  0  0
   60.7986   33.7198   50.3017 H   0  0  0  0  0  0  0  0  0  0  0  0
   59.5667   32.5072   50.8159 H   0  0  0  0  0  0  0  0  0  0  0  0
   60.7690   31.9050   49.1310 C   0  0  0  0  0  0  0  0  0  0  0  0
   60.9615   31.0308   49.7703 H   0  0  0  0  0  0  0  0  0  0  0  0
   60.1239   31.6259   48.2849 H   0  0  0  0  0  0  0  0  0  0  0  0
   62.0780   32.4200   48.5910 C   0  0  0  0  0  0  0  0  0  0  0  0
   62.1750   32.8630   47.2630 C   0  0  0  0  0  0  0  0  0  0  0  0
   61.3049   32.7995   46.5930 H   0  0  0  0  0  0  0  0  0  0  0  0
   63.3840   33.3850   46.7980 C   0  0  0  0  0  0  0  0  0  0  0  0
   63.4690   33.7303   45.7571 H   0  0  0  0  0  0  0  0  0  0  0  0
   64.4560   33.4670   47.6300 N   0  0  0  0  0  0  0  0  0  0  0  0
   64.3880   33.0510   48.9230 C   0  0  0  0  0  0  0  0  0  0  0  0
   65.2729   33.1289   49.5718 H   0  0  0  0  0  0  0  0  0  0  0  0
   63.1970   32.5250   49.4290 C   0  0  0  0  0  0  0  0  0  0  0  0
   63.1376   32.1957   50.4769 H   0  0  0  0  0  0  0  0  0  0  0  0
   58.7970   32.0310   46.5330 C   0  0  0  0  0  0  0  0  0  0  0  0
   59.2033   31.4383   47.3658 H   0  0  0  0  0  0  0  0  0  0  0  0
  1  2  1  0
  2  3  1  0
  2  4  2  0
  4  5  1  0
  5  6  2  0
  6  7  1  0
  6  8  1  0
  8  9  1  0
  9 10  1  0
 10 11  2  0
 10 12  1  0
 12 13  1  0
 13 14  1  0
  5 15  1  0
 15 16  1  0
 15 17  2  0
 17 18  1  0
 18 19  1  0
 18 20  1  0
 18 21  1  0
 17 22  1  0
 22 23  1  0
 23 24  2  0
 24 25  1  0
 25 26  1  0
 25 27  2  0
 27 28  1  0
 28 29  1  0
 29 30  2  0
 29 31  1  0
 31 32  1  0
 32 33  1  0
 32 34  1  0
 32 35  1  0
 35 36  1  0
 35 37  1  0
 35 38  1  0
 38 39  2  0
 39 40  1  0
 39 41  1  0
 41 42  1  0
 41 43  2  0
 43 44  1  0
 44 45  1  0
 44 46  2  0
 46 47  1  0
 28 48  2  0
 48 49  1  0
 22  4  1  0
 48 23  1  0
 13  8  2  0
 46 38  1  0
M  CHG  4   9  -1  12  -1  14  -1  31  -1
M  END
>  <UniqueID>  (20) 
20

>  <SMILES>  (20) 
C=c1/c(=C/c2[n-]c(=O)[n-]c2[O-])cc(C)n1-c1cc(C(=O)[N-]CCc2ccncc2)ncn1

>  <Energy>  (20) 
123.3189192332521

>  <Genealogy>  (20) 
C=c1c(=Cc2[n-]c(=O)[n-]c2[O-])cc(C)n1-c1cc(C(=O)[N-]CCc2ccncc2)ncn1 (protonated)
C=c1/c(=C/c2[n-]c(=O)[n-]c2[O-])cc(C)n1-c1cc(C(=O)[N-]CCc2ccncc2)ncn1 (cis-trans isomerization)
C=c1/c(=C/c2[n-]c(=O)[n-]c2[O-])cc(C)n1-c1cc(C(=O)[N-]CCc2ccncc2)ncn1 (3D coordinates assigned)
C=c1/c(=C/c2[n-]c(=O)[n-]c2[O-])cc(C)n1-c1cc(C(=O)[N-]CCc2ccncc2)ncn1 (optimized conformer: 123.3189192332521 kcal/mol)

>  <smiles>  (20) 
C=c1c(=Cc2[nH]c(=O)[nH]c2O)cc(C)n1-c1cc(C(=O)NCCc2ccncc2)ncn1

>  <score_type>  (20) 
oracle

>  <origin>  (20) 
adg

>  <m_score__min__energy>  (20) 
-17.449999999999999

>  <m_primary>  (20) 
energy

$$$$
20:0
     RDKit          3D

 59 62  0  0  0  0  0  0  0  0999 V2000
   57.7530   32.8740   52.3080 C   0  0  0  0  0  0  0  0  0  0  0  0
   57.5180   32.0410   51.0520 C   0  0  0  0  0  0  0  0  0  0  0  0
   58.1160   30.6630   51.1800 C   0  0  0  0  0  0  0  0  0  0  0  0
   57.3860   29.7280   51.5940 O   0  0  0  0  0  0  0  0  0  0  0  0
   59.4720   30.3580   50.8030 N   0  0  0  0  0  0  0  0  0  0  0  0
   59.8950   29.9300   49.6530 C   0  0  0  0  0  0  0  0  0  0  0  0
   60.7200   30.6240   48.8360 N   0  0  0  0  0  0  0  0  0  0  0  0
   61.0410   29.9090   47.7280 C   0  0  0  0  0  0  0  0  0  0  0  0
   60.4710   28.6450   47.6740 C   0  0  0  0  0  0  0  0  0  0  0  0
   60.7680   27.4190   46.4040 S   0  0  0  0  0  0  0  0  0  0  0  0
   59.0200   27.2800   46.0360 C   0  0  0  0  0  0  0  0  0  0  0  0
   58.3370   26.0940   46.3280 C   0  0  0  0  0  0  0  0  0  0  0  0
   56.9540   26.0200   46.1400 C   0  0  0  0  0  0  0  0  0  0  0  0
   56.2520   27.1300   45.6610 C   0  0  0  0  0  0  0  0  0  0  0  0
   56.9350   28.3090   45.3190 C   0  0  0  0  0  0  0  0  0  0  0  0
   56.1950   29.4980   44.8460 C   0  0  0  0  0  0  0  0  0  0  0  0
   55.1370   29.3350   44.1870 O   0  0  0  0  0  0  0  0  0  0  0  0
   56.6450   30.8340   45.0980 N   0  0  0  0  0  0  0  0  0  0  0  0
   58.0130   31.3170   44.9030 C   0  0  0  0  0  0  0  0  0  0  0  0
   58.6940   31.5120   46.2730 C   0  0  0  0  0  0  0  0  0  0  0  0
   59.8740   32.4920   46.1630 C   0  0  0  0  0  0  0  0  0  0  0  0
   59.4760   33.8350   45.6520 N   0  0  0  0  0  0  0  0  0  0  0  0
   59.5480   34.8710   46.7030 C   0  0  0  0  0  0  0  0  0  0  0  0
   60.3180   34.3700   47.9000 C   0  0  0  0  0  0  0  0  0  0  0  0
   59.6510   34.0880   49.1090 C   0  0  0  0  0  0  0  0  0  0  0  0
   60.3760   33.6450   50.2200 C   0  0  0  0  0  0  0  0  0  0  0  0
   61.7600   33.4850   50.1330 C   0  0  0  0  0  0  0  0  0  0  0  0
   62.4270   33.7680   48.9370 C   0  0  0  0  0  0  0  0  0  0  0  0
   61.7080   34.2100   47.8240 C   0  0  0  0  0  0  0  0  0  0  0  0
   58.1680   33.8580   44.9510 C   0  0  0  0  0  0  0  0  0  0  0  0
   57.9910   32.6170   44.0710 C   0  0  0  0  0  0  0  0  0  0  0  0
   58.3210   28.3810   45.5240 C   0  0  0  0  0  0  0  0  0  0  0  0
   59.5390   28.4050   49.0480 S   0  0  0  0  0  0  0  0  0  0  0  0
   57.5776   32.2524   53.1984 H   0  0  0  0  0  0  0  0  0  0  0  0
   58.7898   33.2413   52.3157 H   0  0  0  0  0  0  0  0  0  0  0  0
   57.0610   33.7290   52.3157 H   0  0  0  0  0  0  0  0  0  0  0  0
   56.4350   31.9460   50.8841 H   0  0  0  0  0  0  0  0  0  0  0  0
   58.0036   32.5495   50.2061 H   0  0  0  0  0  0  0  0  0  0  0  0
   61.6990   30.2994   46.9377 H   0  0  0  0  0  0  0  0  0  0  0  0
   58.8884   25.2202   46.7054 H   0  0  0  0  0  0  0  0  0  0  0  0
   56.4174   25.0875   46.3692 H   0  0  0  0  0  0  0  0  0  0  0  0
   55.1586   27.0799   45.5513 H   0  0  0  0  0  0  0  0  0  0  0  0
   58.6018   30.5756   44.3429 H   0  0  0  0  0  0  0  0  0  0  0  0
   57.9590   31.9116   46.9872 H   0  0  0  0  0  0  0  0  0  0  0  0
   59.0749   30.5396   46.6184 H   0  0  0  0  0  0  0  0  0  0  0  0
   60.3200   32.6156   47.1609 H   0  0  0  0  0  0  0  0  0  0  0  0
   60.5870   32.0658   45.4419 H   0  0  0  0  0  0  0  0  0  0  0  0
   60.0514   35.7611   46.2976 H   0  0  0  0  0  0  0  0  0  0  0  0
   58.5252   35.1203   47.0219 H   0  0  0  0  0  0  0  0  0  0  0  0
   58.5607   34.2162   49.1789 H   0  0  0  0  0  0  0  0  0  0  0  0
   59.8552   33.4225   51.1630 H   0  0  0  0  0  0  0  0  0  0  0  0
   62.3276   33.1352   51.0079 H   0  0  0  0  0  0  0  0  0  0  0  0
   63.5179   33.6425   48.8727 H   0  0  0  0  0  0  0  0  0  0  0  0
   62.2348   34.4333   46.8845 H   0  0  0  0  0  0  0  0  0  0  0  0
   57.3608   33.8867   45.6978 H   0  0  0  0  0  0  0  0  0  0  0  0
   58.1324   34.7497   44.3079 H   0  0  0  0  0  0  0  0  0  0  0  0
   57.0271   32.6874   43.5457 H   0  0  0  0  0  0  0  0  0  0  0  0
   58.8278   32.5810   43.3580 H   0  0  0  0  0  0  0  0  0  0  0  0
   58.8622   29.3074   45.2813 H   0  0  0  0  0  0  0  0  0  0  0  0
  1  2  1  0
  2  3  1  0
  3  4  2  0
  3  5  1  0
  5  6  2  3
  6  7  1  0
  7  8  1  0
  8  9  2  0
  9 10  1  0
 10 11  1  0
 11 12  2  0
 12 13  1  0
 13 14  2  0
 14 15  1  0
 15 16  1  0
 16 17  2  0
 16 18  1  0
 18 19  1  0
 19 20  1  0
 20 21  1  0
 21 22  1  0
 22 23  1  0
 23 24  1  0
 24 25  2  0
 25 26  1  0
 26 27  2  0
 27 28  1  0
 28 29  2  0
 22 30  1  0
 30 31  1  0
 15 32  2  0
  9 33  1  0
 33  6  1  0
 32 11  1  0
 31 19  1  0
 29 24  1  0
  1 34  1  0
  1 35  1  0
  1 36  1  0
  2 37  1  0
  2 38  1  0
  8 39  1  0
 12 40  1  0
 13 41  1  0
 14 42  1  0
 19 43  1  0
 20 44  1  0
 20 45  1  0
 21 46  1  0
 21 47  1  0
 23 48  1  0
 23 49  1  0
 25 50  1  0
 26 51  1  0
 27 52  1  0
 28 53  1  0
 29 54  1  0
 30 55  1  0
 30 56  1  0
 31 57  1  0
 31 58  1  0
 32 59  1  0
M  CHG  2   7  -1  18  -1
M  END
>  <UniqueID>  (21) 
21

>  <SMILES>  (21) 
CCC(=O)N=c1[n-]cc(Sc2cccc(C(=O)[N-]C3CCN(Cc4ccccc4)CC3)c2)s1

>  <Energy>  (21) 
102.99837371452941

>  <Genealogy>  (21) 
CCC(=O)N=c1[n-]cc(Sc2cccc(C(=O)[N-]C3CCN(Cc4ccccc4)CC3)c2)s1 (protonated)
CCC(=O)N=c1[n-]cc(Sc2cccc(C(=O)[N-]C3CCN(Cc4ccccc4)CC3)c2)s1 (3D coordinates assigned)
CCC(=O)N=c1[n-]cc(Sc2cccc(C(=O)[N-]C3CCN(Cc4ccccc4)CC3)c2)s1 (nonaromatic ring conformer: 102.99837371452941 kcal/mol)

>  <smiles>  (21) 
CCC(=O)N=c1[nH]cc(Sc2cccc(C(=O)NC3CCN(Cc4ccccc4)CC3)c2)s1

>  <score_type>  (21) 
oracle

>  <origin>  (21) 
adg

>  <m_score__min__energy>  (21) 
-13.52

>  <m_primary>  (21) 
energy

$$$$
21:0
     RDKit          3D

 41 43  0  0  0  0  0  0  0  0999 V2000
   56.5920   31.2450   44.7790 O   0  0  0  0  0  0  0  0  0  0  0  0
   57.7780   31.0330   45.1450 C   0  0  0  0  0  0  0  0  0  0  0  0
   58.1430   29.8760   45.9970 C   0  0  0  0  0  0  0  0  0  0  0  0
   57.5160   28.6460   45.7300 C   0  0  0  0  0  0  0  0  0  0  0  0
   57.7810   27.5090   46.5130 C   0  0  0  0  0  0  0  0  0  0  0  0
   57.1300   26.2090   46.2130 C   0  0  0  0  0  0  0  0  0  0  0  0
   55.8830   26.0890   46.3650 O   0  0  0  0  0  0  0  0  0  0  0  0
   57.9100   25.0710   45.8070 N   0  0  0  0  0  0  0  0  0  0  0  0
   57.3700   23.9410   45.1000 C   0  0  0  0  0  0  0  0  0  0  0  0
   56.9140   24.0540   43.7730 C   0  0  0  0  0  0  0  0  0  0  0  0
   56.4200   22.9330   43.1000 C   0  0  0  0  0  0  0  0  0  0  0  0
   56.3880   21.6880   43.7360 C   0  0  0  0  0  0  0  0  0  0  0  0
   55.8980   20.5760   43.0610 O   0  0  0  0  0  0  0  0  0  0  0  0
   56.8570   21.5620   45.0480 C   0  0  0  0  0  0  0  0  0  0  0  0
   56.8410   20.3550   45.6640 F   0  0  0  0  0  0  0  0  0  0  0  0
   57.3520   22.6830   45.7230 C   0  0  0  0  0  0  0  0  0  0  0  0
   58.6520   27.6250   47.6050 C   0  0  0  0  0  0  0  0  0  0  0  0
   59.2870   28.8350   47.8790 C   0  0  0  0  0  0  0  0  0  0  0  0
   59.0660   29.9580   47.0700 C   0  0  0  0  0  0  0  0  0  0  0  0
   59.8640   31.1670   47.3460 C   0  0  0  0  0  0  0  0  0  0  0  0
   60.7040   31.5560   46.4930 O   0  0  0  0  0  0  0  0  0  0  0  0
   59.6660   31.9430   48.5360 N   0  0  0  0  0  0  0  0  0  0  0  0
   59.2390   33.3400   48.5710 C   0  0  0  0  0  0  0  0  0  0  0  0
   58.8090   33.8020   47.2140 C   0  0  0  0  0  0  0  0  0  0  0  0
   57.5170   33.7500   46.7080 C   0  0  0  0  0  0  0  0  0  0  0  0
   57.4230   34.2160   45.3910 C   0  0  0  0  0  0  0  0  0  0  0  0
   58.6340   34.6410   44.8620 C   0  0  0  0  0  0  0  0  0  0  0  0
   59.8250   34.4340   46.0330 S   0  0  0  0  0  0  0  0  0  0  0  0
   58.5676   31.7277   44.8226 H   0  0  0  0  0  0  0  0  0  0  0  0
   56.8055   28.5722   44.8935 H   0  0  0  0  0  0  0  0  0  0  0  0
   58.9020   25.0160   46.1300 H   0  0  0  0  0  0  0  0  0  0  0  0
   56.9466   25.0284   43.2637 H   0  0  0  0  0  0  0  0  0  0  0  0
   56.0552   23.0304   42.0668 H   0  0  0  0  0  0  0  0  0  0  0  0
   57.7303   22.5778   46.7505 H   0  0  0  0  0  0  0  0  0  0  0  0
   58.8359   26.7539   48.2510 H   0  0  0  0  0  0  0  0  0  0  0  0
   59.9687   28.9094   48.7391 H   0  0  0  0  0  0  0  0  0  0  0  0
   58.3955   33.4412   49.2698 H   0  0  0  0  0  0  0  0  0  0  0  0
   60.0873   33.9583   48.8999 H   0  0  0  0  0  0  0  0  0  0  0  0
   56.6552   33.3804   47.2831 H   0  0  0  0  0  0  0  0  0  0  0  0
   56.4782   34.2428   44.8283 H   0  0  0  0  0  0  0  0  0  0  0  0
   58.7888   35.0442   43.8503 H   0  0  0  0  0  0  0  0  0  0  0  0
  1  2  2  0
  2  3  1  0
  3  4  2  0
  4  5  1  0
  5  6  1  0
  6  7  2  0
  6  8  1  0
  8  9  1  0
  9 10  2  0
 10 11  1  0
 11 12  2  0
 12 13  1  0
 12 14  1  0
 14 15  1  0
 14 16  2  0
  5 17  2  0
 17 18  1  0
 18 19  2  0
 19 20  1  0
 20 21  2  0
 20 22  1  0
 22 23  1  0
 23 24  1  0
 24 25  2  0
 25 26  1  0
 26 27  2  0
 27 28  1  0
 19  3  1  0
 28 24  1  0
 16  9  1  0
  2 29  1  0
  4 30  1  0
  8 31  1  0
 10 32  1  0
 11 33  1  0
 16 34  1  0
 17 35  1  0
 18 36  1  0
 23 37  1  0
 23 38  1  0
 25 39  1  0
 26 40  1  0
 27 41  1  0
M  CHG  2  13  -1  22  -1
M  END
>  <UniqueID>  (22) 
22

>  <SMILES>  (22) 
O=Cc1cc(C(=O)Nc2ccc([O-])c(F)c2)ccc1C(=O)[N-]Cc1cccs1

>  <Energy>  (22) 
80.24837412723454

>  <Genealogy>  (22) 
O=Cc1cc(C(=O)Nc2ccc([O-])c(F)c2)ccc1C(=O)[N-]Cc1cccs1 (protonated)
O=Cc1cc(C(=O)Nc2ccc([O-])c(F)c2)ccc1C(=O)[N-]Cc1cccs1 (3D coordinates assigned)
O=Cc1cc(C(=O)Nc2ccc([O-])c(F)c2)ccc1C(=O)[N-]Cc1cccs1 (optimized conformer: 80.24837412723454 kcal/mol)

>  <smiles>  (22) 
O=Cc1cc(C(=O)Nc2ccc(O)c(F)c2)ccc1C(=O)NCc1cccs1

>  <score_type>  (22) 
oracle

>  <origin>  (22) 
adg

>  <m_score__min__energy>  (22) 
-10.710000000000001

>  <m_primary>  (22) 
energy

$$$$
22:0
     RDKit          3D

 51 54  0  0  0  0  0  0  0  0999 V2000
   56.4190   30.3340   44.6540 O   0  0  0  0  0  0  0  0  0  0  0  0
   57.3960   30.0900   45.4130 C   0  0  0  0  0  0  0  0  0  0  0  0
   57.8590   28.6970   45.5450 C   0  0  0  0  0  0  0  0  0  0  0  0
   59.2250   28.4150   45.6610 C   0  0  0  0  0  0  0  0  0  0  0  0
   59.6610   27.0960   45.7920 C   0  0  0  0  0  0  0  0  0  0  0  0
   58.7430   26.0430   45.8340 C   0  0  0  0  0  0  0  0  0  0  0  0
   59.2430   24.7430   45.9370 O   0  0  0  0  0  0  0  0  0  0  0  0
   57.3570   26.3200   45.7640 C   0  0  0  0  0  0  0  0  0  0  0  0
   56.1470   25.0360   45.9540 S   0  0  0  0  0  0  0  0  0  0  0  0
   56.1610   24.5440   47.3770 O   0  0  0  0  0  0  0  0  0  0  0  0
   54.7790   25.5800   45.6350 O   0  0  0  0  0  0  0  0  0  0  0  0
   56.4550   23.6910   44.8540 C   0  0  0  0  0  0  0  0  0  0  0  0
   57.1490   22.5630   45.3110 C   0  0  0  0  0  0  0  0  0  0  0  0
   57.3760   21.4790   44.4540 C   0  0  0  0  0  0  0  0  0  0  0  0
   56.9130   21.5170   43.1370 C   0  0  0  0  0  0  0  0  0  0  0  0
   56.2130   22.6360   42.6740 C   0  0  0  0  0  0  0  0  0  0  0  0
   55.9790   23.7200   43.5290 C   0  0  0  0  0  0  0  0  0  0  0  0
   56.9320   27.6480   45.5850 C   0  0  0  0  0  0  0  0  0  0  0  0
   58.0270   31.1620   46.1420 N   0  0  0  0  0  0  0  0  0  0  0  0
   58.5470   30.9320   47.5010 C   0  0  0  0  0  0  0  0  0  0  0  0
   59.8600   31.6990   47.7150 C   0  0  0  0  0  0  0  0  0  0  0  0
   59.8070   33.0550   47.1390 N   0  0  0  0  0  0  0  0  0  0  0  0
   61.0170   33.8420   46.9910 C   0  0  0  0  0  0  0  0  0  0  0  0
   61.0960   34.7020   46.0650 O   0  0  0  0  0  0  0  0  0  0  0  0
   62.1800   33.6870   47.8980 C   0  0  0  0  0  0  0  0  0  0  0  0
   63.3850   33.0890   47.5650 C   0  0  0  0  0  0  0  0  0  0  0  0
   64.1780   33.1880   48.6900 C   0  0  0  0  0  0  0  0  0  0  0  0
   63.4130   33.8340   49.6410 C   0  0  0  0  0  0  0  0  0  0  0  0
   62.2310   34.1180   49.1390 O   0  0  0  0  0  0  0  0  0  0  0  0
   58.5280   33.5520   46.6040 C   0  0  0  0  0  0  0  0  0  0  0  0
   57.9450   32.5360   45.6180 C   0  0  0  0  0  0  0  0  0  0  0  0
   59.9572   29.2358   45.6489 H   0  0  0  0  0  0  0  0  0  0  0  0
   60.7378   26.8829   45.8629 H   0  0  0  0  0  0  0  0  0  0  0  0
   58.7340   23.9870   46.3730 H   0  0  0  0  0  0  0  0  0  0  0  0
   57.5170   22.5287   46.3470 H   0  0  0  0  0  0  0  0  0  0  0  0
   57.9203   20.5955   44.8190 H   0  0  0  0  0  0  0  0  0  0  0  0
   57.0988   20.6671   42.4639 H   0  0  0  0  0  0  0  0  0  0  0  0
   55.8460   22.6645   41.6374 H   0  0  0  0  0  0  0  0  0  0  0  0
   55.4222   24.5960   43.1649 H   0  0  0  0  0  0  0  0  0  0  0  0
   55.8594   27.8656   45.4751 H   0  0  0  0  0  0  0  0  0  0  0  0
   57.8037   31.2759   48.2353 H   0  0  0  0  0  0  0  0  0  0  0  0
   58.7398   29.8567   47.6293 H   0  0  0  0  0  0  0  0  0  0  0  0
   60.0526   31.7791   48.7950 H   0  0  0  0  0  0  0  0  0  0  0  0
   60.6638   31.1453   47.2077 H   0  0  0  0  0  0  0  0  0  0  0  0
   63.6539   32.6300   46.6022 H   0  0  0  0  0  0  0  0  0  0  0  0
   65.2102   32.8258   48.8058 H   0  0  0  0  0  0  0  0  0  0  0  0
   63.7421   34.0744   50.6627 H   0  0  0  0  0  0  0  0  0  0  0  0
   57.8204   33.7035   47.4325 H   0  0  0  0  0  0  0  0  0  0  0  0
   58.6998   34.5051   46.0824 H   0  0  0  0  0  0  0  0  0  0  0  0
   56.8897   32.7845   45.4318 H   0  0  0  0  0  0  0  0  0  0  0  0
   58.5305   32.5846   44.6880 H   0  0  0  0  0  0  0  0  0  0  0  0
  1  2  2  0
  2  3  1  0
  3  4  2  0
  4  5  1  0
  5  6  2  0
  6  7  1  0
  6  8  1  0
  8  9  1  0
  9 10  2  0
  9 11  2  0
  9 12  1  0
 12 13  2  0
 13 14  1  0
 14 15  2  0
 15 16  1  0
 16 17  2  0
  8 18  2  0
  2 19  1  0
 19 20  1  0
 20 21  1  0
 21 22  1  0
 22 23  1  0
 23 24  2  0
 23 25  1  0
 25 26  2  0
 26 27  1  0
 27 28  2  0
 28 29  1  0
 22 30  1  0
 30 31  1  0
 18  3  1  0
 31 19  1  0
 17 12  1  0
 29 25  1  0
  4 32  1  0
  5 33  1  0
  7 34  1  0
 13 35  1  0
 14 36  1  0
 15 37  1  0
 16 38  1  0
 17 39  1  0
 18 40  1  0
 20 41  1  0
 20 42  1  0
 21 43  1  0
 21 44  1  0
 26 45  1  0
 27 46  1  0
 28 47  1  0
 30 48  1  0
 30 49  1  0
 31 50  1  0
 31 51  1  0
M  END
>  <UniqueID>  (23) 
23

>  <SMILES>  (23) 
O=C(c1ccc(O)c(S(=O)(=O)c2ccccc2)c1)N1CCN(C(=O)c2ccco2)CC1

>  <Energy>  (23) 
93.96764180526058

>  <Genealogy>  (23) 
O=C(c1ccc(O)c(S(=O)(=O)c2ccccc2)c1)N1CCN(C(=O)c2ccco2)CC1 (3D coordinates assigned)
O=C(c1ccc(O)c(S(=O)(=O)c2ccccc2)c1)N1CCN(C(=O)c2ccco2)CC1 (nonaromatic ring conformer: 93.96764180526058 kcal/mol)

>  <smiles>  (23) 
O=C(c1ccc(O)c(S(=O)(=O)c2ccccc2)c1)N1CCN(C(=O)c2ccco2)CC1

>  <score_type>  (23) 
oracle

>  <origin>  (23) 
adg

>  <m_score__min__energy>  (23) 
-9.4399999999999995

>  <m_primary>  (23) 
energy

$$$$
23:0
     RDKit          3D

 52 55  0  0  0  0  0  0  0  0999 V2000
   55.7980   23.2930   45.5270 C   0  0  0  0  0  0  0  0  0  0  0  0
   56.0260   24.0530   46.8280 C   0  0  0  0  0  0  0  0  0  0  0  0
   56.5160   25.4030   46.5510 N   0  0  0  0  0  0  0  0  0  0  0  0
   55.8100   26.4110   45.9930 C   0  0  0  0  0  0  0  0  0  0  0  0
   54.4600   26.3390   45.6670 O   0  0  0  0  0  0  0  0  0  0  0  0
   56.6310   27.4940   45.7750 C   0  0  0  0  0  0  0  0  0  0  0  0
   56.3640   28.7170   45.1710 C   0  0  0  0  0  0  0  0  0  0  0  0
   57.4350   29.6220   45.0450 C   0  0  0  0  0  0  0  0  0  0  0  0
   57.2580   30.9280   44.3850 C   0  0  0  0  0  0  0  0  0  0  0  0
   56.6530   30.9680   43.2800 O   0  0  0  0  0  0  0  0  0  0  0  0
   57.7820   32.1440   44.9510 N   0  0  0  0  0  0  0  0  0  0  0  0
   58.9410   32.1960   45.8300 C   0  0  0  0  0  0  0  0  0  0  0  0
   59.4340   33.6360   45.7710 C   0  0  0  0  0  0  0  0  0  0  0  0
   58.2680   34.4490   45.2220 C   0  0  0  0  0  0  0  0  0  0  0  0
   57.4000   33.4580   44.4600 C   0  0  0  0  0  0  0  0  0  0  0  0
   58.6770   29.2770   45.5100 N   0  0  0  0  0  0  0  0  0  0  0  0
   58.9400   28.0790   46.1150 C   0  0  0  0  0  0  0  0  0  0  0  0
   60.2620   27.8760   46.7180 C   0  0  0  0  0  0  0  0  0  0  0  0
   60.9850   26.9210   46.3210 O   0  0  0  0  0  0  0  0  0  0  0  0
   60.7660   28.8130   47.6760 N   0  0  0  0  0  0  0  0  0  0  0  0
   59.9660   29.8840   48.2570 C   0  0  0  0  0  0  0  0  0  0  0  0
   60.7200   31.1840   48.2040 C   0  0  0  0  0  0  0  0  0  0  0  0
   61.9230   31.2690   47.4840 C   0  0  0  0  0  0  0  0  0  0  0  0
   62.6440   32.4670   47.4530 C   0  0  0  0  0  0  0  0  0  0  0  0
   62.1720   33.5850   48.1470 C   0  0  0  0  0  0  0  0  0  0  0  0
   60.9780   33.5070   48.8710 C   0  0  0  0  0  0  0  0  0  0  0  0
   60.2540   32.3110   48.9030 C   0  0  0  0  0  0  0  0  0  0  0  0
   57.8880   27.1530   46.2160 C   0  0  0  0  0  0  0  0  0  0  0  0
   57.7970   25.8300   46.6470 C   0  0  0  0  0  0  0  0  0  0  0  0
   58.8460   24.9930   47.0270 O   0  0  0  0  0  0  0  0  0  0  0  0
   55.4887   22.2621   45.7540 H   0  0  0  0  0  0  0  0  0  0  0  0
   55.0101   23.7922   44.9440 H   0  0  0  0  0  0  0  0  0  0  0  0
   56.7306   23.2761   44.9440 H   0  0  0  0  0  0  0  0  0  0  0  0
   55.0772   24.1182   47.3807 H   0  0  0  0  0  0  0  0  0  0  0  0
   56.7767   23.5170   47.4274 H   0  0  0  0  0  0  0  0  0  0  0  0
   55.3569   28.9676   44.8063 H   0  0  0  0  0  0  0  0  0  0  0  0
   58.6555   31.9295   46.8583 H   0  0  0  0  0  0  0  0  0  0  0  0
   59.7207   31.4852   45.5188 H   0  0  0  0  0  0  0  0  0  0  0  0
   59.7081   33.9890   46.7761 H   0  0  0  0  0  0  0  0  0  0  0  0
   60.3294   33.7330   45.1395 H   0  0  0  0  0  0  0  0  0  0  0  0
   57.6977   34.9058   46.0443 H   0  0  0  0  0  0  0  0  0  0  0  0
   58.6129   35.2690   44.5750 H   0  0  0  0  0  0  0  0  0  0  0  0
   56.3351   33.6477   44.6598 H   0  0  0  0  0  0  0  0  0  0  0  0
   57.5439   33.5435   43.3728 H   0  0  0  0  0  0  0  0  0  0  0  0
   59.0282   29.9848   47.6910 H   0  0  0  0  0  0  0  0  0  0  0  0
   59.7472   29.6390   49.3068 H   0  0  0  0  0  0  0  0  0  0  0  0
   62.2998   30.3891   46.9419 H   0  0  0  0  0  0  0  0  0  0  0  0
   63.5824   32.5295   46.8826 H   0  0  0  0  0  0  0  0  0  0  0  0
   62.7401   34.5267   48.1236 H   0  0  0  0  0  0  0  0  0  0  0  0
   60.6078   34.3878   49.4161 H   0  0  0  0  0  0  0  0  0  0  0  0
   59.3173   32.2520   49.4767 H   0  0  0  0  0  0  0  0  0  0  0  0
   59.8140   25.2650   46.9410 H   0  0  0  0  0  0  0  0  0  0  0  0
  1  2  1  0
  2  3  1  0
  3  4  1  0
  4  5  1  0
  4  6  2  0
  6  7  1  0
  7  8  2  0
  8  9  1  0
  9 10  2  0
  9 11  1  0
 11 12  1  0
 12 13  1  0
 13 14  1  0
 14 15  1  0
  8 16  1  0
 16 17  2  0
 17 18  1  0
 18 19  2  0
 18 20  1  0
 20 21  1  0
 21 22  1  0
 22 23  2  0
 23 24  1  0
 24 25  2  0
 25 26  1  0
 26 27  2  0
 17 28  1  0
 28 29  2  0
 29 30  1  0
 29  3  1  0
 28  6  1  0
 15 11  1  0
 27 22  1  0
  1 31  1  0
  1 32  1  0
  1 33  1  0
  2 34  1  0
  2 35  1  0
  7 36  1  0
 12 37  1  0
 12 38  1  0
 13 39  1  0
 13 40  1  0
 14 41  1  0
 14 42  1  0
 15 43  1  0
 15 44  1  0
 21 45  1  0
 21 46  1  0
 23 47  1  0
 24 48  1  0
 25 49  1  0
 26 50  1  0
 27 51  1  0
 30 52  1  0
M  CHG  2   5  -1  20  -1
M  END
>  <UniqueID>  (24) 
24

>  <SMILES>  (24) 
CCn1c([O-])c2cc(C(=O)N3CCCC3)nc(C(=O)[N-]Cc3ccccc3)c2c1O

>  <Energy>  (24) 
97.10880936039541

>  <Genealogy>  (24) 
CCn1c([O-])c2cc(C(=O)N3CCCC3)nc(C(=O)[N-]Cc3ccccc3)c2c1O (protonated)
CCn1c([O-])c2cc(C(=O)N3CCCC3)nc(C(=O)[N-]Cc3ccccc3)c2c1O (3D coordinates assigned)
CCn1c([O-])c2cc(C(=O)N3CCCC3)nc(C(=O)[N-]Cc3ccccc3)c2c1O (nonaromatic ring conformer: 97.10880936039541 kcal/mol)

>  <smiles>  (24) 
CCn1c(O)c2cc(C(=O)N3CCCC3)nc(C(=O)NCc3ccccc3)c2c1O

>  <score_type>  (24) 
oracle

>  <origin>  (24) 
adg

>  <m_score__min__energy>  (24) 
-11.99

>  <m_primary>  (24) 
energy

$$$$
24:0
     RDKit          3D

 50 52  0  0  0  0  0  0  0  0999 V2000
   59.4380   27.4330   46.7090 C   0  0  0  0  0  0  0  0  0  0  0  0
   58.7330   28.1250   45.8000 C   0  0  0  0  0  0  0  0  0  0  0  0
   57.9590   27.5920   44.7550 C   0  0  0  0  0  0  0  0  0  0  0  0
   57.5790   26.3270   44.4860 C   0  0  0  0  0  0  0  0  0  0  0  0
   57.0750   25.3530   45.4680 C   0  0  0  0  0  0  0  0  0  0  0  0
   57.7900   24.3240   45.9620 N   0  0  0  0  0  0  0  0  0  0  0  0
   56.9800   23.8130   46.9140 C   0  0  0  0  0  0  0  0  0  0  0  0
   57.2970   22.8100   47.6060 O   0  0  0  0  0  0  0  0  0  0  0  0
   55.8110   24.4680   47.0760 N   0  0  0  0  0  0  0  0  0  0  0  0
   55.8940   25.4490   46.1620 C   0  0  0  0  0  0  0  0  0  0  0  0
   54.9160   26.4180   45.9690 O   0  0  0  0  0  0  0  0  0  0  0  0
   57.5650   28.6660   43.9790 C   0  0  0  0  0  0  0  0  0  0  0  0
   58.0300   29.8070   44.5980 C   0  0  0  0  0  0  0  0  0  0  0  0
   57.7070   31.1740   44.1380 C   0  0  0  0  0  0  0  0  0  0  0  0
   58.2210   31.6050   43.0710 O   0  0  0  0  0  0  0  0  0  0  0  0
   56.7730   31.9840   44.8610 N   0  0  0  0  0  0  0  0  0  0  0  0
   57.0070   33.3840   45.1930 C   0  0  0  0  0  0  0  0  0  0  0  0
   58.2300   33.5170   46.0590 C   0  0  0  0  0  0  0  0  0  0  0  0
   58.1740   33.1560   47.4130 C   0  0  0  0  0  0  0  0  0  0  0  0
   59.3120   33.2550   48.2180 C   0  0  0  0  0  0  0  0  0  0  0  0
   60.5280   33.7010   47.6760 C   0  0  0  0  0  0  0  0  0  0  0  0
   61.7240   33.8180   48.5390 C   0  0  0  0  0  0  0  0  0  0  0  0
   61.7200   34.6700   49.4690 O   0  0  0  0  0  0  0  0  0  0  0  0
   62.8800   32.9780   48.3490 N   0  0  0  0  0  0  0  0  0  0  0  0
   64.1880   33.4530   48.8110 C   0  0  0  0  0  0  0  0  0  0  0  0
   62.7310   31.6090   47.8430 C   0  0  0  0  0  0  0  0  0  0  0  0
   60.5790   34.0790   46.3250 C   0  0  0  0  0  0  0  0  0  0  0  0
   59.4410   33.9810   45.5200 C   0  0  0  0  0  0  0  0  0  0  0  0
   58.7670   29.4820   45.6900 N   0  0  0  0  0  0  0  0  0  0  0  0
   59.5070   30.4230   46.5440 C   0  0  0  0  0  0  0  0  0  0  0  0
   60.0084   27.9655   47.4842 H   0  0  0  0  0  0  0  0  0  0  0  0
   59.4452   26.3334   46.6786 H   0  0  0  0  0  0  0  0  0  0  0  0
   57.6519   25.9931   43.4405 H   0  0  0  0  0  0  0  0  0  0  0  0
   54.3330   26.7230   46.7380 H   0  0  0  0  0  0  0  0  0  0  0  0
   56.9886   28.6192   43.0433 H   0  0  0  0  0  0  0  0  0  0  0  0
   57.1546   33.9572   44.2658 H   0  0  0  0  0  0  0  0  0  0  0  0
   56.1360   33.7725   45.7411 H   0  0  0  0  0  0  0  0  0  0  0  0
   57.2292   32.7929   47.8437 H   0  0  0  0  0  0  0  0  0  0  0  0
   59.2548   32.9820   49.2821 H   0  0  0  0  0  0  0  0  0  0  0  0
   64.2079   33.4602   49.9108 H   0  0  0  0  0  0  0  0  0  0  0  0
   64.9752   32.7833   48.4344 H   0  0  0  0  0  0  0  0  0  0  0  0
   64.3621   34.4718   48.4344 H   0  0  0  0  0  0  0  0  0  0  0  0
   62.6551   30.9113   48.6900 H   0  0  0  0  0  0  0  0  0  0  0  0
   61.8202   31.5418   47.2298 H   0  0  0  0  0  0  0  0  0  0  0  0
   63.6060   31.3475   47.2298 H   0  0  0  0  0  0  0  0  0  0  0  0
   61.5204   34.4546   45.8975 H   0  0  0  0  0  0  0  0  0  0  0  0
   59.4939   34.2685   44.4596 H   0  0  0  0  0  0  0  0  0  0  0  0
   59.3192   30.1842   47.6012 H   0  0  0  0  0  0  0  0  0  0  0  0
   60.5837   30.3392   46.3348 H   0  0  0  0  0  0  0  0  0  0  0  0
   59.1717   31.4495   46.3348 H   0  0  0  0  0  0  0  0  0  0  0  0
  1  2  2  0
  2  3  1  0
  3  4  2  3
  4  5  1  0
  5  6  1  0
  6  7  1  0
  7  8  2  0
  7  9  1  0
  9 10  1  0
 10 11  1  0
  3 12  1  0
 12 13  2  0
 13 14  1  0
 14 15  2  0
 14 16  1  0
 16 17  1  0
 17 18  1  0
 18 19  2  0
 19 20  1  0
 20 21  2  0
 21 22  1  0
 22 23  2  0
 22 24  1  0
 24 25  1  0
 24 26  1  0
 21 27  1  0
 27 28  2  0
 13 29  1  0
 29 30  1  0
 29  2  1  0
 10  5  2  0
 28 18  1  0
  1 31  1  0
  1 32  1  0
  4 33  1  0
 11 34  1  0
 12 35  1  0
 17 36  1  0
 17 37  1  0
 19 38  1  0
 20 39  1  0
 25 40  1  0
 25 41  1  0
 25 42  1  0
 26 43  1  0
 26 44  1  0
 26 45  1  0
 27 46  1  0
 28 47  1  0
 30 48  1  0
 30 49  1  0
 30 50  1  0
M  CHG  3   6  -1   9  -1  16  -1
M  END
>  <UniqueID>  (25) 
25

>  <SMILES>  (25) 
C=c1c(=Cc2[n-]c(=O)[n-]c2O)cc(C(=O)[N-]Cc2ccc(C(=O)N(C)C)cc2)n1C

>  <Energy>  (25) 
124.22713575575733

>  <Genealogy>  (25) 
C=c1c(=Cc2[n-]c(=O)[n-]c2O)cc(C(=O)[N-]Cc2ccc(C(=O)N(C)C)cc2)n1C (protonated)
C=c1c(=Cc2[n-]c(=O)[n-]c2O)cc(C(=O)[N-]Cc2ccc(C(=O)N(C)C)cc2)n1C (3D coordinates assigned)
C=c1c(=Cc2[n-]c(=O)[n-]c2O)cc(C(=O)[N-]Cc2ccc(C(=O)N(C)C)cc2)n1C (optimized conformer: 124.22713575575733 kcal/mol)

>  <smiles>  (25) 
C=c1c(=Cc2[nH]c(=O)[nH]c2O)cc(C(=O)NCc2ccc(C(=O)N(C)C)cc2)n1C

>  <score_type>  (25) 
oracle

>  <origin>  (25) 
adg

>  <m_score__min__energy>  (25) 
-15.07

>  <m_primary>  (25) 
energy

$$$$
25:0
     RDKit          3D

 52 55  0  0  0  0  0  0  0  0999 V2000
   55.4840   28.8540   44.8460 O   0  0  0  0  0  0  0  0  0  0  0  0
   56.6960   28.7770   45.1820 C   0  0  0  0  0  0  0  0  0  0  0  0
   57.4640   27.5220   44.8680 C   0  0  0  0  0  0  0  0  0  0  0  0
   57.2090   26.4480   45.8860 C   0  0  0  0  0  0  0  0  0  0  0  0
   58.3970   25.6150   46.7470 S   0  0  0  0  0  0  0  0  0  0  0  0
   57.2700   24.6290   47.5110 C   0  0  0  0  0  0  0  0  0  0  0  0
   57.5620   23.7350   48.3470 O   0  0  0  0  0  0  0  0  0  0  0  0
   56.0040   24.8920   47.1280 N   0  0  0  0  0  0  0  0  0  0  0  0
   55.9700   25.9010   46.2160 C   0  0  0  0  0  0  0  0  0  0  0  0
   54.7750   26.3450   45.6580 O   0  0  0  0  0  0  0  0  0  0  0  0
   57.2740   29.8520   45.9330 N   0  0  0  0  0  0  0  0  0  0  0  0
   57.7340   31.0970   45.3930 C   0  0  0  0  0  0  0  0  0  0  0  0
   57.5160   31.4290   44.0480 C   0  0  0  0  0  0  0  0  0  0  0  0
   57.9440   32.6630   43.5520 C   0  0  0  0  0  0  0  0  0  0  0  0
   58.5810   33.5760   44.3970 C   0  0  0  0  0  0  0  0  0  0  0  0
   58.7940   33.2620   45.7430 C   0  0  0  0  0  0  0  0  0  0  0  0
   59.4140   34.2120   46.5690 O   0  0  0  0  0  0  0  0  0  0  0  0
   60.5170   33.9600   47.3960 C   0  0  0  0  0  0  0  0  0  0  0  0
   60.4390   34.3040   48.7500 C   0  0  0  0  0  0  0  0  0  0  0  0
   61.5120   34.0450   49.6070 C   0  0  0  0  0  0  0  0  0  0  0  0
   62.6790   33.4410   49.1170 C   0  0  0  0  0  0  0  0  0  0  0  0
   63.7790   33.1130   50.0420 C   0  0  0  0  0  0  0  0  0  0  0  0
   64.8460   33.7790   49.9830 O   0  0  0  0  0  0  0  0  0  0  0  0
   63.6510   32.0960   51.0460 N   0  0  0  0  0  0  0  0  0  0  0  0
   63.1810   30.7280   50.8270 C   0  0  0  0  0  0  0  0  0  0  0  0
   61.7490   30.7110   50.3580 C   0  0  0  0  0  0  0  0  0  0  0  0
   60.7330   31.2520   51.1640 C   0  0  0  0  0  0  0  0  0  0  0  0
   59.4080   31.2620   50.7150 C   0  0  0  0  0  0  0  0  0  0  0  0
   59.0870   30.7270   49.4640 C   0  0  0  0  0  0  0  0  0  0  0  0
   60.0890   30.1750   48.6630 C   0  0  0  0  0  0  0  0  0  0  0  0
   61.4150   30.1600   49.1080 C   0  0  0  0  0  0  0  0  0  0  0  0
   62.7810   33.1500   47.7490 C   0  0  0  0  0  0  0  0  0  0  0  0
   61.7070   33.4060   46.8930 C   0  0  0  0  0  0  0  0  0  0  0  0
   58.3430   32.0260   46.2440 C   0  0  0  0  0  0  0  0  0  0  0  0
   57.1578   27.1547   43.8774 H   0  0  0  0  0  0  0  0  0  0  0  0
   58.5372   27.7627   44.8836 H   0  0  0  0  0  0  0  0  0  0  0  0
   54.7700   27.0810   44.9640 H   0  0  0  0  0  0  0  0  0  0  0  0
   57.0070   30.7164   43.3823 H   0  0  0  0  0  0  0  0  0  0  0  0
   57.7793   32.9165   42.4943 H   0  0  0  0  0  0  0  0  0  0  0  0
   58.9164   34.5461   44.0015 H   0  0  0  0  0  0  0  0  0  0  0  0
   59.5284   34.7807   49.1419 H   0  0  0  0  0  0  0  0  0  0  0  0
   61.4410   34.3161   50.6707 H   0  0  0  0  0  0  0  0  0  0  0  0
   63.8136   30.2492   50.0650 H   0  0  0  0  0  0  0  0  0  0  0  0
   63.2412   30.1827   51.7805 H   0  0  0  0  0  0  0  0  0  0  0  0
   60.9803   31.6691   52.1514 H   0  0  0  0  0  0  0  0  0  0  0  0
   58.6173   31.6917   51.3476 H   0  0  0  0  0  0  0  0  0  0  0  0
   58.0454   30.7408   49.1106 H   0  0  0  0  0  0  0  0  0  0  0  0
   59.8350   29.7512   47.6802 H   0  0  0  0  0  0  0  0  0  0  0  0
   62.1995   29.7156   48.4779 H   0  0  0  0  0  0  0  0  0  0  0  0
   63.7102   32.7185   47.3484 H   0  0  0  0  0  0  0  0  0  0  0  0
   61.7929   33.1732   45.8214 H   0  0  0  0  0  0  0  0  0  0  0  0
   58.4701   31.7892   47.3107 H   0  0  0  0  0  0  0  0  0  0  0  0
  1  2  2  0
  2  3  1  0
  3  4  1  0
  4  5  1  0
  5  6  1  0
  6  7  2  0
  6  8  1  0
  8  9  1  0
  9 10  1  0
  2 11  1  0
 11 12  1  0
 12 13  2  0
 13 14  1  0
 14 15  2  0
 15 16  1  0
 16 17  1  0
 17 18  1  0
 18 19  2  0
 19 20  1  0
 20 21  2  0
 21 22  1  0
 22 23  2  0
 22 24  1  0
 24 25  1  0
 25 26  1  0
 26 27  2  0
 27 28  1  0
 28 29  2  0
 29 30  1  0
 30 31  2  0
 21 32  1  0
 32 33  2  0
 16 34  2  0
  9  4  2  0
 34 12  1  0
 33 18  1  0
 31 26  1  0
  3 35  1  0
  3 36  1  0
 10 37  1  0
 13 38  1  0
 14 39  1  0
 15 40  1  0
 19 41  1  0
 20 42  1  0
 25 43  1  0
 25 44  1  0
 27 45  1  0
 28 46  1  0
 29 47  1  0
 30 48  1  0
 31 49  1  0
 32 50  1  0
 33 51  1  0
 34 52  1  0
M  CHG  3   8  -1  11  -1  24  -1
M  END
>  <UniqueID>  (26) 
26

>  <SMILES>  (26) 
O=C(Cc1sc(=O)[n-]c1O)[N-]c1cccc(Oc2ccc(C(=O)[N-]Cc3ccccc3)cc2)c1

>  <Energy>  (26) 
97.78475841581792

>  <Genealogy>  (26) 
O=C(Cc1sc(=O)[n-]c1O)[N-]c1cccc(Oc2ccc(C(=O)[N-]Cc3ccccc3)cc2)c1 (protonated)
O=C(Cc1sc(=O)[n-]c1O)[N-]c1cccc(Oc2ccc(C(=O)[N-]Cc3ccccc3)cc2)c1 (3D coordinates assigned)
O=C(Cc1sc(=O)[n-]c1O)[N-]c1cccc(Oc2ccc(C(=O)[N-]Cc3ccccc3)cc2)c1 (optimized conformer: 97.78475841581792 kcal/mol)

>  <smiles>  (26) 
O=C(Cc1sc(=O)[nH]c1O)Nc1cccc(Oc2ccc(C(=O)NCc3ccccc3)cc2)c1

>  <score_type>  (26) 
oracle

>  <origin>  (26) 
adg

>  <m_score__min__energy>  (26) 
-15.130000000000001

>  <m_primary>  (26) 
energy

$$$$
26:0
     RDKit          3D

 57 59  0  0  0  0  0  0  0  0999 V2000
   54.9310   24.4760   46.4260 O   0  0  0  0  0  0  0  0  0  0  0  0
   55.6000   25.4220   45.9330 C   0  0  0  0  0  0  0  0  0  0  0  0
   55.1050   26.7180   45.9900 O   0  0  0  0  0  0  0  0  0  0  0  0
   56.9470   25.1580   45.3470 C   0  0  0  0  0  0  0  0  0  0  0  0
   57.8940   24.8490   46.4110 N   0  0  0  0  0  0  0  0  0  0  0  0
   59.2850   25.1830   46.3580 C   0  0  0  0  0  0  0  0  0  0  0  0
   60.0960   24.4090   45.7760 O   0  0  0  0  0  0  0  0  0  0  0  0
   59.8080   26.3820   47.1090 C   0  0  2  0  0  0  0  0  0  0  0  0
   58.7010   27.3770   47.5430 C   0  0  0  0  0  0  0  0  0  0  0  0
   59.2130   28.4670   48.4550 C   0  0  0  0  0  0  0  0  0  0  0  0
   60.3690   28.2600   49.2290 C   0  0  0  0  0  0  0  0  0  0  0  0
   60.8380   29.2680   50.0770 C   0  0  0  0  0  0  0  0  0  0  0  0
   60.1690   30.4930   50.1460 C   0  0  0  0  0  0  0  0  0  0  0  0
   59.0330   30.7130   49.3650 C   0  0  0  0  0  0  0  0  0  0  0  0
   58.5560   29.7060   48.5230 C   0  0  0  0  0  0  0  0  0  0  0  0
   60.8580   27.0650   46.3440 N   0  0  0  0  0  0  0  0  0  0  0  0
   60.7150   28.0160   45.2770 C   0  0  0  0  0  0  0  0  0  0  0  0
   61.7460   28.5860   44.8340 O   0  0  0  0  0  0  0  0  0  0  0  0
   59.4110   28.4110   44.7340 C   0  0  0  0  0  0  0  0  0  0  0  0
   58.6550   27.7160   43.7960 C   0  0  0  0  0  0  0  0  0  0  0  0
   57.4480   28.3490   43.4790 C   0  0  0  0  0  0  0  0  0  0  0  0
   57.2650   29.5470   44.1600 C   0  0  0  0  0  0  0  0  0  0  0  0
   56.0900   30.4580   44.0350 C   0  0  0  0  0  0  0  0  0  0  0  0
   56.3120   31.6330   44.8620 N   0  0  0  0  0  0  0  0  0  0  0  0
   57.2740   32.6470   44.5630 C   0  0  0  0  0  0  0  0  0  0  0  0
   58.1110   32.4740   43.6360 O   0  0  0  0  0  0  0  0  0  0  0  0
   57.3380   33.8940   45.3970 C   0  0  0  0  0  0  0  0  0  0  0  0
   58.3190   33.7650   46.4700 N   0  0  0  0  0  0  0  0  0  0  0  0
   59.6740   34.2270   46.3740 C   0  0  0  0  0  0  0  0  0  0  0  0
   59.9070   35.4150   46.0140 O   0  0  0  0  0  0  0  0  0  0  0  0
   60.7960   33.3190   46.7010 C   0  0  0  0  0  0  0  0  0  0  0  0
   60.6010   31.9300   46.7850 C   0  0  0  0  0  0  0  0  0  0  0  0
   61.6630   31.0930   47.1300 C   0  0  0  0  0  0  0  0  0  0  0  0
   62.9150   31.6470   47.3920 C   0  0  0  0  0  0  0  0  0  0  0  0
   63.1010   32.9910   47.2880 N   0  0  0  0  0  0  0  0  0  0  0  0
   62.0850   33.8290   46.9480 C   0  0  0  0  0  0  0  0  0  0  0  0
   58.6070   29.8320   45.1360 S   0  0  0  0  0  0  0  0  0  0  0  0
   56.8838   24.3054   44.6548 H   0  0  0  0  0  0  0  0  0  0  0  0
   57.2889   26.0510   44.8032 H   0  0  0  0  0  0  0  0  0  0  0  0
   60.2428   25.9889   48.0398 H   0  0  0  0  0  0  0  0  0  0  0  0
   58.2765   27.8441   46.6421 H   0  0  0  0  0  0  0  0  0  0  0  0
   57.9461   26.8060   48.1035 H   0  0  0  0  0  0  0  0  0  0  0  0
   60.9059   27.3019   49.1670 H   0  0  0  0  0  0  0  0  0  0  0  0
   61.7347   29.0965   50.6906 H   0  0  0  0  0  0  0  0  0  0  0  0
   60.5376   31.2839   50.8158 H   0  0  0  0  0  0  0  0  0  0  0  0
   58.5128   31.6810   49.4129 H   0  0  0  0  0  0  0  0  0  0  0  0
   57.6605   29.8846   47.9096 H   0  0  0  0  0  0  0  0  0  0  0  0
   58.9742   26.7635   43.3479 H   0  0  0  0  0  0  0  0  0  0  0  0
   56.7186   27.9405   42.7641 H   0  0  0  0  0  0  0  0  0  0  0  0
   55.9701   30.7633   42.9850 H   0  0  0  0  0  0  0  0  0  0  0  0
   55.1792   29.9374   44.3658 H   0  0  0  0  0  0  0  0  0  0  0  0
   57.6196   34.7409   44.7540 H   0  0  0  0  0  0  0  0  0  0  0  0
   56.3491   34.0603   45.8491 H   0  0  0  0  0  0  0  0  0  0  0  0
   59.6092   31.5015   46.5784 H   0  0  0  0  0  0  0  0  0  0  0  0
   61.5134   30.0051   47.1947 H   0  0  0  0  0  0  0  0  0  0  0  0
   63.7534   30.9971   47.6831 H   0  0  0  0  0  0  0  0  0  0  0  0
   62.2712   34.9100   46.8656 H   0  0  0  0  0  0  0  0  0  0  0  0
  1  2  2  0
  2  3  1  0
  2  4  1  0
  4  5  1  0
  5  6  1  0
  6  7  2  0
  6  8  1  0
  8  9  1  0
  9 10  1  0
 10 11  2  0
 11 12  1  0
 12 13  2  0
 13 14  1  0
 14 15  2  0
  8 16  1  0
 16 17  1  0
 17 18  2  0
 17 19  1  0
 19 20  2  0
 20 21  1  0
 21 22  2  0
 22 23  1  0
 23 24  1  0
 24 25  1  0
 25 26  2  0
 25 27  1  0
 27 28  1  0
 28 29  1  0
 29 30  2  0
 29 31  1  0
 31 32  2  0
 32 33  1  0
 33 34  2  0
 34 35  1  0
 35 36  2  0
 22 37  1  0
 15 10  1  0
 37 19  1  0
 36 31  1  0
  4 38  1  0
  4 39  1  0
  8 40  1  1
  9 41  1  0
  9 42  1  0
 11 43  1  0
 12 44  1  0
 13 45  1  0
 14 46  1  0
 15 47  1  0
 20 48  1  0
 21 49  1  0
 23 50  1  0
 23 51  1  0
 27 52  1  0
 27 53  1  0
 32 54  1  0
 33 55  1  0
 34 56  1  0
 36 57  1  0
M  CHG  5   3  -1   5  -1  16  -1  24  -1  28  -1
M  END
>  <UniqueID>  (27) 
27

>  <SMILES>  (27) 
O=C([O-])C[N-]C(=O)[C@H](Cc1ccccc1)[N-]C(=O)c1ccc(C[N-]C(=O)C[N-]C(=O)c2cccnc2)s1

>  <Energy>  (27) 
78.46964054569432

>  <Genealogy>  (27) 
O=C([O-])C[N-]C(=O)C(Cc1ccccc1)[N-]C(=O)c1ccc(C[N-]C(=O)C[N-]C(=O)c2cccnc2)s1 (protonated)
O=C([O-])C[N-]C(=O)[C@H](Cc1ccccc1)[N-]C(=O)c1ccc(C[N-]C(=O)C[N-]C(=O)c2cccnc2)s1 (chirality)
O=C([O-])C[N-]C(=O)[C@H](Cc1ccccc1)[N-]C(=O)c1ccc(C[N-]C(=O)C[N-]C(=O)c2cccnc2)s1 (3D coordinates assigned)
O=C([O-])C[N-]C(=O)[C@H](Cc1ccccc1)[N-]C(=O)c1ccc(C[N-]C(=O)C[N-]C(=O)c2cccnc2)s1 (optimized conformer: 78.46964054569432 kcal/mol)

>  <smiles>  (27) 
O=C(O)CNC(=O)C(Cc1ccccc1)NC(=O)c1ccc(CNC(=O)CNC(=O)c2cccnc2)s1

>  <score_type>  (27) 
oracle

>  <origin>  (27) 
adg

>  <m_score__min__energy>  (27) 
-17.32

>  <m_primary>  (27) 
energy

$$$$
27:0
     RDKit          3D

 58 61  0  0  0  0  0  0  0  0999 V2000
   57.7790   32.3420   41.1230 C   0  0  0  0  0  0  0  0  0  0  0  0
   57.8010   32.1880   42.6070 C   0  0  0  0  0  0  0  0  0  0  0  0
   57.3370   31.0870   43.3140 C   0  0  0  0  0  0  0  0  0  0  0  0
   57.4220   31.2510   44.7070 C   0  0  0  0  0  0  0  0  0  0  0  0
   57.0190   30.2500   45.6520 N   0  0  0  0  0  0  0  0  0  0  0  0
   57.0100   28.8360   45.4310 C   0  0  0  0  0  0  0  0  0  0  0  0
   55.9070   28.2600   45.2410 O   0  0  0  0  0  0  0  0  0  0  0  0
   58.2670   28.0110   45.4960 C   0  0  0  0  0  0  0  0  0  0  0  0
   59.2260   28.5970   46.4990 C   0  0  0  0  0  0  0  0  0  0  0  0
   59.1310   28.2540   47.8590 C   0  0  0  0  0  0  0  0  0  0  0  0
   60.0010   28.8290   48.7910 C   0  0  0  0  0  0  0  0  0  0  0  0
   60.9650   29.7530   48.3760 C   0  0  0  0  0  0  0  0  0  0  0  0
   61.0600   30.1060   47.0270 C   0  0  0  0  0  0  0  0  0  0  0  0
   60.1910   29.5360   46.0910 C   0  0  0  0  0  0  0  0  0  0  0  0
   57.8970   32.5080   45.0910 C   0  0  0  0  0  0  0  0  0  0  0  0
   58.0940   33.0090   46.4630 C   0  0  0  0  0  0  0  0  0  0  0  0
   57.8760   34.2260   46.7080 O   0  0  0  0  0  0  0  0  0  0  0  0
   58.4720   32.1190   47.5240 N   0  0  0  0  0  0  0  0  0  0  0  0
   59.1610   32.5470   48.7110 C   0  0  0  0  0  0  0  0  0  0  0  0
   60.4620   33.0610   48.6070 C   0  0  0  0  0  0  0  0  0  0  0  0
   61.1350   33.5170   49.7430 C   0  0  0  0  0  0  0  0  0  0  0  0
   60.5060   33.4880   50.9890 C   0  0  0  0  0  0  0  0  0  0  0  0
   59.1950   33.0040   51.1050 C   0  0  0  0  0  0  0  0  0  0  0  0
   58.3720   33.0290   52.6650 S   0  0  0  0  0  0  0  0  0  0  0  0
   56.9330   33.4110   52.4590 O   0  0  0  0  0  0  0  0  0  0  0  0
   59.0060   34.0870   53.5240 O   0  0  0  0  0  0  0  0  0  0  0  0
   58.4560   31.4900   53.4990 N   0  0  0  0  0  0  0  0  0  0  0  0
   57.1270   30.9470   53.8310 C   0  0  0  0  0  0  0  0  0  0  0  0
   56.4570   30.2200   52.6410 C   0  0  0  0  0  0  0  0  0  0  0  0
   57.3170   30.0550   51.5310 O   0  0  0  0  0  0  0  0  0  0  0  0
   58.5430   29.5070   51.9550 C   0  0  0  0  0  0  0  0  0  0  0  0
   59.3290   30.5130   52.8140 C   0  0  0  0  0  0  0  0  0  0  0  0
   58.5310   32.5260   49.9670 C   0  0  0  0  0  0  0  0  0  0  0  0
   58.2640   33.3810   43.6980 S   0  0  0  0  0  0  0  0  0  0  0  0
   57.6277   33.4009   40.8665 H   0  0  0  0  0  0  0  0  0  0  0  0
   58.7356   31.9963   40.7043 H   0  0  0  0  0  0  0  0  0  0  0  0
   56.9574   31.7423   40.7043 H   0  0  0  0  0  0  0  0  0  0  0  0
   56.9432   30.1794   42.8331 H   0  0  0  0  0  0  0  0  0  0  0  0
   58.0117   26.9838   45.7953 H   0  0  0  0  0  0  0  0  0  0  0  0
   58.7441   28.0073   44.5048 H   0  0  0  0  0  0  0  0  0  0  0  0
   58.3707   27.5317   48.1909 H   0  0  0  0  0  0  0  0  0  0  0  0
   59.9267   28.5536   49.8534 H   0  0  0  0  0  0  0  0  0  0  0  0
   61.6487   30.2021   49.1114 H   0  0  0  0  0  0  0  0  0  0  0  0
   61.8188   30.8327   46.7012 H   0  0  0  0  0  0  0  0  0  0  0  0
   60.2623   29.8230   45.0315 H   0  0  0  0  0  0  0  0  0  0  0  0
   58.1440   31.1290   47.4730 H   0  0  0  0  0  0  0  0  0  0  0  0
   60.9553   33.1053   47.6248 H   0  0  0  0  0  0  0  0  0  0  0  0
   62.1626   33.8997   49.6556 H   0  0  0  0  0  0  0  0  0  0  0  0
   61.0400   33.8456   51.8817 H   0  0  0  0  0  0  0  0  0  0  0  0
   57.2371   30.2333   54.6608 H   0  0  0  0  0  0  0  0  0  0  0  0
   56.4829   31.7963   54.1028 H   0  0  0  0  0  0  0  0  0  0  0  0
   56.1286   29.2261   52.9791 H   0  0  0  0  0  0  0  0  0  0  0  0
   55.6141   30.8445   52.3103 H   0  0  0  0  0  0  0  0  0  0  0  0
   58.3463   28.6027   52.5496 H   0  0  0  0  0  0  0  0  0  0  0  0
   59.1429   29.2610   51.0664 H   0  0  0  0  0  0  0  0  0  0  0  0
   59.8974   29.9568   53.5740 H   0  0  0  0  0  0  0  0  0  0  0  0
   59.9903   31.0770   52.1398 H   0  0  0  0  0  0  0  0  0  0  0  0
   57.5083   32.1312   50.0577 H   0  0  0  0  0  0  0  0  0  0  0  0
  1  2  1  0
  2  3  2  0
  3  4  1  0
  4  5  1  0
  5  6  1  0
  6  7  2  0
  6  8  1  0
  8  9  1  0
  9 10  2  0
 10 11  1  0
 11 12  2  0
 12 13  1  0
 13 14  2  0
  4 15  2  0
 15 16  1  0
 16 17  2  0
 16 18  1  0
 18 19  1  0
 19 20  2  0
 20 21  1  0
 21 22  2  0
 22 23  1  0
 23 24  1  0
 24 25  2  0
 24 26  2  0
 24 27  1  0
 27 28  1  0
 28 29  1  0
 29 30  1  0
 30 31  1  0
 31 32  1  0
 23 33  2  0
 15 34  1  0
 34  2  1  0
 14  9  1  0
 33 19  1  0
 32 27  1  0
  1 35  1  0
  1 36  1  0
  1 37  1  0
  3 38  1  0
  8 39  1  0
  8 40  1  0
 10 41  1  0
 11 42  1  0
 12 43  1  0
 13 44  1  0
 14 45  1  0
 18 46  1  0
 20 47  1  0
 21 48  1  0
 22 49  1  0
 28 50  1  0
 28 51  1  0
 29 52  1  0
 29 53  1  0
 31 54  1  0
 31 55  1  0
 32 56  1  0
 32 57  1  0
 33 58  1  0
M  CHG  1   5  -1
M  END
>  <UniqueID>  (28) 
28

>  <SMILES>  (28) 
Cc1cc([N-]C(=O)Cc2ccccc2)c(C(=O)Nc2cccc(S(=O)(=O)N3CCOCC3)c2)s1

>  <Energy>  (28) 
102.13459907347561

>  <Genealogy>  (28) 
Cc1cc([N-]C(=O)Cc2ccccc2)c(C(=O)Nc2cccc(S(=O)(=O)N3CCOCC3)c2)s1 (protonated)
Cc1cc([N-]C(=O)Cc2ccccc2)c(C(=O)Nc2cccc(S(=O)(=O)N3CCOCC3)c2)s1 (3D coordinates assigned)
Cc1cc([N-]C(=O)Cc2ccccc2)c(C(=O)Nc2cccc(S(=O)(=O)N3CCOCC3)c2)s1 (nonaromatic ring conformer: 102.13459907347561 kcal/mol)

>  <smiles>  (28) 
Cc1cc(NC(=O)Cc2ccccc2)c(C(=O)Nc2cccc(S(=O)(=O)N3CCOCC3)c2)s1

>  <score_type>  (28) 
oracle

>  <origin>  (28) 
adg

>  <m_score__min__energy>  (28) 
-11.31

>  <m_primary>  (28) 
energy

$$$$
28:0
     RDKit          3D

 52 55  0  0  0  0  0  0  0  0999 V2000
   56.4640   29.7140   42.6100 C   0  0  0  0  0  0  0  0  0  0  0  0
   56.6730   29.9130   44.3700 S   0  0  0  0  0  0  0  0  0  0  0  0
   58.1150   30.1810   44.6960 O   0  0  0  0  0  0  0  0  0  0  0  0
   55.8520   31.0910   44.8160 O   0  0  0  0  0  0  0  0  0  0  0  0
   56.1260   28.4970   45.2100 N   0  0  0  0  0  0  0  0  0  0  0  0
   56.9830   27.6450   45.9930 C   0  0  0  0  0  0  0  0  0  0  0  0
   56.5800   26.3270   46.2570 C   0  0  0  0  0  0  0  0  0  0  0  0
   57.4040   25.4670   46.9880 C   0  0  0  0  0  0  0  0  0  0  0  0
   58.6380   25.9140   47.4660 C   0  0  0  0  0  0  0  0  0  0  0  0
   59.0450   27.2360   47.2350 C   0  0  0  0  0  0  0  0  0  0  0  0
   60.4000   27.7050   47.6940 C   0  0  0  0  0  0  0  0  0  0  0  0
   60.3070   29.1210   48.2140 C   0  0  0  0  0  0  0  0  0  0  0  0
   60.6010   30.1870   47.3570 C   0  0  0  0  0  0  0  0  0  0  0  0
   60.4720   31.4900   47.7580 N   0  0  0  0  0  0  0  0  0  0  0  0
   60.8310   32.5400   46.7800 C   0  0  0  0  0  0  0  0  0  0  0  0
   59.5990   33.1960   46.2050 C   0  0  0  0  0  0  0  0  0  0  0  0
   58.3170   32.7030   46.5100 C   0  0  0  0  0  0  0  0  0  0  0  0
   57.1780   33.3300   45.9940 C   0  0  0  0  0  0  0  0  0  0  0  0
   57.3080   34.4620   45.1840 C   0  0  0  0  0  0  0  0  0  0  0  0
   56.2040   35.0700   44.6890 F   0  0  0  0  0  0  0  0  0  0  0  0
   58.5770   34.9700   44.8920 C   0  0  0  0  0  0  0  0  0  0  0  0
   59.7180   34.3450   45.4030 C   0  0  0  0  0  0  0  0  0  0  0  0
   60.0380   31.7850   49.0360 C   0  0  0  0  0  0  0  0  0  0  0  0
   59.8900   33.1190   49.4870 C   0  0  0  0  0  0  0  0  0  0  0  0
   59.4460   33.3920   50.7810 C   0  0  0  0  0  0  0  0  0  0  0  0
   59.1370   32.3520   51.6540 C   0  0  0  0  0  0  0  0  0  0  0  0
   58.5190   32.7390   53.4210 Br  0  0  0  0  0  0  0  0  0  0  0  0
   59.2720   31.0280   51.2370 C   0  0  0  0  0  0  0  0  0  0  0  0
   59.7220   30.7300   49.9350 C   0  0  0  0  0  0  0  0  0  0  0  0
   59.8580   29.3970   49.5120 C   0  0  0  0  0  0  0  0  0  0  0  0
   59.5760   28.4480   50.2970 O   0  0  0  0  0  0  0  0  0  0  0  0
   58.2130   28.0970   46.5040 C   0  0  0  0  0  0  0  0  0  0  0  0
   55.6798   28.9674   42.4160 H   0  0  0  0  0  0  0  0  0  0  0  0
   56.1723   30.6764   42.1643 H   0  0  0  0  0  0  0  0  0  0  0  0
   57.4110   29.3755   42.1643 H   0  0  0  0  0  0  0  0  0  0  0  0
   55.1460   28.1880   45.0210 H   0  0  0  0  0  0  0  0  0  0  0  0
   55.6086   25.9682   45.8859 H   0  0  0  0  0  0  0  0  0  0  0  0
   57.0798   24.4350   47.1876 H   0  0  0  0  0  0  0  0  0  0  0  0
   59.2917   25.2279   48.0246 H   0  0  0  0  0  0  0  0  0  0  0  0
   60.7615   27.0451   48.4964 H   0  0  0  0  0  0  0  0  0  0  0  0
   61.0990   27.6768   46.8451 H   0  0  0  0  0  0  0  0  0  0  0  0
   60.9448   29.9729   46.3343 H   0  0  0  0  0  0  0  0  0  0  0  0
   61.4427   33.3039   47.2823 H   0  0  0  0  0  0  0  0  0  0  0  0
   61.3921   32.0722   45.9576 H   0  0  0  0  0  0  0  0  0  0  0  0
   58.2099   31.8202   47.1574 H   0  0  0  0  0  0  0  0  0  0  0  0
   56.1791   32.9320   46.2258 H   0  0  0  0  0  0  0  0  0  0  0  0
   58.6779   35.8637   44.2586 H   0  0  0  0  0  0  0  0  0  0  0  0
   60.7138   34.7539   45.1767 H   0  0  0  0  0  0  0  0  0  0  0  0
   60.1283   33.9510   48.8081 H   0  0  0  0  0  0  0  0  0  0  0  0
   59.3393   34.4350   51.1137 H   0  0  0  0  0  0  0  0  0  0  0  0
   59.0253   30.2099   51.9297 H   0  0  0  0  0  0  0  0  0  0  0  0
   58.5259   29.1369   46.3285 H   0  0  0  0  0  0  0  0  0  0  0  0
  1  2  1  0
  2  3  2  0
  2  4  2  0
  2  5  1  0
  5  6  1  0
  6  7  2  0
  7  8  1  0
  8  9  2  0
  9 10  1  0
 10 11  1  0
 11 12  1  0
 12 13  2  0
 13 14  1  0
 14 15  1  0
 15 16  1  0
 16 17  2  0
 17 18  1  0
 18 19  2  0
 19 20  1  0
 19 21  1  0
 21 22  2  0
 14 23  1  0
 23 24  2  0
 24 25  1  0
 25 26  2  0
 26 27  1  0
 26 28  1  0
 28 29  2  0
 29 30  1  0
 30 31  2  0
 10 32  2  0
 32  6  1  0
 30 12  1  0
 22 16  1  0
 29 23  1  0
  1 33  1  0
  1 34  1  0
  1 35  1  0
  5 36  1  0
  7 37  1  0
  8 38  1  0
  9 39  1  0
 11 40  1  0
 11 41  1  0
 13 42  1  0
 15 43  1  0
 15 44  1  0
 17 45  1  0
 18 46  1  0
 21 47  1  0
 22 48  1  0
 24 49  1  0
 25 50  1  0
 28 51  1  0
 32 52  1  0
M  END
>  <UniqueID>  (29) 
29

>  <SMILES>  (29) 
CS(=O)(=O)Nc1cccc(Cc2cn(Cc3ccc(F)cc3)c3ccc(Br)cc3c2=O)c1

>  <Energy>  (29) 
62.6550735557444

>  <Genealogy>  (29) 
CS(=O)(=O)Nc1cccc(Cc2cn(Cc3ccc(F)cc3)c3ccc(Br)cc3c2=O)c1 (3D coordinates assigned)
CS(=O)(=O)Nc1cccc(Cc2cn(Cc3ccc(F)cc3)c3ccc(Br)cc3c2=O)c1 (optimized conformer: 62.6550735557444 kcal/mol)

>  <smiles>  (29) 
CS(=O)(=O)Nc1cccc(Cc2cn(Cc3ccc(F)cc3)c3ccc(Br)cc3c2=O)c1

>  <score_type>  (29) 
oracle

>  <origin>  (29) 
adg

>  <m_score__min__energy>  (29) 
-10.23

>  <m_primary>  (29) 
energy

$$$$
29:0
     RDKit          3D

 48 51  0  0  0  0  0  0  0  0999 V2000
   57.8940   32.4060   44.4460 O   0  0  0  0  0  0  0  0  0  0  0  0
   57.8480   31.8010   45.5520 C   0  0  0  0  0  0  0  0  0  0  0  0
   58.2610   32.5150   46.8010 C   0  0  0  0  0  0  0  0  0  0  0  0
   59.4820   31.9180   47.3440 N   0  0  0  0  0  0  0  0  0  0  0  0
   59.5550   30.9130   48.3610 C   0  0  0  0  0  0  0  0  0  0  0  0
   58.5670   30.2490   48.7770 O   0  0  0  0  0  0  0  0  0  0  0  0
   60.9220   30.7970   48.8480 C   0  0  0  0  0  0  0  0  0  0  0  0
   61.3520   30.0090   49.7330 O   0  0  0  0  0  0  0  0  0  0  0  0
   61.6860   31.7940   48.1120 C   0  0  0  0  0  0  0  0  0  0  0  0
   63.0310   32.1480   48.2020 C   0  0  0  0  0  0  0  0  0  0  0  0
   63.4960   33.1930   47.3830 C   0  0  0  0  0  0  0  0  0  0  0  0
   62.6130   33.8600   46.5050 C   0  0  0  0  0  0  0  0  0  0  0  0
   61.2590   33.4880   46.4340 C   0  0  0  0  0  0  0  0  0  0  0  0
   60.8160   32.4410   47.2490 C   0  0  0  0  0  0  0  0  0  0  0  0
   57.4470   30.4210   45.6300 N   0  0  0  0  0  0  0  0  0  0  0  0
   58.3040   29.2690   45.6430 C   0  0  0  0  0  0  0  0  0  0  0  0
   59.7110   29.3910   45.6150 C   0  0  0  0  0  0  0  0  0  0  0  0
   60.5180   28.2510   45.6450 C   0  0  0  0  0  0  0  0  0  0  0  0
   59.9340   26.9800   45.6980 C   0  0  0  0  0  0  0  0  0  0  0  0
   58.5430   26.8470   45.6950 C   0  0  0  0  0  0  0  0  0  0  0  0
   57.7230   27.9830   45.6430 C   0  0  0  0  0  0  0  0  0  0  0  0
   56.2590   27.8010   45.5890 C   0  0  0  0  0  0  0  0  0  0  0  0
   55.5580   28.6520   44.9810 O   0  0  0  0  0  0  0  0  0  0  0  0
   55.6030   26.7190   46.2660 N   0  0  0  0  0  0  0  0  0  0  0  0
   55.0490   25.5250   45.6260 C   0  0  0  0  0  0  0  0  0  0  0  0
   56.1340   24.5360   45.2870 C   0  0  0  0  0  0  0  0  0  0  0  0
   56.2210   24.0010   43.9870 C   0  0  0  0  0  0  0  0  0  0  0  0
   57.2090   23.0610   43.6810 C   0  0  0  0  0  0  0  0  0  0  0  0
   58.1190   22.6500   44.6660 C   0  0  0  0  0  0  0  0  0  0  0  0
   58.0430   23.1840   45.9590 C   0  0  0  0  0  0  0  0  0  0  0  0
   57.0600   24.1270   46.2690 C   0  0  0  0  0  0  0  0  0  0  0  0
   58.4462   33.5743   46.5697 H   0  0  0  0  0  0  0  0  0  0  0  0
   57.4568   32.4286   47.5466 H   0  0  0  0  0  0  0  0  0  0  0  0
   63.7090   31.6257   48.8931 H   0  0  0  0  0  0  0  0  0  0  0  0
   64.5535   33.4925   47.4266 H   0  0  0  0  0  0  0  0  0  0  0  0
   62.9879   34.6774   45.8715 H   0  0  0  0  0  0  0  0  0  0  0  0
   60.5661   34.0068   45.7552 H   0  0  0  0  0  0  0  0  0  0  0  0
   60.1733   30.3881   45.5694 H   0  0  0  0  0  0  0  0  0  0  0  0
   61.6132   28.3523   45.6270 H   0  0  0  0  0  0  0  0  0  0  0  0
   60.5711   26.0844   45.7421 H   0  0  0  0  0  0  0  0  0  0  0  0
   58.0890   25.8458   45.7336 H   0  0  0  0  0  0  0  0  0  0  0  0
   54.3320   25.0501   46.3119 H   0  0  0  0  0  0  0  0  0  0  0  0
   54.5506   25.8288   44.6936 H   0  0  0  0  0  0  0  0  0  0  0  0
   55.5105   24.3234   43.2116 H   0  0  0  0  0  0  0  0  0  0  0  0
   57.2730   22.6427   42.6657 H   0  0  0  0  0  0  0  0  0  0  0  0
   58.8933   21.9075   44.4230 H   0  0  0  0  0  0  0  0  0  0  0  0
   58.7575   22.8607   46.7303 H   0  0  0  0  0  0  0  0  0  0  0  0
   57.0081   24.5519   47.2823 H   0  0  0  0  0  0  0  0  0  0  0  0
  1  2  2  0
  2  3  1  0
  3  4  1  0
  4  5  1  0
  5  6  2  0
  5  7  1  0
  7  8  2  0
  7  9  1  0
  9 10  2  0
 10 11  1  0
 11 12  2  0
 12 13  1  0
 13 14  2  0
  2 15  1  0
 15 16  1  0
 16 17  2  0
 17 18  1  0
 18 19  2  0
 19 20  1  0
 20 21  2  0
 21 22  1  0
 22 23  2  0
 22 24  1  0
 24 25  1  0
 25 26  1  0
 26 27  2  0
 27 28  1  0
 28 29  2  0
 29 30  1  0
 30 31  2  0
 14  4  1  0
 21 16  1  0
 31 26  1  0
 14  9  1  0
  3 32  1  0
  3 33  1  0
 10 34  1  0
 11 35  1  0
 12 36  1  0
 13 37  1  0
 17 38  1  0
 18 39  1  0
 19 40  1  0
 20 41  1  0
 25 42  1  0
 25 43  1  0
 27 44  1  0
 28 45  1  0
 29 46  1  0
 30 47  1  0
 31 48  1  0
M  CHG  2  15  -1  24  -1
M  END
>  <UniqueID>  (30) 
30

>  <SMILES>  (30) 
O=C(CN1C(=O)C(=O)c2ccccc21)[N-]c1ccccc1C(=O)[N-]Cc1ccccc1

>  <Energy>  (30) 
89.21044053234547

>  <Genealogy>  (30) 
O=C(CN1C(=O)C(=O)c2ccccc21)[N-]c1ccccc1C(=O)[N-]Cc1ccccc1 (protonated)
O=C(CN1C(=O)C(=O)c2ccccc21)[N-]c1ccccc1C(=O)[N-]Cc1ccccc1 (3D coordinates assigned)
O=C(CN1C(=O)C(=O)c2ccccc21)[N-]c1ccccc1C(=O)[N-]Cc1ccccc1 (nonaromatic ring conformer: 89.21044053234547 kcal/mol)

>  <smiles>  (30) 
O=C(CN1C(=O)C(=O)c2ccccc21)Nc1ccccc1C(=O)NCc1ccccc1

>  <score_type>  (30) 
oracle

>  <origin>  (30) 
adg

>  <m_score__min__energy>  (30) 
-13.59

>  <m_primary>  (30) 
energy

$$$$
30:0
     RDKit          3D

 53 56  0  0  0  0  0  0  0  0999 V2000
   59.3810   27.6650   46.5610 C   0  0  0  0  0  0  0  0  0  0  0  0
   58.6260   28.2970   45.6470 C   0  0  0  0  0  0  0  0  0  0  0  0
   57.8720   27.7110   44.6160 C   0  0  0  0  0  0  0  0  0  0  0  0
   57.5270   26.4300   44.3870 C   0  0  0  0  0  0  0  0  0  0  0  0
   57.0120   25.4850   45.3920 C   0  0  0  0  0  0  0  0  0  0  0  0
   57.6890   24.4150   45.8550 N   0  0  0  0  0  0  0  0  0  0  0  0
   56.9010   23.9580   46.8530 C   0  0  0  0  0  0  0  0  0  0  0  0
   57.1890   22.9370   47.5310 O   0  0  0  0  0  0  0  0  0  0  0  0
   55.7870   24.6890   47.0770 N   0  0  0  0  0  0  0  0  0  0  0  0
   55.8850   25.6640   46.1560 C   0  0  0  0  0  0  0  0  0  0  0  0
   54.9730   26.7040   46.0270 O   0  0  0  0  0  0  0  0  0  0  0  0
   57.4800   28.7510   43.7870 C   0  0  0  0  0  0  0  0  0  0  0  0
   57.9390   29.9170   44.3600 C   0  0  0  0  0  0  0  0  0  0  0  0
   57.7210   31.2900   43.7970 C   0  0  0  0  0  0  0  0  0  0  0  0
   58.6290   29.6460   45.4890 N   0  0  0  0  0  0  0  0  0  0  0  0
   59.2740   30.6180   46.3290 C   0  0  0  0  0  0  0  0  0  0  0  0
   60.6740   30.6710   46.3920 C   0  0  0  0  0  0  0  0  0  0  0  0
   61.3050   31.5880   47.2360 C   0  0  0  0  0  0  0  0  0  0  0  0
   60.5450   32.4670   48.0240 C   0  0  0  0  0  0  0  0  0  0  0  0
   61.2040   33.4140   48.9450 C   0  0  0  0  0  0  0  0  0  0  0  0
   60.6780   34.5460   49.1340 O   0  0  0  0  0  0  0  0  0  0  0  0
   62.4220   33.0720   49.6380 N   0  0  0  0  0  0  0  0  0  0  0  0
   62.7560   31.6730   49.9380 C   0  0  0  0  0  0  0  0  0  0  0  0
   63.3770   31.5920   51.3360 C   0  0  0  0  0  0  0  0  0  0  0  0
   64.5970   32.4280   51.4690 N   0  0  0  0  0  0  0  0  0  0  0  0
   64.7660   32.8730   52.8610 C   0  0  0  0  0  0  0  0  0  0  0  0
   64.6690   33.5750   50.5270 C   0  0  0  0  0  0  0  0  0  0  0  0
   63.2870   34.1360   50.1600 C   0  0  0  0  0  0  0  0  0  0  0  0
   59.1440   32.4360   47.9310 C   0  0  0  0  0  0  0  0  0  0  0  0
   58.5120   31.5090   47.0960 C   0  0  0  0  0  0  0  0  0  0  0  0
   59.9255   28.2450   47.3207 H   0  0  0  0  0  0  0  0  0  0  0  0
   59.4547   26.5675   46.5497 H   0  0  0  0  0  0  0  0  0  0  0  0
   57.6398   26.0564   43.3586 H   0  0  0  0  0  0  0  0  0  0  0  0
   55.1510   27.4750   45.3950 H   0  0  0  0  0  0  0  0  0  0  0  0
   56.9108   28.6621   42.8500 H   0  0  0  0  0  0  0  0  0  0  0  0
   57.6067   32.0101   44.6206 H   0  0  0  0  0  0  0  0  0  0  0  0
   58.5853   31.5743   43.1787 H   0  0  0  0  0  0  0  0  0  0  0  0
   56.8112   31.2926   43.1787 H   0  0  0  0  0  0  0  0  0  0  0  0
   61.2770   29.9885   45.7750 H   0  0  0  0  0  0  0  0  0  0  0  0
   62.4035   31.6216   47.2835 H   0  0  0  0  0  0  0  0  0  0  0  0
   61.8422   31.0615   49.9053 H   0  0  0  0  0  0  0  0  0  0  0  0
   63.4723   31.2962   49.1931 H   0  0  0  0  0  0  0  0  0  0  0  0
   62.6340   31.9337   52.0717 H   0  0  0  0  0  0  0  0  0  0  0  0
   63.6696   30.5460   51.5101 H   0  0  0  0  0  0  0  0  0  0  0  0
   64.4597   32.0665   53.5435 H   0  0  0  0  0  0  0  0  0  0  0  0
   65.8220   33.1237   53.0402 H   0  0  0  0  0  0  0  0  0  0  0  0
   64.1427   33.7615   53.0402 H   0  0  0  0  0  0  0  0  0  0  0  0
   65.2600   34.3763   50.9945 H   0  0  0  0  0  0  0  0  0  0  0  0
   65.1340   33.2108   49.5990 H   0  0  0  0  0  0  0  0  0  0  0  0
   62.8234   34.5717   51.0573 H   0  0  0  0  0  0  0  0  0  0  0  0
   63.4105   34.9063   49.3845 H   0  0  0  0  0  0  0  0  0  0  0  0
   58.5408   33.1443   48.5178 H   0  0  0  0  0  0  0  0  0  0  0  0
   57.4138   31.4794   47.0413 H   0  0  0  0  0  0  0  0  0  0  0  0
  1  2  2  0
  2  3  1  0
  3  4  2  3
  4  5  1  0
  5  6  1  0
  6  7  1  0
  7  8  2  0
  7  9  1  0
  9 10  1  0
 10 11  1  0
  3 12  1  0
 12 13  2  0
 13 14  1  0
 13 15  1  0
 15 16  1  0
 16 17  2  0
 17 18  1  0
 18 19  2  0
 19 20  1  0
 20 21  2  0
 20 22  1  0
 22 23  1  0
 23 24  1  0
 24 25  1  0
 25 26  1  0
 25 27  1  0
 27 28  1  0
 19 29  1  0
 29 30  2  0
 15  2  1  0
 30 16  1  0
 10  5  2  0
 28 22  1  0
  1 31  1  0
  1 32  1  0
  4 33  1  0
 11 34  1  0
 12 35  1  0
 14 36  1  0
 14 37  1  0
 14 38  1  0
 17 39  1  0
 18 40  1  0
 23 41  1  0
 23 42  1  0
 24 43  1  0
 24 44  1  0
 26 45  1  0
 26 46  1  0
 26 47  1  0
 27 48  1  0
 27 49  1  0
 28 50  1  0
 28 51  1  0
 29 52  1  0
 30 53  1  0
M  CHG  2   6  -1   9  -1
M  END
>  <UniqueID>  (31) 
31

>  <SMILES>  (31) 
C=c1c(=Cc2[n-]c(=O)[n-]c2O)cc(C)n1-c1ccc(C(=O)N2CCN(C)CC2)cc1

>  <Energy>  (31) 
141.05392195050112

>  <Genealogy>  (31) 
C=c1c(=Cc2[n-]c(=O)[n-]c2O)cc(C)n1-c1ccc(C(=O)N2CCN(C)CC2)cc1 (protonated)
C=c1c(=Cc2[n-]c(=O)[n-]c2O)cc(C)n1-c1ccc(C(=O)N2CCN(C)CC2)cc1 (3D coordinates assigned)
C=c1c(=Cc2[n-]c(=O)[n-]c2O)cc(C)n1-c1ccc(C(=O)N2CCN(C)CC2)cc1 (nonaromatic ring conformer: 141.05392195050112 kcal/mol)

>  <smiles>  (31) 
C=c1c(=Cc2[nH]c(=O)[nH]c2O)cc(C)n1-c1ccc(C(=O)N2CCN(C)CC2)cc1

>  <score_type>  (31) 
oracle

>  <origin>  (31) 
adg

>  <m_score__min__energy>  (31) 
-12.720000000000001

>  <m_primary>  (31) 
energy

$$$$
31:0
     RDKit          3D

 55 58  0  0  0  0  0  0  0  0999 V2000
   55.1460   27.4670   45.3460 H   0  0  0  0  0  0  0  0  0  0  0  0
   55.0200   26.7030   46.0000 O   0  0  0  0  0  0  0  0  0  0  0  0
   56.0150   25.7520   46.2130 C   0  0  0  0  0  0  0  0  0  0  0  0
   55.9040   24.7580   47.1110 N   0  0  0  0  0  0  0  0  0  0  0  0
   57.1000   24.1380   47.0210 C   0  0  0  0  0  0  0  0  0  0  0  0
   57.3980   23.1350   47.7220 O   0  0  0  0  0  0  0  0  0  0  0  0
   57.9540   24.6800   46.1260 N   0  0  0  0  0  0  0  0  0  0  0  0
   57.2500   25.6960   45.5970 C   0  0  0  0  0  0  0  0  0  0  0  0
   57.8000   26.6230   44.5920 C   0  0  0  0  0  0  0  0  0  0  0  0
   57.8999   26.2631   43.5574 H   0  0  0  0  0  0  0  0  0  0  0  0
   58.1890   27.8880   44.8640 C   0  0  0  0  0  0  0  0  0  0  0  0
   57.7810   29.0110   44.1100 C   0  0  0  0  0  0  0  0  0  0  0  0
   57.0915   28.9423   43.2557 H   0  0  0  0  0  0  0  0  0  0  0  0
   58.3300   30.2090   44.5460 C   0  0  0  0  0  0  0  0  0  0  0  0
   58.1310   31.5460   43.9030 C   0  0  0  0  0  0  0  0  0  0  0  0
   59.0547   32.1351   44.0014 H   0  0  0  0  0  0  0  0  0  0  0  0
   57.8860   31.3949   42.8413 H   0  0  0  0  0  0  0  0  0  0  0  0
   57.0020   32.2870   44.5580 C   0  0  0  0  0  0  0  0  0  0  0  0
   55.9727   31.9195   44.4338 H   0  0  0  0  0  0  0  0  0  0  0  0
   57.2220   33.3870   45.2910 C   0  0  0  0  0  0  0  0  0  0  0  0
   56.4785   34.1964   45.2461 H   0  0  0  0  0  0  0  0  0  0  0  0
   58.4090   33.5770   46.1590 C   0  0  0  0  0  0  0  0  0  0  0  0
   58.4070   33.2460   47.5270 C   0  0  0  0  0  0  0  0  0  0  0  0
   57.4957   32.8379   47.9885 H   0  0  0  0  0  0  0  0  0  0  0  0
   59.5550   33.4320   48.3040 C   0  0  0  0  0  0  0  0  0  0  0  0
   59.5363   33.1721   49.3727 H   0  0  0  0  0  0  0  0  0  0  0  0
   60.7340   33.9480   47.7340 C   0  0  0  0  0  0  0  0  0  0  0  0
   61.9710   34.1560   48.5400 C   0  0  0  0  0  0  0  0  0  0  0  0
   61.8710   34.5800   49.7240 O   0  0  0  0  0  0  0  0  0  0  0  0
   63.3570   33.9300   47.9890 C   0  0  0  0  0  0  0  0  0  0  0  0
   63.4729   34.5176   47.0663 H   0  0  0  0  0  0  0  0  0  0  0  0
   64.0829   34.2442   48.7535 H   0  0  0  0  0  0  0  0  0  0  0  0
   63.6130   32.4490   47.6700 C   0  0  0  0  0  0  0  0  0  0  0  0
   63.3748   32.2662   46.6118 H   0  0  0  0  0  0  0  0  0  0  0  0
   64.6706   32.2314   47.8799 H   0  0  0  0  0  0  0  0  0  0  0  0
   62.7680   31.5390   48.5250 C   0  0  0  0  0  0  0  0  0  0  0  0
   63.0340   31.4050   49.8990 C   0  0  0  0  0  0  0  0  0  0  0  0
   63.8798   31.9455   50.3490 H   0  0  0  0  0  0  0  0  0  0  0  0
   62.2270   30.5870   50.6950 C   0  0  0  0  0  0  0  0  0  0  0  0
   62.4427   30.4808   51.7684 H   0  0  0  0  0  0  0  0  0  0  0  0
   61.1470   29.9040   50.1300 C   0  0  0  0  0  0  0  0  0  0  0  0
   60.5140   29.2600   50.7582 H   0  0  0  0  0  0  0  0  0  0  0  0
   60.8710   30.0390   48.7670 C   0  0  0  0  0  0  0  0  0  0  0  0
   60.0199   29.5017   48.3233 H   0  0  0  0  0  0  0  0  0  0  0  0
   61.6750   30.8560   47.9660 C   0  0  0  0  0  0  0  0  0  0  0  0
   61.4508   30.9643   46.8945 H   0  0  0  0  0  0  0  0  0  0  0  0
   60.7330   34.2640   46.3630 C   0  0  0  0  0  0  0  0  0  0  0  0
   61.6451   34.6658   45.8976 H   0  0  0  0  0  0  0  0  0  0  0  0
   59.5890   34.0740   45.5860 C   0  0  0  0  0  0  0  0  0  0  0  0
   59.6131   34.3165   44.5133 H   0  0  0  0  0  0  0  0  0  0  0  0
   59.3450   29.9030   45.8460 S   0  0  0  0  0  0  0  0  0  0  0  0
   59.0870   28.2410   45.8910 C   0  0  0  0  0  0  0  0  0  0  0  0
   59.6690   27.4410   46.7910 C   0  0  0  0  0  0  0  0  0  0  0  0
   59.4670   26.3598   46.7778 H   0  0  0  0  0  0  0  0  0  0  0  0
   60.3496   27.8642   47.5444 H   0  0  0  0  0  0  0  0  0  0  0  0
  1  2  1  0
  2  3  1  0
  3  4  1  0
  4  5  1  0
  5  6  2  0
  5  7  1  0
  7  8  1  0
  8  9  1  0
  9 10  1  0
  9 11  2  0
 11 12  1  0
 12 13  1  0
 12 14  2  0
 14 15  1  0
 15 16  1  0
 15 17  1  0
 15 18  1  0
 18 19  1  0
 18 20  2  3
 20 21  1  0
 20 22  1  0
 22 23  2  0
 23 24  1  0
 23 25  1  0
 25 26  1  0
 25 27  2  0
 27 28  1  0
 28 29  2  0
 28 30  1  0
 30 31  1  0
 30 32  1  0
 30 33  1  0
 33 34  1  0
 33 35  1  0
 33 36  1  0
 36 37  2  0
 37 38  1  0
 37 39  1  0
 39 40  1  0
 39 41  2  0
 41 42  1  0
 41 43  1  0
 43 44  1  0
 43 45  2  0
 45 46  1  0
 27 47  1  0
 47 48  1  0
 47 49  2  0
 49 50  1  0
 14 51  1  0
 51 52  1  0
 52 53  2  0
 53 54  1  0
 53 55  1  0
  8  3  2  0
 52 11  1  0
 49 22  1  0
 45 36  1  0
M  CHG  2   4  -1   7  -1
M  END
>  <UniqueID>  (32) 
32

>  <SMILES>  (32) 
C=c1sc(CC=Cc2ccc(C(=O)CCc3ccccc3)cc2)c/c1=C\c1[n-]c(=O)[n-]c1O

>  <Energy>  (32) 
121.11294430308976

>  <Genealogy>  (32) 
C=c1sc(CC=Cc2ccc(C(=O)CCc3ccccc3)cc2)cc1=Cc1[n-]c(=O)[n-]c1O (protonated)
C=c1sc(CC=Cc2ccc(C(=O)CCc3ccccc3)cc2)c/c1=C\c1[n-]c(=O)[n-]c1O (cis-trans isomerization)
C=c1sc(CC=Cc2ccc(C(=O)CCc3ccccc3)cc2)c/c1=C\c1[n-]c(=O)[n-]c1O (3D coordinates assigned)
C=c1sc(CC=Cc2ccc(C(=O)CCc3ccccc3)cc2)c/c1=C\c1[n-]c(=O)[n-]c1O (optimized conformer: 121.11294430308976 kcal/mol)

>  <smiles>  (32) 
C=c1sc(CC=Cc2ccc(C(=O)CCc3ccccc3)cc2)cc1=Cc1[nH]c(=O)[nH]c1O

>  <score_type>  (32) 
oracle

>  <origin>  (32) 
adg

>  <m_score__min__energy>  (32) 
-15.220000000000001

>  <m_primary>  (32) 
energy

$$$$
32:0
     RDKit          3D

 67 71  0  0  0  0  0  0  0  0999 V2000
   58.8300   25.1250   46.2150 C   0  0  0  0  0  0  0  0  0  0  0  0
   57.6940   25.8350   46.2650 C   0  0  0  0  0  0  0  0  0  0  0  0
   57.5170   27.0760   45.6790 C   0  0  0  0  0  0  0  0  0  0  0  0
   58.5700   27.9720   45.1680 C   0  0  0  0  0  0  0  0  0  0  0  0
   59.5060   27.5020   44.4690 O   0  0  0  0  0  0  0  0  0  0  0  0
   58.5750   29.3630   45.5240 N   0  0  0  0  0  0  0  0  0  0  0  0
   58.9100   29.8470   46.8340 C   0  0  0  0  0  0  0  0  0  0  0  0
   59.4660   28.9680   47.7790 C   0  0  0  0  0  0  0  0  0  0  0  0
   59.7680   29.4010   49.0720 C   0  0  0  0  0  0  0  0  0  0  0  0
   60.4440   28.2590   50.2290 S   0  0  0  0  0  0  0  0  0  0  0  0
   59.6120   28.3050   51.4810 O   0  0  0  0  0  0  0  0  0  0  0  0
   60.3950   26.8650   49.6660 O   0  0  0  0  0  0  0  0  0  0  0  0
   62.0960   28.7220   50.5790 N   0  0  0  0  0  0  0  0  0  0  0  0
   62.6040   28.0680   51.8060 C   0  0  0  0  0  0  0  0  0  0  0  0
   62.5430   28.9870   53.0390 C   0  0  0  0  0  0  0  0  0  0  0  0
   61.4480   29.8710   52.9410 O   0  0  0  0  0  0  0  0  0  0  0  0
   61.6710   30.8110   51.9040 C   0  0  0  0  0  0  0  0  0  0  0  0
   62.2570   30.1860   50.6160 C   0  0  0  0  0  0  0  0  0  0  0  0
   59.5000   30.7230   49.4370 C   0  0  0  0  0  0  0  0  0  0  0  0
   58.9240   31.6000   48.5190 C   0  0  0  0  0  0  0  0  0  0  0  0
   58.6100   31.1750   47.2130 C   0  0  0  0  0  0  0  0  0  0  0  0
   58.0530   32.1180   46.2700 N   0  0  0  0  0  0  0  0  0  0  0  0
   58.4580   32.0720   44.8610 C   0  0  0  0  0  0  0  0  0  0  0  0
   58.5320   33.4890   44.2640 C   0  0  0  0  0  0  0  0  0  0  0  0
   59.0230   34.4720   45.2510 N   0  0  0  0  0  0  0  0  0  0  0  0
   60.4260   34.2240   45.6200 C   0  0  0  0  0  0  0  0  0  0  0  0
   58.1440   34.5790   46.4450 C   0  0  0  0  0  0  0  0  0  0  0  0
   57.3240   33.3030   46.7280 C   0  0  0  0  0  0  0  0  0  0  0  0
   56.1660   27.3320   45.7260 C   0  0  0  0  0  0  0  0  0  0  0  0
   55.5470   28.4630   45.2090 O   0  0  0  0  0  0  0  0  0  0  0  0
   55.4960   26.3490   46.3590 N   0  0  0  0  0  0  0  0  0  0  0  0
   56.4280   25.4410   46.7260 C   0  0  0  0  0  0  0  0  0  0  0  0
   56.0920   24.3660   47.4650 C   0  0  0  0  0  0  0  0  0  0  0  0
   55.5140   23.1150   46.9300 C   0  0  0  0  0  0  0  0  0  0  0  0
   56.1660   21.8900   47.1320 C   0  0  0  0  0  0  0  0  0  0  0  0
   57.3600   21.8320   47.8420 O   0  0  0  0  0  0  0  0  0  0  0  0
   55.6240   20.7420   46.6460 N   0  0  0  0  0  0  0  0  0  0  0  0
   54.4610   20.7580   45.9470 C   0  0  0  0  0  0  0  0  0  0  0  0
   53.9730   19.6820   45.5150 O   0  0  0  0  0  0  0  0  0  0  0  0
   53.8250   21.9350   45.7100 N   0  0  0  0  0  0  0  0  0  0  0  0
   54.3280   23.1100   46.1720 C   0  0  0  0  0  0  0  0  0  0  0  0
   53.7220   24.1850   45.9160 O   0  0  0  0  0  0  0  0  0  0  0  0
   58.8876   24.1438   46.7090 H   0  0  0  0  0  0  0  0  0  0  0  0
   59.7046   25.5236   45.6800 H   0  0  0  0  0  0  0  0  0  0  0  0
   59.6662   27.9240   47.4963 H   0  0  0  0  0  0  0  0  0  0  0  0
   61.9968   27.1725   52.0044 H   0  0  0  0  0  0  0  0  0  0  0  0
   63.6603   27.8139   51.6335 H   0  0  0  0  0  0  0  0  0  0  0  0
   62.4321   28.3719   53.9442 H   0  0  0  0  0  0  0  0  0  0  0  0
   63.4715   29.5744   53.0920 H   0  0  0  0  0  0  0  0  0  0  0  0
   60.7113   31.2869   51.6539 H   0  0  0  0  0  0  0  0  0  0  0  0
   62.4118   31.5332   52.2776 H   0  0  0  0  0  0  0  0  0  0  0  0
   61.7417   30.6202   49.7465 H   0  0  0  0  0  0  0  0  0  0  0  0
   63.3347   30.4056   50.5968 H   0  0  0  0  0  0  0  0  0  0  0  0
   59.7441   31.0725   50.4510 H   0  0  0  0  0  0  0  0  0  0  0  0
   58.7120   32.6371   48.8182 H   0  0  0  0  0  0  0  0  0  0  0  0
   59.4476   31.5975   44.7860 H   0  0  0  0  0  0  0  0  0  0  0  0
   57.7105   31.4926   44.2993 H   0  0  0  0  0  0  0  0  0  0  0  0
   59.2152   33.4775   43.4019 H   0  0  0  0  0  0  0  0  0  0  0  0
   57.5178   33.7863   43.9589 H   0  0  0  0  0  0  0  0  0  0  0  0
   60.5195   34.2075   46.7159 H   0  0  0  0  0  0  0  0  0  0  0  0
   60.7472   33.2551   45.2099 H   0  0  0  0  0  0  0  0  0  0  0  0
   61.0599   35.0240   45.2099 H   0  0  0  0  0  0  0  0  0  0  0  0
   58.7738   34.7887   47.3222 H   0  0  0  0  0  0  0  0  0  0  0  0
   57.4239   35.3856   46.2428 H   0  0  0  0  0  0  0  0  0  0  0  0
   57.1418   33.2213   47.8097 H   0  0  0  0  0  0  0  0  0  0  0  0
   56.3676   33.3654   46.1883 H   0  0  0  0  0  0  0  0  0  0  0  0
   56.2608   24.4235   48.5505 H   0  0  0  0  0  0  0  0  0  0  0  0
  1  2  2  0
  2  3  1  0
  3  4  1  0
  4  5  2  0
  4  6  1  0
  6  7  1  0
  7  8  2  0
  8  9  1  0
  9 10  1  0
 10 11  2  0
 10 12  2  0
 10 13  1  0
 13 14  1  0
 14 15  1  0
 15 16  1  0
 16 17  1  0
 17 18  1  0
  9 19  2  0
 19 20  1  0
 20 21  2  0
 21 22  1  0
 22 23  1  0
 23 24  1  0
 24 25  1  0
 25 26  1  0
 25 27  1  0
 27 28  1  0
  3 29  2  0
 29 30  1  0
 29 31  1  0
 31 32  1  0
 32 33  2  3
 33 34  1  0
 34 35  2  0
 35 36  1  0
 35 37  1  0
 37 38  1  0
 38 39  2  0
 38 40  1  0
 40 41  1  0
 41 42  2  0
 32  2  1  0
 41 34  1  0
 21  7  1  0
 28 22  1  0
 18 13  1  0
  1 43  1  0
  1 44  1  0
  8 45  1  0
 14 46  1  0
 14 47  1  0
 15 48  1  0
 15 49  1  0
 17 50  1  0
 17 51  1  0
 18 52  1  0
 18 53  1  0
 19 54  1  0
 20 55  1  0
 23 56  1  0
 23 57  1  0
 24 58  1  0
 24 59  1  0
 26 60  1  0
 26 61  1  0
 26 62  1  0
 27 63  1  0
 27 64  1  0
 28 65  1  0
 28 66  1  0
 33 67  1  0
M  CHG  6   6  -1  30  -1  31  -1  36  -1  37  -1  40  -1
M  END
>  <UniqueID>  (33) 
33

>  <SMILES>  (33) 
C=c1c(C(=O)[N-]c2cc(S(=O)(=O)N3CCOCC3)ccc2N2CCN(C)CC2)c([O-])[n-]c1=Cc1c([O-])[n-]c(=O)[n-]c1=O

>  <Energy>  (33) 
147.41395431367891

>  <Genealogy>  (33) 
C=c1c(C(=O)[N-]c2cc(S(=O)(=O)N3CCOCC3)ccc2N2CCN(C)CC2)c([O-])[n-]c1=Cc1c([O-])[n-]c(=O)[n-]c1=O (protonated)
C=c1c(C(=O)[N-]c2cc(S(=O)(=O)N3CCOCC3)ccc2N2CCN(C)CC2)c([O-])[n-]c1=Cc1c([O-])[n-]c(=O)[n-]c1=O (3D coordinates assigned)
C=c1c(C(=O)[N-]c2cc(S(=O)(=O)N3CCOCC3)ccc2N2CCN(C)CC2)c([O-])[n-]c1=Cc1c([O-])[n-]c(=O)[n-]c1=O (nonaromatic ring conformer: 147.41395431367891 kcal/mol)

>  <smiles>  (33) 
C=c1c(C(=O)Nc2cc(S(=O)(=O)N3CCOCC3)ccc2N2CCN(C)CC2)c(O)[nH]c1=Cc1c(O)[nH]c(=O)[nH]c1=O

>  <score_type>  (33) 
oracle

>  <origin>  (33) 
adg

>  <m_score__min__energy>  (33) 
-20.309999999999999

>  <m_primary>  (33) 
energy

$$$$
33:0
     RDKit          3D

 45 47  0  0  0  0  0  0  0  0999 V2000
   54.7740   28.3690   52.6470 C   0  0  0  0  0  0  0  0  0  0  0  0
   55.1550   29.6550   52.6460 C   0  0  0  0  0  0  0  0  0  0  0  0
   54.3370   30.7840   52.4710 C   0  0  0  0  0  0  0  0  0  0  0  0
   52.9960   30.9100   52.4520 C   0  0  0  0  0  0  0  0  0  0  0  0
   52.1560   30.9700   51.2470 C   0  0  0  0  0  0  0  0  0  0  0  0
   52.2400   30.0870   50.2370 N   0  0  0  0  0  0  0  0  0  0  0  0
   51.3970   30.5930   49.3090 C   0  0  0  0  0  0  0  0  0  0  0  0
   51.1890   30.0280   48.2050 O   0  0  0  0  0  0  0  0  0  0  0  0
   50.8070   31.7570   49.6530 N   0  0  0  0  0  0  0  0  0  0  0  0
   51.3080   31.9900   50.8770 C   0  0  0  0  0  0  0  0  0  0  0  0
   51.0200   33.1250   51.6260 O   0  0  0  0  0  0  0  0  0  0  0  0
   55.1940   31.8610   52.3120 C   0  0  0  0  0  0  0  0  0  0  0  0
   56.4760   31.3800   52.4630 C   0  0  0  0  0  0  0  0  0  0  0  0
   57.7130   32.2240   52.3920 C   0  0  0  0  0  0  0  0  0  0  0  0
   56.4560   30.0430   52.6570 N   0  0  0  0  0  0  0  0  0  0  0  0
   57.6100   29.2030   52.8320 C   0  0  0  0  0  0  0  0  0  0  0  0
   57.6190   28.3550   53.7650 O   0  0  0  0  0  0  0  0  0  0  0  0
   58.7570   29.3370   51.9720 N   0  0  0  0  0  0  0  0  0  0  0  0
   58.5780   29.6540   50.5480 C   0  0  0  0  0  0  0  0  0  0  0  0
   59.7340   30.5230   49.9990 C   0  0  0  0  0  0  0  0  0  0  0  0
   60.8880   30.5920   50.9190 N   0  0  0  0  0  0  0  0  0  0  0  0
   62.2900   31.1960   50.0710 S   0  0  0  0  0  0  0  0  0  0  0  0
   62.4260   32.9600   50.2760 C   0  0  0  0  0  0  0  0  0  0  0  0
   63.5280   30.5560   50.6350 O   0  0  0  0  0  0  0  0  0  0  0  0
   62.1910   30.8740   48.6060 O   0  0  0  0  0  0  0  0  0  0  0  0
   61.1810   29.2690   51.4840 C   0  0  0  0  0  0  0  0  0  0  0  0
   60.0680   28.8910   52.4630 C   0  0  0  0  0  0  0  0  0  0  0  0
   55.5200   27.5745   52.7959 H   0  0  0  0  0  0  0  0  0  0  0  0
   53.7155   28.1088   52.4989 H   0  0  0  0  0  0  0  0  0  0  0  0
   52.4844   30.9736   53.4237 H   0  0  0  0  0  0  0  0  0  0  0  0
   54.9056   32.9021   52.1046 H   0  0  0  0  0  0  0  0  0  0  0  0
   58.0561   32.4581   53.4106 H   0  0  0  0  0  0  0  0  0  0  0  0
   58.5015   31.6747   51.8567 H   0  0  0  0  0  0  0  0  0  0  0  0
   57.4891   33.1585   51.8567 H   0  0  0  0  0  0  0  0  0  0  0  0
   58.5377   28.7146   49.9772 H   0  0  0  0  0  0  0  0  0  0  0  0
   57.6434   30.2243   50.4413 H   0  0  0  0  0  0  0  0  0  0  0  0
   60.0718   30.0950   49.0436 H   0  0  0  0  0  0  0  0  0  0  0  0
   59.3484   31.5458   49.8756 H   0  0  0  0  0  0  0  0  0  0  0  0
   62.4448   33.2041   51.3484 H   0  0  0  0  0  0  0  0  0  0  0  0
   63.3541   33.3136   49.8031 H   0  0  0  0  0  0  0  0  0  0  0  0
   61.5631   33.4517   49.8031 H   0  0  0  0  0  0  0  0  0  0  0  0
   61.2301   28.5248   50.6755 H   0  0  0  0  0  0  0  0  0  0  0  0
   62.1471   29.2936   52.0094 H   0  0  0  0  0  0  0  0  0  0  0  0
   60.0529   27.7979   52.5850 H   0  0  0  0  0  0  0  0  0  0  0  0
   60.2669   29.3850   53.4255 H   0  0  0  0  0  0  0  0  0  0  0  0
  1  2  2  0
  2  3  1  0
  3  4  2  3
  4  5  1  0
  5  6  1  0
  6  7  1  0
  7  8  2  0
  7  9  1  0
  9 10  1  0
 10 11  1  0
  3 12  1  0
 12 13  2  0
 13 14  1  0
 13 15  1  0
 15 16  1  0
 16 17  2  0
 16 18  1  0
 18 19  1  0
 19 20  1  0
 20 21  1  0
 21 22  1  0
 22 23  1  0
 22 24  2  0
 22 25  2  0
 21 26  1  0
 26 27  1  0
 15  2  1  0
 27 18  1  0
 10  5  2  0
  1 28  1  0
  1 29  1  0
  4 30  1  0
 12 31  1  0
 14 32  1  0
 14 33  1  0
 14 34  1  0
 19 35  1  0
 19 36  1  0
 20 37  1  0
 20 38  1  0
 23 39  1  0
 23 40  1  0
 23 41  1  0
 26 42  1  0
 26 43  1  0
 27 44  1  0
 27 45  1  0
M  CHG  3   6  -1   9  -1  11  -1
M  END
>  <UniqueID>  (34) 
34

>  <SMILES>  (34) 
C=c1c(=Cc2[n-]c(=O)[n-]c2[O-])cc(C)n1C(=O)N1CCN(S(C)(=O)=O)CC1

>  <Energy>  (34) 
119.56287624917894

>  <Genealogy>  (34) 
C=c1c(=Cc2[n-]c(=O)[n-]c2[O-])cc(C)n1C(=O)N1CCN(S(C)(=O)=O)CC1 (protonated)
C=c1c(=Cc2[n-]c(=O)[n-]c2[O-])cc(C)n1C(=O)N1CCN(S(C)(=O)=O)CC1 (3D coordinates assigned)
C=c1c(=Cc2[n-]c(=O)[n-]c2[O-])cc(C)n1C(=O)N1CCN(S(C)(=O)=O)CC1 (nonaromatic ring conformer: 119.56287624917894 kcal/mol)

>  <smiles>  (34) 
C=c1c(=Cc2[nH]c(=O)[nH]c2O)cc(C)n1C(=O)N1CCN(S(C)(=O)=O)CC1

>  <score_type>  (34) 
oracle

>  <origin>  (34) 
adg

>  <m_score__min__energy>  (34) 
-15.66

>  <m_primary>  (34) 
energy

$$$$
34:0
     RDKit          3D

 48 51  0  0  0  0  0  0  0  0999 V2000
   55.7062   27.7348   52.8536 H   0  0  0  0  0  0  0  0  0  0  0  0
   54.9450   28.5220   52.7490 C   0  0  0  0  0  0  0  0  0  0  0  0
   53.8770   28.2666   52.8142 H   0  0  0  0  0  0  0  0  0  0  0  0
   55.3190   29.7930   52.5420 C   0  0  0  0  0  0  0  0  0  0  0  0
   54.4920   30.9070   52.3880 C   0  0  0  0  0  0  0  0  0  0  0  0
   53.1470   30.9250   52.3900 C   0  0  0  0  0  0  0  0  0  0  0  0
   52.6309   30.8462   53.3582 H   0  0  0  0  0  0  0  0  0  0  0  0
   52.3220   31.0440   51.1730 C   0  0  0  0  0  0  0  0  0  0  0  0
   52.3190   30.1140   50.2010 N   0  0  0  0  0  0  0  0  0  0  0  0
   51.4040   30.5750   49.3230 C   0  0  0  0  0  0  0  0  0  0  0  0
   51.1240   29.9700   48.2560 O   0  0  0  0  0  0  0  0  0  0  0  0
   50.8040   31.7290   49.6830 N   0  0  0  0  0  0  0  0  0  0  0  0
   51.3870   32.0100   50.8600 C   0  0  0  0  0  0  0  0  0  0  0  0
   51.0290   33.0970   51.6470 O   0  0  0  0  0  0  0  0  0  0  0  0
   55.2560   32.0010   52.1730 N   0  0  0  0  0  0  0  0  0  0  0  0
   56.5200   31.5360   52.2130 C   0  0  0  0  0  0  0  0  0  0  0  0
   57.5240   32.2760   52.0430 O   0  0  0  0  0  0  0  0  0  0  0  0
   56.6020   30.2080   52.4410 N   0  0  0  0  0  0  0  0  0  0  0  0
   57.8280   29.4010   52.4990 C   0  0  0  0  0  0  0  0  0  0  0  0
   58.4121   29.6930   53.3842 H   0  0  0  0  0  0  0  0  0  0  0  0
   57.5518   28.3380   52.5608 H   0  0  0  0  0  0  0  0  0  0  0  0
   58.6600   29.6170   51.2630 C   0  0  0  0  0  0  0  0  0  0  0  0
   58.1660   29.3290   50.1390 O   0  0  0  0  0  0  0  0  0  0  0  0
   59.9930   30.1630   51.3350 N   0  0  0  0  0  0  0  0  0  0  0  0
   60.9350   29.8770   50.2430 C   0  0  0  0  0  0  0  0  0  0  0  0
   60.8223   28.8254   49.9407 H   0  0  0  0  0  0  0  0  0  0  0  0
   60.7067   30.5533   49.4061 H   0  0  0  0  0  0  0  0  0  0  0  0
   62.3850   30.1180   50.6710 C   0  0  0  0  0  0  0  0  0  0  0  0
   62.6765   29.3505   51.4031 H   0  0  0  0  0  0  0  0  0  0  0  0
   63.0278   30.0635   49.7800 H   0  0  0  0  0  0  0  0  0  0  0  0
   62.5390   31.4470   51.2800 N   0  0  0  0  0  0  0  0  0  0  0  0
   63.7960   32.1530   51.1760 C   0  0  0  0  0  0  0  0  0  0  0  0
   63.9270   33.4650   51.6710 C   0  0  0  0  0  0  0  0  0  0  0  0
   63.0650   33.9579   52.1443 H   0  0  0  0  0  0  0  0  0  0  0  0
   65.1430   34.1460   51.5660 C   0  0  0  0  0  0  0  0  0  0  0  0
   65.2346   35.1700   51.9572 H   0  0  0  0  0  0  0  0  0  0  0  0
   66.2420   33.5280   50.9650 C   0  0  0  0  0  0  0  0  0  0  0  0
   67.4210   34.1900   50.8640 F   0  0  0  0  0  0  0  0  0  0  0  0
   66.1260   32.2290   50.4670 C   0  0  0  0  0  0  0  0  0  0  0  0
   66.9920   31.7435   49.9933 H   0  0  0  0  0  0  0  0  0  0  0  0
   64.9120   31.5440   50.5690 C   0  0  0  0  0  0  0  0  0  0  0  0
   64.8273   30.5215   50.1723 H   0  0  0  0  0  0  0  0  0  0  0  0
   61.4420   32.0230   52.0740 C   0  0  0  0  0  0  0  0  0  0  0  0
   61.8624   32.4891   52.9773 H   0  0  0  0  0  0  0  0  0  0  0  0
   60.9224   32.7666   51.4519 H   0  0  0  0  0  0  0  0  0  0  0  0
   60.4250   30.9570   52.4930 C   0  0  0  0  0  0  0  0  0  0  0  0
   60.8874   30.2897   53.2353 H   0  0  0  0  0  0  0  0  0  0  0  0
   59.5459   31.4589   52.9235 H   0  0  0  0  0  0  0  0  0  0  0  0
  1  2  1  0
  2  3  1  0
  2  4  2  0
  4  5  1  0
  5  6  2  0
  6  7  1  0
  6  8  1  0
  8  9  1  0
  9 10  1  0
 10 11  2  0
 10 12  1  0
 12 13  1  0
 13 14  1  0
  5 15  1  0
 15 16  1  0
 16 17  2  0
 16 18  1  0
 18 19  1  0
 19 20  1  0
 19 21  1  0
 19 22  1  0
 22 23  2  0
 22 24  1  0
 24 25  1  0
 25 26  1  0
 25 27  1  0
 25 28  1  0
 28 29  1  0
 28 30  1  0
 28 31  1  0
 31 32  1  0
 32 33  2  0
 33 34  1  0
 33 35  1  0
 35 36  1  0
 35 37  2  0
 37 38  1  0
 37 39  1  0
 39 40  1  0
 39 41  2  0
 41 42  1  0
 31 43  1  0
 43 44  1  0
 43 45  1  0
 43 46  1  0
 46 47  1  0
 46 48  1  0
 18  4  1  0
 46 24  1  0
 13  8  2  0
 41 32  1  0
M  CHG  4   9  -1  12  -1  14  -1  15  -1
M  END
>  <UniqueID>  (35) 
35

>  <SMILES>  (35) 
C=c1/c(=C/c2[n-]c(=O)[n-]c2[O-])[n-]c(=O)n1CC(=O)N1CCN(c2ccc(F)cc2)CC1

>  <Energy>  (35) 
122.94298968597852

>  <Genealogy>  (35) 
C=c1c(=Cc2[n-]c(=O)[n-]c2[O-])[n-]c(=O)n1CC(=O)N1CCN(c2ccc(F)cc2)CC1 (protonated)
C=c1/c(=C/c2[n-]c(=O)[n-]c2[O-])[n-]c(=O)n1CC(=O)N1CCN(c2ccc(F)cc2)CC1 (cis-trans isomerization)
C=c1/c(=C/c2[n-]c(=O)[n-]c2[O-])[n-]c(=O)n1CC(=O)N1CCN(c2ccc(F)cc2)CC1 (3D coordinates assigned)
C=c1/c(=C/c2[n-]c(=O)[n-]c2[O-])[n-]c(=O)n1CC(=O)N1CCN(c2ccc(F)cc2)CC1 (nonaromatic ring conformer: 122.94298968597852 kcal/mol)

>  <smiles>  (35) 
C=c1c(=Cc2[nH]c(=O)[nH]c2O)[nH]c(=O)n1CC(=O)N1CCN(c2ccc(F)cc2)CC1

>  <score_type>  (35) 
oracle

>  <origin>  (35) 
adg

>  <m_score__min__energy>  (35) 
-18.350000000000001

>  <m_primary>  (35) 
energy

$$$$
35:0
     RDKit          3D

 57 61  0  0  0  0  0  0  0  0999 V2000
   57.2890   30.9920   43.3730 C   0  0  0  0  0  0  0  0  0  0  0  0
   57.5180   30.1790   44.4050 C   0  0  0  0  0  0  0  0  0  0  0  0
   57.2060   28.5270   44.3800 S   0  0  0  0  0  0  0  0  0  0  0  0
   57.7680   28.2710   45.9500 C   0  0  0  0  0  0  0  0  0  0  0  0
   57.7660   27.1100   46.6220 C   0  0  0  0  0  0  0  0  0  0  0  0
   57.0750   25.8990   46.1580 C   0  0  0  0  0  0  0  0  0  0  0  0
   57.8590   24.5030   45.6330 S   0  0  0  0  0  0  0  0  0  0  0  0
   56.4180   23.7370   45.2460 C   0  0  0  0  0  0  0  0  0  0  0  0
   56.3370   22.5690   44.7840 O   0  0  0  0  0  0  0  0  0  0  0  0
   55.3380   24.5130   45.4760 N   0  0  0  0  0  0  0  0  0  0  0  0
   55.7050   25.7240   45.9730 C   0  0  0  0  0  0  0  0  0  0  0  0
   54.7670   26.7160   46.2330 O   0  0  0  0  0  0  0  0  0  0  0  0
   58.1810   29.5040   46.4580 C   0  0  0  0  0  0  0  0  0  0  0  0
   58.6400   29.6460   47.6260 O   0  0  0  0  0  0  0  0  0  0  0  0
   58.0440   30.5590   45.6010 N   0  0  0  0  0  0  0  0  0  0  0  0
   58.4220   31.9020   45.9430 C   0  0  0  0  0  0  0  0  0  0  0  0
   57.4910   32.9410   45.8550 C   0  0  0  0  0  0  0  0  0  0  0  0
   57.8670   34.2480   46.1690 C   0  0  0  0  0  0  0  0  0  0  0  0
   59.1780   34.5280   46.5570 C   0  0  0  0  0  0  0  0  0  0  0  0
   60.1320   33.4970   46.6300 C   0  0  0  0  0  0  0  0  0  0  0  0
   61.5350   33.7940   46.9970 C   0  0  0  0  0  0  0  0  0  0  0  0
   62.2050   34.5930   46.2890 O   0  0  0  0  0  0  0  0  0  0  0  0
   62.1450   33.1890   48.1530 N   0  0  0  0  0  0  0  0  0  0  0  0
   63.5820   32.8920   48.1390 C   0  0  0  0  0  0  0  0  0  0  0  0
   63.8780   31.6540   48.9900 C   0  0  0  0  0  0  0  0  0  0  0  0
   63.2000   31.7650   50.2880 N   0  0  0  0  0  0  0  0  0  0  0  0
   63.9300   31.6840   51.5260 C   0  0  0  0  0  0  0  0  0  0  0  0
   63.5760   32.3980   52.5040 O   0  0  0  0  0  0  0  0  0  0  0  0
   65.0760   30.7630   51.6900 C   0  0  0  0  0  0  0  0  0  0  0  0
   64.8600   29.4140   52.0090 C   0  0  0  0  0  0  0  0  0  0  0  0
   65.9430   28.5400   52.1570 C   0  0  0  0  0  0  0  0  0  0  0  0
   67.2470   29.0050   51.9760 C   0  0  0  0  0  0  0  0  0  0  0  0
   67.4730   30.3420   51.6390 C   0  0  0  0  0  0  0  0  0  0  0  0
   66.3930   31.2200   51.4980 C   0  0  0  0  0  0  0  0  0  0  0  0
   61.7600   32.0310   50.2810 C   0  0  0  0  0  0  0  0  0  0  0  0
   61.4790   33.2890   49.4590 C   0  0  0  0  0  0  0  0  0  0  0  0
   59.7390   32.1780   46.3400 C   0  0  0  0  0  0  0  0  0  0  0  0
   57.5165   32.0649   43.4570 H   0  0  0  0  0  0  0  0  0  0  0  0
   56.8726   30.5897   42.4377 H   0  0  0  0  0  0  0  0  0  0  0  0
   58.3130   27.0617   47.5751 H   0  0  0  0  0  0  0  0  0  0  0  0
   56.4596   32.7281   45.5375 H   0  0  0  0  0  0  0  0  0  0  0  0
   57.1274   35.0602   46.1104 H   0  0  0  0  0  0  0  0  0  0  0  0
   59.4666   35.5597   46.8069 H   0  0  0  0  0  0  0  0  0  0  0  0
   63.9038   32.7059   47.1037 H   0  0  0  0  0  0  0  0  0  0  0  0
   64.1286   33.7510   48.5554 H   0  0  0  0  0  0  0  0  0  0  0  0
   63.5174   30.7566   48.4659 H   0  0  0  0  0  0  0  0  0  0  0  0
   64.9631   31.5786   49.1539 H   0  0  0  0  0  0  0  0  0  0  0  0
   63.8339   29.0412   52.1435 H   0  0  0  0  0  0  0  0  0  0  0  0
   65.7667   27.4856   52.4162 H   0  0  0  0  0  0  0  0  0  0  0  0
   68.0973   28.3181   52.0988 H   0  0  0  0  0  0  0  0  0  0  0  0
   68.5001   30.7042   51.4846 H   0  0  0  0  0  0  0  0  0  0  0  0
   66.5742   32.2728   51.2358 H   0  0  0  0  0  0  0  0  0  0  0  0
   61.2312   31.1757   49.8351 H   0  0  0  0  0  0  0  0  0  0  0  0
   61.4094   32.1809   51.3128 H   0  0  0  0  0  0  0  0  0  0  0  0
   60.3942   33.3924   49.3088 H   0  0  0  0  0  0  0  0  0  0  0  0
   61.8640   34.1679   49.9968 H   0  0  0  0  0  0  0  0  0  0  0  0
   60.4680   31.3586   46.4249 H   0  0  0  0  0  0  0  0  0  0  0  0
  1  2  2  0
  2  3  1  0
  3  4  1  0
  4  5  2  3
  5  6  1  0
  6  7  1  0
  7  8  1  0
  8  9  2  0
  8 10  1  0
 10 11  1  0
 11 12  1  0
  4 13  1  0
 13 14  2  0
 13 15  1  0
 15 16  1  0
 16 17  2  0
 17 18  1  0
 18 19  2  0
 19 20  1  0
 20 21  1  0
 21 22  2  0
 21 23  1  0
 23 24  1  0
 24 25  1  0
 25 26  1  0
 26 27  1  0
 27 28  2  0
 27 29  1  0
 29 30  2  0
 30 31  1  0
 31 32  2  0
 32 33  1  0
 33 34  2  0
 26 35  1  0
 35 36  1  0
 20 37  2  0
 15  2  1  0
 37 16  1  0
 11  6  2  0
 36 23  1  0
 34 29  1  0
  1 38  1  0
  1 39  1  0
  5 40  1  0
 17 41  1  0
 18 42  1  0
 19 43  1  0
 24 44  1  0
 24 45  1  0
 25 46  1  0
 25 47  1  0
 30 48  1  0
 31 49  1  0
 32 50  1  0
 33 51  1  0
 34 52  1  0
 35 53  1  0
 35 54  1  0
 36 55  1  0
 36 56  1  0
 37 57  1  0
M  CHG  2  10  -1  12  -1
M  END
>  <UniqueID>  (36) 
36

>  <SMILES>  (36) 
C=c1sc(=Cc2sc(=O)[n-]c2[O-])c(=O)n1-c1cccc(C(=O)N2CCN(C(=O)c3ccccc3)CC2)c1

>  <Energy>  (36) 
148.48133531581578

>  <Genealogy>  (36) 
C=c1sc(=Cc2sc(=O)[n-]c2[O-])c(=O)n1-c1cccc(C(=O)N2CCN(C(=O)c3ccccc3)CC2)c1 (protonated)
C=c1sc(=Cc2sc(=O)[n-]c2[O-])c(=O)n1-c1cccc(C(=O)N2CCN(C(=O)c3ccccc3)CC2)c1 (3D coordinates assigned)
C=c1sc(=Cc2sc(=O)[n-]c2[O-])c(=O)n1-c1cccc(C(=O)N2CCN(C(=O)c3ccccc3)CC2)c1 (nonaromatic ring conformer: 148.48133531581578 kcal/mol)

>  <smiles>  (36) 
C=c1sc(=Cc2sc(=O)[nH]c2O)c(=O)n1-c1cccc(C(=O)N2CCN(C(=O)c3ccccc3)CC2)c1

>  <score_type>  (36) 
oracle

>  <origin>  (36) 
adg

>  <m_score__min__energy>  (36) 
-16.57

>  <m_primary>  (36) 
energy

$$$$
36:0
     RDKit          3D

 53 56  0  0  1  0  0  0  0  0999 V2000
   62.1310   33.7840   46.9120 C   0  0  0  0  0  0  0  0  0  0  0  0
   60.8660   33.2000   47.4230 C   0  0  2  0  0  0  0  0  0  0  0  0
   61.0470   31.9380   48.1100 N   0  0  0  0  0  0  0  0  0  0  0  0
   60.1280   31.2240   48.6400 C   0  0  0  0  0  0  0  0  0  0  0  0
   59.8780   30.0090   48.1510 N   0  0  0  0  0  0  0  0  0  0  0  0
   58.9090   29.2880   48.7290 C   0  0  0  0  0  0  0  0  0  0  0  0
   58.1870   29.7420   49.7780 N   0  0  0  0  0  0  0  0  0  0  0  0
   58.4350   30.9720   50.2800 C   0  0  0  0  0  0  0  0  0  0  0  0
   57.7310   31.4940   51.3490 C   0  0  0  0  0  0  0  0  0  0  0  0
   56.6690   30.6980   51.9800 C   0  0  0  0  0  0  0  0  0  0  0  0
   55.4590   31.3200   52.3870 N   0  0  0  0  0  0  0  0  0  0  0  0
   56.8050   29.4560   52.1710 O   0  0  0  0  0  0  0  0  0  0  0  0
   58.0100   32.7490   51.8330 C   0  0  0  0  0  0  0  0  0  0  0  0
   59.0000   33.5300   51.2680 C   0  0  0  0  0  0  0  0  0  0  0  0
   59.7180   33.0230   50.1930 C   0  0  0  0  0  0  0  0  0  0  0  0
   59.4250   31.7640   49.7210 C   0  0  0  0  0  0  0  0  0  0  0  0
   59.7120   33.2390   46.5120 C   0  0  0  0  0  0  0  0  0  0  0  0
   58.9080   34.3680   46.5680 C   0  0  0  0  0  0  0  0  0  0  0  0
   57.8050   34.5370   45.7640 C   0  0  0  0  0  0  0  0  0  0  0  0
   57.5180   33.5240   44.8750 C   0  0  0  0  0  0  0  0  0  0  0  0
   58.2600   32.3810   44.7600 C   0  0  0  0  0  0  0  0  0  0  0  0
   58.0340   31.3190   43.8730 N   0  0  0  0  0  0  0  0  0  0  0  0
   57.1200   29.9090   44.1540 S   0  0  0  0  0  0  0  0  0  0  0  0
   56.6510   29.3260   42.8200 O   0  0  0  0  0  0  0  0  0  0  0  0
   55.8310   30.2480   44.8700 O   0  0  0  0  0  0  0  0  0  0  0  0
   58.0060   28.7320   45.0450 C   0  0  0  0  0  0  0  0  0  0  0  0
   57.4520   27.7430   45.8300 C   0  0  0  0  0  0  0  0  0  0  0  0
   58.2250   26.8320   46.5180 C   0  0  0  0  0  0  0  0  0  0  0  0
   59.5920   26.9100   46.4180 C   0  0  0  0  0  0  0  0  0  0  0  0
   60.1960   27.8780   45.6470 C   0  0  0  0  0  0  0  0  0  0  0  0
   59.4010   28.7750   44.9720 C   0  0  0  0  0  0  0  0  0  0  0  0
   59.3680   32.2750   45.6090 C   0  0  0  0  0  0  0  0  0  0  0  0
   62.7678   34.0780   47.7594 H   0  0  0  0  0  0  0  0  0  0  0  0
   62.6579   33.0380   46.2989 H   0  0  0  0  0  0  0  0  0  0  0  0
   61.9050   34.6689   46.2989 H   0  0  0  0  0  0  0  0  0  0  0  0
   60.5601   33.9164   48.1997 H   0  0  0  0  0  0  0  0  0  0  0  0
   60.4350   29.6800   47.3560 H   0  0  0  0  0  0  0  0  0  0  0  0
   58.6914   28.2847   48.3340 H   0  0  0  0  0  0  0  0  0  0  0  0
   55.2390   31.5760   53.3750 H   0  0  0  0  0  0  0  0  0  0  0  0
   54.7650   31.5230   51.6340 H   0  0  0  0  0  0  0  0  0  0  0  0
   57.4349   33.1392   52.6857 H   0  0  0  0  0  0  0  0  0  0  0  0
   59.2152   34.5341   51.6622 H   0  0  0  0  0  0  0  0  0  0  0  0
   60.5127   33.6215   49.7236 H   0  0  0  0  0  0  0  0  0  0  0  0
   59.1634   35.1616   47.2857 H   0  0  0  0  0  0  0  0  0  0  0  0
   57.1801   35.4400   45.8277 H   0  0  0  0  0  0  0  0  0  0  0  0
   56.6419   33.6415   44.2203 H   0  0  0  0  0  0  0  0  0  0  0  0
   58.4930   31.4170   42.9120 H   0  0  0  0  0  0  0  0  0  0  0  0
   56.3568   27.6787   45.9100 H   0  0  0  0  0  0  0  0  0  0  0  0
   57.7537   26.0547   47.1375 H   0  0  0  0  0  0  0  0  0  0  0  0
   60.2158   26.1865   46.9634 H   0  0  0  0  0  0  0  0  0  0  0  0
   61.2921   27.9328   45.5724 H   0  0  0  0  0  0  0  0  0  0  0  0
   59.8784   29.5507   44.3552 H   0  0  0  0  0  0  0  0  0  0  0  0
   59.9916   31.3711   45.5453 H   0  0  0  0  0  0  0  0  0  0  0  0
  1  2  1  0
  2  3  1  0
  3  4  2  0
  4  5  1  0
  5  6  1  0
  6  7  2  0
  7  8  1  0
  8  9  2  0
  9 10  1  0
 10 11  1  0
 10 12  2  0
  9 13  1  0
 13 14  2  0
 14 15  1  0
 15 16  2  0
  2 17  1  0
 17 18  2  0
 18 19  1  0
 19 20  2  0
 20 21  1  0
 21 22  1  0
 22 23  1  0
 23 24  2  0
 23 25  2  0
 23 26  1  0
 26 27  2  0
 27 28  1  0
 28 29  2  0
 29 30  1  0
 30 31  2  0
 21 32  2  0
 16  4  1  0
 32 17  1  0
 16  8  1  0
 31 26  1  0
  1 33  1  0
  1 34  1  0
  1 35  1  0
  2 36  1  1
  5 37  1  0
  6 38  1  0
 11 39  1  0
 11 40  1  0
 13 41  1  0
 14 42  1  0
 15 43  1  0
 18 44  1  0
 19 45  1  0
 20 46  1  0
 22 47  1  0
 27 48  1  0
 28 49  1  0
 29 50  1  0
 30 51  1  0
 31 52  1  0
 32 53  1  0
M  END
>  <smiles>  (37) 
CC(N=c1[nH]cnc2c(C(N)=O)cccc12)c1cccc(NS(=O)(=O)c2ccccc2)c1

>  <score_type>  (37) 
oracle

>  <origin>  (37) 
adg

>  <m_score__min__energy>  (37) 
-10.35

>  <m_primary>  (37) 
energy

$$$$
37:0
     RDKit          3D

 34 36  0  0  1  0  0  0  0  0999 V2000
   54.8500   24.1120   45.2440 C   0  0  0  0  0  0  0  0  0  0  0  0
   59.2920   30.6310   45.2290 N   0  0  0  0  0  0  0  0  0  0  0  0
   58.8550   31.7190   45.7340 C   0  0  0  0  0  0  0  0  0  0  0  0
   57.3520   25.7170   46.7580 N   0  0  0  0  0  0  0  0  0  0  0  0
   58.0600   26.8300   46.4980 C   0  0  0  0  0  0  0  0  0  0  0  0
   59.3780   27.2090   46.7580 C   0  0  0  0  0  0  0  0  0  0  0  0
   59.7830   28.4790   46.3320 C   0  0  0  0  0  0  0  0  0  0  0  0
   58.9410   29.3280   45.6870 C   0  0  0  0  0  0  0  0  0  0  0  0
   55.1110   25.0250   46.3380 N   0  0  0  0  0  0  0  0  0  0  0  0
   56.1060   25.8640   46.2910 C   0  0  0  0  0  0  0  0  0  0  0  0
   59.5440   32.3110   46.7280 N   0  0  0  0  0  0  0  0  0  0  0  0
   59.0860   33.4560   47.2600 C   0  0  0  0  0  0  0  0  0  0  0  0
   59.7300   34.0600   48.2290 N   0  0  0  0  0  0  0  0  0  0  0  0
   57.9400   33.9920   46.7870 N   0  0  0  0  0  0  0  0  0  0  0  0
   57.2270   33.4200   45.7900 C   0  0  0  0  0  0  0  0  0  0  0  0
   57.6780   32.2440   45.2270 C   0  0  0  0  0  0  0  0  0  0  0  0
   56.9900   31.5770   44.1760 N   0  0  0  0  0  0  0  0  0  0  0  0
   55.9340   30.9630   44.5150 O   0  0  0  0  0  0  0  0  0  0  0  0
   57.4350   31.5930   42.8750 O   0  0  0  0  0  0  0  0  0  0  0  0
   57.6320   28.9150   45.4450 C   0  0  0  0  0  0  0  0  0  0  0  0
   57.1770   27.6730   45.8430 C   0  0  0  0  0  0  0  0  0  0  0  0
   55.9740   27.0770   45.7160 N   0  0  0  0  0  0  0  0  0  0  0  0
   54.5687   23.1279   45.6469 H   0  0  0  0  0  0  0  0  0  0  0  0
   54.0280   24.5043   44.6272 H   0  0  0  0  0  0  0  0  0  0  0  0
   55.7551   24.0106   44.6272 H   0  0  0  0  0  0  0  0  0  0  0  0
   57.6970   24.8740   47.2400 H   0  0  0  0  0  0  0  0  0  0  0  0
   60.0730   26.5340   47.2788 H   0  0  0  0  0  0  0  0  0  0  0  0
   60.8170   28.8004   46.5257 H   0  0  0  0  0  0  0  0  0  0  0  0
   60.4250   31.8800   47.0770 H   0  0  0  0  0  0  0  0  0  0  0  0
   60.7400   34.2870   48.1180 H   0  0  0  0  0  0  0  0  0  0  0  0
   57.5400   34.8940   47.1770 H   0  0  0  0  0  0  0  0  0  0  0  0
   56.2978   33.8873   45.4320 H   0  0  0  0  0  0  0  0  0  0  0  0
   56.9433   29.5959   44.9234 H   0  0  0  0  0  0  0  0  0  0  0  0
   55.1410   27.4820   45.2690 H   0  0  0  0  0  0  0  0  0  0  0  0
  1  2  1  0
  2  3  2  0
  3  4  1  0
  4  5  1  0
  5  6  2  0
  6  7  1  0
  7  8  2  0
  8  9  1  0
  9 10  2  0
 10 11  1  0
 11 12  1  0
 12 13  2  3
 12 14  1  0
 14 15  1  0
 15 16  2  0
 16 17  1  0
 17 18  2  0
 17 19  1  0
  8 20  1  0
 20 21  2  0
 21 22  1  0
 22  3  1  0
 21  5  1  0
 16 10  1  0
  1 23  1  0
  1 24  1  0
  1 25  1  0
  4 26  1  0
  6 27  1  0
  7 28  1  0
 11 29  1  0
 13 30  1  0
 14 31  1  0
 15 32  1  0
 20 33  1  0
 22 34  1  0
M  CHG  2  17   1  19  -1
M  END
>  <smiles>  (38) 
CN=c1[nH]c2ccc(N=c3[nH]c(=N)[nH]cc3[N+](=O)[O-])cc2[nH]1

>  <score_type>  (38) 
oracle

>  <origin>  (38) 
adg

>  <m_score__min__energy>  (38) 
-7.2599999999999998

>  <m_primary>  (38) 
energy

$$$$
38:0
     RDKit          3D

 56 59  0  0  0  0  0  0  0  0999 V2000
   63.8210   33.1030   46.7420 C   0  0  0  0  0  0  0  0  0  0  0  0
   62.4870   33.8440   46.5660 C   0  0  0  0  0  0  0  0  0  0  0  0
   61.5100   33.5940   47.6490 N   0  0  0  0  0  0  0  0  0  0  0  0
   62.1440   33.3890   48.9750 C   0  0  0  0  0  0  0  0  0  0  0  0
   61.2020   33.6930   50.1580 C   0  0  0  0  0  0  0  0  0  0  0  0
   59.8030   33.4470   49.7900 N   0  0  0  0  0  0  0  0  0  0  0  0
   58.9120   32.8160   50.7200 C   0  0  0  0  0  0  0  0  0  0  0  0
   58.6660   33.4320   51.9560 C   0  0  0  0  0  0  0  0  0  0  0  0
   57.7900   32.8500   52.8740 C   0  0  0  0  0  0  0  0  0  0  0  0
   57.1590   31.6440   52.5680 C   0  0  0  0  0  0  0  0  0  0  0  0
   57.3970   31.0190   51.3430 C   0  0  0  0  0  0  0  0  0  0  0  0
   58.2630   31.6030   50.4000 C   0  0  0  0  0  0  0  0  0  0  0  0
   58.5610   30.9290   49.1650 N   0  0  0  0  0  0  0  0  0  0  0  0
   59.8360   30.3380   48.8700 C   0  0  0  0  0  0  0  0  0  0  0  0
   60.6560   30.0970   49.7970 O   0  0  0  0  0  0  0  0  0  0  0  0
   60.1950   29.9700   47.4600 C   0  0  0  0  0  0  0  0  0  0  0  0
   58.9760   29.6580   46.6840 N   0  0  0  0  0  0  0  0  0  0  0  0
   58.6200   28.3580   46.3780 C   0  0  0  0  0  0  0  0  0  0  0  0
   57.4490   28.1040   45.6350 C   0  0  0  0  0  0  0  0  0  0  0  0
   56.6620   29.1900   45.2350 C   0  0  0  0  0  0  0  0  0  0  0  0
   55.6130   29.0180   44.5600 O   0  0  0  0  0  0  0  0  0  0  0  0
   57.0270   30.4430   45.5820 N   0  0  0  0  0  0  0  0  0  0  0  0
   58.1510   30.6900   46.2960 C   0  0  0  0  0  0  0  0  0  0  0  0
   58.4200   31.8840   46.5990 O   0  0  0  0  0  0  0  0  0  0  0  0
   57.0940   26.6850   45.2630 C   0  0  0  0  0  0  0  0  0  0  0  0
   57.0400   25.5990   46.7360 S   0  0  0  0  0  0  0  0  0  0  0  0
   58.5340   26.1940   47.6280 C   0  0  0  0  0  0  0  0  0  0  0  0
   59.4190   27.1450   46.8190 C   0  0  0  0  0  0  0  0  0  0  0  0
   59.2650   33.9700   48.5300 C   0  0  0  0  0  0  0  0  0  0  0  0
   60.3850   34.5450   47.6630 C   0  0  0  0  0  0  0  0  0  0  0  0
   64.0355   32.9838   47.8143 H   0  0  0  0  0  0  0  0  0  0  0  0
   63.7552   32.1121   46.2689 H   0  0  0  0  0  0  0  0  0  0  0  0
   64.6275   33.6824   46.2689 H   0  0  0  0  0  0  0  0  0  0  0  0
   62.6937   34.9238   46.5296 H   0  0  0  0  0  0  0  0  0  0  0  0
   62.0345   33.4668   45.6370 H   0  0  0  0  0  0  0  0  0  0  0  0
   62.4683   32.3404   49.0481 H   0  0  0  0  0  0  0  0  0  0  0  0
   62.9881   34.0910   49.0433 H   0  0  0  0  0  0  0  0  0  0  0  0
   61.4700   33.0470   51.0070 H   0  0  0  0  0  0  0  0  0  0  0  0
   61.3123   34.7527   50.4317 H   0  0  0  0  0  0  0  0  0  0  0  0
   59.1666   34.3797   52.2035 H   0  0  0  0  0  0  0  0  0  0  0  0
   57.5973   33.3423   53.8386 H   0  0  0  0  0  0  0  0  0  0  0  0
   56.4722   31.1845   53.2940 H   0  0  0  0  0  0  0  0  0  0  0  0
   56.9040   30.0629   51.1130 H   0  0  0  0  0  0  0  0  0  0  0  0
   57.8040   30.8420   48.4500 H   0  0  0  0  0  0  0  0  0  0  0  0
   60.7198   30.8134   46.9875 H   0  0  0  0  0  0  0  0  0  0  0  0
   60.8450   29.0827   47.4766 H   0  0  0  0  0  0  0  0  0  0  0  0
   56.1067   26.6789   44.7780 H   0  0  0  0  0  0  0  0  0  0  0  0
   57.8677   26.3031   44.5807 H   0  0  0  0  0  0  0  0  0  0  0  0
   58.2051   26.7199   48.5365 H   0  0  0  0  0  0  0  0  0  0  0  0
   59.1449   25.3049   47.8432 H   0  0  0  0  0  0  0  0  0  0  0  0
   60.2638   27.4735   47.4422 H   0  0  0  0  0  0  0  0  0  0  0  0
   59.7916   26.6178   45.9284 H   0  0  0  0  0  0  0  0  0  0  0  0
   58.7673   33.1552   47.9838 H   0  0  0  0  0  0  0  0  0  0  0  0
   58.5462   34.7711   48.7572 H   0  0  0  0  0  0  0  0  0  0  0  0
   60.0174   34.6979   46.6376 H   0  0  0  0  0  0  0  0  0  0  0  0
   60.7167   35.5105   48.0727 H   0  0  0  0  0  0  0  0  0  0  0  0
  1  2  1  0
  2  3  1  0
  3  4  1  0
  4  5  1  0
  5  6  1  0
  6  7  1  0
  7  8  2  0
  8  9  1  0
  9 10  2  0
 10 11  1  0
 11 12  2  0
 12 13  1  0
 13 14  1  0
 14 15  2  0
 14 16  1  0
 16 17  1  0
 17 18  1  0
 18 19  2  0
 19 20  1  0
 20 21  2  0
 20 22  1  0
 22 23  1  0
 23 24  2  0
 19 25  1  0
 25 26  1  0
 26 27  1  0
 27 28  1  0
  6 29  1  0
 29 30  1  0
 30  3  1  0
 12  7  1  0
 23 17  1  0
 28 18  1  0
  1 31  1  0
  1 32  1  0
  1 33  1  0
  2 34  1  0
  2 35  1  0
  4 36  1  0
  4 37  1  0
  5 38  1  0
  5 39  1  0
  8 40  1  0
  9 41  1  0
 10 42  1  0
 11 43  1  0
 13 44  1  0
 16 45  1  0
 16 46  1  0
 25 47  1  0
 25 48  1  0
 27 49  1  0
 27 50  1  0
 28 51  1  0
 28 52  1  0
 29 53  1  0
 29 54  1  0
 30 55  1  0
 30 56  1  0
M  CHG  1  22  -1
M  END
>  <UniqueID>  (39) 
37

>  <SMILES>  (39) 
CCN1CCN(c2ccccc2NC(=O)Cn2c3c(c(=O)[n-]c2=O)CSCC3)CC1

>  <Energy>  (39) 
83.04741047753213

>  <Genealogy>  (39) 
CCN1CCN(c2ccccc2NC(=O)Cn2c3c(c(=O)[n-]c2=O)CSCC3)CC1 (protonated)
CCN1CCN(c2ccccc2NC(=O)Cn2c3c(c(=O)[n-]c2=O)CSCC3)CC1 (3D coordinates assigned)
CCN1CCN(c2ccccc2NC(=O)Cn2c3c(c(=O)[n-]c2=O)CSCC3)CC1 (nonaromatic ring conformer: 83.04741047753213 kcal/mol)

>  <smiles>  (39) 
CCN1CCN(c2ccccc2NC(=O)Cn2c3c(c(=O)[nH]c2=O)CSCC3)CC1

>  <score_type>  (39) 
oracle

>  <origin>  (39) 
adg

>  <m_score__min__energy>  (39) 
-9.5700000000000003

>  <m_primary>  (39) 
energy

$$$$
39:0
     RDKit          3D

 47 49  0  0  1  0  0  0  0  0999 V2000
   55.6710   25.4970   46.6120 N   0  0  0  0  0  0  0  0  0  0  0  0
   56.5000   26.4490   46.4110 C   0  0  0  0  0  0  0  0  0  0  0  0
   56.1030   27.4930   45.6270 N   0  0  0  0  0  0  0  0  0  0  0  0
   56.9190   28.5300   45.3700 C   0  0  0  0  0  0  0  0  0  0  0  0
   56.5400   29.6670   44.5420 C   0  0  0  0  0  0  0  0  0  0  0  0
   55.4170   30.2330   44.7540 O   0  0  0  0  0  0  0  0  0  0  0  0
   57.3780   30.1650   43.5110 N   0  0  0  0  0  0  0  0  0  0  0  0
   57.0350   31.2920   42.6710 C   0  0  0  0  0  0  0  0  0  0  0  0
   58.1020   32.3410   42.7440 C   0  0  0  0  0  0  0  0  0  0  0  0
   58.1240   32.9900   44.0860 C   0  0  0  0  0  0  0  0  0  0  0  0
   57.1290   32.7420   45.0260 C   0  0  0  0  0  0  0  0  0  0  0  0
   57.1690   33.3570   46.2710 C   0  0  0  0  0  0  0  0  0  0  0  0
   58.1990   34.2300   46.6010 C   0  0  0  0  0  0  0  0  0  0  0  0
   59.1670   34.4660   45.6710 C   0  0  0  0  0  0  0  0  0  0  0  0
   59.1330   33.8610   44.4400 C   0  0  0  0  0  0  0  0  0  0  0  0
   58.1780   28.4780   45.9410 C   0  0  0  0  0  0  0  0  0  0  0  0
   58.5990   27.4280   46.7370 C   0  0  0  0  0  0  0  0  0  0  0  0
   59.7780   27.4830   47.2110 N   0  0  0  0  0  0  0  0  0  0  0  0
   60.7360   28.4320   46.7210 C   0  0  0  0  0  0  0  0  0  0  0  0
   60.4340   29.7040   47.4770 C   0  0  0  0  0  0  0  0  0  0  0  0
   60.8490   30.9130   46.9850 C   0  0  0  0  0  0  0  0  0  0  0  0
   60.5990   32.1050   47.6390 C   0  0  0  0  0  0  0  0  0  0  0  0
   59.9050   32.0860   48.8380 C   0  0  0  0  0  0  0  0  0  0  0  0
   59.4810   30.8760   49.3450 C   0  0  0  0  0  0  0  0  0  0  0  0
   59.7450   29.7010   48.6680 C   0  0  0  0  0  0  0  0  0  0  0  0
   57.7250   26.4360   46.9430 N   0  0  0  0  0  0  0  0  0  0  0  0
   55.4910   25.1770   47.5770 H   0  0  0  0  0  0  0  0  0  0  0  0
   55.1490   27.4680   45.2340 H   0  0  0  0  0  0  0  0  0  0  0  0
   58.3170   29.7170   43.3090 H   0  0  0  0  0  0  0  0  0  0  0  0
   56.9328   30.9506   41.6303 H   0  0  0  0  0  0  0  0  0  0  0  0
   56.0859   31.7231   43.0221 H   0  0  0  0  0  0  0  0  0  0  0  0
   59.0795   31.8733   42.5548 H   0  0  0  0  0  0  0  0  0  0  0  0
   57.8890   33.1100   41.9869 H   0  0  0  0  0  0  0  0  0  0  0  0
   56.3055   32.0547   44.7820 H   0  0  0  0  0  0  0  0  0  0  0  0
   56.3758   33.1506   47.0046 H   0  0  0  0  0  0  0  0  0  0  0  0
   58.2320   34.7175   47.5865 H   0  0  0  0  0  0  0  0  0  0  0  0
   59.9907   35.1542   45.9118 H   0  0  0  0  0  0  0  0  0  0  0  0
   59.9323   34.0765   43.7157 H   0  0  0  0  0  0  0  0  0  0  0  0
   58.8750   29.3082   45.7538 H   0  0  0  0  0  0  0  0  0  0  0  0
   61.7611   28.0912   46.9284 H   0  0  0  0  0  0  0  0  0  0  0  0
   60.6681   28.5684   45.6316 H   0  0  0  0  0  0  0  0  0  0  0  0
   61.4017   30.9364   46.0342 H   0  0  0  0  0  0  0  0  0  0  0  0
   60.9470   33.0574   47.2125 H   0  0  0  0  0  0  0  0  0  0  0  0
   59.6955   33.0217   49.3770 H   0  0  0  0  0  0  0  0  0  0  0  0
   58.9284   30.8460   50.2956 H   0  0  0  0  0  0  0  0  0  0  0  0
   59.3981   28.7457   49.0888 H   0  0  0  0  0  0  0  0  0  0  0  0
   57.9840   25.6230   47.5300 H   0  0  0  0  0  0  0  0  0  0  0  0
  1  2  2  3
  2  3  1  0
  3  4  1  0
  4  5  1  0
  5  6  2  0
  5  7  1  0
  7  8  1  0
  8  9  1  0
  9 10  1  0
 10 11  2  0
 11 12  1  0
 12 13  2  0
 13 14  1  0
 14 15  2  0
  4 16  2  0
 16 17  1  0
 17 18  2  0
 18 19  1  0
 19 20  1  0
 20 21  2  0
 21 22  1  0
 22 23  2  0
 23 24  1  0
 24 25  2  0
 17 26  1  0
 26  2  1  0
 15 10  1  0
 25 20  1  0
  1 27  1  0
  3 28  1  0
  7 29  1  0
  8 30  1  0
  8 31  1  0
  9 32  1  0
  9 33  1  0
 11 34  1  0
 12 35  1  0
 13 36  1  0
 14 37  1  0
 15 38  1  0
 16 39  1  0
 19 40  1  0
 19 41  1  0
 21 42  1  0
 22 43  1  0
 23 44  1  0
 24 45  1  0
 25 46  1  0
 26 47  1  0
M  END
>  <smiles>  (40) 
N=c1[nH]c(C(=O)NCCc2ccccc2)cc(=NCc2ccccc2)[nH]1

>  <score_type>  (40) 
oracle

>  <origin>  (40) 
adg

>  <m_score__min__energy>  (40) 
-9.2699999999999996

>  <m_primary>  (40) 
energy

$$$$
40:0
     RDKit          3D

 58 61  0  0  0  0  0  0  0  0999 V2000
   56.1550   30.0870   44.9450 O   0  0  0  0  0  0  0  0  0  0  0  0
   57.2710   29.7010   44.5000 C   0  0  0  0  0  0  0  0  0  0  0  0
   58.2920   30.6540   44.1760 N   0  0  0  0  0  0  0  0  0  0  0  0
   58.4140   31.9420   44.8000 C   0  0  0  0  0  0  0  0  0  0  0  0
   58.0860   33.0950   44.0700 C   0  0  0  0  0  0  0  0  0  0  0  0
   58.2160   34.3590   44.6490 C   0  0  0  0  0  0  0  0  0  0  0  0
   58.6920   34.4860   45.9570 C   0  0  0  0  0  0  0  0  0  0  0  0
   59.0510   33.3480   46.6870 C   0  0  0  0  0  0  0  0  0  0  0  0
   59.6730   33.5190   48.3270 S   0  0  0  0  0  0  0  0  0  0  0  0
   59.6060   34.9680   48.7220 O   0  0  0  0  0  0  0  0  0  0  0  0
   58.8350   32.7080   49.2790 O   0  0  0  0  0  0  0  0  0  0  0  0
   61.3330   32.9750   48.3850 N   0  0  0  0  0  0  0  0  0  0  0  0
   62.1730   33.9070   49.1360 C   0  0  0  0  0  0  0  0  0  0  0  0
   63.5850   33.7340   48.6030 C   0  0  0  0  0  0  0  0  0  0  0  0
   63.4160   33.1520   47.2080 C   0  0  0  0  0  0  0  0  0  0  0  0
   61.9200   32.9130   47.0450 C   0  0  0  0  0  0  0  0  0  0  0  0
   58.9120   32.0780   46.1090 C   0  0  0  0  0  0  0  0  0  0  0  0
   57.4860   28.2710   44.2270 C   0  0  0  0  0  0  0  0  0  0  0  0
   57.5660   27.8590   42.8870 C   0  0  0  0  0  0  0  0  0  0  0  0
   57.7750   26.5170   42.5660 C   0  0  0  0  0  0  0  0  0  0  0  0
   57.8940   25.5690   43.5810 C   0  0  0  0  0  0  0  0  0  0  0  0
   57.7970   25.9570   44.9180 C   0  0  0  0  0  0  0  0  0  0  0  0
   57.6020   27.3080   45.2660 C   0  0  0  0  0  0  0  0  0  0  0  0
   57.4050   27.6600   46.7290 C   0  0  0  0  0  0  0  0  0  0  0  0
   58.5670   28.4530   47.2760 C   0  0  0  0  0  0  0  0  0  0  0  0
   59.6750   28.7400   46.4640 C   0  0  0  0  0  0  0  0  0  0  0  0
   60.7510   29.4720   46.9720 C   0  0  0  0  0  0  0  0  0  0  0  0
   60.7350   29.9200   48.2930 C   0  0  0  0  0  0  0  0  0  0  0  0
   59.6400   29.6290   49.1240 C   0  0  0  0  0  0  0  0  0  0  0  0
   59.6020   30.1470   50.5360 C   0  0  0  0  0  0  0  0  0  0  0  0
   58.2760   30.3590   50.9330 O   0  0  0  0  0  0  0  0  0  0  0  0
   58.5550   28.9060   48.6060 C   0  0  0  0  0  0  0  0  0  0  0  0
   58.9410   30.4160   43.3910 H   0  0  0  0  0  0  0  0  0  0  0  0
   57.7243   33.0023   43.0353 H   0  0  0  0  0  0  0  0  0  0  0  0
   57.9432   35.2566   44.0746 H   0  0  0  0  0  0  0  0  0  0  0  0
   58.7845   35.4827   46.4132 H   0  0  0  0  0  0  0  0  0  0  0  0
   61.8304   34.9403   48.9782 H   0  0  0  0  0  0  0  0  0  0  0  0
   62.1263   33.7054   50.2164 H   0  0  0  0  0  0  0  0  0  0  0  0
   64.1013   34.7042   48.5563 H   0  0  0  0  0  0  0  0  0  0  0  0
   64.1916   33.0828   49.2495 H   0  0  0  0  0  0  0  0  0  0  0  0
   63.7768   33.8618   46.4490 H   0  0  0  0  0  0  0  0  0  0  0  0
   63.9937   32.2247   47.0800 H   0  0  0  0  0  0  0  0  0  0  0  0
   61.4802   33.6901   46.4026 H   0  0  0  0  0  0  0  0  0  0  0  0
   61.7251   31.9384   46.5735 H   0  0  0  0  0  0  0  0  0  0  0  0
   59.1940   31.1826   46.6824 H   0  0  0  0  0  0  0  0  0  0  0  0
   57.4629   28.6016   42.0821 H   0  0  0  0  0  0  0  0  0  0  0  0
   57.8458   26.2076   41.5128 H   0  0  0  0  0  0  0  0  0  0  0  0
   58.0648   24.5123   43.3274 H   0  0  0  0  0  0  0  0  0  0  0  0
   57.8738   25.1980   45.7104 H   0  0  0  0  0  0  0  0  0  0  0  0
   56.4869   28.2572   46.8311 H   0  0  0  0  0  0  0  0  0  0  0  0
   57.3321   26.7223   47.2995 H   0  0  0  0  0  0  0  0  0  0  0  0
   59.6964   28.3869   45.4224 H   0  0  0  0  0  0  0  0  0  0  0  0
   61.6141   29.6960   46.3279 H   0  0  0  0  0  0  0  0  0  0  0  0
   61.5817   30.5025   48.6851 H   0  0  0  0  0  0  0  0  0  0  0  0
   60.0698   29.4112   51.2066 H   0  0  0  0  0  0  0  0  0  0  0  0
   60.1505   31.0992   50.5861 H   0  0  0  0  0  0  0  0  0  0  0  0
   58.0230   31.2640   50.6100 H   0  0  0  0  0  0  0  0  0  0  0  0
   57.6870   28.6918   49.2469 H   0  0  0  0  0  0  0  0  0  0  0  0
  1  2  2  0
  2  3  1  0
  3  4  1  0
  4  5  2  0
  5  6  1  0
  6  7  2  0
  7  8  1  0
  8  9  1  0
  9 10  2  0
  9 11  2  0
  9 12  1  0
 12 13  1  0
 13 14  1  0
 14 15  1  0
 15 16  1  0
  8 17  2  0
  2 18  1  0
 18 19  2  0
 19 20  1  0
 20 21  2  0
 21 22  1  0
 22 23  2  0
 23 24  1  0
 24 25  1  0
 25 26  2  0
 26 27  1  0
 27 28  2  0
 28 29  1  0
 29 30  1  0
 30 31  1  0
 29 32  2  0
 17  4  1  0
 23 18  1  0
 32 25  1  0
 16 12  1  0
  3 33  1  0
  5 34  1  0
  6 35  1  0
  7 36  1  0
 13 37  1  0
 13 38  1  0
 14 39  1  0
 14 40  1  0
 15 41  1  0
 15 42  1  0
 16 43  1  0
 16 44  1  0
 17 45  1  0
 19 46  1  0
 20 47  1  0
 21 48  1  0
 22 49  1  0
 24 50  1  0
 24 51  1  0
 26 52  1  0
 27 53  1  0
 28 54  1  0
 30 55  1  0
 30 56  1  0
 31 57  1  0
 32 58  1  0
M  END
>  <UniqueID>  (41) 
38

>  <SMILES>  (41) 
O=C(Nc1cccc(S(=O)(=O)N2CCCC2)c1)c1ccccc1Cc1cccc(CO)c1

>  <Energy>  (41) 
71.10117459329767

>  <Genealogy>  (41) 
O=C(Nc1cccc(S(=O)(=O)N2CCCC2)c1)c1ccccc1Cc1cccc(CO)c1 (3D coordinates assigned)
O=C(Nc1cccc(S(=O)(=O)N2CCCC2)c1)c1ccccc1Cc1cccc(CO)c1 (nonaromatic ring conformer: 71.10117459329767 kcal/mol)

>  <smiles>  (41) 
O=C(Nc1cccc(S(=O)(=O)N2CCCC2)c1)c1ccccc1Cc1cccc(CO)c1

>  <score_type>  (41) 
oracle

>  <origin>  (41) 
adg

>  <m_score__min__energy>  (41) 
-11.220000000000001

>  <m_primary>  (41) 
energy

$$$$
41:0
     RDKit          3D

 55 58  0  0  0  0  0  0  0  0999 V2000
   53.7360   25.2320   45.6880 O   0  0  0  0  0  0  0  0  0  0  0  0
   54.9800   25.4120   45.6290 C   0  0  0  0  0  0  0  0  0  0  0  0
   55.5240   26.6320   46.1590 N   0  0  0  0  0  0  0  0  0  0  0  0
   56.6730   27.3150   45.6410 C   0  0  0  0  0  0  0  0  0  0  0  0
   57.9640   26.7750   45.7720 C   0  0  0  0  0  0  0  0  0  0  0  0
   59.0750   27.4960   45.3260 C   0  0  0  0  0  0  0  0  0  0  0  0
   58.9050   28.7650   44.7640 C   0  0  0  0  0  0  0  0  0  0  0  0
   57.6180   29.2990   44.6060 C   0  0  0  0  0  0  0  0  0  0  0  0
   57.4460   30.6630   44.0870 C   0  0  0  0  0  0  0  0  0  0  0  0
   56.9660   30.8010   42.9290 O   0  0  0  0  0  0  0  0  0  0  0  0
   57.8230   31.8150   44.8630 N   0  0  0  0  0  0  0  0  0  0  0  0
   57.9600   33.1340   44.2280 C   0  0  0  0  0  0  0  0  0  0  0  0
   57.4550   34.2660   45.1600 C   0  0  0  0  0  0  0  0  0  0  0  0
   57.1560   33.8340   46.4770 O   0  0  0  0  0  0  0  0  0  0  0  0
   58.2030   33.0330   46.9750 C   0  0  0  0  0  0  0  0  0  0  0  0
   58.1640   31.6650   46.2850 C   0  0  0  0  0  0  0  0  0  0  0  0
   56.5040   28.5570   45.0170 C   0  0  0  0  0  0  0  0  0  0  0  0
   55.8520   24.3370   45.0830 C   0  0  0  0  0  0  0  0  0  0  0  0
   55.8720   24.0870   43.6990 C   0  0  0  0  0  0  0  0  0  0  0  0
   56.6600   23.0690   43.1670 C   0  0  0  0  0  0  0  0  0  0  0  0
   57.4530   22.2900   44.0070 C   0  0  0  0  0  0  0  0  0  0  0  0
   57.4650   22.5410   45.3780 C   0  0  0  0  0  0  0  0  0  0  0  0
   56.6700   23.5650   45.9330 C   0  0  0  0  0  0  0  0  0  0  0  0
   56.7160   23.8680   47.3080 O   0  0  0  0  0  0  0  0  0  0  0  0
   56.4130   22.9820   48.3520 C   0  0  0  0  0  0  0  0  0  0  0  0
   57.3160   22.5740   49.1290 O   0  0  0  0  0  0  0  0  0  0  0  0
   55.0690   22.5100   48.5090 N   0  0  0  0  0  0  0  0  0  0  0  0
   54.6120   21.7660   49.6690 C   0  0  0  0  0  0  0  0  0  0  0  0
   53.0920   21.7360   49.5660 C   0  0  0  0  0  0  0  0  0  0  0  0
   52.7380   22.2190   48.1590 C   0  0  0  0  0  0  0  0  0  0  0  0
   53.9990   22.8720   47.6000 C   0  0  0  0  0  0  0  0  0  0  0  0
   58.1002   25.7826   46.2266 H   0  0  0  0  0  0  0  0  0  0  0  0
   60.0831   27.0653   45.4171 H   0  0  0  0  0  0  0  0  0  0  0  0
   59.7830   29.3459   44.4450 H   0  0  0  0  0  0  0  0  0  0  0  0
   59.0202   33.3099   43.9934 H   0  0  0  0  0  0  0  0  0  0  0  0
   57.3509   33.1422   43.3121 H   0  0  0  0  0  0  0  0  0  0  0  0
   58.2338   35.0406   45.2178 H   0  0  0  0  0  0  0  0  0  0  0  0
   56.5169   34.6427   44.7263 H   0  0  0  0  0  0  0  0  0  0  0  0
   59.1678   33.5204   46.7711 H   0  0  0  0  0  0  0  0  0  0  0  0
   58.0837   32.9025   48.0607 H   0  0  0  0  0  0  0  0  0  0  0  0
   59.1511   31.1874   46.3721 H   0  0  0  0  0  0  0  0  0  0  0  0
   57.3976   31.0433   46.7709 H   0  0  0  0  0  0  0  0  0  0  0  0
   55.4911   28.9517   44.8488 H   0  0  0  0  0  0  0  0  0  0  0  0
   55.2568   24.7039   43.0275 H   0  0  0  0  0  0  0  0  0  0  0  0
   56.6562   22.8800   42.0834 H   0  0  0  0  0  0  0  0  0  0  0  0
   58.0679   21.4791   43.5894 H   0  0  0  0  0  0  0  0  0  0  0  0
   58.1030   21.9323   46.0357 H   0  0  0  0  0  0  0  0  0  0  0  0
   55.0179   20.7437   49.6534 H   0  0  0  0  0  0  0  0  0  0  0  0
   54.9465   22.2314   50.6079 H   0  0  0  0  0  0  0  0  0  0  0  0
   52.7216   20.7117   49.7197 H   0  0  0  0  0  0  0  0  0  0  0  0
   52.6305   22.3763   50.3322 H   0  0  0  0  0  0  0  0  0  0  0  0
   52.4380   21.3688   47.5288 H   0  0  0  0  0  0  0  0  0  0  0  0
   51.8966   22.9273   48.1795 H   0  0  0  0  0  0  0  0  0  0  0  0
   54.2106   22.4929   46.5893 H   0  0  0  0  0  0  0  0  0  0  0  0
   53.8879   23.9635   47.5205 H   0  0  0  0  0  0  0  0  0  0  0  0
  1  2  2  0
  2  3  1  0
  3  4  1  0
  4  5  2  0
  5  6  1  0
  6  7  2  0
  7  8  1  0
  8  9  1  0
  9 10  2  0
  9 11  1  0
 11 12  1  0
 12 13  1  0
 13 14  1  0
 14 15  1  0
 15 16  1  0
  8 17  2  0
  2 18  1  0
 18 19  2  0
 19 20  1  0
 20 21  2  0
 21 22  1  0
 22 23  2  0
 23 24  1  0
 24 25  1  0
 25 26  2  0
 25 27  1  0
 27 28  1  0
 28 29  1  0
 29 30  1  0
 30 31  1  0
 17  4  1  0
 23 18  1  0
 31 27  1  0
 16 11  1  0
  5 32  1  0
  6 33  1  0
  7 34  1  0
 12 35  1  0
 12 36  1  0
 13 37  1  0
 13 38  1  0
 15 39  1  0
 15 40  1  0
 16 41  1  0
 16 42  1  0
 17 43  1  0
 19 44  1  0
 20 45  1  0
 21 46  1  0
 22 47  1  0
 28 48  1  0
 28 49  1  0
 29 50  1  0
 29 51  1  0
 30 52  1  0
 30 53  1  0
 31 54  1  0
 31 55  1  0
M  CHG  1   3  -1
M  END
>  <UniqueID>  (42) 
39

>  <SMILES>  (42) 
O=C([N-]c1cccc(C(=O)N2CCOCC2)c1)c1ccccc1OC(=O)N1CCCC1

>  <Energy>  (42) 
83.47805887084803

>  <Genealogy>  (42) 
O=C([N-]c1cccc(C(=O)N2CCOCC2)c1)c1ccccc1OC(=O)N1CCCC1 (protonated)
O=C([N-]c1cccc(C(=O)N2CCOCC2)c1)c1ccccc1OC(=O)N1CCCC1 (3D coordinates assigned)
O=C([N-]c1cccc(C(=O)N2CCOCC2)c1)c1ccccc1OC(=O)N1CCCC1 (nonaromatic ring conformer: 83.47805887084803 kcal/mol)

>  <smiles>  (42) 
O=C(Nc1cccc(C(=O)N2CCOCC2)c1)c1ccccc1OC(=O)N1CCCC1

>  <score_type>  (42) 
oracle

>  <origin>  (42) 
adg

>  <m_score__min__energy>  (42) 
-11.289999999999999

>  <m_primary>  (42) 
energy

$$$$
42:0
     RDKit          3D

 50 52  0  0  0  0  0  0  0  0999 V2000
   57.8630   29.7250   50.9790 O   0  0  0  0  0  0  0  0  0  0  0  0
   57.8110   30.5990   51.8870 C   0  0  0  0  0  0  0  0  0  0  0  0
   56.5830   30.7100   52.7330 C   0  0  0  0  0  0  0  0  0  0  0  0
   55.3920   31.1660   51.8890 C   0  0  0  0  0  0  0  0  0  0  0  0
   54.2280   30.3190   52.1400 N   0  0  0  0  0  0  0  0  0  0  0  0
   52.8610   30.7310   52.0120 C   0  0  0  0  0  0  0  0  0  0  0  0
   52.2320   31.0840   53.0430 O   0  0  0  0  0  0  0  0  0  0  0  0
   52.1660   30.7390   50.7100 C   0  0  0  0  0  0  0  0  0  0  0  0
   52.3620   29.6730   49.8190 C   0  0  0  0  0  0  0  0  0  0  0  0
   51.7120   29.6620   48.5800 C   0  0  0  0  0  0  0  0  0  0  0  0
   50.8550   30.7080   48.2310 C   0  0  0  0  0  0  0  0  0  0  0  0
   50.6360   31.7610   49.1230 C   0  0  0  0  0  0  0  0  0  0  0  0
   51.2800   31.7770   50.3650 C   0  0  0  0  0  0  0  0  0  0  0  0
   51.0190   32.8120   51.2560 O   0  0  0  0  0  0  0  0  0  0  0  0
   58.8660   31.5560   52.0460 N   0  0  0  0  0  0  0  0  0  0  0  0
   59.5090   32.3040   51.0040 C   0  0  0  0  0  0  0  0  0  0  0  0
   60.7980   32.8440   51.1580 C   0  0  0  0  0  0  0  0  0  0  0  0
   61.3780   33.5830   50.1240 C   0  0  0  0  0  0  0  0  0  0  0  0
   60.6770   33.8000   48.9360 C   0  0  0  0  0  0  0  0  0  0  0  0
   59.3840   33.2860   48.7800 C   0  0  0  0  0  0  0  0  0  0  0  0
   58.5090   33.5790   47.2800 S   0  0  0  0  0  0  0  0  0  0  0  0
   58.5290   35.0550   46.9980 O   0  0  0  0  0  0  0  0  0  0  0  0
   57.0820   33.1270   47.4240 O   0  0  0  0  0  0  0  0  0  0  0  0
   59.2940   32.7020   45.9820 N   0  0  0  0  0  0  0  0  0  0  0  0
   59.2480   31.2390   46.2000 C   0  0  0  0  0  0  0  0  0  0  0  0
   58.1310   30.5520   45.3950 C   0  0  0  0  0  0  0  0  0  0  0  0
   57.0260   31.4160   45.2540 O   0  0  0  0  0  0  0  0  0  0  0  0
   57.3550   32.4990   44.4030 C   0  0  0  0  0  0  0  0  0  0  0  0
   58.7620   33.0890   44.6640 C   0  0  0  0  0  0  0  0  0  0  0  0
   58.8020   32.5470   49.8190 C   0  0  0  0  0  0  0  0  0  0  0  0
   56.3584   29.7285   53.1760 H   0  0  0  0  0  0  0  0  0  0  0  0
   56.7624   31.4511   53.5258 H   0  0  0  0  0  0  0  0  0  0  0  0
   55.1440   32.2063   52.1463 H   0  0  0  0  0  0  0  0  0  0  0  0
   55.6621   31.0905   50.8254 H   0  0  0  0  0  0  0  0  0  0  0  0
   53.0289   28.8431   50.0955 H   0  0  0  0  0  0  0  0  0  0  0  0
   51.8761   28.8291   47.8805 H   0  0  0  0  0  0  0  0  0  0  0  0
   50.3518   30.7029   47.2528 H   0  0  0  0  0  0  0  0  0  0  0  0
   49.9551   32.5800   48.8479 H   0  0  0  0  0  0  0  0  0  0  0  0
   61.3513   32.6842   52.0952 H   0  0  0  0  0  0  0  0  0  0  0  0
   62.3904   33.9954   50.2461 H   0  0  0  0  0  0  0  0  0  0  0  0
   61.1412   34.3755   48.1216 H   0  0  0  0  0  0  0  0  0  0  0  0
   60.2143   30.8081   45.8991 H   0  0  0  0  0  0  0  0  0  0  0  0
   59.0405   31.0691   47.2668 H   0  0  0  0  0  0  0  0  0  0  0  0
   58.5131   30.2862   44.3983 H   0  0  0  0  0  0  0  0  0  0  0  0
   57.8103   29.6460   45.9301 H   0  0  0  0  0  0  0  0  0  0  0  0
   57.3133   32.1476   43.3615 H   0  0  0  0  0  0  0  0  0  0  0  0
   56.6279   33.2993   44.6048 H   0  0  0  0  0  0  0  0  0  0  0  0
   59.4482   32.7257   43.8848 H   0  0  0  0  0  0  0  0  0  0  0  0
   58.6765   34.1855   44.6440 H   0  0  0  0  0  0  0  0  0  0  0  0
   57.7811   32.1543   49.7031 H   0  0  0  0  0  0  0  0  0  0  0  0
  1  2  2  0
  2  3  1  0
  3  4  1  0
  4  5  1  0
  5  6  1  0
  6  7  2  0
  6  8  1  0
  8  9  2  0
  9 10  1  0
 10 11  2  0
 11 12  1  0
 12 13  2  0
 13 14  1  0
  2 15  1  0
 15 16  1  0
 16 17  2  0
 17 18  1  0
 18 19  2  0
 19 20  1  0
 20 21  1  0
 21 22  2  0
 21 23  2  0
 21 24  1  0
 24 25  1  0
 25 26  1  0
 26 27  1  0
 27 28  1  0
 28 29  1  0
 20 30  2  0
 13  8  1  0
 30 16  1  0
 29 24  1  0
  3 31  1  0
  3 32  1  0
  4 33  1  0
  4 34  1  0
  9 35  1  0
 10 36  1  0
 11 37  1  0
 12 38  1  0
 17 39  1  0
 18 40  1  0
 19 41  1  0
 25 42  1  0
 25 43  1  0
 26 44  1  0
 26 45  1  0
 28 46  1  0
 28 47  1  0
 29 48  1  0
 29 49  1  0
 30 50  1  0
M  CHG  3   5  -1  14  -1  15  -1
M  END
>  <UniqueID>  (43) 
40

>  <SMILES>  (43) 
O=C(CC[N-]C(=O)c1ccccc1[O-])[N-]c1cccc(S(=O)(=O)N2CCOCC2)c1

>  <Energy>  (43) 
67.40371649514265

>  <Genealogy>  (43) 
O=C(CC[N-]C(=O)c1ccccc1[O-])[N-]c1cccc(S(=O)(=O)N2CCOCC2)c1 (protonated)
O=C(CC[N-]C(=O)c1ccccc1[O-])[N-]c1cccc(S(=O)(=O)N2CCOCC2)c1 (3D coordinates assigned)
O=C(CC[N-]C(=O)c1ccccc1[O-])[N-]c1cccc(S(=O)(=O)N2CCOCC2)c1 (nonaromatic ring conformer: 67.40371649514265 kcal/mol)

>  <smiles>  (43) 
O=C(CCNC(=O)c1ccccc1O)Nc1cccc(S(=O)(=O)N2CCOCC2)c1

>  <score_type>  (43) 
oracle

>  <origin>  (43) 
adg

>  <m_score__min__energy>  (43) 
-16.879999999999999

>  <m_primary>  (43) 
energy

$$$$
43:0
     RDKit          3D

 58 61  0  0  0  0  0  0  0  0999 V2000
   56.8900   25.8240   45.7090 C   0  0  0  0  0  0  0  0  0  0  0  0
   58.0060   26.7550   45.5220 N   0  0  0  0  0  0  0  0  0  0  0  0
   58.1490   27.4650   44.2410 C   0  0  0  0  0  0  0  0  0  0  0  0
   58.0610   28.9570   44.4390 C   0  0  0  0  0  0  0  0  0  0  0  0
   59.1540   29.6720   44.9550 C   0  0  0  0  0  0  0  0  0  0  0  0
   59.0540   31.0490   45.1760 C   0  0  0  0  0  0  0  0  0  0  0  0
   57.8580   31.7220   44.8950 C   0  0  0  0  0  0  0  0  0  0  0  0
   57.7140   33.4340   45.2730 S   0  0  0  0  0  0  0  0  0  0  0  0
   56.2700   33.8630   45.2290 O   0  0  0  0  0  0  0  0  0  0  0  0
   58.4770   34.2350   44.2510 O   0  0  0  0  0  0  0  0  0  0  0  0
   58.3440   33.7040   46.8670 N   0  0  0  0  0  0  0  0  0  0  0  0
   58.2450   32.6790   47.8960 C   0  0  0  0  0  0  0  0  0  0  0  0
   59.4090   32.9530   48.8670 C   0  0  0  0  0  0  0  0  0  0  0  0
   60.3060   33.8820   48.1720 N   0  0  0  0  0  0  0  0  0  0  0  0
   61.7510   33.5930   48.0860 C   0  0  0  0  0  0  0  0  0  0  0  0
   62.3850   33.8900   46.7320 C   0  0  0  0  0  0  0  0  0  0  0  0
   63.6680   33.0820   46.7480 C   0  0  0  0  0  0  0  0  0  0  0  0
   63.3410   31.8170   47.5420 C   0  0  0  0  0  0  0  0  0  0  0  0
   62.0740   32.1190   48.3440 C   0  0  0  0  0  0  0  0  0  0  0  0
   59.5270   34.4430   47.1210 C   0  0  0  0  0  0  0  0  0  0  0  0
   59.6540   35.6820   46.7500 N   0  0  0  0  0  0  0  0  0  0  0  0
   56.7670   31.0120   44.3780 C   0  0  0  0  0  0  0  0  0  0  0  0
   56.8690   29.6370   44.1490 C   0  0  0  0  0  0  0  0  0  0  0  0
   58.7400   27.2200   46.6740 C   0  0  0  0  0  0  0  0  0  0  0  0
   58.2010   28.2190   47.5040 C   0  0  0  0  0  0  0  0  0  0  0  0
   58.9240   28.6940   48.6050 C   0  0  0  0  0  0  0  0  0  0  0  0
   60.1860   28.1710   48.8930 C   0  0  0  0  0  0  0  0  0  0  0  0
   61.0890   28.7670   50.2760 Cl  0  0  0  0  0  0  0  0  0  0  0  0
   60.7260   27.1710   48.0790 C   0  0  0  0  0  0  0  0  0  0  0  0
   60.0090   26.6990   46.9730 C   0  0  0  0  0  0  0  0  0  0  0  0
   56.7124   25.6758   46.7844 H   0  0  0  0  0  0  0  0  0  0  0  0
   55.9846   26.2383   45.2415 H   0  0  0  0  0  0  0  0  0  0  0  0
   57.1353   24.8590   45.2415 H   0  0  0  0  0  0  0  0  0  0  0  0
   59.1255   27.2175   43.7993 H   0  0  0  0  0  0  0  0  0  0  0  0
   57.3337   27.1509   43.5726 H   0  0  0  0  0  0  0  0  0  0  0  0
   60.0924   29.1467   45.1862 H   0  0  0  0  0  0  0  0  0  0  0  0
   59.9167   31.6052   45.5715 H   0  0  0  0  0  0  0  0  0  0  0  0
   57.2813   32.7538   48.4210 H   0  0  0  0  0  0  0  0  0  0  0  0
   58.3009   31.6668   47.4689 H   0  0  0  0  0  0  0  0  0  0  0  0
   59.0331   33.4075   49.7955 H   0  0  0  0  0  0  0  0  0  0  0  0
   59.9284   32.0241   49.1452 H   0  0  0  0  0  0  0  0  0  0  0  0
   62.1617   34.2606   48.8578 H   0  0  0  0  0  0  0  0  0  0  0  0
   61.7277   33.5653   45.9119 H   0  0  0  0  0  0  0  0  0  0  0  0
   62.5607   34.9639   46.5711 H   0  0  0  0  0  0  0  0  0  0  0  0
   63.9737   32.8249   45.7231 H   0  0  0  0  0  0  0  0  0  0  0  0
   64.4998   33.6439   47.1979 H   0  0  0  0  0  0  0  0  0  0  0  0
   63.1648   30.9742   46.8574 H   0  0  0  0  0  0  0  0  0  0  0  0
   64.1733   31.5391   48.2054 H   0  0  0  0  0  0  0  0  0  0  0  0
   61.2452   31.4810   48.0034 H   0  0  0  0  0  0  0  0  0  0  0  0
   62.2196   31.9207   49.4161 H   0  0  0  0  0  0  0  0  0  0  0  0
   59.7410   35.9350   45.7420 H   0  0  0  0  0  0  0  0  0  0  0  0
   59.5770   36.4620   47.4390 H   0  0  0  0  0  0  0  0  0  0  0  0
   55.8277   31.5378   44.1517 H   0  0  0  0  0  0  0  0  0  0  0  0
   56.0101   29.0853   43.7392 H   0  0  0  0  0  0  0  0  0  0  0  0
   57.2042   28.6303   47.2867 H   0  0  0  0  0  0  0  0  0  0  0  0
   58.4969   29.4807   49.2442 H   0  0  0  0  0  0  0  0  0  0  0  0
   61.7176   26.7536   48.3082 H   0  0  0  0  0  0  0  0  0  0  0  0
   60.4425   25.9152   46.3344 H   0  0  0  0  0  0  0  0  0  0  0  0
  1  2  1  0
  2  3  1  0
  3  4  1  0
  4  5  2  0
  5  6  1  0
  6  7  2  0
  7  8  1  0
  8  9  2  0
  8 10  2  0
  8 11  1  0
 11 12  1  0
 12 13  1  0
 13 14  1  0
 14 15  1  0
 15 16  1  0
 16 17  1  0
 17 18  1  0
 18 19  1  0
 14 20  1  0
 20 21  2  0
  7 22  1  0
 22 23  2  0
  2 24  1  0
 24 25  2  0
 25 26  1  0
 26 27  2  0
 27 28  1  0
 27 29  1  0
 29 30  2  0
 23  4  1  0
 30 24  1  0
 20 11  1  0
 19 15  1  0
  1 31  1  0
  1 32  1  0
  1 33  1  0
  3 34  1  0
  3 35  1  0
  5 36  1  0
  6 37  1  0
 12 38  1  0
 12 39  1  0
 13 40  1  0
 13 41  1  0
 15 42  1  0
 16 43  1  0
 16 44  1  0
 17 45  1  0
 17 46  1  0
 18 47  1  0
 18 48  1  0
 19 49  1  0
 19 50  1  0
 21 51  1  0
 21 52  1  0
 22 53  1  0
 23 54  1  0
 25 55  1  0
 26 56  1  0
 29 57  1  0
 30 58  1  0
M  CHG  1  21   1
M  END
>  <UniqueID>  (44) 
41

>  <SMILES>  (44) 
CN(Cc1ccc(S(=O)(=O)N2CCN(C3CCCC3)C2=[NH2+])cc1)c1ccc(Cl)cc1

>  <Energy>  (44) 
85.62217777731642

>  <Genealogy>  (44) 
CN(Cc1ccc(S(=O)(=O)N2CCN(C3CCCC3)C2=[NH2+])cc1)c1ccc(Cl)cc1 (protonated)
CN(Cc1ccc(S(=O)(=O)N2CCN(C3CCCC3)C2=[NH2+])cc1)c1ccc(Cl)cc1 (3D coordinates assigned)
CN(Cc1ccc(S(=O)(=O)N2CCN(C3CCCC3)C2=[NH2+])cc1)c1ccc(Cl)cc1 (nonaromatic ring conformer: 85.62217777731642 kcal/mol)

>  <smiles>  (44) 
CN(Cc1ccc(S(=O)(=O)N2CCN(C3CCCC3)C2=N)cc1)c1ccc(Cl)cc1

>  <score_type>  (44) 
oracle

>  <origin>  (44) 
adg

>  <m_score__min__energy>  (44) 
-8.9000000000000004

>  <m_primary>  (44) 
energy

$$$$
44:0
     RDKit          3D

 55 60  0  0  0  0  0  0  0  0999 V2000
   58.9521   30.6930   49.4198 H   0  0  0  0  0  0  0  0  0  0  0  0
   58.9750   31.2060   48.4470 C   0  0  0  0  0  0  0  0  0  0  0  0
   58.6910   32.5170   48.4350 C   0  0  0  0  0  0  0  0  0  0  0  0
   58.4919   33.0045   49.4008 H   0  0  0  0  0  0  0  0  0  0  0  0
   58.6260   33.3560   47.2160 C   0  0  0  0  0  0  0  0  0  0  0  0
   57.4740   33.3400   46.4080 C   0  0  0  0  0  0  0  0  0  0  0  0
   56.6148   32.7152   46.6933 H   0  0  0  0  0  0  0  0  0  0  0  0
   57.4150   34.1120   45.2470 C   0  0  0  0  0  0  0  0  0  0  0  0
   56.5133   34.0885   44.6174 H   0  0  0  0  0  0  0  0  0  0  0  0
   58.4980   34.9140   44.8830 C   0  0  0  0  0  0  0  0  0  0  0  0
   58.4515   35.5163   43.9638 H   0  0  0  0  0  0  0  0  0  0  0  0
   59.6400   34.9520   45.6850 C   0  0  0  0  0  0  0  0  0  0  0  0
   60.4913   35.5853   45.3948 H   0  0  0  0  0  0  0  0  0  0  0  0
   59.7080   34.1870   46.8590 C   0  0  0  0  0  0  0  0  0  0  0  0
   60.8970   34.2260   47.6600 N   0  0  0  0  0  0  0  0  0  0  0  0
   62.1850   33.7450   47.2680 C   0  0  0  0  0  0  0  0  0  0  0  0
   62.5130   33.4790   46.0810 O   0  0  0  0  0  0  0  0  0  0  0  0
   63.0270   33.5510   48.4430 C   0  0  0  0  0  0  0  0  0  0  0  0
   64.3470   33.1160   48.5560 C   0  0  0  0  0  0  0  0  0  0  0  0
   64.9393   32.8635   47.6641 H   0  0  0  0  0  0  0  0  0  0  0  0
   64.8980   33.0100   49.8470 C   0  0  0  0  0  0  0  0  0  0  0  0
   65.9381   32.6740   49.9708 H   0  0  0  0  0  0  0  0  0  0  0  0
   64.1250   33.3320   50.9850 C   0  0  0  0  0  0  0  0  0  0  0  0
   64.5675   33.2459   51.9884 H   0  0  0  0  0  0  0  0  0  0  0  0
   62.7930   33.7620   50.8430 C   0  0  0  0  0  0  0  0  0  0  0  0
   62.1808   34.0108   51.7224 H   0  0  0  0  0  0  0  0  0  0  0  0
   62.2730   33.8630   49.5540 C   0  0  0  0  0  0  0  0  0  0  0  0
   60.9480   34.2580   49.0900 C   0  0  0  0  0  0  0  0  0  0  0  0
   59.9750   34.5720   49.8260 O   0  0  0  0  0  0  0  0  0  0  0  0
   59.3160   30.3950   47.2600 C   0  0  0  0  0  0  0  0  0  0  0  0
   58.3080   29.7930   46.5710 N   0  0  0  0  0  0  0  0  0  0  0  0
   58.5350   29.0020   45.4860 C   0  0  0  0  0  0  0  0  0  0  0  0
   57.3910   28.3950   44.7820 C   0  0  0  0  0  0  0  0  0  0  0  0
   57.3650   28.3700   43.5210 O   0  0  0  0  0  0  0  0  0  0  0  0
   56.3100   27.8400   45.5500 N   0  0  0  0  0  0  0  0  0  0  0  0
   56.2120   26.6110   45.9630 C   0  0  0  0  0  0  0  0  0  0  0  0
   55.1160   25.8270   45.7640 N   0  0  0  0  0  0  0  0  0  0  0  0
   55.4750   24.6710   46.3530 C   0  0  0  0  0  0  0  0  0  0  0  0
   54.7280   23.4990   46.4550 C   0  0  0  0  0  0  0  0  0  0  0  0
   53.7163   23.4296   46.0287 H   0  0  0  0  0  0  0  0  0  0  0  0
   55.3140   22.4070   47.1230 C   0  0  0  0  0  0  0  0  0  0  0  0
   54.7561   21.4642   47.2225 H   0  0  0  0  0  0  0  0  0  0  0  0
   56.6150   22.5140   47.6670 C   0  0  0  0  0  0  0  0  0  0  0  0
   57.0623   21.6545   48.1877 H   0  0  0  0  0  0  0  0  0  0  0  0
   57.3410   23.7140   47.5460 C   0  0  0  0  0  0  0  0  0  0  0  0
   58.3536   23.8130   47.9642 H   0  0  0  0  0  0  0  0  0  0  0  0
   56.7290   24.7710   46.8770 C   0  0  0  0  0  0  0  0  0  0  0  0
   57.2140   25.9960   46.6380 N   0  0  0  0  0  0  0  0  0  0  0  0
   58.1450   26.3860   46.9090 H   0  0  0  0  0  0  0  0  0  0  0  0
   59.8550   28.7810   45.0590 C   0  0  0  0  0  0  0  0  0  0  0  0
   60.0558   28.1563   44.1761 H   0  0  0  0  0  0  0  0  0  0  0  0
   60.9080   29.3610   45.7650 C   0  0  0  0  0  0  0  0  0  0  0  0
   61.9460   29.1867   45.4455 H   0  0  0  0  0  0  0  0  0  0  0  0
   60.6460   30.1620   46.8760 C   0  0  0  0  0  0  0  0  0  0  0  0
   61.4743   30.6074   47.4465 H   0  0  0  0  0  0  0  0  0  0  0  0
  1  2  1  0
  2  3  2  0
  3  4  1  0
  3  5  1  0
  5  6  2  0
  6  7  1  0
  6  8  1  0
  8  9  1  0
  8 10  2  0
 10 11  1  0
 10 12  1  0
 12 13  1  0
 12 14  2  0
 14 15  1  0
 15 16  1  0
 16 17  2  0
 16 18  1  0
 18 19  2  0
 19 20  1  0
 19 21  1  0
 21 22  1  0
 21 23  2  0
 23 24  1  0
 23 25  1  0
 25 26  1  0
 25 27  2  0
 27 28  1  0
 28 29  2  0
  2 30  1  0
 30 31  2  0
 31 32  1  0
 32 33  1  0
 33 34  2  0
 33 35  1  0
 35 36  2  0
 36 37  1  0
 37 38  1  0
 38 39  2  0
 39 40  1  0
 39 41  1  0
 41 42  1  0
 41 43  2  0
 43 44  1  0
 43 45  1  0
 45 46  1  0
 45 47  2  0
 47 48  1  0
 48 49  1  0
 32 50  2  0
 50 51  1  0
 50 52  1  0
 52 53  1  0
 52 54  2  0
 54 55  1  0
 14  5  1  0
 28 15  1  0
 54 30  1  0
 27 18  1  0
 48 36  1  0
 47 38  1  0
M  CHG  1  37  -1
M  END
>  <UniqueID>  (45) 
42

>  <SMILES>  (45) 
O=C(/N=c1\[n-]c2ccccc2[nH]1)c1cccc(/C=C\c2ccccc2N2C(=O)c3ccccc3C2=O)n1

>  <Energy>  (45) 
152.21631782473136

>  <Genealogy>  (45) 
O=C(N=c1[n-]c2ccccc2[nH]1)c1cccc(C=Cc2ccccc2N2C(=O)c3ccccc3C2=O)n1 (protonated)
O=C(/N=c1\[n-]c2ccccc2[nH]1)c1cccc(/C=C\c2ccccc2N2C(=O)c3ccccc3C2=O)n1 (cis-trans isomerization)
O=C(/N=c1\[n-]c2ccccc2[nH]1)c1cccc(/C=C\c2ccccc2N2C(=O)c3ccccc3C2=O)n1 (3D coordinates assigned)
O=C(/N=c1\[n-]c2ccccc2[nH]1)c1cccc(/C=C\c2ccccc2N2C(=O)c3ccccc3C2=O)n1 (nonaromatic ring conformer: 152.21631782473136 kcal/mol)

>  <smiles>  (45) 
O=C(N=c1[nH]c2ccccc2[nH]1)c1cccc(C=Cc2ccccc2N2C(=O)c3ccccc3C2=O)n1

>  <score_type>  (45) 
oracle

>  <origin>  (45) 
adg

>  <m_score__min__energy>  (45) 
-12.33

>  <m_primary>  (45) 
energy

$$$$
45:0
     RDKit          3D

 46 49  0  0  0  0  0  0  0  0999 V2000
   55.9860   26.8290   45.9940 O   0  0  0  0  0  0  0  0  0  0  0  0
   56.5630   27.8180   45.4660 C   0  0  0  0  0  0  0  0  0  0  0  0
   57.9840   27.7000   45.0140 C   0  0  0  0  0  0  0  0  0  0  0  0
   58.8700   27.4670   46.1770 N   0  0  0  0  0  0  0  0  0  0  0  0
   58.3090   28.0360   47.4370 C   0  0  0  0  0  0  0  0  0  0  0  0
   59.3190   28.8490   48.2540 C   0  0  0  0  0  0  0  0  0  0  0  0
   59.9780   29.8330   47.3840 N   0  0  0  0  0  0  0  0  0  0  0  0
   60.1510   31.2080   47.8140 C   0  0  0  0  0  0  0  0  0  0  0  0
   59.0960   31.9350   48.4080 C   0  0  0  0  0  0  0  0  0  0  0  0
   59.3120   33.2500   48.8240 C   0  0  0  0  0  0  0  0  0  0  0  0
   60.5650   33.8400   48.6470 C   0  0  0  0  0  0  0  0  0  0  0  0
   61.5890   33.1020   48.0540 C   0  0  0  0  0  0  0  0  0  0  0  0
   61.3630   31.8190   47.6640 N   0  0  0  0  0  0  0  0  0  0  0  0
   60.4970   29.3720   46.0890 C   0  0  0  0  0  0  0  0  0  0  0  0
   60.2670   27.8660   45.8920 C   0  0  0  0  0  0  0  0  0  0  0  0
   55.8540   29.0390   45.2420 N   0  0  0  0  0  0  0  0  0  0  0  0
   55.8540   29.7300   43.9610 C   0  0  0  0  0  0  0  0  0  0  0  0
   56.7560   30.9170   44.0460 C   0  0  0  0  0  0  0  0  0  0  0  0
   56.9890   31.6080   45.1790 N   0  0  0  0  0  0  0  0  0  0  0  0
   57.7600   32.6130   44.7160 C   0  0  0  0  0  0  0  0  0  0  0  0
   58.3580   33.6670   45.5920 C   0  0  0  0  0  0  0  0  0  0  0  0
   59.8510   33.8680   45.4050 C   0  0  0  0  0  0  0  0  0  0  0  0
   58.8770   34.8900   44.8540 C   0  0  0  0  0  0  0  0  0  0  0  0
   57.9950   32.5210   43.3930 N   0  0  0  0  0  0  0  0  0  0  0  0
   57.3460   31.4630   43.0120 O   0  0  0  0  0  0  0  0  0  0  0  0
   58.0741   26.8569   44.3133 H   0  0  0  0  0  0  0  0  0  0  0  0
   58.2821   28.6342   44.5157 H   0  0  0  0  0  0  0  0  0  0  0  0
   57.4662   28.6927   47.1755 H   0  0  0  0  0  0  0  0  0  0  0  0
   58.0024   27.1852   48.0632 H   0  0  0  0  0  0  0  0  0  0  0  0
   58.7953   29.3723   49.0676 H   0  0  0  0  0  0  0  0  0  0  0  0
   60.0751   28.1721   48.6785 H   0  0  0  0  0  0  0  0  0  0  0  0
   58.1093   31.4676   48.5422 H   0  0  0  0  0  0  0  0  0  0  0  0
   58.4958   33.8208   49.2908 H   0  0  0  0  0  0  0  0  0  0  0  0
   60.7426   34.8758   48.9718 H   0  0  0  0  0  0  0  0  0  0  0  0
   62.5787   33.5573   47.9019 H   0  0  0  0  0  0  0  0  0  0  0  0
   59.9854   29.9197   45.2838 H   0  0  0  0  0  0  0  0  0  0  0  0
   61.5804   29.5608   46.0653 H   0  0  0  0  0  0  0  0  0  0  0  0
   60.5032   27.6058   44.8496 H   0  0  0  0  0  0  0  0  0  0  0  0
   60.9194   27.3316   46.5982 H   0  0  0  0  0  0  0  0  0  0  0  0
   56.2139   29.0494   43.1754 H   0  0  0  0  0  0  0  0  0  0  0  0
   54.8327   30.0574   43.7166 H   0  0  0  0  0  0  0  0  0  0  0  0
   57.6923   33.4999   46.4516 H   0  0  0  0  0  0  0  0  0  0  0  0
   60.4839   34.1215   46.2683 H   0  0  0  0  0  0  0  0  0  0  0  0
   60.6689   33.2668   44.9813 H   0  0  0  0  0  0  0  0  0  0  0  0
   58.8027   35.8847   45.3177 H   0  0  0  0  0  0  0  0  0  0  0  0
   58.6952   35.3371   43.8655 H   0  0  0  0  0  0  0  0  0  0  0  0
  1  2  2  0
  2  3  1  0
  3  4  1  0
  4  5  1  0
  5  6  1  0
  6  7  1  0
  7  8  1  0
  8  9  2  0
  9 10  1  0
 10 11  2  0
 11 12  1  0
 12 13  2  0
  7 14  1  0
 14 15  1  0
  2 16  1  0
 16 17  1  0
 17 18  1  0
 18 19  2  0
 19 20  1  0
 20 21  1  0
 21 22  1  0
 22 23  1  0
 20 24  2  0
 24 25  1  0
 15  4  1  0
 25 18  1  0
 13  8  1  0
 23 21  1  0
  3 26  1  0
  3 27  1  0
  5 28  1  0
  5 29  1  0
  6 30  1  0
  6 31  1  0
  9 32  1  0
 10 33  1  0
 11 34  1  0
 12 35  1  0
 14 36  1  0
 14 37  1  0
 15 38  1  0
 15 39  1  0
 17 40  1  0
 17 41  1  0
 21 42  1  0
 22 43  1  0
 22 44  1  0
 23 45  1  0
 23 46  1  0
M  CHG  1  16  -1
M  END
>  <UniqueID>  (46) 
43

>  <SMILES>  (46) 
O=C(CN1CCN(c2ccccn2)CC1)[N-]Cc1nc(C2CC2)no1

>  <Energy>  (46) 
349.87850786966715

>  <Genealogy>  (46) 
O=C(CN1CCN(c2ccccn2)CC1)[N-]Cc1nc(C2CC2)no1 (protonated)
O=C(CN1CCN(c2ccccn2)CC1)[N-]Cc1nc(C2CC2)no1 (3D coordinates assigned)
O=C(CN1CCN(c2ccccn2)CC1)[N-]Cc1nc(C2CC2)no1 (nonaromatic ring conformer: 349.87850786966715 kcal/mol)

>  <smiles>  (46) 
O=C(CN1CCN(c2ccccn2)CC1)NCc1nc(C2CC2)no1

>  <score_type>  (46) 
oracle

>  <origin>  (46) 
adg

>  <m_score__min__energy>  (46) 
-10.35

>  <m_primary>  (46) 
energy

$$$$
46:0
     RDKit          3D

 56 59  0  0  0  0  0  0  0  0999 V2000
   54.0480   26.3140   46.3720 H   0  0  0  0  0  0  0  0  0  0  0  0
   54.9830   26.3450   45.9800 O   0  0  0  0  0  0  0  0  0  0  0  0
   55.8990   25.3340   46.2480 C   0  0  0  0  0  0  0  0  0  0  0  0
   55.7180   24.3840   47.1810 N   0  0  0  0  0  0  0  0  0  0  0  0
   56.8530   23.6600   47.0880 C   0  0  0  0  0  0  0  0  0  0  0  0
   57.0790   22.6580   47.8160 O   0  0  0  0  0  0  0  0  0  0  0  0
   57.7310   24.1000   46.1610 N   0  0  0  0  0  0  0  0  0  0  0  0
   57.1000   25.1530   45.6100 C   0  0  0  0  0  0  0  0  0  0  0  0
   57.7000   26.0720   44.6290 C   0  0  0  0  0  0  0  0  0  0  0  0
   57.9605   25.6549   43.6450 H   0  0  0  0  0  0  0  0  0  0  0  0
   57.9580   27.3780   44.8300 C   0  0  0  0  0  0  0  0  0  0  0  0
   57.3790   28.3800   44.0680 C   0  0  0  0  0  0  0  0  0  0  0  0
   56.7148   28.2431   43.2020 H   0  0  0  0  0  0  0  0  0  0  0  0
   57.7940   29.5810   44.6020 C   0  0  0  0  0  0  0  0  0  0  0  0
   57.3670   30.9290   44.1030 C   0  0  0  0  0  0  0  0  0  0  0  0
   57.1584   31.5876   44.9590 H   0  0  0  0  0  0  0  0  0  0  0  0
   58.1709   31.3653   43.4920 H   0  0  0  0  0  0  0  0  0  0  0  0
   56.4585   30.8229   43.4920 H   0  0  0  0  0  0  0  0  0  0  0  0
   58.6230   29.3710   45.6490 N   0  0  0  0  0  0  0  0  0  0  0  0
   59.2700   30.4030   46.4160 C   0  0  0  0  0  0  0  0  0  0  0  0
   58.5100   31.3540   47.1110 C   0  0  0  0  0  0  0  0  0  0  0  0
   57.4124   31.3347   47.0416 H   0  0  0  0  0  0  0  0  0  0  0  0
   59.1410   32.3270   47.8920 C   0  0  0  0  0  0  0  0  0  0  0  0
   58.5373   33.0687   48.4355 H   0  0  0  0  0  0  0  0  0  0  0  0
   60.5410   32.3620   47.9860 C   0  0  0  0  0  0  0  0  0  0  0  0
   61.3410   33.5540   49.0220 S   0  0  0  0  0  0  0  0  0  0  0  0
   62.5130   34.1400   48.2840 O   0  0  0  0  0  0  0  0  0  0  0  0
   60.3680   34.6690   49.2880 O   0  0  0  0  0  0  0  0  0  0  0  0
   61.8850   32.9130   50.5620 N   0  0  0  0  0  0  0  0  0  0  0  0
   61.2220   33.5380   51.7200 C   0  0  0  0  0  0  0  0  0  0  0  0
   61.9742   33.6823   52.5096 H   0  0  0  0  0  0  0  0  0  0  0  0
   60.7890   34.4827   51.3594 H   0  0  0  0  0  0  0  0  0  0  0  0
   60.0540   32.7180   52.3110 C   0  0  0  0  0  0  0  0  0  0  0  0
   60.4085   32.2008   53.2148 H   0  0  0  0  0  0  0  0  0  0  0  0
   59.2369   33.4184   52.5384 H   0  0  0  0  0  0  0  0  0  0  0  0
   59.5320   31.7150   51.3680 N   0  0  0  0  0  0  0  0  0  0  0  0
   58.1320   31.3490   51.3560 C   0  0  0  0  0  0  0  0  0  0  0  0
   57.7540   30.3460   50.6870 O   0  0  0  0  0  0  0  0  0  0  0  0
   57.0980   32.1240   52.1170 C   0  0  0  0  0  0  0  0  0  0  0  0
   57.2663   31.9979   53.1967 H   0  0  0  0  0  0  0  0  0  0  0  0
   57.1733   33.1900   51.8563 H   0  0  0  0  0  0  0  0  0  0  0  0
   56.0960   31.7526   51.8563 H   0  0  0  0  0  0  0  0  0  0  0  0
   60.4740   30.8620   50.6310 C   0  0  0  0  0  0  0  0  0  0  0  0
   60.5004   29.8699   51.1054 H   0  0  0  0  0  0  0  0  0  0  0  0
   60.1283   30.7961   49.5888 H   0  0  0  0  0  0  0  0  0  0  0  0
   61.8910   31.4440   50.6230 C   0  0  0  0  0  0  0  0  0  0  0  0
   62.4090   31.1292   51.5409 H   0  0  0  0  0  0  0  0  0  0  0  0
   62.4059   31.0697   49.7259 H   0  0  0  0  0  0  0  0  0  0  0  0
   61.2980   31.3930   47.3110 C   0  0  0  0  0  0  0  0  0  0  0  0
   62.3944   31.3958   47.4000 H   0  0  0  0  0  0  0  0  0  0  0  0
   60.6670   30.4240   46.5260 C   0  0  0  0  0  0  0  0  0  0  0  0
   61.2696   29.6744   45.9921 H   0  0  0  0  0  0  0  0  0  0  0  0
   58.7660   28.0260   45.7790 C   0  0  0  0  0  0  0  0  0  0  0  0
   59.6430   27.4550   46.6190 C   0  0  0  0  0  0  0  0  0  0  0  0
   60.2190   28.0776   47.3195 H   0  0  0  0  0  0  0  0  0  0  0  0
   59.7859   26.3644   46.6071 H   0  0  0  0  0  0  0  0  0  0  0  0
  1  2  1  0
  2  3  1  0
  3  4  1  0
  4  5  1  0
  5  6  2  0
  5  7  1  0
  7  8  1  0
  8  9  1  0
  9 10  1  0
  9 11  2  0
 11 12  1  0
 12 13  1  0
 12 14  2  0
 14 15  1  0
 15 16  1  0
 15 17  1  0
 15 18  1  0
 14 19  1  0
 19 20  1  0
 20 21  2  0
 21 22  1  0
 21 23  1  0
 23 24  1  0
 23 25  2  0
 25 26  1  0
 26 27  2  0
 26 28  2  0
 26 29  1  0
 29 30  1  0
 30 31  1  0
 30 32  1  0
 30 33  1  0
 33 34  1  0
 33 35  1  0
 33 36  1  0
 36 37  1  0
 37 38  2  0
 37 39  1  0
 39 40  1  0
 39 41  1  0
 39 42  1  0
 36 43  1  0
 43 44  1  0
 43 45  1  0
 43 46  1  0
 46 47  1  0
 46 48  1  0
 25 49  1  0
 49 50  1  0
 49 51  2  0
 51 52  1  0
 19 53  1  0
 53 54  2  0
 54 55  1  0
 54 56  1  0
  8  3  2  0
 53 11  1  0
 51 20  1  0
 46 29  1  0
M  CHG  2   4  -1   7  -1
M  END
>  <UniqueID>  (47) 
44

>  <SMILES>  (47) 
C=c1/c(=C\c2[n-]c(=O)[n-]c2O)cc(C)n1-c1ccc(S(=O)(=O)N2CCN(C(C)=O)CC2)cc1

>  <Energy>  (47) 
137.56405652794808

>  <Genealogy>  (47) 
C=c1c(=Cc2[n-]c(=O)[n-]c2O)cc(C)n1-c1ccc(S(=O)(=O)N2CCN(C(C)=O)CC2)cc1 (protonated)
C=c1/c(=C\c2[n-]c(=O)[n-]c2O)cc(C)n1-c1ccc(S(=O)(=O)N2CCN(C(C)=O)CC2)cc1 (cis-trans isomerization)
C=c1/c(=C\c2[n-]c(=O)[n-]c2O)cc(C)n1-c1ccc(S(=O)(=O)N2CCN(C(C)=O)CC2)cc1 (3D coordinates assigned)
C=c1/c(=C\c2[n-]c(=O)[n-]c2O)cc(C)n1-c1ccc(S(=O)(=O)N2CCN(C(C)=O)CC2)cc1 (nonaromatic ring conformer: 137.56405652794808 kcal/mol)

>  <smiles>  (47) 
C=c1c(=Cc2[nH]c(=O)[nH]c2O)cc(C)n1-c1ccc(S(=O)(=O)N2CCN(C(C)=O)CC2)cc1

>  <score_type>  (47) 
oracle

>  <origin>  (47) 
adg

>  <m_score__min__energy>  (47) 
-14.02

>  <m_primary>  (47) 
energy

$$$$
47:0
     RDKit          3D

 43 45  0  0  0  0  0  0  0  0999 V2000
   62.6040   31.8750   47.4730 C   0  0  0  0  0  0  0  0  0  0  0  0
   62.7090   33.6400   47.2630 S   0  0  0  0  0  0  0  0  0  0  0  0
   63.4270   33.9750   45.9850 O   0  0  0  0  0  0  0  0  0  0  0  0
   63.4800   34.2160   48.4160 O   0  0  0  0  0  0  0  0  0  0  0  0
   61.1200   34.3370   47.2530 N   0  0  0  0  0  0  0  0  0  0  0  0
   60.0170   33.9000   46.4460 C   0  0  0  0  0  0  0  0  0  0  0  0
   59.3550   34.8460   45.6560 C   0  0  0  0  0  0  0  0  0  0  0  0
   58.2740   34.4690   44.8570 C   0  0  0  0  0  0  0  0  0  0  0  0
   57.8440   33.1410   44.8390 C   0  0  0  0  0  0  0  0  0  0  0  0
   58.4960   32.1720   45.6220 C   0  0  0  0  0  0  0  0  0  0  0  0
   58.0380   30.7590   45.6080 C   0  0  0  0  0  0  0  0  0  0  0  0
   58.5430   29.8330   46.5370 C   0  0  0  0  0  0  0  0  0  0  0  0
   58.1120   28.5040   46.5220 C   0  0  0  0  0  0  0  0  0  0  0  0
   57.1600   28.0710   45.5820 C   0  0  0  0  0  0  0  0  0  0  0  0
   56.7120   26.6560   45.5710 C   0  0  0  0  0  0  0  0  0  0  0  0
   55.8200   26.2820   46.3800 O   0  0  0  0  0  0  0  0  0  0  0  0
   57.2470   25.7220   44.6180 N   0  0  0  0  0  0  0  0  0  0  0  0
   57.1930   24.2950   44.7820 C   0  0  0  0  0  0  0  0  0  0  0  0
   56.9620   23.4370   43.6900 C   0  0  0  0  0  0  0  0  0  0  0  0
   56.8910   22.0550   43.8810 C   0  0  0  0  0  0  0  0  0  0  0  0
   57.0360   21.5150   45.1620 C   0  0  0  0  0  0  0  0  0  0  0  0
   57.2440   22.3590   46.2560 C   0  0  0  0  0  0  0  0  0  0  0  0
   57.3800   21.8220   47.5300 O   0  0  0  0  0  0  0  0  0  0  0  0
   57.3160   23.7430   46.0680 C   0  0  0  0  0  0  0  0  0  0  0  0
   56.6640   28.9940   44.6460 C   0  0  0  0  0  0  0  0  0  0  0  0
   57.0960   30.3230   44.6600 C   0  0  0  0  0  0  0  0  0  0  0  0
   59.5860   32.5610   46.4230 C   0  0  0  0  0  0  0  0  0  0  0  0
   62.5896   31.6336   48.5461 H   0  0  0  0  0  0  0  0  0  0  0  0
   61.6822   31.5038   47.0013 H   0  0  0  0  0  0  0  0  0  0  0  0
   63.4753   31.3971   47.0013 H   0  0  0  0  0  0  0  0  0  0  0  0
   59.6886   35.8942   45.6644 H   0  0  0  0  0  0  0  0  0  0  0  0
   57.7597   35.2205   44.2399 H   0  0  0  0  0  0  0  0  0  0  0  0
   56.9904   32.8510   44.2088 H   0  0  0  0  0  0  0  0  0  0  0  0
   59.2840   30.1574   47.2824 H   0  0  0  0  0  0  0  0  0  0  0  0
   58.5210   27.7900   47.2520 H   0  0  0  0  0  0  0  0  0  0  0  0
   57.5910   26.0950   43.7040 H   0  0  0  0  0  0  0  0  0  0  0  0
   56.8368   23.8570   42.6811 H   0  0  0  0  0  0  0  0  0  0  0  0
   56.7206   21.3902   43.0213 H   0  0  0  0  0  0  0  0  0  0  0  0
   56.9864   20.4260   45.3089 H   0  0  0  0  0  0  0  0  0  0  0  0
   57.4701   24.4042   46.9335 H   0  0  0  0  0  0  0  0  0  0  0  0
   55.9291   28.6676   43.8954 H   0  0  0  0  0  0  0  0  0  0  0  0
   56.6954   31.0342   43.9227 H   0  0  0  0  0  0  0  0  0  0  0  0
   60.1059   31.8108   47.0370 H   0  0  0  0  0  0  0  0  0  0  0  0
  1  2  1  0
  2  3  2  0
  2  4  2  0
  2  5  1  0
  5  6  1  0
  6  7  2  0
  7  8  1  0
  8  9  2  0
  9 10  1  0
 10 11  1  0
 11 12  2  0
 12 13  1  0
 13 14  2  0
 14 15  1  0
 15 16  2  0
 15 17  1  0
 17 18  1  0
 18 19  2  0
 19 20  1  0
 20 21  2  0
 21 22  1  0
 22 23  1  0
 22 24  2  0
 14 25  1  0
 25 26  2  0
 10 27  2  0
 27  6  1  0
 26 11  1  0
 24 18  1  0
  1 28  1  0
  1 29  1  0
  1 30  1  0
  7 31  1  0
  8 32  1  0
  9 33  1  0
 12 34  1  0
 13 35  1  0
 17 36  1  0
 19 37  1  0
 20 38  1  0
 21 39  1  0
 24 40  1  0
 25 41  1  0
 26 42  1  0
 27 43  1  0
M  CHG  2   5  -1  23  -1
M  END
>  <UniqueID>  (48) 
45

>  <SMILES>  (48) 
CS(=O)(=O)[N-]c1cccc(-c2ccc(C(=O)Nc3cccc([O-])c3)cc2)c1

>  <Energy>  (48) 
55.4098328162066

>  <Genealogy>  (48) 
CS(=O)(=O)[N-]c1cccc(-c2ccc(C(=O)Nc3cccc([O-])c3)cc2)c1 (protonated)
CS(=O)(=O)[N-]c1cccc(-c2ccc(C(=O)Nc3cccc([O-])c3)cc2)c1 (3D coordinates assigned)
CS(=O)(=O)[N-]c1cccc(-c2ccc(C(=O)Nc3cccc([O-])c3)cc2)c1 (optimized conformer: 55.4098328162066 kcal/mol)

>  <smiles>  (48) 
CS(=O)(=O)Nc1cccc(-c2ccc(C(=O)Nc3cccc(O)c3)cc2)c1

>  <score_type>  (48) 
oracle

>  <origin>  (48) 
adg

>  <m_score__min__energy>  (48) 
-12.550000000000001

>  <m_primary>  (48) 
energy

$$$$
48:0
     RDKit          3D

 49 52  0  0  0  0  0  0  0  0999 V2000
   53.5760   28.5360   53.6010 C   0  0  0  0  0  0  0  0  0  0  0  0
   54.5380   29.3000   53.0460 C   0  0  0  0  0  0  0  0  0  0  0  0
   55.8480   28.7790   53.0460 C   0  0  0  0  0  0  0  0  0  0  0  0
   56.9170   29.5110   52.5410 C   0  0  0  0  0  0  0  0  0  0  0  0
   56.7100   30.7790   51.9990 C   0  0  0  0  0  0  0  0  0  0  0  0
   57.8540   31.5430   51.4600 C   0  0  0  0  0  0  0  0  0  0  0  0
   57.9030   32.7880   51.6580 O   0  0  0  0  0  0  0  0  0  0  0  0
   58.9150   30.9000   50.7300 N   0  0  0  0  0  0  0  0  0  0  0  0
   60.2970   31.3640   50.7340 C   0  0  0  0  0  0  0  0  0  0  0  0
   60.9680   30.6930   49.5410 C   0  0  0  0  0  0  0  0  0  0  0  0
   60.0450   29.5300   49.1570 C   0  0  2  0  0  0  0  0  0  0  0  0
   60.0930   29.2250   47.7020 N   0  0  0  0  0  0  0  0  0  0  0  0
   59.0580   29.8610   46.8490 C   0  0  0  0  0  0  0  0  0  0  0  0
   58.1080   28.8330   46.2130 C   0  0  0  0  0  0  0  0  0  0  0  0
   57.8130   27.8120   47.1380 O   0  0  0  0  0  0  0  0  0  0  0  0
   58.9570   27.0090   47.3800 C   0  0  0  0  0  0  0  0  0  0  0  0
   60.2910   27.7910   47.4060 C   0  0  0  0  0  0  0  0  0  0  0  0
   58.6620   29.8940   49.7130 C   0  0  0  0  0  0  0  0  0  0  0  0
   55.4220   31.3250   51.9950 C   0  0  0  0  0  0  0  0  0  0  0  0
   54.3070   30.6100   52.5020 C   0  0  0  0  0  0  0  0  0  0  0  0
   53.0620   31.1540   52.4160 C   0  0  0  0  0  0  0  0  0  0  0  0
   52.2700   31.2810   51.1770 C   0  0  0  0  0  0  0  0  0  0  0  0
   52.2460   30.3430   50.2140 N   0  0  0  0  0  0  0  0  0  0  0  0
   51.3310   30.8140   49.3390 C   0  0  0  0  0  0  0  0  0  0  0  0
   51.0350   30.2090   48.2770 O   0  0  0  0  0  0  0  0  0  0  0  0
   50.7510   31.9790   49.6980 N   0  0  0  0  0  0  0  0  0  0  0  0
   51.3460   32.2550   50.8690 C   0  0  0  0  0  0  0  0  0  0  0  0
   51.0250   33.3550   51.6560 O   0  0  0  0  0  0  0  0  0  0  0  0
   52.5363   28.8942   53.6278 H   0  0  0  0  0  0  0  0  0  0  0  0
   53.8307   27.5544   54.0271 H   0  0  0  0  0  0  0  0  0  0  0  0
   56.0281   27.7733   53.4536 H   0  0  0  0  0  0  0  0  0  0  0  0
   57.9318   29.0874   52.5692 H   0  0  0  0  0  0  0  0  0  0  0  0
   60.3333   32.4582   50.6275 H   0  0  0  0  0  0  0  0  0  0  0  0
   60.8044   31.1115   51.6767 H   0  0  0  0  0  0  0  0  0  0  0  0
   61.0636   31.4010   48.7046 H   0  0  0  0  0  0  0  0  0  0  0  0
   61.9836   30.3469   49.7836 H   0  0  0  0  0  0  0  0  0  0  0  0
   60.3677   28.5755   49.5983 H   0  0  0  0  0  0  0  0  0  0  0  0
   58.4670   30.5525   47.4674 H   0  0  0  0  0  0  0  0  0  0  0  0
   59.5742   30.3891   46.0337 H   0  0  0  0  0  0  0  0  0  0  0  0
   57.1756   29.3346   45.9146 H   0  0  0  0  0  0  0  0  0  0  0  0
   58.5932   28.3910   45.3302 H   0  0  0  0  0  0  0  0  0  0  0  0
   58.8297   26.5129   48.3535 H   0  0  0  0  0  0  0  0  0  0  0  0
   59.0252   26.2985   46.5430 H   0  0  0  0  0  0  0  0  0  0  0  0
   60.9412   27.3563   48.1795 H   0  0  0  0  0  0  0  0  0  0  0  0
   60.7473   27.7126   46.4082 H   0  0  0  0  0  0  0  0  0  0  0  0
   58.0212   30.3020   48.9174 H   0  0  0  0  0  0  0  0  0  0  0  0
   58.1388   29.0172   50.1222 H   0  0  0  0  0  0  0  0  0  0  0  0
   55.2700   32.3355   51.5879 H   0  0  0  0  0  0  0  0  0  0  0  0
   52.6094   31.5295   53.3456 H   0  0  0  0  0  0  0  0  0  0  0  0
  1  2  2  0
  2  3  1  0
  3  4  2  0
  4  5  1  0
  5  6  1  0
  6  7  2  0
  6  8  1  0
  8  9  1  0
  9 10  1  0
 10 11  1  0
 11 12  1  0
 12 13  1  0
 13 14  1  0
 14 15  1  0
 15 16  1  0
 16 17  1  0
 11 18  1  0
  5 19  2  0
 19 20  1  0
 20 21  2  3
 21 22  1  0
 22 23  1  0
 23 24  1  0
 24 25  2  0
 24 26  1  0
 26 27  1  0
 27 28  1  0
 20  2  1  0
 27 22  2  0
 18  8  1  0
 17 12  1  0
  1 29  1  0
  1 30  1  0
  3 31  1  0
  4 32  1  0
  9 33  1  0
  9 34  1  0
 10 35  1  0
 10 36  1  0
 11 37  1  1
 13 38  1  0
 13 39  1  0
 14 40  1  0
 14 41  1  0
 16 42  1  0
 16 43  1  0
 17 44  1  0
 17 45  1  0
 18 46  1  0
 18 47  1  0
 19 48  1  0
 21 49  1  0
M  CHG  3  23  -1  26  -1  28  -1
M  END
>  <UniqueID>  (49) 
46

>  <SMILES>  (49) 
C=c1ccc(C(=O)N2CC[C@H](N3CCOCC3)C2)cc1=Cc1[n-]c(=O)[n-]c1[O-]

>  <Energy>  (49) 
121.03284138300474

>  <Genealogy>  (49) 
C=c1ccc(C(=O)N2CCC(N3CCOCC3)C2)cc1=Cc1[n-]c(=O)[n-]c1[O-] (protonated)
C=c1ccc(C(=O)N2CC[C@H](N3CCOCC3)C2)cc1=Cc1[n-]c(=O)[n-]c1[O-] (chirality)
C=c1ccc(C(=O)N2CC[C@H](N3CCOCC3)C2)cc1=Cc1[n-]c(=O)[n-]c1[O-] (3D coordinates assigned)
C=c1ccc(C(=O)N2CC[C@H](N3CCOCC3)C2)cc1=Cc1[n-]c(=O)[n-]c1[O-] (nonaromatic ring conformer: 121.03284138300474 kcal/mol)

>  <smiles>  (49) 
C=c1ccc(C(=O)N2CCC(N3CCOCC3)C2)cc1=Cc1[nH]c(=O)[nH]c1O

>  <score_type>  (49) 
oracle

>  <origin>  (49) 
adg

>  <m_score__min__energy>  (49) 
-17.829999999999998

>  <m_primary>  (49) 
energy

$$$$
49:0
     RDKit          3D

 30 30  0  0  0  0  0  0  0  0999 V2000
   60.8020   28.9590   44.9990 C   0  0  0  0  0  0  0  0  0  0  0  0
   60.4720   28.5300   46.2240 C   0  0  0  0  0  0  0  0  0  0  0  0
   60.0960   27.0770   46.4180 C   0  0  0  0  0  0  0  0  0  0  0  0
   58.6020   26.9050   46.3280 C   0  0  0  0  0  0  0  0  0  0  0  0
   58.0060   25.7150   46.7690 C   0  0  0  0  0  0  0  0  0  0  0  0
   56.6260   25.5340   46.6530 C   0  0  0  0  0  0  0  0  0  0  0  0
   55.8300   26.5340   46.0860 C   0  0  0  0  0  0  0  0  0  0  0  0
   54.4590   26.3380   45.9730 O   0  0  0  0  0  0  0  0  0  0  0  0
   56.4090   27.7270   45.6310 C   0  0  0  0  0  0  0  0  0  0  0  0
   55.5770   28.7010   45.0570 O   0  0  0  0  0  0  0  0  0  0  0  0
   56.0240   29.7240   44.1740 C   0  0  0  0  0  0  0  0  0  0  0  0
   57.8000   27.9080   45.7580 C   0  0  0  0  0  0  0  0  0  0  0  0
   60.3750   29.5010   47.3480 C   0  0  0  0  0  0  0  0  0  0  0  0
   61.2080   30.4460   47.4260 O   0  0  0  0  0  0  0  0  0  0  0  0
   59.3480   29.3890   48.3450 N   0  0  0  0  0  0  0  0  0  0  0  0
   59.0760   30.4700   49.2840 C   0  0  0  0  0  0  0  0  0  0  0  0
   61.0778   30.0120   44.8408 H   0  0  0  0  0  0  0  0  0  0  0  0
   60.7972   28.2583   44.1510 H   0  0  0  0  0  0  0  0  0  0  0  0
   60.5784   26.4704   45.6374 H   0  0  0  0  0  0  0  0  0  0  0  0
   60.4336   26.7506   47.4127 H   0  0  0  0  0  0  0  0  0  0  0  0
   58.6277   24.9208   47.2081 H   0  0  0  0  0  0  0  0  0  0  0  0
   56.1637   24.6015   47.0089 H   0  0  0  0  0  0  0  0  0  0  0  0
   56.3967   30.5771   44.7600 H   0  0  0  0  0  0  0  0  0  0  0  0
   56.8334   29.3331   43.5398 H   0  0  0  0  0  0  0  0  0  0  0  0
   55.1873   30.0524   43.5398 H   0  0  0  0  0  0  0  0  0  0  0  0
   58.2625   28.8427   45.4079 H   0  0  0  0  0  0  0  0  0  0  0  0
   58.7860   28.5140   48.4330 H   0  0  0  0  0  0  0  0  0  0  0  0
   59.1706   30.0940   50.3134 H   0  0  0  0  0  0  0  0  0  0  0  0
   59.7970   31.2851   49.1236 H   0  0  0  0  0  0  0  0  0  0  0  0
   58.0551   30.8468   49.1236 H   0  0  0  0  0  0  0  0  0  0  0  0
  1  2  2  0
  2  3  1  0
  3  4  1  0
  4  5  2  0
  5  6  1  0
  6  7  2  0
  7  8  1  0
  7  9  1  0
  9 10  1  0
 10 11  1  0
  9 12  2  0
  2 13  1  0
 13 14  2  0
 13 15  1  0
 15 16  1  0
 12  4  1  0
  1 17  1  0
  1 18  1  0
  3 19  1  0
  3 20  1  0
  5 21  1  0
  6 22  1  0
 11 23  1  0
 11 24  1  0
 11 25  1  0
 12 26  1  0
 15 27  1  0
 16 28  1  0
 16 29  1  0
 16 30  1  0
M  CHG  1   8  -1
M  END
>  <UniqueID>  (50) 
47

>  <SMILES>  (50) 
C=C(Cc1ccc([O-])c(OC)c1)C(=O)NC

>  <Energy>  (50) 
24.248980905271658

>  <Genealogy>  (50) 
C=C(Cc1ccc([O-])c(OC)c1)C(=O)NC (protonated)
C=C(Cc1ccc([O-])c(OC)c1)C(=O)NC (3D coordinates assigned)
C=C(Cc1ccc([O-])c(OC)c1)C(=O)NC (optimized conformer: 24.248980905271658 kcal/mol)

>  <smiles>  (50) 
C=C(Cc1ccc(O)c(OC)c1)C(=O)NC

>  <score_type>  (50) 
oracle

>  <origin>  (50) 
adg

>  <m_score__min__energy>  (50) 
-9.4299999999999997

>  <m_primary>  (50) 
energy

$$$$
50:0
     RDKit          3D

 43 46  0  0  0  0  0  0  0  0999 V2000
   59.6400   35.2120   45.7710 C   0  0  0  0  0  0  0  0  0  0  0  0
   58.8780   33.8830   45.8270 C   0  0  0  0  0  0  0  0  0  0  0  0
   59.4800   32.9170   46.7580 N   0  0  0  0  0  0  0  0  0  0  0  0
   60.7980   32.7640   47.0060 C   0  0  0  0  0  0  0  0  0  0  0  0
   61.0040   31.6650   47.8150 C   0  0  0  0  0  0  0  0  0  0  0  0
   59.7590   31.1030   48.0310 C   0  0  0  0  0  0  0  0  0  0  0  0
   59.4820   29.9050   48.8490 C   0  0  0  0  0  0  0  0  0  0  0  0
   59.1690   30.0580   50.0610 O   0  0  0  0  0  0  0  0  0  0  0  0
   59.5440   28.5350   48.2920 C   0  0  0  0  0  0  0  0  0  0  0  0
   60.7390   27.7980   48.3120 C   0  0  0  0  0  0  0  0  0  0  0  0
   60.7580   26.5010   47.7980 C   0  0  0  0  0  0  0  0  0  0  0  0
   59.6240   25.9520   47.2900 N   0  0  0  0  0  0  0  0  0  0  0  0
   58.4450   26.6350   47.2570 C   0  0  0  0  0  0  0  0  0  0  0  0
   57.3640   26.0860   46.7820 N   0  0  0  0  0  0  0  0  0  0  0  0
   56.3590   26.7530   46.0060 C   0  0  0  0  0  0  0  0  0  0  0  0
   55.1870   26.2930   46.0080 O   0  0  0  0  0  0  0  0  0  0  0  0
   56.6380   27.9960   45.2620 C   0  0  0  0  0  0  0  0  0  0  0  0
   57.8020   28.2850   44.5690 C   0  0  0  0  0  0  0  0  0  0  0  0
   57.6490   29.5580   44.0690 C   0  0  0  0  0  0  0  0  0  0  0  0
   56.4070   29.9780   44.4940 C   0  0  0  0  0  0  0  0  0  0  0  0
   55.8470   31.2210   44.2150 O   0  0  0  0  0  0  0  0  0  0  0  0
   55.7810   29.0390   45.2270 N   0  0  0  0  0  0  0  0  0  0  0  0
   58.3840   27.9330   47.7770 C   0  0  0  0  0  0  0  0  0  0  0  0
   58.8420   31.8930   47.3610 C   0  0  0  0  0  0  0  0  0  0  0  0
   57.3700   34.0160   45.9630 C   0  0  0  0  0  0  0  0  0  0  0  0
   57.1390   33.4760   44.6830 O   0  0  0  0  0  0  0  0  0  0  0  0
   58.5210   33.2950   44.4730 C   0  0  0  0  0  0  0  0  0  0  0  0
   59.8411   35.5627   46.7940 H   0  0  0  0  0  0  0  0  0  0  0  0
   60.5920   35.0667   45.2394 H   0  0  0  0  0  0  0  0  0  0  0  0
   59.0337   35.9602   45.2394 H   0  0  0  0  0  0  0  0  0  0  0  0
   61.5922   33.4197   46.6196 H   0  0  0  0  0  0  0  0  0  0  0  0
   61.9666   31.3074   48.2094 H   0  0  0  0  0  0  0  0  0  0  0  0
   61.6549   28.2406   48.7305 H   0  0  0  0  0  0  0  0  0  0  0  0
   61.6932   25.9218   47.8041 H   0  0  0  0  0  0  0  0  0  0  0  0
   58.6750   27.6277   44.4433 H   0  0  0  0  0  0  0  0  0  0  0  0
   58.3682   30.1227   43.4575 H   0  0  0  0  0  0  0  0  0  0  0  0
   56.3980   32.0680   44.2870 H   0  0  0  0  0  0  0  0  0  0  0  0
   57.4299   28.4804   47.7824 H   0  0  0  0  0  0  0  0  0  0  0  0
   57.7574   31.7133   47.3254 H   0  0  0  0  0  0  0  0  0  0  0  0
   56.9482   33.4087   46.7774 H   0  0  0  0  0  0  0  0  0  0  0  0
   56.9428   34.9989   46.2108 H   0  0  0  0  0  0  0  0  0  0  0  0
   58.8130   32.2402   44.3626 H   0  0  0  0  0  0  0  0  0  0  0  0
   58.9821   33.7209   43.5697 H   0  0  0  0  0  0  0  0  0  0  0  0
  1  2  1  0
  2  3  1  0
  3  4  1  0
  4  5  2  0
  5  6  1  0
  6  7  1  0
  7  8  2  0
  7  9  1  0
  9 10  1  0
 10 11  2  0
 11 12  1  0
 12 13  1  0
 13 14  2  3
 14 15  1  0
 15 16  2  0
 15 17  1  0
 17 18  2  0
 18 19  1  0
 19 20  2  0
 20 21  1  0
 20 22  1  0
 13 23  1  0
  6 24  2  0
  2 25  1  0
 25 26  1  0
 26 27  1  0
 27  2  1  0
 24  3  1  0
 23  9  2  0
 22 17  1  0
  1 28  1  0
  1 29  1  0
  1 30  1  0
  4 31  1  0
  5 32  1  0
 10 33  1  0
 11 34  1  0
 18 35  1  0
 19 36  1  0
 21 37  1  0
 23 38  1  0
 24 39  1  0
 25 40  1  0
 25 41  1  0
 27 42  1  0
 27 43  1  0
M  CHG  2  12  -1  22  -1
M  END
>  <UniqueID>  (51) 
48

>  <SMILES>  (51) 
CC1(n2ccc(C(=O)c3cc[n-]c(=NC(=O)c4ccc(O)[n-]4)c3)c2)COC1

>  <Energy>  (51) 
171.80290675215696

>  <Genealogy>  (51) 
CC1(n2ccc(C(=O)c3cc[n-]c(=NC(=O)c4ccc(O)[n-]4)c3)c2)COC1 (protonated)
CC1(n2ccc(C(=O)c3cc[n-]c(=NC(=O)c4ccc(O)[n-]4)c3)c2)COC1 (3D coordinates assigned)
CC1(n2ccc(C(=O)c3cc[n-]c(=NC(=O)c4ccc(O)[n-]4)c3)c2)COC1 (nonaromatic ring conformer: 171.80290675215696 kcal/mol)

>  <smiles>  (51) 
CC1(n2ccc(C(=O)c3cc[nH]c(=NC(=O)c4ccc(O)[nH]4)c3)c2)COC1

>  <score_type>  (51) 
oracle

>  <origin>  (51) 
adg

>  <m_score__min__energy>  (51) 
-12.92

>  <m_primary>  (51) 
energy

$$$$
51:0
     RDKit          3D

 26 27  0  0  0  0  0  0  0  0999 V2000
   59.5077   32.2676   50.9640 H   0  0  0  0  0  0  0  0  0  0  0  0
   58.6370   31.7910   50.4900 C   0  0  0  0  0  0  0  0  0  0  0  0
   58.9741   30.9516   49.8641 H   0  0  0  0  0  0  0  0  0  0  0  0
   58.1115   32.5273   49.8641 H   0  0  0  0  0  0  0  0  0  0  0  0
   57.7090   31.2830   51.5480 C   0  0  0  0  0  0  0  0  0  0  0  0
   56.6830   30.4400   51.2510 N   0  0  0  0  0  0  0  0  0  0  0  0
   55.9740   30.1020   52.3490 C   0  0  0  0  0  0  0  0  0  0  0  0
   54.9250   29.3360   52.2790 N   0  0  0  0  0  0  0  0  0  0  0  0
   53.5740   29.6710   52.6340 C   0  0  0  0  0  0  0  0  0  0  0  0
   52.8760   28.8080   53.2270 O   0  0  0  0  0  0  0  0  0  0  0  0
   53.0020   31.0500   52.4310 C   0  0  0  0  0  0  0  0  0  0  0  0
   52.3691   31.3071   53.2932 H   0  0  0  0  0  0  0  0  0  0  0  0
   53.8339   31.7634   52.3363 H   0  0  0  0  0  0  0  0  0  0  0  0
   52.1760   31.1120   51.1810 C   0  0  0  0  0  0  0  0  0  0  0  0
   52.1830   29.9660   49.9460 S   0  0  0  0  0  0  0  0  0  0  0  0
   51.0530   30.8170   49.0380 C   0  0  0  0  0  0  0  0  0  0  0  0
   50.6170   30.4430   47.9190 O   0  0  0  0  0  0  0  0  0  0  0  0
   50.6570   31.9590   49.6370 N   0  0  0  0  0  0  0  0  0  0  0  0
   51.2830   32.1230   50.8330 C   0  0  0  0  0  0  0  0  0  0  0  0
   51.0380   33.2290   51.6380 O   0  0  0  0  0  0  0  0  0  0  0  0
   56.5720   30.8590   53.7340 S   0  0  0  0  0  0  0  0  0  0  0  0
   57.8170   31.6210   52.8970 C   0  0  0  0  0  0  0  0  0  0  0  0
   58.8120   32.5550   53.5060 C   0  0  0  0  0  0  0  0  0  0  0  0
   58.7480   32.4949   54.6025 H   0  0  0  0  0  0  0  0  0  0  0  0
   59.8249   32.2740   53.1819 H   0  0  0  0  0  0  0  0  0  0  0  0
   58.5955   33.5836   53.1819 H   0  0  0  0  0  0  0  0  0  0  0  0
  1  2  1  0
  2  3  1  0
  2  4  1  0
  2  5  1  0
  5  6  1  0
  6  7  1  0
  7  8  2  0
  8  9  1  0
  9 10  2  0
  9 11  1  0
 11 12  1  0
 11 13  1  0
 11 14  1  0
 14 15  1  0
 15 16  1  0
 16 17  2  0
 16 18  1  0
 18 19  1  0
 19 20  1  0
  7 21  1  0
 21 22  1  0
 22 23  1  0
 23 24  1  0
 23 25  1  0
 23 26  1  0
 22  5  2  0
 19 14  2  0
M  CHG  3   6  -1  18  -1  20  -1
M  END
>  <UniqueID>  (52) 
49

>  <SMILES>  (52) 
Cc1[n-]/c(=N/C(=O)Cc2sc(=O)[n-]c2[O-])sc1C

>  <Energy>  (52) 
89.86541010554697

>  <Genealogy>  (52) 
Cc1[n-]c(=NC(=O)Cc2sc(=O)[n-]c2[O-])sc1C (protonated)
Cc1[n-]/c(=N/C(=O)Cc2sc(=O)[n-]c2[O-])sc1C (cis-trans isomerization)
Cc1[n-]/c(=N/C(=O)Cc2sc(=O)[n-]c2[O-])sc1C (3D coordinates assigned)
Cc1[n-]/c(=N/C(=O)Cc2sc(=O)[n-]c2[O-])sc1C (optimized conformer: 89.86541010554697 kcal/mol)

>  <smiles>  (52) 
Cc1[nH]c(=NC(=O)Cc2sc(=O)[nH]c2O)sc1C

>  <score_type>  (52) 
oracle

>  <origin>  (52) 
adg

>  <m_score__min__energy>  (52) 
-14.92

>  <m_primary>  (52) 
energy

$$$$
52:0
     RDKit          3D

 50 53  0  0  0  0  0  0  0  0999 V2000
   60.6018   30.1985   47.6984 H   0  0  0  0  0  0  0  0  0  0  0  0
   59.8170   30.0920   46.9350 C   0  0  0  0  0  0  0  0  0  0  0  0
   59.3707   29.1059   46.7389 H   0  0  0  0  0  0  0  0  0  0  0  0
   59.4040   31.1650   46.2430 C   0  0  0  0  0  0  0  0  0  0  0  0
   58.4210   31.2100   45.2410 C   0  0  0  0  0  0  0  0  0  0  0  0
   57.7850   30.2230   44.5800 C   0  0  0  0  0  0  0  0  0  0  0  0
   57.6240   30.3631   43.5009 H   0  0  0  0  0  0  0  0  0  0  0  0
   57.2870   28.9730   45.1780 C   0  0  0  0  0  0  0  0  0  0  0  0
   58.0660   27.9520   45.5780 N   0  0  0  0  0  0  0  0  0  0  0  0
   57.1740   26.9940   45.9160 C   0  0  0  0  0  0  0  0  0  0  0  0
   57.5230   25.8700   46.3630 O   0  0  0  0  0  0  0  0  0  0  0  0
   55.8810   27.3330   45.7280 N   0  0  0  0  0  0  0  0  0  0  0  0
   55.9720   28.5830   45.2470 C   0  0  0  0  0  0  0  0  0  0  0  0
   54.8760   29.3490   44.8720 O   0  0  0  0  0  0  0  0  0  0  0  0
   58.1880   32.5530   44.9860 C   0  0  0  0  0  0  0  0  0  0  0  0
   57.4461   32.9689   44.2884 H   0  0  0  0  0  0  0  0  0  0  0  0
   59.0650   33.2670   45.7750 C   0  0  0  0  0  0  0  0  0  0  0  0
   59.1670   34.7620   45.8170 C   0  0  0  0  0  0  0  0  0  0  0  0
   59.1900   35.0987   46.8640 H   0  0  0  0  0  0  0  0  0  0  0  0
   60.0890   35.0810   45.3089 H   0  0  0  0  0  0  0  0  0  0  0  0
   58.2969   35.2033   45.3089 H   0  0  0  0  0  0  0  0  0  0  0  0
   59.8010   32.4290   46.5330 N   0  0  0  0  0  0  0  0  0  0  0  0
   60.7700   32.8310   47.5160 C   0  0  0  0  0  0  0  0  0  0  0  0
   62.1130   32.9500   47.1420 C   0  0  0  0  0  0  0  0  0  0  0  0
   62.4117   32.7428   46.1038 H   0  0  0  0  0  0  0  0  0  0  0  0
   63.0760   33.3300   48.0780 C   0  0  0  0  0  0  0  0  0  0  0  0
   64.1271   33.4331   47.7704 H   0  0  0  0  0  0  0  0  0  0  0  0
   62.7110   33.5810   49.4080 C   0  0  0  0  0  0  0  0  0  0  0  0
   63.7230   33.9930   50.4000 C   0  0  0  0  0  0  0  0  0  0  0  0
   63.4600   34.9530   51.1750 O   0  0  0  0  0  0  0  0  0  0  0  0
   64.9920   33.3220   50.5080 N   0  0  0  0  0  0  0  0  0  0  0  0
   66.1240   33.8970   51.2150 C   0  0  0  0  0  0  0  0  0  0  0  0
   66.5961   34.6827   50.6069 H   0  0  0  0  0  0  0  0  0  0  0  0
   65.8150   34.3619   52.1628 H   0  0  0  0  0  0  0  0  0  0  0  0
   67.0980   32.7480   51.4460 C   0  0  0  0  0  0  0  0  0  0  0  0
   68.1233   33.0607   51.1991 H   0  0  0  0  0  0  0  0  0  0  0  0
   67.0992   32.4265   52.4980 H   0  0  0  0  0  0  0  0  0  0  0  0
   66.6490   31.6220   50.5180 C   0  0  0  0  0  0  0  0  0  0  0  0
   67.2679   31.6061   49.6087 H   0  0  0  0  0  0  0  0  0  0  0  0
   66.7514   30.6380   50.9988 H   0  0  0  0  0  0  0  0  0  0  0  0
   65.1990   31.9230   50.1660 C   0  0  0  0  0  0  0  0  0  0  0  0
   65.0236   31.7608   49.0923 H   0  0  0  0  0  0  0  0  0  0  0  0
   64.5047   31.2655   50.7098 H   0  0  0  0  0  0  0  0  0  0  0  0
   61.3610   33.4870   49.7800 C   0  0  0  0  0  0  0  0  0  0  0  0
   61.0662   33.7055   50.8170 H   0  0  0  0  0  0  0  0  0  0  0  0
   60.3820   33.1170   48.8430 C   0  0  0  0  0  0  0  0  0  0  0  0
   58.9460   32.9890   49.2700 C   0  0  0  0  0  0  0  0  0  0  0  0
   58.8892   32.9839   50.3685 H   0  0  0  0  0  0  0  0  0  0  0  0
   58.3694   33.8393   48.8769 H   0  0  0  0  0  0  0  0  0  0  0  0
   58.5289   32.0501   48.8769 H   0  0  0  0  0  0  0  0  0  0  0  0
  1  2  1  0
  2  3  1  0
  2  4  2  0
  4  5  1  0
  5  6  2  0
  6  7  1  0
  6  8  1  0
  8  9  1  0
  9 10  1  0
 10 11  2  0
 10 12  1  0
 12 13  1  0
 13 14  1  0
  5 15  1  0
 15 16  1  0
 15 17  2  0
 17 18  1  0
 18 19  1  0
 18 20  1  0
 18 21  1  0
 17 22  1  0
 22 23  1  0
 23 24  2  0
 24 25  1  0
 24 26  1  0
 26 27  1  0
 26 28  2  0
 28 29  1  0
 29 30  2  0
 29 31  1  0
 31 32  1  0
 32 33  1  0
 32 34  1  0
 32 35  1  0
 35 36  1  0
 35 37  1  0
 35 38  1  0
 38 39  1  0
 38 40  1  0
 38 41  1  0
 41 42  1  0
 41 43  1  0
 28 44  1  0
 44 45  1  0
 44 46  2  0
 46 47  1  0
 47 48  1  0
 47 49  1  0
 47 50  1  0
 22  4  1  0
 46 23  1  0
 13  8  2  0
 41 31  1  0
M  CHG  3   9  -1  12  -1  14  -1
M  END
>  <UniqueID>  (53) 
50

>  <SMILES>  (53) 
C=c1/c(=C\c2[n-]c(=O)[n-]c2[O-])cc(C)n1-c1ccc(C(=O)N2CCCC2)cc1C

>  <Energy>  (53) 
131.81243886722092

>  <Genealogy>  (53) 
C=c1c(=Cc2[n-]c(=O)[n-]c2[O-])cc(C)n1-c1ccc(C(=O)N2CCCC2)cc1C (protonated)
C=c1/c(=C\c2[n-]c(=O)[n-]c2[O-])cc(C)n1-c1ccc(C(=O)N2CCCC2)cc1C (cis-trans isomerization)
C=c1/c(=C\c2[n-]c(=O)[n-]c2[O-])cc(C)n1-c1ccc(C(=O)N2CCCC2)cc1C (3D coordinates assigned)
C=c1/c(=C\c2[n-]c(=O)[n-]c2[O-])cc(C)n1-c1ccc(C(=O)N2CCCC2)cc1C (nonaromatic ring conformer: 131.81243886722092 kcal/mol)

>  <smiles>  (53) 
C=c1c(=Cc2[nH]c(=O)[nH]c2O)cc(C)n1-c1ccc(C(=O)N2CCCC2)cc1C

>  <score_type>  (53) 
oracle

>  <origin>  (53) 
adg

>  <m_score__min__energy>  (53) 
-15.789999999999999

>  <m_primary>  (53) 
energy

$$$$
53:0
     RDKit          3D

 31 32  0  0  1  0  0  0  0  0999 V2000
   55.8500   29.6050   44.9350 N   0  0  0  0  0  0  0  0  0  0  0  0
   56.5350   30.4830   44.2540 C   0  0  0  0  0  0  0  0  0  0  0  0
   57.3250   31.3590   44.9380 C   0  0  0  0  0  0  0  0  0  0  0  0
   58.0810   32.3210   44.2570 C   0  0  0  0  0  0  0  0  0  0  0  0
   58.9250   33.2550   44.9920 C   0  0  0  0  0  0  0  0  0  0  0  0
   58.9330   33.3520   46.3120 C   0  0  0  0  0  0  0  0  0  0  0  0
   60.1750   33.0990   47.0360 C   0  0  0  0  0  0  0  0  0  0  0  0
   61.3630   33.3050   46.4260 N   0  0  0  0  0  0  0  0  0  0  0  0
   62.5290   33.0700   47.0970 C   0  0  0  0  0  0  0  0  0  0  0  0
   63.6430   33.2800   46.4760 N   0  0  0  0  0  0  0  0  0  0  0  0
   62.5130   32.6190   48.4130 C   0  0  0  0  0  0  0  0  0  0  0  0
   63.7320   32.3650   49.1400 C   0  0  0  0  0  0  0  0  0  0  0  0
   64.9180   33.0880   48.8970 N   0  0  0  0  0  0  0  0  0  0  0  0
   63.7640   31.4750   50.0270 O   0  0  0  0  0  0  0  0  0  0  0  0
   61.2840   32.4190   49.0070 C   0  0  0  0  0  0  0  0  0  0  0  0
   60.1350   32.6620   48.3100 N   0  0  0  0  0  0  0  0  0  0  0  0
   57.9650   32.3110   42.8900 C   0  0  0  0  0  0  0  0  0  0  0  0
   57.1500   31.4070   42.2090 C   0  0  0  0  0  0  0  0  0  0  0  0
   56.4430   30.5000   42.9220 N   0  0  0  0  0  0  0  0  0  0  0  0
   55.8400   29.7490   45.9680 H   0  0  0  0  0  0  0  0  0  0  0  0
   57.3689   31.3094   46.0360 H   0  0  0  0  0  0  0  0  0  0  0  0
   59.5918   33.9154   44.4182 H   0  0  0  0  0  0  0  0  0  0  0  0
   58.0155   33.6198   46.8564 H   0  0  0  0  0  0  0  0  0  0  0  0
   64.4520   32.6800   46.7270 H   0  0  0  0  0  0  0  0  0  0  0  0
   65.3800   33.1510   47.9430 H   0  0  0  0  0  0  0  0  0  0  0  0
   65.4380   33.6270   49.6520 H   0  0  0  0  0  0  0  0  0  0  0  0
   61.2293   32.0624   50.0462 H   0  0  0  0  0  0  0  0  0  0  0  0
   59.2050   32.4980   48.7970 H   0  0  0  0  0  0  0  0  0  0  0  0
   58.5386   33.0465   42.3069 H   0  0  0  0  0  0  0  0  0  0  0  0
   57.0831   31.4309   41.1113 H   0  0  0  0  0  0  0  0  0  0  0  0
   55.8290   29.8180   42.4070 H   0  0  0  0  0  0  0  0  0  0  0  0
  1  2  2  3
  2  3  1  0
  3  4  2  0
  4  5  1  0
  5  6  2  0
  6  7  1  0
  7  8  2  0
  8  9  1  0
  9 10  2  3
  9 11  1  0
 11 12  1  0
 12 13  1  0
 12 14  2  0
 11 15  2  0
 15 16  1  0
  4 17  1  0
 17 18  2  0
 18 19  1  0
 19  2  1  0
 16  7  1  0
  1 20  1  0
  3 21  1  0
  5 22  1  0
  6 23  1  0
 10 24  1  0
 13 25  1  0
 13 26  1  0
 15 27  1  0
 16 28  1  0
 17 29  1  0
 18 30  1  0
 19 31  1  0
M  END
>  <smiles>  (54) 
N=c1cc(C=Cc2nc(=N)c(C(N)=O)c[nH]2)cc[nH]1

>  <score_type>  (54) 
oracle

>  <origin>  (54) 
adg

>  <m_score__min__energy>  (54) 
-7.0099999999999998

>  <m_primary>  (54) 
energy

$$$$
54:0
     RDKit          3D

 41 43  0  0  0  0  0  0  0  0999 V2000
   57.0020   30.5000   45.1580 O   0  0  0  0  0  0  0  0  0  0  0  0
   58.0570   30.2500   45.8050 C   0  0  0  0  0  0  0  0  0  0  0  0
   58.7570   31.3150   46.4720 N   0  0  0  0  0  0  0  0  0  0  0  0
   58.8860   32.5240   46.0000 C   0  0  0  0  0  0  0  0  0  0  0  0
   57.9370   33.1460   45.1450 N   0  0  0  0  0  0  0  0  0  0  0  0
   58.2500   34.5340   44.8690 C   0  0  0  0  0  0  0  0  0  0  0  0
   59.2840   34.9910   45.9040 C   0  0  0  0  0  0  0  0  0  0  0  0
   60.2790   33.5470   46.4160 S   0  0  0  0  0  0  0  0  0  0  0  0
   58.5200   28.8460   45.9320 C   0  0  0  0  0  0  0  0  0  0  0  0
   59.8840   28.5500   46.1090 C   0  0  0  0  0  0  0  0  0  0  0  0
   60.3120   27.2250   46.2220 C   0  0  0  0  0  0  0  0  0  0  0  0
   59.3890   26.1800   46.1520 C   0  0  0  0  0  0  0  0  0  0  0  0
   58.0300   26.4550   45.9620 C   0  0  0  0  0  0  0  0  0  0  0  0
   56.8600   25.1410   45.8660 S   0  0  0  0  0  0  0  0  0  0  0  0
   57.1060   24.1570   46.9750 O   0  0  0  0  0  0  0  0  0  0  0  0
   55.4780   25.7150   46.0090 O   0  0  0  0  0  0  0  0  0  0  0  0
   57.0090   24.3310   44.3250 N   0  0  0  0  0  0  0  0  0  0  0  0
   57.8390   23.1090   44.4400 C   0  0  0  0  0  0  0  0  0  0  0  0
   56.9990   21.8230   44.3530 C   0  0  0  0  0  0  0  0  0  0  0  0
   56.2550   21.7270   43.1470 O   0  0  0  0  0  0  0  0  0  0  0  0
   55.7410   22.9720   42.6890 C   0  0  0  0  0  0  0  0  0  0  0  0
   55.6690   24.0670   43.7680 C   0  0  0  0  0  0  0  0  0  0  0  0
   57.5980   27.7850   45.8560 C   0  0  0  0  0  0  0  0  0  0  0  0
   59.1750   31.1070   47.4050 H   0  0  0  0  0  0  0  0  0  0  0  0
   57.2160   32.6290   44.5940 H   0  0  0  0  0  0  0  0  0  0  0  0
   58.6662   34.6302   43.8553 H   0  0  0  0  0  0  0  0  0  0  0  0
   57.3432   35.1537   44.9295 H   0  0  0  0  0  0  0  0  0  0  0  0
   59.9403   35.7538   45.4596 H   0  0  0  0  0  0  0  0  0  0  0  0
   58.7738   35.4230   46.7775 H   0  0  0  0  0  0  0  0  0  0  0  0
   60.6184   29.3674   46.1588 H   0  0  0  0  0  0  0  0  0  0  0  0
   61.3799   27.0044   46.3666 H   0  0  0  0  0  0  0  0  0  0  0  0
   59.7305   25.1386   46.2463 H   0  0  0  0  0  0  0  0  0  0  0  0
   58.5777   23.1050   43.6249 H   0  0  0  0  0  0  0  0  0  0  0  0
   58.3282   23.1257   45.4251 H   0  0  0  0  0  0  0  0  0  0  0  0
   57.6750   20.9576   44.4177 H   0  0  0  0  0  0  0  0  0  0  0  0
   56.2782   21.8438   45.1837 H   0  0  0  0  0  0  0  0  0  0  0  0
   56.3878   23.3327   41.8757 H   0  0  0  0  0  0  0  0  0  0  0  0
   54.7071   22.7837   42.3640 H   0  0  0  0  0  0  0  0  0  0  0  0
   55.2743   24.9911   43.3204 H   0  0  0  0  0  0  0  0  0  0  0  0
   55.0075   23.7259   44.5780 H   0  0  0  0  0  0  0  0  0  0  0  0
   56.5291   28.0011   45.7122 H   0  0  0  0  0  0  0  0  0  0  0  0
  1  2  2  0
  2  3  1  0
  3  4  2  3
  4  5  1  0
  5  6  1  0
  6  7  1  0
  7  8  1  0
  2  9  1  0
  9 10  2  0
 10 11  1  0
 11 12  2  0
 12 13  1  0
 13 14  1  0
 14 15  2  0
 14 16  2  0
 14 17  1  0
 17 18  1  0
 18 19  1  0
 19 20  1  0
 20 21  1  0
 21 22  1  0
 13 23  2  0
  8  4  1  0
 23  9  1  0
 22 17  1  0
  3 24  1  0
  5 25  1  0
  6 26  1  0
  6 27  1  0
  7 28  1  0
  7 29  1  0
 10 30  1  0
 11 31  1  0
 12 32  1  0
 18 33  1  0
 18 34  1  0
 19 35  1  0
 19 36  1  0
 21 37  1  0
 21 38  1  0
 22 39  1  0
 22 40  1  0
 23 41  1  0
M  CHG  1   3   1
M  END
>  <UniqueID>  (55) 
51

>  <SMILES>  (55) 
O=C([NH+]=C1NCCS1)c1cccc(S(=O)(=O)N2CCOCC2)c1

>  <Energy>  (55) 
65.38692091952169

>  <Genealogy>  (55) 
O=C([NH+]=C1NCCS1)c1cccc(S(=O)(=O)N2CCOCC2)c1 (protonated)
O=C([NH+]=C1NCCS1)c1cccc(S(=O)(=O)N2CCOCC2)c1 (3D coordinates assigned)
O=C([NH+]=C1NCCS1)c1cccc(S(=O)(=O)N2CCOCC2)c1 (nonaromatic ring conformer: 65.38692091952169 kcal/mol)

>  <smiles>  (55) 
O=C(N=C1NCCS1)c1cccc(S(=O)(=O)N2CCOCC2)c1

>  <score_type>  (55) 
oracle

>  <origin>  (55) 
adg

>  <m_score__min__energy>  (55) 
-7.4500000000000002

>  <m_primary>  (55) 
energy

$$$$
55:0
     RDKit          3D

 25 26  0  0  0  0  0  0  0  0999 V2000
   56.5070   30.8150   44.6530 O   0  0  0  0  0  0  0  0  0  0  0  0
   56.4000   29.5840   44.8980 C   0  0  0  0  0  0  0  0  0  0  0  0
   55.1470   28.9830   44.8730 O   0  0  0  0  0  0  0  0  0  0  0  0
   57.6080   28.7820   45.2660 C   0  0  0  0  0  0  0  0  0  0  0  0
   57.8960   27.7270   44.1970 C   0  0  0  0  0  0  0  0  0  0  0  0
   57.7470   26.3510   44.7670 C   0  0  0  0  0  0  0  0  0  0  0  0
   57.3980   25.3150   43.9610 N   0  0  0  0  0  0  0  0  0  0  0  0
   57.2240   24.0630   44.4590 C   0  0  0  0  0  0  0  0  0  0  0  0
   56.8710   23.0190   43.5980 C   0  0  0  0  0  0  0  0  0  0  0  0
   56.6880   21.7250   44.1000 C   0  0  0  0  0  0  0  0  0  0  0  0
   56.3370   20.6780   43.2510 O   0  0  0  0  0  0  0  0  0  0  0  0
   56.8590   21.4760   45.4650 C   0  0  0  0  0  0  0  0  0  0  0  0
   57.2110   22.5100   46.3390 C   0  0  0  0  0  0  0  0  0  0  0  0
   57.3700   22.2200   47.6900 O   0  0  0  0  0  0  0  0  0  0  0  0
   57.3970   23.8210   45.8420 C   0  0  0  0  0  0  0  0  0  0  0  0
   57.7490   24.9170   46.6560 C   0  0  0  0  0  0  0  0  0  0  0  0
   57.9160   24.7840   47.8980 O   0  0  0  0  0  0  0  0  0  0  0  0
   57.9090   26.1470   46.1010 N   0  0  0  0  0  0  0  0  0  0  0  0
   58.4749   29.4532   45.3551 H   0  0  0  0  0  0  0  0  0  0  0  0
   57.4207   28.2757   46.2244 H   0  0  0  0  0  0  0  0  0  0  0  0
   57.1885   27.8527   43.3641 H   0  0  0  0  0  0  0  0  0  0  0  0
   58.9283   27.8547   43.8392 H   0  0  0  0  0  0  0  0  0  0  0  0
   56.7368   23.2150   42.5240 H   0  0  0  0  0  0  0  0  0  0  0  0
   56.8480   19.8030   43.2490 H   0  0  0  0  0  0  0  0  0  0  0  0
   56.7154   20.4577   45.8554 H   0  0  0  0  0  0  0  0  0  0  0  0
  1  2  2  0
  2  3  1  0
  2  4  1  0
  4  5  1  0
  5  6  1  0
  6  7  2  0
  7  8  1  0
  8  9  2  0
  9 10  1  0
 10 11  1  0
 10 12  2  0
 12 13  1  0
 13 14  1  0
 13 15  2  0
 15 16  1  0
 16 17  2  0
 16 18  1  0
 18  6  1  0
 15  8  1  0
  4 19  1  0
  4 20  1  0
  5 21  1  0
  5 22  1  0
  9 23  1  0
 11 24  1  0
 12 25  1  0
M  CHG  3   3  -1  14  -1  18  -1
M  END
>  <UniqueID>  (56) 
52

>  <SMILES>  (56) 
O=C([O-])CCc1nc2cc(O)cc([O-])c2c(=O)[n-]1

>  <Energy>  (56) 
27.057120142772828

>  <Genealogy>  (56) 
O=C([O-])CCc1nc2cc(O)cc([O-])c2c(=O)[n-]1 (protonated)
O=C([O-])CCc1nc2cc(O)cc([O-])c2c(=O)[n-]1 (3D coordinates assigned)
O=C([O-])CCc1nc2cc(O)cc([O-])c2c(=O)[n-]1 (optimized conformer: 27.057120142772828 kcal/mol)

>  <smiles>  (56) 
O=C(O)CCc1nc2cc(O)cc(O)c2c(=O)[nH]1

>  <score_type>  (56) 
oracle

>  <origin>  (56) 
adg

>  <m_score__min__energy>  (56) 
-12.56

>  <m_primary>  (56) 
energy

$$$$
56:0
     RDKit          3D

 49 52  0  0  0  0  0  0  0  0999 V2000
   53.5670   28.8620   54.6980 C   0  0  0  0  0  0  0  0  0  0  0  0
   54.2640   29.4620   53.7200 C   0  0  0  0  0  0  0  0  0  0  0  0
   53.7820   30.3660   52.7570 C   0  0  0  0  0  0  0  0  0  0  0  0
   52.5810   30.9600   52.6170 C   0  0  0  0  0  0  0  0  0  0  0  0
   51.8490   31.1350   51.3550 C   0  0  0  0  0  0  0  0  0  0  0  0
   51.8720   30.2430   50.3490 N   0  0  0  0  0  0  0  0  0  0  0  0
   51.1830   30.8630   49.3660 C   0  0  0  0  0  0  0  0  0  0  0  0
   50.9720   30.3290   48.2450 O   0  0  0  0  0  0  0  0  0  0  0  0
   50.7490   32.1040   49.6730 N   0  0  0  0  0  0  0  0  0  0  0  0
   51.1930   32.2680   50.9300 C   0  0  0  0  0  0  0  0  0  0  0  0
   51.0210   33.4350   51.6650 O   0  0  0  0  0  0  0  0  0  0  0  0
   54.8420   30.6190   51.9000 C   0  0  0  0  0  0  0  0  0  0  0  0
   55.9250   29.9130   52.3810 C   0  0  0  0  0  0  0  0  0  0  0  0
   57.3220   30.0240   51.8500 C   0  0  0  0  0  0  0  0  0  0  0  0
   55.5720   29.1990   53.4720 N   0  0  0  0  0  0  0  0  0  0  0  0
   56.4730   28.4340   54.2900 C   0  0  0  0  0  0  0  0  0  0  0  0
   56.4470   27.1760   54.1900 O   0  0  0  0  0  0  0  0  0  0  0  0
   57.3820   29.0530   55.2440 N   0  0  0  0  0  0  0  0  0  0  0  0
   58.7670   29.0730   54.6880 C   0  0  0  0  0  0  0  0  0  0  0  0
   59.5720   30.3120   55.0960 C   0  0  0  0  0  0  0  0  0  0  0  0
   58.8320   31.5130   54.7000 N   0  0  0  0  0  0  0  0  0  0  0  0
   59.5220   32.6570   54.1590 C   0  0  0  0  0  0  0  0  0  0  0  0
   60.7720   32.7610   54.2920 O   0  0  0  0  0  0  0  0  0  0  0  0
   58.7690   33.7630   53.4730 C   0  0  0  0  0  0  0  0  0  0  0  0
   57.8060   33.2920   52.3930 C   0  0  0  0  0  0  0  0  0  0  0  0
   59.1080   33.9650   52.0030 C   0  0  0  0  0  0  0  0  0  0  0  0
   57.3840   31.5620   54.9330 C   0  0  0  0  0  0  0  0  0  0  0  0
   56.9170   30.3660   55.7750 C   0  0  0  0  0  0  0  0  0  0  0  0
   54.0720   28.1708   55.3888 H   0  0  0  0  0  0  0  0  0  0  0  0
   52.4909   29.0616   54.8085 H   0  0  0  0  0  0  0  0  0  0  0  0
   52.1056   31.3490   53.5295 H   0  0  0  0  0  0  0  0  0  0  0  0
   54.8230   31.2605   51.0066 H   0  0  0  0  0  0  0  0  0  0  0  0
   58.0301   30.0803   52.6899 H   0  0  0  0  0  0  0  0  0  0  0  0
   57.5518   29.1413   51.2352 H   0  0  0  0  0  0  0  0  0  0  0  0
   57.4095   30.9319   51.2352 H   0  0  0  0  0  0  0  0  0  0  0  0
   57.3960   28.4060   56.0710 H   0  0  0  0  0  0  0  0  0  0  0  0
   59.2987   28.1790   55.0458 H   0  0  0  0  0  0  0  0  0  0  0  0
   58.6753   29.0933   53.5920 H   0  0  0  0  0  0  0  0  0  0  0  0
   59.7205   30.3129   56.1859 H   0  0  0  0  0  0  0  0  0  0  0  0
   60.5528   30.2986   54.5981 H   0  0  0  0  0  0  0  0  0  0  0  0
   58.7036   34.4209   54.3522 H   0  0  0  0  0  0  0  0  0  0  0  0
   57.6675   32.2160   52.2113 H   0  0  0  0  0  0  0  0  0  0  0  0
   56.7433   33.4671   52.1693 H   0  0  0  0  0  0  0  0  0  0  0  0
   59.9133   33.3768   51.5387 H   0  0  0  0  0  0  0  0  0  0  0  0
   59.3797   34.8297   51.3797 H   0  0  0  0  0  0  0  0  0  0  0  0
   57.1372   32.4931   55.4642 H   0  0  0  0  0  0  0  0  0  0  0  0
   56.8728   31.5239   53.9597 H   0  0  0  0  0  0  0  0  0  0  0  0
   57.3048   30.4862   56.7973 H   0  0  0  0  0  0  0  0  0  0  0  0
   55.8174   30.3576   55.7469 H   0  0  0  0  0  0  0  0  0  0  0  0
  1  2  2  0
  2  3  1  0
  3  4  2  3
  4  5  1  0
  5  6  1  0
  6  7  1  0
  7  8  2  0
  7  9  1  0
  9 10  1  0
 10 11  1  0
  3 12  1  0
 12 13  2  0
 13 14  1  0
 13 15  1  0
 15 16  1  0
 16 17  2  0
 16 18  1  0
 18 19  1  0
 19 20  1  0
 20 21  1  0
 21 22  1  0
 22 23  2  0
 22 24  1  0
 24 25  1  0
 25 26  1  0
 21 27  1  0
 27 28  1  0
 15  2  1  0
 28 18  1  0
 10  5  2  0
 26 24  1  0
  1 29  1  0
  1 30  1  0
  4 31  1  0
 12 32  1  0
 14 33  1  0
 14 34  1  0
 14 35  1  0
 18 36  1  0
 19 37  1  0
 19 38  1  0
 20 39  1  0
 20 40  1  0
 24 41  1  0
 25 42  1  0
 25 43  1  0
 26 44  1  0
 26 45  1  0
 27 46  1  0
 27 47  1  0
 28 48  1  0
 28 49  1  0
M  CHG  4   6  -1   9  -1  11  -1  18   1
M  END
>  <UniqueID>  (57) 
53

>  <SMILES>  (57) 
C=c1c(=Cc2[n-]c(=O)[n-]c2[O-])cc(C)n1C(=O)[NH+]1CCN(C(=O)C2CC2)CC1

>  <Energy>  (57) 
401.3095317816338

>  <Genealogy>  (57) 
C=c1c(=Cc2[n-]c(=O)[n-]c2[O-])cc(C)n1C(=O)[NH+]1CCN(C(=O)C2CC2)CC1 (protonated)
C=c1c(=Cc2[n-]c(=O)[n-]c2[O-])cc(C)n1C(=O)[NH+]1CCN(C(=O)C2CC2)CC1 (3D coordinates assigned)
C=c1c(=Cc2[n-]c(=O)[n-]c2[O-])cc(C)n1C(=O)[NH+]1CCN(C(=O)C2CC2)CC1 (nonaromatic ring conformer: 401.3095317816338 kcal/mol)

>  <smiles>  (57) 
C=c1c(=Cc2[nH]c(=O)[nH]c2O)cc(C)n1C(=O)N1CCN(C(=O)C2CC2)CC1

>  <score_type>  (57) 
oracle

>  <origin>  (57) 
adg

>  <m_score__min__energy>  (57) 
-15.18

>  <m_primary>  (57) 
energy

$$$$
57:0
     RDKit          3D

 38 40  0  0  0  0  0  0  0  0999 V2000
   58.7353   29.7054   43.9067 H   0  0  0  0  0  0  0  0  0  0  0  0
   58.7790   30.5330   44.6300 C   0  0  0  0  0  0  0  0  0  0  0  0
   58.8667   31.5702   44.2743 H   0  0  0  0  0  0  0  0  0  0  0  0
   58.7250   30.2760   45.9530 C   0  0  0  0  0  0  0  0  0  0  0  0
   58.7830   31.3600   46.8690 C   0  0  0  0  0  0  0  0  0  0  0  0
   58.7280   32.7240   46.4260 N   0  0  0  0  0  0  0  0  0  0  0  0
   57.7260   33.2320   45.5660 C   0  0  0  0  0  0  0  0  0  0  0  0
   56.6540   32.6180   45.3190 O   0  0  0  0  0  0  0  0  0  0  0  0
   58.0850   34.5290   44.9610 C   0  0  0  0  0  0  0  0  0  0  0  0
   57.3384   35.2989   45.2054 H   0  0  0  0  0  0  0  0  0  0  0  0
   58.1261   34.4971   43.8622 H   0  0  0  0  0  0  0  0  0  0  0  0
   59.4410   34.8510   45.6070 C   0  0  0  0  0  0  0  0  0  0  0  0
   59.3336   35.6867   46.3142 H   0  0  0  0  0  0  0  0  0  0  0  0
   60.1784   35.1457   44.8458 H   0  0  0  0  0  0  0  0  0  0  0  0
   59.8970   33.5830   46.3520 C   0  0  0  0  0  0  0  0  0  0  0  0
   60.2490   33.8384   47.3624 H   0  0  0  0  0  0  0  0  0  0  0  0
   60.7309   33.0872   45.8335 H   0  0  0  0  0  0  0  0  0  0  0  0
   58.9550   31.1250   48.1940 N   0  0  0  0  0  0  0  0  0  0  0  0
   59.0790   29.8760   48.7040 C   0  0  0  0  0  0  0  0  0  0  0  0
   59.3330   29.7010   50.1730 C   0  0  0  0  0  0  0  0  0  0  0  0
   59.2467   28.6349   50.4299 H   0  0  0  0  0  0  0  0  0  0  0  0
   60.3439   30.0684   50.4035 H   0  0  0  0  0  0  0  0  0  0  0  0
   58.3230   30.4970   50.9930 C   0  0  0  0  0  0  0  0  0  0  0  0
   58.5181   30.3432   52.0646 H   0  0  0  0  0  0  0  0  0  0  0  0
   58.4172   31.5663   50.7529 H   0  0  0  0  0  0  0  0  0  0  0  0
   57.3053   30.1555   50.7529 H   0  0  0  0  0  0  0  0  0  0  0  0
   58.9980   28.7720   47.8550 C   0  0  0  0  0  0  0  0  0  0  0  0
   59.1485   27.7604   48.2599 H   0  0  0  0  0  0  0  0  0  0  0  0
   58.7250   28.9420   46.4830 C   0  0  0  0  0  0  0  0  0  0  0  0
   58.4520   27.8140   45.7770 C   0  0  0  0  0  0  0  0  0  0  0  0
   59.2034   27.4967   45.0389 H   0  0  0  0  0  0  0  0  0  0  0  0
   57.2470   26.9730   45.9030 C   0  0  0  0  0  0  0  0  0  0  0  0
   57.2530   25.7480   46.4580 N   0  0  0  0  0  0  0  0  0  0  0  0
   55.9490   25.3980   46.4600 C   0  0  0  0  0  0  0  0  0  0  0  0
   55.5450   24.2890   46.8990 O   0  0  0  0  0  0  0  0  0  0  0  0
   55.1100   26.3340   45.9650 N   0  0  0  0  0  0  0  0  0  0  0  0
   55.9440   27.3300   45.6290 C   0  0  0  0  0  0  0  0  0  0  0  0
   55.5200   28.5490   45.1150 O   0  0  0  0  0  0  0  0  0  0  0  0
  1  2  1  0
  2  3  1  0
  2  4  2  0
  4  5  1  0
  5  6  1  0
  6  7  1  0
  7  8  2  0
  7  9  1  0
  9 10  1  0
  9 11  1  0
  9 12  1  0
 12 13  1  0
 12 14  1  0
 12 15  1  0
 15 16  1  0
 15 17  1  0
  5 18  2  0
 18 19  1  0
 19 20  1  0
 20 21  1  0
 20 22  1  0
 20 23  1  0
 23 24  1  0
 23 25  1  0
 23 26  1  0
 19 27  2  0
 27 28  1  0
 27 29  1  0
 29 30  2  0
 30 31  1  0
 30 32  1  0
 32 33  1  0
 33 34  1  0
 34 35  2  0
 34 36  1  0
 36 37  1  0
 37 38  1  0
 29  4  1  0
 37 32  2  0
 15  6  1  0
M  CHG  3  33  -1  36  -1  38  -1
M  END
>  <UniqueID>  (58) 
54

>  <SMILES>  (58) 
C=c1c(N2CCCC2=O)nc(CC)c/c1=C/c1[n-]c(=O)[n-]c1[O-]

>  <Energy>  (58) 
101.42752706704017

>  <Genealogy>  (58) 
C=c1c(N2CCCC2=O)nc(CC)cc1=Cc1[n-]c(=O)[n-]c1[O-] (protonated)
C=c1c(N2CCCC2=O)nc(CC)c/c1=C/c1[n-]c(=O)[n-]c1[O-] (cis-trans isomerization)
C=c1c(N2CCCC2=O)nc(CC)c/c1=C/c1[n-]c(=O)[n-]c1[O-] (3D coordinates assigned)
C=c1c(N2CCCC2=O)nc(CC)c/c1=C/c1[n-]c(=O)[n-]c1[O-] (nonaromatic ring conformer: 101.42752706704017 kcal/mol)

>  <smiles>  (58) 
C=c1c(N2CCCC2=O)nc(CC)cc1=Cc1[nH]c(=O)[nH]c1O

>  <score_type>  (58) 
oracle

>  <origin>  (58) 
adg

>  <m_score__min__energy>  (58) 
-15.720000000000001

>  <m_primary>  (58) 
energy

$$$$
58:0
     RDKit          3D

 47 50  0  0  0  0  0  0  0  0999 V2000
   59.8650   29.8780   48.9350 H   0  0  0  0  0  0  0  0  0  0  0  0
   59.7370   29.8840   49.9370 O   0  0  0  0  0  0  0  0  0  0  0  0
   59.1110   30.9240   50.6270 C   0  0  0  0  0  0  0  0  0  0  0  0
   57.8470   30.6800   51.1770 C   0  0  0  0  0  0  0  0  0  0  0  0
   57.3707   29.6989   51.0335 H   0  0  0  0  0  0  0  0  0  0  0  0
   57.1850   31.6700   51.9060 C   0  0  0  0  0  0  0  0  0  0  0  0
   56.1950   31.4651   52.3396 H   0  0  0  0  0  0  0  0  0  0  0  0
   57.7800   32.9190   52.0840 C   0  0  0  0  0  0  0  0  0  0  0  0
   57.2589   33.6979   52.6600 H   0  0  0  0  0  0  0  0  0  0  0  0
   59.0350   33.1830   51.5330 C   0  0  0  0  0  0  0  0  0  0  0  0
   59.4945   34.1727   51.6725 H   0  0  0  0  0  0  0  0  0  0  0  0
   59.7190   32.1920   50.7990 C   0  0  0  0  0  0  0  0  0  0  0  0
   61.0260   32.5030   50.1700 C   0  0  0  0  0  0  0  0  0  0  0  0
   61.8868   32.7229   50.8186 H   0  0  0  0  0  0  0  0  0  0  0  0
   61.1970   32.5260   48.8410 C   0  0  0  0  0  0  0  0  0  0  0  0
   61.8177   33.3202   48.4005 H   0  0  0  0  0  0  0  0  0  0  0  0
   60.5850   31.5280   47.9490 C   0  0  0  0  0  0  0  0  0  0  0  0
   61.3220   30.6710   47.3930 O   0  0  0  0  0  0  0  0  0  0  0  0
   59.1760   31.5460   47.6840 N   0  0  0  0  0  0  0  0  0  0  0  0
   58.5910   31.1820   46.4300 C   0  0  0  0  0  0  0  0  0  0  0  0
   58.0830   32.3260   45.2860 S   0  0  0  0  0  0  0  0  0  0  0  0
   57.5990   31.1570   44.1860 C   0  0  0  0  0  0  0  0  0  0  0  0
   57.7760   29.9180   44.6830 C   0  0  0  0  0  0  0  0  0  0  0  0
   58.3210   29.8770   45.9740 C   0  0  0  0  0  0  0  0  0  0  0  0
   58.4490   28.6410   46.7730 C   0  0  0  0  0  0  0  0  0  0  0  0
   59.5170   28.4010   47.3950 O   0  0  0  0  0  0  0  0  0  0  0  0
   57.3270   27.7600   46.9070 N   0  0  0  0  0  0  0  0  0  0  0  0
   57.1970   26.4720   46.2910 C   0  0  0  0  0  0  0  0  0  0  0  0
   58.3340   25.6590   46.1960 C   0  0  0  0  0  0  0  0  0  0  0  0
   59.2975   26.0192   46.5858 H   0  0  0  0  0  0  0  0  0  0  0  0
   58.2520   24.3930   45.6090 C   0  0  0  0  0  0  0  0  0  0  0  0
   59.1528   23.7674   45.5237 H   0  0  0  0  0  0  0  0  0  0  0  0
   57.0280   23.9220   45.1310 C   0  0  0  0  0  0  0  0  0  0  0  0
   56.9671   22.9301   44.6594 H   0  0  0  0  0  0  0  0  0  0  0  0
   55.8810   24.7090   45.2510 C   0  0  0  0  0  0  0  0  0  0  0  0
   54.9166   24.3325   44.8792 H   0  0  0  0  0  0  0  0  0  0  0  0
   55.9540   25.9760   45.8430 C   0  0  0  0  0  0  0  0  0  0  0  0
   54.7860   26.7100   46.0110 O   0  0  0  0  0  0  0  0  0  0  0  0
   57.1840   28.8840   43.8050 C   0  0  0  0  0  0  0  0  0  0  0  0
   57.9474   28.1648   43.4732 H   0  0  0  0  0  0  0  0  0  0  0  0
   56.4102   28.2848   44.3072 H   0  0  0  0  0  0  0  0  0  0  0  0
   56.6350   29.7030   42.6080 C   0  0  0  0  0  0  0  0  0  0  0  0
   57.1682   29.4227   41.6876 H   0  0  0  0  0  0  0  0  0  0  0  0
   55.5633   29.5006   42.4652 H   0  0  0  0  0  0  0  0  0  0  0  0
   56.8640   31.2040   42.9120 C   0  0  0  0  0  0  0  0  0  0  0  0
   57.4632   31.6833   42.1238 H   0  0  0  0  0  0  0  0  0  0  0  0
   55.9346   31.7904   42.9609 H   0  0  0  0  0  0  0  0  0  0  0  0
  1  2  1  0
  2  3  1  0
  3  4  2  0
  4  5  1  0
  4  6  1  0
  6  7  1  0
  6  8  2  0
  8  9  1  0
  8 10  1  0
 10 11  1  0
 10 12  2  0
 12 13  1  0
 13 14  1  0
 13 15  2  0
 15 16  1  0
 15 17  1  0
 17 18  2  0
 17 19  1  0
 19 20  1  0
 20 21  1  0
 21 22  1  0
 22 23  2  0
 23 24  1  0
 24 25  1  0
 25 26  2  0
 25 27  1  0
 27 28  1  0
 28 29  2  0
 29 30  1  0
 29 31  1  0
 31 32  1  0
 31 33  2  0
 33 34  1  0
 33 35  1  0
 35 36  1  0
 35 37  2  0
 37 38  1  0
 23 39  1  0
 39 40  1  0
 39 41  1  0
 39 42  1  0
 42 43  1  0
 42 44  1  0
 42 45  1  0
 45 46  1  0
 45 47  1  0
 12  3  1  0
 24 20  2  0
 37 28  1  0
 45 22  1  0
M  CHG  3  19  -1  27  -1  38  -1
M  END
>  <UniqueID>  (59) 
55

>  <SMILES>  (59) 
O=C(/C=C/c1ccccc1O)[N-]c1sc2c(c1C(=O)[N-]c1ccccc1[O-])CCC2

>  <Energy>  (59) 
109.27144575988349

>  <Genealogy>  (59) 
O=C(C=Cc1ccccc1O)[N-]c1sc2c(c1C(=O)[N-]c1ccccc1[O-])CCC2 (protonated)
O=C(/C=C/c1ccccc1O)[N-]c1sc2c(c1C(=O)[N-]c1ccccc1[O-])CCC2 (cis-trans isomerization)
O=C(/C=C/c1ccccc1O)[N-]c1sc2c(c1C(=O)[N-]c1ccccc1[O-])CCC2 (3D coordinates assigned)
O=C(/C=C/c1ccccc1O)[N-]c1sc2c(c1C(=O)[N-]c1ccccc1[O-])CCC2 (nonaromatic ring conformer: 109.27144575988349 kcal/mol)

>  <smiles>  (59) 
O=C(C=Cc1ccccc1O)Nc1sc2c(c1C(=O)Nc1ccccc1O)CCC2

>  <score_type>  (59) 
oracle

>  <origin>  (59) 
adg

>  <m_score__min__energy>  (59) 
-14.300000000000001

>  <m_primary>  (59) 
energy

$$$$
59:0
     RDKit          3D

 40 41  0  0  1  0  0  0  0  0999 V2000
   58.0080   29.9920   52.4940 C   0  0  0  0  0  0  0  0  0  0  0  0
   57.5640   30.1460   51.1670 O   0  0  0  0  0  0  0  0  0  0  0  0
   58.4930   30.0250   50.1300 C   0  0  0  0  0  0  0  0  0  0  0  0
   59.2880   28.9450   50.0060 N   0  0  0  0  0  0  0  0  0  0  0  0
   60.1440   28.8980   48.9990 C   0  0  0  0  0  0  0  0  0  0  0  0
   60.9220   27.9090   48.8240 N   0  0  0  0  0  0  0  0  0  0  0  0
   60.5660   26.7340   48.1320 C   0  0  0  0  0  0  0  0  0  0  0  0
   60.7970   26.6610   46.6720 C   0  0  0  0  0  0  0  0  0  0  0  0
   59.7210   27.5180   46.0470 C   0  0  0  0  0  0  0  0  0  0  0  0
   60.0350   28.4760   45.0990 C   0  0  0  0  0  0  0  0  0  0  0  0
   59.0480   29.2490   44.5380 C   0  0  0  0  0  0  0  0  0  0  0  0
   57.7450   29.0480   44.9390 C   0  0  0  0  0  0  0  0  0  0  0  0
   56.4400   30.0040   44.2560 S   0  0  0  0  0  0  0  0  0  0  0  0
   56.4480   29.8660   42.5290 N   0  0  0  0  0  0  0  0  0  0  0  0
   55.1340   29.4210   44.7180 O   0  0  0  0  0  0  0  0  0  0  0  0
   56.5570   31.4290   44.7040 O   0  0  0  0  0  0  0  0  0  0  0  0
   57.3970   28.0980   45.8820 C   0  0  0  0  0  0  0  0  0  0  0  0
   58.4040   27.3310   46.4350 C   0  0  0  0  0  0  0  0  0  0  0  0
   60.2310   29.9140   48.0970 N   0  0  0  0  0  0  0  0  0  0  0  0
   59.4210   30.9770   48.2540 C   0  0  0  0  0  0  0  0  0  0  0  0
   59.5370   32.3130   47.0680 S   0  0  0  0  0  0  0  0  0  0  0  0
   57.9670   33.1780   46.8690 C   0  0  0  0  0  0  0  0  0  0  0  0
   58.5360   31.0660   49.2630 N   0  0  0  0  0  0  0  0  0  0  0  0
   57.2000   30.2722   53.1858 H   0  0  0  0  0  0  0  0  0  0  0  0
   58.2911   28.9432   52.6665 H   0  0  0  0  0  0  0  0  0  0  0  0
   58.8798   30.6403   52.6665 H   0  0  0  0  0  0  0  0  0  0  0  0
   61.1304   25.9078   48.5889 H   0  0  0  0  0  0  0  0  0  0  0  0
   59.4708   26.6945   48.2272 H   0  0  0  0  0  0  0  0  0  0  0  0
   61.7938   27.0525   46.4209 H   0  0  0  0  0  0  0  0  0  0  0  0
   60.7565   25.6249   46.3048 H   0  0  0  0  0  0  0  0  0  0  0  0
   61.0818   28.6193   44.7928 H   0  0  0  0  0  0  0  0  0  0  0  0
   59.2924   30.0123   43.7846 H   0  0  0  0  0  0  0  0  0  0  0  0
   55.6570   29.2920   42.1700 H   0  0  0  0  0  0  0  0  0  0  0  0
   57.3670   29.4580   42.2620 H   0  0  0  0  0  0  0  0  0  0  0  0
   56.3484   27.9572   46.1830 H   0  0  0  0  0  0  0  0  0  0  0  0
   58.1589   26.5673   47.1878 H   0  0  0  0  0  0  0  0  0  0  0  0
   57.5476   33.4091   47.8593 H   0  0  0  0  0  0  0  0  0  0  0  0
   58.1313   34.1129   46.3132 H   0  0  0  0  0  0  0  0  0  0  0  0
   57.2645   32.5396   46.3132 H   0  0  0  0  0  0  0  0  0  0  0  0
   57.9110   31.8890   49.3790 H   0  0  0  0  0  0  0  0  0  0  0  0
  1  2  1  0
  2  3  1  0
  3  4  2  0
  4  5  1  0
  5  6  2  0
  6  7  1  0
  7  8  1  0
  8  9  1  0
  9 10  2  0
 10 11  1  0
 11 12  2  0
 12 13  1  0
 13 14  1  0
 13 15  2  0
 13 16  2  0
 12 17  1  0
 17 18  2  0
  5 19  1  0
 19 20  2  0
 20 21  1  0
 21 22  1  0
 20 23  1  0
 23  3  1  0
 18  9  1  0
  1 24  1  0
  1 25  1  0
  1 26  1  0
  7 27  1  0
  7 28  1  0
  8 29  1  0
  8 30  1  0
 10 31  1  0
 11 32  1  0
 14 33  1  0
 14 34  1  0
 17 35  1  0
 18 36  1  0
 22 37  1  0
 22 38  1  0
 22 39  1  0
 23 40  1  0
M  END
>  <smiles>  (60) 
COc1nc(=NCCc2ccc(S(N)(=O)=O)cc2)nc(SC)[nH]1

>  <score_type>  (60) 
oracle

>  <origin>  (60) 
adg

>  <m_score__min__energy>  (60) 
-7.9900000000000002

>  <m_primary>  (60) 
energy

$$$$
60:0
     RDKit          3D

 42 44  0  0  0  0  0  0  0  0999 V2000
   58.1218   29.1458   43.1284 H   0  0  0  0  0  0  0  0  0  0  0  0
   57.7570   29.0980   44.1650 C   0  0  0  0  0  0  0  0  0  0  0  0
   56.4980   29.7900   44.5090 C   0  0  0  0  0  0  0  0  0  0  0  0
   55.5070   29.0980   44.8620 O   0  0  0  0  0  0  0  0  0  0  0  0
   56.3700   31.2190   44.4920 N   0  0  0  0  0  0  0  0  0  0  0  0
   57.3840   32.1650   44.8590 C   0  0  0  0  0  0  0  0  0  0  0  0
   58.0360   32.9570   43.8980 C   0  0  0  0  0  0  0  0  0  0  0  0
   57.7754   32.8545   42.8342 H   0  0  0  0  0  0  0  0  0  0  0  0
   59.0130   33.8730   44.2900 C   0  0  0  0  0  0  0  0  0  0  0  0
   59.5315   34.4791   43.5325 H   0  0  0  0  0  0  0  0  0  0  0  0
   59.3350   34.0230   45.6420 C   0  0  0  0  0  0  0  0  0  0  0  0
   60.1137   34.7396   45.9422 H   0  0  0  0  0  0  0  0  0  0  0  0
   58.6700   33.2640   46.6200 C   0  0  0  0  0  0  0  0  0  0  0  0
   59.0030   33.4160   48.0580 C   0  0  0  0  0  0  0  0  0  0  0  0
   59.6080   34.4520   48.4480 O   0  0  0  0  0  0  0  0  0  0  0  0
   58.6890   32.3770   49.0010 N   0  0  0  0  0  0  0  0  0  0  0  0
   58.6390   31.3950   48.6500 H   0  0  0  0  0  0  0  0  0  0  0  0
   58.5920   32.5900   50.4210 C   0  0  0  0  0  0  0  0  0  0  0  0
   57.6070   31.9440   51.1930 C   0  0  0  0  0  0  0  0  0  0  0  0
   56.8810   31.2753   50.7074 H   0  0  0  0  0  0  0  0  0  0  0  0
   57.5490   32.1500   52.5750 C   0  0  0  0  0  0  0  0  0  0  0  0
   56.7713   31.6514   53.1721 H   0  0  0  0  0  0  0  0  0  0  0  0
   58.4770   32.9880   53.1990 C   0  0  0  0  0  0  0  0  0  0  0  0
   58.4263   33.1523   54.2855 H   0  0  0  0  0  0  0  0  0  0  0  0
   59.4690   33.6170   52.4430 C   0  0  0  0  0  0  0  0  0  0  0  0
   60.2020   34.2732   52.9352 H   0  0  0  0  0  0  0  0  0  0  0  0
   59.5310   33.4130   51.0600 C   0  0  0  0  0  0  0  0  0  0  0  0
   60.3210   33.9011   50.4703 H   0  0  0  0  0  0  0  0  0  0  0  0
   57.6940   32.3350   46.2140 C   0  0  0  0  0  0  0  0  0  0  0  0
   57.1678   31.7346   46.9708 H   0  0  0  0  0  0  0  0  0  0  0  0
   58.4710   28.4140   45.0700 C   0  0  0  0  0  0  0  0  0  0  0  0
   58.4926   27.3169   44.9927 H   0  0  0  0  0  0  0  0  0  0  0  0
   59.2330   29.0530   46.1690 C   0  0  0  0  0  0  0  0  0  0  0  0
   58.8870   28.9020   47.5260 C   0  0  0  0  0  0  0  0  0  0  0  0
   58.0091   28.3003   47.8039 H   0  0  0  0  0  0  0  0  0  0  0  0
   59.6350   29.4980   48.4950 N   0  0  0  0  0  0  0  0  0  0  0  0
   60.7290   30.2450   48.1970 C   0  0  0  0  0  0  0  0  0  0  0  0
   61.3058   30.7212   49.0036 H   0  0  0  0  0  0  0  0  0  0  0  0
   61.1220   30.4090   46.8680 C   0  0  0  0  0  0  0  0  0  0  0  0
   62.0118   31.0069   46.6216 H   0  0  0  0  0  0  0  0  0  0  0  0
   60.3750   29.8070   45.8550 C   0  0  0  0  0  0  0  0  0  0  0  0
   60.6823   29.9237   44.8052 H   0  0  0  0  0  0  0  0  0  0  0  0
  1  2  1  0
  2  3  1  0
  3  4  2  0
  3  5  1  0
  5  6  1  0
  6  7  2  0
  7  8  1  0
  7  9  1  0
  9 10  1  0
  9 11  2  0
 11 12  1  0
 11 13  1  0
 13 14  1  0
 14 15  2  0
 14 16  1  0
 16 17  1  0
 16 18  1  0
 18 19  2  0
 19 20  1  0
 19 21  1  0
 21 22  1  0
 21 23  2  0
 23 24  1  0
 23 25  1  0
 25 26  1  0
 25 27  2  0
 27 28  1  0
 13 29  2  0
 29 30  1  0
  2 31  2  0
 31 32  1  0
 31 33  1  0
 33 34  2  0
 34 35  1  0
 34 36  1  0
 36 37  2  0
 37 38  1  0
 37 39  1  0
 39 40  1  0
 39 41  2  0
 41 42  1  0
 29  6  1  0
 41 33  1  0
 27 18  1  0
M  CHG  1   5  -1
M  END
>  <UniqueID>  (61) 
56

>  <SMILES>  (61) 
O=C(/C=C/c1cccnc1)[N-]c1cccc(C(=O)Nc2ccccc2)c1

>  <Energy>  (61) 
58.76265340078174

>  <Genealogy>  (61) 
O=C(C=Cc1cccnc1)[N-]c1cccc(C(=O)Nc2ccccc2)c1 (protonated)
O=C(/C=C/c1cccnc1)[N-]c1cccc(C(=O)Nc2ccccc2)c1 (cis-trans isomerization)
O=C(/C=C/c1cccnc1)[N-]c1cccc(C(=O)Nc2ccccc2)c1 (3D coordinates assigned)
O=C(/C=C/c1cccnc1)[N-]c1cccc(C(=O)Nc2ccccc2)c1 (optimized conformer: 58.76265340078174 kcal/mol)

>  <smiles>  (61) 
O=C(C=Cc1cccnc1)Nc1cccc(C(=O)Nc2ccccc2)c1

>  <score_type>  (61) 
oracle

>  <origin>  (61) 
adg

>  <m_score__min__energy>  (61) 
-9.9800000000000004

>  <m_primary>  (61) 
energy

$$$$
61:0
     RDKit          3D

 37 39  0  0  0  0  0  0  0  0999 V2000
   56.7730   26.4050   46.0030 C   0  0  0  0  0  0  0  0  0  0  0  0
   56.9120   27.6650   45.6000 C   0  0  0  0  0  0  0  0  0  0  0  0
   58.1030   28.2970   45.5000 N   0  0  0  0  0  0  0  0  0  0  0  0
   57.7910   29.5350   45.0590 C   0  0  0  0  0  0  0  0  0  0  0  0
   58.6610   30.5180   44.7790 C   0  0  0  0  0  0  0  0  0  0  0  0
   58.5090   31.9110   45.2500 C   0  0  0  0  0  0  0  0  0  0  0  0
   57.8720   32.8720   44.4440 C   0  0  0  0  0  0  0  0  0  0  0  0
   57.7560   34.1940   44.8780 C   0  0  0  0  0  0  0  0  0  0  0  0
   58.2900   34.5730   46.1100 C   0  0  0  0  0  0  0  0  0  0  0  0
   58.9460   33.6360   46.9090 C   0  0  0  0  0  0  0  0  0  0  0  0
   59.0670   32.2960   46.4850 C   0  0  0  0  0  0  0  0  0  0  0  0
   59.7210   31.3240   47.2630 O   0  0  0  0  0  0  0  0  0  0  0  0
   61.0360   30.8210   47.0270 C   0  0  0  0  0  0  0  0  0  0  0  0
   62.0750   31.7780   47.5470 C   0  0  0  0  0  0  0  0  0  0  0  0
   62.4050   32.9280   46.8080 C   0  0  0  0  0  0  0  0  0  0  0  0
   63.3650   33.8240   47.2900 C   0  0  0  0  0  0  0  0  0  0  0  0
   63.9950   33.5830   48.5150 C   0  0  0  0  0  0  0  0  0  0  0  0
   63.6640   32.4480   49.2600 C   0  0  0  0  0  0  0  0  0  0  0  0
   62.7040   31.5500   48.7810 C   0  0  0  0  0  0  0  0  0  0  0  0
   56.4200   29.5870   44.9060 C   0  0  0  0  0  0  0  0  0  0  0  0
   55.7490   30.5740   44.5030 O   0  0  0  0  0  0  0  0  0  0  0  0
   55.9020   28.4330   45.2470 O   0  0  0  0  0  0  0  0  0  0  0  0
   55.7717   25.9533   46.0608 H   0  0  0  0  0  0  0  0  0  0  0  0
   57.6594   25.8147   46.2785 H   0  0  0  0  0  0  0  0  0  0  0  0
   59.0480   27.8910   45.6860 H   0  0  0  0  0  0  0  0  0  0  0  0
   59.5386   30.2727   44.1629 H   0  0  0  0  0  0  0  0  0  0  0  0
   57.4627   32.5801   43.4656 H   0  0  0  0  0  0  0  0  0  0  0  0
   57.2437   34.9366   44.2487 H   0  0  0  0  0  0  0  0  0  0  0  0
   58.1935   35.6139   46.4525 H   0  0  0  0  0  0  0  0  0  0  0  0
   59.3714   33.9441   47.8755 H   0  0  0  0  0  0  0  0  0  0  0  0
   61.1491   29.8533   47.5377 H   0  0  0  0  0  0  0  0  0  0  0  0
   61.1784   30.7005   45.9429 H   0  0  0  0  0  0  0  0  0  0  0  0
   61.9063   33.1237   45.8473 H   0  0  0  0  0  0  0  0  0  0  0  0
   63.6245   34.7187   46.7051 H   0  0  0  0  0  0  0  0  0  0  0  0
   64.7513   34.2870   48.8922 H   0  0  0  0  0  0  0  0  0  0  0  0
   64.1589   32.2604   50.2243 H   0  0  0  0  0  0  0  0  0  0  0  0
   62.4410   30.6616   49.3739 H   0  0  0  0  0  0  0  0  0  0  0  0
  1  2  2  0
  2  3  1  0
  3  4  1  0
  4  5  2  3
  5  6  1  0
  6  7  2  0
  7  8  1  0
  8  9  2  0
  9 10  1  0
 10 11  2  0
 11 12  1  0
 12 13  1  0
 13 14  1  0
 14 15  2  0
 15 16  1  0
 16 17  2  0
 17 18  1  0
 18 19  2  0
  4 20  1  0
 20 21  2  0
 20 22  1  0
 22  2  1  0
 11  6  1  0
 19 14  1  0
  1 23  1  0
  1 24  1  0
  3 25  1  0
  5 26  1  0
  7 27  1  0
  8 28  1  0
  9 29  1  0
 10 30  1  0
 13 31  1  0
 13 32  1  0
 15 33  1  0
 16 34  1  0
 17 35  1  0
 18 36  1  0
 19 37  1  0
M  END
>  <UniqueID>  (62) 
57

>  <SMILES>  (62) 
C=c1[nH]c(=Cc2ccccc2OCc2ccccc2)c(=O)o1

>  <Energy>  (62) 
78.58375147726215

>  <Genealogy>  (62) 
C=c1[nH]c(=Cc2ccccc2OCc2ccccc2)c(=O)o1 (3D coordinates assigned)
C=c1[nH]c(=Cc2ccccc2OCc2ccccc2)c(=O)o1 (optimized conformer: 78.58375147726215 kcal/mol)

>  <smiles>  (62) 
C=c1[nH]c(=Cc2ccccc2OCc2ccccc2)c(=O)o1

>  <score_type>  (62) 
oracle

>  <origin>  (62) 
adg

>  <m_score__min__energy>  (62) 
-7.4699999999999998

>  <m_primary>  (62) 
energy

$$$$
62:0
     RDKit          3D

 28 30  0  0  0  0  0  0  0  0999 V2000
   54.0190   26.4560   46.7410 H   0  0  0  0  0  0  0  0  0  0  0  0
   54.6460   26.3340   45.9580 O   0  0  0  0  0  0  0  0  0  0  0  0
   55.9500   25.8640   46.1090 C   0  0  0  0  0  0  0  0  0  0  0  0
   56.1680   24.5400   46.5310 C   0  0  0  0  0  0  0  0  0  0  0  0
   55.3083   23.8853   46.7366 H   0  0  0  0  0  0  0  0  0  0  0  0
   57.4780   24.0440   46.6930 C   0  0  0  0  0  0  0  0  0  0  0  0
   57.6750   22.7340   47.1110 O   0  0  0  0  0  0  0  0  0  0  0  0
   58.5870   24.8680   46.4350 C   0  0  0  0  0  0  0  0  0  0  0  0
   59.6120   24.4887   46.5593 H   0  0  0  0  0  0  0  0  0  0  0  0
   58.3560   26.1770   46.0180 C   0  0  0  0  0  0  0  0  0  0  0  0
   57.0730   26.6660   45.8580 C   0  0  0  0  0  0  0  0  0  0  0  0
   57.2090   28.0450   45.4130 C   0  0  0  0  0  0  0  0  0  0  0  0
   56.2810   28.8390   45.1070 O   0  0  0  0  0  0  0  0  0  0  0  0
   58.6530   28.2990   45.3460 C   0  0  0  0  0  0  0  0  0  0  0  0
   59.2860   29.4210   44.9870 C   0  0  0  0  0  0  0  0  0  0  0  0
   60.2246   29.3338   44.4201 H   0  0  0  0  0  0  0  0  0  0  0  0
   58.7870   30.7690   45.3140 C   0  0  0  0  0  0  0  0  0  0  0  0
   57.8530   31.3650   44.4540 C   0  0  0  0  0  0  0  0  0  0  0  0
   57.5070   30.8225   43.5618 H   0  0  0  0  0  0  0  0  0  0  0  0
   57.3600   32.6430   44.7240 C   0  0  0  0  0  0  0  0  0  0  0  0
   56.6184   33.0987   44.0514 H   0  0  0  0  0  0  0  0  0  0  0  0
   57.8060   33.3430   45.8450 C   0  0  0  0  0  0  0  0  0  0  0  0
   57.4091   34.3466   46.0577 H   0  0  0  0  0  0  0  0  0  0  0  0
   58.7560   32.7740   46.7000 C   0  0  0  0  0  0  0  0  0  0  0  0
   59.3040   33.7020   48.0910 Cl  0  0  0  0  0  0  0  0  0  0  0  0
   59.2600   31.4860   46.4360 C   0  0  0  0  0  0  0  0  0  0  0  0
   60.5040   30.7980   47.4820 Cl  0  0  0  0  0  0  0  0  0  0  0  0
   59.3230   27.1310   45.7150 O   0  0  0  0  0  0  0  0  0  0  0  0
  1  2  1  0
  2  3  1  0
  3  4  2  0
  4  5  1  0
  4  6  1  0
  6  7  1  0
  6  8  2  0
  8  9  1  0
  8 10  1  0
 10 11  2  0
 11 12  1  0
 12 13  2  0
 12 14  1  0
 14 15  2  0
 15 16  1  0
 15 17  1  0
 17 18  2  0
 18 19  1  0
 18 20  1  0
 20 21  1  0
 20 22  2  0
 22 23  1  0
 22 24  1  0
 24 25  1  0
 24 26  2  0
 26 27  1  0
 14 28  1  0
 11  3  1  0
 26 17  1  0
 28 10  1  0
M  CHG  1   7  -1
M  END
>  <UniqueID>  (63) 
58

>  <SMILES>  (63) 
O=C1/C(=C\c2cccc(Cl)c2Cl)Oc2cc([O-])cc(O)c21

>  <Energy>  (63) 
72.36309866782582

>  <Genealogy>  (63) 
O=C1C(=Cc2cccc(Cl)c2Cl)Oc2cc([O-])cc(O)c21 (protonated)
O=C1/C(=C\c2cccc(Cl)c2Cl)Oc2cc([O-])cc(O)c21 (cis-trans isomerization)
O=C1/C(=C\c2cccc(Cl)c2Cl)Oc2cc([O-])cc(O)c21 (3D coordinates assigned)
O=C1/C(=C\c2cccc(Cl)c2Cl)Oc2cc([O-])cc(O)c21 (nonaromatic ring conformer: 72.36309866782582 kcal/mol)

>  <smiles>  (63) 
O=C1C(=Cc2cccc(Cl)c2Cl)Oc2cc(O)cc(O)c21

>  <score_type>  (63) 
oracle

>  <origin>  (63) 
adg

>  <m_score__min__energy>  (63) 
-11.1

>  <m_primary>  (63) 
energy

$$$$
63:0
     RDKit          3D

 56 60  0  0  0  0  0  0  0  0999 V2000
   61.3540   33.2690   48.4960 O   0  0  0  0  0  0  0  0  0  0  0  0
   60.1050   33.3140   48.4400 C   0  0  0  0  0  0  0  0  0  0  0  0
   59.3880   32.9700   49.6730 C   0  0  0  0  0  0  0  0  0  0  0  0
   59.6190   33.8330   50.7500 C   0  0  0  0  0  0  0  0  0  0  0  0
   59.0100   33.6230   51.9700 C   0  0  0  0  0  0  0  0  0  0  0  0
   58.1720   32.5310   52.0650 C   0  0  0  0  0  0  0  0  0  0  0  0
   57.9360   31.6700   51.0020 C   0  0  0  0  0  0  0  0  0  0  0  0
   58.5530   31.8910   49.7860 C   0  0  0  0  0  0  0  0  0  0  0  0
   59.3790   33.6760   47.2730 N   0  0  0  0  0  0  0  0  0  0  0  0
   57.9400   33.7310   47.1920 C   0  0  0  0  0  0  0  0  0  0  0  0
   57.4470   33.2800   45.8300 C   0  0  0  0  0  0  0  0  0  0  0  0
   58.0740   34.0210   44.7500 N   0  0  0  0  0  0  0  0  0  0  0  0
   58.4720   33.0740   43.7450 C   0  0  0  0  0  0  0  0  0  0  0  0
   58.0160   31.6920   44.0410 C   0  0  0  0  0  0  0  0  0  0  0  0
   58.8740   30.7740   44.5790 N   0  0  0  0  0  0  0  0  0  0  0  0
   58.4630   29.5040   44.8580 C   0  0  0  0  0  0  0  0  0  0  0  0
   59.1050   28.4320   45.3800 N   0  0  0  0  0  0  0  0  0  0  0  0
   58.2270   27.4080   45.4440 C   0  0  0  0  0  0  0  0  0  0  0  0
   58.4260   26.0200   45.9280 C   0  0  0  0  0  0  0  0  0  0  0  0
   57.3450   25.1020   45.4530 C   0  0  0  0  0  0  0  0  0  0  0  0
   56.2560   24.7630   46.2250 C   0  0  0  0  0  0  0  0  0  0  0  0
   55.3080   23.8970   45.6780 C   0  0  0  0  0  0  0  0  0  0  0  0
   55.4640   23.3910   44.3830 C   0  0  0  0  0  0  0  0  0  0  0  0
   56.5710   23.7410   43.6080 C   0  0  0  0  0  0  0  0  0  0  0  0
   57.5170   24.6060   44.1580 C   0  0  0  0  0  0  0  0  0  0  0  0
   57.0440   27.8580   44.9600 N   0  0  0  0  0  0  0  0  0  0  0  0
   57.1660   29.1570   44.5890 C   0  0  0  0  0  0  0  0  0  0  0  0
   56.2910   30.0630   44.0490 C   0  0  0  0  0  0  0  0  0  0  0  0
   55.1220   29.7130   43.8190 O   0  0  0  0  0  0  0  0  0  0  0  0
   56.7520   31.3060   43.7930 N   0  0  0  0  0  0  0  0  0  0  0  0
   59.1710   34.8440   45.2220 C   0  0  0  0  0  0  0  0  0  0  0  0
   60.1090   34.0280   46.0490 C   0  0  0  0  0  0  0  0  0  0  0  0
   60.2956   34.6908   50.6221 H   0  0  0  0  0  0  0  0  0  0  0  0
   59.1839   34.2931   52.8248 H   0  0  0  0  0  0  0  0  0  0  0  0
   57.6697   32.3344   53.0236 H   0  0  0  0  0  0  0  0  0  0  0  0
   57.2584   30.8127   51.1278 H   0  0  0  0  0  0  0  0  0  0  0  0
   58.3784   31.2191   48.9327 H   0  0  0  0  0  0  0  0  0  0  0  0
   57.5123   33.0739   47.9635 H   0  0  0  0  0  0  0  0  0  0  0  0
   57.6230   34.7726   47.3486 H   0  0  0  0  0  0  0  0  0  0  0  0
   57.6752   32.2111   45.7061 H   0  0  0  0  0  0  0  0  0  0  0  0
   56.3636   33.4645   45.7834 H   0  0  0  0  0  0  0  0  0  0  0  0
   58.0450   33.3855   42.7803 H   0  0  0  0  0  0  0  0  0  0  0  0
   59.5716   33.0609   43.7205 H   0  0  0  0  0  0  0  0  0  0  0  0
   59.3940   25.6502   45.5588 H   0  0  0  0  0  0  0  0  0  0  0  0
   58.4001   26.0360   47.0276 H   0  0  0  0  0  0  0  0  0  0  0  0
   56.1369   25.1630   47.2427 H   0  0  0  0  0  0  0  0  0  0  0  0
   54.4280   23.6090   46.2719 H   0  0  0  0  0  0  0  0  0  0  0  0
   54.7054   22.7094   43.9707 H   0  0  0  0  0  0  0  0  0  0  0  0
   56.6942   23.3447   42.5893 H   0  0  0  0  0  0  0  0  0  0  0  0
   58.4002   24.8983   43.5711 H   0  0  0  0  0  0  0  0  0  0  0  0
   56.1660   27.2800   44.8870 H   0  0  0  0  0  0  0  0  0  0  0  0
   56.0330   31.9640   43.3750 H   0  0  0  0  0  0  0  0  0  0  0  0
   59.7131   35.2570   44.3585 H   0  0  0  0  0  0  0  0  0  0  0  0
   58.7675   35.6612   45.8379 H   0  0  0  0  0  0  0  0  0  0  0  0
   60.4027   33.1178   45.5056 H   0  0  0  0  0  0  0  0  0  0  0  0
   61.0288   34.5860   46.2784 H   0  0  0  0  0  0  0  0  0  0  0  0
  1  2  2  0
  2  3  1  0
  3  4  2  0
  4  5  1  0
  5  6  2  0
  6  7  1  0
  7  8  2  0
  2  9  1  0
  9 10  1  0
 10 11  1  0
 11 12  1  0
 12 13  1  0
 13 14  1  0
 14 15  2  0
 15 16  1  0
 16 17  1  0
 17 18  2  0
 18 19  1  0
 19 20  1  0
 20 21  2  0
 21 22  1  0
 22 23  2  0
 23 24  1  0
 24 25  2  0
 18 26  1  0
 26 27  1  0
 27 28  1  0
 28 29  2  0
 28 30  1  0
 12 31  1  0
 31 32  1  0
  8  3  1  0
 32  9  1  0
 30 14  1  0
 27 16  2  0
 25 20  1  0
  4 33  1  0
  5 34  1  0
  6 35  1  0
  7 36  1  0
  8 37  1  0
 10 38  1  0
 10 39  1  0
 11 40  1  0
 11 41  1  0
 13 42  1  0
 13 43  1  0
 19 44  1  0
 19 45  1  0
 21 46  1  0
 22 47  1  0
 23 48  1  0
 24 49  1  0
 25 50  1  0
 26 51  1  0
 30 52  1  0
 31 53  1  0
 31 54  1  0
 32 55  1  0
 32 56  1  0
M  END
>  <smiles>  (64) 
O=C(c1ccccc1)N1CCN(Cc2nc3nc(Cc4ccccc4)[nH]c3c(=O)[nH]2)CC1

>  <score_type>  (64) 
oracle

>  <origin>  (64) 
adg

>  <m_score__min__energy>  (64) 
-9.4199999999999999

>  <m_primary>  (64) 
energy

$$$$
64:0
     RDKit          3D

 41 43  0  0  0  0  0  0  0  0999 V2000
   58.2890   30.0150   50.7850 C   0  0  0  0  0  0  0  0  0  0  0  0
   58.9480   30.3800   49.4920 C   0  0  0  0  0  0  0  0  0  0  0  0
   58.5680   31.4890   48.8020 N   0  0  0  0  0  0  0  0  0  0  0  0
   59.2690   31.6590   47.6580 C   0  0  0  0  0  0  0  0  0  0  0  0
   59.0490   32.7870   46.7250 C   0  0  0  0  0  0  0  0  0  0  0  0
   59.8700   33.9270   46.7800 C   0  0  0  0  0  0  0  0  0  0  0  0
   59.6580   34.9870   45.8970 C   0  0  0  0  0  0  0  0  0  0  0  0
   58.6270   34.9040   44.9620 C   0  0  0  0  0  0  0  0  0  0  0  0
   57.8380   33.7980   44.9160 N   0  0  0  0  0  0  0  0  0  0  0  0
   58.0230   32.7510   45.7640 C   0  0  0  0  0  0  0  0  0  0  0  0
   60.3980   30.4240   47.4620 S   0  0  0  0  0  0  0  0  0  0  0  0
   59.9780   29.6410   48.8920 C   0  0  0  0  0  0  0  0  0  0  0  0
   60.6090   28.4000   49.3740 C   0  0  0  0  0  0  0  0  0  0  0  0
   61.5420   28.4420   50.2210 O   0  0  0  0  0  0  0  0  0  0  0  0
   60.1570   27.1390   48.8710 N   0  0  0  0  0  0  0  0  0  0  0  0
   60.3200   26.7160   47.4840 C   0  0  0  0  0  0  0  0  0  0  0  0
   59.5180   27.6040   46.5710 C   0  0  0  0  0  0  0  0  0  0  0  0
   58.1740   27.8820   46.8660 C   0  0  0  0  0  0  0  0  0  0  0  0
   57.4160   28.6840   46.0090 C   0  0  0  0  0  0  0  0  0  0  0  0
   57.9910   29.2190   44.8480 C   0  0  0  0  0  0  0  0  0  0  0  0
   57.0280   30.2130   43.7600 S   0  0  0  0  0  0  0  0  0  0  0  0
   57.9740   31.5550   43.2220 N   0  0  0  0  0  0  0  0  0  0  0  0
   56.5920   29.3940   42.5770 O   0  0  0  0  0  0  0  0  0  0  0  0
   55.8060   30.7150   44.4760 O   0  0  0  0  0  0  0  0  0  0  0  0
   59.3300   28.9330   44.5450 C   0  0  0  0  0  0  0  0  0  0  0  0
   60.0890   28.1300   45.4020 C   0  0  0  0  0  0  0  0  0  0  0  0
   58.9114   30.3597   51.6239 H   0  0  0  0  0  0  0  0  0  0  0  0
   57.3004   30.4942   50.8408 H   0  0  0  0  0  0  0  0  0  0  0  0
   58.1707   28.9228   50.8408 H   0  0  0  0  0  0  0  0  0  0  0  0
   60.6813   33.9837   47.5206 H   0  0  0  0  0  0  0  0  0  0  0  0
   60.2988   35.8801   45.9384 H   0  0  0  0  0  0  0  0  0  0  0  0
   58.4520   35.7338   44.2614 H   0  0  0  0  0  0  0  0  0  0  0  0
   57.3663   31.8710   45.6978 H   0  0  0  0  0  0  0  0  0  0  0  0
   61.3831   26.7771   47.2082 H   0  0  0  0  0  0  0  0  0  0  0  0
   59.9636   25.6805   47.3808 H   0  0  0  0  0  0  0  0  0  0  0  0
   57.7157   27.4667   47.7757 H   0  0  0  0  0  0  0  0  0  0  0  0
   56.3632   28.8965   46.2465 H   0  0  0  0  0  0  0  0  0  0  0  0
   58.7560   31.6720   43.9060 H   0  0  0  0  0  0  0  0  0  0  0  0
   57.3730   32.4050   43.3020 H   0  0  0  0  0  0  0  0  0  0  0  0
   59.7846   29.3416   43.6304 H   0  0  0  0  0  0  0  0  0  0  0  0
   61.1388   27.9095   45.1586 H   0  0  0  0  0  0  0  0  0  0  0  0
  1  2  1  0
  2  3  1  0
  3  4  2  0
  4  5  1  0
  5  6  2  0
  6  7  1  0
  7  8  2  0
  8  9  1  0
  9 10  2  0
  4 11  1  0
 11 12  1  0
 12 13  1  0
 13 14  2  0
 13 15  1  0
 15 16  1  0
 16 17  1  0
 17 18  2  0
 18 19  1  0
 19 20  2  0
 20 21  1  0
 21 22  1  0
 21 23  2  0
 21 24  2  0
 20 25  1  0
 25 26  2  0
 12  2  2  0
 26 17  1  0
 10  5  1  0
  1 27  1  0
  1 28  1  0
  1 29  1  0
  6 30  1  0
  7 31  1  0
  8 32  1  0
 10 33  1  0
 16 34  1  0
 16 35  1  0
 18 36  1  0
 19 37  1  0
 22 38  1  0
 22 39  1  0
 25 40  1  0
 26 41  1  0
M  CHG  1  15  -1
M  END
>  <UniqueID>  (65) 
59

>  <SMILES>  (65) 
Cc1nc(-c2cccnc2)sc1C(=O)[N-]Cc1ccc(S(N)(=O)=O)cc1

>  <Energy>  (65) 
70.32799232826947

>  <Genealogy>  (65) 
Cc1nc(-c2cccnc2)sc1C(=O)[N-]Cc1ccc(S(N)(=O)=O)cc1 (protonated)
Cc1nc(-c2cccnc2)sc1C(=O)[N-]Cc1ccc(S(N)(=O)=O)cc1 (3D coordinates assigned)
Cc1nc(-c2cccnc2)sc1C(=O)[N-]Cc1ccc(S(N)(=O)=O)cc1 (optimized conformer: 70.32799232826947 kcal/mol)

>  <smiles>  (65) 
Cc1nc(-c2cccnc2)sc1C(=O)NCc1ccc(S(N)(=O)=O)cc1

>  <score_type>  (65) 
oracle

>  <origin>  (65) 
adg

>  <m_score__min__energy>  (65) 
-10.17

>  <m_primary>  (65) 
energy

$$$$
65:0
     RDKit          3D

 57 60  0  0  0  0  0  0  0  0999 V2000
   58.5530   29.8570   48.0600 O   0  0  0  0  0  0  0  0  0  0  0  0
   58.5950   30.1970   46.8450 C   0  0  0  0  0  0  0  0  0  0  0  0
   58.5950   29.1860   45.8230 N   0  0  0  0  0  0  0  0  0  0  0  0
   58.0940   27.8530   46.0230 C   0  0  0  0  0  0  0  0  0  0  0  0
   58.8740   26.8620   46.6440 C   0  0  0  0  0  0  0  0  0  0  0  0
   58.3570   25.5790   46.8440 C   0  0  0  0  0  0  0  0  0  0  0  0
   57.0530   25.2700   46.4350 C   0  0  0  0  0  0  0  0  0  0  0  0
   56.4130   23.6420   46.6690 S   0  0  0  0  0  0  0  0  0  0  0  0
   57.1080   23.0020   47.8390 O   0  0  0  0  0  0  0  0  0  0  0  0
   54.9450   23.7240   46.9890 O   0  0  0  0  0  0  0  0  0  0  0  0
   56.6430   22.6510   45.2480 N   0  0  0  0  0  0  0  0  0  0  0  0
   58.0750   22.5440   44.9260 C   0  0  0  0  0  0  0  0  0  0  0  0
   58.3000   21.4780   43.8370 C   0  0  0  0  0  0  0  0  0  0  0  0
   57.0500   21.2540   42.9690 C   0  0  0  0  0  0  0  0  0  0  0  0
   56.2790   22.5600   42.7630 C   0  0  0  0  0  0  0  0  0  0  0  0
   55.8840   23.2070   44.1100 C   0  0  0  0  0  0  0  0  0  0  0  0
   56.2640   26.2620   45.8370 C   0  0  0  0  0  0  0  0  0  0  0  0
   56.7790   27.5460   45.6400 C   0  0  0  0  0  0  0  0  0  0  0  0
   58.6930   31.6350   46.4930 C   0  0  0  0  0  0  0  0  0  0  0  0
   57.9900   32.1580   45.3920 C   0  0  0  0  0  0  0  0  0  0  0  0
   58.0740   33.5170   45.0800 C   0  0  0  0  0  0  0  0  0  0  0  0
   58.8550   34.3710   45.8610 C   0  0  0  0  0  0  0  0  0  0  0  0
   59.5640   33.8700   46.9620 C   0  0  0  0  0  0  0  0  0  0  0  0
   60.3660   34.8020   47.8320 C   0  0  0  0  0  0  0  0  0  0  0  0
   61.6820   34.2130   48.1300 N   0  0  0  0  0  0  0  0  0  0  0  0
   62.0630   34.0790   49.4390 C   0  0  0  0  0  0  0  0  0  0  0  0
   63.2870   33.4930   49.7710 C   0  0  0  0  0  0  0  0  0  0  0  0
   63.8060   33.3120   51.6010 Br  0  0  0  0  0  0  0  0  0  0  0  0
   64.1240   33.0380   48.7550 C   0  0  0  0  0  0  0  0  0  0  0  0
   63.7320   33.1690   47.4260 C   0  0  0  0  0  0  0  0  0  0  0  0
   62.5000   33.7590   47.1220 C   0  0  0  0  0  0  0  0  0  0  0  0
   62.1550   33.8650   45.9150 O   0  0  0  0  0  0  0  0  0  0  0  0
   59.4720   32.5050   47.2790 C   0  0  0  0  0  0  0  0  0  0  0  0
   59.0920   29.3930   44.9280 H   0  0  0  0  0  0  0  0  0  0  0  0
   59.8965   27.0975   46.9742 H   0  0  0  0  0  0  0  0  0  0  0  0
   58.9769   24.8080   47.3249 H   0  0  0  0  0  0  0  0  0  0  0  0
   58.4388   23.5164   44.5626 H   0  0  0  0  0  0  0  0  0  0  0  0
   58.6246   22.2508   45.8326 H   0  0  0  0  0  0  0  0  0  0  0  0
   59.1265   21.8043   43.1886 H   0  0  0  0  0  0  0  0  0  0  0  0
   58.5335   20.5282   44.3404 H   0  0  0  0  0  0  0  0  0  0  0  0
   57.3591   20.8612   41.9891 H   0  0  0  0  0  0  0  0  0  0  0  0
   56.3920   20.5381   43.4833 H   0  0  0  0  0  0  0  0  0  0  0  0
   56.9117   23.2631   42.2014 H   0  0  0  0  0  0  0  0  0  0  0  0
   55.3571   22.3311   42.2082 H   0  0  0  0  0  0  0  0  0  0  0  0
   56.0768   24.2884   44.0520 H   0  0  0  0  0  0  0  0  0  0  0  0
   54.8186   22.9950   44.2831 H   0  0  0  0  0  0  0  0  0  0  0  0
   55.2362   26.0291   45.5218 H   0  0  0  0  0  0  0  0  0  0  0  0
   56.1489   28.3222   45.1812 H   0  0  0  0  0  0  0  0  0  0  0  0
   57.3704   31.4925   44.7731 H   0  0  0  0  0  0  0  0  0  0  0  0
   57.5227   33.9158   44.2157 H   0  0  0  0  0  0  0  0  0  0  0  0
   58.9143   35.4407   45.6117 H   0  0  0  0  0  0  0  0  0  0  0  0
   60.5064   35.7584   47.3071 H   0  0  0  0  0  0  0  0  0  0  0  0
   59.8248   34.9673   48.7753 H   0  0  0  0  0  0  0  0  0  0  0  0
   61.3973   34.4370   50.2382 H   0  0  0  0  0  0  0  0  0  0  0  0
   65.0915   32.5767   49.0021 H   0  0  0  0  0  0  0  0  0  0  0  0
   64.3874   32.8105   46.6185 H   0  0  0  0  0  0  0  0  0  0  0  0
   60.0146   32.1113   48.1511 H   0  0  0  0  0  0  0  0  0  0  0  0
  1  2  2  0
  2  3  1  0
  3  4  1  0
  4  5  2  0
  5  6  1  0
  6  7  2  0
  7  8  1  0
  8  9  2  0
  8 10  2  0
  8 11  1  0
 11 12  1  0
 12 13  1  0
 13 14  1  0
 14 15  1  0
 15 16  1  0
  7 17  1  0
 17 18  2  0
  2 19  1  0
 19 20  2  0
 20 21  1  0
 21 22  2  0
 22 23  1  0
 23 24  1  0
 24 25  1  0
 25 26  1  0
 26 27  2  0
 27 28  1  0
 27 29  1  0
 29 30  2  0
 30 31  1  0
 31 32  2  0
 23 33  2  0
 18  4  1  0
 33 19  1  0
 16 11  1  0
 31 25  1  0
  3 34  1  0
  5 35  1  0
  6 36  1  0
 12 37  1  0
 12 38  1  0
 13 39  1  0
 13 40  1  0
 14 41  1  0
 14 42  1  0
 15 43  1  0
 15 44  1  0
 16 45  1  0
 16 46  1  0
 17 47  1  0
 18 48  1  0
 20 49  1  0
 21 50  1  0
 22 51  1  0
 24 52  1  0
 24 53  1  0
 26 54  1  0
 29 55  1  0
 30 56  1  0
 33 57  1  0
M  END
>  <UniqueID>  (66) 
60

>  <SMILES>  (66) 
O=C(Nc1ccc(S(=O)(=O)N2CCCCC2)cc1)c1cccc(Cn2cc(Br)ccc2=O)c1

>  <Energy>  (66) 
69.59149247150418

>  <Genealogy>  (66) 
O=C(Nc1ccc(S(=O)(=O)N2CCCCC2)cc1)c1cccc(Cn2cc(Br)ccc2=O)c1 (3D coordinates assigned)
O=C(Nc1ccc(S(=O)(=O)N2CCCCC2)cc1)c1cccc(Cn2cc(Br)ccc2=O)c1 (nonaromatic ring conformer: 69.59149247150418 kcal/mol)

>  <smiles>  (66) 
O=C(Nc1ccc(S(=O)(=O)N2CCCCC2)cc1)c1cccc(Cn2cc(Br)ccc2=O)c1

>  <score_type>  (66) 
oracle

>  <origin>  (66) 
adg

>  <m_score__min__energy>  (66) 
-10.18

>  <m_primary>  (66) 
energy

$$$$
66:0
     RDKit          3D

 37 39  0  0  0  0  0  0  0  0999 V2000
   55.2480   29.7050   44.8990 O   0  0  0  0  0  0  0  0  0  0  0  0
   56.4910   29.8960   44.8280 C   0  0  0  0  0  0  0  0  0  0  0  0
   57.3950   28.9870   45.4690 N   0  0  0  0  0  0  0  0  0  0  0  0
   58.5110   29.3290   46.3030 C   0  0  0  0  0  0  0  0  0  0  0  0
   59.5990   29.9990   45.7260 C   0  0  0  0  0  0  0  0  0  0  0  0
   60.6970   30.3700   46.5070 C   0  0  0  0  0  0  0  0  0  0  0  0
   60.7090   30.0870   47.8750 C   0  0  0  0  0  0  0  0  0  0  0  0
   59.6200   29.4420   48.4660 C   0  0  0  0  0  0  0  0  0  0  0  0
   58.5190   29.0680   47.6860 C   0  0  0  0  0  0  0  0  0  0  0  0
   56.9910   30.9960   44.0490 N   0  0  0  0  0  0  0  0  0  0  0  0
   57.2970   30.9150   42.6310 C   0  0  0  0  0  0  0  0  0  0  0  0
   57.8080   32.3190   42.2790 C   0  0  0  0  0  0  0  0  0  0  0  0
   57.7330   33.0730   43.5240 N   0  0  0  0  0  0  0  0  0  0  0  0
   57.2790   32.3250   44.4720 C   0  0  0  0  0  0  0  0  0  0  0  0
   57.0860   32.8300   45.8800 C   0  0  0  0  0  0  0  0  0  0  0  0
   58.3850   33.2270   46.5360 C   0  0  0  0  0  0  0  0  0  0  0  0
   59.4010   33.8400   45.7820 C   0  0  0  0  0  0  0  0  0  0  0  0
   60.5910   34.2380   46.4000 C   0  0  0  0  0  0  0  0  0  0  0  0
   60.7710   34.0370   47.7700 C   0  0  0  0  0  0  0  0  0  0  0  0
   59.7600   33.4400   48.5280 C   0  0  0  0  0  0  0  0  0  0  0  0
   58.5690   33.0400   47.9160 C   0  0  0  0  0  0  0  0  0  0  0  0
   59.5884   30.2342   44.6515 H   0  0  0  0  0  0  0  0  0  0  0  0
   61.5519   30.8849   46.0445 H   0  0  0  0  0  0  0  0  0  0  0  0
   61.5770   30.3724   48.4875 H   0  0  0  0  0  0  0  0  0  0  0  0
   59.6274   29.2278   49.5449 H   0  0  0  0  0  0  0  0  0  0  0  0
   57.6583   28.5690   48.1552 H   0  0  0  0  0  0  0  0  0  0  0  0
   58.0722   30.1581   42.4412 H   0  0  0  0  0  0  0  0  0  0  0  0
   56.4269   30.6180   42.0270 H   0  0  0  0  0  0  0  0  0  0  0  0
   58.8458   32.2729   41.9173 H   0  0  0  0  0  0  0  0  0  0  0  0
   57.2149   32.7850   41.4783 H   0  0  0  0  0  0  0  0  0  0  0  0
   56.4227   33.7071   45.8521 H   0  0  0  0  0  0  0  0  0  0  0  0
   56.6503   32.0112   46.4713 H   0  0  0  0  0  0  0  0  0  0  0  0
   59.2598   34.0069   44.7040 H   0  0  0  0  0  0  0  0  0  0  0  0
   61.3868   34.7104   45.8054 H   0  0  0  0  0  0  0  0  0  0  0  0
   61.7089   34.3487   48.2528 H   0  0  0  0  0  0  0  0  0  0  0  0
   59.9019   33.2847   49.6077 H   0  0  0  0  0  0  0  0  0  0  0  0
   57.7726   32.5770   48.5172 H   0  0  0  0  0  0  0  0  0  0  0  0
  1  2  2  0
  2  3  1  0
  3  4  1  0
  4  5  2  0
  5  6  1  0
  6  7  2  0
  7  8  1  0
  8  9  2  0
  2 10  1  0
 10 11  1  0
 11 12  1  0
 12 13  1  0
 13 14  2  0
 14 15  1  0
 15 16  1  0
 16 17  2  0
 17 18  1  0
 18 19  2  0
 19 20  1  0
 20 21  2  0
  9  4  1  0
 14 10  1  0
 21 16  1  0
  5 22  1  0
  6 23  1  0
  7 24  1  0
  8 25  1  0
  9 26  1  0
 11 27  1  0
 11 28  1  0
 12 29  1  0
 12 30  1  0
 15 31  1  0
 15 32  1  0
 17 33  1  0
 18 34  1  0
 19 35  1  0
 20 36  1  0
 21 37  1  0
M  CHG  1   3  -1
M  END
>  <UniqueID>  (67) 
61

>  <SMILES>  (67) 
O=C([N-]c1ccccc1)N1CCN=C1Cc1ccccc1

>  <Energy>  (67) 
55.11299404866882

>  <Genealogy>  (67) 
O=C([N-]c1ccccc1)N1CCN=C1Cc1ccccc1 (protonated)
O=C([N-]c1ccccc1)N1CCN=C1Cc1ccccc1 (3D coordinates assigned)
O=C([N-]c1ccccc1)N1CCN=C1Cc1ccccc1 (nonaromatic ring conformer: 55.11299404866882 kcal/mol)

>  <smiles>  (67) 
O=C(Nc1ccccc1)N1CCN=C1Cc1ccccc1

>  <score_type>  (67) 
oracle

>  <origin>  (67) 
adg

>  <m_score__min__energy>  (67) 
-8.7799999999999994

>  <m_primary>  (67) 
energy

$$$$
67:0
     RDKit          3D

 50 52  0  0  0  0  0  0  0  0999 V2000
   55.8070   29.7280   43.7590 C   0  0  0  0  0  0  0  0  0  0  0  0
   56.8110   29.7990   44.6500 C   0  0  0  0  0  0  0  0  0  0  0  0
   57.0220   31.0110   45.2170 N   0  0  0  0  0  0  0  0  0  0  0  0
   58.0180   31.2500   46.0960 C   0  0  0  0  0  0  0  0  0  0  0  0
   58.1440   32.4120   46.5670 O   0  0  0  0  0  0  0  0  0  0  0  0
   58.8710   30.2460   46.4610 N   0  0  0  0  0  0  0  0  0  0  0  0
   59.9430   30.5030   47.4470 C   0  0  0  0  0  0  0  0  0  0  0  0
   59.3540   30.7710   48.8100 C   0  0  0  0  0  0  0  0  0  0  0  0
   59.1740   32.0920   49.2560 C   0  0  0  0  0  0  0  0  0  0  0  0
   58.6040   32.3420   50.5080 C   0  0  0  0  0  0  0  0  0  0  0  0
   58.2070   31.2780   51.3230 C   0  0  0  0  0  0  0  0  0  0  0  0
   58.3810   29.9620   50.8870 C   0  0  0  0  0  0  0  0  0  0  0  0
   58.9510   29.7070   49.6350 C   0  0  0  0  0  0  0  0  0  0  0  0
   58.7010   28.9840   45.9460 C   0  0  0  0  0  0  0  0  0  0  0  0
   59.4550   28.0570   46.3530 O   0  0  0  0  0  0  0  0  0  0  0  0
   57.6680   28.7080   44.9980 C   0  0  0  0  0  0  0  0  0  0  0  0
   57.4780   27.4580   44.4800 C   0  0  0  0  0  0  0  0  0  0  0  0
   57.3970   26.2000   45.2530 C   0  0  0  0  0  0  0  0  0  0  0  0
   58.5180   25.3640   45.3220 C   0  0  0  0  0  0  0  0  0  0  0  0
   58.4740   24.1850   46.0710 C   0  0  0  0  0  0  0  0  0  0  0  0
   57.3130   23.8280   46.7660 C   0  0  0  0  0  0  0  0  0  0  0  0
   57.3180   22.6370   47.5070 O   0  0  0  0  0  0  0  0  0  0  0  0
   56.4830   21.5340   47.2720 C   0  0  0  0  0  0  0  0  0  0  0  0
   55.3240   21.4890   47.7740 O   0  0  0  0  0  0  0  0  0  0  0  0
   56.9340   20.4850   46.3920 N   0  0  0  0  0  0  0  0  0  0  0  0
   57.5250   21.0600   45.1730 C   0  0  0  0  0  0  0  0  0  0  0  0
   57.8980   19.6180   47.0850 C   0  0  0  0  0  0  0  0  0  0  0  0
   56.2010   24.6900   46.7380 C   0  0  0  0  0  0  0  0  0  0  0  0
   56.2440   25.8740   45.9910 C   0  0  0  0  0  0  0  0  0  0  0  0
   55.1410   26.7210   45.9930 O   0  0  0  0  0  0  0  0  0  0  0  0
   55.5805   28.7740   43.2605 H   0  0  0  0  0  0  0  0  0  0  0  0
   55.2119   30.6239   43.5284 H   0  0  0  0  0  0  0  0  0  0  0  0
   60.6012   29.6235   47.5036 H   0  0  0  0  0  0  0  0  0  0  0  0
   60.5163   31.3857   47.1273 H   0  0  0  0  0  0  0  0  0  0  0  0
   59.4829   32.9326   48.6172 H   0  0  0  0  0  0  0  0  0  0  0  0
   58.4677   33.3778   50.8523 H   0  0  0  0  0  0  0  0  0  0  0  0
   57.7578   31.4767   52.3072 H   0  0  0  0  0  0  0  0  0  0  0  0
   58.0693   29.1251   51.5292 H   0  0  0  0  0  0  0  0  0  0  0  0
   59.0843   28.6694   49.2949 H   0  0  0  0  0  0  0  0  0  0  0  0
   57.3759   27.3803   43.3875 H   0  0  0  0  0  0  0  0  0  0  0  0
   59.4379   25.6366   44.7840 H   0  0  0  0  0  0  0  0  0  0  0  0
   59.3586   23.5327   46.1146 H   0  0  0  0  0  0  0  0  0  0  0  0
   56.1100   19.9030   46.1120 H   0  0  0  0  0  0  0  0  0  0  0  0
   58.2879   21.8023   45.4504 H   0  0  0  0  0  0  0  0  0  0  0  0
   57.9907   20.2600   44.5788 H   0  0  0  0  0  0  0  0  0  0  0  0
   56.7381   21.5475   44.5788 H   0  0  0  0  0  0  0  0  0  0  0  0
   57.7749   19.7287   48.1725 H   0  0  0  0  0  0  0  0  0  0  0  0
   57.7196   18.5705   46.8005 H   0  0  0  0  0  0  0  0  0  0  0  0
   58.9208   19.9061   46.8005 H   0  0  0  0  0  0  0  0  0  0  0  0
   55.2942   24.4328   47.3051 H   0  0  0  0  0  0  0  0  0  0  0  0
  1  2  2  0
  2  3  1  0
  3  4  1  0
  4  5  2  0
  4  6  1  0
  6  7  1  0
  7  8  1  0
  8  9  2  0
  9 10  1  0
 10 11  2  0
 11 12  1  0
 12 13  2  0
  6 14  1  0
 14 15  2  0
 14 16  1  0
 16 17  2  3
 17 18  1  0
 18 19  2  0
 19 20  1  0
 20 21  2  0
 21 22  1  0
 22 23  1  0
 23 24  2  0
 23 25  1  0
 25 26  1  0
 25 27  1  0
 21 28  1  0
 28 29  2  0
 29 30  1  0
 16  2  1  0
 29 18  1  0
 13  8  1  0
  1 31  1  0
  1 32  1  0
  7 33  1  0
  7 34  1  0
  9 35  1  0
 10 36  1  0
 11 37  1  0
 12 38  1  0
 13 39  1  0
 17 40  1  0
 19 41  1  0
 20 42  1  0
 25 43  1  0
 26 44  1  0
 26 45  1  0
 26 46  1  0
 27 47  1  0
 27 48  1  0
 27 49  1  0
 28 50  1  0
M  CHG  3   3  -1  25   1  30  -1
M  END
>  <UniqueID>  (68) 
62

>  <SMILES>  (68) 
C=c1[n-]c(=O)n(Cc2ccccc2)c(=O)c1=Cc1ccc(OC(=O)[NH+](C)C)cc1[O-]

>  <Energy>  (68) 
82.27046156943743

>  <Genealogy>  (68) 
C=c1[n-]c(=O)n(Cc2ccccc2)c(=O)c1=Cc1ccc(OC(=O)[NH+](C)C)cc1[O-] (protonated)
C=c1[n-]c(=O)n(Cc2ccccc2)c(=O)c1=Cc1ccc(OC(=O)[NH+](C)C)cc1[O-] (3D coordinates assigned)
C=c1[n-]c(=O)n(Cc2ccccc2)c(=O)c1=Cc1ccc(OC(=O)[NH+](C)C)cc1[O-] (optimized conformer: 82.27046156943743 kcal/mol)

>  <smiles>  (68) 
C=c1[nH]c(=O)n(Cc2ccccc2)c(=O)c1=Cc1ccc(OC(=O)N(C)C)cc1O

>  <score_type>  (68) 
oracle

>  <origin>  (68) 
adg

>  <m_score__min__energy>  (68) 
-12.5

>  <m_primary>  (68) 
energy

$$$$
68:0
     RDKit          3D

 36 37  0  0  0  0  0  0  0  0999 V2000
   55.1540   27.4510   46.0900 H   0  0  0  0  0  0  0  0  0  0  0  0
   55.0450   26.4170   45.9950 N   0  0  0  0  0  0  0  0  0  0  0  0
   56.0960   25.5310   46.3750 C   0  0  0  0  0  0  0  0  0  0  0  0
   56.6990   25.7190   47.4660 O   0  0  0  0  0  0  0  0  0  0  0  0
   56.4570   24.3850   45.5050 C   0  0  0  0  0  0  0  0  0  0  0  0
   55.5280   23.3510   45.2130 C   0  0  0  0  0  0  0  0  0  0  0  0
   53.9130   23.2970   45.9500 S   0  0  0  0  0  0  0  0  0  0  0  0
   53.2440   24.6350   45.7990 O   0  0  0  0  0  0  0  0  0  0  0  0
   53.0880   22.2420   45.2680 O   0  0  0  0  0  0  0  0  0  0  0  0
   53.9800   22.9300   47.6920 C   0  0  0  0  0  0  0  0  0  0  0  0
   53.8117   23.8521   48.2677 H   0  0  0  0  0  0  0  0  0  0  0  0
   53.2013   22.1944   47.9420 H   0  0  0  0  0  0  0  0  0  0  0  0
   54.9684   22.5170   47.9420 H   0  0  0  0  0  0  0  0  0  0  0  0
   55.9080   22.3200   44.3420 C   0  0  0  0  0  0  0  0  0  0  0  0
   55.1938   21.5221   44.0905 H   0  0  0  0  0  0  0  0  0  0  0  0
   57.1860   22.3050   43.7960 C   0  0  0  0  0  0  0  0  0  0  0  0
   57.4824   21.4934   43.1153 H   0  0  0  0  0  0  0  0  0  0  0  0
   58.0670   23.2870   44.1000 N   0  0  0  0  0  0  0  0  0  0  0  0
   57.7520   24.3160   44.9360 C   0  0  0  0  0  0  0  0  0  0  0  0
   58.6180   25.2640   45.1630 N   0  0  0  0  0  0  0  0  0  0  0  0
   58.3970   26.6720   44.9820 C   0  0  0  0  0  0  0  0  0  0  0  0
   58.7500   27.5480   46.0160 C   0  0  0  0  0  0  0  0  0  0  0  0
   59.1696   27.1492   46.9514 H   0  0  0  0  0  0  0  0  0  0  0  0
   58.5720   28.9270   45.8660 C   0  0  0  0  0  0  0  0  0  0  0  0
   58.8376   29.6065   46.6893 H   0  0  0  0  0  0  0  0  0  0  0  0
   58.0570   29.4460   44.6720 C   0  0  0  0  0  0  0  0  0  0  0  0
   57.8530   31.1840   44.4800 S   0  0  0  0  0  0  0  0  0  0  0  0
   56.4460   31.5740   44.8420 O   0  0  0  0  0  0  0  0  0  0  0  0
   58.8040   31.9110   45.3890 O   0  0  0  0  0  0  0  0  0  0  0  0
   58.1670   31.6220   42.8380 N   0  0  0  0  0  0  0  0  0  0  0  0
   57.3390   32.1630   42.5030 H   0  0  0  0  0  0  0  0  0  0  0  0
   58.1920   30.7360   42.2850 H   0  0  0  0  0  0  0  0  0  0  0  0
   57.7430   28.5770   43.6180 C   0  0  0  0  0  0  0  0  0  0  0  0
   57.3572   28.9821   42.6709 H   0  0  0  0  0  0  0  0  0  0  0  0
   57.9180   27.1970   43.7650 C   0  0  0  0  0  0  0  0  0  0  0  0
   57.6700   26.3850   42.7070 F   0  0  0  0  0  0  0  0  0  0  0  0
  1  2  1  0
  2  3  1  0
  3  4  2  0
  3  5  1  0
  5  6  2  0
  6  7  1  0
  7  8  2  0
  7  9  2  0
  7 10  1  0
 10 11  1  0
 10 12  1  0
 10 13  1  0
  6 14  1  0
 14 15  1  0
 14 16  2  0
 16 17  1  0
 16 18  1  0
 18 19  1  0
 19 20  2  0
 20 21  1  0
 21 22  2  0
 22 23  1  0
 22 24  1  0
 24 25  1  0
 24 26  2  0
 26 27  1  0
 27 28  2  0
 27 29  2  0
 27 30  1  0
 30 31  1  0
 30 32  1  0
 26 33  1  0
 33 34  1  0
 33 35  2  0
 35 36  1  0
 19  5  1  0
 35 21  1  0
M  CHG  2   2  -1  18  -1
M  END
>  <UniqueID>  (69) 
63

>  <SMILES>  (69) 
CS(=O)(=O)c1cc[n-]/c(=N\c2ccc(S(N)(=O)=O)cc2F)c1C([NH-])=O

>  <Energy>  (69) 
49.70759388887265

>  <Genealogy>  (69) 
CS(=O)(=O)c1cc[n-]c(=Nc2ccc(S(N)(=O)=O)cc2F)c1C([NH-])=O (protonated)
CS(=O)(=O)c1cc[n-]/c(=N\c2ccc(S(N)(=O)=O)cc2F)c1C([NH-])=O (cis-trans isomerization)
CS(=O)(=O)c1cc[n-]/c(=N\c2ccc(S(N)(=O)=O)cc2F)c1C([NH-])=O (3D coordinates assigned)
CS(=O)(=O)c1cc[n-]/c(=N\c2ccc(S(N)(=O)=O)cc2F)c1C([NH-])=O (optimized conformer: 49.70759388887265 kcal/mol)

>  <smiles>  (69) 
CS(=O)(=O)c1cc[nH]c(=Nc2ccc(S(N)(=O)=O)cc2F)c1C(N)=O

>  <score_type>  (69) 
oracle

>  <origin>  (69) 
adg

>  <m_score__min__energy>  (69) 
-12.83

>  <m_primary>  (69) 
energy

$$$$
69:0
     RDKit          3D

 41 43  0  0  0  0  0  0  0  0999 V2000
   57.7300   26.2170   47.7110 O   0  0  0  0  0  0  0  0  0  0  0  0
   58.0220   26.4500   46.5070 C   0  0  0  0  0  0  0  0  0  0  0  0
   58.9200   25.5720   45.8170 N   0  0  0  0  0  0  0  0  0  0  0  0
   58.7990   24.1180   45.8310 C   0  0  0  0  0  0  0  0  0  0  0  0
   57.4260   23.7080   45.3730 C   0  0  0  0  0  0  0  0  0  0  0  0
   56.3150   23.9320   46.2020 C   0  0  0  0  0  0  0  0  0  0  0  0
   55.0330   23.5810   45.7720 C   0  0  0  0  0  0  0  0  0  0  0  0
   54.8490   23.0100   44.5090 C   0  0  0  0  0  0  0  0  0  0  0  0
   55.9510   22.7890   43.6720 C   0  0  0  0  0  0  0  0  0  0  0  0
   55.7790   22.2290   42.4070 O   0  0  0  0  0  0  0  0  0  0  0  0
   57.2350   23.1360   44.1050 C   0  0  0  0  0  0  0  0  0  0  0  0
   57.4410   27.6300   45.8110 C   0  0  0  0  0  0  0  0  0  0  0  0
   56.0570   27.7300   45.6000 C   0  0  0  0  0  0  0  0  0  0  0  0
   55.1910   26.7190   46.0060 O   0  0  0  0  0  0  0  0  0  0  0  0
   55.5420   28.8160   44.9790 N   0  0  0  0  0  0  0  0  0  0  0  0
   56.3290   29.8280   44.5430 C   0  0  0  0  0  0  0  0  0  0  0  0
   55.7880   30.8130   43.9710 O   0  0  0  0  0  0  0  0  0  0  0  0
   57.6890   29.7780   44.7230 N   0  0  0  0  0  0  0  0  0  0  0  0
   58.5310   30.9040   44.2680 C   0  0  0  0  0  0  0  0  0  0  0  0
   58.5370   32.0140   45.2910 C   0  0  0  0  0  0  0  0  0  0  0  0
   58.3710   31.7110   46.6540 C   0  0  0  0  0  0  0  0  0  0  0  0
   58.3490   32.7310   47.6090 C   0  0  0  0  0  0  0  0  0  0  0  0
   58.4940   34.0620   47.2160 C   0  0  0  0  0  0  0  0  0  0  0  0
   58.6630   34.3760   45.8660 C   0  0  0  0  0  0  0  0  0  0  0  0
   58.6840   33.3610   44.9030 C   0  0  0  0  0  0  0  0  0  0  0  0
   58.8580   33.6940   43.6000 F   0  0  0  0  0  0  0  0  0  0  0  0
   58.2490   28.6950   45.3570 C   0  0  0  0  0  0  0  0  0  0  0  0
   59.4970   28.6540   45.5490 O   0  0  0  0  0  0  0  0  0  0  0  0
   59.5519   23.6840   45.1567 H   0  0  0  0  0  0  0  0  0  0  0  0
   58.9597   23.7537   46.8564 H   0  0  0  0  0  0  0  0  0  0  0  0
   56.4547   24.3858   47.1942 H   0  0  0  0  0  0  0  0  0  0  0  0
   54.1671   23.7541   46.4279 H   0  0  0  0  0  0  0  0  0  0  0  0
   53.8388   22.7341   44.1722 H   0  0  0  0  0  0  0  0  0  0  0  0
   56.3080   22.5550   41.6060 H   0  0  0  0  0  0  0  0  0  0  0  0
   58.0999   22.9598   43.4485 H   0  0  0  0  0  0  0  0  0  0  0  0
   59.5604   30.5469   44.1168 H   0  0  0  0  0  0  0  0  0  0  0  0
   58.1198   31.2944   43.3254 H   0  0  0  0  0  0  0  0  0  0  0  0
   58.2577   30.6637   46.9708 H   0  0  0  0  0  0  0  0  0  0  0  0
   58.2171   32.4841   48.6728 H   0  0  0  0  0  0  0  0  0  0  0  0
   58.4752   34.8634   47.9693 H   0  0  0  0  0  0  0  0  0  0  0  0
   58.7801   35.4256   45.5582 H   0  0  0  0  0  0  0  0  0  0  0  0
  1  2  2  0
  2  3  1  0
  3  4  1  0
  4  5  1  0
  5  6  2  0
  6  7  1  0
  7  8  2  0
  8  9  1  0
  9 10  1  0
  9 11  2  0
  2 12  1  0
 12 13  2  0
 13 14  1  0
 13 15  1  0
 15 16  1  0
 16 17  2  0
 16 18  1  0
 18 19  1  0
 19 20  1  0
 20 21  2  0
 21 22  1  0
 22 23  2  0
 23 24  1  0
 24 25  2  0
 25 26  1  0
 18 27  1  0
 27 28  2  0
 11  5  1  0
 27 12  1  0
 25 20  1  0
  4 29  1  0
  4 30  1  0
  6 31  1  0
  7 32  1  0
  8 33  1  0
 10 34  1  0
 11 35  1  0
 19 36  1  0
 19 37  1  0
 21 38  1  0
 22 39  1  0
 23 40  1  0
 24 41  1  0
M  CHG  3   3  -1  14  -1  15  -1
M  END
>  <UniqueID>  (70) 
64

>  <SMILES>  (70) 
O=C([N-]Cc1cccc(O)c1)c1c([O-])[n-]c(=O)n(Cc2ccccc2F)c1=O

>  <Energy>  (70) 
50.6107005279638

>  <Genealogy>  (70) 
O=C([N-]Cc1cccc(O)c1)c1c([O-])[n-]c(=O)n(Cc2ccccc2F)c1=O (protonated)
O=C([N-]Cc1cccc(O)c1)c1c([O-])[n-]c(=O)n(Cc2ccccc2F)c1=O (3D coordinates assigned)
O=C([N-]Cc1cccc(O)c1)c1c([O-])[n-]c(=O)n(Cc2ccccc2F)c1=O (optimized conformer: 50.6107005279638 kcal/mol)

>  <smiles>  (70) 
O=C(NCc1cccc(O)c1)c1c(O)[nH]c(=O)n(Cc2ccccc2F)c1=O

>  <score_type>  (70) 
oracle

>  <origin>  (70) 
adg

>  <m_score__min__energy>  (70) 
-15.06

>  <m_primary>  (70) 
energy

$$$$
70:0
     RDKit          3D

 36 38  0  0  0  0  0  0  0  0999 V2000
   53.5950   24.5540   45.2180 O   0  0  0  0  0  0  0  0  0  0  0  0
   54.7220   24.9060   45.6530 C   0  0  0  0  0  0  0  0  0  0  0  0
   54.9520   26.2940   45.9320 N   0  0  0  0  0  0  0  0  0  0  0  0
   56.2050   26.9830   45.8240 C   0  0  0  0  0  0  0  0  0  0  0  0
   57.3640   26.3410   46.2780 C   0  0  0  0  0  0  0  0  0  0  0  0
   58.6070   26.9720   46.1790 C   0  0  0  0  0  0  0  0  0  0  0  0
   60.0540   26.1490   46.7330 Cl  0  0  0  0  0  0  0  0  0  0  0  0
   58.7000   28.2540   45.6320 C   0  0  0  0  0  0  0  0  0  0  0  0
   57.5480   28.9190   45.1950 C   0  0  0  0  0  0  0  0  0  0  0  0
   57.6570   30.2420   44.6450 N   0  0  0  0  0  0  0  0  0  0  0  0
   58.0110   31.3410   45.5530 C   0  0  0  0  0  0  0  0  0  0  0  0
   58.5250   32.5660   44.7930 C   0  0  0  0  0  0  0  0  0  0  0  0
   57.5410   32.9570   43.6930 C   0  0  0  0  0  0  0  0  0  0  0  0
   57.4220   31.8410   42.6540 C   0  0  0  0  0  0  0  0  0  0  0  0
   57.2060   30.5010   43.2970 C   0  0  0  0  0  0  0  0  0  0  0  0
   56.7040   29.5720   42.6070 O   0  0  0  0  0  0  0  0  0  0  0  0
   56.2930   28.2970   45.3180 C   0  0  0  0  0  0  0  0  0  0  0  0
   55.1430   28.9980   44.9670 O   0  0  0  0  0  0  0  0  0  0  0  0
   55.7460   23.8720   45.9040 C   0  0  0  0  0  0  0  0  0  0  0  0
   56.7090   23.4380   45.0060 C   0  0  0  0  0  0  0  0  0  0  0  0
   57.4560   22.4910   45.6660 C   0  0  0  0  0  0  0  0  0  0  0  0
   56.9160   22.4080   46.9300 C   0  0  0  0  0  0  0  0  0  0  0  0
   57.3800   21.5670   47.9320 O   0  0  0  0  0  0  0  0  0  0  0  0
   55.8770   23.2470   47.0930 N   0  0  0  0  0  0  0  0  0  0  0  0
   57.2955   25.3339   46.7152 H   0  0  0  0  0  0  0  0  0  0  0  0
   59.6816   28.7427   45.5443 H   0  0  0  0  0  0  0  0  0  0  0  0
   57.1187   31.6282   46.1286 H   0  0  0  0  0  0  0  0  0  0  0  0
   58.8148   30.9895   46.2166 H   0  0  0  0  0  0  0  0  0  0  0  0
   58.6392   33.4064   45.4935 H   0  0  0  0  0  0  0  0  0  0  0  0
   59.4955   32.3228   44.3358 H   0  0  0  0  0  0  0  0  0  0  0  0
   56.5531   33.1408   44.1406 H   0  0  0  0  0  0  0  0  0  0  0  0
   57.9091   33.8663   43.1954 H   0  0  0  0  0  0  0  0  0  0  0  0
   56.5709   32.0598   41.9924 H   0  0  0  0  0  0  0  0  0  0  0  0
   58.3635   31.8002   42.0867 H   0  0  0  0  0  0  0  0  0  0  0  0
   56.8479   23.7829   43.9707 H   0  0  0  0  0  0  0  0  0  0  0  0
   58.3071   21.9192   45.2676 H   0  0  0  0  0  0  0  0  0  0  0  0
  1  2  2  0
  2  3  1  0
  3  4  1  0
  4  5  2  0
  5  6  1  0
  6  7  1  0
  6  8  2  0
  8  9  1  0
  9 10  1  0
 10 11  1  0
 11 12  1  0
 12 13  1  0
 13 14  1  0
 14 15  1  0
 15 16  2  0
  9 17  2  0
 17 18  1  0
  2 19  1  0
 19 20  2  0
 20 21  1  0
 21 22  2  0
 22 23  1  0
 22 24  1  0
 17  4  1  0
 24 19  1  0
 15 10  1  0
  5 25  1  0
  8 26  1  0
 11 27  1  0
 11 28  1  0
 12 29  1  0
 12 30  1  0
 13 31  1  0
 13 32  1  0
 14 33  1  0
 14 34  1  0
 20 35  1  0
 21 36  1  0
M  CHG  4   3  -1  18  -1  23  -1  24  -1
M  END
>  <UniqueID>  (71) 
65

>  <SMILES>  (71) 
O=C([N-]c1cc(Cl)cc(N2CCCCC2=O)c1[O-])c1ccc([O-])[n-]1

>  <Energy>  (71) 
72.76225783510274

>  <Genealogy>  (71) 
O=C([N-]c1cc(Cl)cc(N2CCCCC2=O)c1[O-])c1ccc([O-])[n-]1 (protonated)
O=C([N-]c1cc(Cl)cc(N2CCCCC2=O)c1[O-])c1ccc([O-])[n-]1 (3D coordinates assigned)
O=C([N-]c1cc(Cl)cc(N2CCCCC2=O)c1[O-])c1ccc([O-])[n-]1 (nonaromatic ring conformer: 72.76225783510274 kcal/mol)

>  <smiles>  (71) 
O=C(Nc1cc(Cl)cc(N2CCCCC2=O)c1O)c1ccc(O)[nH]1

>  <score_type>  (71) 
oracle

>  <origin>  (71) 
adg

>  <m_score__min__energy>  (71) 
-17.41

>  <m_primary>  (71) 
energy

$$$$
71:0
     RDKit          3D

 56 58  0  0  0  0  0  0  0  0999 V2000
   50.2970   25.0500   43.9980 C   0  0  0  0  0  0  0  0  0  0  0  0
   51.2710   23.9640   43.6680 C   0  0  0  0  0  0  0  0  0  0  0  0
   51.6880   23.8380   42.4840 O   0  0  0  0  0  0  0  0  0  0  0  0
   51.7990   23.1460   44.7200 N   0  0  0  0  0  0  0  0  0  0  0  0
   53.1190   23.2400   45.2830 C   0  0  0  0  0  0  0  0  0  0  0  0
   53.3730   22.9400   46.6330 C   0  0  0  0  0  0  0  0  0  0  0  0
   54.6660   23.0690   47.1540 C   0  0  0  0  0  0  0  0  0  0  0  0
   55.7210   23.5020   46.3330 C   0  0  0  0  0  0  0  0  0  0  0  0
   57.0810   23.6560   46.8820 C   0  0  0  0  0  0  0  0  0  0  0  0
   57.7650   22.6310   47.0970 O   0  0  0  0  0  0  0  0  0  0  0  0
   57.6270   24.9430   47.2100 N   0  0  0  0  0  0  0  0  0  0  0  0
   57.0810   26.2100   46.7340 C   0  0  0  0  0  0  0  0  0  0  0  0
   57.6400   26.5070   45.3760 C   0  0  0  0  0  0  0  0  0  0  0  0
   57.8410   25.5520   44.5790 O   0  0  0  0  0  0  0  0  0  0  0  0
   57.9990   27.8340   44.9680 N   0  0  0  0  0  0  0  0  0  0  0  0
   57.3740   28.6120   43.9010 C   0  0  0  0  0  0  0  0  0  0  0  0
   56.6280   29.8050   44.4370 C   0  0  0  0  0  0  0  0  0  0  0  0
   55.6200   30.2260   43.8090 O   0  0  0  0  0  0  0  0  0  0  0  0
   57.0440   30.4980   45.6220 N   0  0  0  0  0  0  0  0  0  0  0  0
   57.7960   31.7150   45.6150 C   0  0  0  0  0  0  0  0  0  0  0  0
   57.3730   32.7800   44.8090 C   0  0  0  0  0  0  0  0  0  0  0  0
   58.0890   33.9780   44.7920 C   0  0  0  0  0  0  0  0  0  0  0  0
   59.2420   34.1150   45.5680 C   0  0  0  0  0  0  0  0  0  0  0  0
   59.6830   33.0510   46.3580 C   0  0  0  0  0  0  0  0  0  0  0  0
   58.9670   31.8420   46.3880 C   0  0  0  0  0  0  0  0  0  0  0  0
   59.4810   30.7260   47.1400 N   0  0  0  0  0  0  0  0  0  0  0  0
   59.9980   29.5620   46.4060 C   0  0  0  0  0  0  0  0  0  0  0  0
   60.3670   28.4280   47.3490 C   0  0  0  0  0  0  0  0  0  0  0  0
   59.3570   28.2760   48.3150 O   0  0  0  0  0  0  0  0  0  0  0  0
   59.4500   29.3330   49.2460 C   0  0  0  0  0  0  0  0  0  0  0  0
   59.2480   30.7190   48.5960 C   0  0  0  0  0  0  0  0  0  0  0  0
   55.4610   23.8340   44.9930 C   0  0  0  0  0  0  0  0  0  0  0  0
   54.1690   23.7010   44.4710 C   0  0  0  0  0  0  0  0  0  0  0  0
   50.2110   25.1459   45.0904 H   0  0  0  0  0  0  0  0  0  0  0  0
   50.6505   26.0011   43.5731 H   0  0  0  0  0  0  0  0  0  0  0  0
   49.3132   24.8017   43.5731 H   0  0  0  0  0  0  0  0  0  0  0  0
   52.5521   22.6024   47.2827 H   0  0  0  0  0  0  0  0  0  0  0  0
   54.8569   22.8304   48.2107 H   0  0  0  0  0  0  0  0  0  0  0  0
   55.9850   26.1389   46.6734 H   0  0  0  0  0  0  0  0  0  0  0  0
   57.3544   27.0159   47.4310 H   0  0  0  0  0  0  0  0  0  0  0  0
   58.1564   28.9624   43.2117 H   0  0  0  0  0  0  0  0  0  0  0  0
   56.6515   27.9627   43.3849 H   0  0  0  0  0  0  0  0  0  0  0  0
   56.4725   32.6715   44.1867 H   0  0  0  0  0  0  0  0  0  0  0  0
   57.7448   34.8150   44.1668 H   0  0  0  0  0  0  0  0  0  0  0  0
   59.8030   35.0611   45.5570 H   0  0  0  0  0  0  0  0  0  0  0  0
   60.5967   33.1600   46.9607 H   0  0  0  0  0  0  0  0  0  0  0  0
   59.2259   29.2086   45.7067 H   0  0  0  0  0  0  0  0  0  0  0  0
   60.9048   29.8700   45.8649 H   0  0  0  0  0  0  0  0  0  0  0  0
   60.4711   27.4942   46.7769 H   0  0  0  0  0  0  0  0  0  0  0  0
   61.3198   28.6601   47.8473 H   0  0  0  0  0  0  0  0  0  0  0  0
   58.6795   29.1907   50.0181 H   0  0  0  0  0  0  0  0  0  0  0  0
   60.4633   29.3110   49.6736 H   0  0  0  0  0  0  0  0  0  0  0  0
   58.2144   31.0446   48.7847 H   0  0  0  0  0  0  0  0  0  0  0  0
   59.9881   31.3977   49.0451 H   0  0  0  0  0  0  0  0  0  0  0  0
   56.2760   24.2000   44.3513 H   0  0  0  0  0  0  0  0  0  0  0  0
   53.9747   23.9588   43.4194 H   0  0  0  0  0  0  0  0  0  0  0  0
  1  2  1  0
  2  3  2  0
  2  4  1  0
  4  5  1  0
  5  6  2  0
  6  7  1  0
  7  8  2  0
  8  9  1  0
  9 10  2  0
  9 11  1  0
 11 12  1  0
 12 13  1  0
 13 14  2  0
 13 15  1  0
 15 16  1  0
 16 17  1  0
 17 18  2  0
 17 19  1  0
 19 20  1  0
 20 21  2  0
 21 22  1  0
 22 23  2  0
 23 24  1  0
 24 25  2  0
 25 26  1  0
 26 27  1  0
 27 28  1  0
 28 29  1  0
 29 30  1  0
 30 31  1  0
  8 32  1  0
 32 33  2  0
 33  5  1  0
 25 20  1  0
 31 26  1  0
  1 34  1  0
  1 35  1  0
  1 36  1  0
  6 37  1  0
  7 38  1  0
 12 39  1  0
 12 40  1  0
 16 41  1  0
 16 42  1  0
 21 43  1  0
 22 44  1  0
 23 45  1  0
 24 46  1  0
 27 47  1  0
 27 48  1  0
 28 49  1  0
 28 50  1  0
 30 51  1  0
 30 52  1  0
 31 53  1  0
 31 54  1  0
 32 55  1  0
 33 56  1  0
M  CHG  4   4  -1  11  -1  15  -1  19  -1
M  END
>  <UniqueID>  (72) 
66

>  <SMILES>  (72) 
CC(=O)[N-]c1ccc(C(=O)[N-]CC(=O)[N-]CC(=O)[N-]c2ccccc2N2CCOCC2)cc1

>  <Energy>  (72) 
75.5450544953463

>  <Genealogy>  (72) 
CC(=O)[N-]c1ccc(C(=O)[N-]CC(=O)[N-]CC(=O)[N-]c2ccccc2N2CCOCC2)cc1 (protonated)
CC(=O)[N-]c1ccc(C(=O)[N-]CC(=O)[N-]CC(=O)[N-]c2ccccc2N2CCOCC2)cc1 (3D coordinates assigned)
CC(=O)[N-]c1ccc(C(=O)[N-]CC(=O)[N-]CC(=O)[N-]c2ccccc2N2CCOCC2)cc1 (nonaromatic ring conformer: 75.5450544953463 kcal/mol)

>  <smiles>  (72) 
CC(=O)Nc1ccc(C(=O)NCC(=O)NCC(=O)Nc2ccccc2N2CCOCC2)cc1

>  <score_type>  (72) 
oracle

>  <origin>  (72) 
adg

>  <m_score__min__energy>  (72) 
-14.65

>  <m_primary>  (72) 
energy

$$$$
72:0
     RDKit          3D

 44 46  0  0  0  0  0  0  0  0999 V2000
   61.3260   32.9820   48.0400 C   0  0  0  0  0  0  0  0  0  0  0  0
   60.6450   34.2070   47.4320 C   0  0  0  0  0  0  0  0  0  0  0  0
   59.1320   34.2070   47.6770 C   0  0  0  0  0  0  0  0  0  0  0  0
   58.3970   34.5880   46.4740 N   0  0  0  0  0  0  0  0  0  0  0  0
   58.8410   34.2960   45.1430 C   0  0  0  0  0  0  0  0  0  0  0  0
   59.6040   35.0970   44.5410 O   0  0  0  0  0  0  0  0  0  0  0  0
   58.3720   33.1330   44.4540 N   0  0  0  0  0  0  0  0  0  0  0  0
   58.3940   31.7860   44.9490 C   0  0  0  0  0  0  0  0  0  0  0  0
   59.5390   31.3290   45.6000 C   0  0  0  0  0  0  0  0  0  0  0  0
   59.5990   30.0320   46.1120 C   0  0  0  0  0  0  0  0  0  0  0  0
   58.4960   29.1580   45.9990 C   0  0  0  0  0  0  0  0  0  0  0  0
   58.5250   27.8330   46.5100 C   0  0  0  0  0  0  0  0  0  0  0  0
   59.7430   27.2700   47.2300 C   0  0  0  0  0  0  0  0  0  0  0  0
   59.8700   27.8300   48.6260 C   0  0  0  0  0  0  0  0  0  0  0  0
   60.6480   27.1660   49.5930 C   0  0  0  0  0  0  0  0  0  0  0  0
   60.7760   27.6950   50.8800 C   0  0  0  0  0  0  0  0  0  0  0  0
   60.1420   28.8940   51.2130 C   0  0  0  0  0  0  0  0  0  0  0  0
   59.3830   29.5710   50.2540 C   0  0  0  0  0  0  0  0  0  0  0  0
   59.2520   29.0470   48.9650 C   0  0  0  0  0  0  0  0  0  0  0  0
   57.3680   27.0330   46.3690 C   0  0  0  0  0  0  0  0  0  0  0  0
   57.3530   25.8540   46.8200 O   0  0  0  0  0  0  0  0  0  0  0  0
   56.2570   27.5200   45.7520 N   0  0  0  0  0  0  0  0  0  0  0  0
   55.1460   26.7130   45.6300 O   0  0  0  0  0  0  0  0  0  0  0  0
   56.2090   28.7830   45.2520 C   0  0  0  0  0  0  0  0  0  0  0  0
   55.0440   29.2260   44.6300 O   0  0  0  0  0  0  0  0  0  0  0  0
   57.3220   29.6310   45.3620 C   0  0  0  0  0  0  0  0  0  0  0  0
   57.2780   30.9430   44.8520 C   0  0  0  0  0  0  0  0  0  0  0  0
   61.2889   33.0487   49.1373 H   0  0  0  0  0  0  0  0  0  0  0  0
   60.8047   32.0712   47.7102 H   0  0  0  0  0  0  0  0  0  0  0  0
   62.3747   32.9440   47.7102 H   0  0  0  0  0  0  0  0  0  0  0  0
   61.0771   35.1129   47.8821 H   0  0  0  0  0  0  0  0  0  0  0  0
   60.8120   34.1826   46.3450 H   0  0  0  0  0  0  0  0  0  0  0  0
   58.8191   33.1978   47.9829 H   0  0  0  0  0  0  0  0  0  0  0  0
   58.9092   34.9408   48.4656 H   0  0  0  0  0  0  0  0  0  0  0  0
   60.4049   31.9982   45.7114 H   0  0  0  0  0  0  0  0  0  0  0  0
   60.5171   29.6865   46.6097 H   0  0  0  0  0  0  0  0  0  0  0  0
   59.6475   26.1759   47.2914 H   0  0  0  0  0  0  0  0  0  0  0  0
   60.6410   27.5542   46.6618 H   0  0  0  0  0  0  0  0  0  0  0  0
   61.1577   26.2262   49.3343 H   0  0  0  0  0  0  0  0  0  0  0  0
   61.3780   27.1654   51.6331 H   0  0  0  0  0  0  0  0  0  0  0  0
   60.2398   29.3051   52.2286 H   0  0  0  0  0  0  0  0  0  0  0  0
   58.8878   30.5181   50.5144 H   0  0  0  0  0  0  0  0  0  0  0  0
   58.6622   29.5895   48.2114 H   0  0  0  0  0  0  0  0  0  0  0  0
   56.3585   31.3101   44.3726 H   0  0  0  0  0  0  0  0  0  0  0  0
  1  2  1  0
  2  3  1  0
  3  4  1  0
  4  5  1  0
  5  6  2  0
  5  7  1  0
  7  8  1  0
  8  9  1  0
  9 10  2  0
 10 11  1  0
 11 12  2  0
 12 13  1  0
 13 14  1  0
 14 15  2  0
 15 16  1  0
 16 17  2  0
 17 18  1  0
 18 19  2  0
 12 20  1  0
 20 21  2  0
 20 22  1  0
 22 23  1  0
 22 24  1  0
 24 25  1  0
 24 26  2  0
 26 27  1  0
 27  8  2  0
 26 11  1  0
 19 14  1  0
  1 28  1  0
  1 29  1  0
  1 30  1  0
  2 31  1  0
  2 32  1  0
  3 33  1  0
  3 34  1  0
  9 35  1  0
 10 36  1  0
 13 37  1  0
 13 38  1  0
 15 39  1  0
 16 40  1  0
 17 41  1  0
 18 42  1  0
 19 43  1  0
 27 44  1  0
M  CHG  4   4  -1   7  -1  23  -1  25  -1
M  END
>  <UniqueID>  (73) 
67

>  <SMILES>  (73) 
CCC[N-]C(=O)[N-]c1ccc2c(Cc3ccccc3)c(=O)n([O-])c([O-])c2c1

>  <Energy>  (73) 
51.9035828278783

>  <Genealogy>  (73) 
CCC[N-]C(=O)[N-]c1ccc2c(Cc3ccccc3)c(=O)n([O-])c([O-])c2c1 (protonated)
CCC[N-]C(=O)[N-]c1ccc2c(Cc3ccccc3)c(=O)n([O-])c([O-])c2c1 (3D coordinates assigned)
CCC[N-]C(=O)[N-]c1ccc2c(Cc3ccccc3)c(=O)n([O-])c([O-])c2c1 (optimized conformer: 51.9035828278783 kcal/mol)

>  <smiles>  (73) 
CCCNC(=O)Nc1ccc2c(Cc3ccccc3)c(=O)n(O)c(O)c2c1

>  <score_type>  (73) 
oracle

>  <origin>  (73) 
adg

>  <m_score__min__energy>  (73) 
-16.530000000000001

>  <m_primary>  (73) 
energy

$$$$
73:0
     RDKit          3D

 51 54  0  0  0  0  0  0  0  0999 V2000
   56.9610   33.7370   47.0170 H   0  0  0  0  0  0  0  0  0  0  0  0
   57.2490   32.9790   46.3610 N   0  0  0  0  0  0  0  0  0  0  0  0
   58.3610   32.3140   46.4730 C   0  0  0  0  0  0  0  0  0  0  0  0
   58.6190   31.1580   45.6440 N   0  0  0  0  0  0  0  0  0  0  0  0
   57.9540   30.9980   44.3790 C   0  0  0  0  0  0  0  0  0  0  0  0
   58.2640   31.8640   43.3190 C   0  0  0  0  0  0  0  0  0  0  0  0
   59.0142   32.6555   43.4630 H   0  0  0  0  0  0  0  0  0  0  0  0
   57.6260   31.7290   42.0790 C   0  0  0  0  0  0  0  0  0  0  0  0
   57.9320   32.6850   40.9640 C   0  0  0  0  0  0  0  0  0  0  0  0
   58.2418   33.6527   41.3854 H   0  0  0  0  0  0  0  0  0  0  0  0
   58.7447   32.2778   40.3445 H   0  0  0  0  0  0  0  0  0  0  0  0
   57.0339   32.8254   40.3445 H   0  0  0  0  0  0  0  0  0  0  0  0
   56.6490   30.7380   41.9110 C   0  0  0  0  0  0  0  0  0  0  0  0
   56.1262   30.6424   40.9479 H   0  0  0  0  0  0  0  0  0  0  0  0
   56.3360   29.8710   42.9610 C   0  0  0  0  0  0  0  0  0  0  0  0
   55.5748   29.0903   42.8159 H   0  0  0  0  0  0  0  0  0  0  0  0
   56.9860   29.9890   44.2000 C   0  0  0  0  0  0  0  0  0  0  0  0
   56.6420   29.0510   45.3240 C   0  0  0  0  0  0  0  0  0  0  0  0
   56.8250   29.5500   46.2870 H   0  0  0  0  0  0  0  0  0  0  0  0
   55.5815   28.7677   45.2536 H   0  0  0  0  0  0  0  0  0  0  0  0
   57.2679   28.1492   45.2536 H   0  0  0  0  0  0  0  0  0  0  0  0
   59.6100   30.1990   46.0650 C   0  0  0  0  0  0  0  0  0  0  0  0
   59.4400   28.8830   45.8300 C   0  0  0  0  0  0  0  0  0  0  0  0
   58.6669   28.5438   45.1249 H   0  0  0  0  0  0  0  0  0  0  0  0
   60.3120   27.8780   46.5360 C   0  0  0  0  0  0  0  0  0  0  0  0
   61.3071   27.8688   46.0672 H   0  0  0  0  0  0  0  0  0  0  0  0
   59.8475   26.8841   46.4563 H   0  0  0  0  0  0  0  0  0  0  0  0
   60.4560   28.2450   48.0270 C   0  0  0  0  0  0  0  0  0  0  0  0
   61.3100   27.6953   48.4496 H   0  0  0  0  0  0  0  0  0  0  0  0
   59.5223   27.9732   48.5412 H   0  0  0  0  0  0  0  0  0  0  0  0
   60.6860   29.7300   48.2130 C   0  0  0  0  0  0  0  0  0  0  0  0
   60.8080   30.1790   49.3410 O   0  0  0  0  0  0  0  0  0  0  0  0
   60.7450   30.6210   46.9800 C   0  0  2  0  0  0  0  0  0  0  0  0
   61.7361   30.4621   46.5300 H   0  0  0  0  0  0  0  0  0  0  0  0
   60.7500   32.1580   47.2110 C   0  0  2  0  0  0  0  0  0  0  0  0
   61.0028   32.6470   46.2586 H   0  0  0  0  0  0  0  0  0  0  0  0
   61.8500   32.5820   48.1640 C   0  0  0  0  0  0  0  0  0  0  0  0
   63.4880   32.2960   47.8980 S   0  0  0  0  0  0  0  0  0  0  0  0
   64.0250   32.9720   49.3410 C   0  0  0  0  0  0  0  0  0  0  0  0
   65.4540   33.1280   49.7380 C   0  0  0  0  0  0  0  0  0  0  0  0
   65.5309   33.1364   50.8353 H   0  0  0  0  0  0  0  0  0  0  0  0
   66.0400   32.2885   49.3358 H   0  0  0  0  0  0  0  0  0  0  0  0
   65.8451   34.0742   49.3358 H   0  0  0  0  0  0  0  0  0  0  0  0
   62.9290   33.4510   50.0470 C   0  0  0  0  0  0  0  0  0  0  0  0
   63.0102   33.9592   51.0192 H   0  0  0  0  0  0  0  0  0  0  0  0
   61.7110   33.2220   49.3970 C   0  0  0  0  0  0  0  0  0  0  0  0
   60.7382   33.5176   49.8169 H   0  0  0  0  0  0  0  0  0  0  0  0
   59.3420   32.6930   47.5630 C   0  0  1  0  0  0  0  0  0  0  0  0
   59.0185   32.2433   48.5133 H   0  0  0  0  0  0  0  0  0  0  0  0
   59.3770   34.1630   47.7200 C   0  0  0  0  0  0  0  0  0  0  0  0
   59.4050   35.3130   47.8410 N   0  0  0  0  0  0  0  0  0  0  0  0
  1  2  1  0
  2  3  2  0
  3  4  1  0
  4  5  1  0
  5  6  2  0
  6  7  1  0
  6  8  1  0
  8  9  1  0
  9 10  1  0
  9 11  1  0
  9 12  1  0
  8 13  2  0
 13 14  1  0
 13 15  1  0
 15 16  1  0
 15 17  2  0
 17 18  1  0
 18 19  1  0
 18 20  1  0
 18 21  1  0
  4 22  1  0
 22 23  2  0
 23 24  1  0
 23 25  1  0
 25 26  1  0
 25 27  1  0
 25 28  1  0
 28 29  1  0
 28 30  1  0
 28 31  1  0
 31 32  2  0
 31 33  1  0
 33 34  1  6
 33 35  1  0
 35 36  1  6
 35 37  1  0
 37 38  1  0
 38 39  1  0
 39 40  1  0
 40 41  1  0
 40 42  1  0
 40 43  1  0
 39 44  2  0
 44 45  1  0
 44 46  1  0
 46 47  1  0
 35 48  1  0
 48 49  1  1
 48 50  1  0
 50 51  3  0
 48  3  1  0
 17  5  1  0
 33 22  1  0
 46 37  2  0
M  END
>  <UniqueID>  (74) 
68

>  <SMILES>  (74) 
[H]/N=C1/[C@H](C#N)[C@@H](c2ccc(C)s2)C2C(=O)CCC=C2N1c1cc(C)ccc1C

>  <Energy>  (74) 
95.78712633999912

>  <Genealogy>  (74) 
Cc1ccc(C)c(N2C(=N)[C@H](C#N)[C@@H](c3ccc(C)s3)C3C(=O)CCC=C32)c1 (chirality)
[H]/N=C1/[C@H](C#N)[C@@H](c2ccc(C)s2)C2C(=O)CCC=C2N1c1cc(C)ccc1C (cis-trans isomerization)
[H]/N=C1/[C@H](C#N)[C@@H](c2ccc(C)s2)C2C(=O)CCC=C2N1c1cc(C)ccc1C (3D coordinates assigned)
[H]/N=C1/[C@H](C#N)[C@@H](c2ccc(C)s2)C2C(=O)CCC=C2N1c1cc(C)ccc1C (nonaromatic ring conformer: 95.78712633999912 kcal/mol)

>  <smiles>  (74) 
Cc1ccc(C)c(N2C(=N)C(C#N)C(c3ccc(C)s3)C3C(=O)CCC=C32)c1

>  <score_type>  (74) 
oracle

>  <origin>  (74) 
adg

>  <m_score__min__energy>  (74) 
-8.6999999999999993

>  <m_primary>  (74) 
energy

$$$$
74:0
     RDKit          3D

 50 53  0  0  0  0  0  0  0  0999 V2000
   56.1159   23.3783   47.5599 H   0  0  0  0  0  0  0  0  0  0  0  0
   56.4450   24.3060   47.0690 C   0  0  0  0  0  0  0  0  0  0  0  0
   55.5300   25.2260   46.6770 N   0  0  0  0  0  0  0  0  0  0  0  0
   55.8950   26.3820   46.0630 C   0  0  0  0  0  0  0  0  0  0  0  0
   55.1215   27.1015   45.7563 H   0  0  0  0  0  0  0  0  0  0  0  0
   57.2520   26.6710   45.8140 C   0  0  0  0  0  0  0  0  0  0  0  0
   57.5910   27.9230   45.0820 C   0  0  0  0  0  0  0  0  0  0  0  0
   58.3740   27.8990   44.0950 O   0  0  0  0  0  0  0  0  0  0  0  0
   56.9970   29.1670   45.5030 N   0  0  0  0  0  0  0  0  0  0  0  0
   57.3260   30.3670   45.1190 C   0  0  0  0  0  0  0  0  0  0  0  0
   57.9050   31.2510   45.9820 N   0  0  0  0  0  0  0  0  0  0  0  0
   58.2450   32.5130   45.6050 C   0  0  0  0  0  0  0  0  0  0  0  0
   58.7067   33.1984   46.3310 H   0  0  0  0  0  0  0  0  0  0  0  0
   58.0080   32.9380   44.2970 C   0  0  0  0  0  0  0  0  0  0  0  0
   58.2838   33.9559   43.9841 H   0  0  0  0  0  0  0  0  0  0  0  0
   57.4180   32.0580   43.3920 C   0  0  0  0  0  0  0  0  0  0  0  0
   57.2247   32.3810   42.3584 H   0  0  0  0  0  0  0  0  0  0  0  0
   57.0710   30.7640   43.7960 C   0  0  0  0  0  0  0  0  0  0  0  0
   56.3160   29.6720   42.6400 Cl  0  0  0  0  0  0  0  0  0  0  0  0
   58.2220   25.7230   46.2410 C   0  0  0  0  0  0  0  0  0  0  0  0
   59.9950   25.9370   45.9920 S   0  0  0  0  0  0  0  0  0  0  0  0
   60.0210   27.5880   46.6980 C   0  0  0  0  0  0  0  0  0  0  0  0
   59.5270   27.8010   47.9910 C   0  0  0  0  0  0  0  0  0  0  0  0
   59.1243   26.9568   48.5699 H   0  0  0  0  0  0  0  0  0  0  0  0
   59.5440   29.0820   48.5480 C   0  0  0  0  0  0  0  0  0  0  0  0
   59.1338   29.2480   49.5551 H   0  0  0  0  0  0  0  0  0  0  0  0
   60.0830   30.1570   47.8260 C   0  0  0  0  0  0  0  0  0  0  0  0
   60.0830   31.5180   48.3940 C   0  0  0  0  0  0  0  0  0  0  0  0
   58.9780   32.0100   48.7560 O   0  0  0  0  0  0  0  0  0  0  0  0
   61.2800   32.3340   48.4480 N   0  0  0  0  0  0  0  0  0  0  0  0
   62.0740   31.7110   48.7330 H   0  0  0  0  0  0  0  0  0  0  0  0
   61.1410   33.3950   49.4690 C   0  0  0  0  0  0  0  0  0  0  0  0
   60.1722   33.8980   49.3329 H   0  0  0  0  0  0  0  0  0  0  0  0
   61.2024   32.9287   50.4634 H   0  0  0  0  0  0  0  0  0  0  0  0
   62.2710   34.4410   49.3520 C   0  0  0  0  0  0  0  0  0  0  0  0
   61.8731   35.3478   48.8731 H   0  0  0  0  0  0  0  0  0  0  0  0
   62.6426   34.6688   50.3620 H   0  0  0  0  0  0  0  0  0  0  0  0
   63.3460   33.9440   48.5790 O   0  0  0  0  0  0  0  0  0  0  0  0
   62.9260   33.7480   47.2390 C   0  0  0  0  0  0  0  0  0  0  0  0
   62.7536   34.7312   46.7768 H   0  0  0  0  0  0  0  0  0  0  0  0
   63.7186   33.1885   46.7206 H   0  0  0  0  0  0  0  0  0  0  0  0
   61.6230   32.9170   47.1370 C   0  0  0  0  0  0  0  0  0  0  0  0
   60.8022   33.5696   46.8048 H   0  0  0  0  0  0  0  0  0  0  0  0
   61.7754   32.1025   46.4135 H   0  0  0  0  0  0  0  0  0  0  0  0
   60.5740   29.9430   46.5320 C   0  0  0  0  0  0  0  0  0  0  0  0
   60.9800   30.7859   45.9535 H   0  0  0  0  0  0  0  0  0  0  0  0
   60.5500   28.6620   45.9730 C   0  0  0  0  0  0  0  0  0  0  0  0
   60.9479   28.4976   44.9607 H   0  0  0  0  0  0  0  0  0  0  0  0
   57.8000   24.5340   46.8510 C   0  0  0  0  0  0  0  0  0  0  0  0
   58.5405   23.7806   47.1576 H   0  0  0  0  0  0  0  0  0  0  0  0
  1  2  1  0
  2  3  2  0
  3  4  1  0
  4  5  1  0
  4  6  2  0
  6  7  1  0
  7  8  2  0
  7  9  1  0
  9 10  2  0
 10 11  1  0
 11 12  1  0
 12 13  1  0
 12 14  2  0
 14 15  1  0
 14 16  1  0
 16 17  1  0
 16 18  2  0
 18 19  1  0
  6 20  1  0
 20 21  1  0
 21 22  1  0
 22 23  2  0
 23 24  1  0
 23 25  1  0
 25 26  1  0
 25 27  2  0
 27 28  1  0
 28 29  2  0
 28 30  1  0
 30 31  1  0
 30 32  1  0
 32 33  1  0
 32 34  1  0
 32 35  1  0
 35 36  1  0
 35 37  1  0
 35 38  1  0
 38 39  1  0
 39 40  1  0
 39 41  1  0
 39 42  1  0
 42 43  1  0
 42 44  1  0
 27 45  1  0
 45 46  1  0
 45 47  2  0
 47 48  1  0
 20 49  2  0
 49 50  1  0
 49  2  1  0
 18 10  1  0
 47 22  1  0
 42 30  1  0
M  CHG  2  11  -1  30   1
M  END
>  <UniqueID>  (75) 
69

>  <SMILES>  (75) 
O=C(/N=c1\[n-]cccc1Cl)c1cnccc1Sc1ccc(C(=O)[NH+]2CCOCC2)cc1

>  <Energy>  (75) 
78.82293663574049

>  <Genealogy>  (75) 
O=C(N=c1[n-]cccc1Cl)c1cnccc1Sc1ccc(C(=O)[NH+]2CCOCC2)cc1 (protonated)
O=C(/N=c1\[n-]cccc1Cl)c1cnccc1Sc1ccc(C(=O)[NH+]2CCOCC2)cc1 (cis-trans isomerization)
O=C(/N=c1\[n-]cccc1Cl)c1cnccc1Sc1ccc(C(=O)[NH+]2CCOCC2)cc1 (3D coordinates assigned)
O=C(/N=c1\[n-]cccc1Cl)c1cnccc1Sc1ccc(C(=O)[NH+]2CCOCC2)cc1 (nonaromatic ring conformer: 78.82293663574049 kcal/mol)

>  <smiles>  (75) 
O=C(N=c1[nH]cccc1Cl)c1cnccc1Sc1ccc(C(=O)N2CCOCC2)cc1

>  <score_type>  (75) 
oracle

>  <origin>  (75) 
adg

>  <m_score__min__energy>  (75) 
-9.6600000000000001

>  <m_primary>  (75) 
energy

$$$$
75:0
     RDKit          3D

 40 42  0  0  0  0  0  0  0  0999 V2000
   58.4500   30.9400   47.2830 C   0  0  0  0  0  0  0  0  0  0  0  0
   58.1400   30.9400   45.9780 C   0  0  0  0  0  0  0  0  0  0  0  0
   58.2120   29.8700   45.0720 C   0  0  0  0  0  0  0  0  0  0  0  0
   58.3970   28.5560   45.2930 C   0  0  0  0  0  0  0  0  0  0  0  0
   57.3400   27.5760   45.5920 C   0  0  0  0  0  0  0  0  0  0  0  0
   57.5510   26.3650   46.1400 N   0  0  0  0  0  0  0  0  0  0  0  0
   56.3020   25.8950   46.3490 C   0  0  0  0  0  0  0  0  0  0  0  0
   56.0780   24.7600   46.8450 O   0  0  0  0  0  0  0  0  0  0  0  0
   55.3120   26.7430   45.9960 N   0  0  0  0  0  0  0  0  0  0  0  0
   55.9880   27.8080   45.5340 C   0  0  0  0  0  0  0  0  0  0  0  0
   55.3810   28.9700   45.0740 O   0  0  0  0  0  0  0  0  0  0  0  0
   58.0510   30.3450   43.8180 N   0  0  0  0  0  0  0  0  0  0  0  0
   57.8400   31.6650   43.9830 C   0  0  0  0  0  0  0  0  0  0  0  0
   57.6610   32.4490   43.0140 O   0  0  0  0  0  0  0  0  0  0  0  0
   57.8600   32.0610   45.2710 N   0  0  0  0  0  0  0  0  0  0  0  0
   57.8010   33.4500   45.7450 C   0  0  0  0  0  0  0  0  0  0  0  0
   59.1840   33.9470   46.0320 C   0  0  0  0  0  0  0  0  0  0  0  0
   59.8780   34.4250   45.0940 O   0  0  0  0  0  0  0  0  0  0  0  0
   59.7250   33.8570   47.3560 N   0  0  0  0  0  0  0  0  0  0  0  0
   61.1360   33.7950   47.6170 C   0  0  0  0  0  0  0  0  0  0  0  0
   62.0200   33.6340   46.5410 C   0  0  0  0  0  0  0  0  0  0  0  0
   63.3980   33.5740   46.7590 C   0  0  0  0  0  0  0  0  0  0  0  0
   63.9040   33.6740   48.0560 C   0  0  0  0  0  0  0  0  0  0  0  0
   63.0370   33.8600   49.1350 C   0  0  0  0  0  0  0  0  0  0  0  0
   61.6450   33.9440   48.9260 C   0  0  0  0  0  0  0  0  0  0  0  0
   60.7530   34.2020   49.9800 O   0  0  0  0  0  0  0  0  0  0  0  0
   59.8530   33.2500   50.5320 C   0  0  0  0  0  0  0  0  0  0  0  0
   58.3429   31.8617   47.8737 H   0  0  0  0  0  0  0  0  0  0  0  0
   58.8113   30.0183   47.7625 H   0  0  0  0  0  0  0  0  0  0  0  0
   59.4299   28.1805   45.2461 H   0  0  0  0  0  0  0  0  0  0  0  0
   57.3396   34.0808   44.9709 H   0  0  0  0  0  0  0  0  0  0  0  0
   57.2007   33.4945   46.6657 H   0  0  0  0  0  0  0  0  0  0  0  0
   59.0680   33.9040   48.1660 H   0  0  0  0  0  0  0  0  0  0  0  0
   61.6252   33.5543   45.5174 H   0  0  0  0  0  0  0  0  0  0  0  0
   64.0845   33.4480   45.9088 H   0  0  0  0  0  0  0  0  0  0  0  0
   64.9882   33.6061   48.2287 H   0  0  0  0  0  0  0  0  0  0  0  0
   63.4425   33.9415   50.1543 H   0  0  0  0  0  0  0  0  0  0  0  0
   59.8975   33.2971   51.6301 H   0  0  0  0  0  0  0  0  0  0  0  0
   58.8299   33.4752   50.1965 H   0  0  0  0  0  0  0  0  0  0  0  0
   60.1352   32.2411   50.1965 H   0  0  0  0  0  0  0  0  0  0  0  0
  1  2  2  0
  2  3  1  0
  3  4  2  3
  4  5  1  0
  5  6  1  0
  6  7  1  0
  7  8  2  0
  7  9  1  0
  9 10  1  0
 10 11  1  0
  3 12  1  0
 12 13  1  0
 13 14  2  0
 13 15  1  0
 15 16  1  0
 16 17  1  0
 17 18  2  0
 17 19  1  0
 19 20  1  0
 20 21  2  0
 21 22  1  0
 22 23  2  0
 23 24  1  0
 24 25  2  0
 25 26  1  0
 26 27  1  0
 15  2  1  0
 25 20  1  0
 10  5  2  0
  1 28  1  0
  1 29  1  0
  4 30  1  0
 16 31  1  0
 16 32  1  0
 19 33  1  0
 21 34  1  0
 22 35  1  0
 23 36  1  0
 24 37  1  0
 27 38  1  0
 27 39  1  0
 27 40  1  0
M  CHG  4   6  -1   9  -1  11  -1  12  -1
M  END
>  <UniqueID>  (76) 
70

>  <SMILES>  (76) 
C=c1c(=Cc2[n-]c(=O)[n-]c2[O-])[n-]c(=O)n1CC(=O)Nc1ccccc1OC

>  <Energy>  (76) 
116.86390903833328

>  <Genealogy>  (76) 
C=c1c(=Cc2[n-]c(=O)[n-]c2[O-])[n-]c(=O)n1CC(=O)Nc1ccccc1OC (protonated)
C=c1c(=Cc2[n-]c(=O)[n-]c2[O-])[n-]c(=O)n1CC(=O)Nc1ccccc1OC (3D coordinates assigned)
C=c1c(=Cc2[n-]c(=O)[n-]c2[O-])[n-]c(=O)n1CC(=O)Nc1ccccc1OC (optimized conformer: 116.86390903833328 kcal/mol)

>  <smiles>  (76) 
C=c1c(=Cc2[nH]c(=O)[nH]c2O)[nH]c(=O)n1CC(=O)Nc1ccccc1OC

>  <score_type>  (76) 
oracle

>  <origin>  (76) 
adg

>  <m_score__min__energy>  (76) 
-16.829999999999998

>  <m_primary>  (76) 
energy

$$$$
76:0
     RDKit          3D

 23 24  0  0  0  0  0  0  0  0999 V2000
   57.7870   26.9720   44.2800 O   0  0  0  0  0  0  0  0  0  0  0  0
   57.7530   27.7740   45.2520 C   0  0  0  0  0  0  0  0  0  0  0  0
   57.9150   27.2090   46.6380 C   0  0  0  0  0  0  0  0  0  0  0  0
   57.2160   25.8880   46.7670 C   0  0  0  0  0  0  0  0  0  0  0  0
   57.7820   24.6930   47.1570 C   0  0  0  0  0  0  0  0  0  0  0  0
   56.7610   23.7670   47.0970 C   0  0  0  0  0  0  0  0  0  0  0  0
   56.8980   22.4230   47.4160 O   0  0  0  0  0  0  0  0  0  0  0  0
   55.5990   24.3130   46.6850 N   0  0  0  0  0  0  0  0  0  0  0  0
   55.8920   25.6100   46.4820 C   0  0  0  0  0  0  0  0  0  0  0  0
   54.9600   26.5390   46.0360 O   0  0  0  0  0  0  0  0  0  0  0  0
   57.5690   29.2340   45.0020 C   0  0  0  0  0  0  0  0  0  0  0  0
   58.6770   30.1020   44.9440 C   0  0  0  0  0  0  0  0  0  0  0  0
   58.4980   31.4650   44.7100 C   0  0  0  0  0  0  0  0  0  0  0  0
   57.2080   31.9650   44.5340 C   0  0  0  0  0  0  0  0  0  0  0  0
   57.0280   33.1930   44.3220 O   0  0  0  0  0  0  0  0  0  0  0  0
   56.1430   31.1250   44.5870 N   0  0  0  0  0  0  0  0  0  0  0  0
   56.2840   29.7910   44.8130 C   0  0  0  0  0  0  0  0  0  0  0  0
   55.1440   28.9960   44.8390 O   0  0  0  0  0  0  0  0  0  0  0  0
   58.9861   27.0707   46.8468 H   0  0  0  0  0  0  0  0  0  0  0  0
   57.4690   27.9123   47.3567 H   0  0  0  0  0  0  0  0  0  0  0  0
   58.8264   24.5154   47.4533 H   0  0  0  0  0  0  0  0  0  0  0  0
   59.6918   29.7013   45.0845 H   0  0  0  0  0  0  0  0  0  0  0  0
   59.3659   32.1393   44.6647 H   0  0  0  0  0  0  0  0  0  0  0  0
  1  2  2  0
  2  3  1  0
  3  4  1  0
  4  5  1  0
  5  6  2  0
  6  7  1  0
  6  8  1  0
  8  9  1  0
  9 10  1  0
  2 11  1  0
 11 12  1  0
 12 13  2  0
 13 14  1  0
 14 15  2  0
 14 16  1  0
 16 17  1  0
 17 18  1  0
  9  4  2  0
 17 11  2  0
  3 19  1  0
  3 20  1  0
  5 21  1  0
 12 22  1  0
 13 23  1  0
M  CHG  5   7  -1   8  -1  10  -1  16  -1  18  -1
M  END
>  <UniqueID>  (77) 
71

>  <SMILES>  (77) 
O=C(Cc1cc([O-])[n-]c1[O-])c1ccc(=O)[n-]c1[O-]

>  <Energy>  (77) 
53.06969023239196

>  <Genealogy>  (77) 
O=C(Cc1cc([O-])[n-]c1[O-])c1ccc(=O)[n-]c1[O-] (protonated)
O=C(Cc1cc([O-])[n-]c1[O-])c1ccc(=O)[n-]c1[O-] (3D coordinates assigned)
O=C(Cc1cc([O-])[n-]c1[O-])c1ccc(=O)[n-]c1[O-] (optimized conformer: 53.06969023239196 kcal/mol)

>  <smiles>  (77) 
O=C(Cc1cc(O)[nH]c1O)c1ccc(=O)[nH]c1O

>  <score_type>  (77) 
oracle

>  <origin>  (77) 
adg

>  <m_score__min__energy>  (77) 
-18.510000000000002

>  <m_primary>  (77) 
energy

$$$$
77:0
     RDKit          3D

 47 50  0  0  0  0  0  0  0  0999 V2000
   66.9200   32.6690   48.7740 H   0  0  0  0  0  0  0  0  0  0  0  0
   66.6520   32.9420   49.7120 O   0  0  0  0  0  0  0  0  0  0  0  0
   65.3230   32.9090   50.1290 C   0  0  0  0  0  0  0  0  0  0  0  0
   65.0020   32.3430   51.3660 C   0  0  0  0  0  0  0  0  0  0  0  0
   65.7959   31.9197   51.9989 H   0  0  0  0  0  0  0  0  0  0  0  0
   63.6740   32.3140   51.8000 C   0  0  0  0  0  0  0  0  0  0  0  0
   63.4261   31.8759   52.7781 H   0  0  0  0  0  0  0  0  0  0  0  0
   62.6600   32.8400   50.9950 C   0  0  0  0  0  0  0  0  0  0  0  0
   61.6177   32.8243   51.3461 H   0  0  0  0  0  0  0  0  0  0  0  0
   62.9680   33.3900   49.7360 C   0  0  0  0  0  0  0  0  0  0  0  0
   61.9460   33.9630   48.9020 N   0  0  0  0  0  0  0  0  0  0  0  0
   61.7580   34.9870   48.9960 H   0  0  0  0  0  0  0  0  0  0  0  0
   61.1650   33.2220   47.9490 C   0  0  0  0  0  0  0  0  0  0  0  0
   61.2300   31.8210   47.9480 C   0  0  0  0  0  0  0  0  0  0  0  0
   61.8876   31.3049   48.6630 H   0  0  0  0  0  0  0  0  0  0  0  0
   60.4670   31.0760   47.0470 C   0  0  0  0  0  0  0  0  0  0  0  0
   60.5469   29.9789   47.0388 H   0  0  0  0  0  0  0  0  0  0  0  0
   59.5990   31.7190   46.1520 C   0  0  0  0  0  0  0  0  0  0  0  0
   59.5180   33.1270   46.1540 C   0  0  0  0  0  0  0  0  0  0  0  0
   60.2920   33.8700   47.0590 C   0  0  0  0  0  0  0  0  0  0  0  0
   60.2146   34.9672   47.0715 H   0  0  0  0  0  0  0  0  0  0  0  0
   58.5990   33.7850   45.2050 C   0  0  0  0  0  0  0  0  0  0  0  0
   58.6220   35.0330   45.0350 O   0  0  0  0  0  0  0  0  0  0  0  0
   57.6890   32.9840   44.4510 N   0  0  0  0  0  0  0  0  0  0  0  0
   57.4810   31.5770   44.7860 C   0  0  1  0  0  0  0  0  0  0  0  0
   56.8382   31.4882   45.6742 H   0  0  0  0  0  0  0  0  0  0  0  0
   56.7750   30.8760   43.6110 C   0  0  0  0  0  0  0  0  0  0  0  0
   57.5351   30.3666   43.0004 H   0  0  0  0  0  0  0  0  0  0  0  0
   56.2391   31.6508   43.0430 H   0  0  0  0  0  0  0  0  0  0  0  0
   55.7520   29.8560   44.0530 C   0  0  0  0  0  0  0  0  0  0  0  0
   54.7110   29.6830   43.3640 O   0  0  0  0  0  0  0  0  0  0  0  0
   55.9180   29.0700   45.2450 N   0  0  0  0  0  0  0  0  0  0  0  0
   56.6970   28.0390   45.4100 C   0  0  0  0  0  0  0  0  0  0  0  0
   58.0350   28.1140   45.1550 N   0  0  0  0  0  0  0  0  0  0  0  0
   58.8590   27.0420   45.3000 C   0  0  0  0  0  0  0  0  0  0  0  0
   59.9340   27.1429   45.0900 H   0  0  0  0  0  0  0  0  0  0  0  0
   58.3420   25.8140   45.7150 C   0  0  0  0  0  0  0  0  0  0  0  0
   59.0039   24.9439   45.8365 H   0  0  0  0  0  0  0  0  0  0  0  0
   56.9750   25.7030   45.9740 C   0  0  0  0  0  0  0  0  0  0  0  0
   56.5526   24.7410   46.2998 H   0  0  0  0  0  0  0  0  0  0  0  0
   56.1440   26.8150   45.8190 C   0  0  0  0  0  0  0  0  0  0  0  0
   54.7810   26.7010   46.0720 O   0  0  0  0  0  0  0  0  0  0  0  0
   58.8340   30.9120   45.1250 C   0  0  0  0  0  0  0  0  0  0  0  0
   58.6481   29.9048   45.5262 H   0  0  0  0  0  0  0  0  0  0  0  0
   59.4357   30.8586   44.2057 H   0  0  0  0  0  0  0  0  0  0  0  0
   64.3070   33.4370   49.3190 C   0  0  0  0  0  0  0  0  0  0  0  0
   64.5616   33.8911   48.3500 H   0  0  0  0  0  0  0  0  0  0  0  0
  1  2  1  0
  2  3  1  0
  3  4  2  0
  4  5  1  0
  4  6  1  0
  6  7  1  0
  6  8  2  0
  8  9  1  0
  8 10  1  0
 10 11  1  0
 11 12  1  0
 11 13  1  0
 13 14  2  0
 14 15  1  0
 14 16  1  0
 16 17  1  0
 16 18  2  0
 18 19  1  0
 19 20  2  0
 20 21  1  0
 19 22  1  0
 22 23  2  0
 22 24  1  0
 24 25  1  0
 25 26  1  1
 25 27  1  0
 27 28  1  0
 27 29  1  0
 27 30  1  0
 30 31  2  0
 30 32  1  0
 32 33  2  0
 33 34  1  0
 34 35  1  0
 35 36  1  0
 35 37  2  0
 37 38  1  0
 37 39  1  0
 39 40  1  0
 39 41  2  0
 41 42  1  0
 25 43  1  0
 43 44  1  0
 43 45  1  0
 10 46  2  0
 46 47  1  0
 46  3  1  0
 20 13  1  0
 41 33  1  0
 43 18  1  0
M  CHG  3  24  -1  34  -1  42  -1
M  END
>  <UniqueID>  (78) 
72

>  <SMILES>  (78) 
O=C(C[C@H]1Cc2ccc(Nc3cccc(O)c3)cc2C(=O)[N-]1)/N=c1\[n-]cccc1[O-]

>  <Energy>  (78) 
62.689022718023274

>  <Genealogy>  (78) 
O=C(CC1Cc2ccc(Nc3cccc(O)c3)cc2C(=O)[N-]1)N=c1[n-]cccc1[O-] (protonated)
O=C(C[C@H]1Cc2ccc(Nc3cccc(O)c3)cc2C(=O)[N-]1)N=c1[n-]cccc1[O-] (chirality)
O=C(C[C@H]1Cc2ccc(Nc3cccc(O)c3)cc2C(=O)[N-]1)/N=c1\[n-]cccc1[O-] (cis-trans isomerization)
O=C(C[C@H]1Cc2ccc(Nc3cccc(O)c3)cc2C(=O)[N-]1)/N=c1\[n-]cccc1[O-] (3D coordinates assigned)
O=C(C[C@H]1Cc2ccc(Nc3cccc(O)c3)cc2C(=O)[N-]1)/N=c1\[n-]cccc1[O-] (nonaromatic ring conformer: 62.689022718023274 kcal/mol)

>  <smiles>  (78) 
O=C(CC1Cc2ccc(Nc3cccc(O)c3)cc2C(=O)N1)N=c1[nH]cccc1O

>  <score_type>  (78) 
oracle

>  <origin>  (78) 
adg

>  <m_score__min__energy>  (78) 
-15.73

>  <m_primary>  (78) 
energy

$$$$
78:0
     RDKit          3D

 35 37  0  0  0  0  0  0  0  0999 V2000
   59.7380   29.9250   45.5080 O   0  0  0  0  0  0  0  0  0  0  0  0
   58.6560   29.5590   44.9750 C   0  0  0  0  0  0  0  0  0  0  0  0
   58.0010   30.4670   43.9730 C   0  0  0  0  0  0  0  0  0  0  0  0
   56.8130   31.6130   44.7610 S   0  0  0  0  0  0  0  0  0  0  0  0
   57.9930   32.9430   45.0060 C   0  0  0  0  0  0  0  0  0  0  0  0
   58.5650   33.6260   43.9940 N   0  0  0  0  0  0  0  0  0  0  0  0
   59.4110   34.4900   44.5380 N   0  0  0  0  0  0  0  0  0  0  0  0
   59.3380   34.3080   45.8690 C   0  0  0  0  0  0  0  0  0  0  0  0
   60.0330   34.9520   46.6990 O   0  0  0  0  0  0  0  0  0  0  0  0
   58.4520   33.3530   46.2040 N   0  0  0  0  0  0  0  0  0  0  0  0
   58.1780   32.7970   47.5290 C   0  0  0  0  0  0  0  0  0  0  0  0
   59.2130   31.7770   47.8760 C   0  0  0  0  0  0  0  0  0  0  0  0
   58.9740   30.5490   48.4590 C   0  0  0  0  0  0  0  0  0  0  0  0
   60.2140   29.9700   48.6190 C   0  0  0  0  0  0  0  0  0  0  0  0
   61.1300   30.8790   48.1290 C   0  0  0  0  0  0  0  0  0  0  0  0
   60.5020   31.9480   47.6940 O   0  0  0  0  0  0  0  0  0  0  0  0
   58.0800   28.2340   45.3180 C   0  0  0  0  0  0  0  0  0  0  0  0
   58.9380   27.1380   45.5220 C   0  0  0  0  0  0  0  0  0  0  0  0
   58.4330   25.9000   45.9210 C   0  0  0  0  0  0  0  0  0  0  0  0
   57.0650   25.7350   46.1230 C   0  0  0  0  0  0  0  0  0  0  0  0
   56.1910   26.8040   45.9070 C   0  0  0  0  0  0  0  0  0  0  0  0
   54.8260   26.6210   46.0950 O   0  0  0  0  0  0  0  0  0  0  0  0
   56.6840   28.0500   45.4900 C   0  0  0  0  0  0  0  0  0  0  0  0
   55.7580   29.0650   45.2270 O   0  0  0  0  0  0  0  0  0  0  0  0
   58.7792   31.0559   43.4654 H   0  0  0  0  0  0  0  0  0  0  0  0
   57.4464   29.8409   43.2586 H   0  0  0  0  0  0  0  0  0  0  0  0
   58.1978   33.6052   48.2750 H   0  0  0  0  0  0  0  0  0  0  0  0
   57.1868   32.3201   47.5239 H   0  0  0  0  0  0  0  0  0  0  0  0
   57.9990   30.1224   48.7373 H   0  0  0  0  0  0  0  0  0  0  0  0
   60.4306   28.9817   49.0506 H   0  0  0  0  0  0  0  0  0  0  0  0
   62.2198   30.7310   48.1062 H   0  0  0  0  0  0  0  0  0  0  0  0
   60.0201   27.2584   45.3651 H   0  0  0  0  0  0  0  0  0  0  0  0
   59.1169   25.0525   46.0763 H   0  0  0  0  0  0  0  0  0  0  0  0
   56.6719   24.7621   46.4530 H   0  0  0  0  0  0  0  0  0  0  0  0
   54.7620   28.9600   45.3670 H   0  0  0  0  0  0  0  0  0  0  0  0
  1  2  2  0
  2  3  1  0
  3  4  1  0
  4  5  1  0
  5  6  2  0
  6  7  1  0
  7  8  1  0
  8  9  2  0
  8 10  1  0
 10 11  1  0
 11 12  1  0
 12 13  2  0
 13 14  1  0
 14 15  2  0
 15 16  1  0
  2 17  1  0
 17 18  2  0
 18 19  1  0
 19 20  2  0
 20 21  1  0
 21 22  1  0
 21 23  2  0
 23 24  1  0
 10  5  1  0
 16 12  1  0
 23 17  1  0
  3 25  1  0
  3 26  1  0
 11 27  1  0
 11 28  1  0
 13 29  1  0
 14 30  1  0
 15 31  1  0
 18 32  1  0
 19 33  1  0
 20 34  1  0
 24 35  1  0
M  CHG  2   7  -1  22  -1
M  END
>  <UniqueID>  (79) 
73

>  <SMILES>  (79) 
O=C(CSc1n[n-]c(=O)n1Cc1ccco1)c1cccc([O-])c1O

>  <Energy>  (79) 
99.00247870676884

>  <Genealogy>  (79) 
O=C(CSc1n[n-]c(=O)n1Cc1ccco1)c1cccc([O-])c1O (protonated)
O=C(CSc1n[n-]c(=O)n1Cc1ccco1)c1cccc([O-])c1O (3D coordinates assigned)
O=C(CSc1n[n-]c(=O)n1Cc1ccco1)c1cccc([O-])c1O (optimized conformer: 99.00247870676884 kcal/mol)

>  <smiles>  (79) 
O=C(CSc1n[nH]c(=O)n1Cc1ccco1)c1cccc(O)c1O

>  <score_type>  (79) 
oracle

>  <origin>  (79) 
adg

>  <m_score__min__energy>  (79) 
-13.09

>  <m_primary>  (79) 
energy

$$$$
79:0
     RDKit          3D

 43 45  0  0  0  0  0  0  0  0999 V2000
   56.0030   32.2290   52.3300 C   0  0  0  0  0  0  0  0  0  0  0  0
   55.5320   30.9900   52.5420 C   0  0  0  0  0  0  0  0  0  0  0  0
   54.3640   30.4100   52.0210 C   0  0  0  0  0  0  0  0  0  0  0  0
   53.3550   30.9590   51.3210 C   0  0  0  0  0  0  0  0  0  0  0  0
   52.0990   31.4860   51.8780 C   0  0  0  0  0  0  0  0  0  0  0  0
   51.6960   31.2610   53.1400 N   0  0  0  0  0  0  0  0  0  0  0  0
   50.5950   32.0350   53.2570 C   0  0  0  0  0  0  0  0  0  0  0  0
   49.9130   32.0870   54.3130 O   0  0  0  0  0  0  0  0  0  0  0  0
   50.2910   32.7600   52.1590 N   0  0  0  0  0  0  0  0  0  0  0  0
   51.2630   32.4140   51.3010 C   0  0  0  0  0  0  0  0  0  0  0  0
   51.3990   32.9540   50.0290 O   0  0  0  0  0  0  0  0  0  0  0  0
   54.3630   29.0920   52.3130 N   0  0  0  0  0  0  0  0  0  0  0  0
   55.4890   28.9020   53.0250 C   0  0  0  0  0  0  0  0  0  0  0  0
   55.8360   27.7720   53.4600 O   0  0  0  0  0  0  0  0  0  0  0  0
   56.2160   30.0240   53.2040 N   0  0  0  0  0  0  0  0  0  0  0  0
   57.5670   30.0810   53.7770 C   0  0  0  0  0  0  0  0  0  0  0  0
   58.5790   30.0730   52.6730 C   0  0  0  0  0  0  0  0  0  0  0  0
   59.4920   29.2040   52.6780 O   0  0  0  0  0  0  0  0  0  0  0  0
   58.4580   30.9820   51.5720 N   0  0  0  0  0  0  0  0  0  0  0  0
   58.7820   30.5690   50.2090 C   0  0  0  0  0  0  0  0  0  0  0  0
   58.9020   31.7860   49.3340 C   0  0  0  0  0  0  0  0  0  0  0  0
   59.4600   32.9690   49.8410 C   0  0  0  0  0  0  0  0  0  0  0  0
   59.6530   34.0710   49.0040 C   0  0  0  0  0  0  0  0  0  0  0  0
   59.2960   33.9990   47.6550 C   0  0  0  0  0  0  0  0  0  0  0  0
   58.7390   32.8170   47.1310 C   0  0  0  0  0  0  0  0  0  0  0  0
   58.3670   32.6920   45.7840 O   0  0  0  0  0  0  0  0  0  0  0  0
   58.6350   33.6690   44.7820 C   0  0  0  0  0  0  0  0  0  0  0  0
   58.5530   31.7160   47.9750 C   0  0  0  0  0  0  0  0  0  0  0  0
   56.9399   32.5505   52.8083 H   0  0  0  0  0  0  0  0  0  0  0  0
   55.4520   32.9228   51.6780 H   0  0  0  0  0  0  0  0  0  0  0  0
   53.4805   31.0197   50.2299 H   0  0  0  0  0  0  0  0  0  0  0  0
   57.6761   31.0026   54.3676 H   0  0  0  0  0  0  0  0  0  0  0  0
   57.7266   29.2078   54.4266 H   0  0  0  0  0  0  0  0  0  0  0  0
   57.8700   31.8370   51.6910 H   0  0  0  0  0  0  0  0  0  0  0  0
   59.7358   30.0210   50.2084 H   0  0  0  0  0  0  0  0  0  0  0  0
   57.9850   29.9162   49.8234 H   0  0  0  0  0  0  0  0  0  0  0  0
   59.7466   33.0293   50.9013 H   0  0  0  0  0  0  0  0  0  0  0  0
   60.0870   34.9975   49.4080 H   0  0  0  0  0  0  0  0  0  0  0  0
   59.4507   34.8691   47.0000 H   0  0  0  0  0  0  0  0  0  0  0  0
   58.8969   34.6237   45.2615 H   0  0  0  0  0  0  0  0  0  0  0  0
   59.4737   33.3312   44.1555 H   0  0  0  0  0  0  0  0  0  0  0  0
   57.7414   33.8063   44.1555 H   0  0  0  0  0  0  0  0  0  0  0  0
   58.1288   30.7855   47.5697 H   0  0  0  0  0  0  0  0  0  0  0  0
  1  2  2  0
  2  3  1  0
  3  4  2  3
  4  5  1  0
  5  6  1  0
  6  7  1  0
  7  8  2  0
  7  9  1  0
  9 10  1  0
 10 11  1  0
  3 12  1  0
 12 13  1  0
 13 14  2  0
 13 15  1  0
 15 16  1  0
 16 17  1  0
 17 18  2  0
 17 19  1  0
 19 20  1  0
 20 21  1  0
 21 22  2  0
 22 23  1  0
 23 24  2  0
 24 25  1  0
 25 26  1  0
 26 27  1  0
 25 28  2  0
 15  2  1  0
 28 21  1  0
 10  5  2  0
  1 29  1  0
  1 30  1  0
  4 31  1  0
 16 32  1  0
 16 33  1  0
 19 34  1  0
 20 35  1  0
 20 36  1  0
 22 37  1  0
 23 38  1  0
 24 39  1  0
 27 40  1  0
 27 41  1  0
 27 42  1  0
 28 43  1  0
M  CHG  4   6  -1   9  -1  11  -1  12  -1
M  END
>  <UniqueID>  (80) 
74

>  <SMILES>  (80) 
C=c1c(=Cc2[n-]c(=O)[n-]c2[O-])[n-]c(=O)n1CC(=O)NCc1cccc(OC)c1

>  <Energy>  (80) 
110.50559512055169

>  <Genealogy>  (80) 
C=c1c(=Cc2[n-]c(=O)[n-]c2[O-])[n-]c(=O)n1CC(=O)NCc1cccc(OC)c1 (protonated)
C=c1c(=Cc2[n-]c(=O)[n-]c2[O-])[n-]c(=O)n1CC(=O)NCc1cccc(OC)c1 (3D coordinates assigned)
C=c1c(=Cc2[n-]c(=O)[n-]c2[O-])[n-]c(=O)n1CC(=O)NCc1cccc(OC)c1 (optimized conformer: 110.50559512055169 kcal/mol)

>  <smiles>  (80) 
C=c1c(=Cc2[nH]c(=O)[nH]c2O)[nH]c(=O)n1CC(=O)NCc1cccc(OC)c1

>  <score_type>  (80) 
oracle

>  <origin>  (80) 
adg

>  <m_score__min__energy>  (80) 
-17.010000000000002

>  <m_primary>  (80) 
energy

$$$$
80:0
     RDKit          3D

 51 53  0  0  0  0  0  0  0  0999 V2000
   60.6360   34.1880   48.3070 C   0  0  0  0  0  0  0  0  0  0  0  0
   59.7530   34.0890   47.0880 C   0  0  0  0  0  0  0  0  0  0  0  0
   59.9320   35.0150   46.0470 C   0  0  0  0  0  0  0  0  0  0  0  0
   59.1450   34.9540   44.9000 C   0  0  0  0  0  0  0  0  0  0  0  0
   58.1760   33.9640   44.7640 C   0  0  0  0  0  0  0  0  0  0  0  0
   57.9800   33.0150   45.7790 C   0  0  0  0  0  0  0  0  0  0  0  0
   57.0220   31.9550   45.6220 N   0  0  0  0  0  0  0  0  0  0  0  0
   56.9350   30.8770   44.2660 S   0  0  0  0  0  0  0  0  0  0  0  0
   57.5070   31.5210   43.0330 O   0  0  0  0  0  0  0  0  0  0  0  0
   55.4920   30.5570   43.9980 O   0  0  0  0  0  0  0  0  0  0  0  0
   57.7940   29.3880   44.6550 C   0  0  0  0  0  0  0  0  0  0  0  0
   58.5520   29.2910   45.8310 C   0  0  0  0  0  0  0  0  0  0  0  0
   59.1620   28.0830   46.1810 C   0  0  0  0  0  0  0  0  0  0  0  0
   59.0360   26.9560   45.3460 C   0  0  0  0  0  0  0  0  0  0  0  0
   59.6040   25.7100   45.6640 O   0  0  0  0  0  0  0  0  0  0  0  0
   58.8990   24.6240   46.2650 C   0  0  0  0  0  0  0  0  0  0  0  0
   59.0430   23.3660   45.4510 C   0  0  0  0  0  0  0  0  0  0  0  0
   60.1300   22.7290   45.5180 O   0  0  0  0  0  0  0  0  0  0  0  0
   57.9950   22.8990   44.5730 N   0  0  0  0  0  0  0  0  0  0  0  0
   57.9740   21.4810   44.1820 C   0  0  0  0  0  0  0  0  0  0  0  0
   57.1740   21.2850   42.8910 C   0  0  0  0  0  0  0  0  0  0  0  0
   55.9060   21.9010   42.9900 O   0  0  0  0  0  0  0  0  0  0  0  0
   56.0730   23.3010   43.0720 C   0  0  0  0  0  0  0  0  0  0  0  0
   56.7730   23.6940   44.3750 C   0  0  0  0  0  0  0  0  0  0  0  0
   58.3040   27.0680   44.1550 C   0  0  0  0  0  0  0  0  0  0  0  0
   57.6750   28.2710   43.8170 C   0  0  0  0  0  0  0  0  0  0  0  0
   58.7410   33.0990   46.9680 C   0  0  0  0  0  0  0  0  0  0  0  0
   58.5490   32.0610   48.0560 C   0  0  0  0  0  0  0  0  0  0  0  0
   60.0178   34.1187   49.2142 H   0  0  0  0  0  0  0  0  0  0  0  0
   61.3671   33.3662   48.2979 H   0  0  0  0  0  0  0  0  0  0  0  0
   61.1670   35.1513   48.2979 H   0  0  0  0  0  0  0  0  0  0  0  0
   60.7013   35.7958   46.1388 H   0  0  0  0  0  0  0  0  0  0  0  0
   59.2898   35.6919   44.0972 H   0  0  0  0  0  0  0  0  0  0  0  0
   57.5592   33.9253   43.8540 H   0  0  0  0  0  0  0  0  0  0  0  0
   58.6671   30.1705   46.4816 H   0  0  0  0  0  0  0  0  0  0  0  0
   59.7428   28.0124   47.1125 H   0  0  0  0  0  0  0  0  0  0  0  0
   59.3029   24.4477   47.2729 H   0  0  0  0  0  0  0  0  0  0  0  0
   57.8319   24.8863   46.3158 H   0  0  0  0  0  0  0  0  0  0  0  0
   59.0061   21.1354   44.0227 H   0  0  0  0  0  0  0  0  0  0  0  0
   57.4957   20.9008   44.9849 H   0  0  0  0  0  0  0  0  0  0  0  0
   57.7277   21.7315   42.0519 H   0  0  0  0  0  0  0  0  0  0  0  0
   57.0312   20.2072   42.7240 H   0  0  0  0  0  0  0  0  0  0  0  0
   56.6804   23.6414   42.2204 H   0  0  0  0  0  0  0  0  0  0  0  0
   55.0803   23.7744   43.0507 H   0  0  0  0  0  0  0  0  0  0  0  0
   57.0395   24.7604   44.3336 H   0  0  0  0  0  0  0  0  0  0  0  0
   56.0883   23.5023   45.2143 H   0  0  0  0  0  0  0  0  0  0  0  0
   58.2238   26.2025   43.4808 H   0  0  0  0  0  0  0  0  0  0  0  0
   57.0854   28.3404   42.8910 H   0  0  0  0  0  0  0  0  0  0  0  0
   58.6379   32.5419   49.0413 H   0  0  0  0  0  0  0  0  0  0  0  0
   57.5517   31.6073   47.9581 H   0  0  0  0  0  0  0  0  0  0  0  0
   59.3180   31.2806   47.9581 H   0  0  0  0  0  0  0  0  0  0  0  0
  1  2  1  0
  2  3  2  0
  3  4  1  0
  4  5  2  0
  5  6  1  0
  6  7  1  0
  7  8  1  0
  8  9  2  0
  8 10  2  0
  8 11  1  0
 11 12  2  0
 12 13  1  0
 13 14  2  0
 14 15  1  0
 15 16  1  0
 16 17  1  0
 17 18  2  0
 17 19  1  0
 19 20  1  0
 20 21  1  0
 21 22  1  0
 22 23  1  0
 23 24  1  0
 14 25  1  0
 25 26  2  0
  6 27  2  0
 27 28  1  0
 27  2  1  0
 26 11  1  0
 24 19  1  0
  1 29  1  0
  1 30  1  0
  1 31  1  0
  3 32  1  0
  4 33  1  0
  5 34  1  0
 12 35  1  0
 13 36  1  0
 16 37  1  0
 16 38  1  0
 20 39  1  0
 20 40  1  0
 21 41  1  0
 21 42  1  0
 23 43  1  0
 23 44  1  0
 24 45  1  0
 24 46  1  0
 25 47  1  0
 26 48  1  0
 28 49  1  0
 28 50  1  0
 28 51  1  0
M  CHG  1   7  -1
M  END
>  <UniqueID>  (81) 
75

>  <SMILES>  (81) 
Cc1cccc([N-]S(=O)(=O)c2ccc(OCC(=O)N3CCOCC3)cc2)c1C

>  <Energy>  (81) 
61.589666866991166

>  <Genealogy>  (81) 
Cc1cccc([N-]S(=O)(=O)c2ccc(OCC(=O)N3CCOCC3)cc2)c1C (protonated)
Cc1cccc([N-]S(=O)(=O)c2ccc(OCC(=O)N3CCOCC3)cc2)c1C (3D coordinates assigned)
Cc1cccc([N-]S(=O)(=O)c2ccc(OCC(=O)N3CCOCC3)cc2)c1C (nonaromatic ring conformer: 61.589666866991166 kcal/mol)

>  <smiles>  (81) 
Cc1cccc(NS(=O)(=O)c2ccc(OCC(=O)N3CCOCC3)cc2)c1C

>  <score_type>  (81) 
oracle

>  <origin>  (81) 
adg

>  <m_score__min__energy>  (81) 
-10.74

>  <m_primary>  (81) 
energy

$$$$
81:0
     RDKit          3D

 49 52  0  0  0  0  0  0  0  0999 V2000
   53.5090   28.2450   53.1780 C   0  0  0  0  0  0  0  0  0  0  0  0
   54.4940   29.1530   53.0700 C   0  0  0  0  0  0  0  0  0  0  0  0
   54.3750   30.4760   52.6140 C   0  0  0  0  0  0  0  0  0  0  0  0
   53.2890   31.2370   52.3770 C   0  0  0  0  0  0  0  0  0  0  0  0
   52.4570   31.1900   51.1630 C   0  0  0  0  0  0  0  0  0  0  0  0
   52.4910   30.2050   50.2470 N   0  0  0  0  0  0  0  0  0  0  0  0
   51.4750   30.5170   49.4140 C   0  0  0  0  0  0  0  0  0  0  0  0
   51.1920   29.8270   48.4010 O   0  0  0  0  0  0  0  0  0  0  0  0
   50.7780   31.6210   49.7610 N   0  0  0  0  0  0  0  0  0  0  0  0
   51.4050   32.0250   50.8780 C   0  0  0  0  0  0  0  0  0  0  0  0
   51.0190   33.1310   51.6230 O   0  0  0  0  0  0  0  0  0  0  0  0
   55.6660   30.9420   52.4450 C   0  0  0  0  0  0  0  0  0  0  0  0
   56.5130   29.9440   52.8750 C   0  0  0  0  0  0  0  0  0  0  0  0
   57.9840   30.0730   52.9080 C   0  0  0  0  0  0  0  0  0  0  0  0
   58.5820   29.8390   53.9930 O   0  0  0  0  0  0  0  0  0  0  0  0
   58.7430   30.4280   51.7350 N   0  0  0  0  0  0  0  0  0  0  0  0
   58.3040   30.0080   50.3950 C   0  0  0  0  0  0  0  0  0  0  0  0
   58.5750   31.1200   49.3760 C   0  0  0  0  0  0  0  0  0  0  0  0
   59.9320   31.6700   49.5210 N   0  0  0  0  0  0  0  0  0  0  0  0
   60.4650   32.5070   48.4780 C   0  0  0  0  0  0  0  0  0  0  0  0
   61.8360   32.4600   48.1670 C   0  0  0  0  0  0  0  0  0  0  0  0
   62.3590   33.2640   47.1510 C   0  0  0  0  0  0  0  0  0  0  0  0
   61.5210   34.1240   46.4380 C   0  0  0  0  0  0  0  0  0  0  0  0
   60.1590   34.1830   46.7420 C   0  0  0  0  0  0  0  0  0  0  0  0
   59.6280   33.3810   47.7580 C   0  0  0  0  0  0  0  0  0  0  0  0
   58.3110   33.4870   48.0610 F   0  0  0  0  0  0  0  0  0  0  0  0
   60.8200   31.1750   50.5790 C   0  0  0  0  0  0  0  0  0  0  0  0
   60.0590   31.0620   51.9060 C   0  0  0  0  0  0  0  0  0  0  0  0
   55.8060   28.8510   53.2480 N   0  0  0  0  0  0  0  0  0  0  0  0
   56.3530   27.5350   53.6030 C   0  0  0  0  0  0  0  0  0  0  0  0
   53.7310   27.2345   53.5515 H   0  0  0  0  0  0  0  0  0  0  0  0
   52.4808   28.5124   52.8929 H   0  0  0  0  0  0  0  0  0  0  0  0
   52.9987   31.9555   53.1577 H   0  0  0  0  0  0  0  0  0  0  0  0
   55.9606   31.9229   52.0436 H   0  0  0  0  0  0  0  0  0  0  0  0
   58.8544   29.1026   50.0996 H   0  0  0  0  0  0  0  0  0  0  0  0
   57.2242   29.7999   50.4202 H   0  0  0  0  0  0  0  0  0  0  0  0
   58.4629   30.7095   48.3617 H   0  0  0  0  0  0  0  0  0  0  0  0
   57.8544   31.9319   49.5536 H   0  0  0  0  0  0  0  0  0  0  0  0
   62.5007   31.7859   48.7273 H   0  0  0  0  0  0  0  0  0  0  0  0
   63.4319   33.2195   46.9125 H   0  0  0  0  0  0  0  0  0  0  0  0
   61.9336   34.7550   45.6369 H   0  0  0  0  0  0  0  0  0  0  0  0
   59.5013   34.8627   46.1804 H   0  0  0  0  0  0  0  0  0  0  0  0
   61.2039   30.1839   50.2958 H   0  0  0  0  0  0  0  0  0  0  0  0
   61.6538   31.8814   50.7047 H   0  0  0  0  0  0  0  0  0  0  0  0
   60.6551   30.4591   52.6069 H   0  0  0  0  0  0  0  0  0  0  0  0
   59.8981   32.0791   52.2927 H   0  0  0  0  0  0  0  0  0  0  0  0
   56.3933   27.4379   54.6980 H   0  0  0  0  0  0  0  0  0  0  0  0
   55.7083   26.7460   53.1885 H   0  0  0  0  0  0  0  0  0  0  0  0
   57.3670   27.4354   53.1885 H   0  0  0  0  0  0  0  0  0  0  0  0
  1  2  2  0
  2  3  1  0
  3  4  2  3
  4  5  1  0
  5  6  1  0
  6  7  1  0
  7  8  2  0
  7  9  1  0
  9 10  1  0
 10 11  1  0
  3 12  1  0
 12 13  2  0
 13 14  1  0
 14 15  2  0
 14 16  1  0
 16 17  1  0
 17 18  1  0
 18 19  1  0
 19 20  1  0
 20 21  2  0
 21 22  1  0
 22 23  2  0
 23 24  1  0
 24 25  2  0
 25 26  1  0
 19 27  1  0
 27 28  1  0
 13 29  1  0
 29 30  1  0
 29  2  1  0
 10  5  2  0
 28 16  1  0
 25 20  1  0
  1 31  1  0
  1 32  1  0
  4 33  1  0
 12 34  1  0
 17 35  1  0
 17 36  1  0
 18 37  1  0
 18 38  1  0
 21 39  1  0
 22 40  1  0
 23 41  1  0
 24 42  1  0
 27 43  1  0
 27 44  1  0
 28 45  1  0
 28 46  1  0
 30 47  1  0
 30 48  1  0
 30 49  1  0
M  CHG  3   6  -1   9  -1  11  -1
M  END
>  <UniqueID>  (82) 
76

>  <SMILES>  (82) 
C=c1c(=Cc2[n-]c(=O)[n-]c2[O-])cc(C(=O)N2CCN(c3ccccc3F)CC2)n1C

>  <Energy>  (82) 
131.8460993444557

>  <Genealogy>  (82) 
C=c1c(=Cc2[n-]c(=O)[n-]c2[O-])cc(C(=O)N2CCN(c3ccccc3F)CC2)n1C (protonated)
C=c1c(=Cc2[n-]c(=O)[n-]c2[O-])cc(C(=O)N2CCN(c3ccccc3F)CC2)n1C (3D coordinates assigned)
C=c1c(=Cc2[n-]c(=O)[n-]c2[O-])cc(C(=O)N2CCN(c3ccccc3F)CC2)n1C (nonaromatic ring conformer: 131.8460993444557 kcal/mol)

>  <smiles>  (82) 
C=c1c(=Cc2[nH]c(=O)[nH]c2O)cc(C(=O)N2CCN(c3ccccc3F)CC2)n1C

>  <score_type>  (82) 
oracle

>  <origin>  (82) 
adg

>  <m_score__min__energy>  (82) 
-17.5

>  <m_primary>  (82) 
energy

$$$$
82:0
     RDKit          3D

 42 44  0  0  0  0  0  0  0  0999 V2000
   59.7430   30.1520   45.6750 C   0  0  0  0  0  0  0  0  0  0  0  0
   58.7500   30.2890   44.5120 C   0  0  2  0  0  0  0  0  0  0  0  0
   57.8370   31.5640   44.5740 C   0  0  2  0  0  0  0  0  0  0  0  0
   58.2670   32.6350   45.5580 C   0  0  0  0  0  0  0  0  0  0  0  0
   58.8850   33.8060   45.0820 C   0  0  0  0  0  0  0  0  0  0  0  0
   59.3220   34.7880   45.9760 C   0  0  0  0  0  0  0  0  0  0  0  0
   59.1600   34.6080   47.3510 C   0  0  0  0  0  0  0  0  0  0  0  0
   58.5620   33.4430   47.8370 C   0  0  0  0  0  0  0  0  0  0  0  0
   58.1220   32.4570   46.9480 C   0  0  0  0  0  0  0  0  0  0  0  0
   56.4900   31.0850   44.8690 N   0  0  0  0  0  0  0  0  0  0  0  0
   56.5290   29.6790   44.7700 C   0  0  0  0  0  0  0  0  0  0  0  0
   55.5000   28.9600   44.8670 O   0  0  0  0  0  0  0  0  0  0  0  0
   57.8210   29.1610   44.5300 N   0  0  0  0  0  0  0  0  0  0  0  0
   58.0810   27.6810   43.6620 S   0  0  0  0  0  0  0  0  0  0  0  0
   57.3980   27.7570   42.3250 O   0  0  0  0  0  0  0  0  0  0  0  0
   59.5550   27.4800   43.4440 O   0  0  0  0  0  0  0  0  0  0  0  0
   57.4260   26.3190   44.5640 C   0  0  0  0  0  0  0  0  0  0  0  0
   56.9290   26.5040   45.8620 C   0  0  0  0  0  0  0  0  0  0  0  0
   56.3720   25.4310   46.5610 C   0  0  0  0  0  0  0  0  0  0  0  0
   56.3040   24.1680   45.9670 C   0  0  0  0  0  0  0  0  0  0  0  0
   56.8000   23.9710   44.6710 C   0  0  0  0  0  0  0  0  0  0  0  0
   56.6800   22.3930   43.9010 S   0  0  0  0  0  0  0  0  0  0  0  0
   55.9220   22.5590   42.3570 N   0  0  0  0  0  0  0  0  0  0  0  0
   55.8670   21.4630   44.7590 O   0  0  0  0  0  0  0  0  0  0  0  0
   58.0540   21.8100   43.7270 O   0  0  0  0  0  0  0  0  0  0  0  0
   57.3560   25.0500   43.9710 C   0  0  0  0  0  0  0  0  0  0  0  0
   59.2019   30.2266   46.6298 H   0  0  0  0  0  0  0  0  0  0  0  0
   60.2465   29.1759   45.6142 H   0  0  0  0  0  0  0  0  0  0  0  0
   60.4920   30.9553   45.6142 H   0  0  0  0  0  0  0  0  0  0  0  0
   59.3832   30.3430   43.6141 H   0  0  0  0  0  0  0  0  0  0  0  0
   57.9056   32.0822   43.6061 H   0  0  0  0  0  0  0  0  0  0  0  0
   59.0251   33.9496   44.0005 H   0  0  0  0  0  0  0  0  0  0  0  0
   59.7949   35.7052   45.5950 H   0  0  0  0  0  0  0  0  0  0  0  0
   59.5033   35.3835   48.0515 H   0  0  0  0  0  0  0  0  0  0  0  0
   58.4369   33.3008   48.9206 H   0  0  0  0  0  0  0  0  0  0  0  0
   57.6601   31.5373   47.3363 H   0  0  0  0  0  0  0  0  0  0  0  0
   56.9780   27.4977   46.3313 H   0  0  0  0  0  0  0  0  0  0  0  0
   55.9864   25.5802   47.5803 H   0  0  0  0  0  0  0  0  0  0  0  0
   55.8599   23.3260   46.5181 H   0  0  0  0  0  0  0  0  0  0  0  0
   56.6100   22.2310   41.6420 H   0  0  0  0  0  0  0  0  0  0  0  0
   55.7830   23.5810   42.1930 H   0  0  0  0  0  0  0  0  0  0  0  0
   57.7396   24.9009   42.9509 H   0  0  0  0  0  0  0  0  0  0  0  0
  1  2  1  0
  2  3  1  0
  3  4  1  0
  4  5  2  0
  5  6  1  0
  6  7  2  0
  7  8  1  0
  8  9  2  0
  3 10  1  0
 10 11  1  0
 11 12  2  0
 11 13  1  0
 13 14  1  0
 14 15  2  0
 14 16  2  0
 14 17  1  0
 17 18  2  0
 18 19  1  0
 19 20  2  0
 20 21  1  0
 21 22  1  0
 22 23  1  0
 22 24  2  0
 22 25  2  0
 21 26  2  0
 13  2  1  0
 26 17  1  0
  9  4  1  0
  1 27  1  0
  1 28  1  0
  1 29  1  0
  2 30  1  6
  3 31  1  6
  5 32  1  0
  6 33  1  0
  7 34  1  0
  8 35  1  0
  9 36  1  0
 18 37  1  0
 19 38  1  0
 20 39  1  0
 23 40  1  0
 23 41  1  0
 26 42  1  0
M  CHG  1  10  -1
M  END
>  <UniqueID>  (83) 
77

>  <SMILES>  (83) 
C[C@@H]1[C@H](c2ccccc2)[N-]C(=O)N1S(=O)(=O)c1cccc(S(N)(=O)=O)c1

>  <Energy>  (83) 
59.67707692788554

>  <Genealogy>  (83) 
CC1C(c2ccccc2)[N-]C(=O)N1S(=O)(=O)c1cccc(S(N)(=O)=O)c1 (protonated)
C[C@@H]1[C@H](c2ccccc2)[N-]C(=O)N1S(=O)(=O)c1cccc(S(N)(=O)=O)c1 (chirality)
C[C@@H]1[C@H](c2ccccc2)[N-]C(=O)N1S(=O)(=O)c1cccc(S(N)(=O)=O)c1 (3D coordinates assigned)
C[C@@H]1[C@H](c2ccccc2)[N-]C(=O)N1S(=O)(=O)c1cccc(S(N)(=O)=O)c1 (nonaromatic ring conformer: 59.67707692788554 kcal/mol)

>  <smiles>  (83) 
CC1C(c2ccccc2)NC(=O)N1S(=O)(=O)c1cccc(S(N)(=O)=O)c1

>  <score_type>  (83) 
oracle

>  <origin>  (83) 
adg

>  <m_score__min__energy>  (83) 
-11.44

>  <m_primary>  (83) 
energy

$$$$
83:0
     RDKit          3D

 57 60  0  0  0  0  0  0  0  0999 V2000
   59.5370   22.6030   45.3950 O   0  0  0  0  0  0  0  0  0  0  0  0
   58.6990   23.3520   45.9680 C   0  0  0  0  0  0  0  0  0  0  0  0
   57.7300   22.7610   46.8420 N   0  0  0  0  0  0  0  0  0  0  0  0
   56.6750   21.8480   46.4150 C   0  0  0  0  0  0  0  0  0  0  0  0
   55.5540   22.6260   45.7810 C   0  0  0  0  0  0  0  0  0  0  0  0
   54.4780   23.0660   46.5750 C   0  0  0  0  0  0  0  0  0  0  0  0
   53.4150   23.7710   46.0030 C   0  0  0  0  0  0  0  0  0  0  0  0
   53.4060   24.0350   44.6340 C   0  0  0  0  0  0  0  0  0  0  0  0
   54.4690   23.6040   43.8340 C   0  0  0  0  0  0  0  0  0  0  0  0
   55.5420   22.9040   44.3960 C   0  0  0  0  0  0  0  0  0  0  0  0
   56.8520   22.3840   43.3390 Cl  0  0  0  0  0  0  0  0  0  0  0  0
   58.7750   24.8120   45.7660 C   0  0  0  0  0  0  0  0  0  0  0  0
   57.7170   25.4960   45.1480 C   0  0  0  0  0  0  0  0  0  0  0  0
   57.7760   26.8790   44.9710 C   0  0  0  0  0  0  0  0  0  0  0  0
   58.8880   27.6140   45.4200 C   0  0  0  0  0  0  0  0  0  0  0  0
   58.9370   29.0820   45.2070 C   0  0  0  0  0  0  0  0  0  0  0  0
   59.8770   29.5710   44.5250 O   0  0  0  0  0  0  0  0  0  0  0  0
   57.9100   29.9510   45.7200 N   0  0  0  0  0  0  0  0  0  0  0  0
   58.0560   31.3810   45.7680 C   0  0  0  0  0  0  0  0  0  0  0  0
   57.3040   32.1850   44.9010 C   0  0  0  0  0  0  0  0  0  0  0  0
   57.4640   33.5720   44.9110 C   0  0  0  0  0  0  0  0  0  0  0  0
   58.3780   34.1690   45.7870 C   0  0  0  0  0  0  0  0  0  0  0  0
   59.1290   33.3830   46.6780 C   0  0  0  0  0  0  0  0  0  0  0  0
   60.0920   34.0180   47.6120 C   0  0  0  0  0  0  0  0  0  0  0  0
   59.7150   34.9530   48.3690 O   0  0  0  0  0  0  0  0  0  0  0  0
   61.4500   33.5670   47.6870 N   0  0  0  0  0  0  0  0  0  0  0  0
   62.3520   33.8410   46.5560 C   0  0  0  0  0  0  0  0  0  0  0  0
   63.7570   33.2550   46.7620 C   0  0  0  0  0  0  0  0  0  0  0  0
   63.7240   32.0890   47.5560 O   0  0  0  0  0  0  0  0  0  0  0  0
   63.3340   32.4450   48.8630 C   0  0  0  0  0  0  0  0  0  0  0  0
   61.8570   32.8320   48.8940 C   0  0  0  0  0  0  0  0  0  0  0  0
   58.9350   31.9890   46.6810 C   0  0  0  0  0  0  0  0  0  0  0  0
   59.9440   26.9270   46.0490 C   0  0  0  0  0  0  0  0  0  0  0  0
   59.8810   25.5410   46.2310 C   0  0  0  0  0  0  0  0  0  0  0  0
   57.0832   21.1343   45.6842 H   0  0  0  0  0  0  0  0  0  0  0  0
   56.2900   21.3032   47.2896 H   0  0  0  0  0  0  0  0  0  0  0  0
   54.4737   22.8533   47.6542 H   0  0  0  0  0  0  0  0  0  0  0  0
   52.5838   24.1182   46.6343 H   0  0  0  0  0  0  0  0  0  0  0  0
   52.5641   24.5814   44.1839 H   0  0  0  0  0  0  0  0  0  0  0  0
   54.4614   23.8170   42.7548 H   0  0  0  0  0  0  0  0  0  0  0  0
   56.8349   24.9381   44.8006 H   0  0  0  0  0  0  0  0  0  0  0  0
   56.9438   27.4000   44.4750 H   0  0  0  0  0  0  0  0  0  0  0  0
   56.9620   29.5530   45.8920 H   0  0  0  0  0  0  0  0  0  0  0  0
   56.5847   31.7215   44.2097 H   0  0  0  0  0  0  0  0  0  0  0  0
   56.8700   34.1974   44.2284 H   0  0  0  0  0  0  0  0  0  0  0  0
   58.5095   35.2611   45.7781 H   0  0  0  0  0  0  0  0  0  0  0  0
   61.9179   33.4023   45.6455 H   0  0  0  0  0  0  0  0  0  0  0  0
   62.4567   34.9328   46.4718 H   0  0  0  0  0  0  0  0  0  0  0  0
   64.1870   33.0061   45.7806 H   0  0  0  0  0  0  0  0  0  0  0  0
   64.3697   34.0067   47.2812 H   0  0  0  0  0  0  0  0  0  0  0  0
   63.4983   31.5900   49.5353 H   0  0  0  0  0  0  0  0  0  0  0  0
   63.9343   33.3064   49.1911 H   0  0  0  0  0  0  0  0  0  0  0  0
   61.2524   31.9164   48.9719 H   0  0  0  0  0  0  0  0  0  0  0  0
   61.6987   33.4911   49.7603 H   0  0  0  0  0  0  0  0  0  0  0  0
   59.4785   31.3670   47.4075 H   0  0  0  0  0  0  0  0  0  0  0  0
   60.8252   27.4841   46.4000 H   0  0  0  0  0  0  0  0  0  0  0  0
   60.7036   25.0192   46.7419 H   0  0  0  0  0  0  0  0  0  0  0  0
  1  2  2  0
  2  3  1  0
  3  4  1  0
  4  5  1  0
  5  6  2  0
  6  7  1  0
  7  8  2  0
  8  9  1  0
  9 10  2  0
 10 11  1  0
  2 12  1  0
 12 13  2  0
 13 14  1  0
 14 15  2  0
 15 16  1  0
 16 17  2  0
 16 18  1  0
 18 19  1  0
 19 20  2  0
 20 21  1  0
 21 22  2  0
 22 23  1  0
 23 24  1  0
 24 25  2  0
 24 26  1  0
 26 27  1  0
 27 28  1  0
 28 29  1  0
 29 30  1  0
 30 31  1  0
 23 32  2  0
 15 33  1  0
 33 34  2  0
 10  5  1  0
 34 12  1  0
 32 19  1  0
 31 26  1  0
  4 35  1  0
  4 36  1  0
  6 37  1  0
  7 38  1  0
  8 39  1  0
  9 40  1  0
 13 41  1  0
 14 42  1  0
 18 43  1  0
 20 44  1  0
 21 45  1  0
 22 46  1  0
 27 47  1  0
 27 48  1  0
 28 49  1  0
 28 50  1  0
 30 51  1  0
 30 52  1  0
 31 53  1  0
 31 54  1  0
 32 55  1  0
 33 56  1  0
 34 57  1  0
M  CHG  1   3  -1
M  END
>  <UniqueID>  (84) 
78

>  <SMILES>  (84) 
O=C([N-]Cc1ccccc1Cl)c1ccc(C(=O)Nc2cccc(C(=O)N3CCOCC3)c2)cc1

>  <Energy>  (84) 
82.23620950076516

>  <Genealogy>  (84) 
O=C([N-]Cc1ccccc1Cl)c1ccc(C(=O)Nc2cccc(C(=O)N3CCOCC3)c2)cc1 (protonated)
O=C([N-]Cc1ccccc1Cl)c1ccc(C(=O)Nc2cccc(C(=O)N3CCOCC3)c2)cc1 (3D coordinates assigned)
O=C([N-]Cc1ccccc1Cl)c1ccc(C(=O)Nc2cccc(C(=O)N3CCOCC3)c2)cc1 (nonaromatic ring conformer: 82.23620950076516 kcal/mol)

>  <smiles>  (84) 
O=C(NCc1ccccc1Cl)c1ccc(C(=O)Nc2cccc(C(=O)N3CCOCC3)c2)cc1

>  <score_type>  (84) 
oracle

>  <origin>  (84) 
adg

>  <m_score__min__energy>  (84) 
-10.75

>  <m_primary>  (84) 
energy

$$$$
84:0
     RDKit          3D

 51 54  0  0  0  0  0  0  0  0999 V2000
   56.0010   31.8480   52.2700 C   0  0  0  0  0  0  0  0  0  0  0  0
   55.3530   30.7030   52.5350 C   0  0  0  0  0  0  0  0  0  0  0  0
   54.1070   30.2820   52.0430 C   0  0  0  0  0  0  0  0  0  0  0  0
   53.1660   30.9620   51.3600 C   0  0  0  0  0  0  0  0  0  0  0  0
   51.9380   31.5400   51.9290 C   0  0  0  0  0  0  0  0  0  0  0  0
   51.6360   31.4990   53.2390 N   0  0  0  0  0  0  0  0  0  0  0  0
   50.5090   32.2400   53.3220 C   0  0  0  0  0  0  0  0  0  0  0  0
   49.9000   32.4290   54.4080 O   0  0  0  0  0  0  0  0  0  0  0  0
   50.0940   32.7760   52.1550 N   0  0  0  0  0  0  0  0  0  0  0  0
   51.0190   32.3360   51.2850 C   0  0  0  0  0  0  0  0  0  0  0  0
   51.0380   32.6820   49.9390 O   0  0  0  0  0  0  0  0  0  0  0  0
   53.9240   28.9830   52.3650 N   0  0  0  0  0  0  0  0  0  0  0  0
   55.0190   28.6560   53.0780 C   0  0  0  0  0  0  0  0  0  0  0  0
   55.2070   27.5010   53.5470 O   0  0  0  0  0  0  0  0  0  0  0  0
   55.8950   29.6700   53.2250 N   0  0  0  0  0  0  0  0  0  0  0  0
   57.2070   29.5860   53.8810 C   0  0  0  0  0  0  0  0  0  0  0  0
   58.3150   29.7340   52.8810 C   0  0  0  0  0  0  0  0  0  0  0  0
   59.4900   29.9650   53.2790 O   0  0  0  0  0  0  0  0  0  0  0  0
   58.0510   29.5120   51.4860 N   0  0  0  0  0  0  0  0  0  0  0  0
   58.9690   29.8530   50.4330 C   0  0  0  0  0  0  0  0  0  0  0  0
   60.3410   29.6370   50.6190 C   0  0  0  0  0  0  0  0  0  0  0  0
   61.2480   29.9320   49.6000 C   0  0  0  0  0  0  0  0  0  0  0  0
   60.7930   30.4410   48.3810 C   0  0  0  0  0  0  0  0  0  0  0  0
   59.4220   30.6610   48.1710 C   0  0  0  0  0  0  0  0  0  0  0  0
   58.9440   31.1780   46.8690 C   0  0  0  0  0  0  0  0  0  0  0  0
   58.6420   30.3590   45.9580 O   0  0  0  0  0  0  0  0  0  0  0  0
   58.8240   32.5920   46.6130 N   0  0  0  0  0  0  0  0  0  0  0  0
   57.6870   33.1160   45.8510 C   0  0  0  0  0  0  0  0  0  0  0  0
   58.1690   34.2240   44.9090 C   0  0  0  0  0  0  0  0  0  0  0  0
   58.9090   35.2010   45.6170 O   0  0  0  0  0  0  0  0  0  0  0  0
   60.0970   34.6260   46.1290 C   0  0  0  0  0  0  0  0  0  0  0  0
   59.7740   33.5560   47.1770 C   0  0  0  0  0  0  0  0  0  0  0  0
   58.5130   30.3410   49.1940 C   0  0  0  0  0  0  0  0  0  0  0  0
   56.9798   32.0455   52.7314 H   0  0  0  0  0  0  0  0  0  0  0  0
   55.5533   32.5890   51.5914 H   0  0  0  0  0  0  0  0  0  0  0  0
   53.3300   31.0974   50.2808 H   0  0  0  0  0  0  0  0  0  0  0  0
   57.2876   30.3881   54.6294 H   0  0  0  0  0  0  0  0  0  0  0  0
   57.2971   28.6012   54.3626 H   0  0  0  0  0  0  0  0  0  0  0  0
   57.1750   29.0020   51.2300 H   0  0  0  0  0  0  0  0  0  0  0  0
   60.7056   29.2322   51.5746 H   0  0  0  0  0  0  0  0  0  0  0  0
   62.3236   29.7634   49.7570 H   0  0  0  0  0  0  0  0  0  0  0  0
   61.5126   30.6707   47.5814 H   0  0  0  0  0  0  0  0  0  0  0  0
   57.2357   32.3044   45.2614 H   0  0  0  0  0  0  0  0  0  0  0  0
   56.9385   33.5256   46.5453 H   0  0  0  0  0  0  0  0  0  0  0  0
   58.8081   33.7822   44.1303 H   0  0  0  0  0  0  0  0  0  0  0  0
   57.2909   34.7075   44.4560 H   0  0  0  0  0  0  0  0  0  0  0  0
   60.6595   34.1648   45.3038 H   0  0  0  0  0  0  0  0  0  0  0  0
   60.6957   35.4168   46.6045 H   0  0  0  0  0  0  0  0  0  0  0  0
   60.6984   33.0342   47.4655 H   0  0  0  0  0  0  0  0  0  0  0  0
   59.3306   34.0326   48.0637 H   0  0  0  0  0  0  0  0  0  0  0  0
   57.4342   30.4733   49.0247 H   0  0  0  0  0  0  0  0  0  0  0  0
  1  2  2  0
  2  3  1  0
  3  4  2  3
  4  5  1  0
  5  6  1  0
  6  7  1  0
  7  8  2  0
  7  9  1  0
  9 10  1  0
 10 11  1  0
  3 12  1  0
 12 13  1  0
 13 14  2  0
 13 15  1  0
 15 16  1  0
 16 17  1  0
 17 18  2  0
 17 19  1  0
 19 20  1  0
 20 21  2  0
 21 22  1  0
 22 23  2  0
 23 24  1  0
 24 25  1  0
 25 26  2  0
 25 27  1  0
 27 28  1  0
 28 29  1  0
 29 30  1  0
 30 31  1  0
 31 32  1  0
 24 33  2  0
 15  2  1  0
 33 20  1  0
 10  5  2  0
 32 27  1  0
  1 34  1  0
  1 35  1  0
  4 36  1  0
 16 37  1  0
 16 38  1  0
 19 39  1  0
 21 40  1  0
 22 41  1  0
 23 42  1  0
 28 43  1  0
 28 44  1  0
 29 45  1  0
 29 46  1  0
 31 47  1  0
 31 48  1  0
 32 49  1  0
 32 50  1  0
 33 51  1  0
M  CHG  4   6  -1   9  -1  11  -1  12  -1
M  END
>  <UniqueID>  (85) 
79

>  <SMILES>  (85) 
C=c1c(=Cc2[n-]c(=O)[n-]c2[O-])[n-]c(=O)n1CC(=O)Nc1cccc(C(=O)N2CCOCC2)c1

>  <Energy>  (85) 
137.24684551143977

>  <Genealogy>  (85) 
C=c1c(=Cc2[n-]c(=O)[n-]c2[O-])[n-]c(=O)n1CC(=O)Nc1cccc(C(=O)N2CCOCC2)c1 (protonated)
C=c1c(=Cc2[n-]c(=O)[n-]c2[O-])[n-]c(=O)n1CC(=O)Nc1cccc(C(=O)N2CCOCC2)c1 (3D coordinates assigned)
C=c1c(=Cc2[n-]c(=O)[n-]c2[O-])[n-]c(=O)n1CC(=O)Nc1cccc(C(=O)N2CCOCC2)c1 (nonaromatic ring conformer: 137.24684551143977 kcal/mol)

>  <smiles>  (85) 
C=c1c(=Cc2[nH]c(=O)[nH]c2O)[nH]c(=O)n1CC(=O)Nc1cccc(C(=O)N2CCOCC2)c1

>  <score_type>  (85) 
oracle

>  <origin>  (85) 
adg

>  <m_score__min__energy>  (85) 
-18.98

>  <m_primary>  (85) 
energy

$$$$
85:0
     RDKit          3D

 69 73  0  0  0  0  0  0  0  0999 V2000
   57.7500   22.5620   47.8280 H   0  0  0  0  0  0  0  0  0  0  0  0
   57.0030   23.1400   47.3780 N   0  0  0  0  0  0  0  0  0  0  0  0
   57.2110   24.3570   46.9850 C   0  0  0  0  0  0  0  0  0  0  0  0
   56.1490   25.1850   46.7850 N   0  0  0  0  0  0  0  0  0  0  0  0
   56.3090   26.4710   46.3690 C   0  0  0  0  0  0  0  0  0  0  0  0
   55.4290   27.1133   46.2168 H   0  0  0  0  0  0  0  0  0  0  0  0
   57.5920   26.9760   46.1350 C   0  0  0  0  0  0  0  0  0  0  0  0
   57.7720   28.3270   45.6750 C   0  0  0  0  0  0  0  0  0  0  0  0
   57.9130   29.4640   45.3030 C   0  0  0  0  0  0  0  0  0  0  0  0
   58.1050   30.8320   44.8690 C   0  0  0  0  0  0  0  0  0  0  0  0
   58.8850   31.7240   45.6340 C   0  0  0  0  0  0  0  0  0  0  0  0
   59.5840   31.3010   46.8670 C   0  0  0  0  0  0  0  0  0  0  0  0
   60.9840   31.2100   46.9050 C   0  0  0  0  0  0  0  0  0  0  0  0
   61.5741   31.4752   46.0154 H   0  0  0  0  0  0  0  0  0  0  0  0
   61.6320   30.7840   48.0680 C   0  0  0  0  0  0  0  0  0  0  0  0
   62.7301   30.7245   48.0916 H   0  0  0  0  0  0  0  0  0  0  0  0
   60.8900   30.4320   49.2050 C   0  0  0  0  0  0  0  0  0  0  0  0
   61.5840   29.9340   50.4140 C   0  0  0  0  0  0  0  0  0  0  0  0
   61.1840   28.8710   50.9620 O   0  0  0  0  0  0  0  0  0  0  0  0
   62.6970   30.6530   50.9770 N   0  0  0  0  0  0  0  0  0  0  0  0
   62.5700   32.0850   51.2470 C   0  0  0  0  0  0  0  0  0  0  0  0
   61.8778   32.5347   50.5199 H   0  0  0  0  0  0  0  0  0  0  0  0
   62.1807   32.2317   52.2653 H   0  0  0  0  0  0  0  0  0  0  0  0
   63.9380   32.7520   51.1260 C   0  0  0  0  0  0  0  0  0  0  0  0
   64.2819   32.6802   50.0836 H   0  0  0  0  0  0  0  0  0  0  0  0
   63.8418   33.8050   51.4292 H   0  0  0  0  0  0  0  0  0  0  0  0
   64.9320   32.0950   52.0110 N   0  0  0  0  0  0  0  0  0  0  0  0
   66.2110   32.8800   52.0000 C   0  0  0  0  0  0  0  0  0  0  0  0
   66.7285   32.6712   52.9480 H   0  0  0  0  0  0  0  0  0  0  0  0
   66.0190   34.4230   51.9780 C   0  0  0  0  0  0  0  0  0  0  0  0
   65.5658   34.7036   51.0158 H   0  0  0  0  0  0  0  0  0  0  0  0
   65.3770   34.6810   52.8331 H   0  0  0  0  0  0  0  0  0  0  0  0
   67.3380   35.2120   52.1460 C   0  0  0  0  0  0  0  0  0  0  0  0
   67.2318   36.1679   51.6123 H   0  0  0  0  0  0  0  0  0  0  0  0
   67.4874   35.3246   53.2300 H   0  0  0  0  0  0  0  0  0  0  0  0
   68.8410   34.3760   51.5140 S   0  0  0  0  0  0  0  0  0  0  0  0
   67.9890   33.4840   50.1850 C   0  0  0  0  0  0  0  0  0  0  0  0
   67.3981   34.1962   49.5903 H   0  0  0  0  0  0  0  0  0  0  0  0
   68.7374   32.9912   49.5469 H   0  0  0  0  0  0  0  0  0  0  0  0
   67.0570   32.4210   50.7730 C   0  0  0  0  0  0  0  0  0  0  0  0
   66.3625   32.1029   49.9815 H   0  0  0  0  0  0  0  0  0  0  0  0
   67.7091   31.6140   51.1385 H   0  0  0  0  0  0  0  0  0  0  0  0
   65.0750   30.6700   51.6200 C   0  0  0  0  0  0  0  0  0  0  0  0
   65.4462   30.6183   50.5858 H   0  0  0  0  0  0  0  0  0  0  0  0
   65.7818   30.1903   52.3131 H   0  0  0  0  0  0  0  0  0  0  0  0
   63.7350   29.9280   51.7070 C   0  0  0  0  0  0  0  0  0  0  0  0
   63.8488   28.9241   51.2719 H   0  0  0  0  0  0  0  0  0  0  0  0
   63.4389   29.8535   52.7638 H   0  0  0  0  0  0  0  0  0  0  0  0
   59.4880   30.5600   49.1790 C   0  0  0  0  0  0  0  0  0  0  0  0
   58.7450   30.2740   50.2780 F   0  0  0  0  0  0  0  0  0  0  0  0
   58.8440   30.9990   48.0190 C   0  0  0  0  0  0  0  0  0  0  0  0
   57.7495   31.1083   48.0097 H   0  0  0  0  0  0  0  0  0  0  0  0
   58.9760   33.0240   45.2530 N   0  0  0  0  0  0  0  0  0  0  0  0
   58.3570   33.4800   44.1370 C   0  0  0  0  0  0  0  0  0  0  0  0
   58.4536   34.5375   43.8499 H   0  0  0  0  0  0  0  0  0  0  0  0
   57.6180   32.6360   43.3720 N   0  0  0  0  0  0  0  0  0  0  0  0
   57.1600   33.0150   42.5120 H   0  0  0  0  0  0  0  0  0  0  0  0
   57.4590   31.3260   43.7150 C   0  0  0  0  0  0  0  0  0  0  0  0
   56.6230   30.4300   42.8300 C   0  0  0  0  0  0  0  0  0  0  0  0
   56.2071   31.0255   42.0040 H   0  0  0  0  0  0  0  0  0  0  0  0
   57.2626   29.6256   42.4378 H   0  0  0  0  0  0  0  0  0  0  0  0
   55.4780   29.8030   43.6210 C   0  0  0  0  0  0  0  0  0  0  0  0
   55.6743   29.9105   44.6980 H   0  0  0  0  0  0  0  0  0  0  0  0
   54.5359   30.3111   43.3675 H   0  0  0  0  0  0  0  0  0  0  0  0
   55.3986   28.7355   43.3675 H   0  0  0  0  0  0  0  0  0  0  0  0
   58.6990   26.1460   46.3340 C   0  0  0  0  0  0  0  0  0  0  0  0
   59.7144   26.5291   46.1547 H   0  0  0  0  0  0  0  0  0  0  0  0
   58.5130   24.8290   46.7610 C   0  0  0  0  0  0  0  0  0  0  0  0
   59.3784   24.1689   46.9200 H   0  0  0  0  0  0  0  0  0  0  0  0
  1  2  1  0
  2  3  2  0
  3  4  1  0
  4  5  1  0
  5  6  1  0
  5  7  2  0
  7  8  1  0
  8  9  3  0
  9 10  1  0
 10 11  1  0
 11 12  1  0
 12 13  2  0
 13 14  1  0
 13 15  1  0
 15 16  1  0
 15 17  2  0
 17 18  1  0
 18 19  2  0
 18 20  1  0
 20 21  1  0
 21 22  1  0
 21 23  1  0
 21 24  1  0
 24 25  1  0
 24 26  1  0
 24 27  1  0
 27 28  1  0
 28 29  1  0
 28 30  1  0
 30 31  1  0
 30 32  1  0
 30 33  1  0
 33 34  1  0
 33 35  1  0
 33 36  1  0
 36 37  1  0
 37 38  1  0
 37 39  1  0
 37 40  1  0
 40 41  1  0
 40 42  1  0
 27 43  1  0
 43 44  1  0
 43 45  1  0
 43 46  1  0
 46 47  1  0
 46 48  1  0
 17 49  1  0
 49 50  1  0
 49 51  2  0
 51 52  1  0
 11 53  2  0
 53 54  1  0
 54 55  1  0
 54 56  2  0
 56 57  1  0
 56 58  1  0
 58 59  1  0
 59 60  1  0
 59 61  1  0
 59 62  1  0
 62 63  1  0
 62 64  1  0
 62 65  1  0
  7 66  1  0
 66 67  1  0
 66 68  2  0
 68 69  1  0
 68  3  1  0
 58 10  2  0
 51 12  1  0
 46 20  1  0
 40 28  1  0
M  CHG  2   4  -1  56   1
M  END
>  <UniqueID>  (86) 
80

>  <SMILES>  (86) 
[H]/N=c1\ccc(C#Cc2c(-c3ccc(C(=O)N4CCN(C5CCSCC5)CC4)c(F)c3)nc[nH+]c2CC)c[n-]1

>  <Energy>  (86) 
91.37684617287601

>  <Genealogy>  (86) 
CCc1[nH+]cnc(-c2ccc(C(=O)N3CCN(C4CCSCC4)CC3)c(F)c2)c1C#Cc1ccc(=N)[n-]c1 (protonated)
[H]/N=c1\ccc(C#Cc2c(-c3ccc(C(=O)N4CCN(C5CCSCC5)CC4)c(F)c3)nc[nH+]c2CC)c[n-]1 (cis-trans isomerization)
[H]/N=c1\ccc(C#Cc2c(-c3ccc(C(=O)N4CCN(C5CCSCC5)CC4)c(F)c3)nc[nH+]c2CC)c[n-]1 (3D coordinates assigned)
[H]/N=c1\ccc(C#Cc2c(-c3ccc(C(=O)N4CCN(C5CCSCC5)CC4)c(F)c3)nc[nH+]c2CC)c[n-]1 (nonaromatic ring conformer: 91.37684617287601 kcal/mol)

>  <smiles>  (86) 
CCc1ncnc(-c2ccc(C(=O)N3CCN(C4CCSCC4)CC3)c(F)c2)c1C#Cc1ccc(=N)[nH]c1

>  <score_type>  (86) 
oracle

>  <origin>  (86) 
adg

>  <m_score__min__energy>  (86) 
-9.7200000000000006

>  <m_primary>  (86) 
energy

$$$$
86:0
     RDKit          3D

 47 49  0  0  0  0  0  0  0  0999 V2000
   60.1990   30.6580   48.1440 C   0  0  0  0  0  0  0  0  0  0  0  0
   60.1680   31.7600   49.0430 O   0  0  0  0  0  0  0  0  0  0  0  0
   59.3590   32.8820   48.8360 C   0  0  0  0  0  0  0  0  0  0  0  0
   59.6660   33.9920   49.3470 O   0  0  0  0  0  0  0  0  0  0  0  0
   58.2010   32.7990   47.9990 N   0  0  0  0  0  0  0  0  0  0  0  0
   58.1890   32.8530   46.5660 C   0  0  0  0  0  0  0  0  0  0  0  0
   58.5430   34.0510   45.9360 C   0  0  0  0  0  0  0  0  0  0  0  0
   58.5200   34.1520   44.5420 C   0  0  0  0  0  0  0  0  0  0  0  0
   58.1330   33.0580   43.7660 C   0  0  0  0  0  0  0  0  0  0  0  0
   57.7620   31.8520   44.3820 C   0  0  0  0  0  0  0  0  0  0  0  0
   57.2860   30.6930   43.5490 C   0  0  0  0  0  0  0  0  0  0  0  0
   57.4420   29.4130   44.3090 C   0  0  0  0  0  0  0  0  0  0  0  0
   58.6010   28.6650   44.4290 C   0  0  0  0  0  0  0  0  0  0  0  0
   58.2780   27.6040   45.2570 C   0  0  0  0  0  0  0  0  0  0  0  0
   59.1480   26.5830   45.6270 O   0  0  0  0  0  0  0  0  0  0  0  0
   56.9940   27.6790   45.6610 N   0  0  0  0  0  0  0  0  0  0  0  0
   56.2750   26.7060   46.4810 C   0  0  0  0  0  0  0  0  0  0  0  0
   56.0320   25.4570   45.6970 C   0  0  0  0  0  0  0  0  0  0  0  0
   55.0670   24.7060   45.9990 O   0  0  0  0  0  0  0  0  0  0  0  0
   56.9510   25.0830   44.6650 N   0  0  0  0  0  0  0  0  0  0  0  0
   57.2280   23.7410   44.2430 C   0  0  0  0  0  0  0  0  0  0  0  0
   56.4120   23.1650   43.2600 C   0  0  0  0  0  0  0  0  0  0  0  0
   56.6460   21.8580   42.8250 C   0  0  0  0  0  0  0  0  0  0  0  0
   57.6880   21.1110   43.3770 C   0  0  0  0  0  0  0  0  0  0  0  0
   58.4870   21.6630   44.3810 C   0  0  0  0  0  0  0  0  0  0  0  0
   58.2540   22.9700   44.8290 C   0  0  0  0  0  0  0  0  0  0  0  0
   59.0180   23.4710   45.8760 O   0  0  0  0  0  0  0  0  0  0  0  0
   56.4830   28.7810   45.0790 C   0  0  0  0  0  0  0  0  0  0  0  0
   55.1680   29.2080   45.2350 O   0  0  0  0  0  0  0  0  0  0  0  0
   57.7700   31.7610   45.7830 C   0  0  0  0  0  0  0  0  0  0  0  0
   60.2254   29.7188   48.7160 H   0  0  0  0  0  0  0  0  0  0  0  0
   59.3000   30.6763   47.5104 H   0  0  0  0  0  0  0  0  0  0  0  0
   61.0956   30.7268   47.5104 H   0  0  0  0  0  0  0  0  0  0  0  0
   58.8415   34.9193   46.5418 H   0  0  0  0  0  0  0  0  0  0  0  0
   58.8075   35.0957   44.0554 H   0  0  0  0  0  0  0  0  0  0  0  0
   58.1187   33.1410   42.6692 H   0  0  0  0  0  0  0  0  0  0  0  0
   56.2255   30.8386   43.2959 H   0  0  0  0  0  0  0  0  0  0  0  0
   57.8873   30.6405   42.6294 H   0  0  0  0  0  0  0  0  0  0  0  0
   59.5759   28.8712   43.9631 H   0  0  0  0  0  0  0  0  0  0  0  0
   58.8810   25.6120   45.5210 H   0  0  0  0  0  0  0  0  0  0  0  0
   56.8746   26.4663   47.3715 H   0  0  0  0  0  0  0  0  0  0  0  0
   55.3089   27.1346   46.7860 H   0  0  0  0  0  0  0  0  0  0  0  0
   55.5828   23.7450   42.8286 H   0  0  0  0  0  0  0  0  0  0  0  0
   56.0075   21.4166   42.0456 H   0  0  0  0  0  0  0  0  0  0  0  0
   57.8799   20.0879   43.0214 H   0  0  0  0  0  0  0  0  0  0  0  0
   59.3018   21.0696   44.8214 H   0  0  0  0  0  0  0  0  0  0  0  0
   57.4467   30.8302   46.2719 H   0  0  0  0  0  0  0  0  0  0  0  0
  1  2  1  0
  2  3  1  0
  3  4  2  0
  3  5  1  0
  5  6  1  0
  6  7  2  0
  7  8  1  0
  8  9  2  0
  9 10  1  0
 10 11  1  0
 11 12  1  0
 12 13  1  0
 13 14  2  0
 14 15  1  0
 14 16  1  0
 16 17  1  0
 17 18  1  0
 18 19  2  0
 18 20  1  0
 20 21  1  0
 21 22  2  0
 22 23  1  0
 23 24  2  0
 24 25  1  0
 25 26  2  0
 26 27  1  0
 16 28  1  0
 28 29  1  0
 10 30  2  0
 30  6  1  0
 28 12  2  0
 26 21  1  0
  1 31  1  0
  1 32  1  0
  1 33  1  0
  7 34  1  0
  8 35  1  0
  9 36  1  0
 11 37  1  0
 11 38  1  0
 13 39  1  0
 15 40  1  0
 17 41  1  0
 17 42  1  0
 22 43  1  0
 23 44  1  0
 24 45  1  0
 25 46  1  0
 30 47  1  0
M  CHG  4   5  -1  20  -1  27  -1  29  -1
M  END
>  <UniqueID>  (87) 
81

>  <SMILES>  (87) 
COC(=O)[N-]c1cccc(Cc2cc(O)n(CC(=O)[N-]c3ccccc3[O-])c2[O-])c1

>  <Energy>  (87) 
79.10978819689252

>  <Genealogy>  (87) 
COC(=O)[N-]c1cccc(Cc2cc(O)n(CC(=O)[N-]c3ccccc3[O-])c2[O-])c1 (protonated)
COC(=O)[N-]c1cccc(Cc2cc(O)n(CC(=O)[N-]c3ccccc3[O-])c2[O-])c1 (3D coordinates assigned)
COC(=O)[N-]c1cccc(Cc2cc(O)n(CC(=O)[N-]c3ccccc3[O-])c2[O-])c1 (optimized conformer: 79.10978819689252 kcal/mol)

>  <smiles>  (87) 
COC(=O)Nc1cccc(Cc2cc(O)n(CC(=O)Nc3ccccc3O)c2O)c1

>  <score_type>  (87) 
oracle

>  <origin>  (87) 
adg

>  <m_score__min__energy>  (87) 
-16.039999999999999

>  <m_primary>  (87) 
energy

$$$$
87:0
     RDKit          3D

 53 55  0  0  0  0  0  0  0  0999 V2000
   55.2180   23.8210   45.4810 C   0  0  0  0  0  0  0  0  0  0  0  0
   55.4560   24.9010   46.3770 O   0  0  0  0  0  0  0  0  0  0  0  0
   56.6220   25.6810   46.3880 C   0  0  0  0  0  0  0  0  0  0  0  0
   57.5270   25.5050   47.4380 C   0  0  0  0  0  0  0  0  0  0  0  0
   58.6990   26.2600   47.5000 C   0  0  0  0  0  0  0  0  0  0  0  0
   58.9900   27.2090   46.5040 C   0  0  0  0  0  0  0  0  0  0  0  0
   60.1540   27.9960   46.5460 O   0  0  0  0  0  0  0  0  0  0  0  0
   60.4400   28.9640   47.5510 C   0  0  0  0  0  0  0  0  0  0  0  0
   58.0900   27.3830   45.4330 C   0  0  0  0  0  0  0  0  0  0  0  0
   58.3680   28.4110   44.3640 C   0  0  0  0  0  0  0  0  0  0  0  0
   58.7800   29.6790   44.9640 N   0  0  0  0  0  0  0  0  0  0  0  0
   57.8720   30.7840   45.0710 C   0  0  0  0  0  0  0  0  0  0  0  0
   56.6410   30.6040   44.8610 O   0  0  0  0  0  0  0  0  0  0  0  0
   58.3550   32.1300   45.4520 C   0  0  0  0  0  0  0  0  0  0  0  0
   58.9460   32.3250   46.7130 C   0  0  0  0  0  0  0  0  0  0  0  0
   59.4210   33.5880   47.0940 C   0  0  0  0  0  0  0  0  0  0  0  0
   60.2000   33.8090   48.6640 S   0  0  0  0  0  0  0  0  0  0  0  0
   59.5700   34.9790   49.3670 O   0  0  0  0  0  0  0  0  0  0  0  0
   59.9740   32.5830   49.5070 O   0  0  0  0  0  0  0  0  0  0  0  0
   61.9180   34.0920   48.4970 N   0  0  0  0  0  0  0  0  0  0  0  0
   62.4490   33.5080   47.2460 C   0  0  0  0  0  0  0  0  0  0  0  0
   63.2540   32.2230   47.5050 C   0  0  0  0  0  0  0  0  0  0  0  0
   64.3550   32.4170   48.3820 O   0  0  0  0  0  0  0  0  0  0  0  0
   64.1220   33.3960   49.3880 C   0  0  0  0  0  0  0  0  0  0  0  0
   62.6360   33.6310   49.7010 C   0  0  0  0  0  0  0  0  0  0  0  0
   59.2770   34.6710   46.2200 C   0  0  0  0  0  0  0  0  0  0  0  0
   58.6740   34.4940   44.9740 C   0  0  0  0  0  0  0  0  0  0  0  0
   58.2110   33.2330   44.5870 C   0  0  0  0  0  0  0  0  0  0  0  0
   57.5800   33.1080   43.3920 F   0  0  0  0  0  0  0  0  0  0  0  0
   56.9070   26.6270   45.3870 C   0  0  0  0  0  0  0  0  0  0  0  0
   55.0162   22.9052   46.0560 H   0  0  0  0  0  0  0  0  0  0  0  0
   54.3498   24.0548   44.8473 H   0  0  0  0  0  0  0  0  0  0  0  0
   56.1040   23.6683   44.8473 H   0  0  0  0  0  0  0  0  0  0  0  0
   57.3137   24.7645   48.2229 H   0  0  0  0  0  0  0  0  0  0  0  0
   59.4004   26.1116   48.3343 H   0  0  0  0  0  0  0  0  0  0  0  0
   60.3063   28.5114   48.5446 H   0  0  0  0  0  0  0  0  0  0  0  0
   61.4786   29.3096   47.4422 H   0  0  0  0  0  0  0  0  0  0  0  0
   59.7560   29.8185   47.4422 H   0  0  0  0  0  0  0  0  0  0  0  0
   59.1714   28.0431   43.7089 H   0  0  0  0  0  0  0  0  0  0  0  0
   57.4487   28.5758   43.7829 H   0  0  0  0  0  0  0  0  0  0  0  0
   59.7430   29.7720   45.3630 H   0  0  0  0  0  0  0  0  0  0  0  0
   59.0367   31.4773   47.4082 H   0  0  0  0  0  0  0  0  0  0  0  0
   61.6067   33.2709   46.5795 H   0  0  0  0  0  0  0  0  0  0  0  0
   63.1246   34.2451   46.7875 H   0  0  0  0  0  0  0  0  0  0  0  0
   62.5821   31.4735   47.9486 H   0  0  0  0  0  0  0  0  0  0  0  0
   63.6617   31.8933   46.5380 H   0  0  0  0  0  0  0  0  0  0  0  0
   64.6222   33.0686   50.3114 H   0  0  0  0  0  0  0  0  0  0  0  0
   64.5201   34.3469   49.0042 H   0  0  0  0  0  0  0  0  0  0  0  0
   62.1872   32.6898   50.0513 H   0  0  0  0  0  0  0  0  0  0  0  0
   62.5556   34.4040   50.4795 H   0  0  0  0  0  0  0  0  0  0  0  0
   59.6406   35.6660   46.5162 H   0  0  0  0  0  0  0  0  0  0  0  0
   58.5625   35.3508   44.2932 H   0  0  0  0  0  0  0  0  0  0  0  0
   56.1968   26.7763   44.5603 H   0  0  0  0  0  0  0  0  0  0  0  0
  1  2  1  0
  2  3  1  0
  3  4  2  0
  4  5  1  0
  5  6  2  0
  6  7  1  0
  7  8  1  0
  6  9  1  0
  9 10  1  0
 10 11  1  0
 11 12  1  0
 12 13  2  0
 12 14  1  0
 14 15  2  0
 15 16  1  0
 16 17  1  0
 17 18  2  0
 17 19  2  0
 17 20  1  0
 20 21  1  0
 21 22  1  0
 22 23  1  0
 23 24  1  0
 24 25  1  0
 16 26  2  0
 26 27  1  0
 27 28  2  0
 28 29  1  0
  9 30  2  0
 30  3  1  0
 28 14  1  0
 25 20  1  0
  1 31  1  0
  1 32  1  0
  1 33  1  0
  4 34  1  0
  5 35  1  0
  8 36  1  0
  8 37  1  0
  8 38  1  0
 10 39  1  0
 10 40  1  0
 11 41  1  0
 15 42  1  0
 21 43  1  0
 21 44  1  0
 22 45  1  0
 22 46  1  0
 24 47  1  0
 24 48  1  0
 25 49  1  0
 25 50  1  0
 26 51  1  0
 27 52  1  0
 30 53  1  0
M  END
>  <UniqueID>  (88) 
82

>  <SMILES>  (88) 
COc1ccc(OC)c(CNC(=O)c2cc(S(=O)(=O)N3CCOCC3)ccc2F)c1

>  <Energy>  (88) 
66.55077329186422

>  <Genealogy>  (88) 
COc1ccc(OC)c(CNC(=O)c2cc(S(=O)(=O)N3CCOCC3)ccc2F)c1 (3D coordinates assigned)
COc1ccc(OC)c(CNC(=O)c2cc(S(=O)(=O)N3CCOCC3)ccc2F)c1 (nonaromatic ring conformer: 66.55077329186422 kcal/mol)

>  <smiles>  (88) 
COc1ccc(OC)c(CNC(=O)c2cc(S(=O)(=O)N3CCOCC3)ccc2F)c1

>  <score_type>  (88) 
oracle

>  <origin>  (88) 
adg

>  <m_score__min__energy>  (88) 
-8.4299999999999997

>  <m_primary>  (88) 
energy

$$$$
88:0
     RDKit          3D

 41 43  0  0  0  0  0  0  0  0999 V2000
   60.3535   26.0213   46.8240 H   0  0  0  0  0  0  0  0  0  0  0  0
   59.6440   26.6910   47.3320 C   0  0  0  0  0  0  0  0  0  0  0  0
   60.0030   27.2360   48.5010 C   0  0  0  0  0  0  0  0  0  0  0  0
   60.3472   26.5684   49.3047 H   0  0  0  0  0  0  0  0  0  0  0  0
   59.9600   28.6940   48.7670 C   0  0  0  0  0  0  0  0  0  0  0  0
   58.7850   29.3520   49.1810 C   0  0  0  0  0  0  0  0  0  0  0  0
   57.8588   28.7770   49.3281 H   0  0  0  0  0  0  0  0  0  0  0  0
   58.7900   30.7330   49.4060 C   0  0  0  0  0  0  0  0  0  0  0  0
   57.8698   31.2390   49.7334 H   0  0  0  0  0  0  0  0  0  0  0  0
   59.9600   31.4700   49.2160 C   0  0  0  0  0  0  0  0  0  0  0  0
   59.9633   32.5545   49.4002 H   0  0  0  0  0  0  0  0  0  0  0  0
   61.1260   30.8300   48.7920 C   0  0  0  0  0  0  0  0  0  0  0  0
   62.0461   31.4124   48.6362 H   0  0  0  0  0  0  0  0  0  0  0  0
   61.1270   29.4510   48.5650 C   0  0  0  0  0  0  0  0  0  0  0  0
   62.0480   28.9543   48.2257 H   0  0  0  0  0  0  0  0  0  0  0  0
   58.3400   26.9490   46.6960 C   0  0  0  0  0  0  0  0  0  0  0  0
   57.2760   26.1450   46.8990 N   0  0  0  0  0  0  0  0  0  0  0  0
   56.3090   26.6930   46.1400 C   0  0  0  0  0  0  0  0  0  0  0  0
   55.1460   26.2160   46.0650 O   0  0  0  0  0  0  0  0  0  0  0  0
   56.7010   27.7850   45.4610 N   0  0  0  0  0  0  0  0  0  0  0  0
   56.1210   28.3370   44.7910 H   0  0  0  0  0  0  0  0  0  0  0  0
   57.9950   27.9550   45.7960 C   0  0  0  0  0  0  0  0  0  0  0  0
   58.8990   28.9630   45.1970 C   0  0  0  0  0  0  0  0  0  0  0  0
   59.2038   28.8379   44.1475 H   0  0  0  0  0  0  0  0  0  0  0  0
   59.3620   30.0200   45.8760 C   0  0  0  0  0  0  0  0  0  0  0  0
   60.1927   29.8767   46.5827 H   0  0  0  0  0  0  0  0  0  0  0  0
   58.7920   31.3740   45.7060 C   0  0  0  0  0  0  0  0  0  0  0  0
   59.6000   32.4810   46.0060 C   0  0  0  0  0  0  0  0  0  0  0  0
   60.6307   32.3253   46.3574 H   0  0  0  0  0  0  0  0  0  0  0  0
   59.1060   33.7780   45.8620 C   0  0  0  0  0  0  0  0  0  0  0  0
   59.7434   34.6395   46.1100 H   0  0  0  0  0  0  0  0  0  0  0  0
   57.8050   33.9830   45.4040 C   0  0  0  0  0  0  0  0  0  0  0  0
   57.4138   35.0061   45.3025 H   0  0  0  0  0  0  0  0  0  0  0  0
   56.9980   32.8930   45.0740 C   0  0  0  0  0  0  0  0  0  0  0  0
   55.9741   33.0627   44.7097 H   0  0  0  0  0  0  0  0  0  0  0  0
   57.4850   31.5760   45.2040 C   0  0  0  0  0  0  0  0  0  0  0  0
   56.7210   30.4590   44.8200 O   0  0  0  0  0  0  0  0  0  0  0  0
   56.3690   30.1160   43.4820 C   0  0  0  0  0  0  0  0  0  0  0  0
   57.1260   29.0420   43.0500 F   0  0  0  0  0  0  0  0  0  0  0  0
   56.6230   31.1990   42.6610 F   0  0  0  0  0  0  0  0  0  0  0  0
   55.0240   29.8080   43.4050 F   0  0  0  0  0  0  0  0  0  0  0  0
  1  2  1  0
  2  3  2  0
  3  4  1  0
  3  5  1  0
  5  6  2  0
  6  7  1  0
  6  8  1  0
  8  9  1  0
  8 10  2  0
 10 11  1  0
 10 12  1  0
 12 13  1  0
 12 14  2  0
 14 15  1  0
  2 16  1  0
 16 17  1  0
 17 18  1  0
 18 19  2  0
 18 20  1  0
 20 21  1  0
 20 22  1  0
 22 23  1  0
 23 24  1  0
 23 25  2  0
 25 26  1  0
 25 27  1  0
 27 28  2  0
 28 29  1  0
 28 30  1  0
 30 31  1  0
 30 32  2  0
 32 33  1  0
 32 34  1  0
 34 35  1  0
 34 36  2  0
 36 37  1  0
 37 38  1  0
 38 39  1  0
 38 40  1  0
 38 41  1  0
 14  5  1  0
 22 16  2  0
 36 27  1  0
M  CHG  1  17  -1
M  END
>  <UniqueID>  (89) 
83

>  <SMILES>  (89) 
O=c1[n-]c(/C=C/c2ccccc2)c(/C=C/c2ccccc2OC(F)(F)F)[nH]1

>  <Energy>  (89) 
83.65785184088625

>  <Genealogy>  (89) 
O=c1[n-]c(C=Cc2ccccc2)c(C=Cc2ccccc2OC(F)(F)F)[nH]1 (protonated)
O=c1[n-]c(/C=C/c2ccccc2)c(/C=C/c2ccccc2OC(F)(F)F)[nH]1 (cis-trans isomerization)
O=c1[n-]c(/C=C/c2ccccc2)c(/C=C/c2ccccc2OC(F)(F)F)[nH]1 (3D coordinates assigned)
O=c1[n-]c(/C=C/c2ccccc2)c(/C=C/c2ccccc2OC(F)(F)F)[nH]1 (optimized conformer: 83.65785184088625 kcal/mol)

>  <smiles>  (89) 
O=c1[nH]c(C=Cc2ccccc2)c(C=Cc2ccccc2OC(F)(F)F)[nH]1

>  <score_type>  (89) 
oracle

>  <origin>  (89) 
adg

>  <m_score__min__energy>  (89) 
-9.5299999999999994

>  <m_primary>  (89) 
energy

$$$$
89:0
     RDKit          3D

 48 50  0  0  0  0  0  0  0  0999 V2000
   58.9050   30.3550   49.9090 C   0  0  0  0  0  0  0  0  0  0  0  0
   59.4740   30.4570   48.5680 N   0  0  0  0  0  0  0  0  0  0  0  0
   60.4310   29.6720   48.0450 C   0  0  0  0  0  0  0  0  0  0  0  0
   60.7020   30.1210   46.7710 C   0  0  0  0  0  0  0  0  0  0  0  0
   59.9270   31.1900   46.4930 N   0  0  0  0  0  0  0  0  0  0  0  0
   59.2030   31.3800   47.6180 C   0  0  0  0  0  0  0  0  0  0  0  0
   58.1560   32.4520   47.7480 C   0  0  0  0  0  0  0  0  0  0  0  0
   58.4940   33.6230   46.9210 N   0  0  0  0  0  0  0  0  0  0  0  0
   59.3210   34.6860   47.5180 C   0  0  0  0  0  0  0  0  0  0  0  0
   60.7440   34.2160   47.7030 C   0  0  0  0  0  0  0  0  0  0  0  0
   61.5510   33.9600   46.5800 C   0  0  0  0  0  0  0  0  0  0  0  0
   62.8520   33.4720   46.7390 C   0  0  0  0  0  0  0  0  0  0  0  0
   63.3580   33.2350   48.0190 C   0  0  0  0  0  0  0  0  0  0  0  0
   62.5650   33.4870   49.1410 C   0  0  0  0  0  0  0  0  0  0  0  0
   61.2630   33.9750   48.9890 C   0  0  0  0  0  0  0  0  0  0  0  0
   60.5150   34.2130   50.0960 F   0  0  0  0  0  0  0  0  0  0  0  0
   58.0080   33.7560   45.5620 C   0  0  0  0  0  0  0  0  0  0  0  0
   56.8290   34.1560   45.3560 O   0  0  0  0  0  0  0  0  0  0  0  0
   58.8730   33.4850   44.3540 C   0  0  0  0  0  0  0  0  0  0  0  0
   58.0880   32.7370   43.2680 C   0  0  0  0  0  0  0  0  0  0  0  0
   58.2530   31.2870   43.3940 N   0  0  0  0  0  0  0  0  0  0  0  0
   57.4630   30.4480   44.0050 C   0  0  0  0  0  0  0  0  0  0  0  0
   57.9380   29.4560   44.8870 C   0  0  0  0  0  0  0  0  0  0  0  0
   57.0320   28.5830   45.4930 C   0  0  0  0  0  0  0  0  0  0  0  0
   55.7020   28.6930   45.2380 N   0  0  0  0  0  0  0  0  0  0  0  0
   55.2160   29.6420   44.3970 C   0  0  0  0  0  0  0  0  0  0  0  0
   56.0870   30.5350   43.7690 C   0  0  0  0  0  0  0  0  0  0  0  0
   59.6996   30.4974   50.6563 H   0  0  0  0  0  0  0  0  0  0  0  0
   58.1349   31.1294   50.0404 H   0  0  0  0  0  0  0  0  0  0  0  0
   58.4519   29.3613   50.0404 H   0  0  0  0  0  0  0  0  0  0  0  0
   60.9136   28.8200   48.5463 H   0  0  0  0  0  0  0  0  0  0  0  0
   61.4379   29.6759   46.0851 H   0  0  0  0  0  0  0  0  0  0  0  0
   57.1860   32.0489   47.4215 H   0  0  0  0  0  0  0  0  0  0  0  0
   58.1073   32.7685   48.8004 H   0  0  0  0  0  0  0  0  0  0  0  0
   59.3141   35.5638   46.8551 H   0  0  0  0  0  0  0  0  0  0  0  0
   58.9044   34.9470   48.5021 H   0  0  0  0  0  0  0  0  0  0  0  0
   61.1564   34.1448   45.5700 H   0  0  0  0  0  0  0  0  0  0  0  0
   63.4770   33.2748   45.8555 H   0  0  0  0  0  0  0  0  0  0  0  0
   64.3809   32.8500   48.1436 H   0  0  0  0  0  0  0  0  0  0  0  0
   62.9661   33.3009   50.1482 H   0  0  0  0  0  0  0  0  0  0  0  0
   59.2288   34.4422   43.9450 H   0  0  0  0  0  0  0  0  0  0  0  0
   59.7214   32.8581   44.6658 H   0  0  0  0  0  0  0  0  0  0  0  0
   57.0206   32.9855   43.3623 H   0  0  0  0  0  0  0  0  0  0  0  0
   58.4747   33.0459   42.2857 H   0  0  0  0  0  0  0  0  0  0  0  0
   59.0145   29.3703   45.0963 H   0  0  0  0  0  0  0  0  0  0  0  0
   57.3962   27.8039   46.1789 H   0  0  0  0  0  0  0  0  0  0  0  0
   54.1340   29.7075   44.2100 H   0  0  0  0  0  0  0  0  0  0  0  0
   55.6918   31.3051   43.0902 H   0  0  0  0  0  0  0  0  0  0  0  0
  1  2  1  0
  2  3  1  0
  3  4  2  0
  4  5  1  0
  5  6  2  0
  6  7  1  0
  7  8  1  0
  8  9  1  0
  9 10  1  0
 10 11  2  0
 11 12  1  0
 12 13  2  0
 13 14  1  0
 14 15  2  0
 15 16  1  0
  8 17  1  0
 17 18  2  0
 17 19  1  0
 19 20  1  0
 20 21  1  0
 21 22  2  3
 22 23  1  0
 23 24  2  0
 24 25  1  0
 25 26  1  0
 26 27  2  0
  6  2  1  0
 15 10  1  0
 27 22  1  0
  1 28  1  0
  1 29  1  0
  1 30  1  0
  3 31  1  0
  4 32  1  0
  7 33  1  0
  7 34  1  0
  9 35  1  0
  9 36  1  0
 11 37  1  0
 12 38  1  0
 13 39  1  0
 14 40  1  0
 19 41  1  0
 19 42  1  0
 20 43  1  0
 20 44  1  0
 23 45  1  0
 24 46  1  0
 26 47  1  0
 27 48  1  0
M  CHG  1  25  -1
M  END
>  <UniqueID>  (90) 
84

>  <SMILES>  (90) 
Cn1ccnc1CN(Cc1ccccc1F)C(=O)CCN=c1cc[n-]cc1

>  <Energy>  (90) 
75.58503047570709

>  <Genealogy>  (90) 
Cn1ccnc1CN(Cc1ccccc1F)C(=O)CCN=c1cc[n-]cc1 (protonated)
Cn1ccnc1CN(Cc1ccccc1F)C(=O)CCN=c1cc[n-]cc1 (3D coordinates assigned)
Cn1ccnc1CN(Cc1ccccc1F)C(=O)CCN=c1cc[n-]cc1 (optimized conformer: 75.58503047570709 kcal/mol)

>  <smiles>  (90) 
Cn1ccnc1CN(Cc1ccccc1F)C(=O)CCN=c1cc[nH]cc1

>  <score_type>  (90) 
oracle

>  <origin>  (90) 
adg

>  <m_score__min__energy>  (90) 
-9.0199999999999996

>  <m_primary>  (90) 
energy

$$$$
90:0
     RDKit          3D

 77 80  0  0  0  0  0  0  0  0999 V2000
   56.3086   20.7445   42.6779 H   0  0  0  0  0  0  0  0  0  0  0  0
   56.6260   21.7000   43.1210 C   0  0  0  0  0  0  0  0  0  0  0  0
   57.7350   21.7440   43.9620 C   0  0  0  0  0  0  0  0  0  0  0  0
   58.2939   20.8227   44.1831 H   0  0  0  0  0  0  0  0  0  0  0  0
   58.1390   22.9590   44.5260 C   0  0  0  0  0  0  0  0  0  0  0  0
   59.0200   22.9815   45.1843 H   0  0  0  0  0  0  0  0  0  0  0  0
   57.4360   24.1600   44.2660 C   0  0  0  0  0  0  0  0  0  0  0  0
   57.9360   25.4850   44.8980 C   0  0  1  0  0  0  0  0  0  0  0  0
   59.2640   25.2860   45.6860 C   0  0  0  0  0  0  0  0  0  0  0  0
   59.0577   25.3169   46.7660 H   0  0  0  0  0  0  0  0  0  0  0  0
   59.7032   24.3120   45.4243 H   0  0  0  0  0  0  0  0  0  0  0  0
   59.9694   26.0885   45.4243 H   0  0  0  0  0  0  0  0  0  0  0  0
   58.2230   26.5240   43.7510 C   0  0  0  0  0  0  0  0  0  0  0  0
   57.7291   26.1733   42.8328 H   0  0  0  0  0  0  0  0  0  0  0  0
   59.3155   26.5884   43.6405 H   0  0  0  0  0  0  0  0  0  0  0  0
   57.7180   27.9410   44.0630 C   0  0  0  0  0  0  0  0  0  0  0  0
   56.6349   27.9902   43.8772 H   0  0  0  0  0  0  0  0  0  0  0  0
   58.2422   28.6601   43.4164 H   0  0  0  0  0  0  0  0  0  0  0  0
   57.9860   28.2760   45.4720 N   0  0  0  0  0  0  0  0  0  0  0  0
   57.9460   29.7420   45.7280 C   0  0  2  0  0  0  0  0  0  0  0  0
   57.1902   29.8812   46.5150 H   0  0  0  0  0  0  0  0  0  0  0  0
   57.4920   30.5280   44.4830 C   0  0  0  0  0  0  0  0  0  0  0  0
   56.5358   30.1153   44.1289 H   0  0  0  0  0  0  0  0  0  0  0  0
   58.2700   30.4315   43.7114 H   0  0  0  0  0  0  0  0  0  0  0  0
   57.3050   32.0300   44.7980 C   0  0  0  0  0  0  0  0  0  0  0  0
   56.2502   32.2031   45.0578 H   0  0  0  0  0  0  0  0  0  0  0  0
   57.6097   32.5903   43.9017 H   0  0  0  0  0  0  0  0  0  0  0  0
   58.1520   32.5070   45.9230 N   0  0  2  0  0  0  0  0  0  0  0  0
   57.6380   32.3210   46.8180 H   0  0  0  0  0  0  0  0  0  0  0  0
   58.3550   33.9330   45.8280 C   0  0  0  0  0  0  0  0  0  0  0  0
   57.8700   34.5800   44.8570 O   0  0  0  0  0  0  0  0  0  0  0  0
   59.1780   34.6020   46.7970 N   0  0  0  0  0  0  0  0  0  0  0  0
   59.6790   34.0890   47.8870 C   0  0  0  0  0  0  0  0  0  0  0  0
   58.8440   33.4410   48.7380 N   0  0  0  0  0  0  0  0  0  0  0  0
   59.2580   32.8980   49.9140 C   0  0  0  0  0  0  0  0  0  0  0  0
   58.2390   32.1960   50.7660 C   0  0  0  0  0  0  0  0  0  0  0  0
   58.4746   32.3583   51.8281 H   0  0  0  0  0  0  0  0  0  0  0  0
   57.2386   32.5975   50.5468 H   0  0  0  0  0  0  0  0  0  0  0  0
   58.2577   31.1182   50.5468 H   0  0  0  0  0  0  0  0  0  0  0  0
   60.6080   33.0370   50.3170 C   0  0  0  0  0  0  0  0  0  0  0  0
   61.0670   32.5050   51.6600 C   0  0  0  0  0  0  0  0  0  0  0  0
   60.5778   33.0721   52.4657 H   0  0  0  0  0  0  0  0  0  0  0  0
   60.7982   31.4417   51.7445 H   0  0  0  0  0  0  0  0  0  0  0  0
   62.1582   32.6151   51.7445 H   0  0  0  0  0  0  0  0  0  0  0  0
   61.5050   33.6860   49.4360 C   0  0  0  0  0  0  0  0  0  0  0  0
   62.9320   33.8790   49.7670 C   0  0  0  0  0  0  0  0  0  0  0  0
   63.2490   34.8530   50.5040 O   0  0  0  0  0  0  0  0  0  0  0  0
   63.9540   32.9980   49.2560 N   0  0  0  0  0  0  0  0  0  0  0  0
   65.3270   33.1380   49.7580 C   0  0  0  0  0  0  0  0  0  0  0  0
   65.3171   33.1370   50.8580 H   0  0  0  0  0  0  0  0  0  0  0  0
   65.9373   32.2974   49.3960 H   0  0  0  0  0  0  0  0  0  0  0  0
   65.7550   34.0844   49.3960 H   0  0  0  0  0  0  0  0  0  0  0  0
   63.6470   32.0310   48.1930 C   0  0  0  0  0  0  0  0  0  0  0  0
   63.3434   31.0747   48.6438 H   0  0  0  0  0  0  0  0  0  0  0  0
   62.8279   32.4190   47.5697 H   0  0  0  0  0  0  0  0  0  0  0  0
   64.5399   31.8755   47.5697 H   0  0  0  0  0  0  0  0  0  0  0  0
   61.0350   34.2190   48.2310 C   0  0  0  0  0  0  0  0  0  0  0  0
   61.7270   34.7398   47.5529 H   0  0  0  0  0  0  0  0  0  0  0  0
   59.4540   31.8130   45.9870 C   0  0  0  0  0  0  0  0  0  0  0  0
   60.0677   32.2739   46.7750 H   0  0  0  0  0  0  0  0  0  0  0  0
   59.9461   31.9055   45.0075 H   0  0  0  0  0  0  0  0  0  0  0  0
   59.2730   30.3120   46.3030 C   0  0  0  0  0  0  0  0  0  0  0  0
   59.2713   30.1784   47.3949 H   0  0  0  0  0  0  0  0  0  0  0  0
   60.1044   29.7671   45.8320 H   0  0  0  0  0  0  0  0  0  0  0  0
   57.2050   27.4490   46.4270 C   0  0  0  0  0  0  0  0  0  0  0  0
   56.2787   27.9863   46.6785 H   0  0  0  0  0  0  0  0  0  0  0  0
   57.8391   27.2830   47.3104 H   0  0  0  0  0  0  0  0  0  0  0  0
   56.8280   26.0540   45.8610 C   0  0  2  0  0  0  0  0  0  0  0  0
   55.9387   26.1590   45.2222 H   0  0  0  0  0  0  0  0  0  0  0  0
   56.4320   25.1010   47.0040 C   0  0  0  0  0  0  0  0  0  0  0  0
   56.6331   25.5849   47.9712 H   0  0  0  0  0  0  0  0  0  0  0  0
   55.3606   24.8633   46.9287 H   0  0  0  0  0  0  0  0  0  0  0  0
   57.0194   24.1740   46.9287 H   0  0  0  0  0  0  0  0  0  0  0  0
   56.3170   24.0890   43.4000 C   0  0  0  0  0  0  0  0  0  0  0  0
   55.7544   25.0042   43.1638 H   0  0  0  0  0  0  0  0  0  0  0  0
   55.9180   22.8690   42.8410 C   0  0  0  0  0  0  0  0  0  0  0  0
   55.0415   22.8320   42.1774 H   0  0  0  0  0  0  0  0  0  0  0  0
  1  2  1  0
  2  3  2  0
  3  4  1  0
  3  5  1  0
  5  6  1  0
  5  7  2  0
  7  8  1  0
  8  9  1  1
  9 10  1  0
  9 11  1  0
  9 12  1  0
  8 13  1  0
 13 14  1  0
 13 15  1  0
 13 16  1  0
 16 17  1  0
 16 18  1  0
 16 19  1  0
 19 20  1  0
 20 21  1  1
 20 22  1  0
 22 23  1  0
 22 24  1  0
 22 25  1  0
 25 26  1  0
 25 27  1  0
 25 28  1  0
 28 29  1  1
 28 30  1  0
 30 31  2  0
 30 32  1  0
 32 33  2  0
 33 34  1  0
 34 35  1  0
 35 36  1  0
 36 37  1  0
 36 38  1  0
 36 39  1  0
 35 40  2  0
 40 41  1  0
 41 42  1  0
 41 43  1  0
 41 44  1  0
 40 45  1  0
 45 46  1  0
 46 47  2  0
 46 48  1  0
 48 49  1  0
 49 50  1  0
 49 51  1  0
 49 52  1  0
 48 53  1  0
 53 54  1  0
 53 55  1  0
 53 56  1  0
 45 57  2  0
 57 58  1  0
 28 59  1  0
 59 60  1  0
 59 61  1  0
 59 62  1  0
 62 63  1  0
 62 64  1  0
 19 65  1  0
 65 66  1  0
 65 67  1  0
 65 68  1  0
 68 69  1  6
 68 70  1  0
 70 71  1  0
 70 72  1  0
 70 73  1  0
  7 74  1  0
 74 75  1  0
 74 76  2  0
 76 77  1  0
 76  2  1  0
 68  8  1  0
 62 20  1  0
 57 33  1  0
M  CHG  2  28   1  34  -1
M  END
>  <UniqueID>  (91) 
85

>  <SMILES>  (91) 
Cc1[n-]/c(=N/C(=O)[NH+]2CCC(N3CC[C@](C)(c4ccccc4)[C@@H](C)C3)CC2)cc(C(=O)N(C)C)c1C

>  <Energy>  (91) 
121.2800741937564

>  <Genealogy>  (91) 
Cc1[n-]c(=NC(=O)[NH+]2CCC(N3CCC(C)(c4ccccc4)C(C)C3)CC2)cc(C(=O)N(C)C)c1C (protonated)
Cc1[n-]c(=NC(=O)[NH+]2CCC(N3CC[C@](C)(c4ccccc4)[C@@H](C)C3)CC2)cc(C(=O)N(C)C)c1C (chirality)
Cc1[n-]/c(=N/C(=O)[NH+]2CCC(N3CC[C@](C)(c4ccccc4)[C@@H](C)C3)CC2)cc(C(=O)N(C)C)c1C (cis-trans isomerization)
Cc1[n-]/c(=N/C(=O)[NH+]2CCC(N3CC[C@](C)(c4ccccc4)[C@@H](C)C3)CC2)cc(C(=O)N(C)C)c1C (3D coordinates assigned)
Cc1[n-]/c(=N/C(=O)[NH+]2CCC(N3CC[C@](C)(c4ccccc4)[C@@H](C)C3)CC2)cc(C(=O)N(C)C)c1C (nonaromatic ring conformer: 121.2800741937564 kcal/mol)

>  <smiles>  (91) 
Cc1[nH]c(=NC(=O)N2CCC(N3CCC(C)(c4ccccc4)C(C)C3)CC2)cc(C(=O)N(C)C)c1C

>  <score_type>  (91) 
oracle

>  <origin>  (91) 
adg

>  <m_score__min__energy>  (91) 
-9.5800000000000001

>  <m_primary>  (91) 
energy

$$$$
