0:0
     RDKit          3D

 56 58  0  0  0  0  0  0  0  0999 V2000
   62.4630   31.6720   47.5500 C   0  0  0  0  0  0  0  0  0  0  0  0
   62.1960   33.4230   47.3970 S   0  0  0  0  0  0  0  0  0  0  0  0
   62.6500   33.8700   46.0360 O   0  0  0  0  0  0  0  0  0  0  0  0
   62.9820   34.1360   48.4600 O   0  0  0  0  0  0  0  0  0  0  0  0
   60.5050   33.7500   47.5880 N   0  0  0  0  0  0  0  0  0  0  0  0
   59.4740   33.3170   46.6910 C   0  0  0  0  0  0  0  0  0  0  0  0
   58.4160   34.1920   46.4160 C   0  0  0  0  0  0  0  0  0  0  0  0
   57.3860   33.8090   45.5570 C   0  0  0  0  0  0  0  0  0  0  0  0
   57.4020   32.5450   44.9640 C   0  0  0  0  0  0  0  0  0  0  0  0
   58.4560   31.6520   45.2260 C   0  0  0  0  0  0  0  0  0  0  0  0
   58.4380   30.2770   44.6570 C   0  0  0  0  0  0  0  0  0  0  0  0
   59.6750   29.4430   44.6450 C   0  0  0  0  0  0  0  0  0  0  0  0
   60.0490   28.5470   45.5740 C   0  0  0  0  0  0  0  0  0  0  0  0
   59.2240   27.4240   46.0550 C   0  0  0  0  0  0  0  0  0  0  0  0
   59.6950   26.1040   45.9950 C   0  0  0  0  0  0  0  0  0  0  0  0
   58.8670   25.0460   46.3800 C   0  0  0  0  0  0  0  0  0  0  0  0
   57.5710   25.2940   46.8640 C   0  0  0  0  0  0  0  0  0  0  0  0
   56.6660   24.1730   47.1930 C   0  0  0  0  0  0  0  0  0  0  0  0
   57.1110   23.1460   47.7740 O   0  0  0  0  0  0  0  0  0  0  0  0
   55.2710   24.2700   46.8860 N   0  0  0  0  0  0  0  0  0  0  0  0
   54.7510   24.2410   45.5260 C   0  0  0  0  0  0  0  0  0  0  0  0
   55.4980   23.2060   44.7280 C   0  0  0  0  0  0  0  0  0  0  0  0
   55.9450   23.5240   43.4330 C   0  0  0  0  0  0  0  0  0  0  0  0
   56.6330   22.5810   42.6680 C   0  0  0  0  0  0  0  0  0  0  0  0
   56.8800   21.3080   43.1820 C   0  0  0  0  0  0  0  0  0  0  0  0
   56.4350   20.9730   44.4630 C   0  0  0  0  0  0  0  0  0  0  0  0
   55.7410   21.9070   45.2410 C   0  0  0  0  0  0  0  0  0  0  0  0
   55.3060   21.5150   46.5100 O   0  0  0  0  0  0  0  0  0  0  0  0
   57.1360   26.6250   46.9960 C   0  0  0  0  0  0  0  0  0  0  0  0
   57.9610   27.6820   46.6030 C   0  0  0  0  0  0  0  0  0  0  0  0
   57.3420   29.7660   44.0540 C   0  0  0  0  0  0  0  0  0  0  0  0
   55.9740   29.7330   44.6110 C   0  0  0  0  0  0  0  0  0  0  0  0
   55.1810   30.7040   44.4840 O   0  0  0  0  0  0  0  0  0  0  0  0
   55.5260   28.5710   45.2310 O   0  0  0  0  0  0  0  0  0  0  0  0
   59.4910   32.0450   46.0900 C   0  0  0  0  0  0  0  0  0  0  0  0
   62.5046   31.3991   48.6148 H   0  0  0  0  0  0  0  0  0  0  0  0
   61.6369   31.1314   47.0649 H   0  0  0  0  0  0  0  0  0  0  0  0
   63.4127   31.4021   47.0649 H   0  0  0  0  0  0  0  0  0  0  0  0
   58.3970   35.1888   46.8808 H   0  0  0  0  0  0  0  0  0  0  0  0
   56.5597   34.5039   45.3464 H   0  0  0  0  0  0  0  0  0  0  0  0
   56.5864   32.2465   44.2889 H   0  0  0  0  0  0  0  0  0  0  0  0
   60.3507   29.5752   43.7871 H   0  0  0  0  0  0  0  0  0  0  0  0
   61.0521   28.6607   46.0110 H   0  0  0  0  0  0  0  0  0  0  0  0
   60.7177   25.9013   45.6443 H   0  0  0  0  0  0  0  0  0  0  0  0
   59.2324   24.0113   46.3036 H   0  0  0  0  0  0  0  0  0  0  0  0
   53.6811   23.9863   45.5474 H   0  0  0  0  0  0  0  0  0  0  0  0
   54.8822   25.2292   45.0609 H   0  0  0  0  0  0  0  0  0  0  0  0
   55.7507   24.5246   43.0195 H   0  0  0  0  0  0  0  0  0  0  0  0
   56.9812   22.8421   41.6578 H   0  0  0  0  0  0  0  0  0  0  0  0
   57.4254   20.5677   42.5783 H   0  0  0  0  0  0  0  0  0  0  0  0
   56.6315   19.9675   44.8634 H   0  0  0  0  0  0  0  0  0  0  0  0
   55.2640   22.1440   47.3010 H   0  0  0  0  0  0  0  0  0  0  0  0
   56.1394   26.8353   47.4115 H   0  0  0  0  0  0  0  0  0  0  0  0
   57.6176   28.7200   46.7243 H   0  0  0  0  0  0  0  0  0  0  0  0
   57.4817   29.3331   43.0525 H   0  0  0  0  0  0  0  0  0  0  0  0
   60.3207   31.3535   46.2983 H   0  0  0  0  0  0  0  0  0  0  0  0
  1  2  1  0
  2  3  2  0
  2  4  2  0
  2  5  1  0
  5  6  1  0
  6  7  2  0
  7  8  1  0
  8  9  2  0
  9 10  1  0
 10 11  1  0
 11 12  1  0
 12 13  2  3
 13 14  1  0
 14 15  2  0
 15 16  1  0
 16 17  2  0
 17 18  1  0
 18 19  2  0
 18 20  1  0
 20 21  1  0
 21 22  1  0
 22 23  2  0
 23 24  1  0
 24 25  2  0
 25 26  1  0
 26 27  2  0
 27 28  1  0
 17 29  1  0
 29 30  2  0
 11 31  2  3
 31 32  1  0
 32 33  2  0
 32 34  1  0
 10 35  2  0
 35  6  1  0
 30 14  1  0
 27 22  1  0
  1 36  1  0
  1 37  1  0
  1 38  1  0
  7 39  1  0
  8 40  1  0
  9 41  1  0
 12 42  1  0
 13 43  1  0
 15 44  1  0
 16 45  1  0
 21 46  1  0
 21 47  1  0
 23 48  1  0
 24 49  1  0
 25 50  1  0
 26 51  1  0
 28 52  1  0
 29 53  1  0
 30 54  1  0
 31 55  1  0
 35 56  1  0
M  CHG  3   5  -1  20  -1  34  -1
M  END
>  <UniqueID>  (1) 
1

>  <SMILES>  (1) 
CS(=O)(=O)[N-]c1cccc(C(C=Cc2ccc(C(=O)[N-]Cc3ccccc3O)cc2)=CC(=O)[O-])c1

>  <Energy>  (1) 
70.72716338962681

>  <Genealogy>  (1) 
CS(=O)(=O)[N-]c1cccc(C(C=Cc2ccc(C(=O)[N-]Cc3ccccc3O)cc2)=CC(=O)[O-])c1 (protonated)
CS(=O)(=O)[N-]c1cccc(C(C=Cc2ccc(C(=O)[N-]Cc3ccccc3O)cc2)=CC(=O)[O-])c1 (3D coordinates assigned)
CS(=O)(=O)[N-]c1cccc(C(C=Cc2ccc(C(=O)[N-]Cc3ccccc3O)cc2)=CC(=O)[O-])c1 (optimized conformer: 70.72716338962681 kcal/mol)

>  <smiles>  (1) 
CS(=O)(=O)Nc1cccc(C(C=Cc2ccc(C(=O)NCc3ccccc3O)cc2)=CC(=O)O)c1

>  <score_type>  (1) 
oracle

>  <origin>  (1) 
adg

>  <m_score__min__energy>  (1) 
-14.369999999999999

>  <m_primary>  (1) 
energy

$$$$
1:0
     RDKit          3D

 39 40  0  0  0  0  0  0  0  0999 V2000
   57.9530   25.4020   46.6160 C   0  0  0  0  0  0  0  0  0  0  0  0
   58.2870   26.6930   45.9850 N   0  0  0  0  0  0  0  0  0  0  0  0
   57.2830   27.5750   45.6600 C   0  0  0  0  0  0  0  0  0  0  0  0
   55.9060   27.2400   45.9230 N   0  0  0  0  0  0  0  0  0  0  0  0
   57.6030   28.8190   45.0760 C   0  0  0  0  0  0  0  0  0  0  0  0
   56.5460   29.7810   44.6620 C   0  0  0  0  0  0  0  0  0  0  0  0
   55.3410   29.5040   44.9040 O   0  0  0  0  0  0  0  0  0  0  0  0
   56.8970   31.0230   43.8620 C   0  0  0  0  0  0  0  0  0  0  0  0
   57.6570   32.0630   44.6040 N   0  0  0  0  0  0  0  0  0  0  0  0
   58.3980   32.9830   43.7090 C   0  0  0  0  0  0  0  0  0  0  0  0
   58.8890   34.2330   44.4690 C   0  0  0  0  0  0  0  0  0  0  0  0
   59.0050   33.9610   45.8520 O   0  0  0  0  0  0  0  0  0  0  0  0
   57.7210   33.7560   46.4200 C   0  0  0  0  0  0  0  0  0  0  0  0
   56.8340   32.8080   45.5780 C   0  0  0  0  0  0  0  0  0  0  0  0
   58.9540   29.1100   44.8270 C   0  0  0  0  0  0  0  0  0  0  0  0
   59.2630   30.1870   44.2430 O   0  0  0  0  0  0  0  0  0  0  0  0
   59.9330   28.2220   45.1810 N   0  0  0  0  0  0  0  0  0  0  0  0
   61.3450   28.5350   44.8950 C   0  0  0  0  0  0  0  0  0  0  0  0
   59.5980   27.0090   45.7220 C   0  0  0  0  0  0  0  0  0  0  0  0
   60.5100   26.1700   45.9740 O   0  0  0  0  0  0  0  0  0  0  0  0
   57.9811   25.5106   47.7103 H   0  0  0  0  0  0  0  0  0  0  0  0
   56.9449   25.0914   46.3041 H   0  0  0  0  0  0  0  0  0  0  0  0
   58.6840   24.6414   46.3041 H   0  0  0  0  0  0  0  0  0  0  0  0
   55.1380   27.4870   45.2620 H   0  0  0  0  0  0  0  0  0  0  0  0
   55.6190   26.7320   46.7850 H   0  0  0  0  0  0  0  0  0  0  0  0
   57.5025   30.7110   42.9983 H   0  0  0  0  0  0  0  0  0  0  0  0
   55.9389   31.4866   43.5842 H   0  0  0  0  0  0  0  0  0  0  0  0
   58.3790   31.5400   45.1580 H   0  0  0  0  0  0  0  0  0  0  0  0
   59.2671   32.4535   43.2915 H   0  0  0  0  0  0  0  0  0  0  0  0
   57.7183   33.3093   42.9080 H   0  0  0  0  0  0  0  0  0  0  0  0
   59.8717   34.5324   44.0758 H   0  0  0  0  0  0  0  0  0  0  0  0
   58.1593   35.0438   44.3270 H   0  0  0  0  0  0  0  0  0  0  0  0
   57.8462   33.3212   47.4226 H   0  0  0  0  0  0  0  0  0  0  0  0
   57.2169   34.7330   46.4573 H   0  0  0  0  0  0  0  0  0  0  0  0
   56.3292   32.0950   46.2464 H   0  0  0  0  0  0  0  0  0  0  0  0
   56.0896   33.4065   45.0324 H   0  0  0  0  0  0  0  0  0  0  0  0
   61.8926   28.6564   45.8413 H   0  0  0  0  0  0  0  0  0  0  0  0
   61.7923   27.7142   44.3152 H   0  0  0  0  0  0  0  0  0  0  0  0
   61.4036   29.4679   44.3152 H   0  0  0  0  0  0  0  0  0  0  0  0
  1  2  1  0
  2  3  1  0
  3  4  1  0
  3  5  2  0
  5  6  1  0
  6  7  2  0
  6  8  1  0
  8  9  1  0
  9 10  1  0
 10 11  1  0
 11 12  1  0
 12 13  1  0
 13 14  1  0
  5 15  1  0
 15 16  2  0
 15 17  1  0
 17 18  1  0
 17 19  1  0
 19 20  2  0
 19  2  1  0
 14  9  1  0
  1 21  1  0
  1 22  1  0
  1 23  1  0
  4 24  1  0
  4 25  1  0
  8 26  1  0
  8 27  1  0
  9 28  1  0
 10 29  1  0
 10 30  1  0
 11 31  1  0
 11 32  1  0
 13 33  1  0
 13 34  1  0
 14 35  1  0
 14 36  1  0
 18 37  1  0
 18 38  1  0
 18 39  1  0
M  CHG  1   9   1
M  END
>  <UniqueID>  (2) 
2

>  <SMILES>  (2) 
Cn1c(N)c(C(=O)C[NH+]2CCOCC2)c(=O)n(C)c1=O

>  <Energy>  (2) 
69.49174663742136

>  <Genealogy>  (2) 
Cn1c(N)c(C(=O)C[NH+]2CCOCC2)c(=O)n(C)c1=O (protonated)
Cn1c(N)c(C(=O)C[NH+]2CCOCC2)c(=O)n(C)c1=O (3D coordinates assigned)
Cn1c(N)c(C(=O)C[NH+]2CCOCC2)c(=O)n(C)c1=O (nonaromatic ring conformer: 69.49174663742136 kcal/mol)

>  <smiles>  (2) 
Cn1c(N)c(C(=O)CN2CCOCC2)c(=O)n(C)c1=O

>  <score_type>  (2) 
oracle

>  <origin>  (2) 
adg

>  <m_score__min__energy>  (2) 
-4.5700000000000003

>  <m_primary>  (2) 
energy

$$$$
2:0
     RDKit          3D

 32 34  0  0  0  0  0  0  0  0999 V2000
   59.3631   35.8499   46.3667 H   0  0  0  0  0  0  0  0  0  0  0  0
   58.9490   34.8570   46.1370 C   0  0  0  0  0  0  0  0  0  0  0  0
   58.4110   34.6000   44.8720 C   0  0  0  0  0  0  0  0  0  0  0  0
   58.4090   35.3881   44.1046 H   0  0  0  0  0  0  0  0  0  0  0  0
   57.8760   33.3420   44.5830 C   0  0  0  0  0  0  0  0  0  0  0  0
   57.4705   33.1360   43.5814 H   0  0  0  0  0  0  0  0  0  0  0  0
   57.8540   32.3380   45.5680 C   0  0  0  0  0  0  0  0  0  0  0  0
   57.3620   31.0200   45.2740 N   0  0  0  0  0  0  0  0  0  0  0  0
   57.9990   29.8890   45.3960 C   0  0  0  0  0  0  0  0  0  0  0  0
   57.2770   28.7690   45.7030 N   0  0  0  0  0  0  0  0  0  0  0  0
   57.9230   27.5870   45.8410 C   0  0  0  0  0  0  0  0  0  0  0  0
   57.4320   26.3200   46.0700 C   0  0  0  0  0  0  0  0  0  0  0  0
   56.0340   25.8950   46.2610 C   0  0  0  0  0  0  0  0  0  0  0  0
   55.1110   26.7100   46.0000 O   0  0  0  0  0  0  0  0  0  0  0  0
   55.6830   24.5700   46.6820 N   0  0  0  0  0  0  0  0  0  0  0  0
   56.3560   23.8210   47.7330 C   0  0  0  0  0  0  0  0  0  0  0  0
   56.0250   24.1893   48.7152 H   0  0  0  0  0  0  0  0  0  0  0  0
   56.1077   22.7535   47.6390 H   0  0  0  0  0  0  0  0  0  0  0  0
   57.4439   23.9541   47.6390 H   0  0  0  0  0  0  0  0  0  0  0  0
   58.5410   25.4800   45.9500 C   0  0  0  0  0  0  0  0  0  0  0  0
   58.5098   24.3853   46.0533 H   0  0  0  0  0  0  0  0  0  0  0  0
   59.6610   26.1970   45.6890 N   0  0  0  0  0  0  0  0  0  0  0  0
   60.6250   25.8260   45.5300 H   0  0  0  0  0  0  0  0  0  0  0  0
   59.2590   27.4760   45.6240 C   0  0  0  0  0  0  0  0  0  0  0  0
   60.0140   28.5490   45.2890 N   0  0  0  0  0  0  0  0  0  0  0  0
   61.0360   28.4460   45.0970 H   0  0  0  0  0  0  0  0  0  0  0  0
   59.4050   29.7690   45.1750 C   0  0  0  0  0  0  0  0  0  0  0  0
   59.9983   30.6575   44.9131 H   0  0  0  0  0  0  0  0  0  0  0  0
   58.4270   32.5930   46.8220 C   0  0  0  0  0  0  0  0  0  0  0  0
   58.4550   31.6210   47.7690 F   0  0  0  0  0  0  0  0  0  0  0  0
   58.9610   33.8540   47.1090 C   0  0  0  0  0  0  0  0  0  0  0  0
   59.3908   34.0557   48.1013 H   0  0  0  0  0  0  0  0  0  0  0  0
  1  2  1  0
  2  3  2  0
  3  4  1  0
  3  5  1  0
  5  6  1  0
  5  7  2  0
  7  8  1  0
  8  9  2  0
  9 10  1  0
 10 11  1  0
 11 12  1  0
 12 13  1  0
 13 14  2  0
 13 15  1  0
 15 16  1  0
 16 17  1  0
 16 18  1  0
 16 19  1  0
 12 20  2  0
 20 21  1  0
 20 22  1  0
 22 23  1  0
 22 24  1  0
 24 25  1  0
 25 26  1  0
 25 27  2  0
 27 28  1  0
  7 29  1  0
 29 30  1  0
 29 31  2  0
 31 32  1  0
 31  2  1  0
 27  9  1  0
 24 11  2  0
M  CHG  3  10  -1  15  -1  25   1
M  END
>  <UniqueID>  (3) 
3

>  <SMILES>  (3) 
C[N-]C(=O)c1c[nH]c2[nH+]c/c(=N\c3ccccc3F)[n-]c12

>  <Energy>  (3) 
84.56434944609857

>  <Genealogy>  (3) 
C[N-]C(=O)c1c[nH]c2[nH+]cc(=Nc3ccccc3F)[n-]c12 (protonated)
C[N-]C(=O)c1c[nH]c2[nH+]c/c(=N\c3ccccc3F)[n-]c12 (cis-trans isomerization)
C[N-]C(=O)c1c[nH]c2[nH+]c/c(=N\c3ccccc3F)[n-]c12 (3D coordinates assigned)
C[N-]C(=O)c1c[nH]c2[nH+]c/c(=N\c3ccccc3F)[n-]c12 (optimized conformer: 84.56434944609857 kcal/mol)

>  <smiles>  (3) 
CNC(=O)c1c[nH]c2ncc(=Nc3ccccc3F)[nH]c12

>  <score_type>  (3) 
oracle

>  <origin>  (3) 
adg

>  <m_score__min__energy>  (3) 
-9.0299999999999994

>  <m_primary>  (3) 
energy

$$$$
3:0
     RDKit          3D

 42 45  0  0  0  0  0  0  0  0999 V2000
   59.1350   23.9650   45.6650 C   0  0  0  0  0  0  0  0  0  0  0  0
   57.8200   24.5420   46.0930 C   0  0  0  0  0  0  0  0  0  0  0  0
   56.9620   24.0340   47.0560 C   0  0  0  0  0  0  0  0  0  0  0  0
   57.1860   22.8970   47.8280 O   0  0  0  0  0  0  0  0  0  0  0  0
   55.8410   24.7730   47.1650 N   0  0  0  0  0  0  0  0  0  0  0  0
   55.9830   25.7530   46.2520 C   0  0  0  0  0  0  0  0  0  0  0  0
   55.0060   26.7150   46.0210 O   0  0  0  0  0  0  0  0  0  0  0  0
   57.1820   25.6540   45.5670 C   0  0  0  0  0  0  0  0  0  0  0  0
   57.6380   26.5050   44.4500 C   0  0  0  0  0  0  0  0  0  0  0  0
   57.7840   25.9940   43.3080 O   0  0  0  0  0  0  0  0  0  0  0  0
   57.8860   27.9480   44.6200 C   0  0  0  0  0  0  0  0  0  0  0  0
   57.2310   28.9690   43.9400 C   0  0  0  0  0  0  0  0  0  0  0  0
   57.7200   30.1750   44.3140 N   0  0  0  0  0  0  0  0  0  0  0  0
   57.3240   31.4660   43.7500 C   0  0  0  0  0  0  0  0  0  0  0  0
   57.8130   32.5880   44.6260 C   0  0  0  0  0  0  0  0  0  0  0  0
   58.8400   33.4340   44.1760 C   0  0  0  0  0  0  0  0  0  0  0  0
   59.3190   34.4610   44.9950 C   0  0  0  0  0  0  0  0  0  0  0  0
   58.7780   34.6500   46.2710 C   0  0  0  0  0  0  0  0  0  0  0  0
   59.2550   35.6690   47.0840 O   0  0  0  0  0  0  0  0  0  0  0  0
   57.7560   33.8100   46.7260 C   0  0  0  0  0  0  0  0  0  0  0  0
   57.2750   32.7820   45.9100 C   0  0  0  0  0  0  0  0  0  0  0  0
   58.7030   29.9270   45.2050 C   0  0  0  0  0  0  0  0  0  0  0  0
   59.5410   30.8500   45.8390 C   0  0  0  0  0  0  0  0  0  0  0  0
   60.5390   30.3550   46.6980 C   0  0  0  0  0  0  0  0  0  0  0  0
   61.6170   31.4720   47.5150 Cl  0  0  0  0  0  0  0  0  0  0  0  0
   60.6890   28.9650   46.8930 C   0  0  0  0  0  0  0  0  0  0  0  0
   59.8360   28.0580   46.2410 C   0  0  0  0  0  0  0  0  0  0  0  0
   58.8360   28.5750   45.4140 C   0  0  0  0  0  0  0  0  0  0  0  0
   59.7280   23.7048   46.5542 H   0  0  0  0  0  0  0  0  0  0  0  0
   58.9603   23.0609   45.0633 H   0  0  0  0  0  0  0  0  0  0  0  0
   59.6820   24.7058   45.0633 H   0  0  0  0  0  0  0  0  0  0  0  0
   57.7740   22.1400   47.5040 H   0  0  0  0  0  0  0  0  0  0  0  0
   56.4289   28.8182   43.2025 H   0  0  0  0  0  0  0  0  0  0  0  0
   57.7598   31.5728   42.7457 H   0  0  0  0  0  0  0  0  0  0  0  0
   56.2265   31.5099   43.6898 H   0  0  0  0  0  0  0  0  0  0  0  0
   59.2697   33.2878   43.1740 H   0  0  0  0  0  0  0  0  0  0  0  0
   60.1222   35.1211   44.6355 H   0  0  0  0  0  0  0  0  0  0  0  0
   57.3296   33.9589   47.7290 H   0  0  0  0  0  0  0  0  0  0  0  0
   56.4730   32.1229   46.2738 H   0  0  0  0  0  0  0  0  0  0  0  0
   59.4232   31.9307   45.6710 H   0  0  0  0  0  0  0  0  0  0  0  0
   61.4789   28.5891   47.5599 H   0  0  0  0  0  0  0  0  0  0  0  0
   59.9525   26.9728   46.3779 H   0  0  0  0  0  0  0  0  0  0  0  0
  1  2  1  0
  2  3  2  0
  3  4  1  0
  3  5  1  0
  5  6  1  0
  6  7  1  0
  6  8  2  0
  8  9  1  0
  9 10  2  0
  9 11  1  0
 11 12  2  0
 12 13  1  0
 13 14  1  0
 14 15  1  0
 15 16  2  0
 16 17  1  0
 17 18  2  0
 18 19  1  0
 18 20  1  0
 20 21  2  0
 13 22  1  0
 22 23  2  0
 23 24  1  0
 24 25  1  0
 24 26  2  0
 26 27  1  0
 27 28  2  0
  8  2  1  0
 28 11  1  0
 21 15  1  0
 28 22  1  0
  1 29  1  0
  1 30  1  0
  1 31  1  0
  4 32  1  0
 12 33  1  0
 14 34  1  0
 14 35  1  0
 16 36  1  0
 17 37  1  0
 20 38  1  0
 21 39  1  0
 23 40  1  0
 26 41  1  0
 27 42  1  0
M  CHG  3   5  -1   7  -1  19  -1
M  END
>  <UniqueID>  (4) 
4

>  <SMILES>  (4) 
Cc1c(O)[n-]c([O-])c1C(=O)c1cn(Cc2ccc([O-])cc2)c2cc(Cl)ccc12

>  <Energy>  (4) 
109.90102261616441

>  <Genealogy>  (4) 
Cc1c(O)[n-]c([O-])c1C(=O)c1cn(Cc2ccc([O-])cc2)c2cc(Cl)ccc12 (protonated)
Cc1c(O)[n-]c([O-])c1C(=O)c1cn(Cc2ccc([O-])cc2)c2cc(Cl)ccc12 (3D coordinates assigned)
Cc1c(O)[n-]c([O-])c1C(=O)c1cn(Cc2ccc([O-])cc2)c2cc(Cl)ccc12 (optimized conformer: 109.90102261616441 kcal/mol)

>  <smiles>  (4) 
Cc1c(O)[nH]c(O)c1C(=O)c1cn(Cc2ccc(O)cc2)c2cc(Cl)ccc12

>  <score_type>  (4) 
oracle

>  <origin>  (4) 
adg

>  <m_score__min__energy>  (4) 
-15.6

>  <m_primary>  (4) 
energy

$$$$
4:0
     RDKit          3D

 65 68  0  0  0  0  0  0  0  0999 V2000
   54.7870   26.3430   45.9100 N   0  0  0  0  0  0  0  0  0  0  0  0
   55.5960   24.8200   46.0260 S   0  0  0  0  0  0  0  0  0  0  0  0
   54.7770   23.8910   46.8790 O   0  0  0  0  0  0  0  0  0  0  0  0
   56.9430   25.0230   46.6610 O   0  0  0  0  0  0  0  0  0  0  0  0
   55.7910   24.1370   44.3850 C   0  0  0  0  0  0  0  0  0  0  0  0
   56.9460   24.7900   43.6170 C   0  0  0  0  0  0  0  0  0  0  0  0
   57.4410   25.9940   44.3090 N   0  0  0  0  0  0  0  0  0  0  0  0
   57.8120   27.0760   43.3820 C   0  0  0  0  0  0  0  0  0  0  0  0
   58.0930   28.3480   44.1340 C   0  0  0  0  0  0  0  0  0  0  0  0
   57.2010   29.4250   44.0420 C   0  0  0  0  0  0  0  0  0  0  0  0
   57.4200   30.5880   44.7840 C   0  0  0  0  0  0  0  0  0  0  0  0
   58.5390   30.7000   45.6300 C   0  0  0  0  0  0  0  0  0  0  0  0
   58.7510   31.9330   46.4290 C   0  0  0  0  0  0  0  0  0  0  0  0
   58.5480   33.2510   46.0120 C   0  0  0  0  0  0  0  0  0  0  0  0
   58.8360   34.2030   46.9970 C   0  0  0  0  0  0  0  0  0  0  0  0
   59.2790   33.6500   48.1930 C   0  0  0  0  0  0  0  0  0  0  0  0
   59.6420   34.4210   49.4360 C   0  0  0  0  0  0  0  0  0  0  0  0
   60.2390   33.5940   50.5100 N   0  0  0  0  0  0  0  0  0  0  0  0
   61.6890   33.8080   50.6940 C   0  0  0  0  0  0  0  0  0  0  0  0
   62.4160   33.3360   49.4650 C   0  0  0  0  0  0  0  0  0  0  0  0
   62.4020   31.9760   49.1140 C   0  0  0  0  0  0  0  0  0  0  0  0
   63.0570   31.5410   47.9590 C   0  0  0  0  0  0  0  0  0  0  0  0
   63.7200   32.4600   47.1400 C   0  0  0  0  0  0  0  0  0  0  0  0
   63.7250   33.8160   47.4750 C   0  0  0  0  0  0  0  0  0  0  0  0
   63.0700   34.2560   48.6310 C   0  0  0  0  0  0  0  0  0  0  0  0
   59.3640   33.6660   52.0250 S   0  0  0  0  0  0  0  0  0  0  0  0
   58.5480   34.9280   52.0810 O   0  0  0  0  0  0  0  0  0  0  0  0
   60.3430   33.6720   53.1650 O   0  0  0  0  0  0  0  0  0  0  0  0
   58.3160   32.2610   52.2120 C   0  0  0  0  0  0  0  0  0  0  0  0
   56.9350   32.4370   52.3740 C   0  0  0  0  0  0  0  0  0  0  0  0
   56.0960   31.3260   52.5110 C   0  0  0  0  0  0  0  0  0  0  0  0
   56.6310   30.0360   52.4790 C   0  0  0  0  0  0  0  0  0  0  0  0
   58.0060   29.8550   52.3050 C   0  0  0  0  0  0  0  0  0  0  0  0
   58.8480   30.9630   52.1680 C   0  0  0  0  0  0  0  0  0  0  0  0
   59.2880   31.9790   48.0290 S   0  0  0  0  0  0  0  0  0  0  0  0
   59.4360   29.6170   45.7120 C   0  0  0  0  0  0  0  0  0  0  0  0
   59.2140   28.4530   44.9690 C   0  0  0  0  0  0  0  0  0  0  0  0
   55.3520   26.9400   45.2650 H   0  0  0  0  0  0  0  0  0  0  0  0
   55.9889   23.0584   44.4719 H   0  0  0  0  0  0  0  0  0  0  0  0
   54.8632   24.3313   43.8270 H   0  0  0  0  0  0  0  0  0  0  0  0
   57.7692   24.0661   43.5256 H   0  0  0  0  0  0  0  0  0  0  0  0
   56.5762   25.0889   42.6251 H   0  0  0  0  0  0  0  0  0  0  0  0
   56.6690   26.3570   44.9150 H   0  0  0  0  0  0  0  0  0  0  0  0
   58.7125   26.7802   42.8238 H   0  0  0  0  0  0  0  0  0  0  0  0
   56.9747   27.2517   42.6906 H   0  0  0  0  0  0  0  0  0  0  0  0
   56.3238   29.3541   43.3820 H   0  0  0  0  0  0  0  0  0  0  0  0
   56.7105   31.4250   44.7062 H   0  0  0  0  0  0  0  0  0  0  0  0
   58.1950   33.5157   45.0043 H   0  0  0  0  0  0  0  0  0  0  0  0
   58.7226   35.2858   46.8396 H   0  0  0  0  0  0  0  0  0  0  0  0
   60.3658   35.2016   49.1588 H   0  0  0  0  0  0  0  0  0  0  0  0
   58.7045   34.8328   49.8379 H   0  0  0  0  0  0  0  0  0  0  0  0
   61.8864   34.8788   50.8502 H   0  0  0  0  0  0  0  0  0  0  0  0
   62.0385   33.2435   51.5710 H   0  0  0  0  0  0  0  0  0  0  0  0
   61.8736   31.2510   49.7505 H   0  0  0  0  0  0  0  0  0  0  0  0
   63.0510   30.4735   47.6935 H   0  0  0  0  0  0  0  0  0  0  0  0
   64.2373   32.1154   46.2325 H   0  0  0  0  0  0  0  0  0  0  0  0
   64.2445   34.5392   46.8293 H   0  0  0  0  0  0  0  0  0  0  0  0
   63.0678   35.3259   48.8866 H   0  0  0  0  0  0  0  0  0  0  0  0
   56.5098   33.4513   52.3935 H   0  0  0  0  0  0  0  0  0  0  0  0
   55.0134   31.4684   52.6441 H   0  0  0  0  0  0  0  0  0  0  0  0
   55.9707   29.1633   52.5906 H   0  0  0  0  0  0  0  0  0  0  0  0
   58.4266   28.8390   52.2758 H   0  0  0  0  0  0  0  0  0  0  0  0
   59.9289   30.8170   52.0255 H   0  0  0  0  0  0  0  0  0  0  0  0
   60.3180   29.6873   46.3655 H   0  0  0  0  0  0  0  0  0  0  0  0
   59.9232   27.6151   45.0403 H   0  0  0  0  0  0  0  0  0  0  0  0
  1  2  1  0
  2  3  2  0
  2  4  2  0
  2  5  1  0
  5  6  1  0
  6  7  1  0
  7  8  1  0
  8  9  1  0
  9 10  2  0
 10 11  1  0
 11 12  2  0
 12 13  1  0
 13 14  2  0
 14 15  1  0
 15 16  2  0
 16 17  1  0
 17 18  1  0
 18 19  1  0
 19 20  1  0
 20 21  2  0
 21 22  1  0
 22 23  2  0
 23 24  1  0
 24 25  2  0
 18 26  1  0
 26 27  2  0
 26 28  2  0
 26 29  1  0
 29 30  2  0
 30 31  1  0
 31 32  2  0
 32 33  1  0
 33 34  2  0
 16 35  1  0
 12 36  1  0
 36 37  2  0
 37  9  1  0
 35 13  1  0
 25 20  1  0
 34 29  1  0
  1 38  1  0
  5 39  1  0
  5 40  1  0
  6 41  1  0
  6 42  1  0
  7 43  1  0
  8 44  1  0
  8 45  1  0
 10 46  1  0
 11 47  1  0
 14 48  1  0
 15 49  1  0
 17 50  1  0
 17 51  1  0
 19 52  1  0
 19 53  1  0
 21 54  1  0
 22 55  1  0
 23 56  1  0
 24 57  1  0
 25 58  1  0
 30 59  1  0
 31 60  1  0
 32 61  1  0
 33 62  1  0
 34 63  1  0
 36 64  1  0
 37 65  1  0
M  CHG  1   1  -1
M  END
>  <UniqueID>  (5) 
5

>  <SMILES>  (5) 
[NH-]S(=O)(=O)CCNCc1ccc(-c2ccc(CN(Cc3ccccc3)S(=O)(=O)c3ccccc3)s2)cc1

>  <Energy>  (5) 
92.94825222838799

>  <Genealogy>  (5) 
[NH-]S(=O)(=O)CCNCc1ccc(-c2ccc(CN(Cc3ccccc3)S(=O)(=O)c3ccccc3)s2)cc1 (protonated)
[NH-]S(=O)(=O)CCNCc1ccc(-c2ccc(CN(Cc3ccccc3)S(=O)(=O)c3ccccc3)s2)cc1 (3D coordinates assigned)
[NH-]S(=O)(=O)CCNCc1ccc(-c2ccc(CN(Cc3ccccc3)S(=O)(=O)c3ccccc3)s2)cc1 (optimized conformer: 92.94825222838799 kcal/mol)

>  <smiles>  (5) 
NS(=O)(=O)CCNCc1ccc(-c2ccc(CN(Cc3ccccc3)S(=O)(=O)c3ccccc3)s2)cc1

>  <score_type>  (5) 
oracle

>  <origin>  (5) 
adg

>  <m_score__min__energy>  (5) 
-13.359999999999999

>  <m_primary>  (5) 
energy

$$$$
5:0
     RDKit          3D

 38 39  0  0  0  0  0  0  0  0999 V2000
   57.5160   22.4040   46.2770 C   0  0  0  0  0  0  0  0  0  0  0  0
   57.2270   23.8730   46.0970 C   0  0  0  0  0  0  0  0  0  0  0  0
   58.3050   24.7400   45.8630 C   0  0  0  0  0  0  0  0  0  0  0  0
   58.0970   26.1070   45.7000 C   0  0  0  0  0  0  0  0  0  0  0  0
   56.8100   26.6420   45.7830 C   0  0  0  0  0  0  0  0  0  0  0  0
   56.6330   28.0580   45.6230 N   0  0  0  0  0  0  0  0  0  0  0  0
   57.6670   28.9290   45.1480 C   0  0  0  0  0  0  0  0  0  0  0  0
   58.7740   28.4580   44.7700 O   0  0  0  0  0  0  0  0  0  0  0  0
   57.4340   30.3420   45.1270 N   0  0  0  0  0  0  0  0  0  0  0  0
   58.1030   31.3320   45.9240 C   0  0  0  0  0  0  0  0  0  0  0  0
   58.4660   31.0020   47.2330 C   0  0  0  0  0  0  0  0  0  0  0  0
   59.1080   31.9370   48.0600 C   0  0  0  0  0  0  0  0  0  0  0  0
   59.5010   31.5680   49.4380 C   0  0  0  0  0  0  0  0  0  0  0  0
   60.5930   31.9680   49.9230 O   0  0  0  0  0  0  0  0  0  0  0  0
   58.6690   30.7730   50.2190 O   0  0  0  0  0  0  0  0  0  0  0  0
   59.3700   33.2260   47.5620 C   0  0  0  0  0  0  0  0  0  0  0  0
   58.9860   33.5830   46.2580 C   0  0  0  0  0  0  0  0  0  0  0  0
   59.2470   34.9500   45.7520 C   0  0  0  0  0  0  0  0  0  0  0  0
   58.9020   35.2800   44.5860 O   0  0  0  0  0  0  0  0  0  0  0  0
   59.8780   35.8910   46.5580 O   0  0  0  0  0  0  0  0  0  0  0  0
   58.3450   32.6310   45.4460 C   0  0  0  0  0  0  0  0  0  0  0  0
   55.7100   25.7820   45.9630 C   0  0  0  0  0  0  0  0  0  0  0  0
   54.4260   26.3180   45.9680 O   0  0  0  0  0  0  0  0  0  0  0  0
   55.9050   24.3900   46.1130 C   0  0  0  0  0  0  0  0  0  0  0  0
   54.5070   23.3100   46.3460 S   0  0  0  0  0  0  0  0  0  0  0  0
   54.6840   21.9280   45.3240 N   0  0  0  0  0  0  0  0  0  0  0  0
   53.2370   24.0350   45.9980 O   0  0  0  0  0  0  0  0  0  0  0  0
   54.4030   22.8500   47.7730 O   0  0  0  0  0  0  0  0  0  0  0  0
   57.5624   22.1683   47.3504 H   0  0  0  0  0  0  0  0  0  0  0  0
   56.7170   21.8127   45.8059 H   0  0  0  0  0  0  0  0  0  0  0  0
   58.4795   22.1594   45.8059 H   0  0  0  0  0  0  0  0  0  0  0  0
   59.3263   24.3351   45.8077 H   0  0  0  0  0  0  0  0  0  0  0  0
   58.9526   26.7701   45.5045 H   0  0  0  0  0  0  0  0  0  0  0  0
   55.6660   28.4470   45.6970 H   0  0  0  0  0  0  0  0  0  0  0  0
   58.2456   29.9962   47.6201 H   0  0  0  0  0  0  0  0  0  0  0  0
   59.8808   33.9624   48.1998 H   0  0  0  0  0  0  0  0  0  0  0  0
   58.0304   32.9053   44.4283 H   0  0  0  0  0  0  0  0  0  0  0  0
   53.8040   21.3720   45.4070 H   0  0  0  0  0  0  0  0  0  0  0  0
  1  2  1  0
  2  3  2  0
  3  4  1  0
  4  5  2  0
  5  6  1  0
  6  7  1  0
  7  8  2  0
  7  9  1  0
  9 10  1  0
 10 11  2  0
 11 12  1  0
 12 13  1  0
 13 14  2  0
 13 15  1  0
 12 16  2  0
 16 17  1  0
 17 18  1  0
 18 19  2  0
 18 20  1  0
 17 21  2  0
  5 22  1  0
 22 23  1  0
 22 24  2  0
 24 25  1  0
 25 26  1  0
 25 27  2  0
 25 28  2  0
 24  2  1  0
 21 10  1  0
  1 29  1  0
  1 30  1  0
  1 31  1  0
  3 32  1  0
  4 33  1  0
  6 34  1  0
 11 35  1  0
 16 36  1  0
 21 37  1  0
 26 38  1  0
M  CHG  5   9  -1  15  -1  20  -1  23  -1  26  -1
M  END
>  <UniqueID>  (6) 
6

>  <SMILES>  (6) 
Cc1ccc(NC(=O)[N-]c2cc(C(=O)[O-])cc(C(=O)[O-])c2)c([O-])c1S([NH-])(=O)=O

>  <Energy>  (6) 
52.24431874722054

>  <Genealogy>  (6) 
Cc1ccc(NC(=O)[N-]c2cc(C(=O)[O-])cc(C(=O)[O-])c2)c([O-])c1S([NH-])(=O)=O (protonated)
Cc1ccc(NC(=O)[N-]c2cc(C(=O)[O-])cc(C(=O)[O-])c2)c([O-])c1S([NH-])(=O)=O (3D coordinates assigned)
Cc1ccc(NC(=O)[N-]c2cc(C(=O)[O-])cc(C(=O)[O-])c2)c([O-])c1S([NH-])(=O)=O (optimized conformer: 52.24431874722054 kcal/mol)

>  <smiles>  (6) 
Cc1ccc(NC(=O)Nc2cc(C(=O)O)cc(C(=O)O)c2)c(O)c1S(N)(=O)=O

>  <score_type>  (6) 
oracle

>  <origin>  (6) 
adg

>  <m_score__min__energy>  (6) 
-16.530000000000001

>  <m_primary>  (6) 
energy

$$$$
6:0
     RDKit          3D

 45 47  0  0  0  0  0  0  0  0999 V2000
   55.4980   28.8970   44.8780 N   0  0  0  0  0  0  0  0  0  0  0  0
   56.5370   30.1570   44.3090 S   0  0  0  0  0  0  0  0  0  0  0  0
   55.9600   31.4790   44.7290 O   0  0  0  0  0  0  0  0  0  0  0  0
   56.6160   30.1120   42.8080 O   0  0  0  0  0  0  0  0  0  0  0  0
   58.1480   29.9590   44.9900 C   0  0  0  0  0  0  0  0  0  0  0  0
   58.8650   31.0690   45.4610 C   0  0  0  0  0  0  0  0  0  0  0  0
   60.1280   30.8970   46.0290 C   0  0  0  0  0  0  0  0  0  0  0  0
   60.6880   29.6200   46.1240 C   0  0  0  0  0  0  0  0  0  0  0  0
   59.9960   28.5060   45.6360 C   0  0  0  0  0  0  0  0  0  0  0  0
   60.5700   27.2030   45.8070 N   0  0  0  0  0  0  0  0  0  0  0  0
   59.9810   26.1370   46.5580 C   0  0  0  0  0  0  0  0  0  0  0  0
   60.1820   24.9370   46.2300 O   0  0  0  0  0  0  0  0  0  0  0  0
   59.0680   26.4590   47.6950 C   0  0  0  0  0  0  0  0  0  0  0  0
   59.5120   27.7550   48.3150 C   0  0  0  0  0  0  0  0  0  0  0  0
   58.6260   28.8420   48.3840 C   0  0  0  0  0  0  0  0  0  0  0  0
   58.9740   29.9900   49.1010 C   0  0  0  0  0  0  0  0  0  0  0  0
   60.2070   30.0600   49.7700 C   0  0  0  0  0  0  0  0  0  0  0  0
   60.5690   31.2080   50.5490 N   0  0  0  0  0  0  0  0  0  0  0  0
   60.1760   32.5610   50.2710 C   0  0  0  0  0  0  0  0  0  0  0  0
   59.6930   33.2520   51.2060 O   0  0  0  0  0  0  0  0  0  0  0  0
   60.2810   33.1470   48.9110 C   0  0  0  0  0  0  0  0  0  0  0  0
   59.1240   33.5860   48.2420 C   0  0  0  0  0  0  0  0  0  0  0  0
   59.2140   34.1370   46.9600 C   0  0  0  0  0  0  0  0  0  0  0  0
   60.4560   34.2440   46.3290 C   0  0  0  0  0  0  0  0  0  0  0  0
   61.6100   33.7960   46.9760 C   0  0  0  0  0  0  0  0  0  0  0  0
   61.5260   33.2500   48.2610 C   0  0  0  0  0  0  0  0  0  0  0  0
   61.1080   28.9960   49.6660 C   0  0  0  0  0  0  0  0  0  0  0  0
   60.7590   27.8410   48.9580 C   0  0  0  0  0  0  0  0  0  0  0  0
   58.7150   28.6800   45.0810 C   0  0  0  0  0  0  0  0  0  0  0  0
   54.6020   29.3410   45.1770 H   0  0  0  0  0  0  0  0  0  0  0  0
   58.4309   32.0767   45.3824 H   0  0  0  0  0  0  0  0  0  0  0  0
   60.6844   31.7690   46.4031 H   0  0  0  0  0  0  0  0  0  0  0  0
   61.6783   29.4899   46.5850 H   0  0  0  0  0  0  0  0  0  0  0  0
   58.0369   26.5592   47.3253 H   0  0  0  0  0  0  0  0  0  0  0  0
   59.1016   25.6536   48.4434 H   0  0  0  0  0  0  0  0  0  0  0  0
   57.6540   28.7898   47.8716 H   0  0  0  0  0  0  0  0  0  0  0  0
   58.2795   30.8421   49.1416 H   0  0  0  0  0  0  0  0  0  0  0  0
   58.1425   33.4953   48.7304 H   0  0  0  0  0  0  0  0  0  0  0  0
   58.3057   34.4867   46.4475 H   0  0  0  0  0  0  0  0  0  0  0  0
   60.5251   34.6813   45.3220 H   0  0  0  0  0  0  0  0  0  0  0  0
   62.5860   33.8727   46.4744 H   0  0  0  0  0  0  0  0  0  0  0  0
   62.4376   32.8991   48.7667 H   0  0  0  0  0  0  0  0  0  0  0  0
   62.0964   29.0674   50.1434 H   0  0  0  0  0  0  0  0  0  0  0  0
   61.4628   26.9973   48.9043 H   0  0  0  0  0  0  0  0  0  0  0  0
   58.1545   27.8067   44.7160 H   0  0  0  0  0  0  0  0  0  0  0  0
  1  2  1  0
  2  3  2  0
  2  4  2  0
  2  5  1  0
  5  6  2  0
  6  7  1  0
  7  8  2  0
  8  9  1  0
  9 10  1  0
 10 11  1  0
 11 12  2  0
 11 13  1  0
 13 14  1  0
 14 15  2  0
 15 16  1  0
 16 17  2  0
 17 18  1  0
 18 19  1  0
 19 20  2  0
 19 21  1  0
 21 22  2  0
 22 23  1  0
 23 24  2  0
 24 25  1  0
 25 26  2  0
 17 27  1  0
 27 28  2  0
  9 29  2  0
 29  5  1  0
 28 14  1  0
 26 21  1  0
  1 30  1  0
  6 31  1  0
  7 32  1  0
  8 33  1  0
 13 34  1  0
 13 35  1  0
 15 36  1  0
 16 37  1  0
 22 38  1  0
 23 39  1  0
 24 40  1  0
 25 41  1  0
 26 42  1  0
 27 43  1  0
 28 44  1  0
 29 45  1  0
M  CHG  3   1  -1  10  -1  18  -1
M  END
>  <UniqueID>  (7) 
7

>  <SMILES>  (7) 
[NH-]S(=O)(=O)c1cccc([N-]C(=O)Cc2ccc([N-]C(=O)c3ccccc3)cc2)c1

>  <Energy>  (7) 
53.92300121320103

>  <Genealogy>  (7) 
[NH-]S(=O)(=O)c1cccc([N-]C(=O)Cc2ccc([N-]C(=O)c3ccccc3)cc2)c1 (protonated)
[NH-]S(=O)(=O)c1cccc([N-]C(=O)Cc2ccc([N-]C(=O)c3ccccc3)cc2)c1 (3D coordinates assigned)
[NH-]S(=O)(=O)c1cccc([N-]C(=O)Cc2ccc([N-]C(=O)c3ccccc3)cc2)c1 (optimized conformer: 53.92300121320103 kcal/mol)

>  <smiles>  (7) 
NS(=O)(=O)c1cccc(NC(=O)Cc2ccc(NC(=O)c3ccccc3)cc2)c1

>  <score_type>  (7) 
oracle

>  <origin>  (7) 
adg

>  <m_score__min__energy>  (7) 
-14.289999999999999

>  <m_primary>  (7) 
energy

$$$$
7:0
     RDKit          3D

 53 56  0  0  0  0  0  0  0  0999 V2000
   55.7510   29.3360   44.5580 C   0  0  0  0  0  0  0  0  0  0  0  0
   56.6360   28.6660   45.5710 C   0  0  0  0  0  0  0  0  0  0  0  0
   57.7700   29.3300   46.0700 C   0  0  0  0  0  0  0  0  0  0  0  0
   58.5970   28.7190   47.0300 C   0  0  0  0  0  0  0  0  0  0  0  0
   59.7950   29.4240   47.5560 C   0  0  0  0  0  0  0  0  0  0  0  0
   60.5740   30.2370   46.7140 C   0  0  0  0  0  0  0  0  0  0  0  0
   61.7010   30.8980   47.2090 C   0  0  0  0  0  0  0  0  0  0  0  0
   62.0750   30.7640   48.5500 C   0  0  0  0  0  0  0  0  0  0  0  0
   63.2140   31.4580   48.9920 O   0  0  0  0  0  0  0  0  0  0  0  0
   63.6920   32.6930   48.4590 C   0  0  0  0  0  0  0  0  0  0  0  0
   63.5470   33.8200   49.4880 C   0  0  0  0  0  0  0  0  0  0  0  0
   62.4540   34.8240   49.1030 C   0  0  0  0  0  0  0  0  0  0  0  0
   61.1310   34.2000   49.1030 N   0  0  0  0  0  0  0  0  0  0  0  0
   60.5100   33.5140   50.1930 C   0  0  0  0  0  0  0  0  0  0  0  0
   60.9580   33.4930   51.3690 O   0  0  0  0  0  0  0  0  0  0  0  0
   59.3060   32.8380   49.7310 C   0  0  0  0  0  0  0  0  0  0  0  0
   58.5100   32.1480   50.4210 O   0  0  0  0  0  0  0  0  0  0  0  0
   59.2200   33.1220   48.3080 C   0  0  0  0  0  0  0  0  0  0  0  0
   58.2790   32.7140   47.3640 C   0  0  0  0  0  0  0  0  0  0  0  0
   58.4520   33.1320   46.0220 C   0  0  0  0  0  0  0  0  0  0  0  0
   57.5580   32.7720   45.0000 O   0  0  0  0  0  0  0  0  0  0  0  0
   57.9200   32.1210   43.7840 C   0  0  0  0  0  0  0  0  0  0  0  0
   56.7840   31.5880   43.2050 F   0  0  0  0  0  0  0  0  0  0  0  0
   58.4820   33.0300   42.9050 F   0  0  0  0  0  0  0  0  0  0  0  0
   58.8130   31.0960   44.0400 F   0  0  0  0  0  0  0  0  0  0  0  0
   59.5590   33.9400   45.6820 C   0  0  0  0  0  0  0  0  0  0  0  0
   60.4940   34.3370   46.6530 C   0  0  0  0  0  0  0  0  0  0  0  0
   60.3020   33.9140   47.9690 C   0  0  0  0  0  0  0  0  0  0  0  0
   61.2970   29.9540   49.3990 C   0  0  0  0  0  0  0  0  0  0  0  0
   60.1710   29.2900   48.9050 C   0  0  0  0  0  0  0  0  0  0  0  0
   58.2700   27.4300   47.4870 C   0  0  0  0  0  0  0  0  0  0  0  0
   57.1410   26.7710   47.0000 C   0  0  0  0  0  0  0  0  0  0  0  0
   56.3210   27.3830   46.0490 C   0  0  0  0  0  0  0  0  0  0  0  0
   55.1960   26.7120   45.5830 O   0  0  0  0  0  0  0  0  0  0  0  0
   54.9777   29.9214   45.0769 H   0  0  0  0  0  0  0  0  0  0  0  0
   56.3559   30.0046   43.9278 H   0  0  0  0  0  0  0  0  0  0  0  0
   55.2716   28.5724   43.9278 H   0  0  0  0  0  0  0  0  0  0  0  0
   58.0135   30.3389   45.7056 H   0  0  0  0  0  0  0  0  0  0  0  0
   60.2938   30.3536   45.6567 H   0  0  0  0  0  0  0  0  0  0  0  0
   62.3002   31.5302   46.5372 H   0  0  0  0  0  0  0  0  0  0  0  0
   64.7531   32.5837   48.1904 H   0  0  0  0  0  0  0  0  0  0  0  0
   63.0972   32.9479   47.5694 H   0  0  0  0  0  0  0  0  0  0  0  0
   63.2936   33.3781   50.4629 H   0  0  0  0  0  0  0  0  0  0  0  0
   64.5028   34.3630   49.5286 H   0  0  0  0  0  0  0  0  0  0  0  0
   62.4586   35.6527   49.8263 H   0  0  0  0  0  0  0  0  0  0  0  0
   62.6634   35.1907   48.0873 H   0  0  0  0  0  0  0  0  0  0  0  0
   57.4249   32.0842   47.6537 H   0  0  0  0  0  0  0  0  0  0  0  0
   59.6917   34.2642   44.6393 H   0  0  0  0  0  0  0  0  0  0  0  0
   61.3555   34.9653   46.3826 H   0  0  0  0  0  0  0  0  0  0  0  0
   61.5770   29.8432   50.4570 H   0  0  0  0  0  0  0  0  0  0  0  0
   59.5732   28.6568   49.5771 H   0  0  0  0  0  0  0  0  0  0  0  0
   58.9094   26.9374   48.2343 H   0  0  0  0  0  0  0  0  0  0  0  0
   56.8951   25.7636   47.3670 H   0  0  0  0  0  0  0  0  0  0  0  0
  1  2  1  0
  2  3  2  0
  3  4  1  0
  4  5  1  0
  5  6  2  0
  6  7  1  0
  7  8  2  0
  8  9  1  0
  9 10  1  0
 10 11  1  0
 11 12  1  0
 12 13  1  0
 13 14  1  0
 14 15  2  0
 14 16  1  0
 16 17  2  0
 16 18  1  0
 18 19  2  0
 19 20  1  0
 20 21  1  0
 21 22  1  0
 22 23  1  0
 22 24  1  0
 22 25  1  0
 20 26  2  0
 26 27  1  0
 27 28  2  0
  8 29  1  0
 29 30  2  0
  4 31  2  0
 31 32  1  0
 32 33  2  0
 33 34  1  0
 33  2  1  0
 30  5  1  0
 28 13  1  0
 28 18  1  0
  1 35  1  0
  1 36  1  0
  1 37  1  0
  3 38  1  0
  6 39  1  0
  7 40  1  0
 10 41  1  0
 10 42  1  0
 11 43  1  0
 11 44  1  0
 12 45  1  0
 12 46  1  0
 19 47  1  0
 26 48  1  0
 27 49  1  0
 29 50  1  0
 30 51  1  0
 31 52  1  0
 32 53  1  0
M  CHG  1  34  -1
M  END
>  <UniqueID>  (8) 
8

>  <SMILES>  (8) 
Cc1cc(-c2ccc(OCCCN3C(=O)C(=O)c4cc(OC(F)(F)F)ccc43)cc2)ccc1[O-]

>  <Energy>  (8) 
90.46550362064369

>  <Genealogy>  (8) 
Cc1cc(-c2ccc(OCCCN3C(=O)C(=O)c4cc(OC(F)(F)F)ccc43)cc2)ccc1[O-] (protonated)
Cc1cc(-c2ccc(OCCCN3C(=O)C(=O)c4cc(OC(F)(F)F)ccc43)cc2)ccc1[O-] (3D coordinates assigned)
Cc1cc(-c2ccc(OCCCN3C(=O)C(=O)c4cc(OC(F)(F)F)ccc43)cc2)ccc1[O-] (nonaromatic ring conformer: 90.46550362064369 kcal/mol)

>  <smiles>  (8) 
Cc1cc(-c2ccc(OCCCN3C(=O)C(=O)c4cc(OC(F)(F)F)ccc43)cc2)ccc1O

>  <score_type>  (8) 
oracle

>  <origin>  (8) 
adg

>  <m_score__min__energy>  (8) 
-10.390000000000001

>  <m_primary>  (8) 
energy

$$$$
8:0
     RDKit          3D

 42 44  0  0  0  0  0  0  0  0999 V2000
   59.6350   33.4630   50.6050 C   0  0  0  0  0  0  0  0  0  0  0  0
   59.7610   33.3780   49.1890 O   0  0  0  0  0  0  0  0  0  0  0  0
   60.9490   33.0500   48.5140 C   0  0  0  0  0  0  0  0  0  0  0  0
   61.9940   33.9830   48.3560 C   0  0  0  0  0  0  0  0  0  0  0  0
   63.1620   33.6270   47.6760 C   0  0  0  0  0  0  0  0  0  0  0  0
   63.2980   32.3470   47.1410 C   0  0  0  0  0  0  0  0  0  0  0  0
   62.2710   31.4150   47.2880 C   0  0  0  0  0  0  0  0  0  0  0  0
   61.0980   31.7500   47.9910 C   0  0  0  0  0  0  0  0  0  0  0  0
   59.9910   30.7740   48.1230 C   0  0  0  0  0  0  0  0  0  0  0  0
   58.7280   30.9900   47.7230 C   0  0  0  0  0  0  0  0  0  0  0  0
   58.3420   31.8930   46.6170 C   0  0  0  0  0  0  0  0  0  0  0  0
   57.7930   33.1520   46.9180 C   0  0  0  0  0  0  0  0  0  0  0  0
   57.4440   34.0370   45.8970 C   0  0  0  0  0  0  0  0  0  0  0  0
   57.6480   33.6800   44.5640 C   0  0  0  0  0  0  0  0  0  0  0  0
   58.2020   32.4390   44.2490 C   0  0  0  0  0  0  0  0  0  0  0  0
   58.5620   31.5350   45.2640 C   0  0  0  0  0  0  0  0  0  0  0  0
   59.0880   30.1670   44.8730 C   0  0  0  0  0  0  0  0  0  0  0  0
   58.1070   29.1180   45.2100 N   0  0  0  0  0  0  0  0  0  0  0  0
   58.5550   27.9610   45.7870 C   0  0  0  0  0  0  0  0  0  0  0  0
   57.6710   26.9270   46.0870 C   0  0  0  0  0  0  0  0  0  0  0  0
   56.3210   27.1040   45.8010 C   0  0  0  0  0  0  0  0  0  0  0  0
   55.4940   26.1900   46.0550 O   0  0  0  0  0  0  0  0  0  0  0  0
   55.8970   28.2680   45.2510 N   0  0  0  0  0  0  0  0  0  0  0  0
   56.7650   29.2720   44.9590 C   0  0  0  0  0  0  0  0  0  0  0  0
   56.3170   30.3380   44.4600 O   0  0  0  0  0  0  0  0  0  0  0  0
   60.4574   32.9082   51.0803 H   0  0  0  0  0  0  0  0  0  0  0  0
   59.6774   34.5178   50.9142 H   0  0  0  0  0  0  0  0  0  0  0  0
   58.6729   33.0287   50.9142 H   0  0  0  0  0  0  0  0  0  0  0  0
   61.8895   34.9967   48.7702 H   0  0  0  0  0  0  0  0  0  0  0  0
   63.9757   34.3585   47.5627 H   0  0  0  0  0  0  0  0  0  0  0  0
   64.2166   32.0717   46.6021 H   0  0  0  0  0  0  0  0  0  0  0  0
   62.3782   30.4110   46.8516 H   0  0  0  0  0  0  0  0  0  0  0  0
   60.2210   29.8013   48.5824 H   0  0  0  0  0  0  0  0  0  0  0  0
   57.9246   30.4588   48.2544 H   0  0  0  0  0  0  0  0  0  0  0  0
   57.6372   33.4419   47.9676 H   0  0  0  0  0  0  0  0  0  0  0  0
   57.0079   35.0164   46.1434 H   0  0  0  0  0  0  0  0  0  0  0  0
   57.3716   34.3780   43.7600 H   0  0  0  0  0  0  0  0  0  0  0  0
   58.3589   32.1648   43.1953 H   0  0  0  0  0  0  0  0  0  0  0  0
   59.2788   30.1490   43.7898 H   0  0  0  0  0  0  0  0  0  0  0  0
   60.0187   29.9733   45.4265 H   0  0  0  0  0  0  0  0  0  0  0  0
   59.6247   27.8461   46.0164 H   0  0  0  0  0  0  0  0  0  0  0  0
   58.0321   25.9918   46.5397 H   0  0  0  0  0  0  0  0  0  0  0  0
  1  2  1  0
  2  3  1  0
  3  4  2  0
  4  5  1  0
  5  6  2  0
  6  7  1  0
  7  8  2  0
  8  9  1  0
  9 10  2  3
 10 11  1  0
 11 12  2  0
 12 13  1  0
 13 14  2  0
 14 15  1  0
 15 16  2  0
 16 17  1  0
 17 18  1  0
 18 19  1  0
 19 20  2  0
 20 21  1  0
 21 22  2  0
 21 23  1  0
 23 24  1  0
 24 25  2  0
  8  3  1  0
 16 11  1  0
 24 18  1  0
  1 26  1  0
  1 27  1  0
  1 28  1  0
  4 29  1  0
  5 30  1  0
  6 31  1  0
  7 32  1  0
  9 33  1  0
 10 34  1  0
 12 35  1  0
 13 36  1  0
 14 37  1  0
 15 38  1  0
 17 39  1  0
 17 40  1  0
 19 41  1  0
 20 42  1  0
M  CHG  1  23  -1
M  END
>  <UniqueID>  (9) 
9

>  <SMILES>  (9) 
COc1ccccc1C=Cc1ccccc1Cn1ccc(=O)[n-]c1=O

>  <Energy>  (9) 
56.557628421489525

>  <Genealogy>  (9) 
COc1ccccc1C=Cc1ccccc1Cn1ccc(=O)[n-]c1=O (protonated)
COc1ccccc1C=Cc1ccccc1Cn1ccc(=O)[n-]c1=O (3D coordinates assigned)
COc1ccccc1C=Cc1ccccc1Cn1ccc(=O)[n-]c1=O (optimized conformer: 56.557628421489525 kcal/mol)

>  <smiles>  (9) 
COc1ccccc1C=Cc1ccccc1Cn1ccc(=O)[nH]c1=O

>  <score_type>  (9) 
oracle

>  <origin>  (9) 
adg

>  <m_score__min__energy>  (9) 
-9.8200000000000003

>  <m_primary>  (9) 
energy

$$$$
9:0
     RDKit          3D

 38 40  0  0  0  0  0  0  0  0999 V2000
   55.1500   30.4850   44.4860 O   0  0  0  0  0  0  0  0  0  0  0  0
   56.1170   29.6810   44.5560 C   0  0  0  0  0  0  0  0  0  0  0  0
   57.4050   29.9900   43.8530 C   0  0  0  0  0  0  0  0  0  0  0  0
   58.3380   30.6480   44.7670 N   0  0  0  0  0  0  0  0  0  0  0  0
   59.2360   29.9920   45.4900 N   0  0  0  0  0  0  0  0  0  0  0  0
   59.8310   30.8810   46.3150 C   0  0  0  0  0  0  0  0  0  0  0  0
   60.8210   30.5060   47.3730 C   0  0  0  0  0  0  0  0  0  0  0  0
   61.0320   29.1390   47.3660 F   0  0  0  0  0  0  0  0  0  0  0  0
   62.0230   31.1480   47.1370 F   0  0  0  0  0  0  0  0  0  0  0  0
   60.3370   30.8810   48.6130 F   0  0  0  0  0  0  0  0  0  0  0  0
   59.2820   32.1340   46.1080 C   0  0  0  0  0  0  0  0  0  0  0  0
   58.3250   31.9430   45.1430 C   0  0  0  0  0  0  0  0  0  0  0  0
   57.4330   33.0350   44.6260 C   0  0  0  0  0  0  0  0  0  0  0  0
   57.3790   34.2060   45.6280 C   0  0  0  0  0  0  0  0  0  0  0  0
   58.7830   34.5760   46.1540 C   0  0  0  0  0  0  0  0  0  0  0  0
   59.4430   33.3980   46.8970 C   0  0  0  0  0  0  0  0  0  0  0  0
   55.9530   28.4370   45.2430 N   0  0  0  0  0  0  0  0  0  0  0  0
   57.0430   27.6000   45.6530 C   0  0  0  0  0  0  0  0  0  0  0  0
   57.4080   26.5170   44.8450 C   0  0  0  0  0  0  0  0  0  0  0  0
   58.4960   25.7100   45.1940 C   0  0  0  0  0  0  0  0  0  0  0  0
   59.2200   25.9770   46.3600 C   0  0  0  0  0  0  0  0  0  0  0  0
   60.2770   25.1960   46.6930 F   0  0  0  0  0  0  0  0  0  0  0  0
   58.8500   27.0450   47.1830 C   0  0  0  0  0  0  0  0  0  0  0  0
   59.5460   27.3010   48.3180 F   0  0  0  0  0  0  0  0  0  0  0  0
   57.7610   27.8500   46.8370 C   0  0  0  0  0  0  0  0  0  0  0  0
   57.8533   29.0537   43.4891 H   0  0  0  0  0  0  0  0  0  0  0  0
   57.1983   30.6629   43.0077 H   0  0  0  0  0  0  0  0  0  0  0  0
   57.8252   33.3985   43.6648 H   0  0  0  0  0  0  0  0  0  0  0  0
   56.4179   32.6328   44.4928 H   0  0  0  0  0  0  0  0  0  0  0  0
   56.9438   35.0834   45.1272 H   0  0  0  0  0  0  0  0  0  0  0  0
   56.7640   33.8945   46.4851 H   0  0  0  0  0  0  0  0  0  0  0  0
   59.4186   34.8614   45.3028 H   0  0  0  0  0  0  0  0  0  0  0  0
   58.6744   35.4103   46.8626 H   0  0  0  0  0  0  0  0  0  0  0  0
   60.5142   33.6080   47.0324 H   0  0  0  0  0  0  0  0  0  0  0  0
   58.9582   33.2742   47.8766 H   0  0  0  0  0  0  0  0  0  0  0  0
   56.8363   26.2993   43.9308 H   0  0  0  0  0  0  0  0  0  0  0  0
   58.7822   24.8648   44.5507 H   0  0  0  0  0  0  0  0  0  0  0  0
   57.4642   28.6819   47.4926 H   0  0  0  0  0  0  0  0  0  0  0  0
  1  2  2  0
  2  3  1  0
  3  4  1  0
  4  5  1  0
  5  6  2  0
  6  7  1  0
  7  8  1  0
  7  9  1  0
  7 10  1  0
  6 11  1  0
 11 12  2  0
 12 13  1  0
 13 14  1  0
 14 15  1  0
 15 16  1  0
  2 17  1  0
 17 18  1  0
 18 19  2  0
 19 20  1  0
 20 21  2  0
 21 22  1  0
 21 23  1  0
 23 24  1  0
 23 25  2  0
 12  4  1  0
 25 18  1  0
 16 11  1  0
  3 26  1  0
  3 27  1  0
 13 28  1  0
 13 29  1  0
 14 30  1  0
 14 31  1  0
 15 32  1  0
 15 33  1  0
 16 34  1  0
 16 35  1  0
 19 36  1  0
 20 37  1  0
 25 38  1  0
M  CHG  1  17  -1
M  END
>  <UniqueID>  (10) 
10

>  <SMILES>  (10) 
O=C(Cn1nc(C(F)(F)F)c2c1CCCC2)[N-]c1ccc(F)c(F)c1

>  <Energy>  (10) 
72.04021632426084

>  <Genealogy>  (10) 
O=C(Cn1nc(C(F)(F)F)c2c1CCCC2)[N-]c1ccc(F)c(F)c1 (protonated)
O=C(Cn1nc(C(F)(F)F)c2c1CCCC2)[N-]c1ccc(F)c(F)c1 (3D coordinates assigned)
O=C(Cn1nc(C(F)(F)F)c2c1CCCC2)[N-]c1ccc(F)c(F)c1 (nonaromatic ring conformer: 72.04021632426084 kcal/mol)

>  <smiles>  (10) 
O=C(Cn1nc(C(F)(F)F)c2c1CCCC2)Nc1ccc(F)c(F)c1

>  <score_type>  (10) 
oracle

>  <origin>  (10) 
adg

>  <m_score__min__energy>  (10) 
-8.8100000000000005

>  <m_primary>  (10) 
energy

$$$$
10:0
     RDKit          3D

 48 50  0  0  0  0  0  0  0  0999 V2000
   54.6370   23.6130   46.3720 C   0  0  0  0  0  0  0  0  0  0  0  0
   55.6880   24.1770   47.1500 O   0  0  0  0  0  0  0  0  0  0  0  0
   56.5680   25.2000   46.7490 C   0  0  0  0  0  0  0  0  0  0  0  0
   57.9380   24.9610   46.9320 C   0  0  0  0  0  0  0  0  0  0  0  0
   58.8800   25.9300   46.6010 C   0  0  0  0  0  0  0  0  0  0  0  0
   58.4700   27.1490   46.0620 C   0  0  0  0  0  0  0  0  0  0  0  0
   57.1060   27.4110   45.8360 C   0  0  0  0  0  0  0  0  0  0  0  0
   56.7150   28.6880   45.1950 C   0  0  0  0  0  0  0  0  0  0  0  0
   55.5030   29.0310   45.1450 O   0  0  0  0  0  0  0  0  0  0  0  0
   57.7210   29.5430   44.6360 N   0  0  0  0  0  0  0  0  0  0  0  0
   57.9340   30.9150   45.0070 C   0  0  0  0  0  0  0  0  0  0  0  0
   57.1270   31.9210   44.4470 C   0  0  0  0  0  0  0  0  0  0  0  0
   57.3550   33.2660   44.7500 C   0  0  0  0  0  0  0  0  0  0  0  0
   58.3880   33.6180   45.6130 C   0  0  0  0  0  0  0  0  0  0  0  0
   59.2040   32.6350   46.1720 C   0  0  0  0  0  0  0  0  0  0  0  0
   58.9940   31.2710   45.8770 C   0  0  0  0  0  0  0  0  0  0  0  0
   59.8540   30.2460   46.5300 C   0  0  0  0  0  0  0  0  0  0  0  0
   60.4510   29.3800   45.8340 O   0  0  0  0  0  0  0  0  0  0  0  0
   59.9420   30.1970   47.9620 N   0  0  0  0  0  0  0  0  0  0  0  0
   60.0560   31.3120   48.8560 C   0  0  0  0  0  0  0  0  0  0  0  0
   59.0260   31.6670   49.7480 C   0  0  0  0  0  0  0  0  0  0  0  0
   59.1830   32.7640   50.5970 C   0  0  0  0  0  0  0  0  0  0  0  0
   60.3640   33.5110   50.5740 C   0  0  0  0  0  0  0  0  0  0  0  0
   61.4030   33.1580   49.7000 C   0  0  0  0  0  0  0  0  0  0  0  0
   62.6480   33.8750   49.6780 N   0  0  0  0  0  0  0  0  0  0  0  0
   63.8010   33.5650   48.8860 C   0  0  0  0  0  0  0  0  0  0  0  0
   63.7420   33.4850   47.3930 C   0  0  0  0  0  0  0  0  0  0  0  0
   64.8930   33.3180   49.4670 O   0  0  0  0  0  0  0  0  0  0  0  0
   61.2510   32.0390   48.8700 C   0  0  0  0  0  0  0  0  0  0  0  0
   56.1460   26.4320   46.1860 C   0  0  0  0  0  0  0  0  0  0  0  0
   54.7920   26.7040   45.9940 O   0  0  0  0  0  0  0  0  0  0  0  0
   53.8672   23.1999   47.0403 H   0  0  0  0  0  0  0  0  0  0  0  0
   54.1913   24.3931   45.7374 H   0  0  0  0  0  0  0  0  0  0  0  0
   55.0407   22.8103   45.7374 H   0  0  0  0  0  0  0  0  0  0  0  0
   58.2715   23.9963   47.3420 H   0  0  0  0  0  0  0  0  0  0  0  0
   59.9500   25.7342   46.7648 H   0  0  0  0  0  0  0  0  0  0  0  0
   59.2202   27.9133   45.8110 H   0  0  0  0  0  0  0  0  0  0  0  0
   56.3091   31.6469   43.7644 H   0  0  0  0  0  0  0  0  0  0  0  0
   56.7183   34.0458   44.3066 H   0  0  0  0  0  0  0  0  0  0  0  0
   58.5619   34.6768   45.8555 H   0  0  0  0  0  0  0  0  0  0  0  0
   60.0199   32.9258   46.8500 H   0  0  0  0  0  0  0  0  0  0  0  0
   58.0966   31.0793   49.7759 H   0  0  0  0  0  0  0  0  0  0  0  0
   58.3731   33.0419   51.2876 H   0  0  0  0  0  0  0  0  0  0  0  0
   60.4790   34.3771   51.2423 H   0  0  0  0  0  0  0  0  0  0  0  0
   63.1133   32.6326   47.0960 H   0  0  0  0  0  0  0  0  0  0  0  0
   63.3118   34.4149   46.9927 H   0  0  0  0  0  0  0  0  0  0  0  0
   64.7575   33.3487   46.9927 H   0  0  0  0  0  0  0  0  0  0  0  0
   62.0827   31.7282   48.2207 H   0  0  0  0  0  0  0  0  0  0  0  0
  1  2  1  0
  2  3  1  0
  3  4  2  0
  4  5  1  0
  5  6  2  0
  6  7  1  0
  7  8  1  0
  8  9  2  0
  8 10  1  0
 10 11  1  0
 11 12  2  0
 12 13  1  0
 13 14  2  0
 14 15  1  0
 15 16  2  0
 16 17  1  0
 17 18  2  0
 17 19  1  0
 19 20  1  0
 20 21  2  0
 21 22  1  0
 22 23  2  0
 23 24  1  0
 24 25  1  0
 25 26  1  0
 26 27  1  0
 26 28  2  0
 24 29  2  0
  7 30  2  0
 30 31  1  0
 30  3  1  0
 16 11  1  0
 29 20  1  0
  1 32  1  0
  1 33  1  0
  1 34  1  0
  4 35  1  0
  5 36  1  0
  6 37  1  0
 12 38  1  0
 13 39  1  0
 14 40  1  0
 15 41  1  0
 21 42  1  0
 22 43  1  0
 23 44  1  0
 27 45  1  0
 27 46  1  0
 27 47  1  0
 29 48  1  0
M  CHG  4  10  -1  19  -1  25  -1  31  -1
M  END
>  <UniqueID>  (11) 
11

>  <SMILES>  (11) 
COc1cccc(C(=O)[N-]c2ccccc2C(=O)[N-]c2cccc([N-]C(C)=O)c2)c1[O-]

>  <Energy>  (11) 
70.92832555302036

>  <Genealogy>  (11) 
COc1cccc(C(=O)[N-]c2ccccc2C(=O)[N-]c2cccc([N-]C(C)=O)c2)c1[O-] (protonated)
COc1cccc(C(=O)[N-]c2ccccc2C(=O)[N-]c2cccc([N-]C(C)=O)c2)c1[O-] (3D coordinates assigned)
COc1cccc(C(=O)[N-]c2ccccc2C(=O)[N-]c2cccc([N-]C(C)=O)c2)c1[O-] (optimized conformer: 70.92832555302036 kcal/mol)

>  <smiles>  (11) 
COc1cccc(C(=O)Nc2ccccc2C(=O)Nc2cccc(NC(C)=O)c2)c1O

>  <score_type>  (11) 
oracle

>  <origin>  (11) 
adg

>  <m_score__min__energy>  (11) 
-16.129999999999999

>  <m_primary>  (11) 
energy

$$$$
11:0
     RDKit          3D

 63 66  0  0  0  0  0  0  0  0999 V2000
   61.7900   33.4620   48.6160 C   0  0  0  0  0  0  0  0  0  0  0  0
   60.6390   33.9350   49.4960 C   0  0  0  0  0  0  0  0  0  0  0  0
   59.6580   34.6220   48.7220 O   0  0  0  0  0  0  0  0  0  0  0  0
   59.2660   34.2860   47.4160 C   0  0  0  0  0  0  0  0  0  0  0  0
   59.4270   35.2480   46.4130 C   0  0  0  0  0  0  0  0  0  0  0  0
   59.0480   34.9710   45.1000 C   0  0  0  0  0  0  0  0  0  0  0  0
   58.4970   33.7310   44.7740 C   0  0  0  0  0  0  0  0  0  0  0  0
   58.3230   32.7470   45.7620 C   0  0  0  0  0  0  0  0  0  0  0  0
   57.7270   31.4360   45.4010 C   0  0  0  0  0  0  0  0  0  0  0  0
   56.6490   31.4080   44.7430 O   0  0  0  0  0  0  0  0  0  0  0  0
   58.3220   30.2050   45.8460 N   0  0  0  0  0  0  0  0  0  0  0  0
   57.9970   28.9160   45.2950 C   0  0  0  0  0  0  0  0  0  0  0  0
   58.6430   28.4830   44.1280 C   0  0  0  0  0  0  0  0  0  0  0  0
   58.3480   27.2340   43.5770 C   0  0  0  0  0  0  0  0  0  0  0  0
   57.4060   26.4020   44.1870 C   0  0  0  0  0  0  0  0  0  0  0  0
   56.7430   26.8230   45.3490 C   0  0  0  0  0  0  0  0  0  0  0  0
   55.7440   26.0080   45.9740 N   0  0  0  0  0  0  0  0  0  0  0  0
   56.0160   24.8940   46.8290 C   0  0  0  0  0  0  0  0  0  0  0  0
   55.0890   24.0810   47.0880 O   0  0  0  0  0  0  0  0  0  0  0  0
   57.2940   24.7750   47.4710 N   0  0  0  0  0  0  0  0  0  0  0  0
   58.4670   25.5640   47.2250 C   0  0  0  0  0  0  0  0  0  0  0  0
   59.4410   25.0570   46.3540 C   0  0  0  0  0  0  0  0  0  0  0  0
   60.5990   25.7890   46.0830 C   0  0  0  0  0  0  0  0  0  0  0  0
   60.8040   27.0270   46.6960 C   0  0  0  0  0  0  0  0  0  0  0  0
   59.8550   27.5350   47.5910 C   0  0  0  0  0  0  0  0  0  0  0  0
   60.1550   29.0810   48.3800 S   0  0  0  0  0  0  0  0  0  0  0  0
   58.8600   29.7010   48.8270 O   0  0  0  0  0  0  0  0  0  0  0  0
   60.8160   30.0020   47.3940 O   0  0  0  0  0  0  0  0  0  0  0  0
   61.2000   28.8340   49.7570 N   0  0  0  0  0  0  0  0  0  0  0  0
   60.6070   27.8680   50.7110 C   0  0  0  0  0  0  0  0  0  0  0  0
   60.0140   28.5670   51.9500 C   0  0  0  0  0  0  0  0  0  0  0  0
   60.9640   29.3470   52.6670 O   0  0  0  0  0  0  0  0  0  0  0  0
   61.9610   29.9400   51.8430 C   0  0  0  0  0  0  0  0  0  0  0  0
   61.5290   30.1320   50.3800 C   0  0  0  0  0  0  0  0  0  0  0  0
   58.6890   26.8000   47.8640 C   0  0  0  0  0  0  0  0  0  0  0  0
   57.0160   28.0920   45.8800 C   0  0  0  0  0  0  0  0  0  0  0  0
   58.7260   33.0260   47.0820 C   0  0  0  0  0  0  0  0  0  0  0  0
   62.6208   33.1206   49.2511 H   0  0  0  0  0  0  0  0  0  0  0  0
   61.4486   32.6313   47.9809 H   0  0  0  0  0  0  0  0  0  0  0  0
   62.1314   34.2927   47.9809 H   0  0  0  0  0  0  0  0  0  0  0  0
   60.1722   33.0635   49.9782 H   0  0  0  0  0  0  0  0  0  0  0  0
   61.0363   34.6256   50.2544 H   0  0  0  0  0  0  0  0  0  0  0  0
   59.8557   36.2300   46.6620 H   0  0  0  0  0  0  0  0  0  0  0  0
   59.1839   35.7328   44.3182 H   0  0  0  0  0  0  0  0  0  0  0  0
   58.1968   33.5224   43.7365 H   0  0  0  0  0  0  0  0  0  0  0  0
   58.9030   30.2240   46.7140 H   0  0  0  0  0  0  0  0  0  0  0  0
   59.3874   29.1317   43.6431 H   0  0  0  0  0  0  0  0  0  0  0  0
   58.8588   26.9045   42.6602 H   0  0  0  0  0  0  0  0  0  0  0  0
   57.1839   25.4150   43.7552 H   0  0  0  0  0  0  0  0  0  0  0  0
   59.2922   24.0754   45.8804 H   0  0  0  0  0  0  0  0  0  0  0  0
   61.3506   25.3900   45.3859 H   0  0  0  0  0  0  0  0  0  0  0  0
   61.7137   27.6045   46.4749 H   0  0  0  0  0  0  0  0  0  0  0  0
   59.8071   27.3113   50.2009 H   0  0  0  0  0  0  0  0  0  0  0  0
   61.4068   27.1943   51.0523 H   0  0  0  0  0  0  0  0  0  0  0  0
   59.1980   29.2271   51.6209 H   0  0  0  0  0  0  0  0  0  0  0  0
   59.6614   27.7780   52.6306 H   0  0  0  0  0  0  0  0  0  0  0  0
   62.2144   30.9254   52.2612 H   0  0  0  0  0  0  0  0  0  0  0  0
   62.8183   29.2509   51.8342 H   0  0  0  0  0  0  0  0  0  0  0  0
   60.6427   30.7827   50.3479 H   0  0  0  0  0  0  0  0  0  0  0  0
   62.3600   30.5902   49.8236 H   0  0  0  0  0  0  0  0  0  0  0  0
   57.9484   27.1901   48.5777 H   0  0  0  0  0  0  0  0  0  0  0  0
   56.4596   28.4465   46.7602 H   0  0  0  0  0  0  0  0  0  0  0  0
   58.6189   32.2551   47.8594 H   0  0  0  0  0  0  0  0  0  0  0  0
  1  2  1  0
  2  3  1  0
  3  4  1  0
  4  5  2  0
  5  6  1  0
  6  7  2  0
  7  8  1  0
  8  9  1  0
  9 10  2  0
  9 11  1  0
 11 12  1  0
 12 13  2  0
 13 14  1  0
 14 15  2  0
 15 16  1  0
 16 17  1  0
 17 18  1  0
 18 19  2  0
 18 20  1  0
 20 21  1  0
 21 22  2  0
 22 23  1  0
 23 24  2  0
 24 25  1  0
 25 26  1  0
 26 27  2  0
 26 28  2  0
 26 29  1  0
 29 30  1  0
 30 31  1  0
 31 32  1  0
 32 33  1  0
 33 34  1  0
 25 35  2  0
 16 36  2  0
  8 37  2  0
 37  4  1  0
 36 12  1  0
 35 21  1  0
 34 29  1  0
  1 38  1  0
  1 39  1  0
  1 40  1  0
  2 41  1  0
  2 42  1  0
  5 43  1  0
  6 44  1  0
  7 45  1  0
 11 46  1  0
 13 47  1  0
 14 48  1  0
 15 49  1  0
 22 50  1  0
 23 51  1  0
 24 52  1  0
 30 53  1  0
 30 54  1  0
 31 55  1  0
 31 56  1  0
 33 57  1  0
 33 58  1  0
 34 59  1  0
 34 60  1  0
 35 61  1  0
 36 62  1  0
 37 63  1  0
M  CHG  2  17  -1  20  -1
M  END
>  <UniqueID>  (12) 
12

>  <SMILES>  (12) 
CCOc1cccc(C(=O)Nc2cccc([N-]C(=O)[N-]c3cccc(S(=O)(=O)N4CCOCC4)c3)c2)c1

>  <Energy>  (12) 
89.09629371574475

>  <Genealogy>  (12) 
CCOc1cccc(C(=O)Nc2cccc([N-]C(=O)[N-]c3cccc(S(=O)(=O)N4CCOCC4)c3)c2)c1 (protonated)
CCOc1cccc(C(=O)Nc2cccc([N-]C(=O)[N-]c3cccc(S(=O)(=O)N4CCOCC4)c3)c2)c1 (3D coordinates assigned)
CCOc1cccc(C(=O)Nc2cccc([N-]C(=O)[N-]c3cccc(S(=O)(=O)N4CCOCC4)c3)c2)c1 (nonaromatic ring conformer: 89.09629371574475 kcal/mol)

>  <smiles>  (12) 
CCOc1cccc(C(=O)Nc2cccc(NC(=O)Nc3cccc(S(=O)(=O)N4CCOCC4)c3)c2)c1

>  <score_type>  (12) 
oracle

>  <origin>  (12) 
adg

>  <m_score__min__energy>  (12) 
-13.5

>  <m_primary>  (12) 
energy

$$$$
12:0
     RDKit          3D

 43 45  0  0  0  0  0  0  0  0999 V2000
   56.8810   30.6090   44.0730 C   0  0  0  0  0  0  0  0  0  0  0  0
   56.5630   31.7800   44.8180 O   0  0  0  0  0  0  0  0  0  0  0  0
   57.5080   32.7140   45.2680 C   0  0  0  0  0  0  0  0  0  0  0  0
   57.8480   33.8620   44.5250 C   0  0  0  0  0  0  0  0  0  0  0  0
   58.7980   34.7600   45.0150 C   0  0  0  0  0  0  0  0  0  0  0  0
   59.4120   34.5300   46.2480 C   0  0  0  0  0  0  0  0  0  0  0  0
   59.0740   33.3980   47.0010 C   0  0  0  0  0  0  0  0  0  0  0  0
   59.8030   33.1330   48.5800 S   0  0  0  0  0  0  0  0  0  0  0  0
   59.5890   34.3320   49.4610 O   0  0  0  0  0  0  0  0  0  0  0  0
   61.2790   32.9150   48.4050 O   0  0  0  0  0  0  0  0  0  0  0  0
   59.1070   31.7420   49.3530 N   0  0  0  0  0  0  0  0  0  0  0  0
   59.3660   30.4020   48.9070 C   0  0  0  0  0  0  0  0  0  0  0  0
   60.1080   29.5340   49.7190 C   0  0  0  0  0  0  0  0  0  0  0  0
   60.3610   28.2260   49.3060 C   0  0  0  0  0  0  0  0  0  0  0  0
   59.8800   27.7700   48.0750 C   0  0  0  0  0  0  0  0  0  0  0  0
   59.1420   28.6260   47.2400 C   0  0  0  0  0  0  0  0  0  0  0  0
   58.6710   28.1520   45.9110 C   0  0  0  0  0  0  0  0  0  0  0  0
   59.3770   28.3720   44.8910 O   0  0  0  0  0  0  0  0  0  0  0  0
   57.3940   27.5170   45.7340 N   0  0  0  0  0  0  0  0  0  0  0  0
   57.1500   26.2430   45.8640 C   0  0  0  0  0  0  0  0  0  0  0  0
   58.1630   25.3290   45.8490 N   0  0  0  0  0  0  0  0  0  0  0  0
   57.9310   23.9950   45.9800 C   0  0  0  0  0  0  0  0  0  0  0  0
   56.6260   23.5240   46.1270 C   0  0  0  0  0  0  0  0  0  0  0  0
   55.5670   24.4350   46.1320 C   0  0  0  0  0  0  0  0  0  0  0  0
   55.8250   25.8020   45.9990 C   0  0  0  0  0  0  0  0  0  0  0  0
   54.7710   26.7100   46.0130 O   0  0  0  0  0  0  0  0  0  0  0  0
   58.9060   29.9470   47.6600 C   0  0  0  0  0  0  0  0  0  0  0  0
   58.1280   32.4910   46.5040 C   0  0  0  0  0  0  0  0  0  0  0  0
   57.1051   29.7838   44.7650 H   0  0  0  0  0  0  0  0  0  0  0  0
   56.0250   30.3339   43.4392 H   0  0  0  0  0  0  0  0  0  0  0  0
   57.7585   30.8047   43.4392 H   0  0  0  0  0  0  0  0  0  0  0  0
   57.3633   34.0512   43.5558 H   0  0  0  0  0  0  0  0  0  0  0  0
   59.0637   35.6515   44.4280 H   0  0  0  0  0  0  0  0  0  0  0  0
   60.1622   35.2388   46.6286 H   0  0  0  0  0  0  0  0  0  0  0  0
   58.3080   31.9110   50.0050 H   0  0  0  0  0  0  0  0  0  0  0  0
   60.4931   29.8860   50.6874 H   0  0  0  0  0  0  0  0  0  0  0  0
   60.9414   27.5504   49.9515 H   0  0  0  0  0  0  0  0  0  0  0  0
   60.0803   26.7358   47.7585 H   0  0  0  0  0  0  0  0  0  0  0  0
   58.7729   23.2871   45.9700 H   0  0  0  0  0  0  0  0  0  0  0  0
   56.4330   22.4467   46.2378 H   0  0  0  0  0  0  0  0  0  0  0  0
   54.5325   24.0772   46.2404 H   0  0  0  0  0  0  0  0  0  0  0  0
   58.3531   30.6342   47.0026 H   0  0  0  0  0  0  0  0  0  0  0  0
   57.8703   31.5963   47.0897 H   0  0  0  0  0  0  0  0  0  0  0  0
  1  2  1  0
  2  3  1  0
  3  4  2  0
  4  5  1  0
  5  6  2  0
  6  7  1  0
  7  8  1  0
  8  9  2  0
  8 10  2  0
  8 11  1  0
 11 12  1  0
 12 13  2  0
 13 14  1  0
 14 15  2  0
 15 16  1  0
 16 17  1  0
 17 18  2  0
 17 19  1  0
 19 20  2  3
 20 21  1  0
 21 22  1  0
 22 23  2  0
 23 24  1  0
 24 25  2  0
 25 26  1  0
 16 27  2  0
  7 28  2  0
 28  3  1  0
 27 12  1  0
 25 20  1  0
  1 29  1  0
  1 30  1  0
  1 31  1  0
  4 32  1  0
  5 33  1  0
  6 34  1  0
 11 35  1  0
 13 36  1  0
 14 37  1  0
 15 38  1  0
 22 39  1  0
 23 40  1  0
 24 41  1  0
 27 42  1  0
 28 43  1  0
M  CHG  2  21  -1  26  -1
M  END
>  <UniqueID>  (13) 
13

>  <SMILES>  (13) 
COc1cccc(S(=O)(=O)Nc2cccc(C(=O)N=c3[n-]cccc3[O-])c2)c1

>  <Energy>  (13) 
54.28115149065287

>  <Genealogy>  (13) 
COc1cccc(S(=O)(=O)Nc2cccc(C(=O)N=c3[n-]cccc3[O-])c2)c1 (protonated)
COc1cccc(S(=O)(=O)Nc2cccc(C(=O)N=c3[n-]cccc3[O-])c2)c1 (3D coordinates assigned)
COc1cccc(S(=O)(=O)Nc2cccc(C(=O)N=c3[n-]cccc3[O-])c2)c1 (optimized conformer: 54.28115149065287 kcal/mol)

>  <smiles>  (13) 
COc1cccc(S(=O)(=O)Nc2cccc(C(=O)N=c3[nH]cccc3O)c2)c1

>  <score_type>  (13) 
oracle

>  <origin>  (13) 
adg

>  <m_score__min__energy>  (13) 
-14.550000000000001

>  <m_primary>  (13) 
energy

$$$$
13:0
     RDKit          3D

 37 39  0  0  0  0  0  0  0  0999 V2000
   55.8090   24.5690   46.4170 C   0  0  0  0  0  0  0  0  0  0  0  0
   56.8460   25.5160   46.0080 N   0  0  0  0  0  0  0  0  0  0  0  0
   56.4770   26.7390   45.6140 N   0  0  0  0  0  0  0  0  0  0  0  0
   57.3770   27.6790   45.2180 C   0  0  0  0  0  0  0  0  0  0  0  0
   56.9080   29.0150   44.7890 C   0  0  0  0  0  0  0  0  0  0  0  0
   55.8270   29.4770   45.2480 O   0  0  0  0  0  0  0  0  0  0  0  0
   57.6730   29.7900   43.8520 N   0  0  0  0  0  0  0  0  0  0  0  0
   57.2880   31.1450   43.4600 C   0  0  0  0  0  0  0  0  0  0  0  0
   57.8640   32.1490   44.4220 C   0  0  0  0  0  0  0  0  0  0  0  0
   58.1170   33.4670   44.0100 C   0  0  0  0  0  0  0  0  0  0  0  0
   58.6310   34.4040   44.9100 C   0  0  0  0  0  0  0  0  0  0  0  0
   58.8930   34.0370   46.2380 C   0  0  0  0  0  0  0  0  0  0  0  0
   59.4070   34.9710   47.1510 C   0  0  0  0  0  0  0  0  0  0  0  0
   59.6630   34.5930   48.4720 C   0  0  0  0  0  0  0  0  0  0  0  0
   59.4070   33.2850   48.8910 C   0  0  0  0  0  0  0  0  0  0  0  0
   58.8960   32.3460   47.9920 C   0  0  0  0  0  0  0  0  0  0  0  0
   58.6360   32.7110   46.6620 C   0  0  0  0  0  0  0  0  0  0  0  0
   58.1200   31.7770   45.7510 C   0  0  0  0  0  0  0  0  0  0  0  0
   58.7380   27.3540   45.2220 C   0  0  0  0  0  0  0  0  0  0  0  0
   59.1330   26.0840   45.6310 C   0  0  0  0  0  0  0  0  0  0  0  0
   58.1670   25.1600   46.0270 C   0  0  0  0  0  0  0  0  0  0  0  0
   58.5210   24.0080   46.3970 O   0  0  0  0  0  0  0  0  0  0  0  0
   55.7632   24.5272   47.5152 H   0  0  0  0  0  0  0  0  0  0  0  0
   54.8363   24.8970   46.0217 H   0  0  0  0  0  0  0  0  0  0  0  0
   56.0476   23.5706   46.0217 H   0  0  0  0  0  0  0  0  0  0  0  0
   58.5370   29.3850   43.4260 H   0  0  0  0  0  0  0  0  0  0  0  0
   57.6675   31.3521   42.4485 H   0  0  0  0  0  0  0  0  0  0  0  0
   56.1909   31.2240   43.4736 H   0  0  0  0  0  0  0  0  0  0  0  0
   57.9091   33.7641   42.9715 H   0  0  0  0  0  0  0  0  0  0  0  0
   58.8308   35.4328   44.5759 H   0  0  0  0  0  0  0  0  0  0  0  0
   59.6087   36.0024   46.8262 H   0  0  0  0  0  0  0  0  0  0  0  0
   60.0673   35.3276   49.1840 H   0  0  0  0  0  0  0  0  0  0  0  0
   59.6086   32.9937   49.9324 H   0  0  0  0  0  0  0  0  0  0  0  0
   58.6968   31.3175   48.3274 H   0  0  0  0  0  0  0  0  0  0  0  0
   57.9150   30.7476   46.0801 H   0  0  0  0  0  0  0  0  0  0  0  0
   59.4874   28.0943   44.9053 H   0  0  0  0  0  0  0  0  0  0  0  0
   60.1986   25.8113   45.6418 H   0  0  0  0  0  0  0  0  0  0  0  0
  1  2  1  0
  2  3  1  0
  3  4  2  0
  4  5  1  0
  5  6  2  0
  5  7  1  0
  7  8  1  0
  8  9  1  0
  9 10  2  0
 10 11  1  0
 11 12  2  0
 12 13  1  0
 13 14  2  0
 14 15  1  0
 15 16  2  0
 16 17  1  0
 17 18  2  0
  4 19  1  0
 19 20  2  0
 20 21  1  0
 21 22  2  0
 21  2  1  0
 18  9  1  0
 17 12  1  0
  1 23  1  0
  1 24  1  0
  1 25  1  0
  7 26  1  0
  8 27  1  0
  8 28  1  0
 10 29  1  0
 11 30  1  0
 13 31  1  0
 14 32  1  0
 15 33  1  0
 16 34  1  0
 18 35  1  0
 19 36  1  0
 20 37  1  0
M  END
>  <UniqueID>  (14) 
14

>  <SMILES>  (14) 
Cn1nc(C(=O)NCc2ccc3ccccc3c2)ccc1=O

>  <Energy>  (14) 
41.006693713915176

>  <Genealogy>  (14) 
Cn1nc(C(=O)NCc2ccc3ccccc3c2)ccc1=O (3D coordinates assigned)
Cn1nc(C(=O)NCc2ccc3ccccc3c2)ccc1=O (optimized conformer: 41.006693713915176 kcal/mol)

>  <smiles>  (14) 
Cn1nc(C(=O)NCc2ccc3ccccc3c2)ccc1=O

>  <score_type>  (14) 
oracle

>  <origin>  (14) 
adg

>  <m_score__min__energy>  (14) 
-8.1500000000000004

>  <m_primary>  (14) 
energy

$$$$
14:0
     RDKit          3D

 48 50  0  0  0  0  0  0  0  0999 V2000
   58.4510   30.3390   46.7620 C   0  0  0  0  0  0  0  0  0  0  0  0
   57.9560   30.8070   45.4090 C   0  0  0  0  0  0  0  0  0  0  0  0
   57.5660   29.8440   44.4320 C   0  0  0  0  0  0  0  0  0  0  0  0
   57.4890   28.3960   44.7120 C   0  0  0  0  0  0  0  0  0  0  0  0
   58.0900   27.5710   43.9730 O   0  0  0  0  0  0  0  0  0  0  0  0
   56.7890   27.9430   45.8730 N   0  0  0  0  0  0  0  0  0  0  0  0
   57.3080   26.9070   46.7550 C   0  0  0  0  0  0  0  0  0  0  0  0
   56.9860   25.5510   46.1820 C   0  0  0  0  0  0  0  0  0  0  0  0
   57.9920   24.5700   46.1310 C   0  0  0  0  0  0  0  0  0  0  0  0
   57.7260   23.3070   45.5970 C   0  0  0  0  0  0  0  0  0  0  0  0
   56.4560   23.0100   45.1040 C   0  0  0  0  0  0  0  0  0  0  0  0
   55.4500   23.9770   45.1360 C   0  0  0  0  0  0  0  0  0  0  0  0
   55.7020   25.2490   45.6640 C   0  0  0  0  0  0  0  0  0  0  0  0
   54.6650   26.1860   45.6530 O   0  0  0  0  0  0  0  0  0  0  0  0
   57.2590   30.2550   43.1280 C   0  0  0  0  0  0  0  0  0  0  0  0
   57.3190   31.5960   42.7750 C   0  0  0  0  0  0  0  0  0  0  0  0
   57.7000   32.5480   43.7120 C   0  0  0  0  0  0  0  0  0  0  0  0
   58.0280   32.1820   45.0280 C   0  0  0  0  0  0  0  0  0  0  0  0
   58.5650   33.4960   46.1170 S   0  0  0  0  0  0  0  0  0  0  0  0
   57.4890   33.8230   47.1140 O   0  0  0  0  0  0  0  0  0  0  0  0
   58.7750   34.7350   45.2900 O   0  0  0  0  0  0  0  0  0  0  0  0
   60.0870   33.1530   46.9170 N   0  0  0  0  0  0  0  0  0  0  0  0
   61.2190   33.8090   46.2480 C   0  0  0  0  0  0  0  0  0  0  0  0
   62.5170   33.4730   46.9930 C   0  0  0  0  0  0  0  0  0  0  0  0
   62.4390   33.8780   48.3470 O   0  0  0  0  0  0  0  0  0  0  0  0
   61.3870   33.1870   48.9950 C   0  0  0  0  0  0  0  0  0  0  0  0
   60.0410   33.5180   48.3410 C   0  0  0  0  0  0  0  0  0  0  0  0
   57.8977   30.8621   47.5559 H   0  0  0  0  0  0  0  0  0  0  0  0
   58.2903   29.2549   46.8563 H   0  0  0  0  0  0  0  0  0  0  0  0
   59.5244   30.5602   46.8563 H   0  0  0  0  0  0  0  0  0  0  0  0
   58.3987   27.0165   46.8470 H   0  0  0  0  0  0  0  0  0  0  0  0
   56.8443   27.0048   47.7477 H   0  0  0  0  0  0  0  0  0  0  0  0
   58.9971   24.7991   46.5149 H   0  0  0  0  0  0  0  0  0  0  0  0
   58.5194   22.5457   45.5654 H   0  0  0  0  0  0  0  0  0  0  0  0
   56.2467   22.0128   44.6895 H   0  0  0  0  0  0  0  0  0  0  0  0
   54.4508   23.7377   44.7431 H   0  0  0  0  0  0  0  0  0  0  0  0
   54.7700   27.1330   45.9890 H   0  0  0  0  0  0  0  0  0  0  0  0
   56.9674   29.5069   42.3761 H   0  0  0  0  0  0  0  0  0  0  0  0
   57.0642   31.9056   41.7507 H   0  0  0  0  0  0  0  0  0  0  0  0
   57.7457   33.6071   43.4184 H   0  0  0  0  0  0  0  0  0  0  0  0
   61.2888   33.4516   45.2100 H   0  0  0  0  0  0  0  0  0  0  0  0
   61.0657   34.8983   46.2509 H   0  0  0  0  0  0  0  0  0  0  0  0
   62.6862   32.3869   46.9507 H   0  0  0  0  0  0  0  0  0  0  0  0
   63.3483   34.0092   46.5121 H   0  0  0  0  0  0  0  0  0  0  0  0
   61.5674   32.1043   48.9231 H   0  0  0  0  0  0  0  0  0  0  0  0
   61.3550   33.4981   50.0496 H   0  0  0  0  0  0  0  0  0  0  0  0
   59.2413   32.9507   48.8396 H   0  0  0  0  0  0  0  0  0  0  0  0
   59.8404   34.5952   48.4379 H   0  0  0  0  0  0  0  0  0  0  0  0
  1  2  1  0
  2  3  2  0
  3  4  1  0
  4  5  2  0
  4  6  1  0
  6  7  1  0
  7  8  1  0
  8  9  2  0
  9 10  1  0
 10 11  2  0
 11 12  1  0
 12 13  2  0
 13 14  1  0
  3 15  1  0
 15 16  2  0
 16 17  1  0
 17 18  2  0
 18 19  1  0
 19 20  2  0
 19 21  2  0
 19 22  1  0
 22 23  1  0
 23 24  1  0
 24 25  1  0
 25 26  1  0
 26 27  1  0
 18  2  1  0
 27 22  1  0
 13  8  1  0
  1 28  1  0
  1 29  1  0
  1 30  1  0
  7 31  1  0
  7 32  1  0
  9 33  1  0
 10 34  1  0
 11 35  1  0
 12 36  1  0
 14 37  1  0
 15 38  1  0
 16 39  1  0
 17 40  1  0
 23 41  1  0
 23 42  1  0
 24 43  1  0
 24 44  1  0
 26 45  1  0
 26 46  1  0
 27 47  1  0
 27 48  1  0
M  CHG  1   6  -1
M  END
>  <UniqueID>  (15) 
15

>  <SMILES>  (15) 
Cc1c(C(=O)[N-]Cc2ccccc2O)cccc1S(=O)(=O)N1CCOCC1

>  <Energy>  (15) 
63.212643800680475

>  <Genealogy>  (15) 
Cc1c(C(=O)[N-]Cc2ccccc2O)cccc1S(=O)(=O)N1CCOCC1 (protonated)
Cc1c(C(=O)[N-]Cc2ccccc2O)cccc1S(=O)(=O)N1CCOCC1 (3D coordinates assigned)
Cc1c(C(=O)[N-]Cc2ccccc2O)cccc1S(=O)(=O)N1CCOCC1 (nonaromatic ring conformer: 63.212643800680475 kcal/mol)

>  <smiles>  (15) 
Cc1c(C(=O)NCc2ccccc2O)cccc1S(=O)(=O)N1CCOCC1

>  <score_type>  (15) 
oracle

>  <origin>  (15) 
adg

>  <m_score__min__energy>  (15) 
-12

>  <m_primary>  (15) 
energy

$$$$
15:0
     RDKit          3D

 50 51  0  0  0  0  0  0  0  0999 V2000
   55.5920   30.0940   45.6430 H   0  0  0  0  0  0  0  0  0  0  0  0
   55.8780   30.5240   44.7710 O   0  0  0  0  0  0  0  0  0  0  0  0
   57.1900   30.9430   44.5520 C   0  0  0  0  0  0  0  0  0  0  0  0
   58.2640   30.3450   45.3790 C   0  0  0  0  0  0  0  0  0  0  0  0
   59.4770   30.4880   45.0650 O   0  0  0  0  0  0  0  0  0  0  0  0
   57.9020   29.6120   46.5160 O   0  0  0  0  0  0  0  0  0  0  0  0
   58.7500   28.7670   47.2500 C   0  0  0  0  0  0  0  0  0  0  0  0
   59.2330   29.1340   48.5210 C   0  0  0  0  0  0  0  0  0  0  0  0
   58.9786   30.1189   48.9398 H   0  0  0  0  0  0  0  0  0  0  0  0
   60.0330   28.2540   49.2520 C   0  0  0  0  0  0  0  0  0  0  0  0
   60.4035   28.5463   50.2456 H   0  0  0  0  0  0  0  0  0  0  0  0
   60.3640   27.0050   48.7260 C   0  0  0  0  0  0  0  0  0  0  0  0
   60.9797   26.3072   49.3125 H   0  0  0  0  0  0  0  0  0  0  0  0
   59.9140   26.6400   47.4550 C   0  0  0  0  0  0  0  0  0  0  0  0
   60.1710   25.6512   47.0473 H   0  0  0  0  0  0  0  0  0  0  0  0
   59.1360   27.5270   46.6950 C   0  0  0  0  0  0  0  0  0  0  0  0
   58.6780   27.1010   45.3560 C   0  0  0  0  0  0  0  0  0  0  0  0
   59.2507   27.4193   44.4724 H   0  0  0  0  0  0  0  0  0  0  0  0
   57.5900   26.3410   45.1820 C   0  0  0  0  0  0  0  0  0  0  0  0
   57.6881   25.3867   44.6437 H   0  0  0  0  0  0  0  0  0  0  0  0
   56.2650   26.7410   45.6880 C   0  0  0  0  0  0  0  0  0  0  0  0
   55.9050   27.9410   45.5670 O   0  0  0  0  0  0  0  0  0  0  0  0
   55.3670   25.8040   46.2970 N   0  0  0  0  0  0  0  0  0  0  0  0
   55.6710   24.4360   46.6180 C   0  0  0  0  0  0  0  0  0  0  0  0
   56.3570   24.1090   47.8030 C   0  0  0  0  0  0  0  0  0  0  0  0
   56.6712   24.9076   48.4911 H   0  0  0  0  0  0  0  0  0  0  0  0
   56.6410   22.7760   48.1100 C   0  0  0  0  0  0  0  0  0  0  0  0
   57.3040   22.4710   49.2520 F   0  0  0  0  0  0  0  0  0  0  0  0
   56.2340   21.7580   47.2470 C   0  0  0  0  0  0  0  0  0  0  0  0
   56.4649   20.7096   47.4870 H   0  0  0  0  0  0  0  0  0  0  0  0
   55.5340   22.0680   46.0790 C   0  0  0  0  0  0  0  0  0  0  0  0
   55.2123   21.2610   45.4043 H   0  0  0  0  0  0  0  0  0  0  0  0
   55.2380   23.4040   45.7600 C   0  0  0  0  0  0  0  0  0  0  0  0
   54.4940   23.7270   44.4940 C   0  0  0  0  0  0  0  0  0  0  0  0
   53.5115   24.1535   44.7447 H   0  0  0  0  0  0  0  0  0  0  0  0
   55.0707   24.4557   43.9055 H   0  0  0  0  0  0  0  0  0  0  0  0
   54.3554   22.8080   43.9055 H   0  0  0  0  0  0  0  0  0  0  0  0
   57.3960   31.8660   43.5970 C   0  0  0  0  0  0  0  0  0  0  0  0
   56.8924   31.7203   42.6299 H   0  0  0  0  0  0  0  0  0  0  0  0
   58.2530   33.0670   43.7520 C   0  0  0  0  0  0  0  0  0  0  0  0
   58.9582   33.3102   42.9436 H   0  0  0  0  0  0  0  0  0  0  0  0
   58.2150   33.8750   44.8270 C   0  0  0  0  0  0  0  0  0  0  0  0
   59.3650   34.7810   45.1870 C   0  0  0  0  0  0  0  0  0  0  0  0
   59.4502   34.8481   46.2816 H   0  0  0  0  0  0  0  0  0  0  0  0
   60.2978   34.3725   44.7710 H   0  0  0  0  0  0  0  0  0  0  0  0
   59.1861   35.7835   44.7710 H   0  0  0  0  0  0  0  0  0  0  0  0
   56.9890   33.8530   45.7000 C   0  0  0  0  0  0  0  0  0  0  0  0
   57.2917   33.8584   46.7575 H   0  0  0  0  0  0  0  0  0  0  0  0
   56.3735   34.7402   45.4902 H   0  0  0  0  0  0  0  0  0  0  0  0
   56.4058   32.9442   45.4902 H   0  0  0  0  0  0  0  0  0  0  0  0
  1  2  1  0
  2  3  1  0
  3  4  1  0
  4  5  2  0
  4  6  1  0
  6  7  1  0
  7  8  2  0
  8  9  1  0
  8 10  1  0
 10 11  1  0
 10 12  2  0
 12 13  1  0
 12 14  1  0
 14 15  1  0
 14 16  2  0
 16 17  1  0
 17 18  1  0
 17 19  2  0
 19 20  1  0
 19 21  1  0
 21 22  2  0
 21 23  1  0
 23 24  1  0
 24 25  2  0
 25 26  1  0
 25 27  1  0
 27 28  1  0
 27 29  2  0
 29 30  1  0
 29 31  1  0
 31 32  1  0
 31 33  2  0
 33 34  1  0
 34 35  1  0
 34 36  1  0
 34 37  1  0
  3 38  2  3
 38 39  1  0
 38 40  1  0
 40 41  1  0
 40 42  2  3
 42 43  1  0
 43 44  1  0
 43 45  1  0
 43 46  1  0
 42 47  1  0
 47 48  1  0
 47 49  1  0
 47 50  1  0
 16  7  1  0
 33 24  1  0
M  CHG  1  23  -1
M  END
>  <UniqueID>  (16) 
16

>  <SMILES>  (16) 
CC(C)=CC=C(O)C(=O)Oc1ccccc1/C=C/C(=O)[N-]c1cc(F)ccc1C

>  <Energy>  (16) 
63.02475317724357

>  <Genealogy>  (16) 
CC(C)=CC=C(O)C(=O)Oc1ccccc1C=CC(=O)[N-]c1cc(F)ccc1C (protonated)
CC(C)=CC=C(O)C(=O)Oc1ccccc1/C=C/C(=O)[N-]c1cc(F)ccc1C (cis-trans isomerization)
CC(C)=CC=C(O)C(=O)Oc1ccccc1/C=C/C(=O)[N-]c1cc(F)ccc1C (3D coordinates assigned)
CC(C)=CC=C(O)C(=O)Oc1ccccc1/C=C/C(=O)[N-]c1cc(F)ccc1C (optimized conformer: 63.02475317724357 kcal/mol)

>  <smiles>  (16) 
CC(C)=CC=C(O)C(=O)Oc1ccccc1C=CC(=O)Nc1cc(F)ccc1C

>  <score_type>  (16) 
oracle

>  <origin>  (16) 
adg

>  <m_score__min__energy>  (16) 
-11.44

>  <m_primary>  (16) 
energy

$$$$
16:0
     RDKit          3D

 61 63  0  0  0  0  0  0  0  0999 V2000
   63.5960   33.7620   47.4650 N   0  0  0  0  0  0  0  0  0  0  0  0
   62.4460   33.6710   47.3890 C   0  0  0  0  0  0  0  0  0  0  0  0
   61.0130   33.5610   47.3010 C   0  0  0  0  0  0  0  0  0  0  0  0
   60.3510   33.9290   46.1230 C   0  0  0  0  0  0  0  0  0  0  0  0
   58.9630   33.7930   46.0300 C   0  0  0  0  0  0  0  0  0  0  0  0
   58.2320   33.2850   47.1070 C   0  0  0  0  0  0  0  0  0  0  0  0
   58.8850   32.9210   48.2960 C   0  0  0  0  0  0  0  0  0  0  0  0
   58.1050   32.3240   49.4410 C   0  0  0  0  0  0  0  0  0  0  0  0
   58.9250   31.2480   50.1830 C   0  0  2  0  0  0  0  0  0  0  0  0
   59.1050   30.0390   49.3740 N   0  0  0  0  0  0  0  0  0  0  0  0
   60.0370   29.9110   48.2910 C   0  0  0  0  0  0  0  0  0  0  0  0
   61.2420   30.2410   48.4620 O   0  0  0  0  0  0  0  0  0  0  0  0
   59.5830   29.4190   46.9700 C   0  0  0  0  0  0  0  0  0  0  0  0
   60.2370   28.3430   46.3440 C   0  0  0  0  0  0  0  0  0  0  0  0
   59.7750   27.8510   45.1220 C   0  0  0  0  0  0  0  0  0  0  0  0
   58.6520   28.4180   44.5130 C   0  0  0  0  0  0  0  0  0  0  0  0
   57.9830   29.4820   45.1280 C   0  0  0  0  0  0  0  0  0  0  0  0
   56.5520   30.1900   44.3840 S   0  0  0  0  0  0  0  0  0  0  0  0
   55.1520   29.3050   44.8770 N   0  0  0  0  0  0  0  0  0  0  0  0
   56.6870   30.1310   42.8880 O   0  0  0  0  0  0  0  0  0  0  0  0
   56.4100   31.6280   44.8020 O   0  0  0  0  0  0  0  0  0  0  0  0
   58.4540   29.9860   46.3470 C   0  0  0  0  0  0  0  0  0  0  0  0
   58.2920   30.8850   51.5000 C   0  0  0  0  0  0  0  0  0  0  0  0
   58.8260   31.2620   52.5780 O   0  0  0  0  0  0  0  0  0  0  0  0
   57.0730   30.1410   51.5220 N   0  0  0  0  0  0  0  0  0  0  0  0
   56.3910   29.7590   52.7490 C   0  0  0  0  0  0  0  0  0  0  0  0
   54.9080   29.5310   52.4540 C   0  0  0  0  0  0  0  0  0  0  0  0
   54.0310   30.6600   53.0190 C   0  0  0  0  0  0  0  0  0  0  0  0
   52.5950   30.4290   52.7370 N   0  0  0  0  0  0  0  0  0  0  0  0
   51.7160   31.2840   53.5750 C   0  0  0  0  0  0  0  0  0  0  0  0
   50.5330   31.8610   52.7830 C   0  0  0  0  0  0  0  0  0  0  0  0
   50.9770   32.6430   51.6910 O   0  0  0  0  0  0  0  0  0  0  0  0
   51.9590   31.9920   50.8910 C   0  0  0  0  0  0  0  0  0  0  0  0
   52.2980   30.5420   51.2930 C   0  0  0  0  0  0  0  0  0  0  0  0
   60.2800   33.0610   48.3860 C   0  0  0  0  0  0  0  0  0  0  0  0
   60.9233   34.3250   45.2711 H   0  0  0  0  0  0  0  0  0  0  0  0
   58.4443   34.0870   45.1056 H   0  0  0  0  0  0  0  0  0  0  0  0
   57.1413   33.1698   47.0234 H   0  0  0  0  0  0  0  0  0  0  0  0
   57.8408   33.1234   50.1489 H   0  0  0  0  0  0  0  0  0  0  0  0
   57.2011   31.8486   49.0324 H   0  0  0  0  0  0  0  0  0  0  0  0
   59.9152   31.6882   50.3718 H   0  0  0  0  0  0  0  0  0  0  0  0
   61.1174   27.8865   46.8198 H   0  0  0  0  0  0  0  0  0  0  0  0
   60.2971   27.0134   44.6363 H   0  0  0  0  0  0  0  0  0  0  0  0
   58.2937   28.0273   43.5491 H   0  0  0  0  0  0  0  0  0  0  0  0
   55.4570   28.6450   45.6260 H   0  0  0  0  0  0  0  0  0  0  0  0
   57.9373   30.8327   46.8224 H   0  0  0  0  0  0  0  0  0  0  0  0
   56.8340   28.8321   53.1422 H   0  0  0  0  0  0  0  0  0  0  0  0
   56.4990   30.5602   53.4949 H   0  0  0  0  0  0  0  0  0  0  0  0
   54.7657   29.4815   51.3644 H   0  0  0  0  0  0  0  0  0  0  0  0
   54.6051   28.5901   52.9366 H   0  0  0  0  0  0  0  0  0  0  0  0
   54.1766   30.7141   54.1080 H   0  0  0  0  0  0  0  0  0  0  0  0
   54.3292   31.6018   52.5352 H   0  0  0  0  0  0  0  0  0  0  0  0
   51.3236   30.6796   54.4061 H   0  0  0  0  0  0  0  0  0  0  0  0
   52.3189   32.1284   53.9403 H   0  0  0  0  0  0  0  0  0  0  0  0
   49.9179   31.0319   52.4032 H   0  0  0  0  0  0  0  0  0  0  0  0
   49.9468   32.5050   53.4551 H   0  0  0  0  0  0  0  0  0  0  0  0
   51.5941   31.9781   49.8534 H   0  0  0  0  0  0  0  0  0  0  0  0
   52.8870   32.5658   51.0310 H   0  0  0  0  0  0  0  0  0  0  0  0
   51.4402   29.8962   51.0541 H   0  0  0  0  0  0  0  0  0  0  0  0
   53.1932   30.2320   50.7340 H   0  0  0  0  0  0  0  0  0  0  0  0
   60.7997   32.7767   49.3129 H   0  0  0  0  0  0  0  0  0  0  0  0
  1  2  3  0
  2  3  1  0
  3  4  2  0
  4  5  1  0
  5  6  2  0
  6  7  1  0
  7  8  1  0
  8  9  1  0
  9 10  1  0
 10 11  1  0
 11 12  2  0
 11 13  1  0
 13 14  2  0
 14 15  1  0
 15 16  2  0
 16 17  1  0
 17 18  1  0
 18 19  1  0
 18 20  2  0
 18 21  2  0
 17 22  2  0
  9 23  1  0
 23 24  2  0
 23 25  1  0
 25 26  1  0
 26 27  1  0
 27 28  1  0
 28 29  1  0
 29 30  1  0
 30 31  1  0
 31 32  1  0
 32 33  1  0
 33 34  1  0
  7 35  2  0
 35  3  1  0
 22 13  1  0
 34 29  1  0
  4 36  1  0
  5 37  1  0
  6 38  1  0
  8 39  1  0
  8 40  1  0
  9 41  1  1
 14 42  1  0
 15 43  1  0
 16 44  1  0
 19 45  1  0
 22 46  1  0
 26 47  1  0
 26 48  1  0
 27 49  1  0
 27 50  1  0
 28 51  1  0
 28 52  1  0
 30 53  1  0
 30 54  1  0
 31 55  1  0
 31 56  1  0
 33 57  1  0
 33 58  1  0
 34 59  1  0
 34 60  1  0
 35 61  1  0
M  CHG  3  10  -1  19  -1  25  -1
M  END
>  <UniqueID>  (17) 
17

>  <SMILES>  (17) 
N#Cc1cccc(C[C@H]([N-]C(=O)c2cccc(S([NH-])(=O)=O)c2)C(=O)[N-]CCCN2CCOCC2)c1

>  <Energy>  (17) 
72.04846902138524

>  <Genealogy>  (17) 
N#Cc1cccc(CC([N-]C(=O)c2cccc(S([NH-])(=O)=O)c2)C(=O)[N-]CCCN2CCOCC2)c1 (protonated)
N#Cc1cccc(C[C@H]([N-]C(=O)c2cccc(S([NH-])(=O)=O)c2)C(=O)[N-]CCCN2CCOCC2)c1 (chirality)
N#Cc1cccc(C[C@H]([N-]C(=O)c2cccc(S([NH-])(=O)=O)c2)C(=O)[N-]CCCN2CCOCC2)c1 (3D coordinates assigned)
N#Cc1cccc(C[C@H]([N-]C(=O)c2cccc(S([NH-])(=O)=O)c2)C(=O)[N-]CCCN2CCOCC2)c1 (nonaromatic ring conformer: 72.04846902138524 kcal/mol)

>  <smiles>  (17) 
N#Cc1cccc(CC(NC(=O)c2cccc(S(N)(=O)=O)c2)C(=O)NCCCN2CCOCC2)c1

>  <score_type>  (17) 
oracle

>  <origin>  (17) 
adg

>  <m_score__min__energy>  (17) 
-15.23

>  <m_primary>  (17) 
energy

$$$$
17:0
     RDKit          3D

 38 39  0  0  1  0  0  0  0  0999 V2000
   57.6840   30.5040   43.7380 O   0  0  0  0  0  0  0  0  0  0  0  0
   57.0290   29.5770   44.2740 C   0  0  0  0  0  0  0  0  0  0  0  0
   55.8870   29.9240   45.0210 O   0  0  0  0  0  0  0  0  0  0  0  0
   57.3840   28.1450   44.1690 C   0  0  0  0  0  0  0  0  0  0  0  0
   58.8690   27.8900   44.0950 C   0  0  0  0  0  0  0  0  0  0  0  0
   59.5130   27.7300   45.4610 C   0  0  0  0  0  0  0  0  0  0  0  0
   59.8920   29.0450   45.9300 N   0  0  0  0  0  0  0  0  0  0  0  0
   59.0330   29.9300   46.6270 C   0  0  0  0  0  0  0  0  0  0  0  0
   57.8210   29.5550   46.8610 O   0  0  0  0  0  0  0  0  0  0  0  0
   59.3970   31.1800   47.0950 N   0  0  0  0  0  0  0  0  0  0  0  0
   59.0680   32.2860   46.6180 C   0  0  0  0  0  0  0  0  0  0  0  0
   57.9260   32.3080   45.8650 N   0  0  0  0  0  0  0  0  0  0  0  0
   57.4270   33.4110   45.3150 C   0  0  0  0  0  0  0  0  0  0  0  0
   58.1020   34.5640   45.5220 N   0  0  0  0  0  0  0  0  0  0  0  0
   59.2270   34.5940   46.2530 C   0  0  0  0  0  0  0  0  0  0  0  0
   59.7610   33.4290   46.8380 C   0  0  0  0  0  0  0  0  0  0  0  0
   61.0070   33.6150   47.5250 C   0  0  0  0  0  0  0  0  0  0  0  0
   62.1670   33.1910   46.8550 C   0  0  0  0  0  0  0  0  0  0  0  0
   63.4030   33.2370   47.4620 C   0  0  0  0  0  0  0  0  0  0  0  0
   63.5550   33.7100   48.7720 C   0  0  0  0  0  0  0  0  0  0  0  0
   64.7700   33.7560   49.3680 F   0  0  0  0  0  0  0  0  0  0  0  0
   62.4110   34.1230   49.4200 C   0  0  0  0  0  0  0  0  0  0  0  0
   61.1930   34.0710   48.8020 C   0  0  0  0  0  0  0  0  0  0  0  0
   55.8900   29.7540   46.0070 H   0  0  0  0  0  0  0  0  0  0  0  0
   56.9861   27.6233   45.0519 H   0  0  0  0  0  0  0  0  0  0  0  0
   56.9480   27.7748   43.2294 H   0  0  0  0  0  0  0  0  0  0  0  0
   59.0381   26.9690   43.5178 H   0  0  0  0  0  0  0  0  0  0  0  0
   59.3295   28.7661   43.6150 H   0  0  0  0  0  0  0  0  0  0  0  0
   58.7966   27.2755   46.1611 H   0  0  0  0  0  0  0  0  0  0  0  0
   60.3960   27.0774   45.3946 H   0  0  0  0  0  0  0  0  0  0  0  0
   60.8640   29.3840   45.7510 H   0  0  0  0  0  0  0  0  0  0  0  0
   57.3850   31.4150   45.6920 H   0  0  0  0  0  0  0  0  0  0  0  0
   56.5041   33.3864   44.7169 H   0  0  0  0  0  0  0  0  0  0  0  0
   59.7456   35.5530   46.3992 H   0  0  0  0  0  0  0  0  0  0  0  0
   62.0867   32.8146   45.8245 H   0  0  0  0  0  0  0  0  0  0  0  0
   64.2889   32.8953   46.9066 H   0  0  0  0  0  0  0  0  0  0  0  0
   62.4792   34.5005   50.4509 H   0  0  0  0  0  0  0  0  0  0  0  0
   60.3118   34.4154   49.3631 H   0  0  0  0  0  0  0  0  0  0  0  0
  1  2  2  0
  2  3  1  0
  2  4  1  0
  4  5  1  0
  5  6  1  0
  6  7  1  0
  7  8  1  0
  8  9  2  0
  8 10  1  0
 10 11  2  0
 11 12  1  0
 12 13  1  0
 13 14  2  0
 14 15  1  0
 15 16  2  0
 16 17  1  0
 17 18  2  0
 18 19  1  0
 19 20  2  0
 20 21  1  0
 20 22  1  0
 22 23  2  0
 16 11  1  0
 23 17  1  0
  3 24  1  0
  4 25  1  0
  4 26  1  0
  5 27  1  0
  5 28  1  0
  6 29  1  0
  6 30  1  0
  7 31  1  0
 12 32  1  0
 13 33  1  0
 15 34  1  0
 18 35  1  0
 19 36  1  0
 22 37  1  0
 23 38  1  0
M  END
>  <smiles>  (18) 
O=C(O)CCCNC(=O)N=c1[nH]cncc1-c1ccc(F)cc1

>  <score_type>  (18) 
oracle

>  <origin>  (18) 
adg

>  <m_score__min__energy>  (18) 
-8.3000000000000007

>  <m_primary>  (18) 
energy

$$$$
18:0
     RDKit          3D

 42 43  0  0  0  0  0  0  0  0999 V2000
   56.5240   24.7550   45.1000 C   0  0  0  0  0  0  0  0  0  0  0  0
   55.2970   25.4230   45.7220 C   0  0  0  0  0  0  0  0  0  0  0  0
   55.5230   26.8560   45.8760 N   0  0  0  0  0  0  0  0  0  0  0  0
   56.8250   27.4400   46.0060 C   0  0  0  0  0  0  0  0  0  0  0  0
   57.4080   27.4630   47.1260 O   0  0  0  0  0  0  0  0  0  0  0  0
   57.5040   27.9960   44.7980 C   0  0  0  0  0  0  0  0  0  0  0  0
   56.6230   29.4330   44.2000 S   0  0  0  0  0  0  0  0  0  0  0  0
   55.2890   29.5030   44.8880 O   0  0  0  0  0  0  0  0  0  0  0  0
   56.4090   29.2420   42.7220 O   0  0  0  0  0  0  0  0  0  0  0  0
   57.4960   30.9500   44.4900 C   0  0  0  0  0  0  0  0  0  0  0  0
   57.9890   31.2310   45.7770 C   0  0  0  0  0  0  0  0  0  0  0  0
   58.6850   32.4180   46.0420 C   0  0  0  0  0  0  0  0  0  0  0  0
   59.2070   32.6460   47.3620 N   0  0  0  0  0  0  0  0  0  0  0  0
   59.4740   33.9430   47.9130 C   0  0  0  0  0  0  0  0  0  0  0  0
   59.1110   34.9830   47.3010 O   0  0  0  0  0  0  0  0  0  0  0  0
   60.1610   34.0350   49.1670 N   0  0  0  0  0  0  0  0  0  0  0  0
   61.5430   33.7410   49.4350 C   0  0  0  0  0  0  0  0  0  0  0  0
   62.0900   33.7870   50.7310 C   0  0  0  0  0  0  0  0  0  0  0  0
   63.4440   33.4880   50.9330 C   0  0  0  0  0  0  0  0  0  0  0  0
   64.2550   33.1200   49.8540 C   0  0  0  0  0  0  0  0  0  0  0  0
   65.9440   32.7110   50.1210 Cl  0  0  0  0  0  0  0  0  0  0  0  0
   63.7120   33.0460   48.5700 C   0  0  0  0  0  0  0  0  0  0  0  0
   62.3620   33.3530   48.3620 C   0  0  0  0  0  0  0  0  0  0  0  0
   58.9060   33.3310   44.9980 C   0  0  0  0  0  0  0  0  0  0  0  0
   58.3930   33.0790   43.7240 C   0  0  0  0  0  0  0  0  0  0  0  0
   57.6820   31.9030   43.4630 C   0  0  0  0  0  0  0  0  0  0  0  0
   57.0190   31.6890   41.8440 Cl  0  0  0  0  0  0  0  0  0  0  0  0
   57.1887   24.3931   45.8983 H   0  0  0  0  0  0  0  0  0  0  0  0
   56.2035   23.9069   44.4771 H   0  0  0  0  0  0  0  0  0  0  0  0
   57.0624   25.4845   44.4771 H   0  0  0  0  0  0  0  0  0  0  0  0
   54.4262   25.2612   45.0697 H   0  0  0  0  0  0  0  0  0  0  0  0
   55.1135   24.9816   46.7127 H   0  0  0  0  0  0  0  0  0  0  0  0
   58.5330   28.2837   45.0598 H   0  0  0  0  0  0  0  0  0  0  0  0
   57.5172   27.2294   44.0092 H   0  0  0  0  0  0  0  0  0  0  0  0
   57.8255   30.5070   46.5889 H   0  0  0  0  0  0  0  0  0  0  0  0
   59.3490   31.8170   47.9860 H   0  0  0  0  0  0  0  0  0  0  0  0
   61.4538   34.0580   51.5864 H   0  0  0  0  0  0  0  0  0  0  0  0
   63.8714   33.5429   51.9451 H   0  0  0  0  0  0  0  0  0  0  0  0
   64.3449   32.7465   47.7217 H   0  0  0  0  0  0  0  0  0  0  0  0
   61.9387   33.2897   47.3487 H   0  0  0  0  0  0  0  0  0  0  0  0
   59.4850   34.2475   45.1845 H   0  0  0  0  0  0  0  0  0  0  0  0
   58.5494   33.8117   42.9186 H   0  0  0  0  0  0  0  0  0  0  0  0
  1  2  1  0
  2  3  1  0
  3  4  1  0
  4  5  2  0
  4  6  1  0
  6  7  1  0
  7  8  2  0
  7  9  2  0
  7 10  1  0
 10 11  2  0
 11 12  1  0
 12 13  1  0
 13 14  1  0
 14 15  2  0
 14 16  1  0
 16 17  1  0
 17 18  2  0
 18 19  1  0
 19 20  2  0
 20 21  1  0
 20 22  1  0
 22 23  2  0
 12 24  2  0
 24 25  1  0
 25 26  2  0
 26 27  1  0
 26 10  1  0
 23 17  1  0
  1 28  1  0
  1 29  1  0
  1 30  1  0
  2 31  1  0
  2 32  1  0
  6 33  1  0
  6 34  1  0
 11 35  1  0
 13 36  1  0
 18 37  1  0
 19 38  1  0
 22 39  1  0
 23 40  1  0
 24 41  1  0
 25 42  1  0
M  CHG  2   3  -1  16  -1
M  END
>  <UniqueID>  (19) 
18

>  <SMILES>  (19) 
CC[N-]C(=O)CS(=O)(=O)c1cc(NC(=O)[N-]c2ccc(Cl)cc2)ccc1Cl

>  <Energy>  (19) 
43.14109601496525

>  <Genealogy>  (19) 
CC[N-]C(=O)CS(=O)(=O)c1cc(NC(=O)[N-]c2ccc(Cl)cc2)ccc1Cl (protonated)
CC[N-]C(=O)CS(=O)(=O)c1cc(NC(=O)[N-]c2ccc(Cl)cc2)ccc1Cl (3D coordinates assigned)
CC[N-]C(=O)CS(=O)(=O)c1cc(NC(=O)[N-]c2ccc(Cl)cc2)ccc1Cl (optimized conformer: 43.14109601496525 kcal/mol)

>  <smiles>  (19) 
CCNC(=O)CS(=O)(=O)c1cc(NC(=O)Nc2ccc(Cl)cc2)ccc1Cl

>  <score_type>  (19) 
oracle

>  <origin>  (19) 
adg

>  <m_score__min__energy>  (19) 
-11.84

>  <m_primary>  (19) 
energy

$$$$
19:0
     RDKit          3D

 42 45  0  0  0  0  0  0  0  0999 V2000
   57.0100   34.6000   44.8290 C   0  0  0  0  0  0  0  0  0  0  0  0
   58.3600   33.9430   45.1860 C   0  0  1  0  0  0  0  0  0  0  0  0
   58.9730   34.7150   46.3680 C   0  0  0  0  0  0  0  0  0  0  0  0
   60.1250   34.0430   46.8480 O   0  0  0  0  0  0  0  0  0  0  0  0
   60.1090   32.6640   47.0280 C   0  0  0  0  0  0  0  0  0  0  0  0
   61.0620   32.0630   47.8650 C   0  0  0  0  0  0  0  0  0  0  0  0
   62.0490   32.8700   48.5250 N   0  0  0  0  0  0  0  0  0  0  0  0
   61.6860   33.6260   49.7280 C   0  0  0  0  0  0  0  0  0  0  0  0
   62.9460   34.1450   50.4330 C   0  0  0  0  0  0  0  0  0  0  0  0
   63.9880   33.1110   50.4410 N   0  0  0  0  0  0  0  0  0  0  0  0
   64.4620   32.7720   49.0840 C   0  0  0  0  0  0  0  0  0  0  0  0
   63.4050   32.9730   47.9780 C   0  0  0  0  0  0  0  0  0  0  0  0
   61.0270   30.6790   48.0710 C   0  0  0  0  0  0  0  0  0  0  0  0
   61.9160   30.0860   48.9070 F   0  0  0  0  0  0  0  0  0  0  0  0
   60.0560   29.9000   47.4410 C   0  0  0  0  0  0  0  0  0  0  0  0
   59.1130   30.4890   46.5760 C   0  0  0  0  0  0  0  0  0  0  0  0
   58.1580   29.7080   45.9060 C   0  0  0  0  0  0  0  0  0  0  0  0
   58.1070   28.4640   46.1110 O   0  0  0  0  0  0  0  0  0  0  0  0
   57.2730   30.3150   44.9980 C   0  0  0  0  0  0  0  0  0  0  0  0
   56.2640   29.5250   44.2390 C   0  0  0  0  0  0  0  0  0  0  0  0
   56.3980   29.3430   42.9990 O   0  0  0  0  0  0  0  0  0  0  0  0
   55.1570   28.9730   44.8730 O   0  0  0  0  0  0  0  0  0  0  0  0
   57.3630   31.7030   44.7940 C   0  0  0  0  0  0  0  0  0  0  0  0
   58.2470   32.4860   45.4950 N   0  0  0  0  0  0  0  0  0  0  0  0
   59.1380   31.8890   46.3620 C   0  0  0  0  0  0  0  0  0  0  0  0
   56.4735   34.8611   45.7531 H   0  0  0  0  0  0  0  0  0  0  0  0
   57.1901   35.5112   44.2397 H   0  0  0  0  0  0  0  0  0  0  0  0
   56.4041   33.8960   44.2397 H   0  0  0  0  0  0  0  0  0  0  0  0
   59.0149   34.0001   44.3041 H   0  0  0  0  0  0  0  0  0  0  0  0
   59.2540   35.7252   46.0354 H   0  0  0  0  0  0  0  0  0  0  0  0
   58.2314   34.7785   47.1780 H   0  0  0  0  0  0  0  0  0  0  0  0
   61.0527   34.4790   49.4429 H   0  0  0  0  0  0  0  0  0  0  0  0
   61.1397   32.9631   50.4151 H   0  0  0  0  0  0  0  0  0  0  0  0
   63.3197   35.0326   49.9014 H   0  0  0  0  0  0  0  0  0  0  0  0
   62.6932   34.4061   51.4712 H   0  0  0  0  0  0  0  0  0  0  0  0
   63.5970   32.2480   50.8880 H   0  0  0  0  0  0  0  0  0  0  0  0
   65.3293   33.4077   48.8524 H   0  0  0  0  0  0  0  0  0  0  0  0
   64.7106   31.7005   49.0937 H   0  0  0  0  0  0  0  0  0  0  0  0
   63.5378   33.9687   47.5297 H   0  0  0  0  0  0  0  0  0  0  0  0
   63.5379   32.1886   47.2183 H   0  0  0  0  0  0  0  0  0  0  0  0
   60.0265   28.8153   47.6215 H   0  0  0  0  0  0  0  0  0  0  0  0
   56.7053   32.1764   44.0502 H   0  0  0  0  0  0  0  0  0  0  0  0
  1  2  1  0
  2  3  1  0
  3  4  1  0
  4  5  1  0
  5  6  1  0
  6  7  1  0
  7  8  1  0
  8  9  1  0
  9 10  1  0
 10 11  1  0
 11 12  1  0
  6 13  2  0
 13 14  1  0
 13 15  1  0
 15 16  2  0
 16 17  1  0
 17 18  2  0
 17 19  1  0
 19 20  1  0
 20 21  2  0
 20 22  1  0
 19 23  2  0
 23 24  1  0
 24 25  1  0
 24  2  1  0
 25  5  2  0
 12  7  1  0
 25 16  1  0
  1 26  1  0
  1 27  1  0
  1 28  1  0
  2 29  1  6
  3 30  1  0
  3 31  1  0
  8 32  1  0
  8 33  1  0
  9 34  1  0
  9 35  1  0
 10 36  1  0
 11 37  1  0
 11 38  1  0
 12 39  1  0
 12 40  1  0
 15 41  1  0
 23 42  1  0
M  CHG  1  22  -1
M  END
>  <UniqueID>  (20) 
19

>  <SMILES>  (20) 
C[C@H]1COc2c(N3CCNCC3)c(F)cc3c(=O)c(C(=O)[O-])cn1c23

>  <Energy>  (20) 
67.4294379279115

>  <Genealogy>  (20) 
CC1COc2c(N3CCNCC3)c(F)cc3c(=O)c(C(=O)[O-])cn1c23 (protonated)
C[C@H]1COc2c(N3CCNCC3)c(F)cc3c(=O)c(C(=O)[O-])cn1c23 (chirality)
C[C@H]1COc2c(N3CCNCC3)c(F)cc3c(=O)c(C(=O)[O-])cn1c23 (3D coordinates assigned)
C[C@H]1COc2c(N3CCNCC3)c(F)cc3c(=O)c(C(=O)[O-])cn1c23 (nonaromatic ring conformer: 67.4294379279115 kcal/mol)

>  <smiles>  (20) 
CC1COc2c(N3CCNCC3)c(F)cc3c(=O)c(C(=O)O)cn1c23

>  <score_type>  (20) 
oracle

>  <origin>  (20) 
adg

>  <m_score__min__energy>  (20) 
-9.4100000000000001

>  <m_primary>  (20) 
energy

$$$$
20:0
     RDKit          3D

 30 30  0  0  0  0  0  0  0  0999 V2000
   57.7100   33.1900   45.2670 C   0  0  0  0  0  0  0  0  0  0  0  0
   57.9390   32.6320   44.0750 C   0  0  0  0  0  0  0  0  0  0  0  0
   57.4390   31.2570   43.7490 C   0  0  0  0  0  0  0  0  0  0  0  0
   56.6210   30.7840   44.8130 O   0  0  0  0  0  0  0  0  0  0  0  0
   56.3110   29.4310   44.9880 C   0  0  0  0  0  0  0  0  0  0  0  0
   55.2170   28.9730   44.5550 O   0  0  0  0  0  0  0  0  0  0  0  0
   57.2330   28.5700   45.6780 N   0  0  0  0  0  0  0  0  0  0  0  0
   58.4550   29.1010   46.2180 C   0  0  0  0  0  0  0  0  0  0  0  0
   58.5030   29.5660   47.5440 C   0  0  0  0  0  0  0  0  0  0  0  0
   59.6930   30.0770   48.0700 C   0  0  0  0  0  0  0  0  0  0  0  0
   60.8430   30.1300   47.2770 C   0  0  0  0  0  0  0  0  0  0  0  0
   60.8040   29.6730   45.9570 C   0  0  0  0  0  0  0  0  0  0  0  0
   59.6150   29.1600   45.4290 C   0  0  0  0  0  0  0  0  0  0  0  0
   56.8600   26.8810   45.8830 S   0  0  0  0  0  0  0  0  0  0  0  0
   57.4690   25.9600   44.4890 C   0  0  0  0  0  0  0  0  0  0  0  0
   57.4990   26.3730   47.1450 O   0  0  0  0  0  0  0  0  0  0  0  0
   55.3720   26.6920   45.9900 O   0  0  0  0  0  0  0  0  0  0  0  0
   58.0872   34.2005   45.4828 H   0  0  0  0  0  0  0  0  0  0  0  0
   57.1443   32.6389   46.0327 H   0  0  0  0  0  0  0  0  0  0  0  0
   58.5059   33.1929   43.3174 H   0  0  0  0  0  0  0  0  0  0  0  0
   56.8493   31.2919   42.8211 H   0  0  0  0  0  0  0  0  0  0  0  0
   58.2944   30.5785   43.6152 H   0  0  0  0  0  0  0  0  0  0  0  0
   57.5997   29.5275   48.1705 H   0  0  0  0  0  0  0  0  0  0  0  0
   59.7246   30.4377   49.1087 H   0  0  0  0  0  0  0  0  0  0  0  0
   61.7791   30.5316   47.6923 H   0  0  0  0  0  0  0  0  0  0  0  0
   61.7089   29.7168   45.3330 H   0  0  0  0  0  0  0  0  0  0  0  0
   59.5883   28.8007   44.3897 H   0  0  0  0  0  0  0  0  0  0  0  0
   58.0430   25.0920   44.8455 H   0  0  0  0  0  0  0  0  0  0  0  0
   56.6212   25.6138   43.8796 H   0  0  0  0  0  0  0  0  0  0  0  0
   58.1195   26.6045   43.8796 H   0  0  0  0  0  0  0  0  0  0  0  0
  1  2  2  0
  2  3  1  0
  3  4  1  0
  4  5  1  0
  5  6  2  0
  5  7  1  0
  7  8  1  0
  8  9  2  0
  9 10  1  0
 10 11  2  0
 11 12  1  0
 12 13  2  0
  7 14  1  0
 14 15  1  0
 14 16  2  0
 14 17  2  0
 13  8  1  0
  1 18  1  0
  1 19  1  0
  2 20  1  0
  3 21  1  0
  3 22  1  0
  9 23  1  0
 10 24  1  0
 11 25  1  0
 12 26  1  0
 13 27  1  0
 15 28  1  0
 15 29  1  0
 15 30  1  0
M  END
>  <UniqueID>  (21) 
20

>  <SMILES>  (21) 
C=CCOC(=O)N(c1ccccc1)S(C)(=O)=O

>  <Energy>  (21) 
24.71465936365464

>  <Genealogy>  (21) 
C=CCOC(=O)N(c1ccccc1)S(C)(=O)=O (3D coordinates assigned)
C=CCOC(=O)N(c1ccccc1)S(C)(=O)=O (optimized conformer: 24.71465936365464 kcal/mol)

>  <smiles>  (21) 
C=CCOC(=O)N(c1ccccc1)S(C)(=O)=O

>  <score_type>  (21) 
oracle

>  <origin>  (21) 
adg

>  <m_score__min__energy>  (21) 
-5.9199999999999999

>  <m_primary>  (21) 
energy

$$$$
21:0
     RDKit          3D

 58 61  0  0  0  0  0  0  0  0999 V2000
   60.8380   27.1150   50.1370 C   0  0  0  0  0  0  0  0  0  0  0  0
   61.5050   28.3560   50.7040 C   0  0  0  0  0  0  0  0  0  0  0  0
   61.1890   29.4810   49.8880 O   0  0  0  0  0  0  0  0  0  0  0  0
   60.0530   30.2920   50.0490 C   0  0  0  0  0  0  0  0  0  0  0  0
   58.9970   29.9290   50.9090 C   0  0  0  0  0  0  0  0  0  0  0  0
   57.8910   30.7680   51.0670 C   0  0  0  0  0  0  0  0  0  0  0  0
   57.8230   31.9730   50.3700 C   0  0  0  0  0  0  0  0  0  0  0  0
   58.8570   32.3420   49.5090 C   0  0  0  0  0  0  0  0  0  0  0  0
   59.9750   31.5080   49.3360 C   0  0  0  0  0  0  0  0  0  0  0  0
   61.1120   31.9600   48.4490 C   0  0  0  0  0  0  0  0  0  0  0  0
   61.5600   30.8580   47.4800 C   0  0  0  0  0  0  0  0  0  0  0  0
   60.3870   30.1880   46.8240 C   0  0  0  0  0  0  0  0  0  0  0  0
   59.9050   30.6850   45.7690 O   0  0  0  0  0  0  0  0  0  0  0  0
   59.8950   28.9420   47.3430 N   0  0  0  0  0  0  0  0  0  0  0  0
   58.8200   28.1900   46.7580 C   0  0  0  0  0  0  0  0  0  0  0  0
   58.8250   26.7920   46.8650 C   0  0  0  0  0  0  0  0  0  0  0  0
   57.7790   26.0390   46.3310 C   0  0  0  0  0  0  0  0  0  0  0  0
   56.7090   26.6740   45.6960 C   0  0  0  0  0  0  0  0  0  0  0  0
   56.6770   28.0780   45.5950 C   0  0  0  0  0  0  0  0  0  0  0  0
   55.6220   28.7690   44.9780 O   0  0  0  0  0  0  0  0  0  0  0  0
   55.7010   29.4390   43.7190 C   0  0  0  0  0  0  0  0  0  0  0  0
   56.5840   30.6500   43.8130 C   0  0  0  0  0  0  0  0  0  0  0  0
   57.1760   31.1950   42.6720 C   0  0  0  0  0  0  0  0  0  0  0  0
   57.9730   32.3330   42.8010 C   0  0  0  0  0  0  0  0  0  0  0  0
   58.5110   32.8170   41.7660 O   0  0  0  0  0  0  0  0  0  0  0  0
   58.1590   32.9120   44.0330 N   0  0  0  0  0  0  0  0  0  0  0  0
   58.9390   34.0340   44.1710 C   0  0  0  0  0  0  0  0  0  0  0  0
   59.1220   34.6260   45.4220 C   0  0  0  0  0  0  0  0  0  0  0  0
   58.5080   34.0700   46.5430 C   0  0  0  0  0  0  0  0  0  0  0  0
   57.7190   32.9320   46.4050 C   0  0  0  0  0  0  0  0  0  0  0  0
   57.5480   32.3600   45.1400 C   0  0  0  0  0  0  0  0  0  0  0  0
   56.7750   31.2500   45.0150 N   0  0  0  0  0  0  0  0  0  0  0  0
   57.7310   28.8260   46.1350 C   0  0  0  0  0  0  0  0  0  0  0  0
   60.4937   26.4743   50.9622 H   0  0  0  0  0  0  0  0  0  0  0  0
   59.9775   27.4111   49.5191 H   0  0  0  0  0  0  0  0  0  0  0  0
   61.5597   26.5607   49.5191 H   0  0  0  0  0  0  0  0  0  0  0  0
   61.1421   28.5320   51.7274 H   0  0  0  0  0  0  0  0  0  0  0  0
   62.5952   28.2105   50.7211 H   0  0  0  0  0  0  0  0  0  0  0  0
   59.0439   28.9781   51.4599 H   0  0  0  0  0  0  0  0  0  0  0  0
   57.0729   30.4771   51.7423 H   0  0  0  0  0  0  0  0  0  0  0  0
   56.9531   32.6339   50.4989 H   0  0  0  0  0  0  0  0  0  0  0  0
   58.7967   33.2938   48.9609 H   0  0  0  0  0  0  0  0  0  0  0  0
   60.7820   32.8325   47.8661 H   0  0  0  0  0  0  0  0  0  0  0  0
   61.9663   32.2118   49.0946 H   0  0  0  0  0  0  0  0  0  0  0  0
   62.1972   31.3040   46.7022 H   0  0  0  0  0  0  0  0  0  0  0  0
   62.1128   30.0995   48.0536 H   0  0  0  0  0  0  0  0  0  0  0  0
   60.4420   28.4870   48.1080 H   0  0  0  0  0  0  0  0  0  0  0  0
   59.6589   26.2857   47.3732 H   0  0  0  0  0  0  0  0  0  0  0  0
   57.7969   24.9420   46.4102 H   0  0  0  0  0  0  0  0  0  0  0  0
   55.8887   26.0752   45.2735 H   0  0  0  0  0  0  0  0  0  0  0  0
   56.1143   28.7489   42.9687 H   0  0  0  0  0  0  0  0  0  0  0  0
   54.6905   29.7616   43.4276 H   0  0  0  0  0  0  0  0  0  0  0  0
   57.0165   30.7341   41.6860 H   0  0  0  0  0  0  0  0  0  0  0  0
   59.4248   34.4710   43.2861 H   0  0  0  0  0  0  0  0  0  0  0  0
   59.7469   35.5257   45.5224 H   0  0  0  0  0  0  0  0  0  0  0  0
   58.6466   34.5290   47.5330 H   0  0  0  0  0  0  0  0  0  0  0  0
   57.2330   32.4852   47.2849 H   0  0  0  0  0  0  0  0  0  0  0  0
   57.7068   29.9239   46.0711 H   0  0  0  0  0  0  0  0  0  0  0  0
  1  2  1  0
  2  3  1  0
  3  4  1  0
  4  5  2  0
  5  6  1  0
  6  7  2  0
  7  8  1  0
  8  9  2  0
  9 10  1  0
 10 11  1  0
 11 12  1  0
 12 13  2  0
 12 14  1  0
 14 15  1  0
 15 16  2  0
 16 17  1  0
 17 18  2  0
 18 19  1  0
 19 20  1  0
 20 21  1  0
 21 22  1  0
 22 23  2  0
 23 24  1  0
 24 25  2  0
 24 26  1  0
 26 27  1  0
 27 28  2  0
 28 29  1  0
 29 30  2  0
 30 31  1  0
 31 32  2  0
 19 33  2  0
  9  4  1  0
 33 15  1  0
 32 22  1  0
 31 26  1  0
  1 34  1  0
  1 35  1  0
  1 36  1  0
  2 37  1  0
  2 38  1  0
  5 39  1  0
  6 40  1  0
  7 41  1  0
  8 42  1  0
 10 43  1  0
 10 44  1  0
 11 45  1  0
 11 46  1  0
 14 47  1  0
 16 48  1  0
 17 49  1  0
 18 50  1  0
 21 51  1  0
 21 52  1  0
 23 53  1  0
 27 54  1  0
 28 55  1  0
 29 56  1  0
 30 57  1  0
 33 58  1  0
M  END
>  <UniqueID>  (22) 
21

>  <SMILES>  (22) 
CCOc1ccccc1CCC(=O)Nc1cccc(OCc2cc(=O)n3ccccc3n2)c1

>  <Energy>  (22) 
62.297920819865816

>  <Genealogy>  (22) 
CCOc1ccccc1CCC(=O)Nc1cccc(OCc2cc(=O)n3ccccc3n2)c1 (3D coordinates assigned)
CCOc1ccccc1CCC(=O)Nc1cccc(OCc2cc(=O)n3ccccc3n2)c1 (optimized conformer: 62.297920819865816 kcal/mol)

>  <smiles>  (22) 
CCOc1ccccc1CCC(=O)Nc1cccc(OCc2cc(=O)n3ccccc3n2)c1

>  <score_type>  (22) 
oracle

>  <origin>  (22) 
adg

>  <m_score__min__energy>  (22) 
-9.4700000000000006

>  <m_primary>  (22) 
energy

$$$$
22:0
     RDKit          3D

 53 55  0  0  0  0  0  0  0  0999 V2000
   58.5800   31.2400   47.2060 C   0  0  0  0  0  0  0  0  0  0  0  0
   58.9540   32.6340   46.7740 C   0  0  0  0  0  0  0  0  0  0  0  0
   60.0260   33.2830   47.4120 C   0  0  0  0  0  0  0  0  0  0  0  0
   60.3930   34.5790   47.0420 C   0  0  0  0  0  0  0  0  0  0  0  0
   59.6960   35.2420   46.0330 C   0  0  0  0  0  0  0  0  0  0  0  0
   58.6360   34.6090   45.3820 C   0  0  0  0  0  0  0  0  0  0  0  0
   58.2640   33.2980   45.7270 C   0  0  0  0  0  0  0  0  0  0  0  0
   57.0880   32.6640   45.0210 C   0  0  0  0  0  0  0  0  0  0  0  0
   57.5650   31.9140   43.8600 N   0  0  0  0  0  0  0  0  0  0  0  0
   56.8270   30.3400   43.8130 S   0  0  0  0  0  0  0  0  0  0  0  0
   55.5060   30.3700   44.5290 O   0  0  0  0  0  0  0  0  0  0  0  0
   56.6130   29.9250   42.3820 O   0  0  0  0  0  0  0  0  0  0  0  0
   57.8980   29.1880   44.6030 C   0  0  0  0  0  0  0  0  0  0  0  0
   59.2890   29.3200   44.5080 C   0  0  0  0  0  0  0  0  0  0  0  0
   60.1260   28.4260   45.1840 C   0  0  0  0  0  0  0  0  0  0  0  0
   59.5770   27.4110   45.9740 C   0  0  0  0  0  0  0  0  0  0  0  0
   58.1840   27.2770   46.0870 C   0  0  0  0  0  0  0  0  0  0  0  0
   57.5940   26.2360   46.9630 C   0  0  0  0  0  0  0  0  0  0  0  0
   58.2960   25.7160   47.8710 O   0  0  0  0  0  0  0  0  0  0  0  0
   56.2480   25.7690   46.7770 N   0  0  0  0  0  0  0  0  0  0  0  0
   55.7980   24.9620   45.6790 C   0  0  0  0  0  0  0  0  0  0  0  0
   56.6750   24.5720   44.6530 C   0  0  0  0  0  0  0  0  0  0  0  0
   56.2150   23.7740   43.6040 C   0  0  0  0  0  0  0  0  0  0  0  0
   54.8800   23.3680   43.5650 C   0  0  0  0  0  0  0  0  0  0  0  0
   53.9920   23.7500   44.5760 C   0  0  0  0  0  0  0  0  0  0  0  0
   52.6340   23.2960   44.4990 N   0  0  0  0  0  0  0  0  0  0  0  0
   51.7790   22.4330   45.7360 S   0  0  0  0  0  0  0  0  0  0  0  0
   52.8040   22.2470   47.1790 C   0  0  0  0  0  0  0  0  0  0  0  0
   50.5550   23.2180   46.1140 O   0  0  0  0  0  0  0  0  0  0  0  0
   51.3500   21.0880   45.2200 O   0  0  0  0  0  0  0  0  0  0  0  0
   54.4560   24.5610   45.6290 C   0  0  0  0  0  0  0  0  0  0  0  0
   57.3530   28.1460   45.3630 C   0  0  0  0  0  0  0  0  0  0  0  0
   58.5660   31.1880   48.3047 H   0  0  0  0  0  0  0  0  0  0  0  0
   57.5830   30.9898   46.8144 H   0  0  0  0  0  0  0  0  0  0  0  0
   59.3179   30.5244   46.8144 H   0  0  0  0  0  0  0  0  0  0  0  0
   60.5802   32.7658   48.2091 H   0  0  0  0  0  0  0  0  0  0  0  0
   61.2333   35.0772   47.5476 H   0  0  0  0  0  0  0  0  0  0  0  0
   59.9819   36.2657   45.7495 H   0  0  0  0  0  0  0  0  0  0  0  0
   58.0865   35.1410   44.5915 H   0  0  0  0  0  0  0  0  0  0  0  0
   56.5700   31.9817   45.7111 H   0  0  0  0  0  0  0  0  0  0  0  0
   56.3914   33.4486   44.6906 H   0  0  0  0  0  0  0  0  0  0  0  0
   58.5940   31.7660   43.9820 H   0  0  0  0  0  0  0  0  0  0  0  0
   59.7239   30.1277   43.9010 H   0  0  0  0  0  0  0  0  0  0  0  0
   61.2181   28.5216   45.0940 H   0  0  0  0  0  0  0  0  0  0  0  0
   60.2394   26.7147   46.5091 H   0  0  0  0  0  0  0  0  0  0  0  0
   57.7259   24.8960   44.6763 H   0  0  0  0  0  0  0  0  0  0  0  0
   56.9062   23.4644   42.8062 H   0  0  0  0  0  0  0  0  0  0  0  0
   54.5236   22.7429   42.7329 H   0  0  0  0  0  0  0  0  0  0  0  0
   52.1878   22.3588   48.0833 H   0  0  0  0  0  0  0  0  0  0  0  0
   53.2685   21.2499   47.1728 H   0  0  0  0  0  0  0  0  0  0  0  0
   53.5892   23.0173   47.1728 H   0  0  0  0  0  0  0  0  0  0  0  0
   53.7603   24.8823   46.4182 H   0  0  0  0  0  0  0  0  0  0  0  0
   56.2622   28.0070   45.3930 H   0  0  0  0  0  0  0  0  0  0  0  0
  1  2  1  0
  2  3  2  0
  3  4  1  0
  4  5  2  0
  5  6  1  0
  6  7  2  0
  7  8  1  0
  8  9  1  0
  9 10  1  0
 10 11  2  0
 10 12  2  0
 10 13  1  0
 13 14  2  0
 14 15  1  0
 15 16  2  0
 16 17  1  0
 17 18  1  0
 18 19  2  0
 18 20  1  0
 20 21  1  0
 21 22  2  0
 22 23  1  0
 23 24  2  0
 24 25  1  0
 25 26  1  0
 26 27  1  0
 27 28  1  0
 27 29  2  0
 27 30  2  0
 25 31  2  0
 17 32  2  0
  7  2  1  0
 32 13  1  0
 31 21  1  0
  1 33  1  0
  1 34  1  0
  1 35  1  0
  3 36  1  0
  4 37  1  0
  5 38  1  0
  6 39  1  0
  8 40  1  0
  8 41  1  0
  9 42  1  0
 14 43  1  0
 15 44  1  0
 16 45  1  0
 22 46  1  0
 23 47  1  0
 24 48  1  0
 28 49  1  0
 28 50  1  0
 28 51  1  0
 31 52  1  0
 32 53  1  0
M  CHG  2  20  -1  26  -1
M  END
>  <UniqueID>  (23) 
22

>  <SMILES>  (23) 
Cc1ccccc1CNS(=O)(=O)c1cccc(C(=O)[N-]c2cccc([N-]S(C)(=O)=O)c2)c1

>  <Energy>  (23) 
53.59799917329381

>  <Genealogy>  (23) 
Cc1ccccc1CNS(=O)(=O)c1cccc(C(=O)[N-]c2cccc([N-]S(C)(=O)=O)c2)c1 (protonated)
Cc1ccccc1CNS(=O)(=O)c1cccc(C(=O)[N-]c2cccc([N-]S(C)(=O)=O)c2)c1 (3D coordinates assigned)
Cc1ccccc1CNS(=O)(=O)c1cccc(C(=O)[N-]c2cccc([N-]S(C)(=O)=O)c2)c1 (optimized conformer: 53.59799917329381 kcal/mol)

>  <smiles>  (23) 
Cc1ccccc1CNS(=O)(=O)c1cccc(C(=O)Nc2cccc(NS(C)(=O)=O)c2)c1

>  <score_type>  (23) 
oracle

>  <origin>  (23) 
adg

>  <m_score__min__energy>  (23) 
-13.44

>  <m_primary>  (23) 
energy

$$$$
23:0
     RDKit          3D

 42 44  0  0  0  0  0  0  0  0999 V2000
   56.7480   32.4290   47.0260 H   0  0  0  0  0  0  0  0  0  0  0  0
   57.8150   33.2240   47.4890 S   0  0  0  0  0  0  0  0  0  0  0  0
   58.8460   32.9860   45.9930 C   0  0  2  0  0  0  0  0  0  0  0  0
   59.2600   34.3350   45.5540 C   0  0  0  0  0  0  0  0  0  0  0  0
   59.5850   35.3910   45.2090 N   0  0  0  0  0  0  0  0  0  0  0  0
   58.0180   32.2780   44.9260 C   0  0  0  0  0  0  0  0  0  0  0  0
   57.2520   31.2090   45.2830 N   0  0  0  0  0  0  0  0  0  0  0  0
   56.5510   30.4900   44.3690 C   0  0  0  0  0  0  0  0  0  0  0  0
   55.8230   29.4890   44.7670 N   0  0  0  0  0  0  0  0  0  0  0  0
   56.3500   28.2190   45.2640 C   0  0  0  0  0  0  0  0  0  0  0  0
   55.8024   27.9314   46.1736 H   0  0  0  0  0  0  0  0  0  0  0  0
   56.2224   27.4527   44.4852 H   0  0  0  0  0  0  0  0  0  0  0  0
   57.8150   28.3440   45.5870 C   0  0  0  0  0  0  0  0  0  0  0  0
   58.7730   28.2120   44.5680 C   0  0  0  0  0  0  0  0  0  0  0  0
   58.4511   28.0000   43.5377 H   0  0  0  0  0  0  0  0  0  0  0  0
   60.1340   28.3490   44.8580 C   0  0  0  0  0  0  0  0  0  0  0  0
   60.8801   28.2418   44.0569 H   0  0  0  0  0  0  0  0  0  0  0  0
   60.5470   28.6220   46.1650 C   0  0  0  0  0  0  0  0  0  0  0  0
   61.6180   28.7300   46.3916 H   0  0  0  0  0  0  0  0  0  0  0  0
   59.6000   28.7580   47.1850 C   0  0  0  0  0  0  0  0  0  0  0  0
   60.0030   29.0250   48.4520 F   0  0  0  0  0  0  0  0  0  0  0  0
   58.2380   28.6200   46.8990 C   0  0  0  0  0  0  0  0  0  0  0  0
   57.4953   28.7278   47.7032 H   0  0  0  0  0  0  0  0  0  0  0  0
   56.6240   30.8230   43.0510 N   0  0  0  0  0  0  0  0  0  0  0  0
   57.3890   31.8620   42.6340 C   0  0  0  0  0  0  0  0  0  0  0  0
   57.4500   32.1420   41.4080 O   0  0  0  0  0  0  0  0  0  0  0  0
   58.1120   32.6120   43.5620 C   0  0  0  0  0  0  0  0  0  0  0  0
   58.7445   33.4498   43.2334 H   0  0  0  0  0  0  0  0  0  0  0  0
   60.0830   32.1360   46.3770 C   0  0  0  0  0  0  0  0  0  0  0  0
   59.7374   31.2446   46.9210 H   0  0  0  0  0  0  0  0  0  0  0  0
   60.6018   31.8795   45.4415 H   0  0  0  0  0  0  0  0  0  0  0  0
   61.0760   32.8730   47.2480 C   0  0  0  0  0  0  0  0  0  0  0  0
   60.7360   33.2340   48.5630 C   0  0  0  0  0  0  0  0  0  0  0  0
   59.7331   33.0042   48.9520 H   0  0  0  0  0  0  0  0  0  0  0  0
   61.6670   33.8840   49.3790 C   0  0  0  0  0  0  0  0  0  0  0  0
   61.3951   34.1635   50.4076 H   0  0  0  0  0  0  0  0  0  0  0  0
   62.9420   34.1790   48.8900 C   0  0  0  0  0  0  0  0  0  0  0  0
   63.6738   34.6883   49.5343 H   0  0  0  0  0  0  0  0  0  0  0  0
   63.2880   33.8270   47.5820 C   0  0  0  0  0  0  0  0  0  0  0  0
   64.2911   34.0623   47.1967 H   0  0  0  0  0  0  0  0  0  0  0  0
   62.3600   33.1760   46.7630 C   0  0  0  0  0  0  0  0  0  0  0  0
   62.6361   32.8998   45.7347 H   0  0  0  0  0  0  0  0  0  0  0  0
  1  2  1  0
  2  3  1  0
  3  4  1  6
  4  5  3  0
  3  6  1  0
  6  7  1  0
  7  8  1  0
  8  9  2  0
  9 10  1  0
 10 11  1  0
 10 12  1  0
 10 13  1  0
 13 14  2  0
 14 15  1  0
 14 16  1  0
 16 17  1  0
 16 18  2  0
 18 19  1  0
 18 20  1  0
 20 21  1  0
 20 22  2  0
 22 23  1  0
  8 24  1  0
 24 25  1  0
 25 26  2  0
 25 27  1  0
 27 28  1  0
  3 29  1  0
 29 30  1  0
 29 31  1  0
 29 32  1  0
 32 33  2  0
 33 34  1  0
 33 35  1  0
 35 36  1  0
 35 37  2  0
 37 38  1  0
 37 39  1  0
 39 40  1  0
 39 41  2  0
 41 42  1  0
 27  6  2  0
 41 32  1  0
 22 13  1  0
M  CHG  2   7  -1  24  -1
M  END
>  <UniqueID>  (24) 
23

>  <SMILES>  (24) 
N#C[C@](S)(Cc1ccccc1)c1cc(=O)[n-]/c(=N\Cc2cccc(F)c2)[n-]1

>  <Energy>  (24) 
44.04025502007001

>  <Genealogy>  (24) 
N#CC(S)(Cc1ccccc1)c1cc(=O)[n-]c(=NCc2cccc(F)c2)[n-]1 (protonated)
N#C[C@](S)(Cc1ccccc1)c1cc(=O)[n-]c(=NCc2cccc(F)c2)[n-]1 (chirality)
N#C[C@](S)(Cc1ccccc1)c1cc(=O)[n-]/c(=N\Cc2cccc(F)c2)[n-]1 (cis-trans isomerization)
N#C[C@](S)(Cc1ccccc1)c1cc(=O)[n-]/c(=N\Cc2cccc(F)c2)[n-]1 (3D coordinates assigned)
N#C[C@](S)(Cc1ccccc1)c1cc(=O)[n-]/c(=N\Cc2cccc(F)c2)[n-]1 (optimized conformer: 44.04025502007001 kcal/mol)

>  <smiles>  (24) 
N#CC(S)(Cc1ccccc1)c1cc(=O)[nH]c(=NCc2cccc(F)c2)[nH]1

>  <score_type>  (24) 
oracle

>  <origin>  (24) 
adg

>  <m_score__min__energy>  (24) 
-12.16

>  <m_primary>  (24) 
energy

$$$$
24:0
     RDKit          3D

 48 51  0  0  1  0  0  0  0  0999 V2000
   59.6470   35.3220   46.3130 C   0  0  0  0  0  0  0  0  0  0  0  0
   58.7750   34.3300   45.6300 C   0  0  0  0  0  0  0  0  0  0  0  0
   57.6240   33.7830   46.1720 C   0  0  0  0  0  0  0  0  0  0  0  0
   57.1480   32.9250   45.2020 C   0  0  0  0  0  0  0  0  0  0  0  0
   58.0390   33.0060   44.1390 C   0  0  0  0  0  0  0  0  0  0  0  0
   57.8700   32.2220   42.8870 C   0  0  0  0  0  0  0  0  0  0  0  0
   56.7660   30.8100   43.1610 S   0  0  0  0  0  0  0  0  0  0  0  0
   57.6600   29.5920   44.1130 C   0  0  0  0  0  0  0  0  0  0  0  0
   58.6320   29.9820   44.9440 N   0  0  0  0  0  0  0  0  0  0  0  0
   59.3190   29.0680   45.6750 C   0  0  0  0  0  0  0  0  0  0  0  0
   60.2200   29.5040   46.4340 N   0  0  0  0  0  0  0  0  0  0  0  0
   60.2510   30.6720   47.2080 C   0  0  0  0  0  0  0  0  0  0  0  0
   61.3800   31.4630   47.1460 C   0  0  0  0  0  0  0  0  0  0  0  0
   61.3630   32.6370   47.8840 C   0  0  0  0  0  0  0  0  0  0  0  0
   60.2720   33.0050   48.6490 C   0  0  0  0  0  0  0  0  0  0  0  0
   60.2910   34.1590   49.3570 F   0  0  0  0  0  0  0  0  0  0  0  0
   59.1580   32.1800   48.6820 C   0  0  0  0  0  0  0  0  0  0  0  0
   59.1330   30.9870   47.9540 C   0  0  0  0  0  0  0  0  0  0  0  0
   59.0640   27.7140   45.6050 C   0  0  0  0  0  0  0  0  0  0  0  0
   59.7360   26.7520   46.4260 C   0  0  0  0  0  0  0  0  0  0  0  0
   60.3080   25.9680   47.1010 N   0  0  0  0  0  0  0  0  0  0  0  0
   58.0610   27.3270   44.7410 C   0  0  0  0  0  0  0  0  0  0  0  0
   57.5930   25.9690   44.5510 C   0  0  0  0  0  0  0  0  0  0  0  0
   57.0690   25.2790   45.6520 C   0  0  0  0  0  0  0  0  0  0  0  0
   56.5330   24.0020   45.5280 C   0  0  0  0  0  0  0  0  0  0  0  0
   56.4890   23.3550   44.3330 C   0  0  0  0  0  0  0  0  0  0  0  0
   55.9660   22.0820   44.1550 O   0  0  0  0  0  0  0  0  0  0  0  0
   56.9980   24.0100   43.2330 C   0  0  0  0  0  0  0  0  0  0  0  0
   57.5360   25.2970   43.3590 C   0  0  0  0  0  0  0  0  0  0  0  0
   57.3960   28.2840   44.0280 N   0  0  0  0  0  0  0  0  0  0  0  0
   58.9880   33.8520   44.4380 O   0  0  0  0  0  0  0  0  0  0  0  0
   59.5475   35.2088   47.4026 H   0  0  0  0  0  0  0  0  0  0  0  0
   60.6939   35.1525   46.0208 H   0  0  0  0  0  0  0  0  0  0  0  0
   59.3447   36.3385   46.0208 H   0  0  0  0  0  0  0  0  0  0  0  0
   57.1853   33.9878   47.1597 H   0  0  0  0  0  0  0  0  0  0  0  0
   56.2437   32.3013   45.2589 H   0  0  0  0  0  0  0  0  0  0  0  0
   57.4405   32.8709   42.1095 H   0  0  0  0  0  0  0  0  0  0  0  0
   58.8536   31.8461   42.5690 H   0  0  0  0  0  0  0  0  0  0  0  0
   62.2520   31.1760   46.5400 H   0  0  0  0  0  0  0  0  0  0  0  0
   62.2441   33.2951   47.8599 H   0  0  0  0  0  0  0  0  0  0  0  0
   58.2854   32.4672   49.2870 H   0  0  0  0  0  0  0  0  0  0  0  0
   58.2554   30.3241   47.9748 H   0  0  0  0  0  0  0  0  0  0  0  0
   57.0820   25.7604   46.6410 H   0  0  0  0  0  0  0  0  0  0  0  0
   56.1333   23.5010   46.4220 H   0  0  0  0  0  0  0  0  0  0  0  0
   56.5410   21.2410   44.1520 H   0  0  0  0  0  0  0  0  0  0  0  0
   56.9818   23.5188   42.2489 H   0  0  0  0  0  0  0  0  0  0  0  0
   57.9310   25.7909   42.4590 H   0  0  0  0  0  0  0  0  0  0  0  0
   56.6310   28.0310   43.3440 H   0  0  0  0  0  0  0  0  0  0  0  0
  1  2  1  0
  2  3  2  0
  3  4  1  0
  4  5  2  0
  5  6  1  0
  6  7  1  0
  7  8  1  0
  8  9  2  0
  9 10  1  0
 10 11  2  0
 11 12  1  0
 12 13  2  0
 13 14  1  0
 14 15  2  0
 15 16  1  0
 15 17  1  0
 17 18  2  0
 10 19  1  0
 19 20  1  0
 20 21  3  0
 19 22  2  0
 22 23  1  0
 23 24  2  0
 24 25  1  0
 25 26  2  0
 26 27  1  0
 26 28  1  0
 28 29  2  0
 22 30  1  0
  5 31  1  0
 31  2  1  0
 30  8  1  0
 18 12  1  0
 29 23  1  0
  1 32  1  0
  1 33  1  0
  1 34  1  0
  3 35  1  0
  4 36  1  0
  6 37  1  0
  6 38  1  0
 13 39  1  0
 14 40  1  0
 17 41  1  0
 18 42  1  0
 24 43  1  0
 25 44  1  0
 27 45  1  0
 28 46  1  0
 29 47  1  0
 30 48  1  0
M  END
>  <smiles>  (25) 
Cc1ccc(CSc2nc(=Nc3ccc(F)cc3)c(C#N)c(-c3ccc(O)cc3)[nH]2)o1

>  <score_type>  (25) 
oracle

>  <origin>  (25) 
adg

>  <m_score__min__energy>  (25) 
-8.3900000000000006

>  <m_primary>  (25) 
energy

$$$$
25:0
     RDKit          3D

 35 36  0  0  0  0  0  0  0  0999 V2000
   55.1500   29.2540   44.8360 N   0  0  0  0  0  0  0  0  0  0  0  0
   56.4830   29.7480   44.9720 C   0  0  0  0  0  0  0  0  0  0  0  0
   57.1790   29.3670   45.9510 O   0  0  0  0  0  0  0  0  0  0  0  0
   57.0230   30.7230   43.9910 C   0  0  0  0  0  0  0  0  0  0  0  0
   56.6070   30.6390   42.6490 C   0  0  0  0  0  0  0  0  0  0  0  0
   57.0480   31.5690   41.7050 C   0  0  0  0  0  0  0  0  0  0  0  0
   57.9150   32.5920   42.0820 C   0  0  0  0  0  0  0  0  0  0  0  0
   58.3510   32.6850   43.4050 C   0  0  0  0  0  0  0  0  0  0  0  0
   57.9140   31.7610   44.3700 C   0  0  0  0  0  0  0  0  0  0  0  0
   58.4490   31.8290   45.7010 N   0  0  0  0  0  0  0  0  0  0  0  0
   58.2710   32.9670   46.5580 C   0  0  0  0  0  0  0  0  0  0  0  0
   57.6170   33.9700   46.1620 O   0  0  0  0  0  0  0  0  0  0  0  0
   58.8630   32.9730   47.9360 C   0  0  0  0  0  0  0  0  0  0  0  0
   59.8350   31.9370   48.0760 O   0  0  0  0  0  0  0  0  0  0  0  0
   61.1330   32.1030   48.5890 C   0  0  0  0  0  0  0  0  0  0  0  0
   61.5710   31.4500   49.7560 C   0  0  0  0  0  0  0  0  0  0  0  0
   62.8760   31.6320   50.2220 C   0  0  0  0  0  0  0  0  0  0  0  0
   63.7690   32.4730   49.5370 C   0  0  0  0  0  0  0  0  0  0  0  0
   65.1140   32.6610   50.0130 N   0  0  0  0  0  0  0  0  0  0  0  0
   65.5250   33.7960   50.3290 O   0  0  0  0  0  0  0  0  0  0  0  0
   65.9710   31.5890   50.1280 O   0  0  0  0  0  0  0  0  0  0  0  0
   63.3270   33.1300   48.3770 C   0  0  0  0  0  0  0  0  0  0  0  0
   62.0210   32.9490   47.9070 C   0  0  0  0  0  0  0  0  0  0  0  0
   61.5130   33.7760   46.4440 Cl  0  0  0  0  0  0  0  0  0  0  0  0
   54.4640   29.3420   45.6180 H   0  0  0  0  0  0  0  0  0  0  0  0
   55.9267   29.8316   42.3402 H   0  0  0  0  0  0  0  0  0  0  0  0
   56.7098   31.4934   40.6610 H   0  0  0  0  0  0  0  0  0  0  0  0
   58.2561   33.3264   41.3375 H   0  0  0  0  0  0  0  0  0  0  0  0
   59.0432   33.4892   43.6951 H   0  0  0  0  0  0  0  0  0  0  0  0
   58.9350   30.9870   46.0840 H   0  0  0  0  0  0  0  0  0  0  0  0
   59.3441   33.9455   48.1173 H   0  0  0  0  0  0  0  0  0  0  0  0
   58.0580   32.8013   48.6657 H   0  0  0  0  0  0  0  0  0  0  0  0
   60.8816   30.7919   50.3052 H   0  0  0  0  0  0  0  0  0  0  0  0
   63.2069   31.1122   51.1332 H   0  0  0  0  0  0  0  0  0  0  0  0
   64.0144   33.7938   47.8321 H   0  0  0  0  0  0  0  0  0  0  0  0
  1  2  1  0
  2  3  2  0
  2  4  1  0
  4  5  2  0
  5  6  1  0
  6  7  2  0
  7  8  1  0
  8  9  2  0
  9 10  1  0
 10 11  1  0
 11 12  2  0
 11 13  1  0
 13 14  1  0
 14 15  1  0
 15 16  2  0
 16 17  1  0
 17 18  2  0
 18 19  1  0
 19 20  2  0
 19 21  1  0
 18 22  1  0
 22 23  2  0
 23 24  1  0
  9  4  1  0
 23 15  1  0
  1 25  1  0
  5 26  1  0
  6 27  1  0
  7 28  1  0
  8 29  1  0
 10 30  1  0
 13 31  1  0
 13 32  1  0
 16 33  1  0
 17 34  1  0
 22 35  1  0
M  CHG  3   1  -1  19   1  21  -1
M  END
>  <UniqueID>  (26) 
24

>  <SMILES>  (26) 
[NH-]C(=O)c1ccccc1NC(=O)COc1ccc([N+](=O)[O-])cc1Cl

>  <Energy>  (26) 
42.6320776297129

>  <Genealogy>  (26) 
[NH-]C(=O)c1ccccc1NC(=O)COc1ccc([N+](=O)[O-])cc1Cl (protonated)
[NH-]C(=O)c1ccccc1NC(=O)COc1ccc([N+](=O)[O-])cc1Cl (3D coordinates assigned)
[NH-]C(=O)c1ccccc1NC(=O)COc1ccc([N+](=O)[O-])cc1Cl (optimized conformer: 42.6320776297129 kcal/mol)

>  <smiles>  (26) 
NC(=O)c1ccccc1NC(=O)COc1ccc([N+](=O)[O-])cc1Cl

>  <score_type>  (26) 
oracle

>  <origin>  (26) 
adg

>  <m_score__min__energy>  (26) 
-11.140000000000001

>  <m_primary>  (26) 
energy

$$$$
26:0
     RDKit          3D

 21 22  0  0  0  0  0  0  0  0999 V2000
   57.2886   27.2678   43.8548 H   0  0  0  0  0  0  0  0  0  0  0  0
   57.5830   27.2300   44.9140 C   0  0  0  0  0  0  0  0  0  0  0  0
   58.2910   28.2640   45.3930 C   0  0  0  0  0  0  0  0  0  0  0  0
   59.2237   28.0334   45.9287 H   0  0  0  0  0  0  0  0  0  0  0  0
   57.9190   29.6870   45.2590 C   0  0  0  0  0  0  0  0  0  0  0  0
   56.6880   30.0330   44.6850 C   0  0  0  0  0  0  0  0  0  0  0  0
   55.9889   29.2437   44.3714 H   0  0  0  0  0  0  0  0  0  0  0  0
   56.3540   31.3400   44.5140 N   0  0  0  0  0  0  0  0  0  0  0  0
   57.1960   32.3450   44.8720 C   0  0  0  0  0  0  0  0  0  0  0  0
   56.8923   33.3928   44.7306 H   0  0  0  0  0  0  0  0  0  0  0  0
   58.4460   32.0490   45.4190 C   0  0  0  0  0  0  0  0  0  0  0  0
   59.1338   32.8589   45.7036 H   0  0  0  0  0  0  0  0  0  0  0  0
   58.8140   30.7150   45.6010 C   0  0  0  0  0  0  0  0  0  0  0  0
   59.8041   30.4685   46.0120 H   0  0  0  0  0  0  0  0  0  0  0  0
   57.1660   26.0450   45.6910 C   0  0  0  0  0  0  0  0  0  0  0  0
   58.1650   24.8030   46.2540 S   0  0  0  0  0  0  0  0  0  0  0  0
   56.9170   24.0670   47.1050 C   0  0  0  0  0  0  0  0  0  0  0  0
   57.0410   23.0090   47.7730 O   0  0  0  0  0  0  0  0  0  0  0  0
   55.7530   24.7410   47.0030 N   0  0  0  0  0  0  0  0  0  0  0  0
   55.8960   25.8480   46.2280 C   0  0  0  0  0  0  0  0  0  0  0  0
   54.8350   26.7150   45.9960 O   0  0  0  0  0  0  0  0  0  0  0  0
  1  2  1  0
  2  3  2  0
  3  4  1  0
  3  5  1  0
  5  6  2  0
  6  7  1  0
  6  8  1  0
  8  9  2  0
  9 10  1  0
  9 11  1  0
 11 12  1  0
 11 13  2  0
 13 14  1  0
  2 15  1  0
 15 16  1  0
 16 17  1  0
 17 18  2  0
 17 19  1  0
 19 20  1  0
 20 21  1  0
 13  5  1  0
 20 15  2  0
M  CHG  2  19  -1  21  -1
M  END
>  <UniqueID>  (27) 
25

>  <SMILES>  (27) 
O=c1[n-]c([O-])c(/C=C\c2cccnc2)s1

>  <Energy>  (27) 
62.35757134931192

>  <Genealogy>  (27) 
O=c1[n-]c([O-])c(C=Cc2cccnc2)s1 (protonated)
O=c1[n-]c([O-])c(/C=C\c2cccnc2)s1 (cis-trans isomerization)
O=c1[n-]c([O-])c(/C=C\c2cccnc2)s1 (3D coordinates assigned)
O=c1[n-]c([O-])c(/C=C\c2cccnc2)s1 (optimized conformer: 62.35757134931192 kcal/mol)

>  <smiles>  (27) 
O=c1[nH]c(O)c(C=Cc2cccnc2)s1

>  <score_type>  (27) 
oracle

>  <origin>  (27) 
adg

>  <m_score__min__energy>  (27) 
-12.869999999999999

>  <m_primary>  (27) 
energy

$$$$
27:0
     RDKit          3D

 58 60  0  0  0  0  0  0  0  0999 V2000
   57.4030   31.5200   42.5930 C   0  0  0  0  0  0  0  0  0  0  0  0
   56.7950   30.3170   43.3120 C   0  0  0  0  0  0  0  0  0  0  0  0
   57.1540   30.3020   44.8030 C   0  0  0  0  0  0  0  0  0  0  0  0
   58.0850   29.1900   45.1300 N   0  0  0  0  0  0  0  0  0  0  0  0
   58.4420   29.1740   46.5780 C   0  0  0  0  0  0  0  0  0  0  0  0
   59.9320   28.8660   46.8170 C   0  0  0  0  0  0  0  0  0  0  0  0
   60.6570   29.9540   47.6110 C   0  0  0  0  0  0  0  0  0  0  0  0
   61.0120   31.0350   46.7510 O   0  0  0  0  0  0  0  0  0  0  0  0
   61.7820   32.1270   47.1650 C   0  0  0  0  0  0  0  0  0  0  0  0
   63.0430   32.0820   47.1270 O   0  0  0  0  0  0  0  0  0  0  0  0
   61.0980   33.3830   47.5990 C   0  0  0  0  0  0  0  0  0  0  0  0
   59.8070   33.5480   46.8430 C   0  0  0  0  0  0  0  0  0  0  0  0
   58.6080   33.0310   47.3640 C   0  0  0  0  0  0  0  0  0  0  0  0
   57.4160   33.1540   46.6440 C   0  0  0  0  0  0  0  0  0  0  0  0
   57.4140   33.7850   45.3960 C   0  0  0  0  0  0  0  0  0  0  0  0
   58.6050   34.2880   44.8640 C   0  0  0  0  0  0  0  0  0  0  0  0
   59.8000   34.1660   45.5800 C   0  0  0  0  0  0  0  0  0  0  0  0
   57.5940   27.8950   44.5700 C   0  0  1  0  0  0  0  0  0  0  0  0
   58.4810   27.3690   43.4300 C   0  0  0  0  0  0  0  0  0  0  0  0
   57.7800   26.2210   42.6960 C   0  0  0  0  0  0  0  0  0  0  0  0
   57.2250   25.1800   43.6390 C   0  0  0  0  0  0  0  0  0  0  0  0
   56.8550   23.9290   43.1200 C   0  0  0  0  0  0  0  0  0  0  0  0
   56.2680   22.9640   43.9430 C   0  0  0  0  0  0  0  0  0  0  0  0
   55.9050   21.7300   43.4170 O   0  0  0  0  0  0  0  0  0  0  0  0
   56.0420   23.2410   45.2920 C   0  0  0  0  0  0  0  0  0  0  0  0
   56.3950   24.4830   45.8220 C   0  0  0  0  0  0  0  0  0  0  0  0
   56.9680   25.4700   45.0030 C   0  0  0  0  0  0  0  0  0  0  0  0
   57.3870   26.7820   45.6290 C   0  0  0  0  0  0  0  0  0  0  0  0
   57.7691   32.2444   43.3355 H   0  0  0  0  0  0  0  0  0  0  0  0
   58.2404   31.1858   41.9629 H   0  0  0  0  0  0  0  0  0  0  0  0
   56.6373   31.9960   41.9629 H   0  0  0  0  0  0  0  0  0  0  0  0
   55.7005   30.3573   43.2099 H   0  0  0  0  0  0  0  0  0  0  0  0
   57.2021   29.4037   42.8536 H   0  0  0  0  0  0  0  0  0  0  0  0
   57.6328   31.2572   45.0646 H   0  0  0  0  0  0  0  0  0  0  0  0
   56.2280   30.1564   45.3787 H   0  0  0  0  0  0  0  0  0  0  0  0
   58.2126   30.1600   47.0084 H   0  0  0  0  0  0  0  0  0  0  0  0
   57.8557   28.3760   47.0570 H   0  0  0  0  0  0  0  0  0  0  0  0
   60.0078   27.9197   47.3726 H   0  0  0  0  0  0  0  0  0  0  0  0
   60.4142   28.8081   45.8300 H   0  0  0  0  0  0  0  0  0  0  0  0
   59.9952   30.3251   48.4074 H   0  0  0  0  0  0  0  0  0  0  0  0
   61.5713   29.5293   48.0512 H   0  0  0  0  0  0  0  0  0  0  0  0
   60.8856   33.3294   48.6770 H   0  0  0  0  0  0  0  0  0  0  0  0
   61.7523   34.2428   47.3924 H   0  0  0  0  0  0  0  0  0  0  0  0
   58.6077   32.5277   48.3421 H   0  0  0  0  0  0  0  0  0  0  0  0
   56.4792   32.7542   47.0594 H   0  0  0  0  0  0  0  0  0  0  0  0
   56.4747   33.8856   44.8325 H   0  0  0  0  0  0  0  0  0  0  0  0
   58.6021   34.7806   43.8805 H   0  0  0  0  0  0  0  0  0  0  0  0
   60.7369   34.5545   45.1541 H   0  0  0  0  0  0  0  0  0  0  0  0
   56.6024   28.1432   44.1637 H   0  0  0  0  0  0  0  0  0  0  0  0
   58.6810   28.1850   42.7200 H   0  0  0  0  0  0  0  0  0  0  0  0
   59.4257   26.9980   43.8542 H   0  0  0  0  0  0  0  0  0  0  0  0
   56.9518   26.6360   42.1029 H   0  0  0  0  0  0  0  0  0  0  0  0
   58.5286   25.7273   42.0589 H   0  0  0  0  0  0  0  0  0  0  0  0
   57.0286   23.7066   42.0568 H   0  0  0  0  0  0  0  0  0  0  0  0
   55.5844   22.4784   45.9394 H   0  0  0  0  0  0  0  0  0  0  0  0
   56.2233   24.6904   46.8885 H   0  0  0  0  0  0  0  0  0  0  0  0
   56.6061   27.1040   46.3336 H   0  0  0  0  0  0  0  0  0  0  0  0
   58.3465   26.6207   46.1421 H   0  0  0  0  0  0  0  0  0  0  0  0
  1  2  1  0
  2  3  1  0
  3  4  1  0
  4  5  1  0
  5  6  1  0
  6  7  1  0
  7  8  1  0
  8  9  1  0
  9 10  2  0
  9 11  1  0
 11 12  1  0
 12 13  2  0
 13 14  1  0
 14 15  2  0
 15 16  1  0
 16 17  2  0
  4 18  1  0
 18 19  1  0
 19 20  1  0
 20 21  1  0
 21 22  2  0
 22 23  1  0
 23 24  1  0
 23 25  2  0
 25 26  1  0
 26 27  2  0
 27 28  1  0
 17 12  1  0
 28 18  1  0
 27 21  1  0
  1 29  1  0
  1 30  1  0
  1 31  1  0
  2 32  1  0
  2 33  1  0
  3 34  1  0
  3 35  1  0
  5 36  1  0
  5 37  1  0
  6 38  1  0
  6 39  1  0
  7 40  1  0
  7 41  1  0
 11 42  1  0
 11 43  1  0
 13 44  1  0
 14 45  1  0
 15 46  1  0
 16 47  1  0
 17 48  1  0
 18 49  1  6
 19 50  1  0
 19 51  1  0
 20 52  1  0
 20 53  1  0
 22 54  1  0
 25 55  1  0
 26 56  1  0
 28 57  1  0
 28 58  1  0
M  CHG  1  24  -1
M  END
>  <UniqueID>  (28) 
26

>  <SMILES>  (28) 
CCCN(CCCOC(=O)Cc1ccccc1)[C@H]1CCc2cc([O-])ccc2C1

>  <Energy>  (28) 
58.31295555604287

>  <Genealogy>  (28) 
CCCN(CCCOC(=O)Cc1ccccc1)C1CCc2cc([O-])ccc2C1 (protonated)
CCCN(CCCOC(=O)Cc1ccccc1)[C@H]1CCc2cc([O-])ccc2C1 (chirality)
CCCN(CCCOC(=O)Cc1ccccc1)[C@H]1CCc2cc([O-])ccc2C1 (3D coordinates assigned)
CCCN(CCCOC(=O)Cc1ccccc1)[C@H]1CCc2cc([O-])ccc2C1 (nonaromatic ring conformer: 58.31295555604287 kcal/mol)

>  <smiles>  (28) 
CCCN(CCCOC(=O)Cc1ccccc1)C1CCc2cc(O)ccc2C1

>  <score_type>  (28) 
oracle

>  <origin>  (28) 
adg

>  <m_score__min__energy>  (28) 
-10.289999999999999

>  <m_primary>  (28) 
energy

$$$$
28:0
     RDKit          3D

 28 29  0  0  0  0  0  0  0  0999 V2000
   57.4170   27.4760   45.1470 C   0  0  0  0  0  0  0  0  0  0  0  0
   57.6650   28.8700   44.7720 N   0  0  0  0  0  0  0  0  0  0  0  0
   59.0240   29.3440   44.4970 C   0  0  0  0  0  0  0  0  0  0  0  0
   56.5640   29.7900   44.6650 C   0  0  0  0  0  0  0  0  0  0  0  0
   55.3920   29.4000   44.9220 O   0  0  0  0  0  0  0  0  0  0  0  0
   56.8100   31.1300   44.3290 O   0  0  0  0  0  0  0  0  0  0  0  0
   57.5280   32.0440   45.1140 C   0  0  0  0  0  0  0  0  0  0  0  0
   57.6700   33.3560   44.6440 C   0  0  0  0  0  0  0  0  0  0  0  0
   58.3680   34.3090   45.3900 C   0  0  0  0  0  0  0  0  0  0  0  0
   58.9220   33.9630   46.6250 C   0  0  0  0  0  0  0  0  0  0  0  0
   59.6010   34.8900   47.3550 N   0  0  0  0  0  0  0  0  0  0  0  0
   60.1450   34.5890   48.5640 C   0  0  0  0  0  0  0  0  0  0  0  0
   60.0130   33.3030   49.0930 C   0  0  0  0  0  0  0  0  0  0  0  0
   59.3210   32.3290   48.3690 C   0  0  0  0  0  0  0  0  0  0  0  0
   58.7700   32.6500   47.1220 C   0  0  0  0  0  0  0  0  0  0  0  0
   58.0690   31.6970   46.3680 C   0  0  0  0  0  0  0  0  0  0  0  0
   57.4014   27.3885   46.2434 H   0  0  0  0  0  0  0  0  0  0  0  0
   56.4474   27.1536   44.7396 H   0  0  0  0  0  0  0  0  0  0  0  0
   58.2159   26.8390   44.7396 H   0  0  0  0  0  0  0  0  0  0  0  0
   59.5478   29.5267   45.4469 H   0  0  0  0  0  0  0  0  0  0  0  0
   59.5680   28.5825   43.9189 H   0  0  0  0  0  0  0  0  0  0  0  0
   58.9764   30.2786   43.9189 H   0  0  0  0  0  0  0  0  0  0  0  0
   57.2273   33.6388   43.6775 H   0  0  0  0  0  0  0  0  0  0  0  0
   58.4815   35.3330   45.0045 H   0  0  0  0  0  0  0  0  0  0  0  0
   60.6907   35.3604   49.1272 H   0  0  0  0  0  0  0  0  0  0  0  0
   60.4506   33.0590   50.0723 H   0  0  0  0  0  0  0  0  0  0  0  0
   59.2093   31.3135   48.7769 H   0  0  0  0  0  0  0  0  0  0  0  0
   57.9413   30.6760   46.7568 H   0  0  0  0  0  0  0  0  0  0  0  0
  1  2  1  0
  2  3  1  0
  2  4  1  0
  4  5  2  0
  4  6  1  0
  6  7  1  0
  7  8  2  0
  8  9  1  0
  9 10  2  0
 10 11  1  0
 11 12  2  0
 12 13  1  0
 13 14  2  0
 14 15  1  0
 15 16  2  0
 16  7  1  0
 15 10  1  0
  1 17  1  0
  1 18  1  0
  1 19  1  0
  3 20  1  0
  3 21  1  0
  3 22  1  0
  8 23  1  0
  9 24  1  0
 12 25  1  0
 13 26  1  0
 14 27  1  0
 16 28  1  0
M  END
>  <UniqueID>  (29) 
27

>  <SMILES>  (29) 
CN(C)C(=O)Oc1ccc2ncccc2c1

>  <Energy>  (29) 
32.44427791600008

>  <Genealogy>  (29) 
CN(C)C(=O)Oc1ccc2ncccc2c1 (3D coordinates assigned)
CN(C)C(=O)Oc1ccc2ncccc2c1 (optimized conformer: 32.44427791600008 kcal/mol)

>  <smiles>  (29) 
CN(C)C(=O)Oc1ccc2ncccc2c1

>  <score_type>  (29) 
oracle

>  <origin>  (29) 
adg

>  <m_score__min__energy>  (29) 
-6.21

>  <m_primary>  (29) 
energy

$$$$
29:0
     RDKit          3D

 25 27  0  0  0  0  0  0  0  0999 V2000
   59.4134   27.5153   45.9648 H   0  0  0  0  0  0  0  0  0  0  0  0
   58.4290   28.0060   45.9780 C   0  0  0  0  0  0  0  0  0  0  0  0
   58.3920   29.3430   45.9150 C   0  0  0  0  0  0  0  0  0  0  0  0
   58.9700   30.1220   46.9250 O   0  0  0  0  0  0  0  0  0  0  0  0
   58.8540   31.5120   46.9330 C   0  0  0  0  0  0  0  0  0  0  0  0
   59.4860   32.2670   47.9270 C   0  0  0  0  0  0  0  0  0  0  0  0
   60.1005   31.7679   48.6908 H   0  0  0  0  0  0  0  0  0  0  0  0
   59.3350   33.6590   47.9480 C   0  0  0  0  0  0  0  0  0  0  0  0
   59.9610   34.4110   48.9350 O   0  0  0  0  0  0  0  0  0  0  0  0
   58.5510   34.2920   46.9760 C   0  0  0  0  0  0  0  0  0  0  0  0
   58.4310   35.3853   46.9941 H   0  0  0  0  0  0  0  0  0  0  0  0
   57.9200   33.5370   45.9820 C   0  0  0  0  0  0  0  0  0  0  0  0
   57.2986   34.0352   45.2232 H   0  0  0  0  0  0  0  0  0  0  0  0
   58.0800   32.1480   45.9540 C   0  0  0  0  0  0  0  0  0  0  0  0
   57.4520   31.3830   44.9680 O   0  0  0  0  0  0  0  0  0  0  0  0
   57.8120   30.0250   44.6960 C   0  0  0  0  0  0  0  0  0  0  0  0
   58.5600   30.0096   43.8896 H   0  0  0  0  0  0  0  0  0  0  0  0
   56.9017   29.4823   44.4011 H   0  0  0  0  0  0  0  0  0  0  0  0
   57.2300   27.1510   46.0640 C   0  0  0  0  0  0  0  0  0  0  0  0
   57.2660   25.8890   46.5280 N   0  0  0  0  0  0  0  0  0  0  0  0
   55.9950   25.4610   46.3820 C   0  0  0  0  0  0  0  0  0  0  0  0
   55.6250   24.3070   46.7230 O   0  0  0  0  0  0  0  0  0  0  0  0
   55.1520   26.3620   45.8350 N   0  0  0  0  0  0  0  0  0  0  0  0
   55.9490   27.4230   45.6280 C   0  0  0  0  0  0  0  0  0  0  0  0
   55.5180   28.5900   45.0100 O   0  0  0  0  0  0  0  0  0  0  0  0
  1  2  1  0
  2  3  2  0
  3  4  1  0
  4  5  1  0
  5  6  2  0
  6  7  1  0
  6  8  1  0
  8  9  1  0
  8 10  2  0
 10 11  1  0
 10 12  1  0
 12 13  1  0
 12 14  2  0
 14 15  1  0
 15 16  1  0
 16 17  1  0
 16 18  1  0
  2 19  1  0
 19 20  1  0
 20 21  1  0
 21 22  2  0
 21 23  1  0
 23 24  1  0
 24 25  1  0
 16  3  1  0
 24 19  2  0
 14  5  1  0
M  CHG  4   9  -1  20  -1  23  -1  25  -1
M  END
>  <UniqueID>  (30) 
28

>  <SMILES>  (30) 
O=c1[n-]c([O-])c(/C=C2/COc3ccc([O-])cc3O2)[n-]1

>  <Energy>  (30) 
62.515119865211844

>  <Genealogy>  (30) 
O=c1[n-]c([O-])c(C=C2COc3ccc([O-])cc3O2)[n-]1 (protonated)
O=c1[n-]c([O-])c(/C=C2/COc3ccc([O-])cc3O2)[n-]1 (cis-trans isomerization)
O=c1[n-]c([O-])c(/C=C2/COc3ccc([O-])cc3O2)[n-]1 (3D coordinates assigned)
O=c1[n-]c([O-])c(/C=C2/COc3ccc([O-])cc3O2)[n-]1 (nonaromatic ring conformer: 62.515119865211844 kcal/mol)

>  <smiles>  (30) 
O=c1[nH]c(O)c(C=C2COc3ccc(O)cc3O2)[nH]1

>  <score_type>  (30) 
oracle

>  <origin>  (30) 
adg

>  <m_score__min__energy>  (30) 
-16.350000000000001

>  <m_primary>  (30) 
energy

$$$$
30:0
     RDKit          3D

 66 70  0  0  0  0  0  0  0  0999 V2000
   54.8760   23.4250   47.9350 O   0  0  0  0  0  0  0  0  0  0  0  0
   55.7490   23.8850   47.1510 C   0  0  0  0  0  0  0  0  0  0  0  0
   56.3830   25.1240   47.4850 N   0  0  0  0  0  0  0  0  0  0  0  0
   57.3370   25.8520   46.6920 C   0  0  0  0  0  0  0  0  0  0  0  0
   58.7210   25.6620   46.8580 C   0  0  0  0  0  0  0  0  0  0  0  0
   59.6310   26.4260   46.1240 C   0  0  0  0  0  0  0  0  0  0  0  0
   59.1750   27.4060   45.2440 C   0  0  0  0  0  0  0  0  0  0  0  0
   57.7960   27.6160   45.0710 C   0  0  0  0  0  0  0  0  0  0  0  0
   57.2960   28.6700   44.2350 N   0  0  0  0  0  0  0  0  0  0  0  0
   56.6380   29.8730   44.6570 C   0  0  0  0  0  0  0  0  0  0  0  0
   55.4770   29.7750   45.1450 O   0  0  0  0  0  0  0  0  0  0  0  0
   57.2550   31.2150   44.5030 C   0  0  0  0  0  0  0  0  0  0  0  0
   57.6770   31.6470   43.2300 C   0  0  0  0  0  0  0  0  0  0  0  0
   58.2720   32.9010   43.0670 C   0  0  0  0  0  0  0  0  0  0  0  0
   58.4530   33.7400   44.1650 C   0  0  0  0  0  0  0  0  0  0  0  0
   58.0450   33.3270   45.4400 C   0  0  0  0  0  0  0  0  0  0  0  0
   58.1360   34.2840   46.5940 C   0  0  0  0  0  0  0  0  0  0  0  0
   59.5010   34.2050   47.1600 N   0  0  0  0  0  0  0  0  0  0  0  0
   60.4390   33.5440   46.2400 C   0  0  0  0  0  0  0  0  0  0  0  0
   61.8670   33.6510   46.7840 C   0  0  0  0  0  0  0  0  0  0  0  0
   61.9860   33.1830   48.1810 N   0  0  0  0  0  0  0  0  0  0  0  0
   62.4630   31.7990   48.3590 C   0  0  0  0  0  0  0  0  0  0  0  0
   61.3650   30.7740   48.3630 C   0  0  0  0  0  0  0  0  0  0  0  0
   60.5950   30.4830   47.2270 C   0  0  0  0  0  0  0  0  0  0  0  0
   59.5610   29.5860   47.4660 C   0  0  0  0  0  0  0  0  0  0  0  0
   59.6060   29.1680   49.0910 S   0  0  0  0  0  0  0  0  0  0  0  0
   60.9310   30.1160   49.5090 C   0  0  0  0  0  0  0  0  0  0  0  0
   60.9080   33.6230   49.0950 C   0  0  0  0  0  0  0  0  0  0  0  0
   59.5140   33.5200   48.4620 C   0  0  0  0  0  0  0  0  0  0  0  0
   57.4580   32.0620   45.6080 C   0  0  0  0  0  0  0  0  0  0  0  0
   56.8790   26.8370   45.7970 C   0  0  0  0  0  0  0  0  0  0  0  0
   55.5130   27.0600   45.6160 O   0  0  0  0  0  0  0  0  0  0  0  0
   56.0540   23.1550   45.8970 C   0  0  0  0  0  0  0  0  0  0  0  0
   56.7840   21.9520   45.9170 C   0  0  0  0  0  0  0  0  0  0  0  0
   57.0950   21.2920   44.7210 C   0  0  0  0  0  0  0  0  0  0  0  0
   56.6730   21.8220   43.4990 C   0  0  0  0  0  0  0  0  0  0  0  0
   56.9760   21.1880   42.3400 F   0  0  0  0  0  0  0  0  0  0  0  0
   55.9450   23.0150   43.4690 C   0  0  0  0  0  0  0  0  0  0  0  0
   55.6450   23.6830   44.6600 C   0  0  0  0  0  0  0  0  0  0  0  0
   59.0883   24.9078   47.5696 H   0  0  0  0  0  0  0  0  0  0  0  0
   60.7111   26.2538   46.2408 H   0  0  0  0  0  0  0  0  0  0  0  0
   59.8970   28.0174   44.6828 H   0  0  0  0  0  0  0  0  0  0  0  0
   57.5370   30.9920   42.3574 H   0  0  0  0  0  0  0  0  0  0  0  0
   58.5986   33.2270   42.0685 H   0  0  0  0  0  0  0  0  0  0  0  0
   58.9170   34.7282   44.0303 H   0  0  0  0  0  0  0  0  0  0  0  0
   57.9376   35.3078   46.2441 H   0  0  0  0  0  0  0  0  0  0  0  0
   57.3929   34.0221   47.3616 H   0  0  0  0  0  0  0  0  0  0  0  0
   60.1654   32.4832   46.1404 H   0  0  0  0  0  0  0  0  0  0  0  0
   60.3885   34.0354   45.2572 H   0  0  0  0  0  0  0  0  0  0  0  0
   62.5301   33.0420   46.1520 H   0  0  0  0  0  0  0  0  0  0  0  0
   62.1485   34.7142   46.7665 H   0  0  0  0  0  0  0  0  0  0  0  0
   63.1550   31.5625   47.5373 H   0  0  0  0  0  0  0  0  0  0  0  0
   62.9480   31.7521   49.3452 H   0  0  0  0  0  0  0  0  0  0  0  0
   60.7916   30.9240   46.2386 H   0  0  0  0  0  0  0  0  0  0  0  0
   58.8405   29.2154   46.7220 H   0  0  0  0  0  0  0  0  0  0  0  0
   61.3757   30.2006   50.5115 H   0  0  0  0  0  0  0  0  0  0  0  0
   60.9323   32.9930   49.9964 H   0  0  0  0  0  0  0  0  0  0  0  0
   61.0867   34.6820   49.3329 H   0  0  0  0  0  0  0  0  0  0  0  0
   59.2563   32.4602   48.3187 H   0  0  0  0  0  0  0  0  0  0  0  0
   58.7789   33.9958   49.1278 H   0  0  0  0  0  0  0  0  0  0  0  0
   57.1544   31.7307   46.6120 H   0  0  0  0  0  0  0  0  0  0  0  0
   55.1500   27.8460   45.0870 H   0  0  0  0  0  0  0  0  0  0  0  0
   57.1123   21.5275   46.8772 H   0  0  0  0  0  0  0  0  0  0  0  0
   57.6719   20.3557   44.7440 H   0  0  0  0  0  0  0  0  0  0  0  0
   55.6078   23.4287   42.5072 H   0  0  0  0  0  0  0  0  0  0  0  0
   55.0846   24.6290   44.6289 H   0  0  0  0  0  0  0  0  0  0  0  0
  1  2  2  0
  2  3  1  0
  3  4  1  0
  4  5  2  0
  5  6  1  0
  6  7  2  0
  7  8  1  0
  8  9  1  0
  9 10  1  0
 10 11  2  0
 10 12  1  0
 12 13  2  0
 13 14  1  0
 14 15  2  0
 15 16  1  0
 16 17  1  0
 17 18  1  0
 18 19  1  0
 19 20  1  0
 20 21  1  0
 21 22  1  0
 22 23  1  0
 23 24  1  0
 24 25  2  0
 25 26  1  0
 26 27  1  0
 21 28  1  0
 28 29  1  0
 16 30  2  0
  8 31  2  0
 31 32  1  0
  2 33  1  0
 33 34  2  0
 34 35  1  0
 35 36  2  0
 36 37  1  0
 36 38  1  0
 38 39  2  0
 31  4  1  0
 39 33  1  0
 30 12  1  0
 29 18  1  0
 27 23  2  0
  5 40  1  0
  6 41  1  0
  7 42  1  0
 13 43  1  0
 14 44  1  0
 15 45  1  0
 17 46  1  0
 17 47  1  0
 19 48  1  0
 19 49  1  0
 20 50  1  0
 20 51  1  0
 22 52  1  0
 22 53  1  0
 24 54  1  0
 25 55  1  0
 27 56  1  0
 28 57  1  0
 28 58  1  0
 29 59  1  0
 29 60  1  0
 30 61  1  0
 32 62  1  0
 34 63  1  0
 35 64  1  0
 38 65  1  0
 39 66  1  0
M  CHG  2   3  -1   9  -1
M  END
>  <UniqueID>  (31) 
29

>  <SMILES>  (31) 
O=C([N-]c1cccc([N-]C(=O)c2cccc(CN3CCN(Cc4ccsc4)CC3)c2)c1O)c1ccc(F)cc1

>  <Energy>  (31) 
118.37951994225614

>  <Genealogy>  (31) 
O=C([N-]c1cccc([N-]C(=O)c2cccc(CN3CCN(Cc4ccsc4)CC3)c2)c1O)c1ccc(F)cc1 (protonated)
O=C([N-]c1cccc([N-]C(=O)c2cccc(CN3CCN(Cc4ccsc4)CC3)c2)c1O)c1ccc(F)cc1 (3D coordinates assigned)
O=C([N-]c1cccc([N-]C(=O)c2cccc(CN3CCN(Cc4ccsc4)CC3)c2)c1O)c1ccc(F)cc1 (nonaromatic ring conformer: 118.37951994225614 kcal/mol)

>  <smiles>  (31) 
O=C(Nc1cccc(NC(=O)c2cccc(CN3CCN(Cc4ccsc4)CC3)c2)c1O)c1ccc(F)cc1

>  <score_type>  (31) 
oracle

>  <origin>  (31) 
adg

>  <m_score__min__energy>  (31) 
-15.67

>  <m_primary>  (31) 
energy

$$$$
31:0
     RDKit          3D

 71 75  0  0  0  0  0  0  0  0999 V2000
   54.9280   24.1710   45.5160 C   0  0  0  0  0  0  0  0  0  0  0  0
   55.8670   24.2550   46.7090 C   0  0  0  0  0  0  0  0  0  0  0  0
   56.3630   25.6230   46.8370 N   0  0  0  0  0  0  0  0  0  0  0  0
   56.6290   26.5210   45.7490 C   0  0  0  0  0  0  0  0  0  0  0  0
   55.9050   27.5450   45.6380 O   0  0  0  0  0  0  0  0  0  0  0  0
   57.7480   26.2710   44.7500 C   0  0  0  0  0  0  0  0  0  0  0  0
   58.7510   25.1990   45.2470 C   0  0  0  0  0  0  0  0  0  0  0  0
   59.9310   25.7740   46.0660 C   0  0  0  0  0  0  0  0  0  0  0  0
   59.6490   27.1340   46.5510 N   0  0  0  0  0  0  0  0  0  0  0  0
   59.8090   27.4540   47.9510 C   0  0  0  0  0  0  0  0  0  0  0  0
   59.5310   26.5870   48.8220 O   0  0  0  0  0  0  0  0  0  0  0  0
   60.2260   28.8040   48.3910 C   0  0  0  0  0  0  0  0  0  0  0  0
   61.0190   28.9550   49.5570 C   0  0  0  0  0  0  0  0  0  0  0  0
   61.3880   30.2320   50.0190 C   0  0  0  0  0  0  0  0  0  0  0  0
   60.9460   31.3380   49.2930 C   0  0  0  0  0  0  0  0  0  0  0  0
   60.1910   31.2000   48.1590 C   0  0  0  0  0  0  0  0  0  0  0  0
   59.8340   29.9470   47.6610 C   0  0  0  0  0  0  0  0  0  0  0  0
   59.9140   32.4210   47.6540 N   0  0  0  0  0  0  0  0  0  0  0  0
   59.0770   32.7590   46.5350 C   0  0  0  0  0  0  0  0  0  0  0  0
   59.1780   34.0240   45.9370 C   0  0  0  0  0  0  0  0  0  0  0  0
   58.3460   34.3640   44.8690 C   0  0  0  0  0  0  0  0  0  0  0  0
   57.3960   33.4540   44.4000 C   0  0  0  0  0  0  0  0  0  0  0  0
   57.2740   32.1890   44.9890 C   0  0  0  0  0  0  0  0  0  0  0  0
   56.3010   31.3130   44.4860 O   0  0  0  0  0  0  0  0  0  0  0  0
   56.5620   30.2710   43.5510 C   0  0  0  0  0  0  0  0  0  0  0  0
   58.1220   31.8460   46.0600 C   0  0  0  0  0  0  0  0  0  0  0  0
   60.5200   33.2800   48.5130 C   0  0  0  0  0  0  0  0  0  0  0  0
   60.4660   34.5360   48.3920 O   0  0  0  0  0  0  0  0  0  0  0  0
   61.1510   32.6510   49.5370 N   0  0  0  0  0  0  0  0  0  0  0  0
   61.8820   33.2740   50.6440 C   0  0  0  0  0  0  0  0  0  0  0  0
   63.3150   32.8000   50.7040 C   0  0  0  0  0  0  0  0  0  0  0  0
   63.7510   32.2310   51.8620 N   0  0  0  0  0  0  0  0  0  0  0  0
   65.0150   31.7580   52.0110 C   0  0  0  0  0  0  0  0  0  0  0  0
   65.9180   31.8370   50.9510 C   0  0  0  0  0  0  0  0  0  0  0  0
   65.5120   32.4130   49.7510 C   0  0  0  0  0  0  0  0  0  0  0  0
   64.2010   32.8910   49.6000 C   0  0  0  0  0  0  0  0  0  0  0  0
   63.7940   33.5090   48.2900 C   0  0  0  0  0  0  0  0  0  0  0  0
   59.2260   28.1670   45.5940 C   0  0  0  0  0  0  0  0  0  0  0  0
   58.4980   27.5640   44.3850 C   0  0  0  0  0  0  0  0  0  0  0  0
   53.8911   24.0782   45.8713 H   0  0  0  0  0  0  0  0  0  0  0  0
   55.0268   25.0816   44.9068 H   0  0  0  0  0  0  0  0  0  0  0  0
   55.1868   23.2924   44.9068 H   0  0  0  0  0  0  0  0  0  0  0  0
   55.3250   23.9735   47.6239 H   0  0  0  0  0  0  0  0  0  0  0  0
   56.7135   23.5683   46.5610 H   0  0  0  0  0  0  0  0  0  0  0  0
   57.2592   25.8872   43.8424 H   0  0  0  0  0  0  0  0  0  0  0  0
   58.2067   24.4830   45.8803 H   0  0  0  0  0  0  0  0  0  0  0  0
   59.1839   24.7284   44.3519 H   0  0  0  0  0  0  0  0  0  0  0  0
   60.1168   25.1193   46.9302 H   0  0  0  0  0  0  0  0  0  0  0  0
   60.8118   25.8215   45.4088 H   0  0  0  0  0  0  0  0  0  0  0  0
   61.3500   28.0621   50.1076 H   0  0  0  0  0  0  0  0  0  0  0  0
   62.0041   30.3539   50.9221 H   0  0  0  0  0  0  0  0  0  0  0  0
   59.2630   29.8521   46.7256 H   0  0  0  0  0  0  0  0  0  0  0  0
   59.9150   34.7501   46.3108 H   0  0  0  0  0  0  0  0  0  0  0  0
   58.4389   35.3523   44.3950 H   0  0  0  0  0  0  0  0  0  0  0  0
   56.7393   33.7325   43.5626 H   0  0  0  0  0  0  0  0  0  0  0  0
   56.7946   29.3422   44.0925 H   0  0  0  0  0  0  0  0  0  0  0  0
   55.6752   30.1147   42.9191 H   0  0  0  0  0  0  0  0  0  0  0  0
   57.4177   30.5512   42.9191 H   0  0  0  0  0  0  0  0  0  0  0  0
   58.0353   30.8544   46.5283 H   0  0  0  0  0  0  0  0  0  0  0  0
   61.8729   34.3655   50.5077 H   0  0  0  0  0  0  0  0  0  0  0  0
   61.3872   32.9901   51.5845 H   0  0  0  0  0  0  0  0  0  0  0  0
   65.3267   31.3127   52.9673 H   0  0  0  0  0  0  0  0  0  0  0  0
   66.9408   31.4479   51.0624 H   0  0  0  0  0  0  0  0  0  0  0  0
   66.2230   32.4942   48.9156 H   0  0  0  0  0  0  0  0  0  0  0  0
   63.1982   34.4137   48.4808 H   0  0  0  0  0  0  0  0  0  0  0  0
   64.6932   33.7765   47.7157 H   0  0  0  0  0  0  0  0  0  0  0  0
   63.1930   32.7886   47.7157 H   0  0  0  0  0  0  0  0  0  0  0  0
   58.5485   28.8679   46.1037 H   0  0  0  0  0  0  0  0  0  0  0  0
   60.1267   28.6814   45.2276 H   0  0  0  0  0  0  0  0  0  0  0  0
   57.7739   28.2990   44.0036 H   0  0  0  0  0  0  0  0  0  0  0  0
   59.2519   27.3161   43.6233 H   0  0  0  0  0  0  0  0  0  0  0  0
  1  2  1  0
  2  3  1  0
  3  4  1  0
  4  5  2  0
  4  6  1  0
  6  7  1  0
  7  8  1  0
  8  9  1  0
  9 10  1  0
 10 11  2  0
 10 12  1  0
 12 13  2  0
 13 14  1  0
 14 15  2  0
 15 16  1  0
 16 17  2  0
 16 18  1  0
 18 19  1  0
 19 20  2  0
 20 21  1  0
 21 22  2  0
 22 23  1  0
 23 24  1  0
 24 25  1  0
 23 26  2  0
 18 27  1  0
 27 28  2  0
 27 29  1  0
 29 30  1  0
 30 31  1  0
 31 32  2  0
 32 33  1  0
 33 34  2  0
 34 35  1  0
 35 36  2  0
 36 37  1  0
  9 38  1  0
 38 39  1  0
 39  6  1  0
 17 12  1  0
 26 19  1  0
 36 31  1  0
 29 15  1  0
  1 40  1  0
  1 41  1  0
  1 42  1  0
  2 43  1  0
  2 44  1  0
  6 45  1  0
  7 46  1  0
  7 47  1  0
  8 48  1  0
  8 49  1  0
 13 50  1  0
 14 51  1  0
 17 52  1  0
 20 53  1  0
 21 54  1  0
 22 55  1  0
 25 56  1  0
 25 57  1  0
 25 58  1  0
 26 59  1  0
 30 60  1  0
 30 61  1  0
 33 62  1  0
 34 63  1  0
 35 64  1  0
 37 65  1  0
 37 66  1  0
 37 67  1  0
 38 68  1  0
 38 69  1  0
 39 70  1  0
 39 71  1  0
M  CHG  1   3  -1
M  END
>  <UniqueID>  (32) 
30

>  <SMILES>  (32) 
CC[N-]C(=O)C1CCN(C(=O)c2ccc3c(c2)n(-c2cccc(OC)c2)c(=O)n3Cc2ncccc2C)CC1

>  <Energy>  (32) 
127.47668538870506

>  <Genealogy>  (32) 
CC[N-]C(=O)C1CCN(C(=O)c2ccc3c(c2)n(-c2cccc(OC)c2)c(=O)n3Cc2ncccc2C)CC1 (protonated)
CC[N-]C(=O)C1CCN(C(=O)c2ccc3c(c2)n(-c2cccc(OC)c2)c(=O)n3Cc2ncccc2C)CC1 (3D coordinates assigned)
CC[N-]C(=O)C1CCN(C(=O)c2ccc3c(c2)n(-c2cccc(OC)c2)c(=O)n3Cc2ncccc2C)CC1 (nonaromatic ring conformer: 127.47668538870506 kcal/mol)

>  <smiles>  (32) 
CCNC(=O)C1CCN(C(=O)c2ccc3c(c2)n(-c2cccc(OC)c2)c(=O)n3Cc2ncccc2C)CC1

>  <score_type>  (32) 
oracle

>  <origin>  (32) 
adg

>  <m_score__min__energy>  (32) 
-12.5

>  <m_primary>  (32) 
energy

$$$$
32:0
     RDKit          3D

 83 88  0  0  1  0  0  0  0  0999 V2000
   63.0360   30.2990   50.8120 C   0  0  0  0  0  0  0  0  0  0  0  0
   64.0360   31.3450   50.4440 N   0  0  0  0  0  0  0  0  0  0  0  0
   64.8650   31.6250   51.5390 C   0  0  0  0  0  0  0  0  0  0  0  0
   65.9160   32.6260   51.3520 C   0  0  0  0  0  0  0  0  0  0  0  0
   67.0350   32.4540   50.5500 C   0  0  0  0  0  0  0  0  0  0  0  0
   67.9910   33.4610   50.4180 C   0  0  0  0  0  0  0  0  0  0  0  0
   67.7900   34.6450   51.1150 C   0  0  0  0  0  0  0  0  0  0  0  0
   66.6950   34.8540   51.9190 C   0  0  0  0  0  0  0  0  0  0  0  0
   65.7650   33.8420   52.0320 C   0  0  0  0  0  0  0  0  0  0  0  0
   63.4160   32.3560   49.6800 C   0  0  0  0  0  0  0  0  0  0  0  0
   62.8100   33.3950   50.5780 C   0  0  0  0  0  0  0  0  0  0  0  0
   62.2460   34.5570   49.7760 C   0  0  0  0  0  0  0  0  0  0  0  0
   62.1410   34.0940   48.3770 N   0  0  0  0  0  0  0  0  0  0  0  0
   60.8950   33.8510   47.7570 C   0  0  0  0  0  0  0  0  0  0  0  0
   60.9210   33.4580   46.5560 O   0  0  0  0  0  0  0  0  0  0  0  0
   59.6520   34.0650   48.5280 C   0  0  0  0  0  0  0  0  0  0  0  0
   59.2700   32.9350   49.2300 O   0  0  0  0  0  0  0  0  0  0  0  0
   59.5800   31.6440   48.8770 C   0  0  0  0  0  0  0  0  0  0  0  0
   59.6960   31.1710   47.5970 C   0  0  0  0  0  0  0  0  0  0  0  0
   60.0170   29.8480   47.3570 C   0  0  0  0  0  0  0  0  0  0  0  0
   60.2260   28.9810   48.4150 C   0  0  0  0  0  0  0  0  0  0  0  0
   60.5590   27.6410   48.4590 C   0  0  0  0  0  0  0  0  0  0  0  0
   60.7300   26.9410   47.3990 N   0  0  0  0  0  0  0  0  0  0  0  0
   59.9780   27.1610   46.2460 C   0  0  0  0  0  0  0  0  0  0  0  0
   60.4640   27.8320   45.3100 O   0  0  0  0  0  0  0  0  0  0  0  0
   58.6220   26.5730   46.2040 C   0  0  0  0  0  0  0  0  0  0  0  0
   58.4610   25.2190   46.3520 C   0  0  0  0  0  0  0  0  0  0  0  0
   57.2550   24.5630   46.2990 C   0  0  0  0  0  0  0  0  0  0  0  0
   56.1210   25.3280   46.0780 C   0  0  0  0  0  0  0  0  0  0  0  0
   56.2680   26.6880   45.9270 C   0  0  0  0  0  0  0  0  0  0  0  0
   57.4940   27.3360   45.9850 C   0  0  0  0  0  0  0  0  0  0  0  0
   57.5060   28.7300   45.8530 N   0  0  0  0  0  0  0  0  0  0  0  0
   56.7940   29.6220   44.5760 S   0  0  0  0  0  0  0  0  0  0  0  0
   55.3110   29.6810   44.8040 O   0  0  0  0  0  0  0  0  0  0  0  0
   57.1180   29.0690   43.2180 O   0  0  0  0  0  0  0  0  0  0  0  0
   57.4030   31.2710   44.6450 C   0  0  0  0  0  0  0  0  0  0  0  0
   57.4090   32.0140   45.7990 C   0  0  0  0  0  0  0  0  0  0  0  0
   57.9080   33.3050   45.7420 C   0  0  0  0  0  0  0  0  0  0  0  0
   58.3960   33.8490   44.5570 C   0  0  0  0  0  0  0  0  0  0  0  0
   58.8930   35.1150   44.5040 F   0  0  0  0  0  0  0  0  0  0  0  0
   58.3900   33.0930   43.3850 C   0  0  0  0  0  0  0  0  0  0  0  0
   57.8900   31.8240   43.4740 C   0  0  0  0  0  0  0  0  0  0  0  0
   60.6460   27.2970   49.7530 N   0  0  0  0  0  0  0  0  0  0  0  0
   60.3810   28.3620   50.4970 N   0  0  0  0  0  0  0  0  0  0  0  0
   60.1170   29.4220   49.7030 C   0  0  0  0  0  0  0  0  0  0  0  0
   59.7960   30.7450   49.9100 C   0  0  0  0  0  0  0  0  0  0  0  0
   63.4220   33.8940   47.7010 C   0  0  0  0  0  0  0  0  0  0  0  0
   64.1430   32.8160   48.4880 C   0  0  0  0  0  0  0  0  0  0  0  0
   62.9671   30.2269   51.9075 H   0  0  0  0  0  0  0  0  0  0  0  0
   62.0529   30.5704   50.3998 H   0  0  0  0  0  0  0  0  0  0  0  0
   63.3513   29.3291   50.3998 H   0  0  0  0  0  0  0  0  0  0  0  0
   64.2206   31.9732   52.3597 H   0  0  0  0  0  0  0  0  0  0  0  0
   65.4038   30.6852   51.7302 H   0  0  0  0  0  0  0  0  0  0  0  0
   67.1707   31.5062   50.0084 H   0  0  0  0  0  0  0  0  0  0  0  0
   68.8770   33.3215   49.7812 H   0  0  0  0  0  0  0  0  0  0  0  0
   68.5365   35.4473   51.0200 H   0  0  0  0  0  0  0  0  0  0  0  0
   66.5639   35.8037   52.4583 H   0  0  0  0  0  0  0  0  0  0  0  0
   64.8829   33.9930   52.6717 H   0  0  0  0  0  0  0  0  0  0  0  0
   62.5675   31.8945   49.1537 H   0  0  0  0  0  0  0  0  0  0  0  0
   61.9988   32.9352   51.1616 H   0  0  0  0  0  0  0  0  0  0  0  0
   63.5968   33.7812   51.2426 H   0  0  0  0  0  0  0  0  0  0  0  0
   61.2532   34.8357   50.1589 H   0  0  0  0  0  0  0  0  0  0  0  0
   62.8937   35.4428   49.8527 H   0  0  0  0  0  0  0  0  0  0  0  0
   59.8147   34.8866   49.2411 H   0  0  0  0  0  0  0  0  0  0  0  0
   58.8500   34.3061   47.8148 H   0  0  0  0  0  0  0  0  0  0  0  0
   59.5317   31.8524   46.7492 H   0  0  0  0  0  0  0  0  0  0  0  0
   60.1065   29.4837   46.3229 H   0  0  0  0  0  0  0  0  0  0  0  0
   59.3632   24.6142   46.5258 H   0  0  0  0  0  0  0  0  0  0  0  0
   57.1921   23.4723   46.4271 H   0  0  0  0  0  0  0  0  0  0  0  0
   55.1272   24.8595   46.0245 H   0  0  0  0  0  0  0  0  0  0  0  0
   55.3665   27.2932   45.7511 H   0  0  0  0  0  0  0  0  0  0  0  0
   57.9850   29.2730   46.6280 H   0  0  0  0  0  0  0  0  0  0  0  0
   57.0283   31.5961   46.7426 H   0  0  0  0  0  0  0  0  0  0  0  0
   57.9190   33.9161   46.6566 H   0  0  0  0  0  0  0  0  0  0  0  0
   58.7692   33.4983   42.4353 H   0  0  0  0  0  0  0  0  0  0  0  0
   57.8739   31.2076   42.5631 H   0  0  0  0  0  0  0  0  0  0  0  0
   60.8800   26.3670   50.1070 H   0  0  0  0  0  0  0  0  0  0  0  0
   60.3690   28.4170   51.5310 H   0  0  0  0  0  0  0  0  0  0  0  0
   59.7066   31.1060   50.9452 H   0  0  0  0  0  0  0  0  0  0  0  0
   63.2602   33.5668   46.6633 H   0  0  0  0  0  0  0  0  0  0  0  0
   64.0072   34.8245   47.6606 H   0  0  0  0  0  0  0  0  0  0  0  0
   64.3019   31.9524   47.8255 H   0  0  0  0  0  0  0  0  0  0  0  0
   65.0857   33.2585   48.8423 H   0  0  0  0  0  0  0  0  0  0  0  0
  1  2  1  0
  2  3  1  0
  3  4  1  0
  4  5  2  0
  5  6  1  0
  6  7  2  0
  7  8  1  0
  8  9  2  0
  2 10  1  0
 10 11  1  0
 11 12  1  0
 12 13  1  0
 13 14  1  0
 14 15  2  0
 14 16  1  0
 16 17  1  0
 17 18  1  0
 18 19  2  0
 19 20  1  0
 20 21  2  0
 21 22  1  0
 22 23  2  0
 23 24  1  0
 24 25  2  0
 24 26  1  0
 26 27  2  0
 27 28  1  0
 28 29  2  0
 29 30  1  0
 30 31  2  0
 31 32  1  0
 32 33  1  0
 33 34  2  0
 33 35  2  0
 33 36  1  0
 36 37  2  0
 37 38  1  0
 38 39  2  0
 39 40  1  0
 39 41  1  0
 41 42  2  0
 22 43  1  0
 43 44  1  0
 44 45  1  0
 45 46  2  0
 13 47  1  0
 47 48  1  0
  9  4  1  0
 48 10  1  0
 46 18  1  0
 45 21  1  0
 31 26  1  0
 42 36  1  0
  1 49  1  0
  1 50  1  0
  1 51  1  0
  3 52  1  0
  3 53  1  0
  5 54  1  0
  6 55  1  0
  7 56  1  0
  8 57  1  0
  9 58  1  0
 10 59  1  0
 11 60  1  0
 11 61  1  0
 12 62  1  0
 12 63  1  0
 16 64  1  0
 16 65  1  0
 19 66  1  0
 20 67  1  0
 27 68  1  0
 28 69  1  0
 29 70  1  0
 30 71  1  0
 32 72  1  0
 37 73  1  0
 38 74  1  0
 41 75  1  0
 42 76  1  0
 43 77  1  0
 44 78  1  0
 46 79  1  0
 47 80  1  0
 47 81  1  0
 48 82  1  0
 48 83  1  0
M  END
>  <smiles>  (33) 
CN(Cc1ccccc1)C1CCN(C(=O)COc2ccc3c(=NC(=O)c4ccccc4NS(=O)(=O)c4ccc(F)cc4)[nH][nH]c3c2)CC1

>  <score_type>  (33) 
oracle

>  <origin>  (33) 
adg

>  <m_score__min__energy>  (33) 
-11.94

>  <m_primary>  (33) 
energy

$$$$
33:0
     RDKit          3D

 49 52  0  0  0  0  0  0  0  0999 V2000
   59.6091   34.0691   49.9022 H   0  0  0  0  0  0  0  0  0  0  0  0
   59.8890   33.9340   48.8470 C   0  0  0  0  0  0  0  0  0  0  0  0
   61.2300   33.7490   48.5010 C   0  0  0  0  0  0  0  0  0  0  0  0
   62.0016   33.7435   49.2850 H   0  0  0  0  0  0  0  0  0  0  0  0
   61.5980   33.5700   47.1570 C   0  0  0  0  0  0  0  0  0  0  0  0
   63.0280   33.4250   46.7930 C   0  0  0  0  0  0  0  0  0  0  0  0
   63.6150   34.3560   46.1770 O   0  0  0  0  0  0  0  0  0  0  0  0
   63.7550   32.2350   47.1020 N   0  0  0  0  0  0  0  0  0  0  0  0
   64.7770   32.1780   46.8910 H   0  0  0  0  0  0  0  0  0  0  0  0
   63.2770   31.3800   47.4610 H   0  0  0  0  0  0  0  0  0  0  0  0
   60.5930   33.5370   46.1720 C   0  0  0  0  0  0  0  0  0  0  0  0
   60.8619   33.3364   45.1244 H   0  0  0  0  0  0  0  0  0  0  0  0
   59.2510   33.7580   46.5160 C   0  0  0  0  0  0  0  0  0  0  0  0
   58.0060   33.8370   45.2670 S   0  0  0  0  0  0  0  0  0  0  0  0
   56.6620   33.7870   45.9340 O   0  0  0  0  0  0  0  0  0  0  0  0
   58.1290   35.1230   44.4960 O   0  0  0  0  0  0  0  0  0  0  0  0
   58.1320   32.5060   44.1590 N   0  0  0  0  0  0  0  0  0  0  0  0
   57.7960   31.1450   44.4620 C   0  0  0  0  0  0  0  0  0  0  0  0
   56.5790   30.6230   43.9710 C   0  0  0  0  0  0  0  0  0  0  0  0
   55.9713   31.2225   43.2772 H   0  0  0  0  0  0  0  0  0  0  0  0
   56.1350   29.3470   44.3580 C   0  0  0  0  0  0  0  0  0  0  0  0
   55.1883   28.9418   43.9713 H   0  0  0  0  0  0  0  0  0  0  0  0
   56.9180   28.6040   45.2420 C   0  0  0  0  0  0  0  0  0  0  0  0
   56.5580   27.4040   45.7630 N   0  0  0  0  0  0  0  0  0  0  0  0
   57.4890   26.9620   46.6420 C   0  0  0  0  0  0  0  0  0  0  0  0
   57.3460   25.8450   47.2920 N   0  0  0  0  0  0  0  0  0  0  0  0
   57.2210   24.5430   46.7020 C   0  0  0  0  0  0  0  0  0  0  0  0
   58.2620   23.8510   46.5370 O   0  0  0  0  0  0  0  0  0  0  0  0
   55.9180   24.0280   46.2130 C   0  0  0  0  0  0  0  0  0  0  0  0
   55.5450   24.1820   44.8670 C   0  0  0  0  0  0  0  0  0  0  0  0
   56.2351   24.6681   44.1617 H   0  0  0  0  0  0  0  0  0  0  0  0
   54.3030   23.7220   44.4170 C   0  0  0  0  0  0  0  0  0  0  0  0
   54.0167   23.8600   43.3639 H   0  0  0  0  0  0  0  0  0  0  0  0
   53.4190   23.0840   45.3050 C   0  0  0  0  0  0  0  0  0  0  0  0
   52.1580   22.6160   44.9060 O   0  0  0  0  0  0  0  0  0  0  0  0
   51.0150   23.4450   44.7260 C   0  0  0  0  0  0  0  0  0  0  0  0
   50.6144   23.7355   45.7084 H   0  0  0  0  0  0  0  0  0  0  0  0
   51.3010   24.3471   44.1653 H   0  0  0  0  0  0  0  0  0  0  0  0
   50.2463   22.8930   44.1653 H   0  0  0  0  0  0  0  0  0  0  0  0
   53.8030   22.9050   46.6390 C   0  0  0  0  0  0  0  0  0  0  0  0
   53.1235   22.3956   47.3382 H   0  0  0  0  0  0  0  0  0  0  0  0
   55.0430   23.3680   47.0910 C   0  0  0  0  0  0  0  0  0  0  0  0
   55.3346   23.2142   48.1405 H   0  0  0  0  0  0  0  0  0  0  0  0
   58.8100   28.0250   46.7740 S   0  0  0  0  0  0  0  0  0  0  0  0
   58.1310   29.1030   45.6860 C   0  0  0  0  0  0  0  0  0  0  0  0
   58.6070   30.3510   45.3000 C   0  0  0  0  0  0  0  0  0  0  0  0
   59.5900   30.7098   45.6390 H   0  0  0  0  0  0  0  0  0  0  0  0
   58.9030   33.9480   47.8590 C   0  0  0  0  0  0  0  0  0  0  0  0
   57.8506   34.1086   48.1360 H   0  0  0  0  0  0  0  0  0  0  0  0
  1  2  1  0
  2  3  2  0
  3  4  1  0
  3  5  1  0
  5  6  1  0
  6  7  2  0
  6  8  1  0
  8  9  1  0
  8 10  1  0
  5 11  2  0
 11 12  1  0
 11 13  1  0
 13 14  1  0
 14 15  2  0
 14 16  2  0
 14 17  1  0
 17 18  1  0
 18 19  2  0
 19 20  1  0
 19 21  1  0
 21 22  1  0
 21 23  2  0
 23 24  1  0
 24 25  1  0
 25 26  2  0
 26 27  1  0
 27 28  2  0
 27 29  1  0
 29 30  2  0
 30 31  1  0
 30 32  1  0
 32 33  1  0
 32 34  2  0
 34 35  1  0
 35 36  1  0
 36 37  1  0
 36 38  1  0
 36 39  1  0
 34 40  1  0
 40 41  1  0
 40 42  2  0
 42 43  1  0
 25 44  1  0
 44 45  1  0
 45 46  2  0
 46 47  1  0
 13 48  2  0
 48 49  1  0
 48  2  1  0
 46 18  1  0
 45 23  1  0
 42 29  1  0
M  CHG  2  17  -1  24  -1
M  END
>  <UniqueID>  (34) 
31

>  <SMILES>  (34) 
COc1ccc(C(=O)/N=c2/[n-]c3ccc([N-]S(=O)(=O)c4cccc(C(N)=O)c4)cc3s2)cc1

>  <Energy>  (34) 
99.048568705554

>  <Genealogy>  (34) 
COc1ccc(C(=O)N=c2[n-]c3ccc([N-]S(=O)(=O)c4cccc(C(N)=O)c4)cc3s2)cc1 (protonated)
COc1ccc(C(=O)/N=c2/[n-]c3ccc([N-]S(=O)(=O)c4cccc(C(N)=O)c4)cc3s2)cc1 (cis-trans isomerization)
COc1ccc(C(=O)/N=c2/[n-]c3ccc([N-]S(=O)(=O)c4cccc(C(N)=O)c4)cc3s2)cc1 (3D coordinates assigned)
COc1ccc(C(=O)/N=c2/[n-]c3ccc([N-]S(=O)(=O)c4cccc(C(N)=O)c4)cc3s2)cc1 (optimized conformer: 99.048568705554 kcal/mol)

>  <smiles>  (34) 
COc1ccc(C(=O)N=c2[nH]c3ccc(NS(=O)(=O)c4cccc(C(N)=O)c4)cc3s2)cc1

>  <score_type>  (34) 
oracle

>  <origin>  (34) 
adg

>  <m_score__min__energy>  (34) 
-12.6

>  <m_primary>  (34) 
energy

$$$$
34:0
     RDKit          3D

 39 40  0  0  0  0  0  0  0  0999 V2000
   58.0200   27.6710   43.8500 C   0  0  0  0  0  0  0  0  0  0  0  0
   57.1480   28.2110   44.8360 O   0  0  0  0  0  0  0  0  0  0  0  0
   56.3820   29.3620   44.6220 C   0  0  0  0  0  0  0  0  0  0  0  0
   55.1430   29.3390   44.8690 O   0  0  0  0  0  0  0  0  0  0  0  0
   57.0140   30.6080   44.1140 C   0  0  0  0  0  0  0  0  0  0  0  0
   56.9590   30.8980   42.7360 C   0  0  0  0  0  0  0  0  0  0  0  0
   57.5490   32.0600   42.2190 C   0  0  0  0  0  0  0  0  0  0  0  0
   57.4450   32.3730   40.7550 C   0  0  0  0  0  0  0  0  0  0  0  0
   58.1800   32.9570   43.0870 C   0  0  0  0  0  0  0  0  0  0  0  0
   58.2470   32.6840   44.4530 C   0  0  0  0  0  0  0  0  0  0  0  0
   57.6580   31.5210   44.9830 C   0  0  0  0  0  0  0  0  0  0  0  0
   57.7520   31.2400   46.3540 O   0  0  0  0  0  0  0  0  0  0  0  0
   58.7200   30.4180   46.9460 C   0  0  0  0  0  0  0  0  0  0  0  0
   59.8140   30.9940   47.5060 N   0  0  0  0  0  0  0  0  0  0  0  0
   60.7890   30.2440   48.0850 C   0  0  0  0  0  0  0  0  0  0  0  0
   61.9090   30.8480   48.6640 O   0  0  0  0  0  0  0  0  0  0  0  0
   62.7390   31.7660   47.9610 C   0  0  0  0  0  0  0  0  0  0  0  0
   60.6740   28.8550   48.1000 C   0  0  0  0  0  0  0  0  0  0  0  0
   59.5500   28.2620   47.5020 C   0  0  0  0  0  0  0  0  0  0  0  0
   59.3730   26.8720   47.4640 O   0  0  0  0  0  0  0  0  0  0  0  0
   59.8740   26.0220   46.4370 C   0  0  0  0  0  0  0  0  0  0  0  0
   58.6020   29.0570   46.9340 N   0  0  0  0  0  0  0  0  0  0  0  0
   58.8558   27.1534   44.3435 H   0  0  0  0  0  0  0  0  0  0  0  0
   57.4663   26.9574   43.2221 H   0  0  0  0  0  0  0  0  0  0  0  0
   58.4121   28.4846   43.2221 H   0  0  0  0  0  0  0  0  0  0  0  0
   56.4456   30.2024   42.0560 H   0  0  0  0  0  0  0  0  0  0  0  0
   57.1006   33.4096   40.6252 H   0  0  0  0  0  0  0  0  0  0  0  0
   58.4314   32.2526   40.2833 H   0  0  0  0  0  0  0  0  0  0  0  0
   56.7268   31.6862   40.2833 H   0  0  0  0  0  0  0  0  0  0  0  0
   58.6252   33.8815   42.6907 H   0  0  0  0  0  0  0  0  0  0  0  0
   58.7658   33.3852   45.1233 H   0  0  0  0  0  0  0  0  0  0  0  0
   63.2964   32.3824   48.6817 H   0  0  0  0  0  0  0  0  0  0  0  0
   63.4473   31.2102   47.3290 H   0  0  0  0  0  0  0  0  0  0  0  0
   62.1148   32.4149   47.3290 H   0  0  0  0  0  0  0  0  0  0  0  0
   61.4499   28.2342   48.5719 H   0  0  0  0  0  0  0  0  0  0  0  0
   60.3827   25.1589   46.8911 H   0  0  0  0  0  0  0  0  0  0  0  0
   59.0394   25.6692   45.8133 H   0  0  0  0  0  0  0  0  0  0  0  0
   60.5869   26.5814   45.8133 H   0  0  0  0  0  0  0  0  0  0  0  0
   57.7890   28.6050   46.4610 H   0  0  0  0  0  0  0  0  0  0  0  0
  1  2  1  0
  2  3  1  0
  3  4  2  0
  3  5  1  0
  5  6  2  0
  6  7  1  0
  7  8  1  0
  7  9  2  0
  9 10  1  0
 10 11  2  0
 11 12  1  0
 12 13  1  0
 13 14  2  0
 14 15  1  0
 15 16  1  0
 16 17  1  0
 15 18  2  0
 18 19  1  0
 19 20  1  0
 20 21  1  0
 19 22  2  0
 11  5  1  0
 22 13  1  0
  1 23  1  0
  1 24  1  0
  1 25  1  0
  6 26  1  0
  8 27  1  0
  8 28  1  0
  8 29  1  0
  9 30  1  0
 10 31  1  0
 17 32  1  0
 17 33  1  0
 17 34  1  0
 18 35  1  0
 21 36  1  0
 21 37  1  0
 21 38  1  0
 22 39  1  0
M  CHG  1  22   1
M  END
>  <UniqueID>  (35) 
32

>  <SMILES>  (35) 
COC(=O)c1cc(C)ccc1Oc1nc(OC)cc(OC)[nH+]1

>  <Energy>  (35) 
41.80037041347792

>  <Genealogy>  (35) 
COC(=O)c1cc(C)ccc1Oc1nc(OC)cc(OC)[nH+]1 (protonated)
COC(=O)c1cc(C)ccc1Oc1nc(OC)cc(OC)[nH+]1 (3D coordinates assigned)
COC(=O)c1cc(C)ccc1Oc1nc(OC)cc(OC)[nH+]1 (optimized conformer: 41.80037041347792 kcal/mol)

>  <smiles>  (35) 
COC(=O)c1cc(C)ccc1Oc1nc(OC)cc(OC)n1

>  <score_type>  (35) 
oracle

>  <origin>  (35) 
adg

>  <m_score__min__energy>  (35) 
-4.7400000000000002

>  <m_primary>  (35) 
energy

$$$$
35:0
     RDKit          3D

 33 35  0  0  0  0  0  0  0  0999 V2000
   59.2740   33.6480   48.9500 C   0  0  0  0  0  0  0  0  0  0  0  0
   59.9850   33.3230   50.2000 N   0  0  0  0  0  0  0  0  0  0  0  0
   60.6070   31.9750   50.1660 C   0  0  0  0  0  0  0  0  0  0  0  0
   59.5620   30.8390   50.1020 C   0  0  0  0  0  0  0  0  0  0  0  0
   58.4260   31.0920   51.0480 C   0  0  0  0  0  0  0  0  0  0  0  0
   57.4360   30.1910   51.2830 N   0  0  0  0  0  0  0  0  0  0  0  0
   56.4240   30.7260   52.0070 C   0  0  0  0  0  0  0  0  0  0  0  0
   55.1670   30.0190   52.3010 C   0  0  0  0  0  0  0  0  0  0  0  0
   55.1160   28.7820   52.0980 O   0  0  0  0  0  0  0  0  0  0  0  0
   54.1040   30.6570   53.0260 N   0  0  0  0  0  0  0  0  0  0  0  0
   53.0170   31.1930   52.5420 C   0  0  0  0  0  0  0  0  0  0  0  0
   51.9090   31.3470   53.3890 C   0  0  0  0  0  0  0  0  0  0  0  0
   50.7380   31.9380   52.9070 C   0  0  0  0  0  0  0  0  0  0  0  0
   50.6680   32.3660   51.6190 N   0  0  0  0  0  0  0  0  0  0  0  0
   51.7130   32.2100   50.7630 C   0  0  0  0  0  0  0  0  0  0  0  0
   52.9020   31.6280   51.2030 C   0  0  0  0  0  0  0  0  0  0  0  0
   56.7200   32.3420   52.3780 S   0  0  0  0  0  0  0  0  0  0  0  0
   58.2150   32.3410   51.6080 C   0  0  0  0  0  0  0  0  0  0  0  0
   59.1240   33.5150   51.3890 C   0  0  0  0  0  0  0  0  0  0  0  0
   58.2975   34.0944   49.1890 H   0  0  0  0  0  0  0  0  0  0  0  0
   59.8704   34.3629   48.3642 H   0  0  0  0  0  0  0  0  0  0  0  0
   59.1236   32.7292   48.3642 H   0  0  0  0  0  0  0  0  0  0  0  0
   61.2545   31.9082   49.2793 H   0  0  0  0  0  0  0  0  0  0  0  0
   61.1790   31.8489   51.0971 H   0  0  0  0  0  0  0  0  0  0  0  0
   59.1674   30.7720   49.0774 H   0  0  0  0  0  0  0  0  0  0  0  0
   60.0528   29.8980   50.3914 H   0  0  0  0  0  0  0  0  0  0  0  0
   57.4030   29.2330   50.8670 H   0  0  0  0  0  0  0  0  0  0  0  0
   51.9621   31.0026   54.4323 H   0  0  0  0  0  0  0  0  0  0  0  0
   49.8701   32.0572   53.5722 H   0  0  0  0  0  0  0  0  0  0  0  0
   51.6204   32.5442   49.7191 H   0  0  0  0  0  0  0  0  0  0  0  0
   53.7473   31.5082   50.5094 H   0  0  0  0  0  0  0  0  0  0  0  0
   58.5125   34.4180   51.2450 H   0  0  0  0  0  0  0  0  0  0  0  0
   59.7732   33.6169   52.2712 H   0  0  0  0  0  0  0  0  0  0  0  0
  1  2  1  0
  2  3  1  0
  3  4  1  0
  4  5  1  0
  5  6  1  0
  6  7  2  0
  7  8  1  0
  8  9  2  0
  8 10  1  0
 10 11  2  3
 11 12  1  0
 12 13  2  0
 13 14  1  0
 14 15  1  0
 15 16  2  0
  7 17  1  0
 17 18  1  0
 18 19  1  0
 19  2  1  0
 18  5  2  0
 16 11  1  0
  1 20  1  0
  1 21  1  0
  1 22  1  0
  3 23  1  0
  3 24  1  0
  4 25  1  0
  4 26  1  0
  6 27  1  0
 12 28  1  0
 13 29  1  0
 15 30  1  0
 16 31  1  0
 19 32  1  0
 19 33  1  0
M  CHG  2   6   1  14  -1
M  END
>  <UniqueID>  (36) 
33

>  <SMILES>  (36) 
CN1CCc2[nH+]c(C(=O)N=c3cc[n-]cc3)sc2C1

>  <Energy>  (36) 
81.60424295061871

>  <Genealogy>  (36) 
CN1CCc2[nH+]c(C(=O)N=c3cc[n-]cc3)sc2C1 (protonated)
CN1CCc2[nH+]c(C(=O)N=c3cc[n-]cc3)sc2C1 (3D coordinates assigned)
CN1CCc2[nH+]c(C(=O)N=c3cc[n-]cc3)sc2C1 (nonaromatic ring conformer: 81.60424295061871 kcal/mol)

>  <smiles>  (36) 
CN1CCc2nc(C(=O)N=c3cc[nH]cc3)sc2C1

>  <score_type>  (36) 
oracle

>  <origin>  (36) 
adg

>  <m_score__min__energy>  (36) 
-7.2199999999999998

>  <m_primary>  (36) 
energy

$$$$
36:0
     RDKit          3D

 35 37  0  0  0  0  0  0  0  0999 V2000
   54.6410   24.0190   46.7800 H   0  0  0  0  0  0  0  0  0  0  0  0
   55.6520   24.0790   46.7980 O   0  0  0  0  0  0  0  0  0  0  0  0
   56.3210   25.2400   46.4100 C   0  0  0  0  0  0  0  0  0  0  0  0
   57.7220   25.2910   46.4220 C   0  0  0  0  0  0  0  0  0  0  0  0
   58.2970   24.4088   46.7398 H   0  0  0  0  0  0  0  0  0  0  0  0
   58.3990   26.4610   46.0310 C   0  0  0  0  0  0  0  0  0  0  0  0
   59.8810   26.5130   46.0440 C   0  0  0  0  0  0  0  0  0  0  0  0
   60.5430   25.4390   46.0060 O   0  0  0  0  0  0  0  0  0  0  0  0
   60.5510   27.7850   46.1010 N   0  0  0  0  0  0  0  0  0  0  0  0
   60.2930   28.7870   46.8900 C   0  0  0  0  0  0  0  0  0  0  0  0
   60.6630   28.7830   48.1890 N   0  0  0  0  0  0  0  0  0  0  0  0
   60.2900   29.9230   48.8280 C   0  0  0  0  0  0  0  0  0  0  0  0
   60.4973   30.1001   49.8937 H   0  0  0  0  0  0  0  0  0  0  0  0
   59.6260   30.8480   48.0300 C   0  0  0  0  0  0  0  0  0  0  0  0
   59.0580   32.1560   48.4890 C   0  0  0  0  0  0  0  0  0  0  0  0
   58.1031   31.9762   49.0046 H   0  0  0  0  0  0  0  0  0  0  0  0
   59.7718   32.6354   49.1750 H   0  0  0  0  0  0  0  0  0  0  0  0
   58.8230   33.0670   47.3090 C   0  0  0  0  0  0  0  0  0  0  0  0
   57.5430   33.1120   46.7260 C   0  0  0  0  0  0  0  0  0  0  0  0
   56.7288   32.5061   47.1502 H   0  0  0  0  0  0  0  0  0  0  0  0
   57.2980   33.9190   45.6140 C   0  0  0  0  0  0  0  0  0  0  0  0
   56.2922   33.9512   45.1697 H   0  0  0  0  0  0  0  0  0  0  0  0
   58.3270   34.6850   45.0650 C   0  0  0  0  0  0  0  0  0  0  0  0
   58.1315   35.3221   44.1898 H   0  0  0  0  0  0  0  0  0  0  0  0
   59.6040   34.6430   45.6260 C   0  0  0  0  0  0  0  0  0  0  0  0
   60.4127   35.2473   45.1892 H   0  0  0  0  0  0  0  0  0  0  0  0
   59.8630   33.8370   46.7410 C   0  0  0  0  0  0  0  0  0  0  0  0
   61.4990   33.8220   47.3910 Cl  0  0  0  0  0  0  0  0  0  0  0  0
   59.4820   30.2120   46.4800 S   0  0  0  0  0  0  0  0  0  0  0  0
   57.6470   27.5780   45.6250 C   0  0  0  0  0  0  0  0  0  0  0  0
   58.1621   28.4990   45.3145 H   0  0  0  0  0  0  0  0  0  0  0  0
   56.2490   27.5270   45.6130 C   0  0  0  0  0  0  0  0  0  0  0  0
   55.5210   28.6410   45.2110 O   0  0  0  0  0  0  0  0  0  0  0  0
   55.5860   26.3590   46.0050 C   0  0  0  0  0  0  0  0  0  0  0  0
   54.1960   26.3120   45.9910 O   0  0  0  0  0  0  0  0  0  0  0  0
  1  2  1  0
  2  3  1  0
  3  4  2  0
  4  5  1  0
  4  6  1  0
  6  7  1  0
  7  8  2  0
  7  9  1  0
  9 10  2  0
 10 11  1  0
 11 12  1  0
 12 13  1  0
 12 14  2  0
 14 15  1  0
 15 16  1  0
 15 17  1  0
 15 18  1  0
 18 19  2  0
 19 20  1  0
 19 21  1  0
 21 22  1  0
 21 23  2  0
 23 24  1  0
 23 25  1  0
 25 26  1  0
 25 27  2  0
 27 28  1  0
 14 29  1  0
  6 30  2  0
 30 31  1  0
 30 32  1  0
 32 33  1  0
 32 34  2  0
 34 35  1  0
 34  3  1  0
 29 10  1  0
 27 18  1  0
M  CHG  3  11  -1  33  -1  35  -1
M  END
>  <UniqueID>  (37) 
34

>  <SMILES>  (37) 
O=C(/N=c1/[n-]cc(Cc2ccccc2Cl)s1)c1cc([O-])c([O-])c(O)c1

>  <Energy>  (37) 
72.08771304215749

>  <Genealogy>  (37) 
O=C(N=c1[n-]cc(Cc2ccccc2Cl)s1)c1cc([O-])c([O-])c(O)c1 (protonated)
O=C(/N=c1/[n-]cc(Cc2ccccc2Cl)s1)c1cc([O-])c([O-])c(O)c1 (cis-trans isomerization)
O=C(/N=c1/[n-]cc(Cc2ccccc2Cl)s1)c1cc([O-])c([O-])c(O)c1 (3D coordinates assigned)
O=C(/N=c1/[n-]cc(Cc2ccccc2Cl)s1)c1cc([O-])c([O-])c(O)c1 (optimized conformer: 72.08771304215749 kcal/mol)

>  <smiles>  (37) 
O=C(N=c1[nH]cc(Cc2ccccc2Cl)s1)c1cc(O)c(O)c(O)c1

>  <score_type>  (37) 
oracle

>  <origin>  (37) 
adg

>  <m_score__min__energy>  (37) 
-18.32

>  <m_primary>  (37) 
energy

$$$$
37:0
     RDKit          3D

 39 42  0  0  0  0  0  0  0  0999 V2000
   63.5401   33.3722   47.7793 H   0  0  0  0  0  0  0  0  0  0  0  0
   62.4460   33.3640   47.8930 C   0  0  0  0  0  0  0  0  0  0  0  0
   61.8510   34.2050   48.7790 N   0  0  0  0  0  0  0  0  0  0  0  0
   60.5020   34.2260   48.9440 C   0  0  0  0  0  0  0  0  0  0  0  0
   60.0484   34.9191   49.6678 H   0  0  0  0  0  0  0  0  0  0  0  0
   59.6910   33.3700   48.1970 C   0  0  0  0  0  0  0  0  0  0  0  0
   58.5993   33.3866   48.3311 H   0  0  0  0  0  0  0  0  0  0  0  0
   60.2750   32.4870   47.2730 C   0  0  0  0  0  0  0  0  0  0  0  0
   59.4380   31.5630   46.4680 C   0  0  0  0  0  0  0  0  0  0  0  0
   59.2040   30.2540   46.9100 C   0  0  0  0  0  0  0  0  0  0  0  0
   59.6308   29.9176   47.8664 H   0  0  0  0  0  0  0  0  0  0  0  0
   58.4320   29.3700   46.1460 C   0  0  0  0  0  0  0  0  0  0  0  0
   58.3040   27.9700   46.6240 C   0  0  0  0  0  0  0  0  0  0  0  0
   59.3310   27.3740   47.0410 O   0  0  0  0  0  0  0  0  0  0  0  0
   57.0420   27.2810   46.6760 N   0  0  0  0  0  0  0  0  0  0  0  0
   56.6370   26.2670   45.9640 C   0  0  0  0  0  0  0  0  0  0  0  0
   55.3380   25.8750   46.0820 N   0  0  0  0  0  0  0  0  0  0  0  0
   54.8250   24.8290   45.3820 C   0  0  0  0  0  0  0  0  0  0  0  0
   53.7678   24.5508   45.5043 H   0  0  0  0  0  0  0  0  0  0  0  0
   55.6400   24.1080   44.5080 C   0  0  0  0  0  0  0  0  0  0  0  0
   55.1360   23.0630   43.8060 F   0  0  0  0  0  0  0  0  0  0  0  0
   56.9820   24.4650   44.3780 C   0  0  0  0  0  0  0  0  0  0  0  0
   57.6385   23.8990   43.7007 H   0  0  0  0  0  0  0  0  0  0  0  0
   57.4920   25.5400   45.1070 C   0  0  0  0  0  0  0  0  0  0  0  0
   58.5520   25.8190   45.0148 H   0  0  0  0  0  0  0  0  0  0  0  0
   57.8370   29.8360   44.9480 C   0  0  0  0  0  0  0  0  0  0  0  0
   56.9630   29.0440   44.1720 C   0  0  0  0  0  0  0  0  0  0  0  0
   56.7091   28.0266   44.5044 H   0  0  0  0  0  0  0  0  0  0  0  0
   56.4180   29.5410   42.9860 C   0  0  0  0  0  0  0  0  0  0  0  0
   55.7483   28.9092   42.3840 H   0  0  0  0  0  0  0  0  0  0  0  0
   56.7190   30.8340   42.5620 C   0  0  0  0  0  0  0  0  0  0  0  0
   56.2980   31.2144   41.6196 H   0  0  0  0  0  0  0  0  0  0  0  0
   57.5530   31.6470   43.3300 C   0  0  0  0  0  0  0  0  0  0  0  0
   57.7783   32.6705   42.9957 H   0  0  0  0  0  0  0  0  0  0  0  0
   58.1070   31.1650   44.5290 C   0  0  0  0  0  0  0  0  0  0  0  0
   58.8950   31.9800   45.2880 N   0  0  0  0  0  0  0  0  0  0  0  0
   59.0960   32.9480   44.9500 H   0  0  0  0  0  0  0  0  0  0  0  0
   61.6730   32.4890   47.1260 C   0  0  0  0  0  0  0  0  0  0  0  0
   62.1553   31.8058   46.4114 H   0  0  0  0  0  0  0  0  0  0  0  0
  1  2  1  0
  2  3  2  0
  3  4  1  0
  4  5  1  0
  4  6  2  0
  6  7  1  0
  6  8  1  0
  8  9  1  0
  9 10  2  0
 10 11  1  0
 10 12  1  0
 12 13  1  0
 13 14  2  0
 13 15  1  0
 15 16  2  0
 16 17  1  0
 17 18  1  0
 18 19  1  0
 18 20  2  0
 20 21  1  0
 20 22  1  0
 22 23  1  0
 22 24  2  0
 24 25  1  0
 12 26  2  0
 26 27  1  0
 27 28  1  0
 27 29  2  0
 29 30  1  0
 29 31  1  0
 31 32  1  0
 31 33  2  0
 33 34  1  0
 33 35  1  0
 35 36  2  0
 36 37  1  0
  8 38  2  0
 38 39  1  0
 38  2  1  0
 36  9  1  0
 24 16  1  0
 35 26  1  0
M  CHG  2  17  -1  36   1
M  END
>  <UniqueID>  (38) 
35

>  <SMILES>  (38) 
O=C(/N=c1\ccc(F)c[n-]1)c1cc(-c2ccncc2)[nH+]c2ccccc12

>  <Energy>  (38) 
68.96783518895448

>  <Genealogy>  (38) 
O=C(N=c1ccc(F)c[n-]1)c1cc(-c2ccncc2)[nH+]c2ccccc12 (protonated)
O=C(/N=c1\ccc(F)c[n-]1)c1cc(-c2ccncc2)[nH+]c2ccccc12 (cis-trans isomerization)
O=C(/N=c1\ccc(F)c[n-]1)c1cc(-c2ccncc2)[nH+]c2ccccc12 (3D coordinates assigned)
O=C(/N=c1\ccc(F)c[n-]1)c1cc(-c2ccncc2)[nH+]c2ccccc12 (optimized conformer: 68.96783518895448 kcal/mol)

>  <smiles>  (38) 
O=C(N=c1ccc(F)c[nH]1)c1cc(-c2ccncc2)nc2ccccc12

>  <score_type>  (38) 
oracle

>  <origin>  (38) 
adg

>  <m_score__min__energy>  (38) 
-8.2599999999999998

>  <m_primary>  (38) 
energy

$$$$
38:0
     RDKit          3D

 30 31  0  0  0  0  0  0  0  0999 V2000
   58.5096   31.2030   43.6271 H   0  0  0  0  0  0  0  0  0  0  0  0
   57.8280   31.6360   44.3740 C   0  0  0  0  0  0  0  0  0  0  0  0
   56.6200   31.1740   44.4820 N   0  0  0  0  0  0  0  0  0  0  0  0
   56.2950   29.7790   44.5410 C   0  0  0  0  0  0  0  0  0  0  0  0
   55.1450   29.3970   44.8940 O   0  0  0  0  0  0  0  0  0  0  0  0
   57.3220   28.7700   44.1420 C   0  0  0  0  0  0  0  0  0  0  0  0
   58.2353   29.2891   43.8158 H   0  0  0  0  0  0  0  0  0  0  0  0
   56.9263   28.1582   43.3179 H   0  0  0  0  0  0  0  0  0  0  0  0
   57.6450   27.8800   45.3050 C   0  0  0  0  0  0  0  0  0  0  0  0
   58.8380   27.7770   45.9980 C   0  0  0  0  0  0  0  0  0  0  0  0
   60.1060   28.5150   45.7100 C   0  0  0  0  0  0  0  0  0  0  0  0
   60.5896   28.7965   46.6570 H   0  0  0  0  0  0  0  0  0  0  0  0
   60.7824   27.8695   45.1305 H   0  0  0  0  0  0  0  0  0  0  0  0
   59.8788   29.4220   45.1305 H   0  0  0  0  0  0  0  0  0  0  0  0
   58.6630   26.9400   47.0430 N   0  0  0  0  0  0  0  0  0  0  0  0
   59.3840   26.6780   47.7500 H   0  0  0  0  0  0  0  0  0  0  0  0
   57.4140   26.5040   47.0600 N   0  0  0  0  0  0  0  0  0  0  0  0
   56.7830   27.0710   46.0160 C   0  0  0  0  0  0  0  0  0  0  0  0
   55.5650   26.8860   45.7520 O   0  0  0  0  0  0  0  0  0  0  0  0
   58.3000   32.7350   45.2400 C   0  0  0  0  0  0  0  0  0  0  0  0
   58.8160   33.9020   44.6560 C   0  0  0  0  0  0  0  0  0  0  0  0
   58.8654   33.9895   43.5606 H   0  0  0  0  0  0  0  0  0  0  0  0
   59.2680   34.9550   45.4590 C   0  0  0  0  0  0  0  0  0  0  0  0
   59.6679   35.8681   44.9939 H   0  0  0  0  0  0  0  0  0  0  0  0
   59.2120   34.8480   46.8500 C   0  0  0  0  0  0  0  0  0  0  0  0
   59.5706   35.6756   47.4796 H   0  0  0  0  0  0  0  0  0  0  0  0
   58.7010   33.6910   47.4430 C   0  0  0  0  0  0  0  0  0  0  0  0
   58.6562   33.6091   48.5390 H   0  0  0  0  0  0  0  0  0  0  0  0
   58.2460   32.6360   46.6440 C   0  0  0  0  0  0  0  0  0  0  0  0
   57.8447   31.7261   47.1142 H   0  0  0  0  0  0  0  0  0  0  0  0
  1  2  1  0
  2  3  2  0
  3  4  1  0
  4  5  2  0
  4  6  1  0
  6  7  1  0
  6  8  1  0
  6  9  1  0
  9 10  2  0
 10 11  1  0
 11 12  1  0
 11 13  1  0
 11 14  1  0
 10 15  1  0
 15 16  1  0
 15 17  1  0
 17 18  1  0
 18 19  2  0
  2 20  1  0
 20 21  2  0
 21 22  1  0
 21 23  1  0
 23 24  1  0
 23 25  2  0
 25 26  1  0
 25 27  1  0
 27 28  1  0
 27 29  2  0
 29 30  1  0
 18  9  1  0
 29 20  1  0
M  CHG  1  17  -1
M  END
>  <UniqueID>  (39) 
36

>  <SMILES>  (39) 
Cc1[nH][n-]c(=O)c1CC(=O)/N=C/c1ccccc1

>  <Energy>  (39) 
57.952058231938075

>  <Genealogy>  (39) 
Cc1[nH][n-]c(=O)c1CC(=O)N=Cc1ccccc1 (protonated)
Cc1[nH][n-]c(=O)c1CC(=O)/N=C/c1ccccc1 (cis-trans isomerization)
Cc1[nH][n-]c(=O)c1CC(=O)/N=C/c1ccccc1 (3D coordinates assigned)
Cc1[nH][n-]c(=O)c1CC(=O)/N=C/c1ccccc1 (optimized conformer: 57.952058231938075 kcal/mol)

>  <smiles>  (39) 
Cc1[nH][nH]c(=O)c1CC(=O)N=Cc1ccccc1

>  <score_type>  (39) 
oracle

>  <origin>  (39) 
adg

>  <m_score__min__energy>  (39) 
-9.4299999999999997

>  <m_primary>  (39) 
energy

$$$$
39:0
     RDKit          3D

 62 65  0  0  0  0  0  0  0  0999 V2000
   57.0193   28.2086   42.9254 H   0  0  0  0  0  0  0  0  0  0  0  0
   57.0750   29.2150   43.3660 C   0  0  0  0  0  0  0  0  0  0  0  0
   56.9570   30.3140   42.5770 N   0  0  0  0  0  0  0  0  0  0  0  0
   57.0300   31.5680   43.0910 C   0  0  0  0  0  0  0  0  0  0  0  0
   56.9316   32.4436   42.4325 H   0  0  0  0  0  0  0  0  0  0  0  0
   57.2310   31.7380   44.4620 C   0  0  0  0  0  0  0  0  0  0  0  0
   57.3460   32.9370   44.9550 N   0  0  0  0  0  0  0  0  0  0  0  0
   57.4590   33.2650   46.3800 C   0  0  0  0  0  0  0  0  0  0  0  0
   57.0833   34.2865   46.5393 H   0  0  0  0  0  0  0  0  0  0  0  0
   56.8677   32.5287   46.9441 H   0  0  0  0  0  0  0  0  0  0  0  0
   58.8850   33.1890   46.8710 C   0  0  0  0  0  0  0  0  0  0  0  0
   59.7270   34.3130   46.8260 C   0  0  0  0  0  0  0  0  0  0  0  0
   59.3284   35.2825   46.4926 H   0  0  0  0  0  0  0  0  0  0  0  0
   61.0690   34.2050   47.2030 C   0  0  0  0  0  0  0  0  0  0  0  0
   61.7262   35.0854   47.1474 H   0  0  0  0  0  0  0  0  0  0  0  0
   61.5810   32.9780   47.6520 C   0  0  0  0  0  0  0  0  0  0  0  0
   63.0130   32.8280   47.9730 C   0  0  0  0  0  0  0  0  0  0  0  0
   63.8510   32.9200   47.0340 O   0  0  0  0  0  0  0  0  0  0  0  0
   63.4700   32.6430   49.3320 N   0  0  0  0  0  0  0  0  0  0  0  0
   62.6000   33.0010   50.4690 C   0  0  0  0  0  0  0  0  0  0  0  0
   61.9943   33.8765   50.1922 H   0  0  0  0  0  0  0  0  0  0  0  0
   61.9613   32.1350   50.6972 H   0  0  0  0  0  0  0  0  0  0  0  0
   63.4160   33.3380   51.7270 C   0  0  0  0  0  0  0  0  0  0  0  0
   62.7884   33.9132   52.4237 H   0  0  0  0  0  0  0  0  0  0  0  0
   63.7450   32.4021   52.2023 H   0  0  0  0  0  0  0  0  0  0  0  0
   64.6480   34.1680   51.3530 C   0  0  0  0  0  0  0  0  0  0  0  0
   64.3141   35.1081   50.8895 H   0  0  0  0  0  0  0  0  0  0  0  0
   65.2201   34.3558   52.2736 H   0  0  0  0  0  0  0  0  0  0  0  0
   65.5740   33.4270   50.3630 C   0  0  0  0  0  0  0  0  0  0  0  0
   65.9498   34.1525   49.6265 H   0  0  0  0  0  0  0  0  0  0  0  0
   66.3864   32.9758   50.9516 H   0  0  0  0  0  0  0  0  0  0  0  0
   64.8690   32.2860   49.6090 C   0  0  0  0  0  0  0  0  0  0  0  0
   65.3914   32.1025   48.6585 H   0  0  0  0  0  0  0  0  0  0  0  0
   64.8895   31.3799   50.2324 H   0  0  0  0  0  0  0  0  0  0  0  0
   60.7180   31.8800   47.7830 C   0  0  0  0  0  0  0  0  0  0  0  0
   61.0954   30.9334   48.1972 H   0  0  0  0  0  0  0  0  0  0  0  0
   59.3820   31.9830   47.3900 C   0  0  0  0  0  0  0  0  0  0  0  0
   58.7149   31.1138   47.4877 H   0  0  0  0  0  0  0  0  0  0  0  0
   57.3400   30.6360   45.2540 N   0  0  0  0  0  0  0  0  0  0  0  0
   57.2690   29.3720   44.7510 C   0  0  0  0  0  0  0  0  0  0  0  0
   57.4730   28.2120   45.6600 C   0  0  0  0  0  0  0  0  0  0  0  0
   58.5430   28.2220   46.5710 C   0  0  0  0  0  0  0  0  0  0  0  0
   59.2061   29.0982   46.6220 H   0  0  0  0  0  0  0  0  0  0  0  0
   58.7730   27.1330   47.4110 C   0  0  0  0  0  0  0  0  0  0  0  0
   59.6171   27.1538   48.1160 H   0  0  0  0  0  0  0  0  0  0  0  0
   57.9370   26.0170   47.3610 C   0  0  0  0  0  0  0  0  0  0  0  0
   58.1205   25.1628   48.0293 H   0  0  0  0  0  0  0  0  0  0  0  0
   56.8610   25.9830   46.4580 C   0  0  0  0  0  0  0  0  0  0  0  0
   55.9580   24.8690   46.3950 N   0  0  0  0  0  0  0  0  0  0  0  0
   54.6510   24.8640   45.8090 C   0  0  0  0  0  0  0  0  0  0  0  0
   54.0250   25.9450   45.6280 O   0  0  0  0  0  0  0  0  0  0  0  0
   54.0350   23.6130   45.4830 N   0  0  0  0  0  0  0  0  0  0  0  0
   54.5320   22.7310   45.7400 H   0  0  0  0  0  0  0  0  0  0  0  0
   52.7080   23.5180   44.8790 C   0  0  0  0  0  0  0  0  0  0  0  0
   52.7410   22.8011   44.0454 H   0  0  0  0  0  0  0  0  0  0  0  0
   52.4128   24.5130   44.5146 H   0  0  0  0  0  0  0  0  0  0  0  0
   51.6830   23.0470   45.9040 C   0  0  0  0  0  0  0  0  0  0  0  0
   52.0702   23.2249   46.9181 H   0  0  0  0  0  0  0  0  0  0  0  0
   50.7445   23.6042   45.7668 H   0  0  0  0  0  0  0  0  0  0  0  0
   51.4946   21.9720   45.7668 H   0  0  0  0  0  0  0  0  0  0  0  0
   56.6220   27.0890   45.6320 C   0  0  0  0  0  0  0  0  0  0  0  0
   55.7576   27.0808   44.9517 H   0  0  0  0  0  0  0  0  0  0  0  0
  1  2  1  0
  2  3  1  0
  3  4  2  0
  4  5  1  0
  4  6  1  0
  6  7  2  0
  7  8  1  0
  8  9  1  0
  8 10  1  0
  8 11  1  0
 11 12  2  0
 12 13  1  0
 12 14  1  0
 14 15  1  0
 14 16  2  0
 16 17  1  0
 17 18  2  0
 17 19  1  0
 19 20  1  0
 20 21  1  0
 20 22  1  0
 20 23  1  0
 23 24  1  0
 23 25  1  0
 23 26  1  0
 26 27  1  0
 26 28  1  0
 26 29  1  0
 29 30  1  0
 29 31  1  0
 29 32  1  0
 32 33  1  0
 32 34  1  0
 16 35  1  0
 35 36  1  0
 35 37  2  0
 37 38  1  0
  6 39  1  0
 39 40  1  0
 40 41  1  0
 41 42  2  0
 42 43  1  0
 42 44  1  0
 44 45  1  0
 44 46  2  0
 46 47  1  0
 46 48  1  0
 48 49  1  0
 49 50  1  0
 50 51  2  0
 50 52  1  0
 52 53  1  0
 52 54  1  0
 54 55  1  0
 54 56  1  0
 54 57  1  0
 57 58  1  0
 57 59  1  0
 57 60  1  0
 48 61  2  0
 61 62  1  0
 40  2  2  0
 61 41  1  0
 37 11  1  0
 32 19  1  0
M  CHG  2  39  -1  49  -1
M  END
>  <UniqueID>  (40) 
37

>  <SMILES>  (40) 
CCNC(=O)[N-]c1cccc(-c2cnc/c(=N/Cc3ccc(C(=O)N4CCCCC4)cc3)[n-]2)c1

>  <Energy>  (40) 
72.86841732279024

>  <Genealogy>  (40) 
CCNC(=O)[N-]c1cccc(-c2cncc(=NCc3ccc(C(=O)N4CCCCC4)cc3)[n-]2)c1 (protonated)
CCNC(=O)[N-]c1cccc(-c2cnc/c(=N/Cc3ccc(C(=O)N4CCCCC4)cc3)[n-]2)c1 (cis-trans isomerization)
CCNC(=O)[N-]c1cccc(-c2cnc/c(=N/Cc3ccc(C(=O)N4CCCCC4)cc3)[n-]2)c1 (3D coordinates assigned)
CCNC(=O)[N-]c1cccc(-c2cnc/c(=N/Cc3ccc(C(=O)N4CCCCC4)cc3)[n-]2)c1 (nonaromatic ring conformer: 72.86841732279024 kcal/mol)

>  <smiles>  (40) 
CCNC(=O)Nc1cccc(-c2cncc(=NCc3ccc(C(=O)N4CCCCC4)cc3)[nH]2)c1

>  <score_type>  (40) 
oracle

>  <origin>  (40) 
adg

>  <m_score__min__energy>  (40) 
-12.76

>  <m_primary>  (40) 
energy

$$$$
40:0
     RDKit          3D

 53 56  0  0  0  0  0  0  0  0999 V2000
   63.0200   34.4260   50.2550 C   0  0  0  0  0  0  0  0  0  0  0  0
   62.0850   33.9760   49.1710 C   0  0  0  0  0  0  0  0  0  0  0  0
   60.7130   33.8410   49.4330 C   0  0  0  0  0  0  0  0  0  0  0  0
   59.8350   33.4600   48.4140 C   0  0  0  0  0  0  0  0  0  0  0  0
   60.3160   33.2180   47.1180 C   0  0  0  0  0  0  0  0  0  0  0  0
   59.3750   32.8300   46.0100 C   0  0  0  0  0  0  0  0  0  0  0  0
   58.8510   31.4850   46.2400 N   0  0  0  0  0  0  0  0  0  0  0  0
   59.7100   30.3390   46.3640 C   0  0  0  0  0  0  0  0  0  0  0  0
   60.9620   30.4950   46.3550 O   0  0  0  0  0  0  0  0  0  0  0  0
   59.1510   28.9750   46.5240 C   0  0  0  0  0  0  0  0  0  0  0  0
   59.9060   27.9410   47.1060 C   0  0  0  0  0  0  0  0  0  0  0  0
   59.3650   26.6610   47.2540 C   0  0  0  0  0  0  0  0  0  0  0  0
   58.0530   26.3920   46.8260 C   0  0  0  0  0  0  0  0  0  0  0  0
   57.4660   25.1200   46.9510 C   0  0  0  0  0  0  0  0  0  0  0  0
   58.1250   24.1840   47.4850 O   0  0  0  0  0  0  0  0  0  0  0  0
   56.1860   24.8980   46.4960 N   0  0  0  0  0  0  0  0  0  0  0  0
   55.5600   23.5610   46.6120 C   0  0  0  0  0  0  0  0  0  0  0  0
   55.9420   22.6570   45.4540 C   0  0  0  0  0  0  0  0  0  0  0  0
   56.3260   23.2490   44.2350 C   0  0  0  0  0  0  0  0  0  0  0  0
   56.7010   22.4630   43.1450 C   0  0  0  0  0  0  0  0  0  0  0  0
   56.6980   21.0740   43.2520 C   0  0  0  0  0  0  0  0  0  0  0  0
   56.3120   20.4660   44.4460 C   0  0  0  0  0  0  0  0  0  0  0  0
   55.9180   21.2410   45.5520 C   0  0  0  0  0  0  0  0  0  0  0  0
   55.5170   20.5360   46.8190 C   0  0  0  0  0  0  0  0  0  0  0  0
   55.4630   25.9470   45.9760 C   0  0  0  0  0  0  0  0  0  0  0  0
   54.2680   25.7880   45.6080 O   0  0  0  0  0  0  0  0  0  0  0  0
   56.0210   27.1780   45.8570 N   0  0  0  0  0  0  0  0  0  0  0  0
   57.2910   27.4240   46.2570 C   0  0  0  0  0  0  0  0  0  0  0  0
   57.8330   28.7060   46.1110 C   0  0  0  0  0  0  0  0  0  0  0  0
   61.6860   33.3740   46.8520 C   0  0  0  0  0  0  0  0  0  0  0  0
   62.5630   33.7560   47.8710 C   0  0  0  0  0  0  0  0  0  0  0  0
   62.5734   34.2111   51.2370 H   0  0  0  0  0  0  0  0  0  0  0  0
   63.9755   33.8891   50.1613 H   0  0  0  0  0  0  0  0  0  0  0  0
   63.1965   35.5077   50.1613 H   0  0  0  0  0  0  0  0  0  0  0  0
   60.3268   34.0358   50.4444 H   0  0  0  0  0  0  0  0  0  0  0  0
   58.7619   33.3494   48.6291 H   0  0  0  0  0  0  0  0  0  0  0  0
   58.5394   33.5446   45.9762 H   0  0  0  0  0  0  0  0  0  0  0  0
   59.9203   32.8441   45.0548 H   0  0  0  0  0  0  0  0  0  0  0  0
   57.8220   31.3840   46.3800 H   0  0  0  0  0  0  0  0  0  0  0  0
   60.9321   28.1417   47.4479 H   0  0  0  0  0  0  0  0  0  0  0  0
   59.9682   25.8605   47.7073 H   0  0  0  0  0  0  0  0  0  0  0  0
   55.8894   23.0940   47.5519 H   0  0  0  0  0  0  0  0  0  0  0  0
   54.4680   23.6925   46.5972 H   0  0  0  0  0  0  0  0  0  0  0  0
   56.3303   24.3450   44.1412 H   0  0  0  0  0  0  0  0  0  0  0  0
   56.9994   22.9406   42.2001 H   0  0  0  0  0  0  0  0  0  0  0  0
   57.0005   20.4562   42.3936 H   0  0  0  0  0  0  0  0  0  0  0  0
   56.3156   19.3688   44.5240 H   0  0  0  0  0  0  0  0  0  0  0  0
   55.8511   21.1234   47.6869 H   0  0  0  0  0  0  0  0  0  0  0  0
   54.4226   20.4286   46.8482 H   0  0  0  0  0  0  0  0  0  0  0  0
   55.9840   19.5405   46.8482 H   0  0  0  0  0  0  0  0  0  0  0  0
   57.2243   29.5092   45.6702 H   0  0  0  0  0  0  0  0  0  0  0  0
   62.0706   33.1948   45.8371 H   0  0  0  0  0  0  0  0  0  0  0  0
   63.6333   33.8847   47.6523 H   0  0  0  0  0  0  0  0  0  0  0  0
  1  2  1  0
  2  3  2  0
  3  4  1  0
  4  5  2  0
  5  6  1  0
  6  7  1  0
  7  8  1  0
  8  9  2  0
  8 10  1  0
 10 11  2  0
 11 12  1  0
 12 13  2  0
 13 14  1  0
 14 15  2  0
 14 16  1  0
 16 17  1  0
 17 18  1  0
 18 19  2  0
 19 20  1  0
 20 21  2  0
 21 22  1  0
 22 23  2  0
 23 24  1  0
 16 25  1  0
 25 26  2  0
 25 27  1  0
 27 28  1  0
 28 29  2  0
  5 30  1  0
 30 31  2  0
 31  2  1  0
 29 10  1  0
 28 13  1  0
 23 18  1  0
  1 32  1  0
  1 33  1  0
  1 34  1  0
  3 35  1  0
  4 36  1  0
  6 37  1  0
  6 38  1  0
  7 39  1  0
 11 40  1  0
 12 41  1  0
 17 42  1  0
 17 43  1  0
 19 44  1  0
 20 45  1  0
 21 46  1  0
 22 47  1  0
 24 48  1  0
 24 49  1  0
 24 50  1  0
 29 51  1  0
 30 52  1  0
 31 53  1  0
M  CHG  1  27  -1
M  END
>  <UniqueID>  (41) 
38

>  <SMILES>  (41) 
Cc1ccc(CNC(=O)c2ccc3c(=O)n(Cc4ccccc4C)c(=O)[n-]c3c2)cc1

>  <Energy>  (41) 
67.01014315190568

>  <Genealogy>  (41) 
Cc1ccc(CNC(=O)c2ccc3c(=O)n(Cc4ccccc4C)c(=O)[n-]c3c2)cc1 (protonated)
Cc1ccc(CNC(=O)c2ccc3c(=O)n(Cc4ccccc4C)c(=O)[n-]c3c2)cc1 (3D coordinates assigned)
Cc1ccc(CNC(=O)c2ccc3c(=O)n(Cc4ccccc4C)c(=O)[n-]c3c2)cc1 (optimized conformer: 67.01014315190568 kcal/mol)

>  <smiles>  (41) 
Cc1ccc(CNC(=O)c2ccc3c(=O)n(Cc4ccccc4C)c(=O)[nH]c3c2)cc1

>  <score_type>  (41) 
oracle

>  <origin>  (41) 
adg

>  <m_score__min__energy>  (41) 
-10.109999999999999

>  <m_primary>  (41) 
energy

$$$$
41:0
     RDKit          3D

 45 47  0  0  0  0  0  0  0  0999 V2000
   56.1570   30.1830   52.4430 C   0  0  0  0  0  0  0  0  0  0  0  0
   57.0460   30.1050   51.3330 O   0  0  0  0  0  0  0  0  0  0  0  0
   58.0380   31.0520   51.0260 C   0  0  0  0  0  0  0  0  0  0  0  0
   58.0160   32.3410   51.5960 C   0  0  0  0  0  0  0  0  0  0  0  0
   58.9930   33.2910   51.2750 C   0  0  0  0  0  0  0  0  0  0  0  0
   58.9340   34.5890   51.8790 N   0  0  0  0  0  0  0  0  0  0  0  0
   60.0090   32.9540   50.3640 C   0  0  0  0  0  0  0  0  0  0  0  0
   61.2670   34.0980   49.9180 Cl  0  0  0  0  0  0  0  0  0  0  0  0
   60.0380   31.6800   49.7920 C   0  0  0  0  0  0  0  0  0  0  0  0
   59.0680   30.7130   50.1170 C   0  0  0  0  0  0  0  0  0  0  0  0
   59.1420   29.3730   49.4750 C   0  0  0  0  0  0  0  0  0  0  0  0
   59.7200   28.4230   50.0680 O   0  0  0  0  0  0  0  0  0  0  0  0
   58.5650   29.1470   48.1870 N   0  0  0  0  0  0  0  0  0  0  0  0
   59.4160   29.4470   46.7100 S   0  0  0  0  0  0  0  0  0  0  0  0
   60.3820   28.3230   46.4650 O   0  0  0  0  0  0  0  0  0  0  0  0
   60.1820   30.7330   46.8470 O   0  0  0  0  0  0  0  0  0  0  0  0
   58.2940   29.5420   45.3490 C   0  0  0  0  0  0  0  0  0  0  0  0
   58.2800   28.5090   44.4000 C   0  0  0  0  0  0  0  0  0  0  0  0
   57.3920   28.5520   43.3230 C   0  0  0  0  0  0  0  0  0  0  0  0
   56.5120   29.6260   43.1830 C   0  0  0  0  0  0  0  0  0  0  0  0
   56.5120   30.6570   44.1240 C   0  0  0  0  0  0  0  0  0  0  0  0
   57.3890   30.6160   45.2260 C   0  0  0  0  0  0  0  0  0  0  0  0
   57.4060   31.6470   46.1780 O   0  0  0  0  0  0  0  0  0  0  0  0
   58.1640   32.8210   46.0910 C   0  0  0  0  0  0  0  0  0  0  0  0
   58.5630   33.4540   47.2750 C   0  0  0  0  0  0  0  0  0  0  0  0
   59.2970   34.6410   47.2280 C   0  0  0  0  0  0  0  0  0  0  0  0
   59.6340   35.2100   45.9970 C   0  0  0  0  0  0  0  0  0  0  0  0
   59.2310   34.5910   44.8090 C   0  0  0  0  0  0  0  0  0  0  0  0
   58.4910   33.4050   44.8500 C   0  0  0  0  0  0  0  0  0  0  0  0
   58.0600   32.8520   43.6880 F   0  0  0  0  0  0  0  0  0  0  0  0
   56.7333   30.1324   53.3786 H   0  0  0  0  0  0  0  0  0  0  0  0
   55.6040   31.1331   52.4039 H   0  0  0  0  0  0  0  0  0  0  0  0
   55.4470   29.3437   52.4039 H   0  0  0  0  0  0  0  0  0  0  0  0
   57.2176   32.6050   52.3051 H   0  0  0  0  0  0  0  0  0  0  0  0
   58.5000   35.4050   51.3970 H   0  0  0  0  0  0  0  0  0  0  0  0
   59.3350   34.7500   52.8310 H   0  0  0  0  0  0  0  0  0  0  0  0
   60.8330   31.4279   49.0748 H   0  0  0  0  0  0  0  0  0  0  0  0
   58.9722   27.6605   44.5047 H   0  0  0  0  0  0  0  0  0  0  0  0
   57.3862   27.7376   42.5835 H   0  0  0  0  0  0  0  0  0  0  0  0
   55.8178   29.6601   42.3304 H   0  0  0  0  0  0  0  0  0  0  0  0
   55.8233   31.5064   44.0045 H   0  0  0  0  0  0  0  0  0  0  0  0
   58.2967   33.0137   48.2472 H   0  0  0  0  0  0  0  0  0  0  0  0
   59.6107   35.1294   48.1624 H   0  0  0  0  0  0  0  0  0  0  0  0
   60.2153   36.1432   45.9622 H   0  0  0  0  0  0  0  0  0  0  0  0
   59.4969   35.0383   43.8399 H   0  0  0  0  0  0  0  0  0  0  0  0
  1  2  1  0
  2  3  1  0
  3  4  2  0
  4  5  1  0
  5  6  1  0
  5  7  2  0
  7  8  1  0
  7  9  1  0
  9 10  2  0
 10 11  1  0
 11 12  2  0
 11 13  1  0
 13 14  1  0
 14 15  2  0
 14 16  2  0
 14 17  1  0
 17 18  2  0
 18 19  1  0
 19 20  2  0
 20 21  1  0
 21 22  2  0
 22 23  1  0
 23 24  1  0
 24 25  2  0
 25 26  1  0
 26 27  2  0
 27 28  1  0
 28 29  2  0
 29 30  1  0
 10  3  1  0
 22 17  1  0
 29 24  1  0
  1 31  1  0
  1 32  1  0
  1 33  1  0
  4 34  1  0
  6 35  1  0
  6 36  1  0
  9 37  1  0
 18 38  1  0
 19 39  1  0
 20 40  1  0
 21 41  1  0
 25 42  1  0
 26 43  1  0
 27 44  1  0
 28 45  1  0
M  CHG  1  13  -1
M  END
>  <UniqueID>  (42) 
39

>  <SMILES>  (42) 
COc1cc(N)c(Cl)cc1C(=O)[N-]S(=O)(=O)c1ccccc1Oc1ccccc1F

>  <Energy>  (42) 
58.196082827275156

>  <Genealogy>  (42) 
COc1cc(N)c(Cl)cc1C(=O)[N-]S(=O)(=O)c1ccccc1Oc1ccccc1F (protonated)
COc1cc(N)c(Cl)cc1C(=O)[N-]S(=O)(=O)c1ccccc1Oc1ccccc1F (3D coordinates assigned)
COc1cc(N)c(Cl)cc1C(=O)[N-]S(=O)(=O)c1ccccc1Oc1ccccc1F (optimized conformer: 58.196082827275156 kcal/mol)

>  <smiles>  (42) 
COc1cc(N)c(Cl)cc1C(=O)NS(=O)(=O)c1ccccc1Oc1ccccc1F

>  <score_type>  (42) 
oracle

>  <origin>  (42) 
adg

>  <m_score__min__energy>  (42) 
-10.470000000000001

>  <m_primary>  (42) 
energy

$$$$
42:0
     RDKit          3D

 51 54  0  0  0  0  0  0  0  0999 V2000
   57.8240   31.6120   42.9520 C   0  0  0  0  0  0  0  0  0  0  0  0
   57.0350   30.6460   43.7680 C   0  0  0  0  0  0  0  0  0  0  0  0
   57.4730   29.4230   44.2250 C   0  0  0  0  0  0  0  0  0  0  0  0
   56.3710   28.9380   44.9070 C   0  0  0  0  0  0  0  0  0  0  0  0
   56.2790   27.8040   45.5300 N   0  0  0  0  0  0  0  0  0  0  0  0
   57.6280   26.7740   45.8920 S   0  0  0  0  0  0  0  0  0  0  0  0
   58.3620   26.4580   44.6170 O   0  0  0  0  0  0  0  0  0  0  0  0
   57.1260   25.4930   46.4960 O   0  0  0  0  0  0  0  0  0  0  0  0
   58.6960   27.5670   47.0450 C   0  0  0  0  0  0  0  0  0  0  0  0
   58.6220   28.9510   47.2530 C   0  0  0  0  0  0  0  0  0  0  0  0
   59.4700   29.5700   48.1760 C   0  0  0  0  0  0  0  0  0  0  0  0
   60.4120   28.8170   48.8870 C   0  0  0  0  0  0  0  0  0  0  0  0
   61.2660   29.4830   49.8290 N   0  0  0  0  0  0  0  0  0  0  0  0
   61.3460   30.9000   50.0400 C   0  0  0  0  0  0  0  0  0  0  0  0
   60.3330   31.4990   50.4900 O   0  0  0  0  0  0  0  0  0  0  0  0
   62.5590   31.6790   49.6770 C   0  0  0  0  0  0  0  0  0  0  0  0
   63.7530   31.4810   50.3910 C   0  0  0  0  0  0  0  0  0  0  0  0
   64.8990   32.2040   50.0650 C   0  0  0  0  0  0  0  0  0  0  0  0
   66.5160   31.9430   51.0470 Br  0  0  0  0  0  0  0  0  0  0  0  0
   64.8540   33.1170   49.0130 C   0  0  0  0  0  0  0  0  0  0  0  0
   63.7000   33.2960   48.3190 N   0  0  0  0  0  0  0  0  0  0  0  0
   62.5580   32.6110   48.6130 C   0  0  0  0  0  0  0  0  0  0  0  0
   61.4700   32.8280   47.9320 N   0  0  0  0  0  0  0  0  0  0  0  0
   60.9480   34.1490   47.5800 C   0  0  0  0  0  0  0  0  0  0  0  0
   59.6610   34.0180   46.8110 C   0  0  0  0  0  0  0  0  0  0  0  0
   59.5050   34.6870   45.5840 C   0  0  0  0  0  0  0  0  0  0  0  0
   58.3050   34.5850   44.8740 C   0  0  0  0  0  0  0  0  0  0  0  0
   57.2540   33.8180   45.3830 C   0  0  0  0  0  0  0  0  0  0  0  0
   57.4000   33.1540   46.6040 C   0  0  0  0  0  0  0  0  0  0  0  0
   58.5970   33.2530   47.3170 C   0  0  0  0  0  0  0  0  0  0  0  0
   60.4690   27.4250   48.6960 C   0  0  0  0  0  0  0  0  0  0  0  0
   59.6210   26.8070   47.7730 C   0  0  0  0  0  0  0  0  0  0  0  0
   55.3580   29.8220   44.8480 N   0  0  0  0  0  0  0  0  0  0  0  0
   55.7930   30.8350   44.1550 O   0  0  0  0  0  0  0  0  0  0  0  0
   58.3773   32.2894   43.6191 H   0  0  0  0  0  0  0  0  0  0  0  0
   58.5341   31.0616   42.3173 H   0  0  0  0  0  0  0  0  0  0  0  0
   57.1429   32.1979   42.3173 H   0  0  0  0  0  0  0  0  0  0  0  0
   58.4555   28.9491   44.0831 H   0  0  0  0  0  0  0  0  0  0  0  0
   57.8943   29.5521   46.6881 H   0  0  0  0  0  0  0  0  0  0  0  0
   59.3967   30.6545   48.3445 H   0  0  0  0  0  0  0  0  0  0  0  0
   63.7833   30.7504   51.2128 H   0  0  0  0  0  0  0  0  0  0  0  0
   65.7524   33.6923   48.7448 H   0  0  0  0  0  0  0  0  0  0  0  0
   60.7633   34.7225   48.5003 H   0  0  0  0  0  0  0  0  0  0  0  0
   61.6869   34.6684   46.9521 H   0  0  0  0  0  0  0  0  0  0  0  0
   60.3302   35.2928   45.1814 H   0  0  0  0  0  0  0  0  0  0  0  0
   58.1882   35.1090   43.9139 H   0  0  0  0  0  0  0  0  0  0  0  0
   56.3111   33.7367   44.8224 H   0  0  0  0  0  0  0  0  0  0  0  0
   56.5707   32.5523   47.0043 H   0  0  0  0  0  0  0  0  0  0  0  0
   58.7069   32.7299   48.2784 H   0  0  0  0  0  0  0  0  0  0  0  0
   61.1831   26.8208   49.2748 H   0  0  0  0  0  0  0  0  0  0  0  0
   59.6799   25.7197   47.6174 H   0  0  0  0  0  0  0  0  0  0  0  0
  1  2  1  0
  2  3  2  0
  3  4  1  0
  4  5  2  3
  5  6  1  0
  6  7  2  0
  6  8  2  0
  6  9  1  0
  9 10  2  0
 10 11  1  0
 11 12  2  0
 12 13  1  0
 13 14  1  0
 14 15  2  0
 14 16  1  0
 16 17  2  0
 17 18  1  0
 18 19  1  0
 18 20  2  0
 20 21  1  0
 21 22  1  0
 22 23  2  3
 23 24  1  0
 24 25  1  0
 25 26  2  0
 26 27  1  0
 27 28  2  0
 28 29  1  0
 29 30  2  0
 12 31  1  0
 31 32  2  0
  4 33  1  0
 33 34  1  0
 34  2  1  0
 32  9  1  0
 22 16  1  0
 30 25  1  0
  1 35  1  0
  1 36  1  0
  1 37  1  0
  3 38  1  0
 10 39  1  0
 11 40  1  0
 17 41  1  0
 20 42  1  0
 24 43  1  0
 24 44  1  0
 26 45  1  0
 27 46  1  0
 28 47  1  0
 29 48  1  0
 30 49  1  0
 31 50  1  0
 32 51  1  0
M  CHG  3  13  -1  21  -1  33  -1
M  END
>  <UniqueID>  (43) 
40

>  <SMILES>  (43) 
Cc1cc(=NS(=O)(=O)c2ccc([N-]C(=O)c3cc(Br)c[n-]c3=NCc3ccccc3)cc2)[n-]o1

>  <Energy>  (43) 
96.41708447465989

>  <Genealogy>  (43) 
Cc1cc(=NS(=O)(=O)c2ccc([N-]C(=O)c3cc(Br)c[n-]c3=NCc3ccccc3)cc2)[n-]o1 (protonated)
Cc1cc(=NS(=O)(=O)c2ccc([N-]C(=O)c3cc(Br)c[n-]c3=NCc3ccccc3)cc2)[n-]o1 (3D coordinates assigned)
Cc1cc(=NS(=O)(=O)c2ccc([N-]C(=O)c3cc(Br)c[n-]c3=NCc3ccccc3)cc2)[n-]o1 (optimized conformer: 96.41708447465989 kcal/mol)

>  <smiles>  (43) 
Cc1cc(=NS(=O)(=O)c2ccc(NC(=O)c3cc(Br)c[nH]c3=NCc3ccccc3)cc2)[nH]o1

>  <score_type>  (43) 
oracle

>  <origin>  (43) 
adg

>  <m_score__min__energy>  (43) 
-13.83

>  <m_primary>  (43) 
energy

$$$$
43:0
     RDKit          3D

 48 51  0  0  0  0  0  0  0  0999 V2000
   59.8058   36.0587   47.2671 H   0  0  0  0  0  0  0  0  0  0  0  0
   59.3860   35.2380   46.6670 C   0  0  0  0  0  0  0  0  0  0  0  0
   58.6410   34.2730   47.2640 N   0  0  0  0  0  0  0  0  0  0  0  0
   58.0980   33.2420   46.5630 C   0  0  0  0  0  0  0  0  0  0  0  0
   57.4030   32.3860   47.1720 O   0  0  0  0  0  0  0  0  0  0  0  0
   58.3020   33.1510   45.1680 C   0  0  0  0  0  0  0  0  0  0  0  0
   57.7120   32.0480   44.3620 C   0  0  0  0  0  0  0  0  0  0  0  0
   57.7660   32.0970   43.1050 O   0  0  0  0  0  0  0  0  0  0  0  0
   56.9930   30.9660   44.9740 N   0  0  0  0  0  0  0  0  0  0  0  0
   57.4960   29.9470   45.6170 C   0  0  0  0  0  0  0  0  0  0  0  0
   57.0810   28.6620   45.2560 C   0  0  0  0  0  0  0  0  0  0  0  0
   56.3643   28.5270   44.4325 H   0  0  0  0  0  0  0  0  0  0  0  0
   57.5770   27.5460   45.9420 C   0  0  0  0  0  0  0  0  0  0  0  0
   57.1380   26.1760   45.5790 C   0  0  0  0  0  0  0  0  0  0  0  0
   58.0920   25.2210   45.1890 C   0  0  0  0  0  0  0  0  0  0  0  0
   59.1574   25.4936   45.1629 H   0  0  0  0  0  0  0  0  0  0  0  0
   57.6990   23.9280   44.8340 C   0  0  0  0  0  0  0  0  0  0  0  0
   58.4557   23.1910   44.5271 H   0  0  0  0  0  0  0  0  0  0  0  0
   56.3410   23.5640   44.8670 C   0  0  0  0  0  0  0  0  0  0  0  0
   55.8960   22.2800   44.5190 O   0  0  0  0  0  0  0  0  0  0  0  0
   56.6540   21.3460   43.7580 C   0  0  0  0  0  0  0  0  0  0  0  0
   57.1987   20.6749   44.4384 H   0  0  0  0  0  0  0  0  0  0  0  0
   55.9772   20.7547   43.1238 H   0  0  0  0  0  0  0  0  0  0  0  0
   57.3719   21.8866   43.1238 H   0  0  0  0  0  0  0  0  0  0  0  0
   55.3910   24.5110   45.2640 C   0  0  0  0  0  0  0  0  0  0  0  0
   54.3268   24.2341   45.2936 H   0  0  0  0  0  0  0  0  0  0  0  0
   55.7790   25.8070   45.6240 C   0  0  0  0  0  0  0  0  0  0  0  0
   54.8080   26.7090   46.0450 O   0  0  0  0  0  0  0  0  0  0  0  0
   58.5050   27.7400   46.9730 C   0  0  0  0  0  0  0  0  0  0  0  0
   58.9013   26.8758   47.5262 H   0  0  0  0  0  0  0  0  0  0  0  0
   58.9290   29.0370   47.3000 C   0  0  0  0  0  0  0  0  0  0  0  0
   59.9020   29.2540   48.4000 C   0  0  0  0  0  0  0  0  0  0  0  0
   60.5780   30.4810   48.5350 C   0  0  0  0  0  0  0  0  0  0  0  0
   60.3878   31.2917   47.8163 H   0  0  0  0  0  0  0  0  0  0  0  0
   61.4900   30.6760   49.5770 C   0  0  0  0  0  0  0  0  0  0  0  0
   62.0123   31.6390   49.6764 H   0  0  0  0  0  0  0  0  0  0  0  0
   61.7390   29.6500   50.4920 C   0  0  0  0  0  0  0  0  0  0  0  0
   62.4576   29.8047   51.3103 H   0  0  0  0  0  0  0  0  0  0  0  0
   61.0750   28.4280   50.3670 C   0  0  0  0  0  0  0  0  0  0  0  0
   61.2719   27.6205   51.0876 H   0  0  0  0  0  0  0  0  0  0  0  0
   60.1610   28.2280   49.3290 C   0  0  0  0  0  0  0  0  0  0  0  0
   59.6407   27.2632   49.2371 H   0  0  0  0  0  0  0  0  0  0  0  0
   58.4310   30.1020   46.6060 N   0  0  0  0  0  0  0  0  0  0  0  0
   58.8200   31.0470   46.8140 H   0  0  0  0  0  0  0  0  0  0  0  0
   59.0790   34.1420   44.5450 C   0  0  0  0  0  0  0  0  0  0  0  0
   59.2628   34.0926   43.4616 H   0  0  0  0  0  0  0  0  0  0  0  0
   59.6190   35.1890   45.2940 C   0  0  0  0  0  0  0  0  0  0  0  0
   60.2226   35.9678   44.8051 H   0  0  0  0  0  0  0  0  0  0  0  0
  1  2  1  0
  2  3  1  0
  3  4  1  0
  4  5  2  0
  4  6  1  0
  6  7  1  0
  7  8  2  0
  7  9  1  0
  9 10  2  0
 10 11  1  0
 11 12  1  0
 11 13  2  0
 13 14  1  0
 14 15  2  0
 15 16  1  0
 15 17  1  0
 17 18  1  0
 17 19  2  0
 19 20  1  0
 20 21  1  0
 21 22  1  0
 21 23  1  0
 21 24  1  0
 19 25  1  0
 25 26  1  0
 25 27  2  0
 27 28  1  0
 13 29  1  0
 29 30  1  0
 29 31  2  0
 31 32  1  0
 32 33  2  0
 33 34  1  0
 33 35  1  0
 35 36  1  0
 35 37  2  0
 37 38  1  0
 37 39  1  0
 39 40  1  0
 39 41  2  0
 41 42  1  0
 31 43  1  0
 43 44  1  0
  6 45  2  0
 45 46  1  0
 45 47  1  0
 47 48  1  0
 47  2  2  0
 43 10  1  0
 27 14  1  0
 41 32  1  0
M  CHG  2   3  -1  28  -1
M  END
>  <UniqueID>  (44) 
41

>  <SMILES>  (44) 
COc1ccc(-c2cc(-c3ccccc3)[nH]/c(=N\C(=O)c3ccc[n-]c3=O)c2)c([O-])c1

>  <Energy>  (44) 
75.56971618175872

>  <Genealogy>  (44) 
COc1ccc(-c2cc(-c3ccccc3)[nH]c(=NC(=O)c3ccc[n-]c3=O)c2)c([O-])c1 (protonated)
COc1ccc(-c2cc(-c3ccccc3)[nH]/c(=N\C(=O)c3ccc[n-]c3=O)c2)c([O-])c1 (cis-trans isomerization)
COc1ccc(-c2cc(-c3ccccc3)[nH]/c(=N\C(=O)c3ccc[n-]c3=O)c2)c([O-])c1 (3D coordinates assigned)
COc1ccc(-c2cc(-c3ccccc3)[nH]/c(=N\C(=O)c3ccc[n-]c3=O)c2)c([O-])c1 (optimized conformer: 75.56971618175872 kcal/mol)

>  <smiles>  (44) 
COc1ccc(-c2cc(-c3ccccc3)[nH]c(=NC(=O)c3ccc[nH]c3=O)c2)c(O)c1

>  <score_type>  (44) 
oracle

>  <origin>  (44) 
adg

>  <m_score__min__energy>  (44) 
-13.4

>  <m_primary>  (44) 
energy

$$$$
44:0
     RDKit          3D

 61 64  0  0  0  0  0  0  0  0999 V2000
   62.9120   33.6390   46.8100 O   0  0  0  0  0  0  0  0  0  0  0  0
   61.7710   33.4340   47.3080 C   0  0  0  0  0  0  0  0  0  0  0  0
   60.8100   34.5720   47.4580 C   0  0  0  0  0  0  0  0  0  0  0  0
   59.5100   34.2380   46.7800 C   0  0  0  0  0  0  0  0  0  0  0  0
   58.5110   33.5310   47.4700 C   0  0  0  0  0  0  0  0  0  0  0  0
   57.2900   33.2520   46.8460 C   0  0  0  0  0  0  0  0  0  0  0  0
   57.0520   33.6890   45.5420 C   0  0  0  0  0  0  0  0  0  0  0  0
   58.0360   34.4060   44.8540 C   0  0  0  0  0  0  0  0  0  0  0  0
   59.2610   34.6800   45.4700 C   0  0  0  0  0  0  0  0  0  0  0  0
   61.3710   32.1160   47.6960 N   0  0  0  0  0  0  0  0  0  0  0  0
   61.9110   30.8920   47.1080 C   0  0  0  0  0  0  0  0  0  0  0  0
   60.7930   29.9640   46.5850 C   0  0  2  0  0  0  0  0  0  0  0  0
   59.5950   30.6890   46.4830 O   0  0  0  0  0  0  0  0  0  0  0  0
   60.5710   28.7080   47.4730 C   0  0  2  0  0  0  0  0  0  0  0  0
   60.2960   27.4290   46.6410 C   0  0  0  0  0  0  0  0  0  0  0  0
   58.8240   27.1460   46.4590 C   0  0  0  0  0  0  0  0  0  0  0  0
   58.2560   25.9840   47.0110 C   0  0  0  0  0  0  0  0  0  0  0  0
   56.8940   25.7170   46.8440 C   0  0  0  0  0  0  0  0  0  0  0  0
   56.0860   26.6120   46.1370 C   0  0  0  0  0  0  0  0  0  0  0  0
   54.7350   26.3390   45.9600 O   0  0  0  0  0  0  0  0  0  0  0  0
   56.6370   27.7840   45.6100 C   0  0  0  0  0  0  0  0  0  0  0  0
   57.9970   28.0560   45.7800 C   0  0  0  0  0  0  0  0  0  0  0  0
   59.4480   28.9130   48.3320 O   0  0  0  0  0  0  0  0  0  0  0  0
   59.3640   29.9480   49.2710 C   0  0  0  0  0  0  0  0  0  0  0  0
   58.5130   30.8700   49.1450 O   0  0  0  0  0  0  0  0  0  0  0  0
   60.3400   29.9920   50.4010 C   0  0  0  0  0  0  0  0  0  0  0  0
   60.8060   31.4000   50.6280 C   0  0  0  0  0  0  0  0  0  0  0  0
   60.0140   32.4900   50.9760 C   0  0  0  0  0  0  0  0  0  0  0  0
   60.7600   33.6140   51.0480 N   0  0  0  0  0  0  0  0  0  0  0  0
   62.0170   33.2470   50.7430 C   0  0  0  0  0  0  0  0  0  0  0  0
   63.1380   34.0710   50.6450 C   0  0  0  0  0  0  0  0  0  0  0  0
   64.3580   33.4800   50.2660 C   0  0  0  0  0  0  0  0  0  0  0  0
   64.4310   32.0940   49.9990 C   0  0  0  0  0  0  0  0  0  0  0  0
   63.2830   31.2880   50.1090 C   0  0  0  0  0  0  0  0  0  0  0  0
   62.0870   31.9020   50.4820 C   0  0  0  0  0  0  0  0  0  0  0  0
   60.6269   34.7561   48.5269 H   0  0  0  0  0  0  0  0  0  0  0  0
   61.2395   35.4719   46.9935 H   0  0  0  0  0  0  0  0  0  0  0  0
   58.6890   33.1962   48.5026 H   0  0  0  0  0  0  0  0  0  0  0  0
   56.5154   32.6866   47.3848 H   0  0  0  0  0  0  0  0  0  0  0  0
   56.0903   33.4694   45.0554 H   0  0  0  0  0  0  0  0  0  0  0  0
   57.8463   34.7545   43.8281 H   0  0  0  0  0  0  0  0  0  0  0  0
   60.0332   35.2442   44.9264 H   0  0  0  0  0  0  0  0  0  0  0  0
   62.5712   31.1609   46.2703 H   0  0  0  0  0  0  0  0  0  0  0  0
   62.4643   30.3524   47.8908 H   0  0  0  0  0  0  0  0  0  0  0  0
   61.1138   29.5996   45.5979 H   0  0  0  0  0  0  0  0  0  0  0  0
   59.4330   31.1110   47.3670 H   0  0  0  0  0  0  0  0  0  0  0  0
   61.4989   28.5647   48.0460 H   0  0  0  0  0  0  0  0  0  0  0  0
   60.7543   27.5517   45.6486 H   0  0  0  0  0  0  0  0  0  0  0  0
   60.7276   26.5803   47.1918 H   0  0  0  0  0  0  0  0  0  0  0  0
   58.8862   25.2820   47.5767 H   0  0  0  0  0  0  0  0  0  0  0  0
   56.4576   24.8013   47.2696 H   0  0  0  0  0  0  0  0  0  0  0  0
   55.9993   28.4925   45.0611 H   0  0  0  0  0  0  0  0  0  0  0  0
   58.4224   28.9881   45.3798 H   0  0  0  0  0  0  0  0  0  0  0  0
   59.8552   29.6179   51.3148 H   0  0  0  0  0  0  0  0  0  0  0  0
   61.2069   29.3626   50.1515 H   0  0  0  0  0  0  0  0  0  0  0  0
   58.9315   32.4430   51.1660 H   0  0  0  0  0  0  0  0  0  0  0  0
   60.4210   34.5770   51.2720 H   0  0  0  0  0  0  0  0  0  0  0  0
   63.0709   35.1483   50.8571 H   0  0  0  0  0  0  0  0  0  0  0  0
   65.2613   34.1014   50.1770 H   0  0  0  0  0  0  0  0  0  0  0  0
   65.3900   31.6432   49.7038 H   0  0  0  0  0  0  0  0  0  0  0  0
   63.3271   30.2076   49.9072 H   0  0  0  0  0  0  0  0  0  0  0  0
  1  2  2  0
  2  3  1  0
  3  4  1  0
  4  5  2  0
  5  6  1  0
  6  7  2  0
  7  8  1  0
  8  9  2  0
  2 10  1  0
 10 11  1  0
 11 12  1  0
 12 13  1  0
 12 14  1  0
 14 15  1  0
 15 16  1  0
 16 17  2  0
 17 18  1  0
 18 19  2  0
 19 20  1  0
 19 21  1  0
 21 22  2  0
 14 23  1  0
 23 24  1  0
 24 25  2  0
 24 26  1  0
 26 27  1  0
 27 28  2  0
 28 29  1  0
 29 30  1  0
 30 31  2  0
 31 32  1  0
 32 33  2  0
 33 34  1  0
 34 35  2  0
  9  4  1  0
 22 16  1  0
 35 27  1  0
 35 30  1  0
  3 36  1  0
  3 37  1  0
  5 38  1  0
  6 39  1  0
  7 40  1  0
  8 41  1  0
  9 42  1  0
 11 43  1  0
 11 44  1  0
 12 45  1  6
 13 46  1  0
 14 47  1  1
 15 48  1  0
 15 49  1  0
 17 50  1  0
 18 51  1  0
 21 52  1  0
 22 53  1  0
 26 54  1  0
 26 55  1  0
 28 56  1  0
 29 57  1  0
 31 58  1  0
 32 59  1  0
 33 60  1  0
 34 61  1  0
M  CHG  2  10  -1  20  -1
M  END
>  <UniqueID>  (45) 
42

>  <SMILES>  (45) 
O=C(Cc1ccccc1)[N-]C[C@H](O)[C@H](Cc1ccc([O-])cc1)OC(=O)Cc1c[nH]c2ccccc12

>  <Energy>  (45) 
83.36261516401756

>  <Genealogy>  (45) 
O=C(Cc1ccccc1)[N-]CC(O)C(Cc1ccc([O-])cc1)OC(=O)Cc1c[nH]c2ccccc12 (protonated)
O=C(Cc1ccccc1)[N-]C[C@H](O)[C@H](Cc1ccc([O-])cc1)OC(=O)Cc1c[nH]c2ccccc12 (chirality)
O=C(Cc1ccccc1)[N-]C[C@H](O)[C@H](Cc1ccc([O-])cc1)OC(=O)Cc1c[nH]c2ccccc12 (3D coordinates assigned)
O=C(Cc1ccccc1)[N-]C[C@H](O)[C@H](Cc1ccc([O-])cc1)OC(=O)Cc1c[nH]c2ccccc12 (optimized conformer: 83.36261516401756 kcal/mol)

>  <smiles>  (45) 
O=C(Cc1ccccc1)NCC(O)C(Cc1ccc(O)cc1)OC(=O)Cc1c[nH]c2ccccc12

>  <score_type>  (45) 
oracle

>  <origin>  (45) 
adg

>  <m_score__min__energy>  (45) 
-12.279999999999999

>  <m_primary>  (45) 
energy

$$$$
45:0
     RDKit          3D

 54 57  0  0  0  0  0  0  0  0999 V2000
   55.4450   29.0100   44.8400 N   0  0  0  0  0  0  0  0  0  0  0  0
   56.5630   29.8380   44.5310 C   0  0  0  0  0  0  0  0  0  0  0  0
   56.6890   30.2810   43.3590 O   0  0  0  0  0  0  0  0  0  0  0  0
   57.5840   30.1490   45.5620 C   0  0  0  0  0  0  0  0  0  0  0  0
   57.9480   31.4160   46.0060 C   0  0  0  0  0  0  0  0  0  0  0  0
   57.4850   32.7180   45.4980 C   0  0  0  0  0  0  0  0  0  0  0  0
   57.3870   32.9530   44.0950 N   0  0  0  0  0  0  0  0  0  0  0  0
   57.2050   33.6400   46.3080 O   0  0  0  0  0  0  0  0  0  0  0  0
   58.7620   31.1880   47.1080 C   0  0  0  0  0  0  0  0  0  0  0  0
   59.4340   32.1850   47.9600 C   0  0  0  0  0  0  0  0  0  0  0  0
   58.9880   32.4010   49.1190 O   0  0  0  0  0  0  0  0  0  0  0  0
   60.6140   32.8560   47.4980 N   0  0  0  0  0  0  0  0  0  0  0  0
   61.8640   32.9910   48.1890 C   0  0  0  0  0  0  0  0  0  0  0  0
   62.9870   32.2040   47.8730 C   0  0  0  0  0  0  0  0  0  0  0  0
   64.1780   32.3570   48.5910 C   0  0  0  0  0  0  0  0  0  0  0  0
   64.2540   33.2820   49.6380 C   0  0  0  0  0  0  0  0  0  0  0  0
   65.7780   33.4670   50.5620 S   0  0  0  0  0  0  0  0  0  0  0  0
   65.8200   31.7370   51.0310 C   0  0  0  0  0  0  0  0  0  0  0  0
   67.0010   30.9970   50.8850 C   0  0  0  0  0  0  0  0  0  0  0  0
   67.0290   29.6460   51.2480 C   0  0  0  0  0  0  0  0  0  0  0  0
   65.8790   29.0320   51.7540 C   0  0  0  0  0  0  0  0  0  0  0  0
   64.6980   29.7690   51.8970 C   0  0  0  0  0  0  0  0  0  0  0  0
   64.6690   31.1210   51.5380 C   0  0  0  0  0  0  0  0  0  0  0  0
   63.1320   34.0460   49.9730 C   0  0  0  0  0  0  0  0  0  0  0  0
   61.9430   33.8970   49.2550 C   0  0  0  0  0  0  0  0  0  0  0  0
   58.8910   29.8610   47.2980 N   0  0  0  0  0  0  0  0  0  0  0  0
   58.1870   29.2390   46.3660 N   0  0  0  0  0  0  0  0  0  0  0  0
   58.1550   27.8060   46.2590 C   0  0  0  0  0  0  0  0  0  0  0  0
   58.0260   27.0040   47.4050 C   0  0  0  0  0  0  0  0  0  0  0  0
   57.9650   25.6130   47.2880 C   0  0  0  0  0  0  0  0  0  0  0  0
   58.0150   25.0080   46.0250 C   0  0  0  0  0  0  0  0  0  0  0  0
   57.9610   23.2540   45.8860 S   0  0  0  0  0  0  0  0  0  0  0  0
   57.3840   22.5760   47.3680 N   0  0  0  0  0  0  0  0  0  0  0  0
   57.0440   22.8610   44.7620 O   0  0  0  0  0  0  0  0  0  0  0  0
   59.3350   22.7180   45.5970 O   0  0  0  0  0  0  0  0  0  0  0  0
   58.1300   25.8070   44.8800 C   0  0  0  0  0  0  0  0  0  0  0  0
   58.1870   27.1990   44.9950 C   0  0  0  0  0  0  0  0  0  0  0  0
   54.6740   29.3550   45.4540 H   0  0  0  0  0  0  0  0  0  0  0  0
   57.6710   32.2160   43.4110 H   0  0  0  0  0  0  0  0  0  0  0  0
   57.0480   33.8720   43.7370 H   0  0  0  0  0  0  0  0  0  0  0  0
   62.9282   31.4664   47.0591 H   0  0  0  0  0  0  0  0  0  0  0  0
   65.0569   31.7485   48.3317 H   0  0  0  0  0  0  0  0  0  0  0  0
   67.9058   31.4781   50.4851 H   0  0  0  0  0  0  0  0  0  0  0  0
   67.9569   29.0661   51.1352 H   0  0  0  0  0  0  0  0  0  0  0  0
   65.9027   27.9700   52.0396 H   0  0  0  0  0  0  0  0  0  0  0  0
   63.7923   29.2853   52.2917 H   0  0  0  0  0  0  0  0  0  0  0  0
   63.7413   31.7006   51.6541 H   0  0  0  0  0  0  0  0  0  0  0  0
   63.1856   34.7656   50.8033 H   0  0  0  0  0  0  0  0  0  0  0  0
   61.0617   34.4957   49.5287 H   0  0  0  0  0  0  0  0  0  0  0  0
   57.9728   27.4730   48.3986 H   0  0  0  0  0  0  0  0  0  0  0  0
   57.8774   24.9905   48.1907 H   0  0  0  0  0  0  0  0  0  0  0  0
   57.4110   21.5380   47.2600 H   0  0  0  0  0  0  0  0  0  0  0  0
   58.1756   25.3371   43.8865 H   0  0  0  0  0  0  0  0  0  0  0  0
   58.2572   27.8209   44.0904 H   0  0  0  0  0  0  0  0  0  0  0  0
  1  2  1  0
  2  3  2  0
  2  4  1  0
  4  5  2  0
  5  6  1  0
  6  7  1  0
  6  8  2  0
  5  9  1  0
  9 10  1  0
 10 11  2  0
 10 12  1  0
 12 13  1  0
 13 14  2  0
 14 15  1  0
 15 16  2  0
 16 17  1  0
 17 18  1  0
 18 19  2  0
 19 20  1  0
 20 21  2  0
 21 22  1  0
 22 23  2  0
 16 24  1  0
 24 25  2  0
  9 26  2  0
 26 27  1  0
 27 28  1  0
 28 29  2  0
 29 30  1  0
 30 31  2  0
 31 32  1  0
 32 33  1  0
 32 34  2  0
 32 35  2  0
 31 36  1  0
 36 37  2  0
 27  4  1  0
 37 28  1  0
 25 13  1  0
 23 18  1  0
  1 38  1  0
  7 39  1  0
  7 40  1  0
 14 41  1  0
 15 42  1  0
 19 43  1  0
 20 44  1  0
 21 45  1  0
 22 46  1  0
 23 47  1  0
 24 48  1  0
 25 49  1  0
 29 50  1  0
 30 51  1  0
 33 52  1  0
 36 53  1  0
 37 54  1  0
M  CHG  3   1  -1  12  -1  33  -1
M  END
>  <UniqueID>  (46) 
43

>  <SMILES>  (46) 
[NH-]C(=O)c1c(C(N)=O)c(C(=O)[N-]c2ccc(Sc3ccccc3)cc2)nn1-c1ccc(S([NH-])(=O)=O)cc1

>  <Energy>  (46) 
100.6442737707934

>  <Genealogy>  (46) 
[NH-]C(=O)c1c(C(N)=O)c(C(=O)[N-]c2ccc(Sc3ccccc3)cc2)nn1-c1ccc(S([NH-])(=O)=O)cc1 (protonated)
[NH-]C(=O)c1c(C(N)=O)c(C(=O)[N-]c2ccc(Sc3ccccc3)cc2)nn1-c1ccc(S([NH-])(=O)=O)cc1 (3D coordinates assigned)
[NH-]C(=O)c1c(C(N)=O)c(C(=O)[N-]c2ccc(Sc3ccccc3)cc2)nn1-c1ccc(S([NH-])(=O)=O)cc1 (optimized conformer: 100.6442737707934 kcal/mol)

>  <smiles>  (46) 
NC(=O)c1c(C(=O)Nc2ccc(Sc3ccccc3)cc2)nn(-c2ccc(S(N)(=O)=O)cc2)c1C(N)=O

>  <score_type>  (46) 
oracle

>  <origin>  (46) 
adg

>  <m_score__min__energy>  (46) 
-14.529999999999999

>  <m_primary>  (46) 
energy

$$$$
46:0
     RDKit          3D

 64 67  0  0  0  0  0  0  0  0999 V2000
   58.9410   22.5050   44.8350 C   0  0  0  0  0  0  0  0  0  0  0  0
   58.1300   23.7850   45.0170 C   0  0  0  0  0  0  0  0  0  0  0  0
   58.2820   24.3110   46.3990 N   0  0  0  0  0  0  0  0  0  0  0  0
   57.0170   24.2510   47.1710 C   0  0  0  0  0  0  0  0  0  0  0  0
   55.8550   23.6850   46.3550 C   0  0  0  0  0  0  0  0  0  0  0  0
   58.8300   25.6940   46.4140 C   0  0  0  0  0  0  0  0  0  0  0  0
   57.8810   26.6520   47.1430 C   0  0  0  0  0  0  0  0  0  0  0  0
   57.3490   27.6880   46.2490 N   0  0  0  0  0  0  0  0  0  0  0  0
   56.1550   27.6520   45.6220 C   0  0  0  0  0  0  0  0  0  0  0  0
   55.2690   26.5830   45.6790 O   0  0  0  0  0  0  0  0  0  0  0  0
   55.9310   28.8270   44.9470 C   0  0  0  0  0  0  0  0  0  0  0  0
   54.8060   29.1310   44.1910 O   0  0  0  0  0  0  0  0  0  0  0  0
   57.0230   29.6440   45.1640 C   0  0  0  0  0  0  0  0  0  0  0  0
   57.1980   31.0190   44.6380 C   0  0  0  0  0  0  0  0  0  0  0  0
   56.7140   31.3150   43.5140 O   0  0  0  0  0  0  0  0  0  0  0  0
   57.9060   32.0600   45.4070 C   0  0  0  0  0  0  0  0  0  0  0  0
   58.7210   33.0010   44.7520 C   0  0  0  0  0  0  0  0  0  0  0  0
   59.4940   33.8990   45.4920 C   0  0  0  0  0  0  0  0  0  0  0  0
   59.4470   33.8720   46.8880 C   0  0  0  0  0  0  0  0  0  0  0  0
   58.6240   32.9480   47.5450 C   0  0  0  0  0  0  0  0  0  0  0  0
   57.8300   32.0670   46.8080 C   0  0  0  0  0  0  0  0  0  0  0  0
   58.6290   32.9080   48.9420 O   0  0  0  0  0  0  0  0  0  0  0  0
   59.6520   33.5640   49.6940 C   0  0  0  0  0  0  0  0  0  0  0  0
   60.0020   34.9120   49.0490 C   0  0  0  0  0  0  0  0  0  0  0  0
   60.2260   34.7490   47.6460 O   0  0  0  0  0  0  0  0  0  0  0  0
   57.8790   28.9120   45.9950 C   0  0  0  0  0  0  0  0  0  0  0  0
   59.1250   29.4210   46.6040 C   0  0  0  0  0  0  0  0  0  0  0  0
   60.1840   29.8470   45.7930 C   0  0  0  0  0  0  0  0  0  0  0  0
   61.3240   30.4200   46.3620 C   0  0  0  0  0  0  0  0  0  0  0  0
   61.4220   30.5750   47.7560 C   0  0  0  0  0  0  0  0  0  0  0  0
   62.6080   31.2270   48.3530 C   0  0  0  0  0  0  0  0  0  0  0  0
   63.3800   31.9200   47.6320 O   0  0  0  0  0  0  0  0  0  0  0  0
   62.8790   31.0660   49.7170 O   0  0  0  0  0  0  0  0  0  0  0  0
   62.8570   32.1510   50.6360 C   0  0  0  0  0  0  0  0  0  0  0  0
   60.3670   30.1210   48.5690 C   0  0  0  0  0  0  0  0  0  0  0  0
   59.2300   29.5440   47.9960 C   0  0  0  0  0  0  0  0  0  0  0  0
   59.2020   22.0930   45.8210 H   0  0  0  0  0  0  0  0  0  0  0  0
   58.3441   21.7690   44.2764 H   0  0  0  0  0  0  0  0  0  0  0  0
   59.8614   22.7304   44.2764 H   0  0  0  0  0  0  0  0  0  0  0  0
   58.4842   24.5418   44.3016 H   0  0  0  0  0  0  0  0  0  0  0  0
   57.0682   23.5593   44.8392 H   0  0  0  0  0  0  0  0  0  0  0  0
   57.1725   23.6116   48.0525 H   0  0  0  0  0  0  0  0  0  0  0  0
   56.7527   25.2798   47.4567 H   0  0  0  0  0  0  0  0  0  0  0  0
   55.0785   23.3068   47.0362 H   0  0  0  0  0  0  0  0  0  0  0  0
   55.4318   24.4779   45.7208 H   0  0  0  0  0  0  0  0  0  0  0  0
   56.2184   22.8630   45.7208 H   0  0  0  0  0  0  0  0  0  0  0  0
   59.8025   25.6902   46.9281 H   0  0  0  0  0  0  0  0  0  0  0  0
   58.9451   26.0371   45.3752 H   0  0  0  0  0  0  0  0  0  0  0  0
   57.0410   26.0738   47.5555 H   0  0  0  0  0  0  0  0  0  0  0  0
   58.4506   27.1520   47.9402 H   0  0  0  0  0  0  0  0  0  0  0  0
   58.7498   33.0299   43.6528 H   0  0  0  0  0  0  0  0  0  0  0  0
   60.1386   34.6261   44.9764 H   0  0  0  0  0  0  0  0  0  0  0  0
   57.1454   31.3789   47.3255 H   0  0  0  0  0  0  0  0  0  0  0  0
   59.2958   33.7340   50.7208 H   0  0  0  0  0  0  0  0  0  0  0  0
   60.5501   32.9290   49.7084 H   0  0  0  0  0  0  0  0  0  0  0  0
   59.1704   35.6151   49.2042 H   0  0  0  0  0  0  0  0  0  0  0  0
   60.9188   35.3033   49.5141 H   0  0  0  0  0  0  0  0  0  0  0  0
   60.1179   29.7298   44.7013 H   0  0  0  0  0  0  0  0  0  0  0  0
   62.1498   30.7519   45.7156 H   0  0  0  0  0  0  0  0  0  0  0  0
   62.8649   31.7607   51.6644 H   0  0  0  0  0  0  0  0  0  0  0  0
   63.7425   32.7840   50.4772 H   0  0  0  0  0  0  0  0  0  0  0  0
   61.9466   32.7476   50.4772 H   0  0  0  0  0  0  0  0  0  0  0  0
   60.4374   30.2208   49.6622 H   0  0  0  0  0  0  0  0  0  0  0  0
   58.4141   29.1849   48.6406 H   0  0  0  0  0  0  0  0  0  0  0  0
  1  2  1  0
  2  3  1  0
  3  4  1  0
  4  5  1  0
  3  6  1  0
  6  7  1  0
  7  8  1  0
  8  9  1  0
  9 10  1  0
  9 11  2  0
 11 12  1  0
 11 13  1  0
 13 14  1  0
 14 15  2  0
 14 16  1  0
 16 17  2  0
 17 18  1  0
 18 19  2  0
 19 20  1  0
 20 21  2  0
 20 22  1  0
 22 23  1  0
 23 24  1  0
 24 25  1  0
 13 26  2  0
 26 27  1  0
 27 28  2  0
 28 29  1  0
 29 30  2  0
 30 31  1  0
 31 32  2  0
 31 33  1  0
 33 34  1  0
 30 35  1  0
 35 36  2  0
 26  8  1  0
 36 27  1  0
 21 16  1  0
 25 19  1  0
  1 37  1  0
  1 38  1  0
  1 39  1  0
  2 40  1  0
  2 41  1  0
  4 42  1  0
  4 43  1  0
  5 44  1  0
  5 45  1  0
  5 46  1  0
  6 47  1  0
  6 48  1  0
  7 49  1  0
  7 50  1  0
 17 51  1  0
 18 52  1  0
 21 53  1  0
 23 54  1  0
 23 55  1  0
 24 56  1  0
 24 57  1  0
 28 58  1  0
 29 59  1  0
 34 60  1  0
 34 61  1  0
 34 62  1  0
 35 63  1  0
 36 64  1  0
M  CHG  2  10  -1  12  -1
M  END
>  <UniqueID>  (47) 
44

>  <SMILES>  (47) 
CCN(CC)CCn1c([O-])c([O-])c(C(=O)c2ccc3c(c2)OCCO3)c1-c1ccc(C(=O)OC)cc1

>  <Energy>  (47) 
102.74081557092342

>  <Genealogy>  (47) 
CCN(CC)CCn1c([O-])c([O-])c(C(=O)c2ccc3c(c2)OCCO3)c1-c1ccc(C(=O)OC)cc1 (protonated)
CCN(CC)CCn1c([O-])c([O-])c(C(=O)c2ccc3c(c2)OCCO3)c1-c1ccc(C(=O)OC)cc1 (3D coordinates assigned)
CCN(CC)CCn1c([O-])c([O-])c(C(=O)c2ccc3c(c2)OCCO3)c1-c1ccc(C(=O)OC)cc1 (nonaromatic ring conformer: 102.74081557092342 kcal/mol)

>  <smiles>  (47) 
CCN(CC)CCn1c(O)c(O)c(C(=O)c2ccc3c(c2)OCCO3)c1-c1ccc(C(=O)OC)cc1

>  <score_type>  (47) 
oracle

>  <origin>  (47) 
adg

>  <m_score__min__energy>  (47) 
-12.59

>  <m_primary>  (47) 
energy

$$$$
47:0
     RDKit          3D

 83 88  0  0  0  0  0  0  0  0999 V2000
   68.6510   27.5020   49.4990 C   0  0  0  0  0  0  0  0  0  0  0  0
   67.4710   27.3050   50.3420 N   0  0  0  0  0  0  0  0  0  0  0  0
   66.8170   26.1360   50.4980 C   0  0  0  0  0  0  0  0  0  0  0  0
   65.8450   26.2590   51.4700 C   0  0  0  0  0  0  0  0  0  0  0  0
   65.9300   27.5500   51.9510 C   0  0  0  0  0  0  0  0  0  0  0  0
   66.9430   28.1690   51.2390 C   0  0  0  0  0  0  0  0  0  0  0  0
   67.3920   29.5580   51.4610 C   0  0  0  0  0  0  0  0  0  0  0  0
   68.0720   29.8410   52.4800 O   0  0  0  0  0  0  0  0  0  0  0  0
   67.1300   30.5810   50.4940 N   0  0  0  0  0  0  0  0  0  0  0  0
   66.2310   31.6800   50.6900 C   0  0  0  0  0  0  0  0  0  0  0  0
   66.6240   32.8250   51.4030 C   0  0  0  0  0  0  0  0  0  0  0  0
   65.7590   33.9140   51.5090 C   0  0  0  0  0  0  0  0  0  0  0  0
   64.4960   33.8730   50.9120 C   0  0  0  0  0  0  0  0  0  0  0  0
   64.0770   32.7240   50.2120 C   0  0  0  0  0  0  0  0  0  0  0  0
   62.8010   32.6630   49.5420 N   0  0  0  0  0  0  0  0  0  0  0  0
   62.0830   33.8020   49.0410 C   0  0  0  0  0  0  0  0  0  0  0  0
   62.4080   34.9670   49.3940 O   0  0  0  0  0  0  0  0  0  0  0  0
   60.9400   33.6280   48.1230 C   0  0  0  0  0  0  0  0  0  0  0  0
   61.1410   33.2850   46.7760 C   0  0  0  0  0  0  0  0  0  0  0  0
   60.0470   33.1050   45.9240 C   0  0  0  0  0  0  0  0  0  0  0  0
   58.7350   33.2770   46.3990 C   0  0  0  0  0  0  0  0  0  0  0  0
   57.5770   33.0810   45.4980 C   0  0  0  0  0  0  0  0  0  0  0  0
   57.0800   34.0720   44.9000 O   0  0  0  0  0  0  0  0  0  0  0  0
   57.0630   31.7600   45.2680 N   0  0  0  0  0  0  0  0  0  0  0  0
   57.7750   30.5170   45.3580 C   0  0  0  0  0  0  0  0  0  0  0  0
   57.6720   29.6130   44.2900 C   0  0  0  0  0  0  0  0  0  0  0  0
   58.3450   28.3880   44.3300 C   0  0  0  0  0  0  0  0  0  0  0  0
   59.1300   28.0560   45.4360 C   0  0  0  0  0  0  0  0  0  0  0  0
   59.2520   28.9580   46.5050 C   0  0  0  0  0  0  0  0  0  0  0  0
   60.0580   28.6310   47.6440 N   0  0  0  0  0  0  0  0  0  0  0  0
   60.5180   29.5940   48.6020 C   0  0  0  0  0  0  0  0  0  0  0  0
   61.4650   30.3580   48.2850 O   0  0  0  0  0  0  0  0  0  0  0  0
   59.7940   29.7910   49.9210 C   0  0  2  0  0  0  0  0  0  0  0  0
   58.5830   30.7100   49.7380 C   0  0  0  0  0  0  0  0  0  0  0  0
   58.5710   31.6300   50.9550 C   0  0  0  0  0  0  0  0  0  0  0  0
   59.9880   31.6070   51.5140 C   0  0  0  0  0  0  0  0  0  0  0  0
   60.6320   30.4470   50.9210 N   0  0  0  0  0  0  0  0  0  0  0  0
   61.8860   29.9030   51.3810 C   0  0  0  0  0  0  0  0  0  0  0  0
   62.9220   30.0500   50.6730 O   0  0  0  0  0  0  0  0  0  0  0  0
   62.0030   29.2420   52.7330 C   0  0  0  0  0  0  0  0  0  0  0  0
   62.2600   27.7600   52.6090 C   0  0  0  0  0  0  0  0  0  0  0  0
   61.6630   27.0180   51.5750 C   0  0  0  0  0  0  0  0  0  0  0  0
   61.8730   25.6380   51.4850 C   0  0  0  0  0  0  0  0  0  0  0  0
   62.6730   24.9880   52.4300 C   0  0  0  0  0  0  0  0  0  0  0  0
   63.2660   25.7190   53.4640 C   0  0  0  0  0  0  0  0  0  0  0  0
   63.0560   27.1000   53.5590 C   0  0  0  0  0  0  0  0  0  0  0  0
   58.6000   30.1980   46.4540 C   0  0  0  0  0  0  0  0  0  0  0  0
   58.5390   33.6300   47.7440 C   0  0  0  0  0  0  0  0  0  0  0  0
   59.6300   33.7860   48.6020 C   0  0  0  0  0  0  0  0  0  0  0  0
   64.9660   31.6440   50.0860 C   0  0  0  0  0  0  0  0  0  0  0  0
   69.5359   27.6497   50.1356 H   0  0  0  0  0  0  0  0  0  0  0  0
   68.7999   26.6163   48.8639 H   0  0  0  0  0  0  0  0  0  0  0  0
   68.5041   28.3881   48.8639 H   0  0  0  0  0  0  0  0  0  0  0  0
   67.0279   25.2167   49.9320 H   0  0  0  0  0  0  0  0  0  0  0  0
   65.1403   25.4804   51.7974 H   0  0  0  0  0  0  0  0  0  0  0  0
   65.3139   27.9987   52.7441 H   0  0  0  0  0  0  0  0  0  0  0  0
   67.6153   32.8627   51.8783 H   0  0  0  0  0  0  0  0  0  0  0  0
   66.0725   34.8097   52.0653 H   0  0  0  0  0  0  0  0  0  0  0  0
   63.8258   34.7418   50.9889 H   0  0  0  0  0  0  0  0  0  0  0  0
   62.4010   31.7120   49.3760 H   0  0  0  0  0  0  0  0  0  0  0  0
   62.1630   33.1575   46.3898 H   0  0  0  0  0  0  0  0  0  0  0  0
   60.2143   32.8264   44.8731 H   0  0  0  0  0  0  0  0  0  0  0  0
   57.0573   29.8698   43.4147 H   0  0  0  0  0  0  0  0  0  0  0  0
   58.2559   27.6848   43.4889 H   0  0  0  0  0  0  0  0  0  0  0  0
   59.6524   27.0886   45.4697 H   0  0  0  0  0  0  0  0  0  0  0  0
   59.5087   28.7823   50.2544 H   0  0  0  0  0  0  0  0  0  0  0  0
   58.6849   31.2983   48.8142 H   0  0  0  0  0  0  0  0  0  0  0  0
   57.6483   30.1360   49.6554 H   0  0  0  0  0  0  0  0  0  0  0  0
   58.2939   32.6524   50.6583 H   0  0  0  0  0  0  0  0  0  0  0  0
   57.8374   31.2971   51.7040 H   0  0  0  0  0  0  0  0  0  0  0  0
   60.5241   32.5262   51.2354 H   0  0  0  0  0  0  0  0  0  0  0  0
   59.9876   31.5508   52.6126 H   0  0  0  0  0  0  0  0  0  0  0  0
   62.8354   29.7033   53.2846 H   0  0  0  0  0  0  0  0  0  0  0  0
   61.0513   29.3817   53.2667 H   0  0  0  0  0  0  0  0  0  0  0  0
   61.0280   27.5248   50.8335 H   0  0  0  0  0  0  0  0  0  0  0  0
   61.4084   25.0635   50.6701 H   0  0  0  0  0  0  0  0  0  0  0  0
   62.8357   23.9024   52.3600 H   0  0  0  0  0  0  0  0  0  0  0  0
   63.8989   25.2079   54.2044 H   0  0  0  0  0  0  0  0  0  0  0  0
   63.5158   27.6695   54.3801 H   0  0  0  0  0  0  0  0  0  0  0  0
   58.7329   30.9226   47.2709 H   0  0  0  0  0  0  0  0  0  0  0  0
   57.5186   33.7848   48.1247 H   0  0  0  0  0  0  0  0  0  0  0  0
   59.4616   34.0344   49.6603 H   0  0  0  0  0  0  0  0  0  0  0  0
   64.6661   30.7587   49.5061 H   0  0  0  0  0  0  0  0  0  0  0  0
  1  2  1  0
  2  3  1  0
  3  4  2  0
  4  5  1  0
  5  6  2  0
  6  7  1  0
  7  8  2  0
  7  9  1  0
  9 10  1  0
 10 11  2  0
 11 12  1  0
 12 13  2  0
 13 14  1  0
 14 15  1  0
 15 16  1  0
 16 17  2  0
 16 18  1  0
 18 19  2  0
 19 20  1  0
 20 21  2  0
 21 22  1  0
 22 23  2  0
 22 24  1  0
 24 25  1  0
 25 26  2  0
 26 27  1  0
 27 28  2  0
 28 29  1  0
 29 30  1  0
 30 31  1  0
 31 32  2  0
 31 33  1  0
 33 34  1  0
 34 35  1  0
 35 36  1  0
 36 37  1  0
 37 38  1  0
 38 39  2  0
 38 40  1  0
 40 41  1  0
 41 42  2  0
 42 43  1  0
 43 44  2  0
 44 45  1  0
 45 46  2  0
 29 47  2  0
 21 48  1  0
 48 49  2  0
 14 50  2  0
  6  2  1  0
 50 10  1  0
 49 18  1  0
 47 25  1  0
 37 33  1  0
 46 41  1  0
  1 51  1  0
  1 52  1  0
  1 53  1  0
  3 54  1  0
  4 55  1  0
  5 56  1  0
 11 57  1  0
 12 58  1  0
 13 59  1  0
 15 60  1  0
 19 61  1  0
 20 62  1  0
 26 63  1  0
 27 64  1  0
 28 65  1  0
 33 66  1  1
 34 67  1  0
 34 68  1  0
 35 69  1  0
 35 70  1  0
 36 71  1  0
 36 72  1  0
 40 73  1  0
 40 74  1  0
 42 75  1  0
 43 76  1  0
 44 77  1  0
 45 78  1  0
 46 79  1  0
 47 80  1  0
 48 81  1  0
 49 82  1  0
 50 83  1  0
M  CHG  3   9  -1  24  -1  30  -1
M  END
>  <UniqueID>  (48) 
45

>  <SMILES>  (48) 
Cn1cccc1C(=O)[N-]c1cccc(NC(=O)c2ccc(C(=O)[N-]c3cccc([N-]C(=O)[C@@H]4CCCN4C(=O)Cc4ccccc4)c3)cc2)c1

>  <Energy>  (48) 
142.41352429634992

>  <Genealogy>  (48) 
Cn1cccc1C(=O)[N-]c1cccc(NC(=O)c2ccc(C(=O)[N-]c3cccc([N-]C(=O)C4CCCN4C(=O)Cc4ccccc4)c3)cc2)c1 (protonated)
Cn1cccc1C(=O)[N-]c1cccc(NC(=O)c2ccc(C(=O)[N-]c3cccc([N-]C(=O)[C@@H]4CCCN4C(=O)Cc4ccccc4)c3)cc2)c1 (chirality)
Cn1cccc1C(=O)[N-]c1cccc(NC(=O)c2ccc(C(=O)[N-]c3cccc([N-]C(=O)[C@@H]4CCCN4C(=O)Cc4ccccc4)c3)cc2)c1 (3D coordinates assigned)
Cn1cccc1C(=O)[N-]c1cccc(NC(=O)c2ccc(C(=O)[N-]c3cccc([N-]C(=O)[C@@H]4CCCN4C(=O)Cc4ccccc4)c3)cc2)c1 (nonaromatic ring conformer: 142.41352429634992 kcal/mol)

>  <smiles>  (48) 
Cn1cccc1C(=O)Nc1cccc(NC(=O)c2ccc(C(=O)Nc3cccc(NC(=O)C4CCCN4C(=O)Cc4ccccc4)c3)cc2)c1

>  <score_type>  (48) 
oracle

>  <origin>  (48) 
adg

>  <m_score__min__energy>  (48) 
-14.19

>  <m_primary>  (48) 
energy

$$$$
48:0
     RDKit          3D

 57 60  0  0  1  0  0  0  0  0999 V2000
   59.2110   31.8020   51.6470 C   0  0  0  0  0  0  0  0  0  0  0  0
   59.7000   32.0880   50.3410 O   0  0  0  0  0  0  0  0  0  0  0  0
   60.9370   32.6970   50.1800 C   0  0  0  0  0  0  0  0  0  0  0  0
   62.1040   32.0910   50.6410 C   0  0  0  0  0  0  0  0  0  0  0  0
   63.3440   32.6620   50.5000 C   0  0  0  0  0  0  0  0  0  0  0  0
   64.5360   32.0510   50.9630 N   0  0  0  0  0  0  0  0  0  0  0  0
   64.6820   30.6370   51.2240 C   0  0  0  0  0  0  0  0  0  0  0  0
   64.8660   30.5200   52.7430 C   0  0  0  0  0  0  0  0  0  0  0  0
   65.8650   31.4440   53.2010 N   0  0  0  0  0  0  0  0  0  0  0  0
   66.6380   32.0590   52.1360 C   0  0  0  0  0  0  0  0  0  0  0  0
   65.7250   32.8740   51.2120 C   0  0  0  0  0  0  0  0  0  0  0  0
   63.4050   33.8860   49.8720 C   0  0  0  0  0  0  0  0  0  0  0  0
   62.2470   34.5140   49.4020 C   0  0  0  0  0  0  0  0  0  0  0  0
   61.0120   33.9420   49.5430 C   0  0  0  0  0  0  0  0  0  0  0  0
   59.8290   34.5760   49.0670 N   0  0  0  0  0  0  0  0  0  0  0  0
   59.3960   34.2110   47.9090 C   0  0  0  0  0  0  0  0  0  0  0  0
   59.5530   35.0660   46.8900 N   0  0  0  0  0  0  0  0  0  0  0  0
   59.1420   34.7990   45.6340 C   0  0  0  0  0  0  0  0  0  0  0  0
   58.5200   33.5730   45.3700 C   0  0  0  0  0  0  0  0  0  0  0  0
   57.9650   33.1770   43.7460 Cl  0  0  0  0  0  0  0  0  0  0  0  0
   58.3680   32.7060   46.4330 C   0  0  0  0  0  0  0  0  0  0  0  0
   57.7910   31.5760   46.1750 N   0  0  0  0  0  0  0  0  0  0  0  0
   58.6180   30.4560   45.8800 C   0  0  0  0  0  0  0  0  0  0  0  0
   59.8600   30.2800   46.4180 C   0  0  0  0  0  0  0  0  0  0  0  0
   60.6710   29.1920   46.1350 C   0  0  0  0  0  0  0  0  0  0  0  0
   60.1690   28.2530   45.2610 C   0  0  0  0  0  0  0  0  0  0  0  0
   58.9090   28.4250   44.7120 C   0  0  0  0  0  0  0  0  0  0  0  0
   58.1160   29.5130   45.0030 C   0  0  0  0  0  0  0  0  0  0  0  0
   56.5360   29.6920   44.2900 S   0  0  0  0  0  0  0  0  0  0  0  0
   56.5890   29.2660   42.6110 N   0  0  0  0  0  0  0  0  0  0  0  0
   56.0470   31.0890   44.4970 O   0  0  0  0  0  0  0  0  0  0  0  0
   55.5720   28.7890   44.9990 O   0  0  0  0  0  0  0  0  0  0  0  0
   58.8000   33.0280   47.6710 N   0  0  0  0  0  0  0  0  0  0  0  0
   59.9063   32.2087   52.3961 H   0  0  0  0  0  0  0  0  0  0  0  0
   58.2210   32.2634   51.7770 H   0  0  0  0  0  0  0  0  0  0  0  0
   59.1278   30.7129   51.7770 H   0  0  0  0  0  0  0  0  0  0  0  0
   62.0281   31.1132   51.1392 H   0  0  0  0  0  0  0  0  0  0  0  0
   63.7828   30.0913   50.9021 H   0  0  0  0  0  0  0  0  0  0  0  0
   65.5314   30.2051   50.6745 H   0  0  0  0  0  0  0  0  0  0  0  0
   63.9111   30.7427   53.2416 H   0  0  0  0  0  0  0  0  0  0  0  0
   65.1901   29.4969   52.9844 H   0  0  0  0  0  0  0  0  0  0  0  0
   65.4760   32.2220   53.7780 H   0  0  0  0  0  0  0  0  0  0  0  0
   67.3950   32.7247   52.5761 H   0  0  0  0  0  0  0  0  0  0  0  0
   67.1253   31.2678   51.5473 H   0  0  0  0  0  0  0  0  0  0  0  0
   65.4379   33.8178   51.6987 H   0  0  0  0  0  0  0  0  0  0  0  0
   66.2365   33.1259   50.2713 H   0  0  0  0  0  0  0  0  0  0  0  0
   64.3799   34.3776   49.7379 H   0  0  0  0  0  0  0  0  0  0  0  0
   62.3312   35.4925   48.9065 H   0  0  0  0  0  0  0  0  0  0  0  0
   60.0130   35.9900   47.0530 H   0  0  0  0  0  0  0  0  0  0  0  0
   59.2931   35.5333   44.8290 H   0  0  0  0  0  0  0  0  0  0  0  0
   60.2380   31.0432   47.1142 H   0  0  0  0  0  0  0  0  0  0  0  0
   61.6680   29.0836   46.5869 H   0  0  0  0  0  0  0  0  0  0  0  0
   60.7678   27.3681   44.9995 H   0  0  0  0  0  0  0  0  0  0  0  0
   58.5268   27.6632   44.0166 H   0  0  0  0  0  0  0  0  0  0  0  0
   55.7420   29.6150   42.1020 H   0  0  0  0  0  0  0  0  0  0  0  0
   57.3920   29.7380   42.1160 H   0  0  0  0  0  0  0  0  0  0  0  0
   58.6700   32.3510   48.4540 H   0  0  0  0  0  0  0  0  0  0  0  0
  1  2  1  0
  2  3  1  0
  3  4  2  0
  4  5  1  0
  5  6  1  0
  6  7  1  0
  7  8  1  0
  8  9  1  0
  9 10  1  0
 10 11  1  0
  5 12  2  0
 12 13  1  0
 13 14  2  0
 14 15  1  0
 15 16  2  0
 16 17  1  0
 17 18  1  0
 18 19  2  0
 19 20  1  0
 19 21  1  0
 21 22  2  0
 22 23  1  0
 23 24  2  0
 24 25  1  0
 25 26  2  0
 26 27  1  0
 27 28  2  0
 28 29  1  0
 29 30  1  0
 29 31  2  0
 29 32  2  0
 21 33  1  0
 14  3  1  0
 33 16  1  0
 11  6  1  0
 28 23  1  0
  1 34  1  0
  1 35  1  0
  1 36  1  0
  4 37  1  0
  7 38  1  0
  7 39  1  0
  8 40  1  0
  8 41  1  0
  9 42  1  0
 10 43  1  0
 10 44  1  0
 11 45  1  0
 11 46  1  0
 12 47  1  0
 13 48  1  0
 17 49  1  0
 18 50  1  0
 24 51  1  0
 25 52  1  0
 26 53  1  0
 27 54  1  0
 30 55  1  0
 30 56  1  0
 33 57  1  0
M  END
>  <smiles>  (49) 
COc1cc(N2CCNCC2)ccc1N=c1[nH]cc(Cl)c(=Nc2ccccc2S(N)(=O)=O)[nH]1

>  <score_type>  (49) 
oracle

>  <origin>  (49) 
adg

>  <m_score__min__energy>  (49) 
-9.9100000000000001

>  <m_primary>  (49) 
energy

$$$$
49:0
     RDKit          3D

 54 58  0  0  0  0  0  0  0  0999 V2000
   56.2930   30.0540   45.8960 H   0  0  0  0  0  0  0  0  0  0  0  0
   56.7250   30.6610   45.1710 N   0  0  0  0  0  0  0  0  0  0  0  0
   57.4020   31.7390   45.4120 C   0  0  0  0  0  0  0  0  0  0  0  0
   56.8610   32.9430   45.0730 N   0  0  0  0  0  0  0  0  0  0  0  0
   57.5530   34.1100   45.1990 C   0  0  0  0  0  0  0  0  0  0  0  0
   57.0776   35.0658   44.9334 H   0  0  0  0  0  0  0  0  0  0  0  0
   58.8690   34.0870   45.6670 C   0  0  0  0  0  0  0  0  0  0  0  0
   59.4557   35.0139   45.7481 H   0  0  0  0  0  0  0  0  0  0  0  0
   59.4060   32.8870   46.0200 N   0  0  0  0  0  0  0  0  0  0  0  0
   60.6280   32.5580   46.5100 C   0  0  0  0  0  0  0  0  0  0  0  0
   61.7910   33.4850   46.7990 C   0  0  0  0  0  0  0  0  0  0  0  0
   61.6787   34.0928   45.8890 H   0  0  0  0  0  0  0  0  0  0  0  0
   61.7990   34.1610   48.1660 C   0  0  0  0  0  0  0  0  0  0  0  0
   61.7891   35.2602   48.1253 H   0  0  0  0  0  0  0  0  0  0  0  0
   60.9679   34.0101   48.8706 H   0  0  0  0  0  0  0  0  0  0  0  0
   63.1730   33.5580   48.4440 C   0  0  0  0  0  0  0  0  0  0  0  0
   63.9820   34.3001   48.5144 H   0  0  0  0  0  0  0  0  0  0  0  0
   63.3582   33.0082   49.3786 H   0  0  0  0  0  0  0  0  0  0  0  0
   63.1250   32.8150   47.1110 C   0  0  0  0  0  0  0  0  0  0  0  0
   63.9362   33.0809   46.4172 H   0  0  0  0  0  0  0  0  0  0  0  0
   63.2243   31.7201   47.0756 H   0  0  0  0  0  0  0  0  0  0  0  0
   60.7220   31.2350   46.7700 N   0  0  0  0  0  0  0  0  0  0  0  0
   59.5250   30.7140   46.4240 C   0  0  0  0  0  0  0  0  0  0  0  0
   59.1790   29.3120   46.7130 C   0  0  0  0  0  0  0  0  0  0  0  0
   58.2940   28.6240   45.8680 C   0  0  0  0  0  0  0  0  0  0  0  0
   57.8981   29.1262   44.9730 H   0  0  0  0  0  0  0  0  0  0  0  0
   57.9070   27.3040   46.1490 C   0  0  0  0  0  0  0  0  0  0  0  0
   57.0150   26.6310   45.2420 N   0  0  0  0  0  0  0  0  0  0  0  0
   57.0240   26.9000   44.2320 H   0  0  0  0  0  0  0  0  0  0  0  0
   55.8870   25.3930   45.7010 S   0  0  0  0  0  0  0  0  0  0  0  0
   56.1580   24.9390   47.1070 O   0  0  0  0  0  0  0  0  0  0  0  0
   54.4960   25.9550   45.6380 O   0  0  0  0  0  0  0  0  0  0  0  0
   55.9970   24.0200   44.5720 C   0  0  0  0  0  0  0  0  0  0  0  0
   56.0722   23.0820   45.1416 H   0  0  0  0  0  0  0  0  0  0  0  0
   55.0981   23.9933   43.9385 H   0  0  0  0  0  0  0  0  0  0  0  0
   56.8887   24.1367   43.9385 H   0  0  0  0  0  0  0  0  0  0  0  0
   58.4150   26.6800   47.3030 C   0  0  0  0  0  0  0  0  0  0  0  0
   58.1320   25.6420   47.5320 H   0  0  0  0  0  0  0  0  0  0  0  0
   59.2760   27.3690   48.1600 C   0  0  0  0  0  0  0  0  0  0  0  0
   59.6654   26.8694   49.0593 H   0  0  0  0  0  0  0  0  0  0  0  0
   59.6490   28.6950   47.8830 C   0  0  0  0  0  0  0  0  0  0  0  0
   60.5270   29.3940   48.7250 O   0  0  0  0  0  0  0  0  0  0  0  0
   60.1890   30.5090   49.5040 C   0  0  0  0  0  0  0  0  0  0  0  0
   61.2120   31.2220   50.1400 C   0  0  0  0  0  0  0  0  0  0  0  0
   62.2561   30.8931   50.0320 H   0  0  0  0  0  0  0  0  0  0  0  0
   60.9150   32.3500   50.9120 C   0  0  0  0  0  0  0  0  0  0  0  0
   61.7234   32.8982   51.4179 H   0  0  0  0  0  0  0  0  0  0  0  0
   59.5920   32.7810   51.0410 C   0  0  0  0  0  0  0  0  0  0  0  0
   59.3050   33.8760   51.7870 F   0  0  0  0  0  0  0  0  0  0  0  0
   58.5660   32.0870   50.3940 C   0  0  0  0  0  0  0  0  0  0  0  0
   57.5253   32.4298   50.4908 H   0  0  0  0  0  0  0  0  0  0  0  0
   58.8600   30.9580   49.6240 C   0  0  0  0  0  0  0  0  0  0  0  0
   58.0505   30.4187   49.1103 H   0  0  0  0  0  0  0  0  0  0  0  0
   58.7110   31.7350   45.9420 C   0  0  0  0  0  0  0  0  0  0  0  0
  1  2  1  0
  2  3  2  0
  3  4  1  0
  4  5  1  0
  5  6  1  0
  5  7  2  0
  7  8  1  0
  7  9  1  0
  9 10  1  0
 10 11  1  0
 11 12  1  0
 11 13  1  0
 13 14  1  0
 13 15  1  0
 13 16  1  0
 16 17  1  0
 16 18  1  0
 16 19  1  0
 19 20  1  0
 19 21  1  0
 10 22  2  0
 22 23  1  0
 23 24  1  0
 24 25  2  0
 25 26  1  0
 25 27  1  0
 27 28  1  0
 28 29  1  0
 28 30  1  0
 30 31  2  0
 30 32  2  0
 30 33  1  0
 33 34  1  0
 33 35  1  0
 33 36  1  0
 27 37  2  0
 37 38  1  0
 37 39  1  0
 39 40  1  0
 39 41  2  0
 41 42  1  0
 42 43  1  0
 43 44  2  0
 44 45  1  0
 44 46  1  0
 46 47  1  0
 46 48  2  0
 48 49  1  0
 48 50  1  0
 50 51  1  0
 50 52  2  0
 52 53  1  0
 23 54  2  0
 54  3  1  0
 54  9  1  0
 19 11  1  0
 41 24  1  0
 52 43  1  0
M  CHG  1   4  -1
M  END
>  <UniqueID>  (50) 
46

>  <SMILES>  (50) 
[H]/N=c1/[n-]ccn2c(C3CCC3)nc(-c3cc(NS(C)(=O)=O)ccc3Oc3ccc(F)cc3)c12

>  <Energy>  (50) 
175.67235456479779

>  <Genealogy>  (50) 
CS(=O)(=O)Nc1ccc(Oc2ccc(F)cc2)c(-c2nc(C3CCC3)n3cc[n-]c(=N)c23)c1 (protonated)
[H]/N=c1/[n-]ccn2c(C3CCC3)nc(-c3cc(NS(C)(=O)=O)ccc3Oc3ccc(F)cc3)c12 (cis-trans isomerization)
[H]/N=c1/[n-]ccn2c(C3CCC3)nc(-c3cc(NS(C)(=O)=O)ccc3Oc3ccc(F)cc3)c12 (3D coordinates assigned)
[H]/N=c1/[n-]ccn2c(C3CCC3)nc(-c3cc(NS(C)(=O)=O)ccc3Oc3ccc(F)cc3)c12 (nonaromatic ring conformer: 175.67235456479779 kcal/mol)

>  <smiles>  (50) 
CS(=O)(=O)Nc1ccc(Oc2ccc(F)cc2)c(-c2nc(C3CCC3)n3cc[nH]c(=N)c23)c1

>  <score_type>  (50) 
oracle

>  <origin>  (50) 
adg

>  <m_score__min__energy>  (50) 
-10.869999999999999

>  <m_primary>  (50) 
energy

$$$$
50:0
     RDKit          3D

 50 53  0  0  1  0  0  0  0  0999 V2000
   54.0000   24.5060   45.5830 C   0  0  0  0  0  0  0  0  0  0  0  0
   55.4080   24.9130   45.4840 C   0  0  0  0  0  0  0  0  0  0  0  0
   56.3250   24.3570   44.6210 C   0  0  0  0  0  0  0  0  0  0  0  0
   57.6470   24.7900   44.5860 C   0  0  0  0  0  0  0  0  0  0  0  0
   58.0620   25.7970   45.4290 C   0  0  0  0  0  0  0  0  0  0  0  0
   57.1160   26.3430   46.2890 C   0  0  0  0  0  0  0  0  0  0  0  0
   57.4210   27.2800   47.0940 N   0  0  0  0  0  0  0  0  0  0  0  0
   57.9640   28.5020   46.7110 C   0  0  0  0  0  0  0  0  0  0  0  0
   59.2530   28.8240   47.0940 C   0  0  0  0  0  0  0  0  0  0  0  0
   59.7640   30.0610   46.6780 C   0  0  0  0  0  0  0  0  0  0  0  0
   60.9620   30.3180   47.0500 N   0  0  0  0  0  0  0  0  0  0  0  0
   61.5010   31.6120   47.1130 C   0  0  0  0  0  0  0  0  0  0  0  0
   61.2310   32.5890   46.3930 O   0  0  0  0  0  0  0  0  0  0  0  0
   62.5230   31.8310   48.1800 C   0  0  0  0  0  0  0  0  0  0  0  0
   63.6700   32.4970   48.1650 C   0  0  0  0  0  0  0  0  0  0  0  0
   64.4310   32.5380   49.2780 C   0  0  0  0  0  0  0  0  0  0  0  0
   63.9930   31.8920   50.3830 C   0  0  0  0  0  0  0  0  0  0  0  0
   62.3690   31.1470   49.8490 S   0  0  0  0  0  0  0  0  0  0  0  0
   59.0590   30.9190   45.9350 N   0  0  0  0  0  0  0  0  0  0  0  0
   57.8200   30.5750   45.5850 C   0  0  0  0  0  0  0  0  0  0  0  0
   57.1440   31.3920   44.8540 N   0  0  0  0  0  0  0  0  0  0  0  0
   56.6910   32.6970   45.2310 C   0  0  0  0  0  0  0  0  0  0  0  0
   57.7870   33.5110   45.8420 C   0  0  0  0  0  0  0  0  0  0  0  0
   58.0500   33.4890   47.2100 C   0  0  0  0  0  0  0  0  0  0  0  0
   59.0370   34.2230   47.7970 C   0  0  0  0  0  0  0  0  0  0  0  0
   59.8430   35.0420   47.0370 C   0  0  0  0  0  0  0  0  0  0  0  0
   59.6140   35.0860   45.6870 C   0  0  0  0  0  0  0  0  0  0  0  0
   58.5960   34.3300   45.0870 C   0  0  0  0  0  0  0  0  0  0  0  0
   57.2940   29.3970   45.9660 N   0  0  0  0  0  0  0  0  0  0  0  0
   55.8330   25.9020   46.3030 N   0  0  0  0  0  0  0  0  0  0  0  0
   53.7157   24.4238   46.6424 H   0  0  0  0  0  0  0  0  0  0  0  0
   53.3656   25.2575   45.0903 H   0  0  0  0  0  0  0  0  0  0  0  0
   53.8644   23.5319   45.0903 H   0  0  0  0  0  0  0  0  0  0  0  0
   56.0053   23.5517   43.9433 H   0  0  0  0  0  0  0  0  0  0  0  0
   58.3594   24.3288   43.8862 H   0  0  0  0  0  0  0  0  0  0  0  0
   59.1019   26.1554   45.4221 H   0  0  0  0  0  0  0  0  0  0  0  0
   59.8556   28.1342   47.7032 H   0  0  0  0  0  0  0  0  0  0  0  0
   63.9986   33.0127   47.2506 H   0  0  0  0  0  0  0  0  0  0  0  0
   65.3858   33.0842   49.2869 H   0  0  0  0  0  0  0  0  0  0  0  0
   64.4808   31.8225   51.3665 H   0  0  0  0  0  0  0  0  0  0  0  0
   59.4450   31.8130   45.6480 H   0  0  0  0  0  0  0  0  0  0  0  0
   56.3182   33.2167   44.3361 H   0  0  0  0  0  0  0  0  0  0  0  0
   55.8946   32.5789   45.9805 H   0  0  0  0  0  0  0  0  0  0  0  0
   57.4284   32.8454   47.8499 H   0  0  0  0  0  0  0  0  0  0  0  0
   59.1910   34.1611   48.8844 H   0  0  0  0  0  0  0  0  0  0  0  0
   60.6428   35.6400   47.4982 H   0  0  0  0  0  0  0  0  0  0  0  0
   60.2447   35.7308   45.0573 H   0  0  0  0  0  0  0  0  0  0  0  0
   58.4422   34.3924   43.9996 H   0  0  0  0  0  0  0  0  0  0  0  0
   56.3040   29.1430   45.6790 H   0  0  0  0  0  0  0  0  0  0  0  0
   55.1410   26.3510   46.9720 H   0  0  0  0  0  0  0  0  0  0  0  0
  1  2  1  0
  2  3  2  0
  3  4  1  0
  4  5  2  0
  5  6  1  0
  6  7  2  0
  7  8  1  0
  8  9  2  0
  9 10  1  0
 10 11  2  0
 11 12  1  0
 12 13  2  0
 12 14  1  0
 14 15  2  0
 15 16  1  0
 16 17  2  0
 17 18  1  0
 10 19  1  0
 19 20  1  0
 20 21  2  0
 21 22  1  0
 22 23  1  0
 23 24  2  0
 24 25  1  0
 25 26  2  0
 26 27  1  0
 27 28  2  0
 20 29  1  0
  6 30  1  0
 30  2  1  0
 29  8  1  0
 18 14  1  0
 28 23  1  0
  1 31  1  0
  1 32  1  0
  1 33  1  0
  3 34  1  0
  4 35  1  0
  5 36  1  0
  9 37  1  0
 15 38  1  0
 16 39  1  0
 17 40  1  0
 19 41  1  0
 22 42  1  0
 22 43  1  0
 24 44  1  0
 25 45  1  0
 26 46  1  0
 27 47  1  0
 28 48  1  0
 29 49  1  0
 30 50  1  0
M  END
>  <smiles>  (51) 
Cc1cccc(=Nc2cc(=NC(=O)c3cccs3)[nH]c(=NCc3ccccc3)[nH]2)[nH]1

>  <score_type>  (51) 
oracle

>  <origin>  (51) 
adg

>  <m_score__min__energy>  (51) 
-9.3300000000000001

>  <m_primary>  (51) 
energy

$$$$
51:0
     RDKit          3D

 36 38  0  0  0  0  0  0  0  0999 V2000
   55.9030   26.1300   46.6420 O   0  0  0  0  0  0  0  0  0  0  0  0
   56.5590   27.0500   46.0890 C   0  0  0  0  0  0  0  0  0  0  0  0
   57.8840   27.1680   46.3150 N   0  0  0  0  0  0  0  0  0  0  0  0
   58.6070   28.1640   45.7410 C   0  0  0  0  0  0  0  0  0  0  0  0
   60.1040   28.1300   45.9620 C   0  0  0  0  0  0  0  0  0  0  0  0
   60.5220   29.1010   47.0390 C   0  0  0  0  0  0  0  0  0  0  0  0
   61.1500   30.3130   46.6960 C   0  0  0  0  0  0  0  0  0  0  0  0
   61.5470   31.2080   47.6930 C   0  0  0  0  0  0  0  0  0  0  0  0
   61.3330   30.8990   49.0380 C   0  0  0  0  0  0  0  0  0  0  0  0
   60.7250   29.6910   49.3900 C   0  0  0  0  0  0  0  0  0  0  0  0
   60.3250   28.7920   48.3960 C   0  0  0  0  0  0  0  0  0  0  0  0
   57.9750   29.0990   44.9390 N   0  0  0  0  0  0  0  0  0  0  0  0
   58.6910   30.1690   44.3230 N   0  0  0  0  0  0  0  0  0  0  0  0
   58.2690   31.4560   44.8410 C   0  0  0  0  0  0  0  0  0  0  0  0
   58.2480   31.6730   46.2330 C   0  0  0  0  0  0  0  0  0  0  0  0
   57.8360   32.9000   46.7570 C   0  0  0  0  0  0  0  0  0  0  0  0
   57.4300   33.9250   45.9040 C   0  0  0  0  0  0  0  0  0  0  0  0
   57.4270   33.7230   44.5230 C   0  0  0  0  0  0  0  0  0  0  0  0
   57.8370   32.4970   43.9840 C   0  0  0  0  0  0  0  0  0  0  0  0
   57.7740   32.3070   42.2380 Cl  0  0  0  0  0  0  0  0  0  0  0  0
   56.6400   28.9080   44.6560 C   0  0  0  0  0  0  0  0  0  0  0  0
   56.0420   29.6530   43.8340 O   0  0  0  0  0  0  0  0  0  0  0  0
   55.9450   27.9070   45.2460 N   0  0  0  0  0  0  0  0  0  0  0  0
   60.3988   27.1136   46.2620 H   0  0  0  0  0  0  0  0  0  0  0  0
   60.5999   28.4183   45.0234 H   0  0  0  0  0  0  0  0  0  0  0  0
   61.3291   30.5568   45.6384 H   0  0  0  0  0  0  0  0  0  0  0  0
   62.0290   32.1577   47.4179 H   0  0  0  0  0  0  0  0  0  0  0  0
   61.6432   31.6069   49.8207 H   0  0  0  0  0  0  0  0  0  0  0  0
   60.5608   29.4469   50.4499 H   0  0  0  0  0  0  0  0  0  0  0  0
   59.8540   27.8386   48.6775 H   0  0  0  0  0  0  0  0  0  0  0  0
   59.7160   30.1050   44.4840 H   0  0  0  0  0  0  0  0  0  0  0  0
   58.5390   30.1050   43.2880 H   0  0  0  0  0  0  0  0  0  0  0  0
   58.5594   30.8674   46.9141 H   0  0  0  0  0  0  0  0  0  0  0  0
   57.8318   33.0581   47.8456 H   0  0  0  0  0  0  0  0  0  0  0  0
   57.1121   34.8928   46.3192 H   0  0  0  0  0  0  0  0  0  0  0  0
   57.1004   34.5322   43.8533 H   0  0  0  0  0  0  0  0  0  0  0  0
  1  2  2  0
  2  3  1  0
  3  4  2  0
  4  5  1  0
  5  6  1  0
  6  7  2  0
  7  8  1  0
  8  9  2  0
  9 10  1  0
 10 11  2  0
  4 12  1  0
 12 13  1  0
 13 14  1  0
 14 15  2  0
 15 16  1  0
 16 17  2  0
 17 18  1  0
 18 19  2  0
 19 20  1  0
 12 21  1  0
 21 22  2  0
 21 23  1  0
 23  2  1  0
 11  6  1  0
 19 14  1  0
  5 24  1  0
  5 25  1  0
  7 26  1  0
  8 27  1  0
  9 28  1  0
 10 29  1  0
 11 30  1  0
 13 31  1  0
 13 32  1  0
 15 33  1  0
 16 34  1  0
 17 35  1  0
 18 36  1  0
M  CHG  2  13   1  23  -1
M  END
>  <UniqueID>  (52) 
47

>  <SMILES>  (52) 
O=c1nc(Cc2ccccc2)n([NH2+]c2ccccc2Cl)c(=O)[n-]1

>  <Energy>  (52) 
50.74292238881599

>  <Genealogy>  (52) 
O=c1nc(Cc2ccccc2)n([NH2+]c2ccccc2Cl)c(=O)[n-]1 (protonated)
O=c1nc(Cc2ccccc2)n([NH2+]c2ccccc2Cl)c(=O)[n-]1 (3D coordinates assigned)
O=c1nc(Cc2ccccc2)n([NH2+]c2ccccc2Cl)c(=O)[n-]1 (optimized conformer: 50.74292238881599 kcal/mol)

>  <smiles>  (52) 
O=c1nc(Cc2ccccc2)n(Nc2ccccc2Cl)c(=O)[nH]1

>  <score_type>  (52) 
oracle

>  <origin>  (52) 
adg

>  <m_score__min__energy>  (52) 
-7.5800000000000001

>  <m_primary>  (52) 
energy

$$$$
52:0
     RDKit          3D

 49 51  0  0  0  0  0  0  0  0999 V2000
   59.6080   29.7130   49.0540 C   0  0  0  0  0  0  0  0  0  0  0  0
   60.1260   30.8690   48.3010 N   0  0  2  0  0  0  0  0  0  0  0  0
   61.4890   30.6430   47.7630 C   0  0  0  0  0  0  0  0  0  0  0  0
   62.2130   31.9070   47.3790 C   0  0  0  0  0  0  0  0  0  0  0  0
   63.5180   32.2250   47.7040 C   0  0  0  0  0  0  0  0  0  0  0  0
   63.7430   33.4670   47.1520 C   0  0  0  0  0  0  0  0  0  0  0  0
   62.5670   33.8290   46.5270 C   0  0  0  0  0  0  0  0  0  0  0  0
   61.6740   32.8780   46.6790 O   0  0  0  0  0  0  0  0  0  0  0  0
   60.0500   32.0820   49.0960 C   0  0  0  0  0  0  0  0  0  0  0  0
   60.8860   32.3100   49.9620 O   0  0  0  0  0  0  0  0  0  0  0  0
   58.9080   33.0470   48.9190 C   0  0  0  0  0  0  0  0  0  0  0  0
   58.7970   33.4400   47.5030 N   0  0  0  0  0  0  0  0  0  0  0  0
   59.3190   34.6420   47.1170 C   0  0  0  0  0  0  0  0  0  0  0  0
   59.2780   35.0410   45.7850 C   0  0  0  0  0  0  0  0  0  0  0  0
   58.7030   34.2030   44.8360 C   0  0  0  0  0  0  0  0  0  0  0  0
   58.1680   32.9620   45.2140 C   0  0  0  0  0  0  0  0  0  0  0  0
   57.5580   32.0860   44.1760 C   0  0  0  0  0  0  0  0  0  0  0  0
   57.9150   32.1970   42.9710 O   0  0  0  0  0  0  0  0  0  0  0  0
   56.5560   31.1250   44.5250 N   0  0  0  0  0  0  0  0  0  0  0  0
   56.6190   29.7270   44.1190 C   0  0  0  0  0  0  0  0  0  0  0  0
   57.7230   29.0410   44.8680 C   0  0  0  0  0  0  0  0  0  0  0  0
   59.0640   29.2610   44.5130 C   0  0  0  0  0  0  0  0  0  0  0  0
   60.0890   28.5910   45.1880 C   0  0  0  0  0  0  0  0  0  0  0  0
   59.7830   27.6910   46.2140 C   0  0  0  0  0  0  0  0  0  0  0  0
   60.7790   27.0420   46.8660 F   0  0  0  0  0  0  0  0  0  0  0  0
   58.4490   27.4570   46.5640 C   0  0  0  0  0  0  0  0  0  0  0  0
   57.4210   28.1220   45.8880 C   0  0  0  0  0  0  0  0  0  0  0  0
   58.2380   32.5900   46.5790 C   0  0  0  0  0  0  0  0  0  0  0  0
   57.7950   31.4670   46.9490 O   0  0  0  0  0  0  0  0  0  0  0  0
   59.6958   29.9090   50.1328 H   0  0  0  0  0  0  0  0  0  0  0  0
   58.5511   29.5508   48.7956 H   0  0  0  0  0  0  0  0  0  0  0  0
   60.1904   28.8163   48.7956 H   0  0  0  0  0  0  0  0  0  0  0  0
   59.5000   30.9810   47.4680 H   0  0  0  0  0  0  0  0  0  0  0  0
   62.0822   30.1240   48.5303 H   0  0  0  0  0  0  0  0  0  0  0  0
   61.3742   30.0499   46.8437 H   0  0  0  0  0  0  0  0  0  0  0  0
   64.2278   31.6148   48.2819 H   0  0  0  0  0  0  0  0  0  0  0  0
   64.6730   34.0525   47.1998 H   0  0  0  0  0  0  0  0  0  0  0  0
   62.4025   34.7713   45.9838 H   0  0  0  0  0  0  0  0  0  0  0  0
   57.9716   32.5662   49.2384 H   0  0  0  0  0  0  0  0  0  0  0  0
   59.0936   33.9430   49.5296 H   0  0  0  0  0  0  0  0  0  0  0  0
   59.7771   35.3021   47.8683 H   0  0  0  0  0  0  0  0  0  0  0  0
   59.6975   36.0125   45.4846 H   0  0  0  0  0  0  0  0  0  0  0  0
   58.6673   34.5150   43.7818 H   0  0  0  0  0  0  0  0  0  0  0  0
   55.6612   29.2355   44.3451 H   0  0  0  0  0  0  0  0  0  0  0  0
   56.8146   29.6662   43.0382 H   0  0  0  0  0  0  0  0  0  0  0  0
   59.3086   29.9624   43.7017 H   0  0  0  0  0  0  0  0  0  0  0  0
   61.1382   28.7721   44.9115 H   0  0  0  0  0  0  0  0  0  0  0  0
   58.2084   26.7496   47.3713 H   0  0  0  0  0  0  0  0  0  0  0  0
   56.3723   27.9252   46.1554 H   0  0  0  0  0  0  0  0  0  0  0  0
  1  2  1  0
  2  3  1  0
  3  4  1  0
  4  5  2  0
  5  6  1  0
  6  7  2  0
  7  8  1  0
  2  9  1  0
  9 10  2  0
  9 11  1  0
 11 12  1  0
 12 13  1  0
 13 14  2  0
 14 15  1  0
 15 16  2  0
 16 17  1  0
 17 18  2  0
 17 19  1  0
 19 20  1  0
 20 21  1  0
 21 22  2  0
 22 23  1  0
 23 24  2  0
 24 25  1  0
 24 26  1  0
 26 27  2  0
 16 28  1  0
 28 29  2  0
  8  4  1  0
 28 12  1  0
 27 21  1  0
  1 30  1  0
  1 31  1  0
  1 32  1  0
  2 33  1  6
  3 34  1  0
  3 35  1  0
  5 36  1  0
  6 37  1  0
  7 38  1  0
 11 39  1  0
 11 40  1  0
 13 41  1  0
 14 42  1  0
 15 43  1  0
 20 44  1  0
 20 45  1  0
 22 46  1  0
 23 47  1  0
 26 48  1  0
 27 49  1  0
M  CHG  2   2   1  19  -1
M  END
>  <UniqueID>  (53) 
48

>  <SMILES>  (53) 
C[N@H+](Cc1ccco1)C(=O)Cn1cccc(C(=O)[N-]Cc2ccc(F)cc2)c1=O

>  <Energy>  (53) 
80.4771444396061

>  <Genealogy>  (53) 
C[NH+](Cc1ccco1)C(=O)Cn1cccc(C(=O)[N-]Cc2ccc(F)cc2)c1=O (protonated)
C[N@H+](Cc1ccco1)C(=O)Cn1cccc(C(=O)[N-]Cc2ccc(F)cc2)c1=O (chirality)
C[N@H+](Cc1ccco1)C(=O)Cn1cccc(C(=O)[N-]Cc2ccc(F)cc2)c1=O (3D coordinates assigned)
C[N@H+](Cc1ccco1)C(=O)Cn1cccc(C(=O)[N-]Cc2ccc(F)cc2)c1=O (optimized conformer: 80.4771444396061 kcal/mol)

>  <smiles>  (53) 
CN(Cc1ccco1)C(=O)Cn1cccc(C(=O)NCc2ccc(F)cc2)c1=O

>  <score_type>  (53) 
oracle

>  <origin>  (53) 
adg

>  <m_score__min__energy>  (53) 
-8.0399999999999991

>  <m_primary>  (53) 
energy

$$$$
53:0
     RDKit          3D

 41 43  0  0  0  0  0  0  0  0999 V2000
   57.6520   23.7380   47.5860 N   0  0  0  0  0  0  0  0  0  0  0  0
   56.6730   24.5890   46.9920 C   0  0  0  0  0  0  0  0  0  0  0  0
   55.4570   24.2710   47.0860 O   0  0  0  0  0  0  0  0  0  0  0  0
   57.0660   25.8270   46.2650 C   0  0  0  0  0  0  0  0  0  0  0  0
   58.4150   26.0170   45.9060 C   0  0  0  0  0  0  0  0  0  0  0  0
   58.8220   27.1700   45.2310 C   0  0  0  0  0  0  0  0  0  0  0  0
   57.8860   28.1610   44.8930 C   0  0  0  0  0  0  0  0  0  0  0  0
   58.2590   29.3560   44.1940 N   0  0  0  0  0  0  0  0  0  0  0  0
   57.3530   30.8340   44.1890 S   0  0  0  0  0  0  0  0  0  0  0  0
   55.9140   30.5300   44.5020 O   0  0  0  0  0  0  0  0  0  0  0  0
   57.4350   31.4590   42.8240 O   0  0  0  0  0  0  0  0  0  0  0  0
   58.0280   31.9530   45.3700 C   0  0  0  0  0  0  0  0  0  0  0  0
   58.6490   31.4560   46.5230 C   0  0  0  0  0  0  0  0  0  0  0  0
   59.1720   32.3360   47.4740 C   0  0  0  0  0  0  0  0  0  0  0  0
   59.0950   33.7200   47.2770 C   0  0  0  0  0  0  0  0  0  0  0  0
   59.6190   34.5950   48.2860 N   0  0  0  0  0  0  0  0  0  0  0  0
   60.5160   34.2250   49.3430 C   0  0  0  0  0  0  0  0  0  0  0  0
   60.0780   34.1970   50.5230 O   0  0  0  0  0  0  0  0  0  0  0  0
   61.9190   33.8280   49.0790 C   0  0  0  0  0  0  0  0  0  0  0  0
   62.8610   33.7640   50.1190 C   0  0  0  0  0  0  0  0  0  0  0  0
   64.1770   33.3910   49.8380 C   0  0  0  0  0  0  0  0  0  0  0  0
   64.5470   33.1020   48.5620 N   0  0  0  0  0  0  0  0  0  0  0  0
   63.6620   33.1670   47.5320 C   0  0  0  0  0  0  0  0  0  0  0  0
   62.3360   33.5370   47.7690 C   0  0  0  0  0  0  0  0  0  0  0  0
   58.4570   34.2170   46.1260 C   0  0  0  0  0  0  0  0  0  0  0  0
   57.9360   33.3360   45.1740 C   0  0  0  0  0  0  0  0  0  0  0  0
   56.5460   27.9810   45.2460 C   0  0  0  0  0  0  0  0  0  0  0  0
   56.1300   26.8290   45.9220 C   0  0  0  0  0  0  0  0  0  0  0  0
   54.7820   26.6990   46.2400 O   0  0  0  0  0  0  0  0  0  0  0  0
   58.4920   23.4290   47.0490 H   0  0  0  0  0  0  0  0  0  0  0  0
   59.1579   25.2468   46.1608 H   0  0  0  0  0  0  0  0  0  0  0  0
   59.8806   27.3025   44.9629 H   0  0  0  0  0  0  0  0  0  0  0  0
   58.7251   30.3700   46.6802 H   0  0  0  0  0  0  0  0  0  0  0  0
   59.6472   31.9389   48.3831 H   0  0  0  0  0  0  0  0  0  0  0  0
   62.5635   34.0065   51.1498 H   0  0  0  0  0  0  0  0  0  0  0  0
   64.9159   33.3309   50.6507 H   0  0  0  0  0  0  0  0  0  0  0  0
   63.9908   32.9277   46.5099 H   0  0  0  0  0  0  0  0  0  0  0  0
   61.6220   33.6002   46.9346 H   0  0  0  0  0  0  0  0  0  0  0  0
   58.3678   35.3029   45.9746 H   0  0  0  0  0  0  0  0  0  0  0  0
   57.4523   33.7306   44.2683 H   0  0  0  0  0  0  0  0  0  0  0  0
   55.8084   28.7555   44.9889 H   0  0  0  0  0  0  0  0  0  0  0  0
  1  2  1  0
  2  3  2  0
  2  4  1  0
  4  5  2  0
  5  6  1  0
  6  7  2  0
  7  8  1  0
  8  9  1  0
  9 10  2  0
  9 11  2  0
  9 12  1  0
 12 13  2  0
 13 14  1  0
 14 15  2  0
 15 16  1  0
 16 17  1  0
 17 18  2  0
 17 19  1  0
 19 20  2  0
 20 21  1  0
 21 22  2  0
 22 23  1  0
 23 24  2  0
 15 25  1  0
 25 26  2  0
  7 27  1  0
 27 28  2  0
 28 29  1  0
 28  4  1  0
 26 12  1  0
 24 19  1  0
  1 30  1  0
  5 31  1  0
  6 32  1  0
 13 33  1  0
 14 34  1  0
 20 35  1  0
 21 36  1  0
 23 37  1  0
 24 38  1  0
 25 39  1  0
 26 40  1  0
 27 41  1  0
M  CHG  4   1  -1   8  -1  16  -1  29  -1
M  END
>  <UniqueID>  (54) 
49

>  <SMILES>  (54) 
[NH-]C(=O)c1ccc([N-]S(=O)(=O)c2ccc([N-]C(=O)c3ccncc3)cc2)cc1[O-]

>  <Energy>  (54) 
57.18033612387062

>  <Genealogy>  (54) 
[NH-]C(=O)c1ccc([N-]S(=O)(=O)c2ccc([N-]C(=O)c3ccncc3)cc2)cc1[O-] (protonated)
[NH-]C(=O)c1ccc([N-]S(=O)(=O)c2ccc([N-]C(=O)c3ccncc3)cc2)cc1[O-] (3D coordinates assigned)
[NH-]C(=O)c1ccc([N-]S(=O)(=O)c2ccc([N-]C(=O)c3ccncc3)cc2)cc1[O-] (optimized conformer: 57.18033612387062 kcal/mol)

>  <smiles>  (54) 
NC(=O)c1ccc(NS(=O)(=O)c2ccc(NC(=O)c3ccncc3)cc2)cc1O

>  <score_type>  (54) 
oracle

>  <origin>  (54) 
adg

>  <m_score__min__energy>  (54) 
-17.280000000000001

>  <m_primary>  (54) 
energy

$$$$
54:0
     RDKit          3D

 54 57  0  0  1  0  0  0  0  0999 V2000
   54.2830   23.1770   46.4300 C   0  0  0  0  0  0  0  0  0  0  0  0
   55.3430   23.5760   47.0950 C   0  0  0  0  0  0  0  0  0  0  0  0
   56.2900   24.5700   46.6160 C   0  0  0  0  0  0  0  0  0  0  0  0
   57.6850   24.4690   46.6630 C   0  0  0  0  0  0  0  0  0  0  0  0
   58.1790   25.6250   46.1060 C   0  0  0  0  0  0  0  0  0  0  0  0
   59.6590   25.8780   45.9820 C   0  0  2  0  0  0  0  0  0  0  0  0
   60.2420   24.6130   45.9720 O   0  0  0  0  0  0  0  0  0  0  0  0
   60.0380   26.6760   47.1230 N   0  0  0  0  0  0  0  0  0  0  0  0
   59.8330   27.9490   47.0760 C   0  0  0  0  0  0  0  0  0  0  0  0
   59.2920   28.7270   46.0790 C   0  0  0  0  0  0  0  0  0  0  0  0
   59.2950   30.0190   46.5190 C   0  0  0  0  0  0  0  0  0  0  0  0
   58.8130   31.1960   45.7950 C   0  0  0  0  0  0  0  0  0  0  0  0
   57.8640   31.0830   44.8190 C   0  0  0  0  0  0  0  0  0  0  0  0
   57.3830   32.1480   44.1150 C   0  0  0  0  0  0  0  0  0  0  0  0
   57.9050   33.4000   44.4300 C   0  0  0  0  0  0  0  0  0  0  0  0
   58.8740   33.5020   45.4290 C   0  0  0  0  0  0  0  0  0  0  0  0
   59.3110   34.6920   45.6650 N   0  0  0  0  0  0  0  0  0  0  0  0
   59.2510   35.2100   47.0210 C   0  0  0  0  0  0  0  0  0  0  0  0
   60.3420   34.4810   47.7640 C   0  0  0  0  0  0  0  0  0  0  0  0
   60.1750   34.2190   49.1240 C   0  0  0  0  0  0  0  0  0  0  0  0
   61.2050   33.5440   49.7700 C   0  0  0  0  0  0  0  0  0  0  0  0
   62.3480   33.1400   49.1230 C   0  0  0  0  0  0  0  0  0  0  0  0
   62.4590   33.4260   47.7810 C   0  0  0  0  0  0  0  0  0  0  0  0
   63.7040   32.9880   47.0740 C   0  0  0  0  0  0  0  0  0  0  0  0
   61.4670   34.0840   47.1270 N   0  0  0  0  0  0  0  0  0  0  0  0
   59.3020   32.4080   46.0810 N   0  0  0  0  0  0  0  0  0  0  0  0
   59.8240   30.0300   47.7470 N   0  0  0  0  0  0  0  0  0  0  0  0
   60.1440   28.8090   48.0840 N   0  0  0  0  0  0  0  0  0  0  0  0
   57.1740   26.4280   45.7190 N   0  0  0  0  0  0  0  0  0  0  0  0
   56.0110   25.7860   46.0300 C   0  0  0  0  0  0  0  0  0  0  0  0
   54.7810   26.3420   45.7630 O   0  0  0  0  0  0  0  0  0  0  0  0
   53.6148   22.4186   46.8639 H   0  0  0  0  0  0  0  0  0  0  0  0
   54.0635   23.6012   45.4391 H   0  0  0  0  0  0  0  0  0  0  0  0
   55.5270   23.1273   48.0823 H   0  0  0  0  0  0  0  0  0  0  0  0
   58.2710   23.6299   47.0662 H   0  0  0  0  0  0  0  0  0  0  0  0
   59.9729   26.4232   45.0796 H   0  0  0  0  0  0  0  0  0  0  0  0
   61.1600   24.7320   45.5900 H   0  0  0  0  0  0  0  0  0  0  0  0
   58.9241   28.3726   45.1048 H   0  0  0  0  0  0  0  0  0  0  0  0
   57.4677   30.0830   44.5891 H   0  0  0  0  0  0  0  0  0  0  0  0
   56.6180   32.0235   43.3344 H   0  0  0  0  0  0  0  0  0  0  0  0
   57.5577   34.2978   43.8977 H   0  0  0  0  0  0  0  0  0  0  0  0
   59.4351   36.2944   47.0294 H   0  0  0  0  0  0  0  0  0  0  0  0
   58.2633   35.0554   47.4798 H   0  0  0  0  0  0  0  0  0  0  0  0
   59.2682   34.5326   49.6619 H   0  0  0  0  0  0  0  0  0  0  0  0
   61.1005   33.3245   50.8428 H   0  0  0  0  0  0  0  0  0  0  0  0
   63.1468   32.6064   49.6590 H   0  0  0  0  0  0  0  0  0  0  0  0
   64.4709   32.7182   47.8150 H   0  0  0  0  0  0  0  0  0  0  0  0
   63.4798   32.1148   46.4438 H   0  0  0  0  0  0  0  0  0  0  0  0
   64.0760   33.8092   46.4438 H   0  0  0  0  0  0  0  0  0  0  0  0
   60.0280   32.5110   46.8230 H   0  0  0  0  0  0  0  0  0  0  0  0
   59.9630   30.8690   48.3500 H   0  0  0  0  0  0  0  0  0  0  0  0
   60.5770   28.5440   48.9960 H   0  0  0  0  0  0  0  0  0  0  0  0
   57.2690   27.3710   45.2640 H   0  0  0  0  0  0  0  0  0  0  0  0
   54.0230   26.3020   46.4310 H   0  0  0  0  0  0  0  0  0  0  0  0
  1  2  2  0
  2  3  1  0
  3  4  1  0
  4  5  2  0
  5  6  1  0
  6  7  1  0
  6  8  1  0
  8  9  2  0
  9 10  1  0
 10 11  2  0
 11 12  1  0
 12 13  2  0
 13 14  1  0
 14 15  2  0
 15 16  1  0
 16 17  2  0
 17 18  1  0
 18 19  1  0
 19 20  2  0
 20 21  1  0
 21 22  2  0
 22 23  1  0
 23 24  1  0
 23 25  2  0
 16 26  1  0
 11 27  1  0
 27 28  1  0
  5 29  1  0
 29 30  1  0
 30 31  1  0
 30  3  2  0
 28  9  1  0
 26 12  1  0
 25 19  1  0
  1 32  1  0
  1 33  1  0
  2 34  1  0
  4 35  1  0
  6 36  1  6
  7 37  1  0
 10 38  1  0
 13 39  1  0
 14 40  1  0
 15 41  1  0
 18 42  1  0
 18 43  1  0
 20 44  1  0
 21 45  1  0
 22 46  1  0
 24 47  1  0
 24 48  1  0
 24 49  1  0
 26 50  1  0
 27 51  1  0
 28 52  1  0
 29 53  1  0
 31 54  1  0
M  END
>  <smiles>  (55) 
C=Cc1cc(C(O)N=c2cc(-c3cccc(=NCc4cccc(C)n4)[nH]3)[nH][nH]2)[nH]c1O

>  <score_type>  (55) 
oracle

>  <origin>  (55) 
adg

>  <m_score__min__energy>  (55) 
-10.16

>  <m_primary>  (55) 
energy

$$$$
55:0
     RDKit          3D

 33 34  0  0  0  0  0  0  0  0999 V2000
   57.2450   28.6520   43.0240 N   0  0  0  0  0  0  0  0  0  0  0  0
   56.6280   30.2130   43.4450 S   0  0  0  0  0  0  0  0  0  0  0  0
   55.2130   30.0590   43.9250 O   0  0  0  0  0  0  0  0  0  0  0  0
   56.6460   31.0820   42.2180 O   0  0  0  0  0  0  0  0  0  0  0  0
   57.5900   30.9850   44.7150 C   0  0  0  0  0  0  0  0  0  0  0  0
   57.4120   32.3470   45.0130 C   0  0  0  0  0  0  0  0  0  0  0  0
   58.1720   32.9570   46.0150 C   0  0  0  0  0  0  0  0  0  0  0  0
   59.1200   32.2170   46.7210 C   0  0  0  0  0  0  0  0  0  0  0  0
   59.3070   30.8650   46.4340 C   0  0  0  0  0  0  0  0  0  0  0  0
   58.5300   30.2320   45.4490 C   0  0  0  0  0  0  0  0  0  0  0  0
   58.7410   28.8490   45.1330 N   0  0  0  0  0  0  0  0  0  0  0  0
   58.0740   27.7310   45.7340 C   0  0  0  0  0  0  0  0  0  0  0  0
   56.8170   27.6760   45.6850 O   0  0  0  0  0  0  0  0  0  0  0  0
   58.8180   26.6830   46.5100 C   0  0  0  0  0  0  0  0  0  0  0  0
   57.6440   25.6140   47.4070 S   0  0  0  0  0  0  0  0  0  0  0  0
   57.2840   24.6030   45.9650 C   0  0  0  0  0  0  0  0  0  0  0  0
   58.2790   23.8460   45.3300 C   0  0  0  0  0  0  0  0  0  0  0  0
   57.8260   23.1490   44.2170 C   0  0  0  0  0  0  0  0  0  0  0  0
   56.1860   23.4690   44.0210 S   0  0  0  0  0  0  0  0  0  0  0  0
   56.0370   24.4910   45.3480 C   0  0  0  0  0  0  0  0  0  0  0  0
   54.8100   25.1160   45.7480 N   0  0  0  0  0  0  0  0  0  0  0  0
   54.7610   26.3380   45.9940 O   0  0  0  0  0  0  0  0  0  0  0  0
   53.6810   24.3520   45.9250 O   0  0  0  0  0  0  0  0  0  0  0  0
   58.2870   28.7210   42.9960 H   0  0  0  0  0  0  0  0  0  0  0  0
   56.9890   27.9940   43.7940 H   0  0  0  0  0  0  0  0  0  0  0  0
   56.6701   32.9364   44.4543 H   0  0  0  0  0  0  0  0  0  0  0  0
   58.0222   34.0218   46.2469 H   0  0  0  0  0  0  0  0  0  0  0  0
   59.7211   32.7003   47.5053 H   0  0  0  0  0  0  0  0  0  0  0  0
   60.0679   30.2903   46.9824 H   0  0  0  0  0  0  0  0  0  0  0  0
   59.4113   26.0694   45.8160 H   0  0  0  0  0  0  0  0  0  0  0  0
   59.4816   27.1762   47.2355 H   0  0  0  0  0  0  0  0  0  0  0  0
   59.3210   23.8077   45.6805 H   0  0  0  0  0  0  0  0  0  0  0  0
   58.4360   22.4983   43.5732 H   0  0  0  0  0  0  0  0  0  0  0  0
  1  2  1  0
  2  3  2  0
  2  4  2  0
  2  5  1  0
  5  6  2  0
  6  7  1  0
  7  8  2  0
  8  9  1  0
  9 10  2  0
 10 11  1  0
 11 12  1  0
 12 13  2  0
 12 14  1  0
 14 15  1  0
 15 16  1  0
 16 17  1  0
 17 18  2  0
 18 19  1  0
 19 20  1  0
 20 21  1  0
 21 22  2  0
 21 23  1  0
 10  5  1  0
 20 16  2  0
  1 24  1  0
  1 25  1  0
  6 26  1  0
  7 27  1  0
  8 28  1  0
  9 29  1  0
 14 30  1  0
 14 31  1  0
 17 32  1  0
 18 33  1  0
M  CHG  3  11  -1  21   1  23  -1
M  END
>  <UniqueID>  (56) 
50

>  <SMILES>  (56) 
NS(=O)(=O)c1ccccc1[N-]C(=O)CSc1ccsc1[N+](=O)[O-]

>  <Energy>  (56) 
60.66478253956369

>  <Genealogy>  (56) 
NS(=O)(=O)c1ccccc1[N-]C(=O)CSc1ccsc1[N+](=O)[O-] (protonated)
NS(=O)(=O)c1ccccc1[N-]C(=O)CSc1ccsc1[N+](=O)[O-] (3D coordinates assigned)
NS(=O)(=O)c1ccccc1[N-]C(=O)CSc1ccsc1[N+](=O)[O-] (optimized conformer: 60.66478253956369 kcal/mol)

>  <smiles>  (56) 
NS(=O)(=O)c1ccccc1NC(=O)CSc1ccsc1[N+](=O)[O-]

>  <score_type>  (56) 
oracle

>  <origin>  (56) 
adg

>  <m_score__min__energy>  (56) 
-10.050000000000001

>  <m_primary>  (56) 
energy

$$$$
56:0
     RDKit          3D

 32 33  0  0  0  0  0  0  0  0999 V2000
   59.6060   34.8830   46.5090 C   0  0  0  0  0  0  0  0  0  0  0  0
   59.1520   34.2820   45.1790 C   0  0  0  0  0  0  0  0  0  0  0  0
   57.6210   34.2700   45.0220 C   0  0  0  0  0  0  0  0  0  0  0  0
   56.9930   32.8770   45.1970 C   0  0  0  0  0  0  0  0  0  0  0  0
   57.5510   31.9070   44.2510 N   0  0  0  0  0  0  0  0  0  0  0  0
   57.7750   30.5230   44.5790 C   0  0  0  0  0  0  0  0  0  0  0  0
   59.0840   30.0150   44.5550 C   0  0  0  0  0  0  0  0  0  0  0  0
   59.3330   28.6760   44.8690 C   0  0  0  0  0  0  0  0  0  0  0  0
   58.2760   27.8230   45.2080 C   0  0  0  0  0  0  0  0  0  0  0  0
   56.9670   28.3220   45.2420 C   0  0  0  0  0  0  0  0  0  0  0  0
   56.7150   29.6630   44.9310 C   0  0  0  0  0  0  0  0  0  0  0  0
   55.8920   27.4630   45.6200 N   0  0  0  0  0  0  0  0  0  0  0  0
   56.1130   26.0790   45.8920 C   0  0  0  0  0  0  0  0  0  0  0  0
   55.1560   25.3640   46.2900 O   0  0  0  0  0  0  0  0  0  0  0  0
   57.4570   25.4510   45.6470 C   0  0  0  0  0  0  0  0  0  0  0  0
   58.5250   26.4500   45.5430 N   0  0  0  0  0  0  0  0  0  0  0  0
   59.1710   34.3071   47.3391 H   0  0  0  0  0  0  0  0  0  0  0  0
   60.7035   34.8458   46.5725 H   0  0  0  0  0  0  0  0  0  0  0  0
   59.2702   35.9286   46.5725 H   0  0  0  0  0  0  0  0  0  0  0  0
   59.5848   34.8746   44.3595 H   0  0  0  0  0  0  0  0  0  0  0  0
   59.4959   33.2375   45.1528 H   0  0  0  0  0  0  0  0  0  0  0  0
   57.1891   34.9431   45.7772 H   0  0  0  0  0  0  0  0  0  0  0  0
   57.4004   34.5956   43.9947 H   0  0  0  0  0  0  0  0  0  0  0  0
   57.1846   32.5260   46.2217 H   0  0  0  0  0  0  0  0  0  0  0  0
   55.9134   32.9614   45.0040 H   0  0  0  0  0  0  0  0  0  0  0  0
   57.8150   32.2300   43.2920 H   0  0  0  0  0  0  0  0  0  0  0  0
   59.9207   30.6767   44.2867 H   0  0  0  0  0  0  0  0  0  0  0  0
   60.3633   28.2910   44.8497 H   0  0  0  0  0  0  0  0  0  0  0  0
   55.6849   30.0478   44.9614 H   0  0  0  0  0  0  0  0  0  0  0  0
   57.6877   24.7715   46.4807 H   0  0  0  0  0  0  0  0  0  0  0  0
   57.4072   24.9095   44.6908 H   0  0  0  0  0  0  0  0  0  0  0  0
   59.5110   26.1030   45.5590 H   0  0  0  0  0  0  0  0  0  0  0  0
  1  2  1  0
  2  3  1  0
  3  4  1  0
  4  5  1  0
  5  6  1  0
  6  7  2  0
  7  8  1  0
  8  9  2  0
  9 10  1  0
 10 11  2  0
 10 12  1  0
 12 13  1  0
 13 14  2  0
 13 15  1  0
 15 16  1  0
 11  6  1  0
 16  9  1  0
  1 17  1  0
  1 18  1  0
  1 19  1  0
  2 20  1  0
  2 21  1  0
  3 22  1  0
  3 23  1  0
  4 24  1  0
  4 25  1  0
  5 26  1  0
  7 27  1  0
  8 28  1  0
 11 29  1  0
 15 30  1  0
 15 31  1  0
 16 32  1  0
M  CHG  1  12  -1
M  END
>  <UniqueID>  (57) 
51

>  <SMILES>  (57) 
CCCCNc1ccc2c(c1)[N-]C(=O)CN2

>  <Energy>  (57) 
26.020540333204554

>  <Genealogy>  (57) 
CCCCNc1ccc2c(c1)[N-]C(=O)CN2 (protonated)
CCCCNc1ccc2c(c1)[N-]C(=O)CN2 (3D coordinates assigned)
CCCCNc1ccc2c(c1)[N-]C(=O)CN2 (nonaromatic ring conformer: 26.020540333204554 kcal/mol)

>  <smiles>  (57) 
CCCCNc1ccc2c(c1)NC(=O)CN2

>  <score_type>  (57) 
oracle

>  <origin>  (57) 
adg

>  <m_score__min__energy>  (57) 
-8.0800000000000001

>  <m_primary>  (57) 
energy

$$$$
57:0
     RDKit          3D

 47 50  0  0  0  0  0  0  0  0999 V2000
   53.6850   24.5090   46.0330 O   0  0  0  0  0  0  0  0  0  0  0  0
   54.7840   24.9470   45.6030 C   0  0  0  0  0  0  0  0  0  0  0  0
   55.1430   26.3040   45.8830 N   0  0  0  0  0  0  0  0  0  0  0  0
   56.4520   26.7270   46.3680 C   0  0  0  0  0  0  0  0  0  0  0  0
   57.4380   26.7560   45.2030 C   0  0  0  0  0  0  0  0  0  0  0  0
   57.5420   28.0980   44.6350 N   0  0  0  0  0  0  0  0  0  0  0  0
   57.0270   29.3030   45.2220 C   0  0  0  0  0  0  0  0  0  0  0  0
   55.8210   29.6060   45.0250 O   0  0  0  0  0  0  0  0  0  0  0  0
   57.8690   30.2020   46.0420 C   0  0  0  0  0  0  0  0  0  0  0  0
   58.5800   29.6600   47.1210 C   0  0  0  0  0  0  0  0  0  0  0  0
   59.3670   30.4870   47.9240 C   0  0  0  0  0  0  0  0  0  0  0  0
   60.1720   29.8250   49.3780 S   0  0  0  0  0  0  0  0  0  0  0  0
   61.2220   31.2710   49.5370 C   0  0  0  0  0  0  0  0  0  0  0  0
   61.1980   32.0290   50.7130 C   0  0  0  0  0  0  0  0  0  0  0  0
   61.9810   33.1820   50.8200 C   0  0  0  0  0  0  0  0  0  0  0  0
   62.7950   33.5770   49.7520 C   0  0  0  0  0  0  0  0  0  0  0  0
   62.8280   32.8170   48.5780 C   0  0  0  0  0  0  0  0  0  0  0  0
   63.8280   33.3260   47.2320 Cl  0  0  0  0  0  0  0  0  0  0  0  0
   62.0420   31.6630   48.4710 C   0  0  0  0  0  0  0  0  0  0  0  0
   59.4820   31.8080   47.6370 N   0  0  0  0  0  0  0  0  0  0  0  0
   58.8310   32.3730   46.5860 C   0  0  0  0  0  0  0  0  0  0  0  0
   58.9720   33.7440   46.3430 C   0  0  0  0  0  0  0  0  0  0  0  0
   58.2710   34.3460   45.2960 C   0  0  0  0  0  0  0  0  0  0  0  0
   57.4250   33.5840   44.4890 C   0  0  0  0  0  0  0  0  0  0  0  0
   57.2800   32.2120   44.7180 C   0  0  0  0  0  0  0  0  0  0  0  0
   57.9890   31.5840   45.7620 C   0  0  0  0  0  0  0  0  0  0  0  0
   55.6320   24.0630   44.7880 C   0  0  0  0  0  0  0  0  0  0  0  0
   56.9170   23.6490   45.0830 C   0  0  0  0  0  0  0  0  0  0  0  0
   57.3200   22.8840   44.0120 C   0  0  0  0  0  0  0  0  0  0  0  0
   56.2610   22.8780   43.1280 C   0  0  0  0  0  0  0  0  0  0  0  0
   55.2720   23.5910   43.6150 O   0  0  0  0  0  0  0  0  0  0  0  0
   56.3734   27.7322   46.8077 H   0  0  0  0  0  0  0  0  0  0  0  0
   56.8069   26.0205   47.1328 H   0  0  0  0  0  0  0  0  0  0  0  0
   58.4285   26.4404   45.5627 H   0  0  0  0  0  0  0  0  0  0  0  0
   57.0749   26.0729   44.4210 H   0  0  0  0  0  0  0  0  0  0  0  0
   58.5179   28.5828   47.3352 H   0  0  0  0  0  0  0  0  0  0  0  0
   60.5620   31.7170   51.5545 H   0  0  0  0  0  0  0  0  0  0  0  0
   61.9575   33.7790   51.7436 H   0  0  0  0  0  0  0  0  0  0  0  0
   63.4092   34.4857   49.8359 H   0  0  0  0  0  0  0  0  0  0  0  0
   62.0685   31.0637   47.5490 H   0  0  0  0  0  0  0  0  0  0  0  0
   59.6363   34.3486   46.9780 H   0  0  0  0  0  0  0  0  0  0  0  0
   58.3859   35.4235   45.1069 H   0  0  0  0  0  0  0  0  0  0  0  0
   56.8701   34.0644   43.6697 H   0  0  0  0  0  0  0  0  0  0  0  0
   56.6085   31.6192   44.0795 H   0  0  0  0  0  0  0  0  0  0  0  0
   57.4981   23.8826   45.9873 H   0  0  0  0  0  0  0  0  0  0  0  0
   58.2896   22.3798   43.8865 H   0  0  0  0  0  0  0  0  0  0  0  0
   56.2473   22.3546   42.1606 H   0  0  0  0  0  0  0  0  0  0  0  0
  1  2  2  0
  2  3  1  0
  3  4  1  0
  4  5  1  0
  5  6  1  0
  6  7  1  0
  7  8  2  0
  7  9  1  0
  9 10  2  0
 10 11  1  0
 11 12  1  0
 12 13  1  0
 13 14  2  0
 14 15  1  0
 15 16  2  0
 16 17  1  0
 17 18  1  0
 17 19  2  0
 11 20  2  0
 20 21  1  0
 21 22  2  0
 22 23  1  0
 23 24  2  0
 24 25  1  0
 25 26  2  0
  2 27  1  0
 27 28  2  0
 28 29  1  0
 29 30  2  0
 30 31  1  0
 26  9  1  0
 31 27  1  0
 19 13  1  0
 26 21  1  0
  4 32  1  0
  4 33  1  0
  5 34  1  0
  5 35  1  0
 10 36  1  0
 14 37  1  0
 15 38  1  0
 16 39  1  0
 19 40  1  0
 22 41  1  0
 23 42  1  0
 24 43  1  0
 25 44  1  0
 28 45  1  0
 29 46  1  0
 30 47  1  0
M  CHG  2   3  -1   6  -1
M  END
>  <UniqueID>  (58) 
52

>  <SMILES>  (58) 
O=C([N-]CC[N-]C(=O)c1cc(Sc2cccc(Cl)c2)nc2ccccc12)c1ccco1

>  <Energy>  (58) 
74.87594507751403

>  <Genealogy>  (58) 
O=C([N-]CC[N-]C(=O)c1cc(Sc2cccc(Cl)c2)nc2ccccc12)c1ccco1 (protonated)
O=C([N-]CC[N-]C(=O)c1cc(Sc2cccc(Cl)c2)nc2ccccc12)c1ccco1 (3D coordinates assigned)
O=C([N-]CC[N-]C(=O)c1cc(Sc2cccc(Cl)c2)nc2ccccc12)c1ccco1 (optimized conformer: 74.87594507751403 kcal/mol)

>  <smiles>  (58) 
O=C(NCCNC(=O)c1cc(Sc2cccc(Cl)c2)nc2ccccc12)c1ccco1

>  <score_type>  (58) 
oracle

>  <origin>  (58) 
adg

>  <m_score__min__energy>  (58) 
-12.539999999999999

>  <m_primary>  (58) 
energy

$$$$
58:0
     RDKit          3D

 33 34  0  0  0  0  0  0  0  0999 V2000
   62.1080   33.5180   46.9770 N   0  0  0  0  0  0  0  0  0  0  0  0
   60.3850   33.4350   46.8610 S   0  0  0  0  0  0  0  0  0  0  0  0
   59.9380   34.0940   45.5860 O   0  0  0  0  0  0  0  0  0  0  0  0
   59.7650   34.1620   48.0210 O   0  0  0  0  0  0  0  0  0  0  0  0
   59.8780   31.7500   46.8790 C   0  0  0  0  0  0  0  0  0  0  0  0
   58.8150   31.3510   47.6970 C   0  0  0  0  0  0  0  0  0  0  0  0
   58.4440   30.0060   47.7600 C   0  0  0  0  0  0  0  0  0  0  0  0
   59.1440   29.0390   47.0200 C   0  0  0  0  0  0  0  0  0  0  0  0
   58.8140   27.6460   47.1500 N   0  0  0  0  0  0  0  0  0  0  0  0
   58.6760   26.7600   46.0270 C   0  0  0  0  0  0  0  0  0  0  0  0
   58.9760   25.1640   46.2290 S   0  0  0  0  0  0  0  0  0  0  0  0
   58.2770   27.2370   44.7300 N   0  0  0  0  0  0  0  0  0  0  0  0
   57.5050   28.4310   44.5240 C   0  0  0  0  0  0  0  0  0  0  0  0
   58.0840   29.5120   43.8440 C   0  0  0  0  0  0  0  0  0  0  0  0
   57.3810   30.7140   43.6970 C   0  0  0  0  0  0  0  0  0  0  0  0
   58.1320   32.0750   42.8860 Cl  0  0  0  0  0  0  0  0  0  0  0  0
   56.0870   30.8320   44.2090 C   0  0  0  0  0  0  0  0  0  0  0  0
   55.4870   29.7470   44.8540 C   0  0  0  0  0  0  0  0  0  0  0  0
   56.1850   28.5450   45.0040 C   0  0  0  0  0  0  0  0  0  0  0  0
   55.5600   27.4680   45.6240 O   0  0  0  0  0  0  0  0  0  0  0  0
   60.1910   29.4460   46.1710 C   0  0  0  0  0  0  0  0  0  0  0  0
   61.1070   28.2780   45.2300 Cl  0  0  0  0  0  0  0  0  0  0  0  0
   60.5580   30.7950   46.1130 C   0  0  0  0  0  0  0  0  0  0  0  0
   62.3420   34.4650   47.3510 H   0  0  0  0  0  0  0  0  0  0  0  0
   62.4800   33.4800   46.0030 H   0  0  0  0  0  0  0  0  0  0  0  0
   58.2701   32.0987   48.2920 H   0  0  0  0  0  0  0  0  0  0  0  0
   57.5977   29.7019   48.3935 H   0  0  0  0  0  0  0  0  0  0  0  0
   58.6850   27.2520   48.1090 H   0  0  0  0  0  0  0  0  0  0  0  0
   58.6200   26.7220   43.8870 H   0  0  0  0  0  0  0  0  0  0  0  0
   59.0959   29.4152   43.4238 H   0  0  0  0  0  0  0  0  0  0  0  0
   55.5393   31.7802   44.1045 H   0  0  0  0  0  0  0  0  0  0  0  0
   54.4628   29.8390   45.2447 H   0  0  0  0  0  0  0  0  0  0  0  0
   61.3868   31.1077   45.4609 H   0  0  0  0  0  0  0  0  0  0  0  0
  1  2  1  0
  2  3  2  0
  2  4  2  0
  2  5  1  0
  5  6  2  0
  6  7  1  0
  7  8  2  0
  8  9  1  0
  9 10  1  0
 10 11  2  0
 10 12  1  0
 12 13  1  0
 13 14  2  0
 14 15  1  0
 15 16  1  0
 15 17  2  0
 17 18  1  0
 18 19  2  0
 19 20  1  0
  8 21  1  0
 21 22  1  0
 21 23  2  0
 23  5  1  0
 19 13  1  0
  1 24  1  0
  1 25  1  0
  6 26  1  0
  7 27  1  0
  9 28  1  0
 12 29  1  0
 14 30  1  0
 17 31  1  0
 18 32  1  0
 23 33  1  0
M  CHG  1  20  -1
M  END
>  <UniqueID>  (59) 
53

>  <SMILES>  (59) 
NS(=O)(=O)c1ccc(NC(=S)Nc2cc(Cl)ccc2[O-])c(Cl)c1

>  <Energy>  (59) 
39.093243988268

>  <Genealogy>  (59) 
NS(=O)(=O)c1ccc(NC(=S)Nc2cc(Cl)ccc2[O-])c(Cl)c1 (protonated)
NS(=O)(=O)c1ccc(NC(=S)Nc2cc(Cl)ccc2[O-])c(Cl)c1 (3D coordinates assigned)
NS(=O)(=O)c1ccc(NC(=S)Nc2cc(Cl)ccc2[O-])c(Cl)c1 (optimized conformer: 39.093243988268 kcal/mol)

>  <smiles>  (59) 
NS(=O)(=O)c1ccc(NC(=S)Nc2cc(Cl)ccc2O)c(Cl)c1

>  <score_type>  (59) 
oracle

>  <origin>  (59) 
adg

>  <m_score__min__energy>  (59) 
-8.9299999999999997

>  <m_primary>  (59) 
energy

$$$$
59:0
     RDKit          3D

 26 27  0  0  0  0  0  0  0  0999 V2000
   55.1630   29.1100   44.5160 O   0  0  0  0  0  0  0  0  0  0  0  0
   56.2440   28.9120   45.1330 C   0  0  0  0  0  0  0  0  0  0  0  0
   57.1590   29.9950   45.3420 N   0  0  0  0  0  0  0  0  0  0  0  0
   57.4740   30.9950   44.3280 C   0  0  0  0  0  0  0  0  0  0  0  0
   58.0580   32.2240   44.9710 C   0  0  0  0  0  0  0  0  0  0  0  0
   58.1160   33.4300   44.2550 C   0  0  0  0  0  0  0  0  0  0  0  0
   58.6370   34.5810   44.8550 C   0  0  0  0  0  0  0  0  0  0  0  0
   59.0970   34.5360   46.1730 C   0  0  0  0  0  0  0  0  0  0  0  0
   59.0380   33.3400   46.8960 C   0  0  0  0  0  0  0  0  0  0  0  0
   59.6610   33.2820   48.7010 Br  0  0  0  0  0  0  0  0  0  0  0  0
   58.5180   32.1860   46.2990 C   0  0  0  0  0  0  0  0  0  0  0  0
   56.5570   27.5640   45.6390 C   0  0  0  0  0  0  0  0  0  0  0  0
   57.8790   27.1240   45.7880 C   0  0  0  0  0  0  0  0  0  0  0  0
   58.1210   25.8390   46.2700 C   0  0  0  0  0  0  0  0  0  0  0  0
   57.0400   25.0200   46.5920 C   0  0  0  0  0  0  0  0  0  0  0  0
   57.2300   23.8550   47.0280 O   0  0  0  0  0  0  0  0  0  0  0  0
   55.7750   25.4880   46.4320 N   0  0  0  0  0  0  0  0  0  0  0  0
   55.5420   26.7190   45.9700 N   0  0  0  0  0  0  0  0  0  0  0  0
   58.2025   30.5755   43.6185 H   0  0  0  0  0  0  0  0  0  0  0  0
   56.5501   31.2722   43.7993 H   0  0  0  0  0  0  0  0  0  0  0  0
   57.7504   33.4700   43.2183 H   0  0  0  0  0  0  0  0  0  0  0  0
   58.6845   35.5226   44.2883 H   0  0  0  0  0  0  0  0  0  0  0  0
   59.5063   35.4424   46.6431 H   0  0  0  0  0  0  0  0  0  0  0  0
   58.4691   31.2471   46.8701 H   0  0  0  0  0  0  0  0  0  0  0  0
   58.7176   27.7864   45.5271 H   0  0  0  0  0  0  0  0  0  0  0  0
   59.1518   25.4757   46.3947 H   0  0  0  0  0  0  0  0  0  0  0  0
  1  2  2  0
  2  3  1  0
  3  4  1  0
  4  5  1  0
  5  6  2  0
  6  7  1  0
  7  8  2  0
  8  9  1  0
  9 10  1  0
  9 11  2  0
  2 12  1  0
 12 13  1  0
 13 14  2  0
 14 15  1  0
 15 16  2  0
 15 17  1  0
 17 18  1  0
 11  5  1  0
 18 12  2  0
  4 19  1  0
  4 20  1  0
  6 21  1  0
  7 22  1  0
  8 23  1  0
 11 24  1  0
 13 25  1  0
 14 26  1  0
M  CHG  2   3  -1  17  -1
M  END
>  <UniqueID>  (60) 
54

>  <SMILES>  (60) 
O=C([N-]Cc1cccc(Br)c1)c1ccc(=O)[n-]n1

>  <Energy>  (60) 
25.40869075610324

>  <Genealogy>  (60) 
O=C([N-]Cc1cccc(Br)c1)c1ccc(=O)[n-]n1 (protonated)
O=C([N-]Cc1cccc(Br)c1)c1ccc(=O)[n-]n1 (3D coordinates assigned)
O=C([N-]Cc1cccc(Br)c1)c1ccc(=O)[n-]n1 (optimized conformer: 25.40869075610324 kcal/mol)

>  <smiles>  (60) 
O=C(NCc1cccc(Br)c1)c1ccc(=O)[nH]n1

>  <score_type>  (60) 
oracle

>  <origin>  (60) 
adg

>  <m_score__min__energy>  (60) 
-11.6

>  <m_primary>  (60) 
energy

$$$$
60:0
     RDKit          3D

 60 63  0  0  0  0  0  0  0  0999 V2000
   51.2170   32.3320   51.3390 N   0  0  0  0  0  0  0  0  0  0  0  0
   51.8220   30.7140   51.4260 S   0  0  0  0  0  0  0  0  0  0  0  0
   50.9250   29.8900   52.3040 O   0  0  0  0  0  0  0  0  0  0  0  0
   51.8400   30.1120   50.0500 O   0  0  0  0  0  0  0  0  0  0  0  0
   53.4470   30.7260   52.0970 C   0  0  0  0  0  0  0  0  0  0  0  0
   53.6770   30.3210   53.4160 C   0  0  0  0  0  0  0  0  0  0  0  0
   54.9820   30.3260   53.9150 C   0  0  0  0  0  0  0  0  0  0  0  0
   56.0460   30.7030   53.0950 C   0  0  0  0  0  0  0  0  0  0  0  0
   57.3440   30.7120   53.6210 O   0  0  0  0  0  0  0  0  0  0  0  0
   58.3520   29.8010   53.2760 C   0  0  0  0  0  0  0  0  0  0  0  0
   58.6430   28.7510   54.1540 C   0  0  0  0  0  0  0  0  0  0  0  0
   59.6330   27.8160   53.8340 C   0  0  0  0  0  0  0  0  0  0  0  0
   60.3260   27.9070   52.6170 C   0  0  0  0  0  0  0  0  0  0  0  0
   61.3910   26.8910   52.2740 C   0  0  0  0  0  0  0  0  0  0  0  0
   62.6270   27.5230   51.7770 N   0  0  0  0  0  0  0  0  0  0  0  0
   63.3510   28.2620   52.8200 C   0  0  0  0  0  0  0  0  0  0  0  0
   63.4730   29.7200   52.4590 C   0  0  0  0  0  0  0  0  0  0  0  0
   64.0800   30.0970   51.2530 C   0  0  0  0  0  0  0  0  0  0  0  0
   64.1570   31.4440   50.8910 C   0  0  0  0  0  0  0  0  0  0  0  0
   63.6340   32.4400   51.7350 C   0  0  0  0  0  0  0  0  0  0  0  0
   63.6900   33.8660   51.3270 C   0  0  0  0  0  0  0  0  0  0  0  0
   64.6780   34.5700   51.6690 O   0  0  0  0  0  0  0  0  0  0  0  0
   62.6820   34.4600   50.5000 N   0  0  0  0  0  0  0  0  0  0  0  0
   62.4400   34.1600   49.1180 C   0  0  0  0  0  0  0  0  0  0  0  0
   63.4770   33.7700   48.2560 C   0  0  0  0  0  0  0  0  0  0  0  0
   63.2070   33.4910   46.9140 C   0  0  0  0  0  0  0  0  0  0  0  0
   61.9010   33.5810   46.4260 C   0  0  0  0  0  0  0  0  0  0  0  0
   60.8420   33.9230   47.2880 C   0  0  0  0  0  0  0  0  0  0  0  0
   59.4350   34.0610   46.7640 C   0  0  0  0  0  0  0  0  0  0  0  0
   58.5080   33.8120   47.7610 F   0  0  0  0  0  0  0  0  0  0  0  0
   59.2410   33.1600   45.7330 F   0  0  0  0  0  0  0  0  0  0  0  0
   59.2220   35.3430   46.2880 F   0  0  0  0  0  0  0  0  0  0  0  0
   61.1270   34.2240   48.6310 C   0  0  0  0  0  0  0  0  0  0  0  0
   63.0230   32.0570   52.9420 C   0  0  0  0  0  0  0  0  0  0  0  0
   62.9490   30.7090   53.3030 C   0  0  0  0  0  0  0  0  0  0  0  0
   60.0210   28.9480   51.7280 C   0  0  0  0  0  0  0  0  0  0  0  0
   59.0430   29.8910   52.0550 C   0  0  0  0  0  0  0  0  0  0  0  0
   55.7720   31.1070   51.7780 C   0  0  0  0  0  0  0  0  0  0  0  0
   54.4930   31.1070   51.3150 N   0  0  0  0  0  0  0  0  0  0  0  0
   50.2730   32.2830   50.8980 H   0  0  0  0  0  0  0  0  0  0  0  0
   52.8393   30.0020   54.0536 H   0  0  0  0  0  0  0  0  0  0  0  0
   55.1712   30.0317   54.9579 H   0  0  0  0  0  0  0  0  0  0  0  0
   58.0904   28.6604   55.1008 H   0  0  0  0  0  0  0  0  0  0  0  0
   59.8694   27.0058   54.5394 H   0  0  0  0  0  0  0  0  0  0  0  0
   61.6292   26.3095   53.1768 H   0  0  0  0  0  0  0  0  0  0  0  0
   60.9969   26.2469   51.4741 H   0  0  0  0  0  0  0  0  0  0  0  0
   63.2600   26.7850   51.3900 H   0  0  0  0  0  0  0  0  0  0  0  0
   62.8054   28.1707   53.7708 H   0  0  0  0  0  0  0  0  0  0  0  0
   64.3613   27.8375   52.9148 H   0  0  0  0  0  0  0  0  0  0  0  0
   64.4983   29.3274   50.5876 H   0  0  0  0  0  0  0  0  0  0  0  0
   64.6300   31.7276   49.9392 H   0  0  0  0  0  0  0  0  0  0  0  0
   64.5049   33.6838   48.6382 H   0  0  0  0  0  0  0  0  0  0  0  0
   64.0254   33.1995   46.2393 H   0  0  0  0  0  0  0  0  0  0  0  0
   61.6993   33.3836   45.3628 H   0  0  0  0  0  0  0  0  0  0  0  0
   60.3098   34.5133   49.3082 H   0  0  0  0  0  0  0  0  0  0  0  0
   62.6000   32.8242   53.6072 H   0  0  0  0  0  0  0  0  0  0  0  0
   62.4771   30.4225   54.2544 H   0  0  0  0  0  0  0  0  0  0  0  0
   60.5542   29.0225   50.7688 H   0  0  0  0  0  0  0  0  0  0  0  0
   58.8129   30.7070   51.3542 H   0  0  0  0  0  0  0  0  0  0  0  0
   56.5939   31.4242   51.1193 H   0  0  0  0  0  0  0  0  0  0  0  0
  1  2  1  0
  2  3  2  0
  2  4  2  0
  2  5  1  0
  5  6  2  0
  6  7  1  0
  7  8  2  0
  8  9  1  0
  9 10  1  0
 10 11  2  0
 11 12  1  0
 12 13  2  0
 13 14  1  0
 14 15  1  0
 15 16  1  0
 16 17  1  0
 17 18  2  0
 18 19  1  0
 19 20  2  0
 20 21  1  0
 21 22  2  0
 21 23  1  0
 23 24  1  0
 24 25  2  0
 25 26  1  0
 26 27  2  0
 27 28  1  0
 28 29  1  0
 29 30  1  0
 29 31  1  0
 29 32  1  0
 28 33  2  0
 20 34  1  0
 34 35  2  0
 13 36  1  0
 36 37  2  0
  8 38  1  0
 38 39  2  0
 39  5  1  0
 37 10  1  0
 35 17  1  0
 33 24  1  0
  1 40  1  0
  6 41  1  0
  7 42  1  0
 11 43  1  0
 12 44  1  0
 14 45  1  0
 14 46  1  0
 15 47  1  0
 16 48  1  0
 16 49  1  0
 18 50  1  0
 19 51  1  0
 25 52  1  0
 26 53  1  0
 27 54  1  0
 33 55  1  0
 34 56  1  0
 35 57  1  0
 36 58  1  0
 37 59  1  0
 38 60  1  0
M  CHG  2   1  -1  23  -1
M  END
>  <UniqueID>  (61) 
55

>  <SMILES>  (61) 
[NH-]S(=O)(=O)c1ccc(Oc2ccc(CNCc3ccc(C(=O)[N-]c4cccc(C(F)(F)F)c4)cc3)cc2)cn1

>  <Energy>  (61) 
78.81623953714882

>  <Genealogy>  (61) 
[NH-]S(=O)(=O)c1ccc(Oc2ccc(CNCc3ccc(C(=O)[N-]c4cccc(C(F)(F)F)c4)cc3)cc2)cn1 (protonated)
[NH-]S(=O)(=O)c1ccc(Oc2ccc(CNCc3ccc(C(=O)[N-]c4cccc(C(F)(F)F)c4)cc3)cc2)cn1 (3D coordinates assigned)
[NH-]S(=O)(=O)c1ccc(Oc2ccc(CNCc3ccc(C(=O)[N-]c4cccc(C(F)(F)F)c4)cc3)cc2)cn1 (optimized conformer: 78.81623953714882 kcal/mol)

>  <smiles>  (61) 
NS(=O)(=O)c1ccc(Oc2ccc(CNCc3ccc(C(=O)Nc4cccc(C(F)(F)F)c4)cc3)cc2)cn1

>  <score_type>  (61) 
oracle

>  <origin>  (61) 
adg

>  <m_score__min__energy>  (61) 
-12.5

>  <m_primary>  (61) 
energy

$$$$
61:0
     RDKit          3D

 42 44  0  0  0  0  0  0  0  0999 V2000
   58.3030   34.4040   44.6060 O   0  0  0  0  0  0  0  0  0  0  0  0
   59.1010   33.6230   45.1970 C   0  0  0  0  0  0  0  0  0  0  0  0
   60.3150   34.1810   45.8690 C   0  0  0  0  0  0  0  0  0  0  0  0
   59.9530   34.4540   47.6360 S   0  0  0  0  0  0  0  0  0  0  0  0
   60.1430   32.7300   48.0840 C   0  0  0  0  0  0  0  0  0  0  0  0
   61.4140   32.1790   48.2670 C   0  0  0  0  0  0  0  0  0  0  0  0
   61.5300   30.8320   48.6120 C   0  0  0  0  0  0  0  0  0  0  0  0
   60.3810   30.0420   48.7680 C   0  0  0  0  0  0  0  0  0  0  0  0
   60.4760   28.6130   49.1450 C   0  0  0  0  0  0  0  0  0  0  0  0
   61.2710   28.2690   50.0610 O   0  0  0  0  0  0  0  0  0  0  0  0
   59.7390   27.5920   48.4620 N   0  0  0  0  0  0  0  0  0  0  0  0
   59.3140   27.6220   47.0910 C   0  0  0  0  0  0  0  0  0  0  0  0
   58.1100   27.0240   46.6720 C   0  0  0  0  0  0  0  0  0  0  0  0
   57.7470   27.0460   45.3200 C   0  0  0  0  0  0  0  0  0  0  0  0
   58.5880   27.6500   44.3810 C   0  0  0  0  0  0  0  0  0  0  0  0
   58.2340   27.6720   43.0710 F   0  0  0  0  0  0  0  0  0  0  0  0
   59.7930   28.2290   44.7900 C   0  0  0  0  0  0  0  0  0  0  0  0
   60.1580   28.2080   46.1380 C   0  0  0  0  0  0  0  0  0  0  0  0
   59.1250   30.6440   48.5870 C   0  0  0  0  0  0  0  0  0  0  0  0
   59.0380   31.9580   48.2510 N   0  0  0  0  0  0  0  0  0  0  0  0
   58.8080   32.2200   45.3100 N   0  0  0  0  0  0  0  0  0  0  0  0
   57.8830   31.5050   44.4690 C   0  0  0  0  0  0  0  0  0  0  0  0
   57.9090   31.6250   43.0670 C   0  0  0  0  0  0  0  0  0  0  0  0
   57.0160   30.8910   42.2790 C   0  0  0  0  0  0  0  0  0  0  0  0
   56.1010   30.0210   42.8800 C   0  0  0  0  0  0  0  0  0  0  0  0
   56.0890   29.8720   44.2700 C   0  0  0  0  0  0  0  0  0  0  0  0
   55.2020   28.9820   44.8630 O   0  0  0  0  0  0  0  0  0  0  0  0
   56.9780   30.6070   45.0600 C   0  0  0  0  0  0  0  0  0  0  0  0
   61.1491   33.4707   45.7701 H   0  0  0  0  0  0  0  0  0  0  0  0
   60.5916   35.1355   45.3974 H   0  0  0  0  0  0  0  0  0  0  0  0
   62.3130   32.8002   48.1405 H   0  0  0  0  0  0  0  0  0  0  0  0
   62.5252   30.3881   48.7621 H   0  0  0  0  0  0  0  0  0  0  0  0
   57.4531   26.5384   47.4087 H   0  0  0  0  0  0  0  0  0  0  0  0
   56.8004   26.5882   44.9969 H   0  0  0  0  0  0  0  0  0  0  0  0
   60.4545   28.7017   44.0491 H   0  0  0  0  0  0  0  0  0  0  0  0
   61.1129   28.6538   46.4533 H   0  0  0  0  0  0  0  0  0  0  0  0
   58.2085   30.0499   48.7177 H   0  0  0  0  0  0  0  0  0  0  0  0
   59.2740   31.6970   46.0860 H   0  0  0  0  0  0  0  0  0  0  0  0
   58.6348   32.2990   42.5886 H   0  0  0  0  0  0  0  0  0  0  0  0
   57.0337   30.9985   41.1844 H   0  0  0  0  0  0  0  0  0  0  0  0
   55.3912   29.4543   42.2595 H   0  0  0  0  0  0  0  0  0  0  0  0
   56.9690   30.4814   46.1528 H   0  0  0  0  0  0  0  0  0  0  0  0
  1  2  2  0
  2  3  1  0
  3  4  1  0
  4  5  1  0
  5  6  2  0
  6  7  1  0
  7  8  2  0
  8  9  1  0
  9 10  2  0
  9 11  1  0
 11 12  1  0
 12 13  2  0
 13 14  1  0
 14 15  2  0
 15 16  1  0
 15 17  1  0
 17 18  2  0
  8 19  1  0
 19 20  2  0
  2 21  1  0
 21 22  1  0
 22 23  2  0
 23 24  1  0
 24 25  2  0
 25 26  1  0
 26 27  1  0
 26 28  2  0
 20  5  1  0
 28 22  1  0
 18 12  1  0
  3 29  1  0
  3 30  1  0
  6 31  1  0
  7 32  1  0
 13 33  1  0
 14 34  1  0
 17 35  1  0
 18 36  1  0
 19 37  1  0
 21 38  1  0
 23 39  1  0
 24 40  1  0
 25 41  1  0
 28 42  1  0
M  CHG  2  11  -1  27  -1
M  END
>  <UniqueID>  (62) 
56

>  <SMILES>  (62) 
O=C(CSc1ccc(C(=O)[N-]c2ccc(F)cc2)cn1)Nc1cccc([O-])c1

>  <Energy>  (62) 
51.43011247746563

>  <Genealogy>  (62) 
O=C(CSc1ccc(C(=O)[N-]c2ccc(F)cc2)cn1)Nc1cccc([O-])c1 (protonated)
O=C(CSc1ccc(C(=O)[N-]c2ccc(F)cc2)cn1)Nc1cccc([O-])c1 (3D coordinates assigned)
O=C(CSc1ccc(C(=O)[N-]c2ccc(F)cc2)cn1)Nc1cccc([O-])c1 (optimized conformer: 51.43011247746563 kcal/mol)

>  <smiles>  (62) 
O=C(CSc1ccc(C(=O)Nc2ccc(F)cc2)cn1)Nc1cccc(O)c1

>  <score_type>  (62) 
oracle

>  <origin>  (62) 
adg

>  <m_score__min__energy>  (62) 
-12.99

>  <m_primary>  (62) 
energy

$$$$
62:0
     RDKit          3D

 58 61  0  0  0  0  0  0  0  0999 V2000
   66.5620   32.6950   50.1470 C   0  0  0  0  0  0  0  0  0  0  0  0
   65.2070   32.8420   50.5600 O   0  0  0  0  0  0  0  0  0  0  0  0
   64.1340   33.0750   49.6870 C   0  0  0  0  0  0  0  0  0  0  0  0
   63.0890   33.9020   50.1180 C   0  0  0  0  0  0  0  0  0  0  0  0
   61.9970   34.1630   49.2840 C   0  0  0  0  0  0  0  0  0  0  0  0
   61.9350   33.6000   47.9970 C   0  0  0  0  0  0  0  0  0  0  0  0
   60.7950   33.8830   47.1030 C   0  0  0  0  0  0  0  0  0  0  0  0
   59.5530   33.3710   47.2630 N   0  0  0  0  0  0  0  0  0  0  0  0
   58.8330   33.8810   46.2780 N   0  0  0  0  0  0  0  0  0  0  0  0
   57.4330   33.5620   46.0220 C   0  0  0  0  0  0  0  0  0  0  0  0
   57.3070   32.1470   45.5460 C   0  0  0  0  0  0  0  0  0  0  0  0
   56.3520   31.8390   44.7840 O   0  0  0  0  0  0  0  0  0  0  0  0
   58.3190   31.1800   45.8850 N   0  0  0  0  0  0  0  0  0  0  0  0
   58.2920   29.7880   45.5110 C   0  0  0  0  0  0  0  0  0  0  0  0
   59.1970   29.3250   44.5430 C   0  0  0  0  0  0  0  0  0  0  0  0
   59.1990   27.9840   44.1590 C   0  0  0  0  0  0  0  0  0  0  0  0
   58.3050   27.0860   44.7400 C   0  0  0  0  0  0  0  0  0  0  0  0
   57.4040   27.5200   45.7200 C   0  0  0  0  0  0  0  0  0  0  0  0
   56.4010   26.5850   46.2790 C   0  0  0  0  0  0  0  0  0  0  0  0
   55.1770   26.7220   45.9890 O   0  0  0  0  0  0  0  0  0  0  0  0
   56.8190   25.5070   47.1220 N   0  0  0  0  0  0  0  0  0  0  0  0
   57.9870   24.6660   46.8700 C   0  0  0  0  0  0  0  0  0  0  0  0
   57.7320   23.7060   45.7410 C   0  0  0  0  0  0  0  0  0  0  0  0
   58.7650   22.8860   45.2620 C   0  0  0  0  0  0  0  0  0  0  0  0
   58.5280   21.9770   44.2320 C   0  0  0  0  0  0  0  0  0  0  0  0
   57.2530   21.8680   43.6640 C   0  0  0  0  0  0  0  0  0  0  0  0
   56.9830   20.8280   42.6250 C   0  0  0  0  0  0  0  0  0  0  0  0
   56.2170   22.6800   44.1510 C   0  0  0  0  0  0  0  0  0  0  0  0
   56.4570   23.5990   45.1770 C   0  0  0  0  0  0  0  0  0  0  0  0
   57.4180   28.8700   46.1160 C   0  0  0  0  0  0  0  0  0  0  0  0
   59.6500   34.6620   45.5550 C   0  0  0  0  0  0  0  0  0  0  0  0
   59.3020   35.2960   44.5250 O   0  0  0  0  0  0  0  0  0  0  0  0
   60.8590   34.6750   46.0530 O   0  0  0  0  0  0  0  0  0  0  0  0
   62.9830   32.7730   47.5630 C   0  0  0  0  0  0  0  0  0  0  0  0
   64.0720   32.5090   48.3990 C   0  0  0  0  0  0  0  0  0  0  0  0
   67.2099   32.6247   51.0332 H   0  0  0  0  0  0  0  0  0  0  0  0
   66.6645   31.7805   49.5444 H   0  0  0  0  0  0  0  0  0  0  0  0
   66.8582   33.5663   49.5444 H   0  0  0  0  0  0  0  0  0  0  0  0
   63.1275   34.3504   51.1217 H   0  0  0  0  0  0  0  0  0  0  0  0
   61.1822   34.8123   49.6368 H   0  0  0  0  0  0  0  0  0  0  0  0
   56.8557   33.6866   46.9500 H   0  0  0  0  0  0  0  0  0  0  0  0
   57.0451   34.2390   45.2466 H   0  0  0  0  0  0  0  0  0  0  0  0
   59.1980   31.5470   46.3190 H   0  0  0  0  0  0  0  0  0  0  0  0
   59.9102   30.0252   44.0836 H   0  0  0  0  0  0  0  0  0  0  0  0
   59.9086   27.6338   43.3949 H   0  0  0  0  0  0  0  0  0  0  0  0
   58.3074   26.0314   44.4271 H   0  0  0  0  0  0  0  0  0  0  0  0
   58.8417   25.3076   46.6094 H   0  0  0  0  0  0  0  0  0  0  0  0
   58.2011   24.0854   47.7794 H   0  0  0  0  0  0  0  0  0  0  0  0
   59.7700   22.9611   45.7028 H   0  0  0  0  0  0  0  0  0  0  0  0
   59.3471   21.3420   43.8635 H   0  0  0  0  0  0  0  0  0  0  0  0
   56.7356   19.8751   43.1157 H   0  0  0  0  0  0  0  0  0  0  0  0
   56.1380   21.1475   41.9973 H   0  0  0  0  0  0  0  0  0  0  0  0
   57.8767   20.6961   41.9973 H   0  0  0  0  0  0  0  0  0  0  0  0
   55.2079   22.5927   43.7220 H   0  0  0  0  0  0  0  0  0  0  0  0
   55.6405   24.2397   45.5415 H   0  0  0  0  0  0  0  0  0  0  0  0
   56.7361   29.2107   46.9091 H   0  0  0  0  0  0  0  0  0  0  0  0
   62.9471   32.3292   46.5572 H   0  0  0  0  0  0  0  0  0  0  0  0
   64.8847   31.8557   48.0488 H   0  0  0  0  0  0  0  0  0  0  0  0
  1  2  1  0
  2  3  1  0
  3  4  2  0
  4  5  1  0
  5  6  2  0
  6  7  1  0
  7  8  2  0
  8  9  1  0
  9 10  1  0
 10 11  1  0
 11 12  2  0
 11 13  1  0
 13 14  1  0
 14 15  2  0
 15 16  1  0
 16 17  2  0
 17 18  1  0
 18 19  1  0
 19 20  2  0
 19 21  1  0
 21 22  1  0
 22 23  1  0
 23 24  2  0
 24 25  1  0
 25 26  2  0
 26 27  1  0
 26 28  1  0
 28 29  2  0
 18 30  2  0
  9 31  1  0
 31 32  2  0
 31 33  1  0
  6 34  1  0
 34 35  2  0
 35  3  1  0
 33  7  1  0
 30 14  1  0
 29 23  1  0
  1 36  1  0
  1 37  1  0
  1 38  1  0
  4 39  1  0
  5 40  1  0
 10 41  1  0
 10 42  1  0
 13 43  1  0
 15 44  1  0
 16 45  1  0
 17 46  1  0
 22 47  1  0
 22 48  1  0
 24 49  1  0
 25 50  1  0
 27 51  1  0
 27 52  1  0
 27 53  1  0
 28 54  1  0
 29 55  1  0
 30 56  1  0
 34 57  1  0
 35 58  1  0
M  CHG  1  21  -1
M  END
>  <UniqueID>  (63) 
57

>  <SMILES>  (63) 
COc1ccc(-c2nn(CC(=O)Nc3cccc(C(=O)[N-]Cc4ccc(C)cc4)c3)c(=O)o2)cc1

>  <Energy>  (63) 
100.54081290405117

>  <Genealogy>  (63) 
COc1ccc(-c2nn(CC(=O)Nc3cccc(C(=O)[N-]Cc4ccc(C)cc4)c3)c(=O)o2)cc1 (protonated)
COc1ccc(-c2nn(CC(=O)Nc3cccc(C(=O)[N-]Cc4ccc(C)cc4)c3)c(=O)o2)cc1 (3D coordinates assigned)
COc1ccc(-c2nn(CC(=O)Nc3cccc(C(=O)[N-]Cc4ccc(C)cc4)c3)c(=O)o2)cc1 (optimized conformer: 100.54081290405117 kcal/mol)

>  <smiles>  (63) 
COc1ccc(-c2nn(CC(=O)Nc3cccc(C(=O)NCc4ccc(C)cc4)c3)c(=O)o2)cc1

>  <score_type>  (63) 
oracle

>  <origin>  (63) 
adg

>  <m_score__min__energy>  (63) 
-11.56

>  <m_primary>  (63) 
energy

$$$$
63:0
     RDKit          3D

 40 41  0  0  0  0  0  0  0  0999 V2000
   58.2590   28.3580   48.5710 N   0  0  0  0  0  0  0  0  0  0  0  0
   58.0370   27.8130   46.9460 S   0  0  0  0  0  0  0  0  0  0  0  0
   59.3340   27.2690   46.4150 O   0  0  0  0  0  0  0  0  0  0  0  0
   57.0090   26.7170   46.9350 O   0  0  0  0  0  0  0  0  0  0  0  0
   57.5110   29.1630   45.9390 C   0  0  0  0  0  0  0  0  0  0  0  0
   58.2840   30.3310   45.8630 C   0  0  0  0  0  0  0  0  0  0  0  0
   57.8820   31.4040   45.0530 C   0  0  0  0  0  0  0  0  0  0  0  0
   58.6800   32.6000   45.0150 N   0  0  0  0  0  0  0  0  0  0  0  0
   58.2320   33.8850   45.4780 C   0  0  0  0  0  0  0  0  0  0  0  0
   56.6740   34.3500   45.2440 S   0  0  0  0  0  0  0  0  0  0  0  0
   59.1700   34.8430   45.9890 N   0  0  0  0  0  0  0  0  0  0  0  0
   60.5640   34.4970   46.2610 C   0  0  0  0  0  0  0  0  0  0  0  0
   60.6460   33.2860   47.1520 C   0  0  0  0  0  0  0  0  0  0  0  0
   59.9390   33.2490   48.3640 C   0  0  0  0  0  0  0  0  0  0  0  0
   59.9860   32.1090   49.1720 C   0  0  0  0  0  0  0  0  0  0  0  0
   60.7260   30.9890   48.7710 C   0  0  0  0  0  0  0  0  0  0  0  0
   60.7890   29.5620   49.7980 S   0  0  0  0  0  0  0  0  0  0  0  0
   60.7710   28.1410   48.8130 N   0  0  0  0  0  0  0  0  0  0  0  0
   59.6030   29.5430   50.7220 O   0  0  0  0  0  0  0  0  0  0  0  0
   62.0450   29.5900   50.6260 O   0  0  0  0  0  0  0  0  0  0  0  0
   61.4260   31.0210   47.5570 C   0  0  0  0  0  0  0  0  0  0  0  0
   61.3800   32.1610   46.7480 C   0  0  0  0  0  0  0  0  0  0  0  0
   56.6730   31.3120   44.3430 C   0  0  0  0  0  0  0  0  0  0  0  0
   55.9010   30.1510   44.4160 C   0  0  0  0  0  0  0  0  0  0  0  0
   56.3150   29.0770   45.2080 C   0  0  0  0  0  0  0  0  0  0  0  0
   55.5300   27.9300   45.2660 O   0  0  0  0  0  0  0  0  0  0  0  0
   59.0370   29.0560   48.5540 H   0  0  0  0  0  0  0  0  0  0  0  0
   59.2148   30.4066   46.4443 H   0  0  0  0  0  0  0  0  0  0  0  0
   59.6300   32.5370   44.5840 H   0  0  0  0  0  0  0  0  0  0  0  0
   58.8260   35.8040   46.2180 H   0  0  0  0  0  0  0  0  0  0  0  0
   61.0750   34.2819   45.3109 H   0  0  0  0  0  0  0  0  0  0  0  0
   61.0467   35.3445   46.7697 H   0  0  0  0  0  0  0  0  0  0  0  0
   59.3458   34.1201   48.6792 H   0  0  0  0  0  0  0  0  0  0  0  0
   59.4397   32.0914   50.1266 H   0  0  0  0  0  0  0  0  0  0  0  0
   60.4310   28.4290   47.8680 H   0  0  0  0  0  0  0  0  0  0  0  0
   60.0460   27.5030   49.2130 H   0  0  0  0  0  0  0  0  0  0  0  0
   62.0133   30.1468   47.2396 H   0  0  0  0  0  0  0  0  0  0  0  0
   61.9218   32.1754   45.7908 H   0  0  0  0  0  0  0  0  0  0  0  0
   56.3335   32.1579   43.7273 H   0  0  0  0  0  0  0  0  0  0  0  0
   54.9621   30.0815   43.8471 H   0  0  0  0  0  0  0  0  0  0  0  0
  1  2  1  0
  2  3  2  0
  2  4  2  0
  2  5  1  0
  5  6  2  0
  6  7  1  0
  7  8  1  0
  8  9  1  0
  9 10  2  0
  9 11  1  0
 11 12  1  0
 12 13  1  0
 13 14  2  0
 14 15  1  0
 15 16  2  0
 16 17  1  0
 17 18  1  0
 17 19  2  0
 17 20  2  0
 16 21  1  0
 21 22  2  0
  7 23  2  0
 23 24  1  0
 24 25  2  0
 25 26  1  0
 25  5  1  0
 22 13  1  0
  1 27  1  0
  6 28  1  0
  8 29  1  0
 11 30  1  0
 12 31  1  0
 12 32  1  0
 14 33  1  0
 15 34  1  0
 18 35  1  0
 18 36  1  0
 21 37  1  0
 22 38  1  0
 23 39  1  0
 24 40  1  0
M  CHG  2   1  -1  26  -1
M  END
>  <UniqueID>  (64) 
58

>  <SMILES>  (64) 
[NH-]S(=O)(=O)c1cc(NC(=S)NCc2ccc(S(N)(=O)=O)cc2)ccc1[O-]

>  <Energy>  (64) 
42.70801565886499

>  <Genealogy>  (64) 
[NH-]S(=O)(=O)c1cc(NC(=S)NCc2ccc(S(N)(=O)=O)cc2)ccc1[O-] (protonated)
[NH-]S(=O)(=O)c1cc(NC(=S)NCc2ccc(S(N)(=O)=O)cc2)ccc1[O-] (3D coordinates assigned)
[NH-]S(=O)(=O)c1cc(NC(=S)NCc2ccc(S(N)(=O)=O)cc2)ccc1[O-] (optimized conformer: 42.70801565886499 kcal/mol)

>  <smiles>  (64) 
NS(=O)(=O)c1ccc(CNC(=S)Nc2ccc(O)c(S(N)(=O)=O)c2)cc1

>  <score_type>  (64) 
oracle

>  <origin>  (64) 
adg

>  <m_score__min__energy>  (64) 
-13.609999999999999

>  <m_primary>  (64) 
energy

$$$$
64:0
     RDKit          3D

 55 57  0  0  0  0  0  0  0  0999 V2000
   66.9460   32.8240   50.5080 C   0  0  0  0  0  0  0  0  0  0  0  0
   65.8560   33.0850   49.6280 O   0  0  0  0  0  0  0  0  0  0  0  0
   64.6260   32.4070   49.6600 C   0  0  0  0  0  0  0  0  0  0  0  0
   64.2690   31.5510   50.7200 C   0  0  0  0  0  0  0  0  0  0  0  0
   63.0570   30.8600   50.6960 C   0  0  0  0  0  0  0  0  0  0  0  0
   62.1810   31.0180   49.6160 C   0  0  0  0  0  0  0  0  0  0  0  0
   60.6830   30.1010   49.5290 S   0  0  0  0  0  0  0  0  0  0  0  0
   60.5420   29.2680   50.7740 O   0  0  0  0  0  0  0  0  0  0  0  0
   60.6640   29.2110   48.3180 O   0  0  0  0  0  0  0  0  0  0  0  0
   59.3870   31.2400   49.4230 N   0  0  0  0  0  0  0  0  0  0  0  0
   59.0750   31.9530   48.2260 C   0  0  0  0  0  0  0  0  0  0  0  0
   59.4570   33.2870   48.0550 C   0  0  0  0  0  0  0  0  0  0  0  0
   59.1200   33.9640   46.8780 C   0  0  0  0  0  0  0  0  0  0  0  0
   58.4250   33.3050   45.8450 C   0  0  0  0  0  0  0  0  0  0  0  0
   58.0970   34.0580   44.5820 C   0  0  0  0  0  0  0  0  0  0  0  0
   58.0580   31.9470   46.0160 C   0  0  0  0  0  0  0  0  0  0  0  0
   57.4070   31.1590   44.9530 C   0  0  0  0  0  0  0  0  0  0  0  0
   56.2750   31.4870   44.5070 O   0  0  0  0  0  0  0  0  0  0  0  0
   58.0790   30.0160   44.4190 N   0  0  0  0  0  0  0  0  0  0  0  0
   58.1700   28.7360   45.0630 C   0  0  0  0  0  0  0  0  0  0  0  0
   57.0170   27.9830   45.3510 C   0  0  0  0  0  0  0  0  0  0  0  0
   57.1120   26.7580   46.0330 C   0  0  0  0  0  0  0  0  0  0  0  0
   55.8970   25.9660   46.3410 C   0  0  0  0  0  0  0  0  0  0  0  0
   54.7680   26.3400   45.9280 O   0  0  0  0  0  0  0  0  0  0  0  0
   55.9890   24.7990   47.0900 O   0  0  0  0  0  0  0  0  0  0  0  0
   58.3760   26.2920   46.4280 C   0  0  0  0  0  0  0  0  0  0  0  0
   59.5240   27.0340   46.1480 C   0  0  0  0  0  0  0  0  0  0  0  0
   59.4340   28.2530   45.4610 C   0  0  0  0  0  0  0  0  0  0  0  0
   60.6750   29.0660   45.2250 C   0  0  0  0  0  0  0  0  0  0  0  0
   58.3750   31.2950   47.2160 C   0  0  0  0  0  0  0  0  0  0  0  0
   62.5150   31.8910   48.5740 C   0  0  0  0  0  0  0  0  0  0  0  0
   63.7410   32.5840   48.5830 C   0  0  0  0  0  0  0  0  0  0  0  0
   64.1200   33.4430   47.5390 O   0  0  0  0  0  0  0  0  0  0  0  0
   63.2690   33.8330   46.4640 C   0  0  0  0  0  0  0  0  0  0  0  0
   66.6036   32.9060   51.5501 H   0  0  0  0  0  0  0  0  0  0  0  0
   67.3287   31.8088   50.3266 H   0  0  0  0  0  0  0  0  0  0  0  0
   67.7470   33.5557   50.3266 H   0  0  0  0  0  0  0  0  0  0  0  0
   64.9512   31.4262   51.5738 H   0  0  0  0  0  0  0  0  0  0  0  0
   62.7898   30.1904   51.5268 H   0  0  0  0  0  0  0  0  0  0  0  0
   60.0218   33.8036   48.8450 H   0  0  0  0  0  0  0  0  0  0  0  0
   59.4004   35.0209   46.7581 H   0  0  0  0  0  0  0  0  0  0  0  0
   57.6700   35.0383   44.8400 H   0  0  0  0  0  0  0  0  0  0  0  0
   59.0142   34.2014   43.9919 H   0  0  0  0  0  0  0  0  0  0  0  0
   57.3674   33.4840   43.9919 H   0  0  0  0  0  0  0  0  0  0  0  0
   56.0307   28.3571   45.0390 H   0  0  0  0  0  0  0  0  0  0  0  0
   58.4620   25.3344   46.9624 H   0  0  0  0  0  0  0  0  0  0  0  0
   60.5074   26.6597   46.4687 H   0  0  0  0  0  0  0  0  0  0  0  0
   61.1142   29.3537   46.1916 H   0  0  0  0  0  0  0  0  0  0  0  0
   61.4019   28.4685   44.6553 H   0  0  0  0  0  0  0  0  0  0  0  0
   60.4176   29.9711   44.6553 H   0  0  0  0  0  0  0  0  0  0  0  0
   58.0669   30.2492   47.3626 H   0  0  0  0  0  0  0  0  0  0  0  0
   61.8129   32.0372   47.7399 H   0  0  0  0  0  0  0  0  0  0  0  0
   62.3391   34.2592   46.8686 H   0  0  0  0  0  0  0  0  0  0  0  0
   63.7798   34.5869   45.8469 H   0  0  0  0  0  0  0  0  0  0  0  0
   63.0314   32.9539   45.8469 H   0  0  0  0  0  0  0  0  0  0  0  0
  1  2  1  0
  2  3  1  0
  3  4  2  0
  4  5  1  0
  5  6  2  0
  6  7  1  0
  7  8  2  0
  7  9  2  0
  7 10  1  0
 10 11  1  0
 11 12  2  0
 12 13  1  0
 13 14  2  0
 14 15  1  0
 14 16  1  0
 16 17  1  0
 17 18  2  0
 17 19  1  0
 19 20  1  0
 20 21  2  0
 21 22  1  0
 22 23  1  0
 23 24  2  0
 23 25  1  0
 22 26  2  0
 26 27  1  0
 27 28  2  0
 28 29  1  0
 16 30  2  0
  6 31  1  0
 31 32  2  0
 32 33  1  0
 33 34  1  0
 32  3  1  0
 30 11  1  0
 28 20  1  0
  1 35  1  0
  1 36  1  0
  1 37  1  0
  4 38  1  0
  5 39  1  0
 12 40  1  0
 13 41  1  0
 15 42  1  0
 15 43  1  0
 15 44  1  0
 21 45  1  0
 26 46  1  0
 27 47  1  0
 29 48  1  0
 29 49  1  0
 29 50  1  0
 30 51  1  0
 31 52  1  0
 34 53  1  0
 34 54  1  0
 34 55  1  0
M  CHG  3  10  -1  19  -1  25  -1
M  END
>  <UniqueID>  (65) 
59

>  <SMILES>  (65) 
COc1ccc(S(=O)(=O)[N-]c2ccc(C)c(C(=O)[N-]c3cc(C(=O)[O-])ccc3C)c2)cc1OC

>  <Energy>  (65) 
76.71522407264125

>  <Genealogy>  (65) 
COc1ccc(S(=O)(=O)[N-]c2ccc(C)c(C(=O)[N-]c3cc(C(=O)[O-])ccc3C)c2)cc1OC (protonated)
COc1ccc(S(=O)(=O)[N-]c2ccc(C)c(C(=O)[N-]c3cc(C(=O)[O-])ccc3C)c2)cc1OC (3D coordinates assigned)
COc1ccc(S(=O)(=O)[N-]c2ccc(C)c(C(=O)[N-]c3cc(C(=O)[O-])ccc3C)c2)cc1OC (optimized conformer: 76.71522407264125 kcal/mol)

>  <smiles>  (65) 
COc1ccc(S(=O)(=O)Nc2ccc(C)c(C(=O)Nc3cc(C(=O)O)ccc3C)c2)cc1OC

>  <score_type>  (65) 
oracle

>  <origin>  (65) 
adg

>  <m_score__min__energy>  (65) 
-15.6

>  <m_primary>  (65) 
energy

$$$$
65:0
     RDKit          3D

 44 46  0  0  0  0  0  0  0  0999 V2000
   59.2880   34.3690   44.8210 C   0  0  0  0  0  0  0  0  0  0  0  0
   59.1170   33.5800   46.0850 C   0  0  0  0  0  0  0  0  0  0  0  0
   60.1880   32.8510   46.6190 C   0  0  0  0  0  0  0  0  0  0  0  0
   60.0100   32.1010   47.7830 C   0  0  0  0  0  0  0  0  0  0  0  0
   58.7570   32.0940   48.4150 C   0  0  0  0  0  0  0  0  0  0  0  0
   58.5220   31.3440   49.6610 C   0  0  0  0  0  0  0  0  0  0  0  0
   59.4570   30.6870   50.3690 C   0  0  0  0  0  0  0  0  0  0  0  0
   59.9500   29.3080   50.1160 C   0  0  0  0  0  0  0  0  0  0  0  0
   60.2720   28.4980   51.2140 C   0  0  0  0  0  0  0  0  0  0  0  0
   60.7810   27.2100   51.0200 C   0  0  0  0  0  0  0  0  0  0  0  0
   61.1560   26.1970   52.4040 Cl  0  0  0  0  0  0  0  0  0  0  0  0
   60.9880   26.7260   49.7260 C   0  0  0  0  0  0  0  0  0  0  0  0
   60.7090   27.5300   48.6150 C   0  0  0  0  0  0  0  0  0  0  0  0
   60.8910   26.9720   47.3030 N   0  0  0  0  0  0  0  0  0  0  0  0
   60.5290   27.5530   46.0410 C   0  0  0  0  0  0  0  0  0  0  0  0
   61.4430   27.8120   45.2150 O   0  0  0  0  0  0  0  0  0  0  0  0
   59.1300   27.9100   45.7070 C   0  0  0  0  0  0  0  0  0  0  0  0
   58.8480   29.1580   45.1260 C   0  0  0  0  0  0  0  0  0  0  0  0
   57.5260   29.5400   44.8330 C   0  0  0  0  0  0  0  0  0  0  0  0
   57.2720   30.8350   44.2490 N   0  0  0  0  0  0  0  0  0  0  0  0
   57.8910   31.2210   43.2360 O   0  0  0  0  0  0  0  0  0  0  0  0
   56.3380   31.6790   44.8070 O   0  0  0  0  0  0  0  0  0  0  0  0
   56.4780   28.6390   45.1260 C   0  0  0  0  0  0  0  0  0  0  0  0
   55.1520   28.9670   44.8640 O   0  0  0  0  0  0  0  0  0  0  0  0
   56.7590   27.3950   45.6940 C   0  0  0  0  0  0  0  0  0  0  0  0
   58.0760   27.0240   45.9880 C   0  0  0  0  0  0  0  0  0  0  0  0
   58.3330   25.7860   46.5790 O   0  0  0  0  0  0  0  0  0  0  0  0
   60.1930   28.8240   48.8170 C   0  0  0  0  0  0  0  0  0  0  0  0
   57.7200   32.7700   47.8510 N   0  0  0  0  0  0  0  0  0  0  0  0
   57.8680   33.5010   46.7150 C   0  0  0  0  0  0  0  0  0  0  0  0
   59.5149   35.4161   45.0702 H   0  0  0  0  0  0  0  0  0  0  0  0
   60.1150   33.9446   44.2329 H   0  0  0  0  0  0  0  0  0  0  0  0
   58.3595   34.3250   44.2329 H   0  0  0  0  0  0  0  0  0  0  0  0
   61.1687   32.8697   46.1212 H   0  0  0  0  0  0  0  0  0  0  0  0
   60.8452   31.5202   48.2014 H   0  0  0  0  0  0  0  0  0  0  0  0
   57.4917   31.3194   50.0455 H   0  0  0  0  0  0  0  0  0  0  0  0
   59.9014   31.2235   51.2203 H   0  0  0  0  0  0  0  0  0  0  0  0
   60.1232   28.8783   52.2354 H   0  0  0  0  0  0  0  0  0  0  0  0
   61.3729   25.7060   49.5793 H   0  0  0  0  0  0  0  0  0  0  0  0
   59.6740   29.8473   44.8966 H   0  0  0  0  0  0  0  0  0  0  0  0
   55.9361   26.6987   45.9129 H   0  0  0  0  0  0  0  0  0  0  0  0
   59.2240   25.5770   47.0120 H   0  0  0  0  0  0  0  0  0  0  0  0
   59.9771   29.4645   47.9492 H   0  0  0  0  0  0  0  0  0  0  0  0
   57.0044   34.0324   46.2887 H   0  0  0  0  0  0  0  0  0  0  0  0
  1  2  1  0
  2  3  2  0
  3  4  1  0
  4  5  2  0
  5  6  1  0
  6  7  2  3
  7  8  1  0
  8  9  2  0
  9 10  1  0
 10 11  1  0
 10 12  2  0
 12 13  1  0
 13 14  1  0
 14 15  1  0
 15 16  2  0
 15 17  1  0
 17 18  2  0
 18 19  1  0
 19 20  1  0
 20 21  2  0
 20 22  1  0
 19 23  2  0
 23 24  1  0
 23 25  1  0
 25 26  2  0
 26 27  1  0
 13 28  2  0
  5 29  1  0
 29 30  2  0
 30  2  1  0
 28  8  1  0
 26 17  1  0
  1 31  1  0
  1 32  1  0
  1 33  1  0
  3 34  1  0
  4 35  1  0
  6 36  1  0
  7 37  1  0
  9 38  1  0
 12 39  1  0
 18 40  1  0
 25 41  1  0
 27 42  1  0
 28 43  1  0
 30 44  1  0
M  CHG  4  14  -1  20   1  22  -1  24  -1
M  END
>  <UniqueID>  (66) 
60

>  <SMILES>  (66) 
Cc1ccc(C=Cc2cc(Cl)cc([N-]C(=O)c3cc([N+](=O)[O-])c([O-])cc3O)c2)nc1

>  <Energy>  (66) 
64.52734334865731

>  <Genealogy>  (66) 
Cc1ccc(C=Cc2cc(Cl)cc([N-]C(=O)c3cc([N+](=O)[O-])c([O-])cc3O)c2)nc1 (protonated)
Cc1ccc(C=Cc2cc(Cl)cc([N-]C(=O)c3cc([N+](=O)[O-])c([O-])cc3O)c2)nc1 (3D coordinates assigned)
Cc1ccc(C=Cc2cc(Cl)cc([N-]C(=O)c3cc([N+](=O)[O-])c([O-])cc3O)c2)nc1 (optimized conformer: 64.52734334865731 kcal/mol)

>  <smiles>  (66) 
Cc1ccc(C=Cc2cc(Cl)cc(NC(=O)c3cc([N+](=O)[O-])c(O)cc3O)c2)nc1

>  <score_type>  (66) 
oracle

>  <origin>  (66) 
adg

>  <m_score__min__energy>  (66) 
-14.4

>  <m_primary>  (66) 
energy

$$$$
66:0
     RDKit          3D

 43 46  0  0  0  0  0  0  0  0999 V2000
   60.4650   28.7510   45.3600 O   0  0  0  0  0  0  0  0  0  0  0  0
   59.2080   28.8500   45.3580 C   0  0  0  0  0  0  0  0  0  0  0  0
   58.4000   27.9560   44.4730 C   0  0  0  0  0  0  0  0  0  0  0  0
   57.4690   27.1210   45.2970 C   0  0  0  0  0  0  0  0  0  0  0  0
   57.8190   25.5930   45.9100 S   0  0  0  0  0  0  0  0  0  0  0  0
   56.2820   25.4190   46.5720 C   0  0  0  0  0  0  0  0  0  0  0  0
   55.8970   24.4090   47.2150 O   0  0  0  0  0  0  0  0  0  0  0  0
   55.4900   26.4840   46.3350 N   0  0  0  0  0  0  0  0  0  0  0  0
   56.1490   27.4300   45.6170 C   0  0  0  0  0  0  0  0  0  0  0  0
   55.5320   28.6140   45.2280 O   0  0  0  0  0  0  0  0  0  0  0  0
   58.5540   29.8820   46.1070 N   0  0  0  0  0  0  0  0  0  0  0  0
   58.2870   31.2160   45.6530 C   0  0  0  0  0  0  0  0  0  0  0  0
   58.2250   31.5270   44.2830 C   0  0  0  0  0  0  0  0  0  0  0  0
   57.9970   32.8400   43.8680 C   0  0  0  0  0  0  0  0  0  0  0  0
   57.8470   33.8560   44.8090 C   0  0  0  0  0  0  0  0  0  0  0  0
   57.9360   33.5640   46.1730 C   0  0  0  0  0  0  0  0  0  0  0  0
   58.1670   32.2440   46.6050 C   0  0  0  0  0  0  0  0  0  0  0  0
   58.2640   31.9110   47.9660 O   0  0  0  0  0  0  0  0  0  0  0  0
   58.7470   32.7800   48.9910 C   0  0  0  0  0  0  0  0  0  0  0  0
   60.2390   32.9110   48.8890 C   0  0  0  0  0  0  0  0  0  0  0  0
   60.8480   33.3590   47.7150 C   0  0  0  0  0  0  0  0  0  0  0  0
   62.2420   33.3900   47.6440 C   0  0  0  0  0  0  0  0  0  0  0  0
   62.7880   33.7930   46.5780 O   0  0  0  0  0  0  0  0  0  0  0  0
   62.9990   32.9860   48.7170 N   0  0  0  0  0  0  0  0  0  0  0  0
   64.3700   32.9990   48.6520 C   0  0  0  0  0  0  0  0  0  0  0  0
   65.1380   32.5900   49.7450 C   0  0  0  0  0  0  0  0  0  0  0  0
   64.5040   32.1810   50.9160 C   0  0  0  0  0  0  0  0  0  0  0  0
   63.1140   32.1660   50.9810 C   0  0  0  0  0  0  0  0  0  0  0  0
   62.3670   32.5640   49.8690 C   0  0  0  0  0  0  0  0  0  0  0  0
   61.0120   32.5260   49.9350 N   0  0  0  0  0  0  0  0  0  0  0  0
   57.8147   28.5699   43.7726 H   0  0  0  0  0  0  0  0  0  0  0  0
   59.0781   27.2942   43.9142 H   0  0  0  0  0  0  0  0  0  0  0  0
   58.3568   30.7316   43.5347 H   0  0  0  0  0  0  0  0  0  0  0  0
   57.9356   33.0731   42.7947 H   0  0  0  0  0  0  0  0  0  0  0  0
   57.6585   34.8882   44.4787 H   0  0  0  0  0  0  0  0  0  0  0  0
   57.8249   34.3701   46.9132 H   0  0  0  0  0  0  0  0  0  0  0  0
   58.2851   33.7717   48.8760 H   0  0  0  0  0  0  0  0  0  0  0  0
   58.4868   32.3602   49.9739 H   0  0  0  0  0  0  0  0  0  0  0  0
   60.2383   33.6828   46.8586 H   0  0  0  0  0  0  0  0  0  0  0  0
   64.8687   33.3346   47.7307 H   0  0  0  0  0  0  0  0  0  0  0  0
   66.2362   32.5909   49.6813 H   0  0  0  0  0  0  0  0  0  0  0  0
   65.1003   31.8708   51.7867 H   0  0  0  0  0  0  0  0  0  0  0  0
   62.6064   31.8429   51.9019 H   0  0  0  0  0  0  0  0  0  0  0  0
  1  2  2  0
  2  3  1  0
  3  4  1  0
  4  5  1  0
  5  6  1  0
  6  7  2  0
  6  8  1  0
  8  9  1  0
  9 10  1  0
  2 11  1  0
 11 12  1  0
 12 13  2  0
 13 14  1  0
 14 15  2  0
 15 16  1  0
 16 17  2  0
 17 18  1  0
 18 19  1  0
 19 20  1  0
 20 21  2  0
 21 22  1  0
 22 23  2  0
 22 24  1  0
 24 25  1  0
 25 26  2  0
 26 27  1  0
 27 28  2  0
 28 29  1  0
 29 30  2  0
  9  4  2  0
 17 12  1  0
 30 20  1  0
 29 24  1  0
  3 31  1  0
  3 32  1  0
 13 33  1  0
 14 34  1  0
 15 35  1  0
 16 36  1  0
 19 37  1  0
 19 38  1  0
 21 39  1  0
 25 40  1  0
 26 41  1  0
 27 42  1  0
 28 43  1  0
M  CHG  3   8  -1  10  -1  11  -1
M  END
>  <UniqueID>  (67) 
61

>  <SMILES>  (67) 
O=C(Cc1sc(=O)[n-]c1[O-])[N-]c1ccccc1OCc1cc(=O)n2ccccc2n1

>  <Energy>  (67) 
85.68168270089676

>  <Genealogy>  (67) 
O=C(Cc1sc(=O)[n-]c1[O-])[N-]c1ccccc1OCc1cc(=O)n2ccccc2n1 (protonated)
O=C(Cc1sc(=O)[n-]c1[O-])[N-]c1ccccc1OCc1cc(=O)n2ccccc2n1 (3D coordinates assigned)
O=C(Cc1sc(=O)[n-]c1[O-])[N-]c1ccccc1OCc1cc(=O)n2ccccc2n1 (optimized conformer: 85.68168270089676 kcal/mol)

>  <smiles>  (67) 
O=C(Cc1sc(=O)[nH]c1O)Nc1ccccc1OCc1cc(=O)n2ccccc2n1

>  <score_type>  (67) 
oracle

>  <origin>  (67) 
adg

>  <m_score__min__energy>  (67) 
-17.09

>  <m_primary>  (67) 
energy

$$$$
67:0
     RDKit          3D

 40 42  0  0  0  0  0  0  0  0999 V2000
   59.7030   29.0730   44.8950 N   0  0  0  0  0  0  0  0  0  0  0  0
   58.8610   28.2670   45.4610 C   0  0  0  0  0  0  0  0  0  0  0  0
   59.3190   27.1000   46.5810 S   0  0  0  0  0  0  0  0  0  0  0  0
   57.7400   26.5600   46.8090 C   0  0  0  0  0  0  0  0  0  0  0  0
   57.3410   25.4140   47.6840 C   0  0  0  0  0  0  0  0  0  0  0  0
   57.1950   24.1690   46.8660 C   0  0  0  0  0  0  0  0  0  0  0  0
   57.3890   23.0480   47.4070 O   0  0  0  0  0  0  0  0  0  0  0  0
   56.7500   24.2560   45.5030 N   0  0  0  0  0  0  0  0  0  0  0  0
   56.7120   23.1380   44.5990 C   0  0  0  0  0  0  0  0  0  0  0  0
   57.1390   21.8590   44.9990 C   0  0  0  0  0  0  0  0  0  0  0  0
   57.1110   20.7910   44.0950 C   0  0  0  0  0  0  0  0  0  0  0  0
   56.6710   20.9940   42.7850 C   0  0  0  0  0  0  0  0  0  0  0  0
   56.2660   22.2660   42.3730 C   0  0  0  0  0  0  0  0  0  0  0  0
   56.2940   23.3360   43.2730 C   0  0  0  0  0  0  0  0  0  0  0  0
   56.8980   27.3010   45.9830 C   0  0  0  0  0  0  0  0  0  0  0  0
   55.5260   27.0780   45.9300 O   0  0  0  0  0  0  0  0  0  0  0  0
   57.5210   28.2560   45.2330 N   0  0  0  0  0  0  0  0  0  0  0  0
   56.6950   29.3240   44.1300 S   0  0  0  0  0  0  0  0  0  0  0  0
   55.2340   29.4140   44.4690 O   0  0  0  0  0  0  0  0  0  0  0  0
   56.8330   28.7810   42.7350 O   0  0  0  0  0  0  0  0  0  0  0  0
   57.3950   30.9350   44.2320 C   0  0  0  0  0  0  0  0  0  0  0  0
   57.6900   31.4940   45.4840 C   0  0  0  0  0  0  0  0  0  0  0  0
   58.2490   32.7730   45.5700 C   0  0  0  0  0  0  0  0  0  0  0  0
   58.5110   33.5010   44.4050 C   0  0  0  0  0  0  0  0  0  0  0  0
   58.2120   32.9510   43.1550 C   0  0  0  0  0  0  0  0  0  0  0  0
   57.6550   31.6720   43.0670 C   0  0  0  0  0  0  0  0  0  0  0  0
   59.6410   29.3530   43.8930 H   0  0  0  0  0  0  0  0  0  0  0  0
   58.1128   25.2565   48.4518 H   0  0  0  0  0  0  0  0  0  0  0  0
   56.3782   25.6450   48.1632 H   0  0  0  0  0  0  0  0  0  0  0  0
   56.3390   25.1610   45.1810 H   0  0  0  0  0  0  0  0  0  0  0  0
   57.4965   21.6975   46.0267 H   0  0  0  0  0  0  0  0  0  0  0  0
   57.4359   19.7905   44.4165 H   0  0  0  0  0  0  0  0  0  0  0  0
   56.6434   20.1521   42.0775 H   0  0  0  0  0  0  0  0  0  0  0  0
   55.9247   22.4261   41.3396 H   0  0  0  0  0  0  0  0  0  0  0  0
   55.9868   24.3385   42.9404 H   0  0  0  0  0  0  0  0  0  0  0  0
   57.4809   30.9244   46.4015 H   0  0  0  0  0  0  0  0  0  0  0  0
   58.4826   33.2063   46.5537 H   0  0  0  0  0  0  0  0  0  0  0  0
   58.9523   34.5063   44.4722 H   0  0  0  0  0  0  0  0  0  0  0  0
   58.4154   33.5256   42.2393 H   0  0  0  0  0  0  0  0  0  0  0  0
   57.4200   31.2424   42.0820 H   0  0  0  0  0  0  0  0  0  0  0  0
  1  2  2  3
  2  3  1  0
  3  4  1  0
  4  5  1  0
  5  6  1  0
  6  7  2  0
  6  8  1  0
  8  9  1  0
  9 10  2  0
 10 11  1  0
 11 12  2  0
 12 13  1  0
 13 14  2  0
  4 15  2  0
 15 16  1  0
 15 17  1  0
 17 18  1  0
 18 19  2  0
 18 20  2  0
 18 21  1  0
 21 22  2  0
 22 23  1  0
 23 24  2  0
 24 25  1  0
 25 26  2  0
 17  2  1  0
 26 21  1  0
 14  9  1  0
  1 27  1  0
  5 28  1  0
  5 29  1  0
  8 30  1  0
 10 31  1  0
 11 32  1  0
 12 33  1  0
 13 34  1  0
 14 35  1  0
 22 36  1  0
 23 37  1  0
 24 38  1  0
 25 39  1  0
 26 40  1  0
M  CHG  1  16  -1
M  END
>  <UniqueID>  (68) 
62

>  <SMILES>  (68) 
N=c1sc(CC(=O)Nc2ccccc2)c([O-])n1S(=O)(=O)c1ccccc1

>  <Energy>  (68) 
78.15534927676943

>  <Genealogy>  (68) 
N=c1sc(CC(=O)Nc2ccccc2)c([O-])n1S(=O)(=O)c1ccccc1 (protonated)
N=c1sc(CC(=O)Nc2ccccc2)c([O-])n1S(=O)(=O)c1ccccc1 (3D coordinates assigned)
N=c1sc(CC(=O)Nc2ccccc2)c([O-])n1S(=O)(=O)c1ccccc1 (optimized conformer: 78.15534927676943 kcal/mol)

>  <smiles>  (68) 
N=c1sc(CC(=O)Nc2ccccc2)c(O)n1S(=O)(=O)c1ccccc1

>  <score_type>  (68) 
oracle

>  <origin>  (68) 
adg

>  <m_score__min__energy>  (68) 
-11.92

>  <m_primary>  (68) 
energy

$$$$
68:0
     RDKit          3D

 22 23  0  0  0  0  0  0  0  0999 V2000
   55.8940   22.6430   43.1640 O   0  0  0  0  0  0  0  0  0  0  0  0
   56.3130   22.8840   44.3270 C   0  0  0  0  0  0  0  0  0  0  0  0
   56.5720   21.9080   45.2230 N   0  0  0  0  0  0  0  0  0  0  0  0
   56.9860   22.5980   46.2990 C   0  0  0  0  0  0  0  0  0  0  0  0
   57.3750   22.0090   47.4970 O   0  0  0  0  0  0  0  0  0  0  0  0
   56.9670   23.9470   46.0330 C   0  0  0  0  0  0  0  0  0  0  0  0
   57.3430   25.0550   46.9700 C   0  0  0  0  0  0  0  0  0  0  0  0
   57.4360   26.3650   46.2240 C   0  0  0  0  0  0  0  0  0  0  0  0
   58.6870   26.9390   45.9010 C   0  0  0  0  0  0  0  0  0  0  0  0
   60.2080   26.1550   46.3150 Cl  0  0  0  0  0  0  0  0  0  0  0  0
   58.7420   28.1690   45.2340 C   0  0  0  0  0  0  0  0  0  0  0  0
   57.5670   28.8420   44.8970 C   0  0  0  0  0  0  0  0  0  0  0  0
   56.3260   28.2930   45.2270 C   0  0  0  0  0  0  0  0  0  0  0  0
   55.1610   28.9730   44.8960 O   0  0  0  0  0  0  0  0  0  0  0  0
   56.2570   27.0640   45.8920 C   0  0  0  0  0  0  0  0  0  0  0  0
   55.0390   26.5570   46.2160 F   0  0  0  0  0  0  0  0  0  0  0  0
   56.5370   24.1390   44.7740 N   0  0  0  0  0  0  0  0  0  0  0  0
   58.1290   21.3340   47.5190 H   0  0  0  0  0  0  0  0  0  0  0  0
   56.5792   25.1393   47.7570 H   0  0  0  0  0  0  0  0  0  0  0  0
   58.3221   24.8281   47.4171 H   0  0  0  0  0  0  0  0  0  0  0  0
   59.7170   28.6072   44.9742 H   0  0  0  0  0  0  0  0  0  0  0  0
   57.6183   29.8065   44.3706 H   0  0  0  0  0  0  0  0  0  0  0  0
  1  2  2  0
  2  3  1  0
  3  4  1  0
  4  5  1  0
  4  6  2  0
  6  7  1  0
  7  8  1  0
  8  9  2  0
  9 10  1  0
  9 11  1  0
 11 12  2  0
 12 13  1  0
 13 14  1  0
 13 15  2  0
 15 16  1  0
  6 17  1  0
 17  2  1  0
 15  8  1  0
  5 18  1  0
  7 19  1  0
  7 20  1  0
 11 21  1  0
 12 22  1  0
M  CHG  3   3  -1  14  -1  17  -1
M  END
>  <UniqueID>  (69) 
63

>  <SMILES>  (69) 
O=c1[n-]c(O)c(Cc2c(Cl)ccc([O-])c2F)[n-]1

>  <Energy>  (69) 
51.798253439937575

>  <Genealogy>  (69) 
O=c1[n-]c(O)c(Cc2c(Cl)ccc([O-])c2F)[n-]1 (protonated)
O=c1[n-]c(O)c(Cc2c(Cl)ccc([O-])c2F)[n-]1 (3D coordinates assigned)
O=c1[n-]c(O)c(Cc2c(Cl)ccc([O-])c2F)[n-]1 (optimized conformer: 51.798253439937575 kcal/mol)

>  <smiles>  (69) 
O=c1[nH]c(O)c(Cc2c(Cl)ccc(O)c2F)[nH]1

>  <score_type>  (69) 
oracle

>  <origin>  (69) 
adg

>  <m_score__min__energy>  (69) 
-12.029999999999999

>  <m_primary>  (69) 
energy

$$$$
69:0
     RDKit          3D

 27 28  0  0  0  0  0  0  0  0999 V2000
   55.1130   29.3720   44.8810 N   0  0  0  0  0  0  0  0  0  0  0  0
   56.6220   29.4900   44.0490 S   0  0  0  0  0  0  0  0  0  0  0  0
   56.3980   29.3290   42.5720 O   0  0  0  0  0  0  0  0  0  0  0  0
   57.5520   28.4090   44.5250 O   0  0  0  0  0  0  0  0  0  0  0  0
   57.3360   31.0580   44.3600 C   0  0  0  0  0  0  0  0  0  0  0  0
   58.0160   31.8290   43.4390 C   0  0  0  0  0  0  0  0  0  0  0  0
   58.4210   32.9550   44.1250 C   0  0  0  0  0  0  0  0  0  0  0  0
   57.9580   32.7930   45.4180 C   0  0  0  0  0  0  0  0  0  0  0  0
   58.1970   33.7270   46.5580 C   0  0  0  0  0  0  0  0  0  0  0  0
   59.4650   34.9680   46.1220 S   0  0  0  0  0  0  0  0  0  0  0  0
   60.7890   34.1780   47.0450 C   0  0  0  0  0  0  0  0  0  0  0  0
   61.9850   33.8350   46.4010 C   0  0  0  0  0  0  0  0  0  0  0  0
   63.0080   33.2010   47.1130 C   0  0  0  0  0  0  0  0  0  0  0  0
   62.8430   32.9200   48.4740 C   0  0  0  0  0  0  0  0  0  0  0  0
   63.8590   32.2890   49.1820 O   0  0  0  0  0  0  0  0  0  0  0  0
   61.6550   33.2740   49.1220 C   0  0  0  0  0  0  0  0  0  0  0  0
   60.6290   33.9050   48.4090 C   0  0  0  0  0  0  0  0  0  0  0  0
   57.3140   31.6540   45.5290 O   0  0  0  0  0  0  0  0  0  0  0  0
   55.2280   28.6430   45.6210 H   0  0  0  0  0  0  0  0  0  0  0  0
   58.1970   31.5945   42.3796 H   0  0  0  0  0  0  0  0  0  0  0  0
   58.9935   33.8055   43.7263 H   0  0  0  0  0  0  0  0  0  0  0  0
   57.2573   34.2426   46.8054 H   0  0  0  0  0  0  0  0  0  0  0  0
   58.5530   33.1465   47.4219 H   0  0  0  0  0  0  0  0  0  0  0  0
   62.1195   34.0648   45.3337 H   0  0  0  0  0  0  0  0  0  0  0  0
   63.9424   32.9232   46.6033 H   0  0  0  0  0  0  0  0  0  0  0  0
   61.5270   33.0564   50.1926 H   0  0  0  0  0  0  0  0  0  0  0  0
   59.6967   34.1865   48.9204 H   0  0  0  0  0  0  0  0  0  0  0  0
  1  2  1  0
  2  3  2  0
  2  4  2  0
  2  5  1  0
  5  6  2  0
  6  7  1  0
  7  8  2  0
  8  9  1  0
  9 10  1  0
 10 11  1  0
 11 12  2  0
 12 13  1  0
 13 14  2  0
 14 15  1  0
 14 16  1  0
 16 17  2  0
  8 18  1  0
 18  5  1  0
 17 11  1  0
  1 19  1  0
  6 20  1  0
  7 21  1  0
  9 22  1  0
  9 23  1  0
 12 24  1  0
 13 25  1  0
 16 26  1  0
 17 27  1  0
M  CHG  2   1  -1  15  -1
M  END
>  <UniqueID>  (70) 
64

>  <SMILES>  (70) 
[NH-]S(=O)(=O)c1ccc(CSc2ccc([O-])cc2)o1

>  <Energy>  (70) 
46.901408079176946

>  <Genealogy>  (70) 
[NH-]S(=O)(=O)c1ccc(CSc2ccc([O-])cc2)o1 (protonated)
[NH-]S(=O)(=O)c1ccc(CSc2ccc([O-])cc2)o1 (3D coordinates assigned)
[NH-]S(=O)(=O)c1ccc(CSc2ccc([O-])cc2)o1 (optimized conformer: 46.901408079176946 kcal/mol)

>  <smiles>  (70) 
NS(=O)(=O)c1ccc(CSc2ccc(O)cc2)o1

>  <score_type>  (70) 
oracle

>  <origin>  (70) 
adg

>  <m_score__min__energy>  (70) 
-11.4

>  <m_primary>  (70) 
energy

$$$$
70:0
     RDKit          3D

 19 19  0  0  0  0  0  0  0  0999 V2000
   55.5990   21.6780   45.3140 C   0  0  0  0  0  0  0  0  0  0  0  0
   54.6460   22.6860   45.8820 C   0  0  0  0  0  0  0  0  0  0  0  0
   53.4230   22.5970   45.5980 O   0  0  0  0  0  0  0  0  0  0  0  0
   55.0810   23.7290   46.7630 N   0  0  0  0  0  0  0  0  0  0  0  0
   56.0110   24.7700   46.4310 C   0  0  0  0  0  0  0  0  0  0  0  0
   57.3840   24.5300   46.5840 C   0  0  0  0  0  0  0  0  0  0  0  0
   57.8330   23.2920   47.0280 O   0  0  0  0  0  0  0  0  0  0  0  0
   58.3110   25.5300   46.2780 C   0  0  0  0  0  0  0  0  0  0  0  0
   57.8730   26.7790   45.8310 C   0  0  0  0  0  0  0  0  0  0  0  0
   56.5060   27.0450   45.7070 C   0  0  0  0  0  0  0  0  0  0  0  0
   56.0970   28.3070   45.2790 O   0  0  0  0  0  0  0  0  0  0  0  0
   55.5690   26.0440   46.0210 C   0  0  0  0  0  0  0  0  0  0  0  0
   54.2080   26.3280   45.9570 O   0  0  0  0  0  0  0  0  0  0  0  0
   56.1021   21.1459   46.1348 H   0  0  0  0  0  0  0  0  0  0  0  0
   55.0445   20.9572   44.6952 H   0  0  0  0  0  0  0  0  0  0  0  0
   56.3498   22.1912   44.6952 H   0  0  0  0  0  0  0  0  0  0  0  0
   59.3875   25.3333   46.3893 H   0  0  0  0  0  0  0  0  0  0  0  0
   58.6073   27.5571   45.5753 H   0  0  0  0  0  0  0  0  0  0  0  0
   55.1210   28.5750   45.2460 H   0  0  0  0  0  0  0  0  0  0  0  0
  1  2  1  0
  2  3  2  0
  2  4  1  0
  4  5  1  0
  5  6  2  0
  6  7  1  0
  6  8  1  0
  8  9  2  0
  9 10  1  0
 10 11  1  0
 10 12  2  0
 12 13  1  0
 12  5  1  0
  1 14  1  0
  1 15  1  0
  1 16  1  0
  8 17  1  0
  9 18  1  0
 11 19  1  0
M  CHG  3   4  -1   7  -1  13  -1
M  END
>  <UniqueID>  (71) 
65

>  <SMILES>  (71) 
CC(=O)[N-]c1c([O-])ccc(O)c1[O-]

>  <Energy>  (71) 
23.324981759187445

>  <Genealogy>  (71) 
CC(=O)[N-]c1c([O-])ccc(O)c1[O-] (protonated)
CC(=O)[N-]c1c([O-])ccc(O)c1[O-] (3D coordinates assigned)
CC(=O)[N-]c1c([O-])ccc(O)c1[O-] (optimized conformer: 23.324981759187445 kcal/mol)

>  <smiles>  (71) 
CC(=O)Nc1c(O)ccc(O)c1O

>  <score_type>  (71) 
oracle

>  <origin>  (71) 
adg

>  <m_score__min__energy>  (71) 
-13.06

>  <m_primary>  (71) 
energy

$$$$
71:0
     RDKit          3D

 36 37  0  0  0  0  0  0  0  0999 V2000
   55.1480   27.3630   46.0420 H   0  0  0  0  0  0  0  0  0  0  0  0
   54.9830   26.3390   45.9280 N   0  0  0  0  0  0  0  0  0  0  0  0
   56.5140   25.5580   46.1030 S   0  0  0  0  0  0  0  0  0  0  0  0
   56.4870   24.6730   47.3180 O   0  0  0  0  0  0  0  0  0  0  0  0
   56.7880   24.7080   44.8940 O   0  0  0  0  0  0  0  0  0  0  0  0
   57.7770   26.7720   46.2780 C   0  0  0  0  0  0  0  0  0  0  0  0
   58.0950   27.2820   47.5430 C   0  0  0  0  0  0  0  0  0  0  0  0
   57.5620   26.9138   48.4321 H   0  0  0  0  0  0  0  0  0  0  0  0
   59.0870   28.2570   47.6800 C   0  0  0  0  0  0  0  0  0  0  0  0
   59.3337   28.6508   48.6770 H   0  0  0  0  0  0  0  0  0  0  0  0
   59.7700   28.7360   46.5510 C   0  0  0  0  0  0  0  0  0  0  0  0
   60.8070   29.8220   46.6900 C   0  0  0  0  0  0  0  0  0  0  0  0
   61.1292   29.8766   47.7403 H   0  0  0  0  0  0  0  0  0  0  0  0
   61.6547   29.5767   46.0334 H   0  0  0  0  0  0  0  0  0  0  0  0
   60.2510   31.1830   46.2690 C   0  0  0  0  0  0  0  0  0  0  0  0
   60.9504   31.9728   46.5805 H   0  0  0  0  0  0  0  0  0  0  0  0
   60.1292   31.1972   45.1759 H   0  0  0  0  0  0  0  0  0  0  0  0
   58.9540   31.4150   46.8940 N   0  0  0  0  0  0  0  0  0  0  0  0
   57.8610   30.8880   46.4370 C   0  0  0  0  0  0  0  0  0  0  0  0
   57.1707   30.3942   47.1367 H   0  0  0  0  0  0  0  0  0  0  0  0
   57.5180   30.9340   44.9960 C   0  0  0  0  0  0  0  0  0  0  0  0
   58.1350   31.9120   44.1970 C   0  0  0  0  0  0  0  0  0  0  0  0
   58.8490   32.6145   44.6517 H   0  0  0  0  0  0  0  0  0  0  0  0
   57.8520   32.0020   42.8330 C   0  0  0  0  0  0  0  0  0  0  0  0
   58.3415   32.7730   42.2199 H   0  0  0  0  0  0  0  0  0  0  0  0
   56.9490   31.1150   42.2470 C   0  0  0  0  0  0  0  0  0  0  0  0
   56.7262   31.1882   41.1723 H   0  0  0  0  0  0  0  0  0  0  0  0
   56.3280   30.1350   43.0220 C   0  0  0  0  0  0  0  0  0  0  0  0
   55.6173   29.4374   42.5548 H   0  0  0  0  0  0  0  0  0  0  0  0
   56.6050   30.0340   44.3950 C   0  0  0  0  0  0  0  0  0  0  0  0
   55.9770   29.0430   45.1470 O   0  0  0  0  0  0  0  0  0  0  0  0
   55.9640   28.0750   44.8510 H   0  0  0  0  0  0  0  0  0  0  0  0
   59.4380   28.2340   45.2830 C   0  0  0  0  0  0  0  0  0  0  0  0
   59.9596   28.6115   44.3912 H   0  0  0  0  0  0  0  0  0  0  0  0
   58.4480   27.2570   45.1480 C   0  0  0  0  0  0  0  0  0  0  0  0
   58.1947   26.8674   44.1510 H   0  0  0  0  0  0  0  0  0  0  0  0
  1  2  1  0
  2  3  1  0
  3  4  2  0
  3  5  2  0
  3  6  1  0
  6  7  2  0
  7  8  1  0
  7  9  1  0
  9 10  1  0
  9 11  2  0
 11 12  1  0
 12 13  1  0
 12 14  1  0
 12 15  1  0
 15 16  1  0
 15 17  1  0
 15 18  1  0
 18 19  2  0
 19 20  1  0
 19 21  1  0
 21 22  2  0
 22 23  1  0
 22 24  1  0
 24 25  1  0
 24 26  2  0
 26 27  1  0
 26 28  1  0
 28 29  1  0
 28 30  2  0
 30 31  1  0
 31 32  1  0
 11 33  1  0
 33 34  1  0
 33 35  2  0
 35 36  1  0
 35  6  1  0
 30 21  1  0
M  CHG  1   2  -1
M  END
>  <UniqueID>  (72) 
66

>  <SMILES>  (72) 
[NH-]S(=O)(=O)c1ccc(CC/N=C/c2ccccc2O)cc1

>  <Energy>  (72) 
31.729267763155722

>  <Genealogy>  (72) 
[NH-]S(=O)(=O)c1ccc(CCN=Cc2ccccc2O)cc1 (protonated)
[NH-]S(=O)(=O)c1ccc(CC/N=C/c2ccccc2O)cc1 (cis-trans isomerization)
[NH-]S(=O)(=O)c1ccc(CC/N=C/c2ccccc2O)cc1 (3D coordinates assigned)
[NH-]S(=O)(=O)c1ccc(CC/N=C/c2ccccc2O)cc1 (optimized conformer: 31.729267763155722 kcal/mol)

>  <smiles>  (72) 
NS(=O)(=O)c1ccc(CCN=Cc2ccccc2O)cc1

>  <score_type>  (72) 
oracle

>  <origin>  (72) 
adg

>  <m_score__min__energy>  (72) 
-10.890000000000001

>  <m_primary>  (72) 
energy

$$$$
72:0
     RDKit          3D

 56 58  0  0  0  0  0  0  0  0999 V2000
   62.9570   31.2840   47.1650 N   0  0  0  0  0  0  0  0  0  0  0  0
   63.1570   32.9320   47.6430 S   0  0  0  0  0  0  0  0  0  0  0  0
   62.0320   33.7330   47.0500 O   0  0  0  0  0  0  0  0  0  0  0  0
   64.4650   33.4560   47.1200 O   0  0  0  0  0  0  0  0  0  0  0  0
   63.1230   33.0670   49.4070 C   0  0  0  0  0  0  0  0  0  0  0  0
   64.2590   33.5520   50.0750 C   0  0  0  0  0  0  0  0  0  0  0  0
   64.2420   33.7350   51.4610 C   0  0  0  0  0  0  0  0  0  0  0  0
   63.0890   33.4420   52.1940 C   0  0  0  0  0  0  0  0  0  0  0  0
   61.9560   32.9490   51.5430 C   0  0  0  0  0  0  0  0  0  0  0  0
   61.9700   32.7370   50.1570 C   0  0  0  0  0  0  0  0  0  0  0  0
   60.7920   32.2180   49.5290 N   0  0  0  0  0  0  0  0  0  0  0  0
   59.6410   33.0390   49.2770 C   0  0  0  0  0  0  0  0  0  0  0  0
   59.6430   34.2550   49.6100 O   0  0  0  0  0  0  0  0  0  0  0  0
   58.4260   32.4550   48.6250 C   0  0  0  0  0  0  0  0  0  0  0  0
   58.3200   32.9050   47.1890 C   0  0  0  0  0  0  0  0  0  0  0  0
   57.3120   33.8130   46.8200 C   0  0  0  0  0  0  0  0  0  0  0  0
   57.1790   34.2230   45.4910 C   0  0  0  0  0  0  0  0  0  0  0  0
   58.0520   33.7330   44.5170 C   0  0  0  0  0  0  0  0  0  0  0  0
   59.0670   32.8430   44.8720 C   0  0  0  0  0  0  0  0  0  0  0  0
   59.2130   32.4300   46.2030 C   0  0  0  0  0  0  0  0  0  0  0  0
   60.2780   31.5400   46.5480 N   0  0  0  0  0  0  0  0  0  0  0  0
   60.0270   30.1710   46.8730 C   0  0  0  0  0  0  0  0  0  0  0  0
   59.3090   29.1330   46.3060 C   0  0  0  0  0  0  0  0  0  0  0  0
   58.5010   28.9870   45.1330 N   0  0  0  0  0  0  0  0  0  0  0  0
   57.7650   27.7560   44.8520 C   0  0  0  0  0  0  0  0  0  0  0  0
   56.3210   27.8640   45.2670 C   0  0  0  0  0  0  0  0  0  0  0  0
   55.7920   26.9630   45.9660 O   0  0  0  0  0  0  0  0  0  0  0  0
   55.5200   28.9820   44.8650 N   0  0  0  0  0  0  0  0  0  0  0  0
   55.6580   29.6620   43.5820 C   0  0  0  0  0  0  0  0  0  0  0  0
   56.5740   30.8750   43.7290 C   0  0  0  0  0  0  0  0  0  0  0  0
   56.8020   31.1600   45.0820 O   0  0  0  0  0  0  0  0  0  0  0  0
   59.6820   28.3070   47.3510 C   0  0  0  0  0  0  0  0  0  0  0  0
   59.4610   27.1070   47.6640 O   0  0  0  0  0  0  0  0  0  0  0  0
   60.3920   29.3460   47.9190 C   0  0  0  0  0  0  0  0  0  0  0  0
   61.0850   29.4850   48.9600 O   0  0  0  0  0  0  0  0  0  0  0  0
   62.2850   30.8460   47.8350 H   0  0  0  0  0  0  0  0  0  0  0  0
   65.1686   33.7896   49.5038 H   0  0  0  0  0  0  0  0  0  0  0  0
   65.1386   34.1106   51.9758 H   0  0  0  0  0  0  0  0  0  0  0  0
   63.0737   33.5995   53.2826 H   0  0  0  0  0  0  0  0  0  0  0  0
   61.0472   32.7257   52.1210 H   0  0  0  0  0  0  0  0  0  0  0  0
   60.8470   31.2720   49.0870 H   0  0  0  0  0  0  0  0  0  0  0  0
   58.4930   31.3575   48.6550 H   0  0  0  0  0  0  0  0  0  0  0  0
   57.5341   32.7992   49.1691 H   0  0  0  0  0  0  0  0  0  0  0  0
   56.6229   34.2035   47.5833 H   0  0  0  0  0  0  0  0  0  0  0  0
   56.3861   34.9323   45.2115 H   0  0  0  0  0  0  0  0  0  0  0  0
   57.9395   34.0487   43.4693 H   0  0  0  0  0  0  0  0  0  0  0  0
   59.7559   32.4638   44.1028 H   0  0  0  0  0  0  0  0  0  0  0  0
   61.2500   31.9110   46.6180 H   0  0  0  0  0  0  0  0  0  0  0  0
   58.3750   29.8060   44.5000 H   0  0  0  0  0  0  0  0  0  0  0  0
   57.8114   27.5514   43.7722 H   0  0  0  0  0  0  0  0  0  0  0  0
   58.2275   26.9406   45.4276 H   0  0  0  0  0  0  0  0  0  0  0  0
   56.0890   28.9672   42.8461 H   0  0  0  0  0  0  0  0  0  0  0  0
   54.6668   29.9974   43.2429 H   0  0  0  0  0  0  0  0  0  0  0  0
   57.5350   30.6640   43.2371 H   0  0  0  0  0  0  0  0  0  0  0  0
   56.0893   31.7442   43.2604 H   0  0  0  0  0  0  0  0  0  0  0  0
   56.4480   30.3900   45.5990 H   0  0  0  0  0  0  0  0  0  0  0  0
  1  2  1  0
  2  3  2  0
  2  4  2  0
  2  5  1  0
  5  6  2  0
  6  7  1  0
  7  8  2  0
  8  9  1  0
  9 10  2  0
 10 11  1  0
 11 12  1  0
 12 13  2  0
 12 14  1  0
 14 15  1  0
 15 16  2  0
 16 17  1  0
 17 18  2  0
 18 19  1  0
 19 20  2  0
 20 21  1  0
 21 22  1  0
 22 23  2  0
 23 24  1  0
 24 25  1  0
 25 26  1  0
 26 27  2  0
 26 28  1  0
 28 29  1  0
 29 30  1  0
 30 31  1  0
 23 32  1  0
 32 33  2  0
 32 34  1  0
 34 35  2  0
 10  5  1  0
 20 15  1  0
 34 22  1  0
  1 36  1  0
  6 37  1  0
  7 38  1  0
  8 39  1  0
  9 40  1  0
 11 41  1  0
 14 42  1  0
 14 43  1  0
 16 44  1  0
 17 45  1  0
 18 46  1  0
 19 47  1  0
 21 48  1  0
 24 49  1  0
 25 50  1  0
 25 51  1  0
 29 52  1  0
 29 53  1  0
 30 54  1  0
 30 55  1  0
 31 56  1  0
M  CHG  2   1  -1  28  -1
M  END
>  <UniqueID>  (73) 
67

>  <SMILES>  (73) 
[NH-]S(=O)(=O)c1ccccc1NC(=O)Cc1ccccc1Nc1c(NCC(=O)[N-]CCO)c(=O)c1=O

>  <Energy>  (73) 
51.80287750156428

>  <Genealogy>  (73) 
[NH-]S(=O)(=O)c1ccccc1NC(=O)Cc1ccccc1Nc1c(NCC(=O)[N-]CCO)c(=O)c1=O (protonated)
[NH-]S(=O)(=O)c1ccccc1NC(=O)Cc1ccccc1Nc1c(NCC(=O)[N-]CCO)c(=O)c1=O (3D coordinates assigned)
[NH-]S(=O)(=O)c1ccccc1NC(=O)Cc1ccccc1Nc1c(NCC(=O)[N-]CCO)c(=O)c1=O (optimized conformer: 51.80287750156428 kcal/mol)

>  <smiles>  (73) 
NS(=O)(=O)c1ccccc1NC(=O)Cc1ccccc1Nc1c(NCC(=O)NCCO)c(=O)c1=O

>  <score_type>  (73) 
oracle

>  <origin>  (73) 
adg

>  <m_score__min__energy>  (73) 
-14.27

>  <m_primary>  (73) 
energy

$$$$
73:0
     RDKit          3D

 39 41  0  0  0  0  0  0  0  0999 V2000
   60.5624   26.6833   46.1158 H   0  0  0  0  0  0  0  0  0  0  0  0
   59.4630   26.6500   46.1010 C   0  0  0  0  0  0  0  0  0  0  0  0
   58.7870   25.6240   46.7630 C   0  0  0  0  0  0  0  0  0  0  0  0
   59.3543   24.8563   47.3095 H   0  0  0  0  0  0  0  0  0  0  0  0
   57.3920   25.5700   46.7330 C   0  0  0  0  0  0  0  0  0  0  0  0
   56.8650   24.7565   47.2531 H   0  0  0  0  0  0  0  0  0  0  0  0
   56.6550   26.5520   46.0400 C   0  0  0  0  0  0  0  0  0  0  0  0
   55.2550   26.4920   45.9410 O   0  0  0  0  0  0  0  0  0  0  0  0
   54.5150   25.3150   45.6370 C   0  0  0  0  0  0  0  0  0  0  0  0
   54.2064   24.8242   46.5718 H   0  0  0  0  0  0  0  0  0  0  0  0
   53.6229   25.5836   45.0521 H   0  0  0  0  0  0  0  0  0  0  0  0
   55.1436   24.6275   45.0521 H   0  0  0  0  0  0  0  0  0  0  0  0
   57.3440   27.6120   45.4100 C   0  0  0  0  0  0  0  0  0  0  0  0
   56.6460   28.6400   44.6890 N   0  0  0  0  0  0  0  0  0  0  0  0
   57.0820   29.8490   44.4790 C   0  0  0  0  0  0  0  0  0  0  0  0
   57.0250   30.4050   43.2390 N   0  0  0  0  0  0  0  0  0  0  0  0
   57.4670   31.6650   43.0080 C   0  0  0  0  0  0  0  0  0  0  0  0
   57.3920   32.3300   41.3900 Cl  0  0  0  0  0  0  0  0  0  0  0  0
   57.9810   32.4170   44.0620 C   0  0  0  0  0  0  0  0  0  0  0  0
   58.3505   33.4365   43.8772 H   0  0  0  0  0  0  0  0  0  0  0  0
   58.0290   31.8940   45.3280 N   0  0  0  0  0  0  0  0  0  0  0  0
   58.5920   32.7150   46.4250 C   0  0  1  0  0  0  0  0  0  0  0  0
   58.0536   32.5584   47.3713 H   0  0  0  0  0  0  0  0  0  0  0  0
   60.0370   32.2690   46.7050 C   0  0  0  0  0  0  0  0  0  0  0  0
   60.2011   32.2184   47.7915 H   0  0  0  0  0  0  0  0  0  0  0  0
   60.2068   31.2766   46.2619 H   0  0  0  0  0  0  0  0  0  0  0  0
   60.7366   32.9930   46.2619 H   0  0  0  0  0  0  0  0  0  0  0  0
   58.3980   34.2250   46.1050 C   0  0  0  0  0  0  0  0  0  0  0  0
   57.3117   34.1128   45.9731 H   0  0  0  0  0  0  0  0  0  0  0  0
   59.3620   35.1520   46.8360 C   0  0  0  0  0  0  0  0  0  0  0  0
   58.9941   36.0905   47.2763 H   0  0  0  0  0  0  0  0  0  0  0  0
   60.0678   35.0356   47.6716 H   0  0  0  0  0  0  0  0  0  0  0  0
   59.4540   35.0070   45.3270 C   0  0  0  0  0  0  0  0  0  0  0  0
   59.1520   35.8400   44.6751 H   0  0  0  0  0  0  0  0  0  0  0  0
   60.2527   34.7420   44.6186 H   0  0  0  0  0  0  0  0  0  0  0  0
   57.5900   30.6090   45.5480 C   0  0  0  0  0  0  0  0  0  0  0  0
   57.6420   30.0970   46.7000 O   0  0  0  0  0  0  0  0  0  0  0  0
   58.7440   27.6340   45.4200 C   0  0  0  0  0  0  0  0  0  0  0  0
   59.2813   28.4325   44.8873 H   0  0  0  0  0  0  0  0  0  0  0  0
  1  2  1  0
  2  3  2  0
  3  4  1  0
  3  5  1  0
  5  6  1  0
  5  7  2  0
  7  8  1  0
  8  9  1  0
  9 10  1  0
  9 11  1  0
  9 12  1  0
  7 13  1  0
 13 14  1  0
 14 15  2  0
 15 16  1  0
 16 17  1  0
 17 18  1  0
 17 19  2  0
 19 20  1  0
 19 21  1  0
 21 22  1  0
 22 23  1  1
 22 24  1  0
 24 25  1  0
 24 26  1  0
 24 27  1  0
 22 28  1  0
 28 29  1  0
 28 30  1  0
 30 31  1  0
 30 32  1  0
 30 33  1  0
 33 34  1  0
 33 35  1  0
 21 36  1  0
 36 37  2  0
 13 38  2  0
 38 39  1  0
 38  2  1  0
 36 15  1  0
 33 28  1  0
M  CHG  1  16  -1
M  END
>  <UniqueID>  (74) 
68

>  <SMILES>  (74) 
COc1ccccc1/N=c1\[n-]c(Cl)cn([C@@H](C)C2CC2)c1=O

>  <Energy>  (74) 
318.71566047993576

>  <Genealogy>  (74) 
COc1ccccc1N=c1[n-]c(Cl)cn(C(C)C2CC2)c1=O (protonated)
COc1ccccc1N=c1[n-]c(Cl)cn([C@@H](C)C2CC2)c1=O (chirality)
COc1ccccc1/N=c1\[n-]c(Cl)cn([C@@H](C)C2CC2)c1=O (cis-trans isomerization)
COc1ccccc1/N=c1\[n-]c(Cl)cn([C@@H](C)C2CC2)c1=O (3D coordinates assigned)
COc1ccccc1/N=c1\[n-]c(Cl)cn([C@@H](C)C2CC2)c1=O (nonaromatic ring conformer: 318.71566047993576 kcal/mol)

>  <smiles>  (74) 
COc1ccccc1N=c1[nH]c(Cl)cn(C(C)C2CC2)c1=O

>  <score_type>  (74) 
oracle

>  <origin>  (74) 
adg

>  <m_score__min__energy>  (74) 
-9.1300000000000008

>  <m_primary>  (74) 
energy

$$$$
74:0
     RDKit          3D

 52 54  0  0  0  0  0  0  0  0999 V2000
   63.1260   31.1180   50.9960 C   0  0  0  0  0  0  0  0  0  0  0  0
   62.5850   32.1890   50.1690 N   0  0  0  0  0  0  0  0  0  0  0  0
   63.2650   32.6590   49.0020 C   0  0  0  0  0  0  0  0  0  0  0  0
   64.4090   32.2120   48.7110 O   0  0  0  0  0  0  0  0  0  0  0  0
   62.6650   33.6470   48.2130 O   0  0  0  0  0  0  0  0  0  0  0  0
   61.3210   33.6400   47.8110 C   0  0  0  0  0  0  0  0  0  0  0  0
   61.0380   33.4280   46.4570 C   0  0  0  0  0  0  0  0  0  0  0  0
   59.7190   33.4250   46.0000 C   0  0  0  0  0  0  0  0  0  0  0  0
   58.6710   33.6530   46.8920 C   0  0  0  0  0  0  0  0  0  0  0  0
   58.9380   33.8880   48.2420 C   0  0  0  0  0  0  0  0  0  0  0  0
   60.2630   33.8780   48.7170 C   0  0  0  0  0  0  0  0  0  0  0  0
   60.5570   34.2010   50.0820 N   0  0  0  0  0  0  0  0  0  0  0  0
   59.7660   33.8350   51.2190 C   0  0  0  0  0  0  0  0  0  0  0  0
   58.8260   34.5750   51.6120 O   0  0  0  0  0  0  0  0  0  0  0  0
   59.9860   32.5840   51.8730 N   0  0  0  0  0  0  0  0  0  0  0  0
   59.1110   31.4280   51.7110 C   0  0  0  0  0  0  0  0  0  0  0  0
   59.7470   30.4060   50.8070 C   0  0  0  0  0  0  0  0  0  0  0  0
   60.2770   29.2250   51.3530 C   0  0  0  0  0  0  0  0  0  0  0  0
   60.7900   28.2310   50.5180 C   0  0  0  0  0  0  0  0  0  0  0  0
   60.7610   28.3950   49.1330 C   0  0  0  0  0  0  0  0  0  0  0  0
   60.2370   29.5650   48.5690 C   0  0  0  0  0  0  0  0  0  0  0  0
   60.1700   29.6590   47.1730 O   0  0  0  0  0  0  0  0  0  0  0  0
   59.0760   29.2830   46.3800 C   0  0  0  0  0  0  0  0  0  0  0  0
   58.5240   30.2320   45.5110 C   0  0  0  0  0  0  0  0  0  0  0  0
   57.4040   29.9170   44.7390 C   0  0  0  0  0  0  0  0  0  0  0  0
   56.8120   28.6570   44.8470 C   0  0  0  0  0  0  0  0  0  0  0  0
   57.3390   27.7040   45.7280 C   0  0  0  0  0  0  0  0  0  0  0  0
   56.5470   26.1390   45.8860 S   0  0  0  0  0  0  0  0  0  0  0  0
   54.8330   26.3320   45.9950 N   0  0  0  0  0  0  0  0  0  0  0  0
   56.8630   25.2970   44.6810 O   0  0  0  0  0  0  0  0  0  0  0  0
   57.0530   25.4500   47.1210 O   0  0  0  0  0  0  0  0  0  0  0  0
   58.4820   28.0110   46.4830 C   0  0  0  0  0  0  0  0  0  0  0  0
   59.7320   30.5740   49.4110 C   0  0  0  0  0  0  0  0  0  0  0  0
   62.9968   31.3739   52.0580 H   0  0  0  0  0  0  0  0  0  0  0  0
   62.5931   30.1809   50.7771 H   0  0  0  0  0  0  0  0  0  0  0  0
   64.1965   30.9908   50.7771 H   0  0  0  0  0  0  0  0  0  0  0  0
   61.6660   32.6150   50.4240 H   0  0  0  0  0  0  0  0  0  0  0  0
   61.8617   33.2624   45.7470 H   0  0  0  0  0  0  0  0  0  0  0  0
   59.5060   33.2428   44.9363 H   0  0  0  0  0  0  0  0  0  0  0  0
   57.6320   33.6476   46.5309 H   0  0  0  0  0  0  0  0  0  0  0  0
   58.1086   34.0820   48.9381 H   0  0  0  0  0  0  0  0  0  0  0  0
   58.9252   30.9742   52.6956 H   0  0  0  0  0  0  0  0  0  0  0  0
   58.1638   31.7599   51.2607 H   0  0  0  0  0  0  0  0  0  0  0  0
   60.2878   29.0830   52.4437 H   0  0  0  0  0  0  0  0  0  0  0  0
   61.2182   27.3160   50.9532 H   0  0  0  0  0  0  0  0  0  0  0  0
   61.1520   27.6008   48.4800 H   0  0  0  0  0  0  0  0  0  0  0  0
   58.9756   31.2322   45.4360 H   0  0  0  0  0  0  0  0  0  0  0  0
   56.9877   30.6621   44.0451 H   0  0  0  0  0  0  0  0  0  0  0  0
   55.9291   28.4120   44.2384 H   0  0  0  0  0  0  0  0  0  0  0  0
   54.6540   27.0980   46.6820 H   0  0  0  0  0  0  0  0  0  0  0  0
   58.9142   27.2562   47.1563 H   0  0  0  0  0  0  0  0  0  0  0  0
   59.3239   31.4978   48.9749 H   0  0  0  0  0  0  0  0  0  0  0  0
  1  2  1  0
  2  3  1  0
  3  4  2  0
  3  5  1  0
  5  6  1  0
  6  7  2  0
  7  8  1  0
  8  9  2  0
  9 10  1  0
 10 11  2  0
 11 12  1  0
 12 13  1  0
 13 14  2  0
 13 15  1  0
 15 16  1  0
 16 17  1  0
 17 18  2  0
 18 19  1  0
 19 20  2  0
 20 21  1  0
 21 22  1  0
 22 23  1  0
 23 24  2  0
 24 25  1  0
 25 26  2  0
 26 27  1  0
 27 28  1  0
 28 29  1  0
 28 30  2  0
 28 31  2  0
 27 32  2  0
 21 33  2  0
 11  6  1  0
 33 17  1  0
 32 23  1  0
  1 34  1  0
  1 35  1  0
  1 36  1  0
  2 37  1  0
  7 38  1  0
  8 39  1  0
  9 40  1  0
 10 41  1  0
 16 42  1  0
 16 43  1  0
 18 44  1  0
 19 45  1  0
 20 46  1  0
 24 47  1  0
 25 48  1  0
 26 49  1  0
 29 50  1  0
 32 51  1  0
 33 52  1  0
M  CHG  3  12  -1  15  -1  29  -1
M  END
>  <UniqueID>  (75) 
69

>  <SMILES>  (75) 
CNC(=O)Oc1ccccc1[N-]C(=O)[N-]Cc1cccc(Oc2cccc(S([NH-])(=O)=O)c2)c1

>  <Energy>  (75) 
61.31966871544327

>  <Genealogy>  (75) 
CNC(=O)Oc1ccccc1[N-]C(=O)[N-]Cc1cccc(Oc2cccc(S([NH-])(=O)=O)c2)c1 (protonated)
CNC(=O)Oc1ccccc1[N-]C(=O)[N-]Cc1cccc(Oc2cccc(S([NH-])(=O)=O)c2)c1 (3D coordinates assigned)
CNC(=O)Oc1ccccc1[N-]C(=O)[N-]Cc1cccc(Oc2cccc(S([NH-])(=O)=O)c2)c1 (optimized conformer: 61.31966871544327 kcal/mol)

>  <smiles>  (75) 
CNC(=O)Oc1ccccc1NC(=O)NCc1cccc(Oc2cccc(S(N)(=O)=O)c2)c1

>  <score_type>  (75) 
oracle

>  <origin>  (75) 
adg

>  <m_score__min__energy>  (75) 
-13.24

>  <m_primary>  (75) 
energy

$$$$
75:0
     RDKit          3D

 30 32  0  0  0  0  0  0  0  0999 V2000
   58.0400   27.5410   46.9490 O   0  0  0  0  0  0  0  0  0  0  0  0
   57.0630   27.2840   46.1950 C   0  0  0  0  0  0  0  0  0  0  0  0
   56.4330   25.9970   46.2300 N   0  0  0  0  0  0  0  0  0  0  0  0
   56.8680   24.8130   45.5470 C   0  0  0  0  0  0  0  0  0  0  0  0
   58.1400   24.2790   45.8650 C   0  0  0  0  0  0  0  0  0  0  0  0
   58.6040   23.1070   45.2380 C   0  0  0  0  0  0  0  0  0  0  0  0
   57.7670   22.4890   44.3160 C   0  0  0  0  0  0  0  0  0  0  0  0
   56.5380   22.9820   44.0190 C   0  0  0  0  0  0  0  0  0  0  0  0
   56.0410   24.1390   44.6160 C   0  0  0  0  0  0  0  0  0  0  0  0
   55.9270   22.1630   43.0900 O   0  0  0  0  0  0  0  0  0  0  0  0
   56.8300   21.0930   42.7790 C   0  0  0  0  0  0  0  0  0  0  0  0
   57.9910   21.3400   43.5840 O   0  0  0  0  0  0  0  0  0  0  0  0
   56.5510   28.2880   45.3110 N   0  0  0  0  0  0  0  0  0  0  0  0
   57.0880   29.6170   45.2530 C   0  0  0  0  0  0  0  0  0  0  0  0
   57.7780   30.1210   46.3640 C   0  0  0  0  0  0  0  0  0  0  0  0
   58.3120   31.4120   46.3390 C   0  0  0  0  0  0  0  0  0  0  0  0
   58.1760   32.2040   45.1950 C   0  0  0  0  0  0  0  0  0  0  0  0
   58.8500   33.8240   45.1630 Cl  0  0  0  0  0  0  0  0  0  0  0  0
   57.5140   31.6990   44.0710 C   0  0  0  0  0  0  0  0  0  0  0  0
   56.9760   30.4070   44.0890 C   0  0  0  0  0  0  0  0  0  0  0  0
   56.2400   29.7830   42.6170 Cl  0  0  0  0  0  0  0  0  0  0  0  0
   58.7722   24.7849   46.6095 H   0  0  0  0  0  0  0  0  0  0  0  0
   59.5966   22.6937   45.4701 H   0  0  0  0  0  0  0  0  0  0  0  0
   55.0373   24.5170   44.3715 H   0  0  0  0  0  0  0  0  0  0  0  0
   56.3814   20.1219   43.0354 H   0  0  0  0  0  0  0  0  0  0  0  0
   57.0717   21.0554   41.7065 H   0  0  0  0  0  0  0  0  0  0  0  0
   55.9000   27.9840   44.5510 H   0  0  0  0  0  0  0  0  0  0  0  0
   57.8999   29.4964   47.2612 H   0  0  0  0  0  0  0  0  0  0  0  0
   58.8399   31.8055   47.2202 H   0  0  0  0  0  0  0  0  0  0  0  0
   57.4158   32.3203   43.1686 H   0  0  0  0  0  0  0  0  0  0  0  0
  1  2  2  0
  2  3  1  0
  3  4  1  0
  4  5  2  0
  5  6  1  0
  6  7  2  0
  7  8  1  0
  8  9  2  0
  8 10  1  0
 10 11  1  0
 11 12  1  0
  2 13  1  0
 13 14  1  0
 14 15  2  0
 15 16  1  0
 16 17  2  0
 17 18  1  0
 17 19  1  0
 19 20  2  0
 20 21  1  0
  9  4  1  0
 20 14  1  0
 12  7  1  0
  5 22  1  0
  6 23  1  0
  9 24  1  0
 11 25  1  0
 11 26  1  0
 13 27  1  0
 15 28  1  0
 16 29  1  0
 19 30  1  0
M  CHG  1   3  -1
M  END
>  <UniqueID>  (76) 
70

>  <SMILES>  (76) 
O=C([N-]c1ccc2c(c1)OCO2)Nc1ccc(Cl)cc1Cl

>  <Energy>  (76) 
69.32345866290909

>  <Genealogy>  (76) 
O=C([N-]c1ccc2c(c1)OCO2)Nc1ccc(Cl)cc1Cl (protonated)
O=C([N-]c1ccc2c(c1)OCO2)Nc1ccc(Cl)cc1Cl (3D coordinates assigned)
O=C([N-]c1ccc2c(c1)OCO2)Nc1ccc(Cl)cc1Cl (nonaromatic ring conformer: 69.32345866290909 kcal/mol)

>  <smiles>  (76) 
O=C(Nc1ccc2c(c1)OCO2)Nc1ccc(Cl)cc1Cl

>  <score_type>  (76) 
oracle

>  <origin>  (76) 
adg

>  <m_score__min__energy>  (76) 
-8.9000000000000004

>  <m_primary>  (76) 
energy

$$$$
76:0
     RDKit          3D

 60 63  0  0  0  0  0  0  0  0999 V2000
   56.1730   27.7194   45.1907 H   0  0  0  0  0  0  0  0  0  0  0  0
   56.9560   28.4140   45.5290 C   0  0  0  0  0  0  0  0  0  0  0  0
   56.8690   29.7320   45.2190 N   0  0  0  0  0  0  0  0  0  0  0  0
   57.8090   30.6270   45.6200 C   0  0  0  0  0  0  0  0  0  0  0  0
   57.6770   31.9750   45.2680 C   0  0  0  0  0  0  0  0  0  0  0  0
   56.8157   32.3033   44.6676 H   0  0  0  0  0  0  0  0  0  0  0  0
   58.6360   32.9050   45.6770 C   0  0  0  0  0  0  0  0  0  0  0  0
   58.4740   34.5900   45.2220 Cl  0  0  0  0  0  0  0  0  0  0  0  0
   59.7250   32.4930   46.4490 C   0  0  0  0  0  0  0  0  0  0  0  0
   60.4759   33.2287   46.7728 H   0  0  0  0  0  0  0  0  0  0  0  0
   59.8650   31.1500   46.8120 C   0  0  0  0  0  0  0  0  0  0  0  0
   60.7196   30.8364   47.4295 H   0  0  0  0  0  0  0  0  0  0  0  0
   58.9170   30.1960   46.3910 C   0  0  0  0  0  0  0  0  0  0  0  0
   59.0380   28.8230   46.7100 C   0  0  0  0  0  0  0  0  0  0  0  0
   60.0810   28.4070   47.3750 N   0  0  0  0  0  0  0  0  0  0  0  0
   60.0830   27.6690   48.6370 C   0  0  0  0  0  0  0  0  0  0  0  0
   61.0995   27.3040   48.8455 H   0  0  0  0  0  0  0  0  0  0  0  0
   59.3925   26.8161   48.5613 H   0  0  0  0  0  0  0  0  0  0  0  0
   59.6310   28.5860   49.7700 C   0  0  0  0  0  0  0  0  0  0  0  0
   58.5399   28.5130   49.8886 H   0  0  0  0  0  0  0  0  0  0  0  0
   59.9035   29.6252   49.5338 H   0  0  0  0  0  0  0  0  0  0  0  0
   60.2960   28.1720   51.0320 N   0  0  0  0  0  0  0  0  0  0  0  0
   61.7690   28.1860   50.9060 C   0  0  0  0  0  0  0  0  0  0  0  0
   62.2168   27.8441   51.8508 H   0  0  0  0  0  0  0  0  0  0  0  0
   62.0630   27.5167   50.0841 H   0  0  0  0  0  0  0  0  0  0  0  0
   62.2550   29.5720   50.6020 C   0  0  0  0  0  0  0  0  0  0  0  0
   62.8160   30.2470   51.5090 O   0  0  0  0  0  0  0  0  0  0  0  0
   62.0180   30.1390   49.3050 N   0  0  0  0  0  0  0  0  0  0  0  0
   61.3560   29.6410   48.6700 H   0  0  0  0  0  0  0  0  0  0  0  0
   62.5710   31.3840   48.8480 C   0  0  0  0  0  0  0  0  0  0  0  0
   62.8940   31.5900   47.4930 C   0  0  0  0  0  0  0  0  0  0  0  0
   62.7523   30.7771   46.7656 H   0  0  0  0  0  0  0  0  0  0  0  0
   63.3940   32.8240   47.0700 C   0  0  0  0  0  0  0  0  0  0  0  0
   63.6555   32.9764   46.0125 H   0  0  0  0  0  0  0  0  0  0  0  0
   63.5630   33.8660   47.9870 C   0  0  0  0  0  0  0  0  0  0  0  0
   63.9639   34.8342   47.6525 H   0  0  0  0  0  0  0  0  0  0  0  0
   63.2220   33.6760   49.3290 C   0  0  0  0  0  0  0  0  0  0  0  0
   63.3480   34.4977   50.0494 H   0  0  0  0  0  0  0  0  0  0  0  0
   62.7210   32.4430   49.7570 C   0  0  0  0  0  0  0  0  0  0  0  0
   62.4428   32.3020   50.8119 H   0  0  0  0  0  0  0  0  0  0  0  0
   59.8480   28.9720   52.1940 C   0  0  0  0  0  0  0  0  0  0  0  0
   60.7303   29.3488   52.7321 H   0  0  0  0  0  0  0  0  0  0  0  0
   59.2415   28.3281   52.8478 H   0  0  0  0  0  0  0  0  0  0  0  0
   59.0000   30.1440   51.7550 C   0  0  0  0  0  0  0  0  0  0  0  0
   59.6130   31.2600   51.1620 C   0  0  0  0  0  0  0  0  0  0  0  0
   60.7046   31.2754   51.0274 H   0  0  0  0  0  0  0  0  0  0  0  0
   58.8480   32.3500   50.7420 C   0  0  0  0  0  0  0  0  0  0  0  0
   59.6940   33.8600   49.9340 Br  0  0  0  0  0  0  0  0  0  0  0  0
   57.4630   32.3370   50.9130 C   0  0  0  0  0  0  0  0  0  0  0  0
   56.8613   33.1971   50.5841 H   0  0  0  0  0  0  0  0  0  0  0  0
   56.8390   31.2340   51.5010 C   0  0  0  0  0  0  0  0  0  0  0  0
   55.7465   31.2292   51.6292 H   0  0  0  0  0  0  0  0  0  0  0  0
   57.5980   30.1280   51.9310 C   0  0  0  0  0  0  0  0  0  0  0  0
   56.9950   28.9990   52.5110 O   0  0  0  0  0  0  0  0  0  0  0  0
   55.7050   28.9980   53.1110 C   0  0  0  0  0  0  0  0  0  0  0  0
   55.8099   28.9981   54.2060 H   0  0  0  0  0  0  0  0  0  0  0  0
   55.1532   29.8957   52.7955 H   0  0  0  0  0  0  0  0  0  0  0  0
   55.1545   28.0994   52.7955 H   0  0  0  0  0  0  0  0  0  0  0  0
   58.0340   27.9350   46.2750 C   0  0  0  0  0  0  0  0  0  0  0  0
   58.0998   26.8654   46.5231 H   0  0  0  0  0  0  0  0  0  0  0  0
  1  2  1  0
  2  3  1  0
  3  4  1  0
  4  5  2  0
  5  6  1  0
  5  7  1  0
  7  8  1  0
  7  9  2  0
  9 10  1  0
  9 11  1  0
 11 12  1  0
 11 13  2  0
 13 14  1  0
 14 15  2  0
 15 16  1  0
 16 17  1  0
 16 18  1  0
 16 19  1  0
 19 20  1  0
 19 21  1  0
 19 22  1  0
 22 23  1  0
 23 24  1  0
 23 25  1  0
 23 26  1  0
 26 27  2  0
 26 28  1  0
 28 29  1  0
 28 30  1  0
 30 31  2  0
 31 32  1  0
 31 33  1  0
 33 34  1  0
 33 35  2  0
 35 36  1  0
 35 37  1  0
 37 38  1  0
 37 39  2  0
 39 40  1  0
 22 41  1  0
 41 42  1  0
 41 43  1  0
 41 44  1  0
 44 45  2  0
 45 46  1  0
 45 47  1  0
 47 48  1  0
 47 49  2  0
 49 50  1  0
 49 51  1  0
 51 52  1  0
 51 53  2  0
 53 54  1  0
 54 55  1  0
 55 56  1  0
 55 57  1  0
 55 58  1  0
 14 59  1  0
 59 60  1  0
 59  2  2  0
 13  4  1  0
 39 30  1  0
 53 44  1  0
M  CHG  1   3  -1
M  END
>  <UniqueID>  (77) 
71

>  <SMILES>  (77) 
COc1ccc(Br)cc1CN(CC/N=c1\cc[n-]c2cc(Cl)ccc12)CC(=O)Nc1ccccc1

>  <Energy>  (77) 
67.70161835922875

>  <Genealogy>  (77) 
COc1ccc(Br)cc1CN(CCN=c1cc[n-]c2cc(Cl)ccc12)CC(=O)Nc1ccccc1 (protonated)
COc1ccc(Br)cc1CN(CC/N=c1\cc[n-]c2cc(Cl)ccc12)CC(=O)Nc1ccccc1 (cis-trans isomerization)
COc1ccc(Br)cc1CN(CC/N=c1\cc[n-]c2cc(Cl)ccc12)CC(=O)Nc1ccccc1 (3D coordinates assigned)
COc1ccc(Br)cc1CN(CC/N=c1\cc[n-]c2cc(Cl)ccc12)CC(=O)Nc1ccccc1 (optimized conformer: 67.70161835922875 kcal/mol)

>  <smiles>  (77) 
COc1ccc(Br)cc1CN(CCN=c1cc[nH]c2cc(Cl)ccc12)CC(=O)Nc1ccccc1

>  <score_type>  (77) 
oracle

>  <origin>  (77) 
adg

>  <m_score__min__energy>  (77) 
-11.01

>  <m_primary>  (77) 
energy

$$$$
77:0
     RDKit          3D

 32 33  0  0  0  0  0  0  0  0999 V2000
   56.2150   29.5510   44.5390 C   0  0  0  0  0  0  0  0  0  0  0  0
   56.7230   28.5110   45.2060 C   0  0  0  0  0  0  0  0  0  0  0  0
   55.8900   27.5140   45.6190 N   0  0  0  0  0  0  0  0  0  0  0  0
   56.5230   26.6160   46.3980 C   0  0  0  0  0  0  0  0  0  0  0  0
   55.9490   25.6140   46.8990 O   0  0  0  0  0  0  0  0  0  0  0  0
   58.1360   26.9950   46.6250 S   0  0  0  0  0  0  0  0  0  0  0  0
   58.0640   28.3680   45.6470 C   0  0  0  0  0  0  0  0  0  0  0  0
   59.1600   29.1050   45.3890 C   0  0  0  0  0  0  0  0  0  0  0  0
   59.6350   30.2480   46.1810 C   0  0  0  0  0  0  0  0  0  0  0  0
   61.2100   30.4290   46.7290 S   0  0  0  0  0  0  0  0  0  0  0  0
   60.9360   31.9700   47.3360 C   0  0  0  0  0  0  0  0  0  0  0  0
   62.0940   32.8410   48.1050 S   0  0  0  0  0  0  0  0  0  0  0  0
   59.6590   32.3880   47.1070 N   0  0  0  0  0  0  0  0  0  0  0  0
   59.1480   33.7130   47.5020 C   0  0  0  0  0  0  0  0  0  0  0  0
   59.5810   34.8080   46.5100 C   0  0  0  0  0  0  0  0  0  0  0  0
   59.2000   34.5100   45.0510 C   0  0  0  0  0  0  0  0  0  0  0  0
   57.7000   34.2760   44.8750 C   0  0  0  0  0  0  0  0  0  0  0  0
   58.9380   31.4290   46.4400 C   0  0  0  0  0  0  0  0  0  0  0  0
   57.6150   31.5930   46.0220 O   0  0  0  0  0  0  0  0  0  0  0  0
   56.8755   30.3626   44.1998 H   0  0  0  0  0  0  0  0  0  0  0  0
   55.1362   29.5958   44.3290 H   0  0  0  0  0  0  0  0  0  0  0  0
   59.7537   28.8268   44.5058 H   0  0  0  0  0  0  0  0  0  0  0  0
   58.0491   33.6761   47.5352 H   0  0  0  0  0  0  0  0  0  0  0  0
   59.5636   33.9608   48.4899 H   0  0  0  0  0  0  0  0  0  0  0  0
   59.1033   35.7533   46.8069 H   0  0  0  0  0  0  0  0  0  0  0  0
   60.6790   34.8600   46.5499 H   0  0  0  0  0  0  0  0  0  0  0  0
   59.4996   35.3645   44.4264 H   0  0  0  0  0  0  0  0  0  0  0  0
   59.7200   33.5883   44.7509 H   0  0  0  0  0  0  0  0  0  0  0  0
   57.2221   34.2015   45.8630 H   0  0  0  0  0  0  0  0  0  0  0  0
   57.2607   35.1165   44.3177 H   0  0  0  0  0  0  0  0  0  0  0  0
   57.5376   33.3417   44.3177 H   0  0  0  0  0  0  0  0  0  0  0  0
   56.9180   30.8670   46.0760 H   0  0  0  0  0  0  0  0  0  0  0  0
  1  2  2  0
  2  3  1  0
  3  4  1  0
  4  5  2  0
  4  6  1  0
  6  7  1  0
  7  8  2  3
  8  9  1  0
  9 10  1  0
 10 11  1  0
 11 12  2  0
 11 13  1  0
 13 14  1  0
 14 15  1  0
 15 16  1  0
 16 17  1  0
 13 18  1  0
 18 19  1  0
  7  2  1  0
 18  9  2  0
  1 20  1  0
  1 21  1  0
  8 22  1  0
 14 23  1  0
 14 24  1  0
 15 25  1  0
 15 26  1  0
 16 27  1  0
 16 28  1  0
 17 29  1  0
 17 30  1  0
 17 31  1  0
 19 32  1  0
M  CHG  1   3  -1
M  END
>  <UniqueID>  (78) 
72

>  <SMILES>  (78) 
C=c1[n-]c(=O)sc1=Cc1sc(=S)n(CCCC)c1O

>  <Energy>  (78) 
103.12586970708134

>  <Genealogy>  (78) 
C=c1[n-]c(=O)sc1=Cc1sc(=S)n(CCCC)c1O (protonated)
C=c1[n-]c(=O)sc1=Cc1sc(=S)n(CCCC)c1O (3D coordinates assigned)
C=c1[n-]c(=O)sc1=Cc1sc(=S)n(CCCC)c1O (optimized conformer: 103.12586970708134 kcal/mol)

>  <smiles>  (78) 
C=c1[nH]c(=O)sc1=Cc1sc(=S)n(CCCC)c1O

>  <score_type>  (78) 
oracle

>  <origin>  (78) 
adg

>  <m_score__min__energy>  (78) 
-8.8300000000000001

>  <m_primary>  (78) 
energy

$$$$
78:0
     RDKit          3D

 52 56  0  0  0  0  0  0  0  0999 V2000
   57.9354   33.7632   52.2744 H   0  0  0  0  0  0  0  0  0  0  0  0
   58.2660   32.9150   51.6570 C   0  0  0  0  0  0  0  0  0  0  0  0
   59.4990   32.9320   51.0850 N   0  0  0  0  0  0  0  0  0  0  0  0
   59.9360   31.9210   50.2820 C   0  0  0  0  0  0  0  0  0  0  0  0
   61.1310   31.9430   49.7730 N   0  0  0  0  0  0  0  0  0  0  0  0
   61.6240   33.0580   48.5390 S   0  0  0  0  0  0  0  0  0  0  0  0
   62.0590   34.3470   49.1790 O   0  0  0  0  0  0  0  0  0  0  0  0
   62.7820   32.4730   47.7800 O   0  0  0  0  0  0  0  0  0  0  0  0
   60.2670   33.3790   47.4650 C   0  0  0  0  0  0  0  0  0  0  0  0
   60.0620   34.6750   46.9740 C   0  0  0  0  0  0  0  0  0  0  0  0
   60.7632   35.4793   47.2412 H   0  0  0  0  0  0  0  0  0  0  0  0
   58.9700   34.9500   46.1460 C   0  0  0  0  0  0  0  0  0  0  0  0
   58.8142   35.9686   45.7610 H   0  0  0  0  0  0  0  0  0  0  0  0
   58.0750   33.9290   45.8070 C   0  0  0  0  0  0  0  0  0  0  0  0
   57.0130   34.1970   45.0080 F   0  0  0  0  0  0  0  0  0  0  0  0
   58.2780   32.6340   46.2910 C   0  0  0  0  0  0  0  0  0  0  0  0
   57.5763   31.8311   46.0208 H   0  0  0  0  0  0  0  0  0  0  0  0
   59.3710   32.3560   47.1180 C   0  0  0  0  0  0  0  0  0  0  0  0
   59.5285   31.3353   47.4966 H   0  0  0  0  0  0  0  0  0  0  0  0
   59.0920   30.8390   50.0120 C   0  0  0  0  0  0  0  0  0  0  0  0
   59.4228   30.0310   49.3428 H   0  0  0  0  0  0  0  0  0  0  0  0
   57.8260   30.7930   50.5990 C   0  0  0  0  0  0  0  0  0  0  0  0
   57.1498   29.9521   50.3856 H   0  0  0  0  0  0  0  0  0  0  0  0
   57.4180   31.8220   51.4620 C   0  0  0  0  0  0  0  0  0  0  0  0
   56.1270   31.8060   52.0910 N   0  0  0  0  0  0  0  0  0  0  0  0
   55.4320   30.7940   52.5520 C   0  0  0  0  0  0  0  0  0  0  0  0
   54.0690   30.7160   52.1830 C   0  0  0  0  0  0  0  0  0  0  0  0
   53.3880   31.8180   51.6170 C   0  0  0  0  0  0  0  0  0  0  0  0
   53.9117   32.7771   51.4906 H   0  0  0  0  0  0  0  0  0  0  0  0
   52.0550   31.6980   51.2170 C   0  0  0  0  0  0  0  0  0  0  0  0
   51.3920   32.7930   50.6750 O   0  0  0  0  0  0  0  0  0  0  0  0
   51.3870   30.4810   51.3570 C   0  0  0  0  0  0  0  0  0  0  0  0
   50.3368   30.3914   51.0423 H   0  0  0  0  0  0  0  0  0  0  0  0
   52.0500   29.3770   51.8960 C   0  0  0  0  0  0  0  0  0  0  0  0
   51.5218   28.4173   51.9955 H   0  0  0  0  0  0  0  0  0  0  0  0
   53.3870   29.4840   52.3120 C   0  0  0  0  0  0  0  0  0  0  0  0
   54.0360   28.3930   52.8020 N   0  0  0  0  0  0  0  0  0  0  0  0
   53.5290   27.4770   52.8440 H   0  0  0  0  0  0  0  0  0  0  0  0
   55.2980   28.4760   53.3090 C   0  0  0  0  0  0  0  0  0  0  0  0
   55.8850   27.3420   53.8870 C   0  0  0  0  0  0  0  0  0  0  0  0
   55.3693   26.3718   53.8341 H   0  0  0  0  0  0  0  0  0  0  0  0
   57.1160   27.4370   54.5270 C   0  0  0  0  0  0  0  0  0  0  0  0
   57.6036   26.5316   54.9175 H   0  0  0  0  0  0  0  0  0  0  0  0
   57.7320   28.6770   54.6740 C   0  0  0  0  0  0  0  0  0  0  0  0
   58.6839   28.7520   55.2201 H   0  0  0  0  0  0  0  0  0  0  0  0
   57.1460   29.8360   54.1290 C   0  0  0  0  0  0  0  0  0  0  0  0
   57.6280   31.1100   54.4730 O   0  0  0  0  0  0  0  0  0  0  0  0
   59.0010   31.4440   54.6570 C   0  0  0  0  0  0  0  0  0  0  0  0
   59.2242   31.4983   55.7328 H   0  0  0  0  0  0  0  0  0  0  0  0
   59.6316   30.6731   54.1901 H   0  0  0  0  0  0  0  0  0  0  0  0
   59.2071   32.4185   54.1901 H   0  0  0  0  0  0  0  0  0  0  0  0
   55.9960   29.7120   53.2970 C   0  0  0  0  0  0  0  0  0  0  0  0
  1  2  1  0
  2  3  1  0
  3  4  1  0
  4  5  2  0
  5  6  1  0
  6  7  2  0
  6  8  2  0
  6  9  1  0
  9 10  2  0
 10 11  1  0
 10 12  1  0
 12 13  1  0
 12 14  2  0
 14 15  1  0
 14 16  1  0
 16 17  1  0
 16 18  2  0
 18 19  1  0
  4 20  1  0
 20 21  1  0
 20 22  2  0
 22 23  1  0
 22 24  1  0
 24 25  1  0
 25 26  2  0
 26 27  1  0
 27 28  2  0
 28 29  1  0
 28 30  1  0
 30 31  1  0
 30 32  2  0
 32 33  1  0
 32 34  1  0
 34 35  1  0
 34 36  2  0
 36 37  1  0
 37 38  1  0
 37 39  1  0
 39 40  2  0
 40 41  1  0
 40 42  1  0
 42 43  1  0
 42 44  2  0
 44 45  1  0
 44 46  1  0
 46 47  1  0
 47 48  1  0
 48 49  1  0
 48 50  1  0
 48 51  1  0
 46 52  2  0
 24  2  2  0
 52 26  1  0
 18  9  1  0
 36 27  1  0
 52 39  1  0
M  CHG  2   3  -1  31  -1
M  END
>  <UniqueID>  (79) 
73

>  <SMILES>  (79) 
COc1cccc2[nH]c3ccc([O-])cc3/c(=N/c3cc/c(=N/S(=O)(=O)c4ccc(F)cc4)[n-]c3)c12

>  <Energy>  (79) 
94.5588223836681

>  <Genealogy>  (79) 
COc1cccc2[nH]c3ccc([O-])cc3c(=Nc3ccc(=NS(=O)(=O)c4ccc(F)cc4)[n-]c3)c12 (protonated)
COc1cccc2[nH]c3ccc([O-])cc3/c(=N/c3cc/c(=N/S(=O)(=O)c4ccc(F)cc4)[n-]c3)c12 (cis-trans isomerization)
COc1cccc2[nH]c3ccc([O-])cc3/c(=N/c3cc/c(=N/S(=O)(=O)c4ccc(F)cc4)[n-]c3)c12 (3D coordinates assigned)
COc1cccc2[nH]c3ccc([O-])cc3/c(=N/c3cc/c(=N/S(=O)(=O)c4ccc(F)cc4)[n-]c3)c12 (optimized conformer: 94.5588223836681 kcal/mol)

>  <smiles>  (79) 
COc1cccc2[nH]c3ccc(O)cc3c(=Nc3ccc(=NS(=O)(=O)c4ccc(F)cc4)[nH]c3)c12

>  <score_type>  (79) 
oracle

>  <origin>  (79) 
adg

>  <m_score__min__energy>  (79) 
-13.51

>  <m_primary>  (79) 
energy

$$$$
79:0
     RDKit          3D

 41 42  0  0  0  0  0  0  0  0999 V2000
   60.3340   28.6080   45.9440 C   0  0  0  0  0  0  0  0  0  0  0  0
   59.4180   28.1510   47.3980 S   0  0  0  0  0  0  0  0  0  0  0  0
   60.3120   28.3100   48.5940 O   0  0  0  0  0  0  0  0  0  0  0  0
   58.2260   29.0560   47.5340 O   0  0  0  0  0  0  0  0  0  0  0  0
   58.8960   26.4460   47.2340 C   0  0  0  0  0  0  0  0  0  0  0  0
   58.4590   26.0600   45.8080 C   0  0  0  0  0  0  0  0  0  0  0  0
   57.0710   26.5740   45.3490 C   0  0  2  0  0  0  0  0  0  0  0  0
   57.0250   28.0430   45.3120 N   0  0  0  0  0  0  0  0  0  0  0  0
   57.3810   28.7860   44.1350 C   0  0  0  0  0  0  0  0  0  0  0  0
   57.5400   28.1870   43.0370 O   0  0  0  0  0  0  0  0  0  0  0  0
   57.5650   30.2480   44.1840 C   0  0  0  0  0  0  0  0  0  0  0  0
   57.9730   31.0060   45.2780 C   0  0  0  0  0  0  0  0  0  0  0  0
   58.0800   32.3740   44.9960 C   0  0  0  0  0  0  0  0  0  0  0  0
   57.7630   32.7010   43.6850 C   0  0  0  0  0  0  0  0  0  0  0  0
   57.3520   31.2860   42.8770 S   0  0  0  0  0  0  0  0  0  0  0  0
   55.9560   25.9850   46.1820 C   0  0  0  0  0  0  0  0  0  0  0  0
   54.7670   26.3360   45.9530 O   0  0  0  0  0  0  0  0  0  0  0  0
   56.2280   24.9850   47.1700 N   0  0  0  0  0  0  0  0  0  0  0  0
   56.3350   23.5630   46.8750 C   0  0  0  0  0  0  0  0  0  0  0  0
   56.3330   23.3550   45.3950 C   0  0  0  0  0  0  0  0  0  0  0  0
   55.2220   23.4470   44.5670 C   0  0  0  0  0  0  0  0  0  0  0  0
   55.4910   23.0860   43.2420 C   0  0  0  0  0  0  0  0  0  0  0  0
   56.8060   22.6960   43.0280 C   0  0  0  0  0  0  0  0  0  0  0  0
   57.6340   22.7960   44.4880 S   0  0  0  0  0  0  0  0  0  0  0  0
   61.2817   29.0808   46.2412 H   0  0  0  0  0  0  0  0  0  0  0  0
   60.5444   27.7093   45.3457 H   0  0  0  0  0  0  0  0  0  0  0  0
   59.7425   29.3166   45.3457 H   0  0  0  0  0  0  0  0  0  0  0  0
   59.7351   25.7975   47.5263 H   0  0  0  0  0  0  0  0  0  0  0  0
   58.0167   26.3181   47.8824 H   0  0  0  0  0  0  0  0  0  0  0  0
   59.2103   26.4563   45.1091 H   0  0  0  0  0  0  0  0  0  0  0  0
   58.3764   24.9631   45.8149 H   0  0  0  0  0  0  0  0  0  0  0  0
   56.9122   26.2256   44.3178 H   0  0  0  0  0  0  0  0  0  0  0  0
   56.6520   28.5720   46.1300 H   0  0  0  0  0  0  0  0  0  0  0  0
   58.1899   30.5736   46.2659 H   0  0  0  0  0  0  0  0  0  0  0  0
   58.3868   33.1198   45.7442 H   0  0  0  0  0  0  0  0  0  0  0  0
   57.7782   33.7113   43.2502 H   0  0  0  0  0  0  0  0  0  0  0  0
   57.2716   23.1711   47.2982 H   0  0  0  0  0  0  0  0  0  0  0  0
   55.4794   23.0331   47.3189 H   0  0  0  0  0  0  0  0  0  0  0  0
   54.2308   23.7709   44.9172 H   0  0  0  0  0  0  0  0  0  0  0  0
   54.7325   23.1091   42.4457 H   0  0  0  0  0  0  0  0  0  0  0  0
   57.2337   22.3759   42.0665 H   0  0  0  0  0  0  0  0  0  0  0  0
  1  2  1  0
  2  3  2  0
  2  4  2  0
  2  5  1  0
  5  6  1  0
  6  7  1  0
  7  8  1  0
  8  9  1  0
  9 10  2  0
  9 11  1  0
 11 12  2  0
 12 13  1  0
 13 14  2  0
 14 15  1  0
  7 16  1  0
 16 17  2  0
 16 18  1  0
 18 19  1  0
 19 20  1  0
 20 21  2  0
 21 22  1  0
 22 23  2  0
 23 24  1  0
 15 11  1  0
 24 20  1  0
  1 25  1  0
  1 26  1  0
  1 27  1  0
  5 28  1  0
  5 29  1  0
  6 30  1  0
  6 31  1  0
  7 32  1  6
  8 33  1  0
 12 34  1  0
 13 35  1  0
 14 36  1  0
 19 37  1  0
 19 38  1  0
 21 39  1  0
 22 40  1  0
 23 41  1  0
M  CHG  1  18  -1
M  END
>  <UniqueID>  (80) 
74

>  <SMILES>  (80) 
CS(=O)(=O)CC[C@H](NC(=O)c1cccs1)C(=O)[N-]Cc1cccs1

>  <Energy>  (80) 
78.54991206488556

>  <Genealogy>  (80) 
CS(=O)(=O)CCC(NC(=O)c1cccs1)C(=O)[N-]Cc1cccs1 (protonated)
CS(=O)(=O)CC[C@H](NC(=O)c1cccs1)C(=O)[N-]Cc1cccs1 (chirality)
CS(=O)(=O)CC[C@H](NC(=O)c1cccs1)C(=O)[N-]Cc1cccs1 (3D coordinates assigned)
CS(=O)(=O)CC[C@H](NC(=O)c1cccs1)C(=O)[N-]Cc1cccs1 (optimized conformer: 78.54991206488556 kcal/mol)

>  <smiles>  (80) 
CS(=O)(=O)CCC(NC(=O)c1cccs1)C(=O)NCc1cccs1

>  <score_type>  (80) 
oracle

>  <origin>  (80) 
adg

>  <m_score__min__energy>  (80) 
-9.9800000000000004

>  <m_primary>  (80) 
energy

$$$$
80:0
     RDKit          3D

 45 48  0  0  0  0  0  0  0  0999 V2000
   59.6610   29.3110   46.0220 H   0  0  0  0  0  0  0  0  0  0  0  0
   59.0460   29.2390   45.2220 O   0  0  0  0  0  0  0  0  0  0  0  0
   57.7090   29.7060   45.2050 C   0  0  0  0  0  0  0  0  0  0  0  0
   57.3040   31.1240   44.9370 C   0  0  0  0  0  0  0  0  0  0  0  0
   58.2660   31.4790   46.0390 C   0  0  0  0  0  0  0  0  0  0  0  0
   58.3750   30.7080   47.0970 N   0  0  0  0  0  0  0  0  0  0  0  0
   59.5430   30.0690   47.4530 O   0  0  0  0  0  0  0  0  0  0  0  0
   60.0160   30.1260   48.7890 C   0  0  0  0  0  0  0  0  0  0  0  0
   59.2823   30.6537   49.4160 H   0  0  0  0  0  0  0  0  0  0  0  0
   60.1575   29.1049   49.1729 H   0  0  0  0  0  0  0  0  0  0  0  0
   61.3250   30.8610   48.8230 C   0  0  0  0  0  0  0  0  0  0  0  0
   61.6800   31.7100   47.7630 C   0  0  0  0  0  0  0  0  0  0  0  0
   61.0216   31.7915   46.8856 H   0  0  0  0  0  0  0  0  0  0  0  0
   62.8620   32.4520   47.8130 C   0  0  0  0  0  0  0  0  0  0  0  0
   63.1366   33.1039   46.9706 H   0  0  0  0  0  0  0  0  0  0  0  0
   63.7000   32.3680   48.9350 C   0  0  0  0  0  0  0  0  0  0  0  0
   64.8860   33.1160   49.0010 C   0  0  0  0  0  0  0  0  0  0  0  0
   65.1685   33.7719   48.1644 H   0  0  0  0  0  0  0  0  0  0  0  0
   65.7090   33.0290   50.1280 C   0  0  0  0  0  0  0  0  0  0  0  0
   66.6394   33.6141   50.1733 H   0  0  0  0  0  0  0  0  0  0  0  0
   65.3540   32.2010   51.1980 C   0  0  0  0  0  0  0  0  0  0  0  0
   66.0042   32.1388   52.0830 H   0  0  0  0  0  0  0  0  0  0  0  0
   64.1740   31.4520   51.1450 C   0  0  0  0  0  0  0  0  0  0  0  0
   63.8979   30.8027   51.9889 H   0  0  0  0  0  0  0  0  0  0  0  0
   63.3410   31.5270   50.0170 C   0  0  0  0  0  0  0  0  0  0  0  0
   62.1540   30.7810   49.9550 C   0  0  0  0  0  0  0  0  0  0  0  0
   61.8712   30.1308   50.7960 H   0  0  0  0  0  0  0  0  0  0  0  0
   58.7740   32.8900   46.0570 C   0  0  0  0  0  0  0  0  0  0  0  0
   59.1380   33.5310   47.2630 C   0  0  0  0  0  0  0  0  0  0  0  0
   59.0638   32.9827   48.2137 H   0  0  0  0  0  0  0  0  0  0  0  0
   59.5910   34.8530   47.2620 C   0  0  0  0  0  0  0  0  0  0  0  0
   59.8989   35.3277   48.2053 H   0  0  0  0  0  0  0  0  0  0  0  0
   59.6540   35.5730   46.0680 C   0  0  0  0  0  0  0  0  0  0  0  0
   60.0244   36.6088   46.0679 H   0  0  0  0  0  0  0  0  0  0  0  0
   59.2460   34.9760   44.8740 C   0  0  0  0  0  0  0  0  0  0  0  0
   59.2792   35.5480   43.9350 H   0  0  0  0  0  0  0  0  0  0  0  0
   58.7950   33.6520   44.8690 C   0  0  0  0  0  0  0  0  0  0  0  0
   58.4523   33.1987   43.9271 H   0  0  0  0  0  0  0  0  0  0  0  0
   56.3860   30.7860   43.8870 C   0  0  0  0  0  0  0  0  0  0  0  0
   56.5058   31.2849   42.9140 H   0  0  0  0  0  0  0  0  0  0  0  0
   55.3430   29.8550   44.0290 C   0  0  0  0  0  0  0  0  0  0  0  0
   54.4040   29.9682   43.4674 H   0  0  0  0  0  0  0  0  0  0  0  0
   55.5250   28.8200   44.8720 N   0  0  0  0  0  0  0  0  0  0  0  0
   56.7450   28.6910   45.4300 C   0  0  0  0  0  0  0  0  0  0  0  0
   57.0420   27.6400   46.0570 O   0  0  0  0  0  0  0  0  0  0  0  0
  1  2  1  0
  2  3  1  0
  3  4  2  0
  4  5  1  0
  5  6  2  0
  6  7  1  0
  7  8  1  0
  8  9  1  0
  8 10  1  0
  8 11  1  0
 11 12  2  0
 12 13  1  0
 12 14  1  0
 14 15  1  0
 14 16  2  0
 16 17  1  0
 17 18  1  0
 17 19  2  0
 19 20  1  0
 19 21  1  0
 21 22  1  0
 21 23  2  0
 23 24  1  0
 23 25  1  0
 25 26  2  0
 26 27  1  0
  5 28  1  0
 28 29  2  0
 29 30  1  0
 29 31  1  0
 31 32  1  0
 31 33  2  0
 33 34  1  0
 33 35  1  0
 35 36  1  0
 35 37  2  0
 37 38  1  0
  4 39  1  0
 39 40  1  0
 39 41  2  0
 41 42  1  0
 41 43  1  0
 43 44  1  0
 44 45  2  0
 44  3  1  0
 26 11  1  0
 37 28  1  0
 25 16  1  0
M  CHG  1  43  -1
M  END
>  <UniqueID>  (81) 
75

>  <SMILES>  (81) 
O=c1[n-]ccc(/C(=N/OCc2ccc3ccccc3c2)c2ccccc2)c1O

>  <Energy>  (81) 
220.80785293330064

>  <Genealogy>  (81) 
O=c1[n-]ccc(C(=NOCc2ccc3ccccc3c2)c2ccccc2)c1O (protonated)
O=c1[n-]ccc(/C(=N/OCc2ccc3ccccc3c2)c2ccccc2)c1O (cis-trans isomerization)
O=c1[n-]ccc(/C(=N/OCc2ccc3ccccc3c2)c2ccccc2)c1O (3D coordinates assigned)
O=c1[n-]ccc(/C(=N/OCc2ccc3ccccc3c2)c2ccccc2)c1O (optimized conformer: 220.80785293330064 kcal/mol)

>  <smiles>  (81) 
O=c1[nH]ccc(C(=NOCc2ccc3ccccc3c2)c2ccccc2)c1O

>  <score_type>  (81) 
oracle

>  <origin>  (81) 
adg

>  <m_score__min__energy>  (81) 
-11.27

>  <m_primary>  (81) 
energy

$$$$
81:0
     RDKit          3D

 22 23  0  0  0  0  0  0  0  0999 V2000
   60.1616   32.7132   46.1513 H   0  0  0  0  0  0  0  0  0  0  0  0
   59.3030   32.0510   45.9660 C   0  0  0  0  0  0  0  0  0  0  0  0
   59.1810   30.4360   46.4270 S   0  0  0  0  0  0  0  0  0  0  0  0
   57.6420   30.2640   45.7820 C   0  0  0  0  0  0  0  0  0  0  0  0
   56.9620   29.1580   45.8320 N   0  0  0  0  0  0  0  0  0  0  0  0
   57.2820   27.9280   45.1600 C   0  0  0  0  0  0  0  0  0  0  0  0
   57.6270   27.9420   43.9460 O   0  0  0  0  0  0  0  0  0  0  0  0
   57.2130   26.6350   45.8960 C   0  0  0  0  0  0  0  0  0  0  0  0
   55.9740   26.0780   46.2770 C   0  0  0  0  0  0  0  0  0  0  0  0
   54.7750   26.7080   45.9640 O   0  0  0  0  0  0  0  0  0  0  0  0
   55.9350   24.8970   46.9480 N   0  0  0  0  0  0  0  0  0  0  0  0
   57.0710   24.2300   47.2650 C   0  0  0  0  0  0  0  0  0  0  0  0
   57.0050   23.1380   47.8870 O   0  0  0  0  0  0  0  0  0  0  0  0
   58.2770   24.7400   46.9150 N   0  0  0  0  0  0  0  0  0  0  0  0
   58.3780   25.9170   46.2450 C   0  0  0  0  0  0  0  0  0  0  0  0
   59.5240   26.3550   45.9590 O   0  0  0  0  0  0  0  0  0  0  0  0
   57.1980   31.4100   45.2170 N   0  0  0  0  0  0  0  0  0  0  0  0
   58.1260   32.4010   45.3090 C   0  0  0  0  0  0  0  0  0  0  0  0
   57.8610   33.7790   44.7970 C   0  0  0  0  0  0  0  0  0  0  0  0
   57.7288   34.4663   45.6456 H   0  0  0  0  0  0  0  0  0  0  0  0
   58.7115   34.1123   44.1842 H   0  0  0  0  0  0  0  0  0  0  0  0
   56.9475   33.7731   44.1842 H   0  0  0  0  0  0  0  0  0  0  0  0
  1  2  1  0
  2  3  1  0
  3  4  1  0
  4  5  2  0
  5  6  1  0
  6  7  2  0
  6  8  1  0
  8  9  2  0
  9 10  1  0
  9 11  1  0
 11 12  1  0
 12 13  2  0
 12 14  1  0
 14 15  1  0
 15 16  2  0
  4 17  1  0
 17 18  1  0
 18 19  1  0
 19 20  1  0
 19 21  1  0
 19 22  1  0
 18  2  2  0
 15  8  1  0
M  CHG  4  10  -1  11  -1  14  -1  17  -1
M  END
>  <UniqueID>  (82) 
76

>  <SMILES>  (82) 
Cc1cs/c(=N/C(=O)c2c([O-])[n-]c(=O)[n-]c2=O)[n-]1

>  <Energy>  (82) 
58.95804975806992

>  <Genealogy>  (82) 
Cc1csc(=NC(=O)c2c([O-])[n-]c(=O)[n-]c2=O)[n-]1 (protonated)
Cc1cs/c(=N/C(=O)c2c([O-])[n-]c(=O)[n-]c2=O)[n-]1 (cis-trans isomerization)
Cc1cs/c(=N/C(=O)c2c([O-])[n-]c(=O)[n-]c2=O)[n-]1 (3D coordinates assigned)
Cc1cs/c(=N/C(=O)c2c([O-])[n-]c(=O)[n-]c2=O)[n-]1 (optimized conformer: 58.95804975806992 kcal/mol)

>  <smiles>  (82) 
Cc1csc(=NC(=O)c2c(O)[nH]c(=O)[nH]c2=O)[nH]1

>  <score_type>  (82) 
oracle

>  <origin>  (82) 
adg

>  <m_score__min__energy>  (82) 
-15.34

>  <m_primary>  (82) 
energy

$$$$
82:0
     RDKit          3D

 44 46  0  0  0  0  0  0  0  0999 V2000
   63.9030   33.2210   50.8030 C   0  0  0  0  0  0  0  0  0  0  0  0
   62.8950   33.3310   49.7360 N   0  0  0  0  0  0  0  0  0  0  0  0
   61.5760   33.5360   50.0560 C   0  0  0  0  0  0  0  0  0  0  0  0
   61.2080   33.6050   51.2620 O   0  0  0  0  0  0  0  0  0  0  0  0
   60.6190   33.6710   49.0500 C   0  0  0  0  0  0  0  0  0  0  0  0
   61.0270   33.6220   47.7150 C   0  0  0  0  0  0  0  0  0  0  0  0
   60.0560   33.7400   46.6020 C   0  0  0  0  0  0  0  0  0  0  0  0
   59.7970   35.0080   46.0570 C   0  0  0  0  0  0  0  0  0  0  0  0
   58.8900   35.1560   45.0090 C   0  0  0  0  0  0  0  0  0  0  0  0
   58.2260   34.0430   44.4930 C   0  0  0  0  0  0  0  0  0  0  0  0
   58.4560   32.7650   45.0260 C   0  0  0  0  0  0  0  0  0  0  0  0
   57.7340   31.5960   44.4670 C   0  0  0  0  0  0  0  0  0  0  0  0
   57.3500   31.5820   43.1160 C   0  0  0  0  0  0  0  0  0  0  0  0
   56.6640   30.4850   42.5890 C   0  0  0  0  0  0  0  0  0  0  0  0
   56.3670   29.3870   43.4000 C   0  0  0  0  0  0  0  0  0  0  0  0
   56.7710   29.3700   44.7460 C   0  0  0  0  0  0  0  0  0  0  0  0
   56.4610   28.2610   45.6090 N   0  0  0  0  0  0  0  0  0  0  0  0
   57.4210   27.2990   46.0660 C   0  0  0  0  0  0  0  0  0  0  0  0
   58.6570   27.4990   45.9090 O   0  0  0  0  0  0  0  0  0  0  0  0
   56.9660   26.1230   46.7440 N   0  0  0  0  0  0  0  0  0  0  0  0
   56.4560   24.9430   46.0560 C   0  0  0  0  0  0  0  0  0  0  0  0
   54.9970   25.1030   45.7680 C   0  0  0  0  0  0  0  0  0  0  0  0
   54.3340   24.1420   45.2990 O   0  0  0  0  0  0  0  0  0  0  0  0
   54.3780   26.3270   45.9860 O   0  0  0  0  0  0  0  0  0  0  0  0
   57.4390   30.4840   45.2750 C   0  0  0  0  0  0  0  0  0  0  0  0
   59.3600   32.6180   46.1010 C   0  0  0  0  0  0  0  0  0  0  0  0
   59.5280   31.3700   46.6970 O   0  0  0  0  0  0  0  0  0  0  0  0
   62.3420   33.4300   47.4350 N   0  0  0  0  0  0  0  0  0  0  0  0
   63.2710   33.2970   48.4170 C   0  0  0  0  0  0  0  0  0  0  0  0
   64.4800   33.1460   48.0940 O   0  0  0  0  0  0  0  0  0  0  0  0
   63.4068   33.2752   51.7832 H   0  0  0  0  0  0  0  0  0  0  0  0
   64.4303   32.2600   50.7116 H   0  0  0  0  0  0  0  0  0  0  0  0
   64.6252   34.0457   50.7116 H   0  0  0  0  0  0  0  0  0  0  0  0
   59.5584   33.8140   49.3044 H   0  0  0  0  0  0  0  0  0  0  0  0
   60.3139   35.8913   46.4602 H   0  0  0  0  0  0  0  0  0  0  0  0
   58.6972   36.1536   44.5875 H   0  0  0  0  0  0  0  0  0  0  0  0
   57.5165   34.1679   43.6617 H   0  0  0  0  0  0  0  0  0  0  0  0
   57.5906   32.4390   42.4697 H   0  0  0  0  0  0  0  0  0  0  0  0
   56.3569   30.4858   41.5327 H   0  0  0  0  0  0  0  0  0  0  0  0
   55.8145   28.5320   42.9833 H   0  0  0  0  0  0  0  0  0  0  0  0
   55.4920   28.1900   45.9930 H   0  0  0  0  0  0  0  0  0  0  0  0
   57.0007   24.8105   45.1096 H   0  0  0  0  0  0  0  0  0  0  0  0
   56.6004   24.0623   46.6991 H   0  0  0  0  0  0  0  0  0  0  0  0
   57.7355   30.4877   46.3343 H   0  0  0  0  0  0  0  0  0  0  0  0
  1  2  1  0
  2  3  1  0
  3  4  2  0
  3  5  1  0
  5  6  2  0
  6  7  1  0
  7  8  2  0
  8  9  1  0
  9 10  2  0
 10 11  1  0
 11 12  1  0
 12 13  2  0
 13 14  1  0
 14 15  2  0
 15 16  1  0
 16 17  1  0
 17 18  1  0
 18 19  2  0
 18 20  1  0
 20 21  1  0
 21 22  1  0
 22 23  2  0
 22 24  1  0
 16 25  2  0
 11 26  2  0
 26 27  1  0
  6 28  1  0
 28 29  1  0
 29 30  2  0
 29  2  1  0
 26  7  1  0
 25 12  1  0
  1 31  1  0
  1 32  1  0
  1 33  1  0
  5 34  1  0
  8 35  1  0
  9 36  1  0
 10 37  1  0
 13 38  1  0
 14 39  1  0
 15 40  1  0
 17 41  1  0
 21 42  1  0
 21 43  1  0
 25 44  1  0
M  CHG  4  20  -1  24  -1  27  -1  28  -1
M  END
>  <UniqueID>  (83) 
77

>  <SMILES>  (83) 
Cn1c(=O)cc(-c2cccc(-c3cccc(NC(=O)[N-]CC(=O)[O-])c3)c2[O-])[n-]c1=O

>  <Energy>  (83) 
63.54902145581738

>  <Genealogy>  (83) 
Cn1c(=O)cc(-c2cccc(-c3cccc(NC(=O)[N-]CC(=O)[O-])c3)c2[O-])[n-]c1=O (protonated)
Cn1c(=O)cc(-c2cccc(-c3cccc(NC(=O)[N-]CC(=O)[O-])c3)c2[O-])[n-]c1=O (3D coordinates assigned)
Cn1c(=O)cc(-c2cccc(-c3cccc(NC(=O)[N-]CC(=O)[O-])c3)c2[O-])[n-]c1=O (optimized conformer: 63.54902145581738 kcal/mol)

>  <smiles>  (83) 
Cn1c(=O)cc(-c2cccc(-c3cccc(NC(=O)NCC(=O)O)c3)c2O)[nH]c1=O

>  <score_type>  (83) 
oracle

>  <origin>  (83) 
adg

>  <m_score__min__energy>  (83) 
-15.1

>  <m_primary>  (83) 
energy

$$$$
83:0
     RDKit          3D

 63 66  0  0  0  0  0  0  0  0999 V2000
   59.7690   29.8170   47.6150 C   0  0  0  0  0  0  0  0  0  0  0  0
   60.7410   30.0000   46.4510 C   0  0  0  0  0  0  0  0  0  0  0  0
   60.7980   28.7720   45.5340 C   0  0  0  0  0  0  0  0  0  0  0  0
   59.4490   28.2740   45.2280 N   0  0  0  0  0  0  0  0  0  0  0  0
   58.4520   28.8680   44.5070 C   0  0  0  0  0  0  0  0  0  0  0  0
   58.5630   30.1950   43.7970 C   0  0  0  0  0  0  0  0  0  0  0  0
   57.1970   30.6840   43.3030 C   0  0  0  0  0  0  0  0  0  0  0  0
   56.2610   30.8860   44.4520 C   0  0  0  0  0  0  0  0  0  0  0  0
   55.3760   30.0220   44.6990 O   0  0  0  0  0  0  0  0  0  0  0  0
   56.3530   32.0790   45.2390 N   0  0  0  0  0  0  0  0  0  0  0  0
   57.1870   33.2190   44.8790 C   0  0  0  0  0  0  0  0  0  0  0  0
   58.1380   33.5510   46.0000 C   0  0  0  0  0  0  0  0  0  0  0  0
   58.0740   32.8430   47.2140 C   0  0  0  0  0  0  0  0  0  0  0  0
   58.9630   33.1420   48.2510 C   0  0  0  0  0  0  0  0  0  0  0  0
   59.9210   34.1460   48.0860 C   0  0  0  0  0  0  0  0  0  0  0  0
   59.9930   34.8530   46.8830 C   0  0  0  0  0  0  0  0  0  0  0  0
   59.1080   34.5580   45.8390 C   0  0  0  0  0  0  0  0  0  0  0  0
   59.1950   35.2530   44.6770 F   0  0  0  0  0  0  0  0  0  0  0  0
   57.3340   28.1000   44.4490 N   0  0  0  0  0  0  0  0  0  0  0  0
   57.6320   27.0140   45.1770 C   0  0  0  0  0  0  0  0  0  0  0  0
   56.8170   25.9230   45.4630 C   0  0  0  0  0  0  0  0  0  0  0  0
   57.3490   24.8990   46.2730 C   0  0  0  0  0  0  0  0  0  0  0  0
   56.3510   23.5110   46.7030 S   0  0  0  0  0  0  0  0  0  0  0  0
   55.0100   23.9970   47.1840 O   0  0  0  0  0  0  0  0  0  0  0  0
   57.0060   22.7760   47.8400 O   0  0  0  0  0  0  0  0  0  0  0  0
   56.1230   22.4080   45.3600 N   0  0  0  0  0  0  0  0  0  0  0  0
   57.2480   21.4610   45.1980 C   0  0  0  0  0  0  0  0  0  0  0  0
   58.1920   21.8440   44.0460 C   0  0  0  0  0  0  0  0  0  0  0  0
   58.2110   23.2420   43.8670 O   0  0  0  0  0  0  0  0  0  0  0  0
   56.9680   23.6730   43.3460 C   0  0  0  0  0  0  0  0  0  0  0  0
   55.7500   23.1030   44.1140 C   0  0  0  0  0  0  0  0  0  0  0  0
   58.6820   24.9920   46.7490 C   0  0  0  0  0  0  0  0  0  0  0  0
   59.4760   26.1120   46.4400 C   0  0  0  0  0  0  0  0  0  0  0  0
   58.9080   27.1130   45.6490 C   0  0  0  0  0  0  0  0  0  0  0  0
   60.3123   29.9193   48.5660 H   0  0  0  0  0  0  0  0  0  0  0  0
   58.9812   30.5826   47.5586 H   0  0  0  0  0  0  0  0  0  0  0  0
   59.3135   28.8173   47.5586 H   0  0  0  0  0  0  0  0  0  0  0  0
   60.4206   30.8689   45.8573 H   0  0  0  0  0  0  0  0  0  0  0  0
   61.7454   30.1473   46.8746 H   0  0  0  0  0  0  0  0  0  0  0  0
   61.3000   29.0483   44.5951 H   0  0  0  0  0  0  0  0  0  0  0  0
   61.3540   27.9763   46.0515 H   0  0  0  0  0  0  0  0  0  0  0  0
   58.9787   30.9388   44.4926 H   0  0  0  0  0  0  0  0  0  0  0  0
   59.2194   30.0653   42.9239 H   0  0  0  0  0  0  0  0  0  0  0  0
   57.3259   31.6377   42.7702 H   0  0  0  0  0  0  0  0  0  0  0  0
   56.7719   29.9252   42.6296 H   0  0  0  0  0  0  0  0  0  0  0  0
   57.7640   32.9745   43.9750 H   0  0  0  0  0  0  0  0  0  0  0  0
   56.5399   34.0886   44.6916 H   0  0  0  0  0  0  0  0  0  0  0  0
   57.3220   32.0515   47.3479 H   0  0  0  0  0  0  0  0  0  0  0  0
   58.9082   32.5859   49.1985 H   0  0  0  0  0  0  0  0  0  0  0  0
   60.6187   34.3798   48.9036 H   0  0  0  0  0  0  0  0  0  0  0  0
   60.7471   35.6436   46.7558 H   0  0  0  0  0  0  0  0  0  0  0  0
   56.4360   28.3010   43.9540 H   0  0  0  0  0  0  0  0  0  0  0  0
   55.7914   25.8615   45.0700 H   0  0  0  0  0  0  0  0  0  0  0  0
   57.8264   21.4399   46.1334 H   0  0  0  0  0  0  0  0  0  0  0  0
   56.8189   20.4766   44.9595 H   0  0  0  0  0  0  0  0  0  0  0  0
   59.2087   21.4952   44.2800 H   0  0  0  0  0  0  0  0  0  0  0  0
   57.8327   21.3717   43.1198 H   0  0  0  0  0  0  0  0  0  0  0  0
   56.9301   24.7712   43.3972 H   0  0  0  0  0  0  0  0  0  0  0  0
   56.9028   23.3033   42.3121 H   0  0  0  0  0  0  0  0  0  0  0  0
   55.0751   23.9343   44.3658 H   0  0  0  0  0  0  0  0  0  0  0  0
   55.2671   22.3631   43.4587 H   0  0  0  0  0  0  0  0  0  0  0  0
   59.0987   24.1816   47.3651 H   0  0  0  0  0  0  0  0  0  0  0  0
   60.5089   26.1962   46.8089 H   0  0  0  0  0  0  0  0  0  0  0  0
  1  2  1  0
  2  3  1  0
  3  4  1  0
  4  5  1  0
  5  6  1  0
  6  7  1  0
  7  8  1  0
  8  9  2  0
  8 10  1  0
 10 11  1  0
 11 12  1  0
 12 13  2  0
 13 14  1  0
 14 15  2  0
 15 16  1  0
 16 17  2  0
 17 18  1  0
  5 19  2  0
 19 20  1  0
 20 21  2  0
 21 22  1  0
 22 23  1  0
 23 24  2  0
 23 25  2  0
 23 26  1  0
 26 27  1  0
 27 28  1  0
 28 29  1  0
 29 30  1  0
 30 31  1  0
 22 32  2  0
 32 33  1  0
 33 34  2  0
 34  4  1  0
 17 12  1  0
 34 20  1  0
 31 26  1  0
  1 35  1  0
  1 36  1  0
  1 37  1  0
  2 38  1  0
  2 39  1  0
  3 40  1  0
  3 41  1  0
  6 42  1  0
  6 43  1  0
  7 44  1  0
  7 45  1  0
 11 46  1  0
 11 47  1  0
 13 48  1  0
 14 49  1  0
 15 50  1  0
 16 51  1  0
 19 52  1  0
 21 53  1  0
 27 54  1  0
 27 55  1  0
 28 56  1  0
 28 57  1  0
 30 58  1  0
 30 59  1  0
 31 60  1  0
 31 61  1  0
 32 62  1  0
 33 63  1  0
M  CHG  2  10  -1  19   1
M  END
>  <UniqueID>  (84) 
78

>  <SMILES>  (84) 
CCCn1c(CCC(=O)[N-]Cc2ccccc2F)[nH+]c2cc(S(=O)(=O)N3CCOCC3)ccc21

>  <Energy>  (84) 
104.30267835690614

>  <Genealogy>  (84) 
CCCn1c(CCC(=O)[N-]Cc2ccccc2F)[nH+]c2cc(S(=O)(=O)N3CCOCC3)ccc21 (protonated)
CCCn1c(CCC(=O)[N-]Cc2ccccc2F)[nH+]c2cc(S(=O)(=O)N3CCOCC3)ccc21 (3D coordinates assigned)
CCCn1c(CCC(=O)[N-]Cc2ccccc2F)[nH+]c2cc(S(=O)(=O)N3CCOCC3)ccc21 (nonaromatic ring conformer: 104.30267835690614 kcal/mol)

>  <smiles>  (84) 
CCCn1c(CCC(=O)NCc2ccccc2F)nc2cc(S(=O)(=O)N3CCOCC3)ccc21

>  <score_type>  (84) 
oracle

>  <origin>  (84) 
adg

>  <m_score__min__energy>  (84) 
-9.9900000000000002

>  <m_primary>  (84) 
energy

$$$$
84:0
     RDKit          3D

 44 47  0  0  0  0  0  0  0  0999 V2000
   55.7580   27.1390   45.6290 O   0  0  0  0  0  0  0  0  0  0  0  0
   56.5320   28.0940   45.3520 C   0  0  0  0  0  0  0  0  0  0  0  0
   55.9590   29.3370   44.9220 N   0  0  0  0  0  0  0  0  0  0  0  0
   56.5910   30.3140   44.0800 C   0  0  0  0  0  0  0  0  0  0  0  0
   56.4290   30.2870   42.6830 C   0  0  0  0  0  0  0  0  0  0  0  0
   57.0350   31.2570   41.8840 C   0  0  0  0  0  0  0  0  0  0  0  0
   57.7930   32.2710   42.4690 C   0  0  0  0  0  0  0  0  0  0  0  0
   57.9430   32.3220   43.8570 C   0  0  0  0  0  0  0  0  0  0  0  0
   57.3350   31.3470   44.6750 C   0  0  0  0  0  0  0  0  0  0  0  0
   57.4530   31.3650   46.0770 O   0  0  0  0  0  0  0  0  0  0  0  0
   58.4240   30.6400   46.8320 C   0  0  0  0  0  0  0  0  0  0  0  0
   59.4520   31.5690   47.4120 C   0  0  0  0  0  0  0  0  0  0  0  0
   59.0680   32.7080   48.1190 C   0  0  0  0  0  0  0  0  0  0  0  0
   60.0550   33.5600   48.6180 C   0  0  0  0  0  0  0  0  0  0  0  0
   59.7020   34.5900   49.2570 O   0  0  0  0  0  0  0  0  0  0  0  0
   61.3830   33.2790   48.4060 N   0  0  0  0  0  0  0  0  0  0  0  0
   62.3620   34.1090   48.8940 C   0  0  0  0  0  0  0  0  0  0  0  0
   63.7120   33.8260   48.6740 C   0  0  0  0  0  0  0  0  0  0  0  0
   64.0680   32.6880   47.9530 C   0  0  0  0  0  0  0  0  0  0  0  0
   63.0760   31.8470   47.4570 C   0  0  0  0  0  0  0  0  0  0  0  0
   61.7310   32.1530   47.6900 C   0  0  0  0  0  0  0  0  0  0  0  0
   60.7700   31.3260   47.2030 N   0  0  0  0  0  0  0  0  0  0  0  0
   57.9920   27.9200   45.5310 C   0  0  0  0  0  0  0  0  0  0  0  0
   58.8830   28.3660   44.5390 C   0  0  0  0  0  0  0  0  0  0  0  0
   60.2620   28.2010   44.7020 C   0  0  0  0  0  0  0  0  0  0  0  0
   60.7640   27.5820   45.8500 C   0  0  0  0  0  0  0  0  0  0  0  0
   59.8870   27.1200   46.8350 C   0  0  0  0  0  0  0  0  0  0  0  0
   60.3730   26.5060   47.9410 F   0  0  0  0  0  0  0  0  0  0  0  0
   58.5070   27.2830   46.6760 C   0  0  0  0  0  0  0  0  0  0  0  0
   55.8212   29.4968   42.2180 H   0  0  0  0  0  0  0  0  0  0  0  0
   56.9148   31.2219   40.7912 H   0  0  0  0  0  0  0  0  0  0  0  0
   58.2736   33.0319   41.8365 H   0  0  0  0  0  0  0  0  0  0  0  0
   58.5381   33.1263   44.3141 H   0  0  0  0  0  0  0  0  0  0  0  0
   57.9189   30.1054   47.6500 H   0  0  0  0  0  0  0  0  0  0  0  0
   58.9300   29.9278   46.1636 H   0  0  0  0  0  0  0  0  0  0  0  0
   58.0033   32.9318   48.2811 H   0  0  0  0  0  0  0  0  0  0  0  0
   62.0801   35.0064   49.4643 H   0  0  0  0  0  0  0  0  0  0  0  0
   64.4894   34.4974   49.0675 H   0  0  0  0  0  0  0  0  0  0  0  0
   65.1285   32.4553   47.7766 H   0  0  0  0  0  0  0  0  0  0  0  0
   63.3479   30.9474   46.8854 H   0  0  0  0  0  0  0  0  0  0  0  0
   58.4933   28.8473   43.6299 H   0  0  0  0  0  0  0  0  0  0  0  0
   60.9532   28.5592   43.9249 H   0  0  0  0  0  0  0  0  0  0  0  0
   61.8495   27.4584   45.9782 H   0  0  0  0  0  0  0  0  0  0  0  0
   57.8198   26.9112   47.4503 H   0  0  0  0  0  0  0  0  0  0  0  0
  1  2  2  0
  2  3  1  0
  3  4  1  0
  4  5  2  0
  5  6  1  0
  6  7  2  0
  7  8  1  0
  8  9  2  0
  9 10  1  0
 10 11  1  0
 11 12  1  0
 12 13  2  0
 13 14  1  0
 14 15  2  0
 14 16  1  0
 16 17  1  0
 17 18  2  0
 18 19  1  0
 19 20  2  0
 20 21  1  0
 21 22  2  0
  2 23  1  0
 23 24  2  0
 24 25  1  0
 25 26  2  0
 26 27  1  0
 27 28  1  0
 27 29  2  0
  9  4  1  0
 22 12  1  0
 29 23  1  0
 21 16  1  0
  5 30  1  0
  6 31  1  0
  7 32  1  0
  8 33  1  0
 11 34  1  0
 11 35  1  0
 13 36  1  0
 17 37  1  0
 18 38  1  0
 19 39  1  0
 20 40  1  0
 24 41  1  0
 25 42  1  0
 26 43  1  0
 29 44  1  0
M  CHG  1   3  -1
M  END
>  <UniqueID>  (85) 
79

>  <SMILES>  (85) 
O=C([N-]c1ccccc1OCc1cc(=O)n2ccccc2n1)c1cccc(F)c1

>  <Energy>  (85) 
61.1112301280635

>  <Genealogy>  (85) 
O=C([N-]c1ccccc1OCc1cc(=O)n2ccccc2n1)c1cccc(F)c1 (protonated)
O=C([N-]c1ccccc1OCc1cc(=O)n2ccccc2n1)c1cccc(F)c1 (3D coordinates assigned)
O=C([N-]c1ccccc1OCc1cc(=O)n2ccccc2n1)c1cccc(F)c1 (optimized conformer: 61.1112301280635 kcal/mol)

>  <smiles>  (85) 
O=C(Nc1ccccc1OCc1cc(=O)n2ccccc2n1)c1cccc(F)c1

>  <score_type>  (85) 
oracle

>  <origin>  (85) 
adg

>  <m_score__min__energy>  (85) 
-12.789999999999999

>  <m_primary>  (85) 
energy

$$$$
85:0
     RDKit          3D

 24 25  0  0  0  0  0  0  0  0999 V2000
   59.8063   25.1280   46.4308 H   0  0  0  0  0  0  0  0  0  0  0  0
   58.7650   25.4760   46.3630 C   0  0  0  0  0  0  0  0  0  0  0  0
   58.4610   26.5660   45.6110 N   0  0  0  0  0  0  0  0  0  0  0  0
   57.1920   27.0440   45.4880 C   0  0  0  0  0  0  0  0  0  0  0  0
   57.0150   28.1100   44.7540 N   0  0  0  0  0  0  0  0  0  0  0  0
   56.9150   29.4770   45.1750 C   0  0  0  0  0  0  0  0  0  0  0  0
   55.8970   30.1380   44.8390 O   0  0  0  0  0  0  0  0  0  0  0  0
   57.9970   30.1470   45.9420 C   0  0  0  0  0  0  0  0  0  0  0  0
   58.5190   29.4950   47.0750 C   0  0  0  0  0  0  0  0  0  0  0  0
   58.1044   28.5237   47.3825 H   0  0  0  0  0  0  0  0  0  0  0  0
   59.5570   30.0670   47.8130 C   0  0  0  0  0  0  0  0  0  0  0  0
   59.9617   29.5411   48.6903 H   0  0  0  0  0  0  0  0  0  0  0  0
   60.0810   31.3030   47.4400 C   0  0  0  0  0  0  0  0  0  0  0  0
   60.9064   31.7468   48.0160 H   0  0  0  0  0  0  0  0  0  0  0  0
   59.5590   31.9780   46.3360 C   0  0  0  0  0  0  0  0  0  0  0  0
   59.9692   32.9583   46.0519 H   0  0  0  0  0  0  0  0  0  0  0  0
   58.5160   31.4170   45.5860 C   0  0  0  0  0  0  0  0  0  0  0  0
   57.7920   32.4900   44.1680 Br  0  0  0  0  0  0  0  0  0  0  0  0
   56.1390   26.3530   46.1420 C   0  0  0  0  0  0  0  0  0  0  0  0
   54.8040   26.7120   45.9920 O   0  0  0  0  0  0  0  0  0  0  0  0
   56.4420   25.2400   46.9320 C   0  0  0  0  0  0  0  0  0  0  0  0
   55.6379   24.7104   47.4640 H   0  0  0  0  0  0  0  0  0  0  0  0
   57.7590   24.7990   47.0480 C   0  0  0  0  0  0  0  0  0  0  0  0
   58.0010   23.9268   47.6730 H   0  0  0  0  0  0  0  0  0  0  0  0
  1  2  1  0
  2  3  1  0
  3  4  1  0
  4  5  2  0
  5  6  1  0
  6  7  2  0
  6  8  1  0
  8  9  2  0
  9 10  1  0
  9 11  1  0
 11 12  1  0
 11 13  2  0
 13 14  1  0
 13 15  1  0
 15 16  1  0
 15 17  2  0
 17 18  1  0
  4 19  1  0
 19 20  1  0
 19 21  2  0
 21 22  1  0
 21 23  1  0
 23 24  1  0
 23  2  2  0
 17  8  1  0
M  CHG  2   3  -1  20  -1
M  END
>  <UniqueID>  (86) 
80

>  <SMILES>  (86) 
O=C(/N=c1/[n-]cccc1[O-])c1ccccc1Br

>  <Energy>  (86) 
43.89307639280349

>  <Genealogy>  (86) 
O=C(N=c1[n-]cccc1[O-])c1ccccc1Br (protonated)
O=C(/N=c1/[n-]cccc1[O-])c1ccccc1Br (cis-trans isomerization)
O=C(/N=c1/[n-]cccc1[O-])c1ccccc1Br (3D coordinates assigned)
O=C(/N=c1/[n-]cccc1[O-])c1ccccc1Br (optimized conformer: 43.89307639280349 kcal/mol)

>  <smiles>  (86) 
O=C(N=c1[nH]cccc1O)c1ccccc1Br

>  <score_type>  (86) 
oracle

>  <origin>  (86) 
adg

>  <m_score__min__energy>  (86) 
-12.25

>  <m_primary>  (86) 
energy

$$$$
86:0
     RDKit          3D

 35 36  0  0  0  0  0  0  0  0999 V2000
   57.8092   28.1994   47.4832 H   0  0  0  0  0  0  0  0  0  0  0  0
   57.7410   27.5960   46.5660 C   0  0  0  0  0  0  0  0  0  0  0  0
   58.1640   28.1700   45.4280 C   0  0  0  0  0  0  0  0  0  0  0  0
   59.1640   28.6280   45.4410 H   0  0  0  0  0  0  0  0  0  0  0  0
   57.3940   28.2440   44.1350 C   0  0  0  0  0  0  0  0  0  0  0  0
   57.8419   27.5404   43.4179 H   0  0  0  0  0  0  0  0  0  0  0  0
   56.3474   27.9879   44.3564 H   0  0  0  0  0  0  0  0  0  0  0  0
   57.4070   29.6530   43.5160 C   0  0  0  0  0  0  0  0  0  0  0  0
   58.2890   30.1931   43.8906 H   0  0  0  0  0  0  0  0  0  0  0  0
   57.4348   29.5339   42.4228 H   0  0  0  0  0  0  0  0  0  0  0  0
   56.1550   30.4640   43.8590 C   0  0  0  0  0  0  0  0  0  0  0  0
   55.7340   30.8937   42.9381 H   0  0  0  0  0  0  0  0  0  0  0  0
   55.4122   29.8049   44.3321 H   0  0  0  0  0  0  0  0  0  0  0  0
   56.4930   31.5070   44.7530 O   0  0  0  0  0  0  0  0  0  0  0  0
   57.4870   32.3420   44.1940 C   0  0  0  0  0  0  0  0  0  0  0  0
   58.2399   31.7210   43.6866 H   0  0  0  0  0  0  0  0  0  0  0  0
   57.0166   33.0265   43.4727 H   0  0  0  0  0  0  0  0  0  0  0  0
   58.1550   33.1500   45.2740 C   0  0  0  0  0  0  0  0  0  0  0  0
   58.0460   32.7720   46.6220 C   0  0  0  0  0  0  0  0  0  0  0  0
   57.4380   31.8981   46.8988 H   0  0  0  0  0  0  0  0  0  0  0  0
   58.7080   33.5030   47.6140 C   0  0  0  0  0  0  0  0  0  0  0  0
   58.6195   33.2035   48.6687 H   0  0  0  0  0  0  0  0  0  0  0  0
   59.4820   34.6140   47.2660 C   0  0  0  0  0  0  0  0  0  0  0  0
   60.0009   35.1887   48.0473 H   0  0  0  0  0  0  0  0  0  0  0  0
   59.5970   34.9950   45.9270 C   0  0  0  0  0  0  0  0  0  0  0  0
   60.2070   35.8689   45.6547 H   0  0  0  0  0  0  0  0  0  0  0  0
   58.9370   34.2660   44.9320 C   0  0  0  0  0  0  0  0  0  0  0  0
   59.0306   34.5676   43.8783 H   0  0  0  0  0  0  0  0  0  0  0  0
   57.1920   26.2290   46.7030 C   0  0  0  0  0  0  0  0  0  0  0  0
   57.8580   25.1500   47.1500 N   0  0  0  0  0  0  0  0  0  0  0  0
   56.9290   24.1710   47.1250 C   0  0  0  0  0  0  0  0  0  0  0  0
   57.1790   22.9880   47.4750 O   0  0  0  0  0  0  0  0  0  0  0  0
   55.7090   24.5600   46.6980 N   0  0  0  0  0  0  0  0  0  0  0  0
   55.8930   25.8650   46.4380 C   0  0  0  0  0  0  0  0  0  0  0  0
   54.8910   26.7060   45.9710 O   0  0  0  0  0  0  0  0  0  0  0  0
  1  2  1  0
  2  3  2  0
  3  4  1  0
  3  5  1  0
  5  6  1  0
  5  7  1  0
  5  8  1  0
  8  9  1  0
  8 10  1  0
  8 11  1  0
 11 12  1  0
 11 13  1  0
 11 14  1  0
 14 15  1  0
 15 16  1  0
 15 17  1  0
 15 18  1  0
 18 19  2  0
 19 20  1  0
 19 21  1  0
 21 22  1  0
 21 23  2  0
 23 24  1  0
 23 25  1  0
 25 26  1  0
 25 27  2  0
 27 28  1  0
  2 29  1  0
 29 30  1  0
 30 31  1  0
 31 32  2  0
 31 33  1  0
 33 34  1  0
 34 35  1  0
 27 18  1  0
 34 29  2  0
M  CHG  3  30  -1  33  -1  35  -1
M  END
>  <UniqueID>  (87) 
81

>  <SMILES>  (87) 
O=c1[n-]c([O-])c(/C=C\CCCOCc2ccccc2)[n-]1

>  <Energy>  (87) 
62.19396474630042

>  <Genealogy>  (87) 
O=c1[n-]c([O-])c(C=CCCCOCc2ccccc2)[n-]1 (protonated)
O=c1[n-]c([O-])c(/C=C\CCCOCc2ccccc2)[n-]1 (cis-trans isomerization)
O=c1[n-]c([O-])c(/C=C\CCCOCc2ccccc2)[n-]1 (3D coordinates assigned)
O=c1[n-]c([O-])c(/C=C\CCCOCc2ccccc2)[n-]1 (optimized conformer: 62.19396474630042 kcal/mol)

>  <smiles>  (87) 
O=c1[nH]c(O)c(C=CCCCOCc2ccccc2)[nH]1

>  <score_type>  (87) 
oracle

>  <origin>  (87) 
adg

>  <m_score__min__energy>  (87) 
-15.640000000000001

>  <m_primary>  (87) 
energy

$$$$
87:0
     RDKit          3D

 58 60  0  0  0  0  0  0  0  0999 V2000
   51.0420   31.2460   55.1660 H   0  0  0  0  0  0  0  0  0  0  0  0
   50.9510   31.6110   54.2250 O   0  0  0  0  0  0  0  0  0  0  0  0
   51.9060   31.3610   53.2390 C   0  0  0  0  0  0  0  0  0  0  0  0
   51.7600   31.8870   51.9430 C   0  0  0  0  0  0  0  0  0  0  0  0
   50.6520   32.6600   51.6160 O   0  0  0  0  0  0  0  0  0  0  0  0
   52.7340   31.6340   50.9720 C   0  0  0  0  0  0  0  0  0  0  0  0
   52.6223   32.0527   49.9610 H   0  0  0  0  0  0  0  0  0  0  0  0
   53.8470   30.8520   51.2820 C   0  0  0  0  0  0  0  0  0  0  0  0
   54.6147   30.6652   50.5167 H   0  0  0  0  0  0  0  0  0  0  0  0
   53.9920   30.3030   52.5640 C   0  0  0  0  0  0  0  0  0  0  0  0
   55.1550   29.4460   52.8540 C   0  0  0  0  0  0  0  0  0  0  0  0
   54.9640   28.2360   53.1460 O   0  0  0  0  0  0  0  0  0  0  0  0
   56.4940   29.9650   52.8740 N   0  0  0  0  0  0  0  0  0  0  0  0
   57.0810   30.8300   51.8540 C   0  0  0  0  0  0  0  0  0  0  0  0
   57.7629   31.5455   52.3368 H   0  0  0  0  0  0  0  0  0  0  0  0
   56.2708   31.3634   51.3353 H   0  0  0  0  0  0  0  0  0  0  0  0
   57.8480   30.0220   50.8460 C   0  0  0  0  0  0  0  0  0  0  0  0
   57.7531   28.9261   50.8556 H   0  0  0  0  0  0  0  0  0  0  0  0
   58.6450   30.5990   49.9350 C   0  0  0  0  0  0  0  0  0  0  0  0
   58.4276   31.6203   49.5890 H   0  0  0  0  0  0  0  0  0  0  0  0
   59.8300   29.8640   49.3840 C   0  0  0  0  0  0  0  0  0  0  0  0
   59.9631   28.9170   49.9276 H   0  0  0  0  0  0  0  0  0  0  0  0
   60.7367   30.4757   49.5015 H   0  0  0  0  0  0  0  0  0  0  0  0
   59.5940   29.5850   47.9490 N   0  0  0  0  0  0  0  0  0  0  0  0
   58.2190   29.9180   47.5160 C   0  0  0  0  0  0  0  0  0  0  0  0
   57.4999   29.4627   48.2129 H   0  0  0  0  0  0  0  0  0  0  0  0
   58.1027   31.0118   47.5116 H   0  0  0  0  0  0  0  0  0  0  0  0
   57.9610   29.3940   46.1230 C   0  0  0  0  0  0  0  0  0  0  0  0
   57.9860   30.2920   45.0400 C   0  0  0  0  0  0  0  0  0  0  0  0
   58.1042   31.3694   45.2276 H   0  0  0  0  0  0  0  0  0  0  0  0
   57.8620   29.8270   43.7290 C   0  0  0  0  0  0  0  0  0  0  0  0
   57.8725   30.5387   42.8903 H   0  0  0  0  0  0  0  0  0  0  0  0
   57.7250   28.4620   43.4820 C   0  0  0  0  0  0  0  0  0  0  0  0
   57.6412   28.0967   42.4478 H   0  0  0  0  0  0  0  0  0  0  0  0
   57.6940   27.5580   44.5450 C   0  0  0  0  0  0  0  0  0  0  0  0
   57.5960   26.4811   44.3433 H   0  0  0  0  0  0  0  0  0  0  0  0
   57.7870   28.0130   45.8690 C   0  0  0  0  0  0  0  0  0  0  0  0
   57.7210   26.8000   47.2010 S   0  0  0  0  0  0  0  0  0  0  0  0
   57.0550   25.4940   46.1580 C   0  0  0  0  0  0  0  0  0  0  0  0
   57.8720   24.4260   45.7610 C   0  0  0  0  0  0  0  0  0  0  0  0
   58.9218   24.3882   46.0873 H   0  0  0  0  0  0  0  0  0  0  0  0
   57.3570   23.4090   44.9520 C   0  0  0  0  0  0  0  0  0  0  0  0
   57.9991   22.5674   44.6531 H   0  0  0  0  0  0  0  0  0  0  0  0
   56.0280   23.4590   44.5220 C   0  0  0  0  0  0  0  0  0  0  0  0
   55.5170   22.4470   43.7190 O   0  0  0  0  0  0  0  0  0  0  0  0
   55.2140   24.5330   44.8970 C   0  0  0  0  0  0  0  0  0  0  0  0
   54.1697   24.5756   44.5539 H   0  0  0  0  0  0  0  0  0  0  0  0
   55.7240   25.5530   45.7070 C   0  0  0  0  0  0  0  0  0  0  0  0
   54.9070   26.6240   46.0520 O   0  0  0  0  0  0  0  0  0  0  0  0
   60.6610   30.1090   47.0650 C   0  0  0  0  0  0  0  0  0  0  0  0
   60.4243   29.8218   46.0299 H   0  0  0  0  0  0  0  0  0  0  0  0
   61.6081   29.6762   47.4195 H   0  0  0  0  0  0  0  0  0  0  0  0
   60.8240   31.6350   47.1170 C   0  0  0  0  0  0  0  0  0  0  0  0
   60.8592   31.9645   48.1659 H   0  0  0  0  0  0  0  0  0  0  0  0
   61.7579   31.9215   46.6112 H   0  0  0  0  0  0  0  0  0  0  0  0
   59.9717   32.1122   46.6112 H   0  0  0  0  0  0  0  0  0  0  0  0
   53.0260   30.5760   53.5490 C   0  0  0  0  0  0  0  0  0  0  0  0
   53.1800   30.0840   54.8420 O   0  0  0  0  0  0  0  0  0  0  0  0
  1  2  1  0
  2  3  1  0
  3  4  2  0
  4  5  1  0
  4  6  1  0
  6  7  1  0
  6  8  2  0
  8  9  1  0
  8 10  1  0
 10 11  1  0
 11 12  2  0
 11 13  1  0
 13 14  1  0
 14 15  1  0
 14 16  1  0
 14 17  1  0
 17 18  1  0
 17 19  2  0
 19 20  1  0
 19 21  1  0
 21 22  1  0
 21 23  1  0
 21 24  1  0
 24 25  1  0
 25 26  1  0
 25 27  1  0
 25 28  1  0
 28 29  2  0
 29 30  1  0
 29 31  1  0
 31 32  1  0
 31 33  2  0
 33 34  1  0
 33 35  1  0
 35 36  1  0
 35 37  2  0
 37 38  1  0
 38 39  1  0
 39 40  2  0
 40 41  1  0
 40 42  1  0
 42 43  1  0
 42 44  2  0
 44 45  1  0
 44 46  1  0
 46 47  1  0
 46 48  2  0
 48 49  1  0
 24 50  1  0
 50 51  1  0
 50 52  1  0
 50 53  1  0
 53 54  1  0
 53 55  1  0
 53 56  1  0
 10 57  2  0
 57 58  1  0
 57  3  1  0
 37 28  1  0
 48 39  1  0
M  CHG  5   5  -1  13  -1  45  -1  49  -1  58  -1
M  END
>  <UniqueID>  (88) 
82

>  <SMILES>  (88) 
CCN(C/C=C/C[N-]C(=O)c1ccc([O-])c(O)c1[O-])Cc1ccccc1Sc1ccc([O-])cc1[O-]

>  <Energy>  (88) 
58.701131377320664

>  <Genealogy>  (88) 
CCN(CC=CC[N-]C(=O)c1ccc([O-])c(O)c1[O-])Cc1ccccc1Sc1ccc([O-])cc1[O-] (protonated)
CCN(C/C=C/C[N-]C(=O)c1ccc([O-])c(O)c1[O-])Cc1ccccc1Sc1ccc([O-])cc1[O-] (cis-trans isomerization)
CCN(C/C=C/C[N-]C(=O)c1ccc([O-])c(O)c1[O-])Cc1ccccc1Sc1ccc([O-])cc1[O-] (3D coordinates assigned)
CCN(C/C=C/C[N-]C(=O)c1ccc([O-])c(O)c1[O-])Cc1ccccc1Sc1ccc([O-])cc1[O-] (optimized conformer: 58.701131377320664 kcal/mol)

>  <smiles>  (88) 
CCN(CC=CCNC(=O)c1ccc(O)c(O)c1O)Cc1ccccc1Sc1ccc(O)cc1O

>  <score_type>  (88) 
oracle

>  <origin>  (88) 
adg

>  <m_score__min__energy>  (88) 
-19.510000000000002

>  <m_primary>  (88) 
energy

$$$$
88:0
     RDKit          3D

 29 30  0  0  0  0  0  0  0  0999 V2000
   60.3270   29.9280   47.4620 C   0  0  0  0  0  0  0  0  0  0  0  0
   59.2460   30.7300   48.1230 C   0  0  0  0  0  0  0  0  0  0  0  0
   58.5510   31.5990   47.2890 O   0  0  0  0  0  0  0  0  0  0  0  0
   58.9500   32.8010   46.7860 C   0  0  0  0  0  0  0  0  0  0  0  0
   60.0510   33.5170   47.2060 C   0  0  0  0  0  0  0  0  0  0  0  0
   60.4050   34.7350   46.6540 C   0  0  0  0  0  0  0  0  0  0  0  0
   59.6490   35.2900   45.6400 C   0  0  0  0  0  0  0  0  0  0  0  0
   58.5410   34.5870   45.2070 C   0  0  0  0  0  0  0  0  0  0  0  0
   58.2010   33.3650   45.7700 C   0  0  0  0  0  0  0  0  0  0  0  0
   56.9860   32.6980   45.2180 C   0  0  0  0  0  0  0  0  0  0  0  0
   57.2310   31.2750   44.8800 C   0  0  0  0  0  0  0  0  0  0  0  0
   56.2650   30.4460   44.3940 N   0  0  0  0  0  0  0  0  0  0  0  0
   56.7740   29.2410   44.1850 N   0  0  0  0  0  0  0  0  0  0  0  0
   58.0760   29.2860   44.5360 C   0  0  0  0  0  0  0  0  0  0  0  0
   59.1420   28.0310   44.4560 S   0  0  0  0  0  0  0  0  0  0  0  0
   58.3380   30.5340   44.9580 N   0  0  0  0  0  0  0  0  0  0  0  0
   60.9585   29.4595   48.2313 H   0  0  0  0  0  0  0  0  0  0  0  0
   59.8726   29.1468   46.8349 H   0  0  0  0  0  0  0  0  0  0  0  0
   60.9429   30.5894   46.8349 H   0  0  0  0  0  0  0  0  0  0  0  0
   58.5213   30.0271   48.5598 H   0  0  0  0  0  0  0  0  0  0  0  0
   59.7516   31.3640   48.8663 H   0  0  0  0  0  0  0  0  0  0  0  0
   60.6732   33.1027   48.0130 H   0  0  0  0  0  0  0  0  0  0  0  0
   61.2945   35.2651   47.0251 H   0  0  0  0  0  0  0  0  0  0  0  0
   59.9195   36.2579   45.1927 H   0  0  0  0  0  0  0  0  0  0  0  0
   57.9176   35.0033   44.4020 H   0  0  0  0  0  0  0  0  0  0  0  0
   56.1822   32.7505   45.9671 H   0  0  0  0  0  0  0  0  0  0  0  0
   56.7059   33.2210   44.2917 H   0  0  0  0  0  0  0  0  0  0  0  0
   56.2430   28.4030   43.8110 H   0  0  0  0  0  0  0  0  0  0  0  0
   59.2600   30.8760   45.2950 H   0  0  0  0  0  0  0  0  0  0  0  0
  1  2  1  0
  2  3  1  0
  3  4  1  0
  4  5  2  0
  5  6  1  0
  6  7  2  0
  7  8  1  0
  8  9  2  0
  9 10  1  0
 10 11  1  0
 11 12  2  0
 12 13  1  0
 13 14  1  0
 14 15  2  0
 14 16  1  0
  9  4  1  0
 16 11  1  0
  1 17  1  0
  1 18  1  0
  1 19  1  0
  2 20  1  0
  2 21  1  0
  5 22  1  0
  6 23  1  0
  7 24  1  0
  8 25  1  0
 10 26  1  0
 10 27  1  0
 13 28  1  0
 16 29  1  0
M  END
>  <smiles>  (89) 
CCOc1ccccc1Cc1n[nH]c(=S)[nH]1

>  <score_type>  (89) 
oracle

>  <origin>  (89) 
adg

>  <m_score__min__energy>  (89) 
-6.1299999999999999

>  <m_primary>  (89) 
energy

$$$$
89:0
     RDKit          3D

 45 47  0  0  0  0  0  0  0  0999 V2000
   59.6090   35.2590   46.7740 C   0  0  0  0  0  0  0  0  0  0  0  0
   58.8870   34.0440   46.2520 C   0  0  0  0  0  0  0  0  0  0  0  0
   58.0530   34.1840   45.1280 C   0  0  0  0  0  0  0  0  0  0  0  0
   57.3860   33.0810   44.5940 C   0  0  0  0  0  0  0  0  0  0  0  0
   57.5370   31.8240   45.1780 C   0  0  0  0  0  0  0  0  0  0  0  0
   58.3490   31.6670   46.3020 C   0  0  0  0  0  0  0  0  0  0  0  0
   59.0240   32.7670   46.8610 C   0  0  0  0  0  0  0  0  0  0  0  0
   59.8510   32.5500   48.0740 C   0  0  0  0  0  0  0  0  0  0  0  0
   61.0030   32.0490   47.9670 O   0  0  0  0  0  0  0  0  0  0  0  0
   59.3360   32.9000   49.3690 N   0  0  0  0  0  0  0  0  0  0  0  0
   60.1290   32.9180   50.5690 C   0  0  0  0  0  0  0  0  0  0  0  0
   61.6690   33.4830   50.5310 S   0  0  0  0  0  0  0  0  0  0  0  0
   59.5030   32.7130   51.8450 N   0  0  0  0  0  0  0  0  0  0  0  0
   58.3250   31.9110   52.0380 C   0  0  0  0  0  0  0  0  0  0  0  0
   57.0370   32.4650   51.9470 C   0  0  0  0  0  0  0  0  0  0  0  0
   55.9090   31.6590   52.1160 C   0  0  0  0  0  0  0  0  0  0  0  0
   56.0430   30.2860   52.3480 C   0  0  0  0  0  0  0  0  0  0  0  0
   54.8550   29.4980   52.5100 N   0  0  0  0  0  0  0  0  0  0  0  0
   53.5430   29.9950   52.8100 C   0  0  0  0  0  0  0  0  0  0  0  0
   53.1450   29.9590   54.0040 O   0  0  0  0  0  0  0  0  0  0  0  0
   52.6700   30.5920   51.7710 C   0  0  0  0  0  0  0  0  0  0  0  0
   52.4410   29.9140   50.5630 C   0  0  0  0  0  0  0  0  0  0  0  0
   51.6160   30.4770   49.5870 C   0  0  0  0  0  0  0  0  0  0  0  0
   51.0140   31.7130   49.8310 C   0  0  0  0  0  0  0  0  0  0  0  0
   50.2700   32.2360   48.9610 O   0  0  0  0  0  0  0  0  0  0  0  0
   51.2290   32.3520   51.0100 N   0  0  0  0  0  0  0  0  0  0  0  0
   52.0300   31.8260   51.9760 C   0  0  0  0  0  0  0  0  0  0  0  0
   57.3330   29.7280   52.4550 C   0  0  0  0  0  0  0  0  0  0  0  0
   57.5080   28.3840   52.7630 O   0  0  0  0  0  0  0  0  0  0  0  0
   58.4620   30.5370   52.2800 C   0  0  0  0  0  0  0  0  0  0  0  0
   59.6012   35.2458   47.8739 H   0  0  0  0  0  0  0  0  0  0  0  0
   60.6486   35.2503   46.4146 H   0  0  0  0  0  0  0  0  0  0  0  0
   59.1044   36.1680   46.4146 H   0  0  0  0  0  0  0  0  0  0  0  0
   57.9253   35.1736   44.6651 H   0  0  0  0  0  0  0  0  0  0  0  0
   56.7406   33.2032   43.7117 H   0  0  0  0  0  0  0  0  0  0  0  0
   57.0151   30.9544   44.7520 H   0  0  0  0  0  0  0  0  0  0  0  0
   58.4624   30.6715   46.7560 H   0  0  0  0  0  0  0  0  0  0  0  0
   58.3080   33.0620   49.4630 H   0  0  0  0  0  0  0  0  0  0  0  0
   59.9190   33.1860   52.6790 H   0  0  0  0  0  0  0  0  0  0  0  0
   56.9164   33.5389   51.7416 H   0  0  0  0  0  0  0  0  0  0  0  0
   54.9060   32.1079   52.0662 H   0  0  0  0  0  0  0  0  0  0  0  0
   52.9129   28.9364   50.3849 H   0  0  0  0  0  0  0  0  0  0  0  0
   51.4422   29.9523   48.6360 H   0  0  0  0  0  0  0  0  0  0  0  0
   52.1771   32.3690   52.9213 H   0  0  0  0  0  0  0  0  0  0  0  0
   59.4659   30.0904   52.3329 H   0  0  0  0  0  0  0  0  0  0  0  0
  1  2  1  0
  2  3  2  0
  3  4  1  0
  4  5  2  0
  5  6  1  0
  6  7  2  0
  7  8  1  0
  8  9  2  0
  8 10  1  0
 10 11  1  0
 11 12  2  0
 11 13  1  0
 13 14  1  0
 14 15  2  0
 15 16  1  0
 16 17  2  0
 17 18  1  0
 18 19  1  0
 19 20  2  0
 19 21  1  0
 21 22  1  0
 22 23  2  0
 23 24  1  0
 24 25  2  0
 24 26  1  0
 26 27  1  0
 17 28  1  0
 28 29  1  0
 28 30  2  0
  7  2  1  0
 30 14  1  0
 27 21  2  0
  1 31  1  0
  1 32  1  0
  1 33  1  0
  3 34  1  0
  4 35  1  0
  5 36  1  0
  6 37  1  0
 10 38  1  0
 13 39  1  0
 15 40  1  0
 16 41  1  0
 22 42  1  0
 23 43  1  0
 27 44  1  0
 30 45  1  0
M  CHG  3  18  -1  26  -1  29  -1
M  END
>  <UniqueID>  (90) 
83

>  <SMILES>  (90) 
Cc1ccccc1C(=O)NC(=S)Nc1ccc([N-]C(=O)c2ccc(=O)[n-]c2)c([O-])c1

>  <Energy>  (90) 
68.07059185297028

>  <Genealogy>  (90) 
Cc1ccccc1C(=O)NC(=S)Nc1ccc([N-]C(=O)c2ccc(=O)[n-]c2)c([O-])c1 (protonated)
Cc1ccccc1C(=O)NC(=S)Nc1ccc([N-]C(=O)c2ccc(=O)[n-]c2)c([O-])c1 (3D coordinates assigned)
Cc1ccccc1C(=O)NC(=S)Nc1ccc([N-]C(=O)c2ccc(=O)[n-]c2)c([O-])c1 (optimized conformer: 68.07059185297028 kcal/mol)

>  <smiles>  (90) 
Cc1ccccc1C(=O)NC(=S)Nc1ccc(NC(=O)c2ccc(=O)[nH]c2)c(O)c1

>  <score_type>  (90) 
oracle

>  <origin>  (90) 
adg

>  <m_score__min__energy>  (90) 
-16.890000000000001

>  <m_primary>  (90) 
energy

$$$$
90:0
     RDKit          3D

 36 38  0  0  0  0  0  0  0  0999 V2000
   55.9050   19.7210   43.6790 N   0  0  0  0  0  0  0  0  0  0  0  0
   56.2820   20.9270   43.9500 C   0  0  0  0  0  0  0  0  0  0  0  0
   56.1090   21.9210   43.0390 N   0  0  0  0  0  0  0  0  0  0  0  0
   56.4990   23.1940   43.3080 C   0  0  0  0  0  0  0  0  0  0  0  0
   57.0950   23.5040   44.5410 C   0  0  0  0  0  0  0  0  0  0  0  0
   57.5320   24.8880   44.8570 C   0  0  0  0  0  0  0  0  0  0  0  0
   57.6470   25.3140   46.1930 C   0  0  0  0  0  0  0  0  0  0  0  0
   58.0630   26.6140   46.4900 C   0  0  0  0  0  0  0  0  0  0  0  0
   58.3830   27.5070   45.4580 C   0  0  0  0  0  0  0  0  0  0  0  0
   58.8170   28.8820   45.7670 C   0  0  0  0  0  0  0  0  0  0  0  0
   60.0050   29.0550   46.4950 C   0  0  0  0  0  0  0  0  0  0  0  0
   60.4720   30.3350   46.7980 C   0  0  0  0  0  0  0  0  0  0  0  0
   59.7550   31.4560   46.3800 C   0  0  0  0  0  0  0  0  0  0  0  0
   58.5650   31.3010   45.6660 C   0  0  0  0  0  0  0  0  0  0  0  0
   58.0760   30.0190   45.3560 C   0  0  0  0  0  0  0  0  0  0  0  0
   56.5300   29.8800   44.4960 S   0  0  0  0  0  0  0  0  0  0  0  0
   56.7770   29.3480   42.8680 N   0  0  0  0  0  0  0  0  0  0  0  0
   55.6520   28.8740   45.1860 O   0  0  0  0  0  0  0  0  0  0  0  0
   55.8260   31.2080   44.4980 O   0  0  0  0  0  0  0  0  0  0  0  0
   58.2490   27.0960   44.1240 C   0  0  0  0  0  0  0  0  0  0  0  0
   57.8340   25.7950   43.8250 C   0  0  0  0  0  0  0  0  0  0  0  0
   57.2630   22.4580   45.4610 C   0  0  0  0  0  0  0  0  0  0  0  0
   56.8550   21.2010   45.1490 N   0  0  0  0  0  0  0  0  0  0  0  0
   56.5950   18.9460   43.5590 H   0  0  0  0  0  0  0  0  0  0  0  0
   56.3475   23.9842   42.5579 H   0  0  0  0  0  0  0  0  0  0  0  0
   57.4074   24.6177   47.0102 H   0  0  0  0  0  0  0  0  0  0  0  0
   58.1398   26.9383   47.5383 H   0  0  0  0  0  0  0  0  0  0  0  0
   60.5727   28.1742   46.8295 H   0  0  0  0  0  0  0  0  0  0  0  0
   61.4055   30.4597   47.3664 H   0  0  0  0  0  0  0  0  0  0  0  0
   60.1277   32.4643   46.6133 H   0  0  0  0  0  0  0  0  0  0  0  0
   58.0043   32.1904   45.3427 H   0  0  0  0  0  0  0  0  0  0  0  0
   56.5610   28.3260   42.8350 H   0  0  0  0  0  0  0  0  0  0  0  0
   57.7910   29.4590   42.6480 H   0  0  0  0  0  0  0  0  0  0  0  0
   58.4715   27.8006   43.3091 H   0  0  0  0  0  0  0  0  0  0  0  0
   57.7430   25.4783   42.7755 H   0  0  0  0  0  0  0  0  0  0  0  0
   57.7268   22.6569   46.4384 H   0  0  0  0  0  0  0  0  0  0  0  0
  1  2  2  3
  2  3  1  0
  3  4  2  0
  4  5  1  0
  5  6  1  0
  6  7  2  0
  7  8  1  0
  8  9  2  0
  9 10  1  0
 10 11  2  0
 11 12  1  0
 12 13  2  0
 13 14  1  0
 14 15  2  0
 15 16  1  0
 16 17  1  0
 16 18  2  0
 16 19  2  0
  9 20  1  0
 20 21  2  0
  5 22  2  0
 22 23  1  0
 23  2  1  0
 21  6  1  0
 15 10  1  0
  1 24  1  0
  4 25  1  0
  7 26  1  0
  8 27  1  0
 11 28  1  0
 12 29  1  0
 13 30  1  0
 14 31  1  0
 17 32  1  0
 17 33  1  0
 20 34  1  0
 21 35  1  0
 22 36  1  0
M  CHG  1  23  -1
M  END
>  <UniqueID>  (91) 
84

>  <SMILES>  (91) 
N=c1ncc(-c2ccc(-c3ccccc3S(N)(=O)=O)cc2)c[n-]1

>  <Energy>  (91) 
52.139495289754976

>  <Genealogy>  (91) 
N=c1ncc(-c2ccc(-c3ccccc3S(N)(=O)=O)cc2)c[n-]1 (protonated)
N=c1ncc(-c2ccc(-c3ccccc3S(N)(=O)=O)cc2)c[n-]1 (3D coordinates assigned)
N=c1ncc(-c2ccc(-c3ccccc3S(N)(=O)=O)cc2)c[n-]1 (optimized conformer: 52.139495289754976 kcal/mol)

>  <smiles>  (91) 
N=c1ncc(-c2ccc(-c3ccccc3S(N)(=O)=O)cc2)c[nH]1

>  <score_type>  (91) 
oracle

>  <origin>  (91) 
adg

>  <m_score__min__energy>  (91) 
-10.42

>  <m_primary>  (91) 
energy

$$$$
91:0
     RDKit          3D

 60 63  0  0  0  0  0  0  0  0999 V2000
   58.3600   32.3130   49.2170 C   0  0  0  0  0  0  0  0  0  0  0  0
   57.8510   32.4450   47.8950 O   0  0  0  0  0  0  0  0  0  0  0  0
   58.3690   33.3150   46.9220 C   0  0  0  0  0  0  0  0  0  0  0  0
   59.1500   34.4360   47.2700 C   0  0  0  0  0  0  0  0  0  0  0  0
   59.5970   35.3220   46.2850 C   0  0  0  0  0  0  0  0  0  0  0  0
   59.2670   35.1070   44.9480 C   0  0  0  0  0  0  0  0  0  0  0  0
   58.5010   33.9960   44.5890 C   0  0  0  0  0  0  0  0  0  0  0  0
   58.0750   33.0800   45.5610 C   0  0  0  0  0  0  0  0  0  0  0  0
   57.2870   31.9570   45.1440 N   0  0  0  0  0  0  0  0  0  0  0  0
   57.4990   31.2010   43.9490 C   0  0  0  0  0  0  0  0  0  0  0  0
   57.4810   31.7660   42.8220 O   0  0  0  0  0  0  0  0  0  0  0  0
   57.7450   29.7330   44.0320 C   0  0  0  0  0  0  0  0  0  0  0  0
   56.6250   29.0090   45.2770 S   0  0  0  0  0  0  0  0  0  0  0  0
   57.6660   27.5660   45.5630 C   0  0  0  0  0  0  0  0  0  0  0  0
   57.2660   26.3910   45.0100 N   0  0  0  0  0  0  0  0  0  0  0  0
   57.9970   25.2590   45.1410 C   0  0  0  0  0  0  0  0  0  0  0  0
   57.5830   24.0580   44.5530 C   0  0  0  0  0  0  0  0  0  0  0  0
   56.5090   24.0020   43.8960 O   0  0  0  0  0  0  0  0  0  0  0  0
   58.3720   22.9110   44.6980 C   0  0  0  0  0  0  0  0  0  0  0  0
   59.5620   22.9830   45.4270 C   0  0  0  0  0  0  0  0  0  0  0  0
   60.3530   21.8490   45.5760 O   0  0  0  0  0  0  0  0  0  0  0  0
   59.9440   24.1620   45.9920 N   0  0  0  0  0  0  0  0  0  0  0  0
   59.1950   25.2920   45.8660 C   0  0  0  0  0  0  0  0  0  0  0  0
   59.5950   26.4970   46.4520 C   0  0  0  0  0  0  0  0  0  0  0  0
   60.6670   26.5270   47.1180 O   0  0  0  0  0  0  0  0  0  0  0  0
   58.8270   27.6290   46.3040 N   0  0  0  0  0  0  0  0  0  0  0  0
   59.2300   28.8850   46.9760 C   0  0  0  0  0  0  0  0  0  0  0  0
   60.3790   29.6000   46.2440 C   0  0  0  0  0  0  0  0  0  0  0  0
   60.6810   30.9890   46.8200 C   0  0  0  0  0  0  0  0  0  0  0  0
   61.8540   30.9170   47.7210 N   0  0  0  0  0  0  0  0  0  0  0  0
   63.0340   31.6010   47.1570 C   0  0  0  0  0  0  0  0  0  0  0  0
   62.8610   33.1380   47.1530 C   0  0  0  0  0  0  0  0  0  0  0  0
   61.7950   33.5770   47.9790 O   0  0  0  0  0  0  0  0  0  0  0  0
   61.8600   32.9290   49.2330 C   0  0  0  0  0  0  0  0  0  0  0  0
   61.5570   31.4240   49.0830 C   0  0  0  0  0  0  0  0  0  0  0  0
   57.5584   32.5209   49.9410 H   0  0  0  0  0  0  0  0  0  0  0  0
   58.7321   31.2886   49.3661 H   0  0  0  0  0  0  0  0  0  0  0  0
   59.1830   33.0274   49.3661 H   0  0  0  0  0  0  0  0  0  0  0  0
   59.4095   34.6149   48.3239 H   0  0  0  0  0  0  0  0  0  0  0  0
   60.2105   36.1907   46.5659 H   0  0  0  0  0  0  0  0  0  0  0  0
   59.6097   35.8119   44.1762 H   0  0  0  0  0  0  0  0  0  0  0  0
   58.2296   33.8383   43.5347 H   0  0  0  0  0  0  0  0  0  0  0  0
   57.5538   29.2716   43.0520 H   0  0  0  0  0  0  0  0  0  0  0  0
   58.7899   29.5483   44.3218 H   0  0  0  0  0  0  0  0  0  0  0  0
   58.0579   21.9606   44.2418 H   0  0  0  0  0  0  0  0  0  0  0  0
   60.0270   20.9450   45.2530 H   0  0  0  0  0  0  0  0  0  0  0  0
   58.3618   29.5594   47.0142 H   0  0  0  0  0  0  0  0  0  0  0  0
   59.5847   28.6265   47.9847 H   0  0  0  0  0  0  0  0  0  0  0  0
   61.2853   28.9818   46.3250 H   0  0  0  0  0  0  0  0  0  0  0  0
   60.0690   29.7369   45.1975 H   0  0  0  0  0  0  0  0  0  0  0  0
   60.8957   31.6864   45.9968 H   0  0  0  0  0  0  0  0  0  0  0  0
   59.8085   31.3426   47.3890 H   0  0  0  0  0  0  0  0  0  0  0  0
   63.9168   31.3438   47.7608 H   0  0  0  0  0  0  0  0  0  0  0  0
   63.1561   31.2684   46.1156 H   0  0  0  0  0  0  0  0  0  0  0  0
   63.7943   33.5969   47.5114 H   0  0  0  0  0  0  0  0  0  0  0  0
   62.6249   33.4402   46.1220 H   0  0  0  0  0  0  0  0  0  0  0  0
   62.8689   33.0545   49.6529 H   0  0  0  0  0  0  0  0  0  0  0  0
   61.1107   33.3765   49.9026 H   0  0  0  0  0  0  0  0  0  0  0  0
   62.1690   30.8671   49.8078 H   0  0  0  0  0  0  0  0  0  0  0  0
   60.4819   31.2800   49.2658 H   0  0  0  0  0  0  0  0  0  0  0  0
  1  2  1  0
  2  3  1  0
  3  4  2  0
  4  5  1  0
  5  6  2  0
  6  7  1  0
  7  8  2  0
  8  9  1  0
  9 10  1  0
 10 11  2  0
 10 12  1  0
 12 13  1  0
 13 14  1  0
 14 15  2  0
 15 16  1  0
 16 17  1  0
 17 18  2  0
 17 19  1  0
 19 20  2  0
 20 21  1  0
 20 22  1  0
 22 23  1  0
 23 24  1  0
 24 25  2  0
 24 26  1  0
 26 27  1  0
 27 28  1  0
 28 29  1  0
 29 30  1  0
 30 31  1  0
 31 32  1  0
 32 33  1  0
 33 34  1  0
 34 35  1  0
  8  3  1  0
 26 14  1  0
 35 30  1  0
 23 16  2  0
  1 36  1  0
  1 37  1  0
  1 38  1  0
  4 39  1  0
  5 40  1  0
  6 41  1  0
  7 42  1  0
 12 43  1  0
 12 44  1  0
 19 45  1  0
 21 46  1  0
 27 47  1  0
 27 48  1  0
 28 49  1  0
 28 50  1  0
 29 51  1  0
 29 52  1  0
 31 53  1  0
 31 54  1  0
 32 55  1  0
 32 56  1  0
 34 57  1  0
 34 58  1  0
 35 59  1  0
 35 60  1  0
M  CHG  2   9  -1  22  -1
M  END
>  <UniqueID>  (92) 
85

>  <SMILES>  (92) 
COc1ccccc1[N-]C(=O)CSc1nc2c(=O)cc(O)[n-]c2c(=O)n1CCCN1CCOCC1

>  <Energy>  (92) 
79.3110551858709

>  <Genealogy>  (92) 
COc1ccccc1[N-]C(=O)CSc1nc2c(=O)cc(O)[n-]c2c(=O)n1CCCN1CCOCC1 (protonated)
COc1ccccc1[N-]C(=O)CSc1nc2c(=O)cc(O)[n-]c2c(=O)n1CCCN1CCOCC1 (3D coordinates assigned)
COc1ccccc1[N-]C(=O)CSc1nc2c(=O)cc(O)[n-]c2c(=O)n1CCCN1CCOCC1 (nonaromatic ring conformer: 79.3110551858709 kcal/mol)

>  <smiles>  (92) 
COc1ccccc1NC(=O)CSc1nc2c(=O)cc(O)[nH]c2c(=O)n1CCCN1CCOCC1

>  <score_type>  (92) 
oracle

>  <origin>  (92) 
adg

>  <m_score__min__energy>  (92) 
-12.08

>  <m_primary>  (92) 
energy

$$$$
92:0
     RDKit          3D

 53 56  0  0  0  0  0  0  0  0999 V2000
   60.6100   33.8430   50.2470 Cl  0  0  0  0  0  0  0  0  0  0  0  0
   61.7550   33.6830   48.9420 C   0  0  0  0  0  0  0  0  0  0  0  0
   63.0750   33.4130   49.3130 C   0  0  0  0  0  0  0  0  0  0  0  0
   64.0700   33.2820   48.3690 C   0  0  0  0  0  0  0  0  0  0  0  0
   63.6960   33.4310   47.0510 C   0  0  0  0  0  0  0  0  0  0  0  0
   62.3940   33.6980   46.6860 C   0  0  0  0  0  0  0  0  0  0  0  0
   61.3680   33.8340   47.6330 C   0  0  0  0  0  0  0  0  0  0  0  0
   60.0680   34.0790   47.1750 N   0  0  0  0  0  0  0  0  0  0  0  0
   58.9730   33.2780   47.7580 C   0  0  0  0  0  0  0  0  0  0  0  0
   57.9030   33.2180   46.6520 C   0  0  0  0  0  0  0  0  0  0  0  0
   58.5940   33.0780   45.4130 N   0  0  0  0  0  0  0  0  0  0  0  0
   57.8490   32.4240   44.3850 C   0  0  0  0  0  0  0  0  0  0  0  0
   57.5520   31.0020   44.6630 C   0  0  0  0  0  0  0  0  0  0  0  0
   58.4930   30.3210   45.4440 C   0  0  0  0  0  0  0  0  0  0  0  0
   58.2970   28.9880   45.7450 C   0  0  0  0  0  0  0  0  0  0  0  0
   57.1750   28.3030   45.2840 C   0  0  0  0  0  0  0  0  0  0  0  0
   57.0610   26.8850   45.6690 C   0  0  0  0  0  0  0  0  0  0  0  0
   57.6870   25.8200   44.3670 S   0  0  0  0  0  0  0  0  0  0  0  0
   58.1050   24.1820   44.9700 C   0  0  0  0  0  0  0  0  0  0  0  0
   57.4690   23.1020   44.1850 C   0  0  0  0  0  0  0  0  0  0  0  0
   56.4680   23.0900   43.2730 C   0  0  0  0  0  0  0  0  0  0  0  0
   56.2490   21.8320   42.8360 N   0  0  0  0  0  0  0  0  0  0  0  0
   57.1150   21.0390   43.4720 N   0  0  0  0  0  0  0  0  0  0  0  0
   57.8790   21.7720   44.3050 C   0  0  0  0  0  0  0  0  0  0  0  0
   56.2700   28.9960   44.5230 C   0  0  0  0  0  0  0  0  0  0  0  0
   56.4390   30.3400   44.2010 C   0  0  0  0  0  0  0  0  0  0  0  0
   59.2320   34.2960   44.9660 C   0  0  0  0  0  0  0  0  0  0  0  0
   59.6440   35.0550   46.2010 C   0  0  0  0  0  0  0  0  0  0  0  0
   63.3243   33.3030   50.3787 H   0  0  0  0  0  0  0  0  0  0  0  0
   65.1111   33.0691   48.6532 H   0  0  0  0  0  0  0  0  0  0  0  0
   64.4603   33.3338   46.2659 H   0  0  0  0  0  0  0  0  0  0  0  0
   62.1518   33.8079   45.6186 H   0  0  0  0  0  0  0  0  0  0  0  0
   59.3246   32.2674   48.0132 H   0  0  0  0  0  0  0  0  0  0  0  0
   58.5857   33.7169   48.6893 H   0  0  0  0  0  0  0  0  0  0  0  0
   57.2394   32.3559   46.8143 H   0  0  0  0  0  0  0  0  0  0  0  0
   57.2823   34.1261   46.6557 H   0  0  0  0  0  0  0  0  0  0  0  0
   56.8953   32.9572   44.2577 H   0  0  0  0  0  0  0  0  0  0  0  0
   58.4733   32.4455   43.4796 H   0  0  0  0  0  0  0  0  0  0  0  0
   59.3851   30.8458   45.8164 H   0  0  0  0  0  0  0  0  0  0  0  0
   59.0395   28.4577   46.3594 H   0  0  0  0  0  0  0  0  0  0  0  0
   57.6421   26.7125   46.5869 H   0  0  0  0  0  0  0  0  0  0  0  0
   55.9999   26.6494   45.8382 H   0  0  0  0  0  0  0  0  0  0  0  0
   59.1967   24.0570   44.9194 H   0  0  0  0  0  0  0  0  0  0  0  0
   57.7324   24.1043   46.0021 H   0  0  0  0  0  0  0  0  0  0  0  0
   55.9130   23.9782   42.9366 H   0  0  0  0  0  0  0  0  0  0  0  0
   57.2270   19.9940   43.3760 H   0  0  0  0  0  0  0  0  0  0  0  0
   58.6782   21.3931   44.9590 H   0  0  0  0  0  0  0  0  0  0  0  0
   55.3771   28.4709   44.1529 H   0  0  0  0  0  0  0  0  0  0  0  0
   55.6930   30.8645   43.5860 H   0  0  0  0  0  0  0  0  0  0  0  0
   60.1160   34.0578   44.3562 H   0  0  0  0  0  0  0  0  0  0  0  0
   58.5470   34.8943   44.3472 H   0  0  0  0  0  0  0  0  0  0  0  0
   60.4733   35.7382   45.9653 H   0  0  0  0  0  0  0  0  0  0  0  0
   58.8091   35.6578   46.5876 H   0  0  0  0  0  0  0  0  0  0  0  0
  1  2  1  0
  2  3  2  0
  3  4  1  0
  4  5  2  0
  5  6  1  0
  6  7  2  0
  7  8  1  0
  8  9  1  0
  9 10  1  0
 10 11  1  0
 11 12  1  0
 12 13  1  0
 13 14  2  0
 14 15  1  0
 15 16  2  0
 16 17  1  0
 17 18  1  0
 18 19  1  0
 19 20  1  0
 20 21  1  0
 21 22  2  0
 22 23  1  0
 23 24  1  0
 16 25  1  0
 25 26  2  0
 11 27  1  0
 27 28  1  0
  7  2  1  0
 28  8  1  0
 26 13  1  0
 24 20  2  0
  3 29  1  0
  4 30  1  0
  5 31  1  0
  6 32  1  0
  9 33  1  0
  9 34  1  0
 10 35  1  0
 10 36  1  0
 12 37  1  0
 12 38  1  0
 14 39  1  0
 15 40  1  0
 17 41  1  0
 17 42  1  0
 19 43  1  0
 19 44  1  0
 21 45  1  0
 23 46  1  0
 24 47  1  0
 25 48  1  0
 26 49  1  0
 27 50  1  0
 27 51  1  0
 28 52  1  0
 28 53  1  0
M  END
>  <smiles>  (93) 
Clc1ccccc1N1CCN(Cc2ccc(CSCc3cn[nH]c3)cc2)CC1

>  <score_type>  (93) 
oracle

>  <origin>  (93) 
adg

>  <m_score__min__energy>  (93) 
-10.26

>  <m_primary>  (93) 
energy

$$$$
93:0
     RDKit          3D

 25 26  0  0  0  0  0  0  0  0999 V2000
   55.9860   21.4720   42.6420 O   0  0  0  0  0  0  0  0  0  0  0  0
   55.8710   22.5430   43.2970 C   0  0  0  0  0  0  0  0  0  0  0  0
   54.6790   23.2540   43.2210 O   0  0  0  0  0  0  0  0  0  0  0  0
   56.9870   23.0370   44.1330 C   0  0  0  0  0  0  0  0  0  0  0  0
   58.2380   22.3990   44.0930 C   0  0  0  0  0  0  0  0  0  0  0  0
   59.2930   22.8610   44.8840 C   0  0  0  0  0  0  0  0  0  0  0  0
   59.1120   23.9610   45.7240 C   0  0  0  0  0  0  0  0  0  0  0  0
   57.8720   24.6150   45.7760 C   0  0  0  0  0  0  0  0  0  0  0  0
   57.6660   25.7820   46.7070 C   0  0  0  0  0  0  0  0  0  0  0  0
   57.4080   27.0490   45.9240 C   0  0  0  0  0  0  0  0  0  0  0  0
   56.0980   27.4600   45.6180 C   0  0  0  0  0  0  0  0  0  0  0  0
   55.0030   26.6910   45.9950 O   0  0  0  0  0  0  0  0  0  0  0  0
   55.8890   28.6190   44.9420 N   0  0  0  0  0  0  0  0  0  0  0  0
   56.9280   29.4020   44.5550 C   0  0  0  0  0  0  0  0  0  0  0  0
   56.6430   30.7900   43.7440 S   0  0  0  0  0  0  0  0  0  0  0  0
   58.2010   29.0330   44.8420 N   0  0  0  0  0  0  0  0  0  0  0  0
   58.4650   27.8830   45.5140 C   0  0  0  0  0  0  0  0  0  0  0  0
   59.6610   27.5780   45.7640 O   0  0  0  0  0  0  0  0  0  0  0  0
   56.8120   24.1460   44.9820 C   0  0  0  0  0  0  0  0  0  0  0  0
   58.3878   21.5304   43.4349 H   0  0  0  0  0  0  0  0  0  0  0  0
   60.2695   22.3562   44.8446 H   0  0  0  0  0  0  0  0  0  0  0  0
   59.9453   24.3166   46.3479 H   0  0  0  0  0  0  0  0  0  0  0  0
   56.8031   25.5772   47.3577 H   0  0  0  0  0  0  0  0  0  0  0  0
   58.5750   25.9179   47.3114 H   0  0  0  0  0  0  0  0  0  0  0  0
   55.8355   24.6506   45.0243 H   0  0  0  0  0  0  0  0  0  0  0  0
  1  2  2  0
  2  3  1  0
  2  4  1  0
  4  5  2  0
  5  6  1  0
  6  7  2  0
  7  8  1  0
  8  9  1  0
  9 10  1  0
 10 11  2  0
 11 12  1  0
 11 13  1  0
 13 14  1  0
 14 15  2  0
 14 16  1  0
 16 17  1  0
 17 18  2  0
  8 19  2  0
 19  4  1  0
 17 10  1  0
  5 20  1  0
  6 21  1  0
  7 22  1  0
  9 23  1  0
  9 24  1  0
 19 25  1  0
M  CHG  4   3  -1  12  -1  13  -1  16  -1
M  END
>  <UniqueID>  (94) 
86

>  <SMILES>  (94) 
O=C([O-])c1cccc(Cc2c([O-])[n-]c(=S)[n-]c2=O)c1

>  <Energy>  (94) 
27.94022519666876

>  <Genealogy>  (94) 
O=C([O-])c1cccc(Cc2c([O-])[n-]c(=S)[n-]c2=O)c1 (protonated)
O=C([O-])c1cccc(Cc2c([O-])[n-]c(=S)[n-]c2=O)c1 (3D coordinates assigned)
O=C([O-])c1cccc(Cc2c([O-])[n-]c(=S)[n-]c2=O)c1 (optimized conformer: 27.94022519666876 kcal/mol)

>  <smiles>  (94) 
O=C(O)c1cccc(Cc2c(O)[nH]c(=S)[nH]c2=O)c1

>  <score_type>  (94) 
oracle

>  <origin>  (94) 
adg

>  <m_score__min__energy>  (94) 
-15.94

>  <m_primary>  (94) 
energy

$$$$
94:0
     RDKit          3D

 59 62  0  0  0  0  0  0  0  0999 V2000
   57.0550   31.0870   51.6190 C   0  0  0  0  0  0  0  0  0  0  0  0
   57.6220   30.0270   50.8560 O   0  0  0  0  0  0  0  0  0  0  0  0
   58.8760   30.0830   50.2280 C   0  0  0  0  0  0  0  0  0  0  0  0
   59.0390   29.8400   48.8500 C   0  0  0  0  0  0  0  0  0  0  0  0
   60.3110   29.9120   48.2600 C   0  0  0  0  0  0  0  0  0  0  0  0
   60.4860   29.5940   46.8010 C   0  0  0  0  0  0  0  0  0  0  0  0
   59.1770   29.3810   46.1730 N   0  0  0  0  0  0  0  0  0  0  0  0
   58.4380   30.4710   45.5950 C   0  0  0  0  0  0  0  0  0  0  0  0
   58.3220   30.5530   44.3430 O   0  0  0  0  0  0  0  0  0  0  0  0
   57.8560   31.5570   46.4550 C   0  0  0  0  0  0  0  0  0  0  0  0
   58.3440   32.8670   46.0130 N   0  0  0  0  0  0  0  0  0  0  0  0
   58.0060   33.4680   44.8550 C   0  0  0  0  0  0  0  0  0  0  0  0
   58.6250   34.6960   44.7580 C   0  0  0  0  0  0  0  0  0  0  0  0
   59.3720   34.8540   45.9070 C   0  0  0  0  0  0  0  0  0  0  0  0
   59.1820   33.7090   46.6630 C   0  0  0  0  0  0  0  0  0  0  0  0
   59.7770   33.4770   48.0000 C   0  0  0  0  0  0  0  0  0  0  0  0
   59.0170   33.3700   49.0000 O   0  0  0  0  0  0  0  0  0  0  0  0
   61.2440   33.4010   48.2020 C   0  0  0  0  0  0  0  0  0  0  0  0
   61.8290   33.7790   49.4250 C   0  0  0  0  0  0  0  0  0  0  0  0
   63.2160   33.7190   49.5950 C   0  0  0  0  0  0  0  0  0  0  0  0
   64.0330   33.2900   48.5460 C   0  0  0  0  0  0  0  0  0  0  0  0
   63.4650   32.9260   47.3220 C   0  0  0  0  0  0  0  0  0  0  0  0
   62.0790   32.9860   47.1480 C   0  0  0  0  0  0  0  0  0  0  0  0
   58.5290   28.1140   46.3480 C   0  0  0  0  0  0  0  0  0  0  0  0
   59.2750   27.0040   46.7450 C   0  0  0  0  0  0  0  0  0  0  0  0
   58.6500   25.7710   46.9380 C   0  0  0  0  0  0  0  0  0  0  0  0
   57.2640   25.6290   46.7400 C   0  0  0  0  0  0  0  0  0  0  0  0
   56.6370   24.3240   47.0430 C   0  0  0  0  0  0  0  0  0  0  0  0
   55.4090   24.1480   46.8280 O   0  0  0  0  0  0  0  0  0  0  0  0
   57.4010   23.2570   47.4980 O   0  0  0  0  0  0  0  0  0  0  0  0
   56.5170   26.7480   46.2980 C   0  0  0  0  0  0  0  0  0  0  0  0
   55.1580   26.6690   45.9870 O   0  0  0  0  0  0  0  0  0  0  0  0
   57.1530   27.9830   46.1260 C   0  0  0  0  0  0  0  0  0  0  0  0
   61.4250   30.2110   49.0580 C   0  0  0  0  0  0  0  0  0  0  0  0
   61.2680   30.4530   50.4230 C   0  0  0  0  0  0  0  0  0  0  0  0
   59.9990   30.3910   51.0050 C   0  0  0  0  0  0  0  0  0  0  0  0
   59.8610   30.6250   52.3350 F   0  0  0  0  0  0  0  0  0  0  0  0
   57.1711   30.8699   52.6911 H   0  0  0  0  0  0  0  0  0  0  0  0
   57.5699   32.0286   51.3777 H   0  0  0  0  0  0  0  0  0  0  0  0
   55.9860   31.1814   51.3777 H   0  0  0  0  0  0  0  0  0  0  0  0
   58.1635   29.5921   48.2319 H   0  0  0  0  0  0  0  0  0  0  0  0
   60.9963   30.4323   46.3042 H   0  0  0  0  0  0  0  0  0  0  0  0
   61.0877   28.6786   46.7007 H   0  0  0  0  0  0  0  0  0  0  0  0
   56.7589   31.5329   46.3784 H   0  0  0  0  0  0  0  0  0  0  0  0
   58.1625   31.3924   47.4985 H   0  0  0  0  0  0  0  0  0  0  0  0
   57.3334   33.0405   44.0968 H   0  0  0  0  0  0  0  0  0  0  0  0
   58.5398   35.4108   43.9262 H   0  0  0  0  0  0  0  0  0  0  0  0
   59.9965   35.7201   46.1712 H   0  0  0  0  0  0  0  0  0  0  0  0
   61.1914   34.1238   50.2524 H   0  0  0  0  0  0  0  0  0  0  0  0
   63.6644   34.0101   50.5564 H   0  0  0  0  0  0  0  0  0  0  0  0
   65.1232   33.2387   48.6834 H   0  0  0  0  0  0  0  0  0  0  0  0
   64.1088   32.5921   46.4950 H   0  0  0  0  0  0  0  0  0  0  0  0
   61.6379   32.7067   46.1798 H   0  0  0  0  0  0  0  0  0  0  0  0
   60.3588   27.1008   46.9064 H   0  0  0  0  0  0  0  0  0  0  0  0
   59.2473   24.9009   47.2482 H   0  0  0  0  0  0  0  0  0  0  0  0
   54.5380   25.9720   46.3750 H   0  0  0  0  0  0  0  0  0  0  0  0
   56.5659   28.8591   45.8134 H   0  0  0  0  0  0  0  0  0  0  0  0
   62.4267   30.2549   48.6057 H   0  0  0  0  0  0  0  0  0  0  0  0
   62.1448   30.6931   51.0423 H   0  0  0  0  0  0  0  0  0  0  0  0
  1  2  1  0
  2  3  1  0
  3  4  2  0
  4  5  1  0
  5  6  1  0
  6  7  1  0
  7  8  1  0
  8  9  2  0
  8 10  1  0
 10 11  1  0
 11 12  1  0
 12 13  2  0
 13 14  1  0
 14 15  2  0
 15 16  1  0
 16 17  2  0
 16 18  1  0
 18 19  2  0
 19 20  1  0
 20 21  2  0
 21 22  1  0
 22 23  2  0
  7 24  1  0
 24 25  2  0
 25 26  1  0
 26 27  2  0
 27 28  1  0
 28 29  2  0
 28 30  1  0
 27 31  1  0
 31 32  1  0
 31 33  2  0
  5 34  2  0
 34 35  1  0
 35 36  2  0
 36 37  1  0
 36  3  1  0
 15 11  1  0
 23 18  1  0
 33 24  1  0
  1 38  1  0
  1 39  1  0
  1 40  1  0
  4 41  1  0
  6 42  1  0
  6 43  1  0
 10 44  1  0
 10 45  1  0
 12 46  1  0
 13 47  1  0
 14 48  1  0
 19 49  1  0
 20 50  1  0
 21 51  1  0
 22 52  1  0
 23 53  1  0
 25 54  1  0
 26 55  1  0
 32 56  1  0
 33 57  1  0
 34 58  1  0
 35 59  1  0
M  CHG  1  30  -1
M  END
>  <UniqueID>  (95) 
87

>  <SMILES>  (95) 
COc1cc(CN(C(=O)Cn2cccc2C(=O)c2ccccc2)c2ccc(C(=O)[O-])c(O)c2)ccc1F

>  <Energy>  (95) 
105.74116417783786

>  <Genealogy>  (95) 
COc1cc(CN(C(=O)Cn2cccc2C(=O)c2ccccc2)c2ccc(C(=O)[O-])c(O)c2)ccc1F (protonated)
COc1cc(CN(C(=O)Cn2cccc2C(=O)c2ccccc2)c2ccc(C(=O)[O-])c(O)c2)ccc1F (3D coordinates assigned)
COc1cc(CN(C(=O)Cn2cccc2C(=O)c2ccccc2)c2ccc(C(=O)[O-])c(O)c2)ccc1F (optimized conformer: 105.74116417783786 kcal/mol)

>  <smiles>  (95) 
COc1cc(CN(C(=O)Cn2cccc2C(=O)c2ccccc2)c2ccc(C(=O)O)c(O)c2)ccc1F

>  <score_type>  (95) 
oracle

>  <origin>  (95) 
adg

>  <m_score__min__energy>  (95) 
-12.25

>  <m_primary>  (95) 
energy

$$$$
95:0
     RDKit          3D

 47 50  0  0  0  0  0  0  0  0999 V2000
   57.7271   30.7002   50.4904 H   0  0  0  0  0  0  0  0  0  0  0  0
   58.6910   30.4640   50.0160 C   0  0  0  0  0  0  0  0  0  0  0  0
   58.7210   29.7480   48.8160 C   0  0  0  0  0  0  0  0  0  0  0  0
   57.7797   29.4233   48.3485 H   0  0  0  0  0  0  0  0  0  0  0  0
   59.9480   29.4410   48.2040 C   0  0  0  0  0  0  0  0  0  0  0  0
   59.9740   28.7040   46.8900 C   0  0  0  0  0  0  0  0  0  0  0  0
   60.1244   27.6310   47.0796 H   0  0  0  0  0  0  0  0  0  0  0  0
   60.7969   29.0994   46.2763 H   0  0  0  0  0  0  0  0  0  0  0  0
   58.7010   28.8960   46.1640 N   0  0  0  0  0  0  0  0  0  0  0  0
   57.8120   27.8590   46.0180 C   0  0  0  0  0  0  0  0  0  0  0  0
   58.0710   26.7140   46.4780 O   0  0  0  0  0  0  0  0  0  0  0  0
   56.6300   28.0500   45.3770 N   0  0  0  0  0  0  0  0  0  0  0  0
   56.2790   29.2560   44.8690 C   0  0  0  0  0  0  0  0  0  0  0  0
   55.1700   29.3810   44.2840 O   0  0  0  0  0  0  0  0  0  0  0  0
   57.1520   30.3420   45.0070 C   0  0  0  0  0  0  0  0  0  0  0  0
   56.8440   31.6220   44.5230 C   0  0  0  0  0  0  0  0  0  0  0  0
   55.8926   31.7949   43.9986 H   0  0  0  0  0  0  0  0  0  0  0  0
   57.7400   32.6780   44.7040 C   0  0  0  0  0  0  0  0  0  0  0  0
   57.4030   33.8900   44.2000 F   0  0  0  0  0  0  0  0  0  0  0  0
   58.9640   32.4400   45.3720 C   0  0  0  0  0  0  0  0  0  0  0  0
   59.8520   33.3640   45.6120 N   0  0  0  0  0  0  0  0  0  0  0  0
   59.6850   34.6850   46.2190 C   0  0  0  0  0  0  0  0  0  0  0  0
   60.4798   35.3504   45.8508 H   0  0  0  0  0  0  0  0  0  0  0  0
   58.6923   35.0690   45.9414 H   0  0  0  0  0  0  0  0  0  0  0  0
   59.7630   34.6150   47.7540 C   0  0  0  0  0  0  0  0  0  0  0  0
   60.4264   35.4183   48.1068 H   0  0  0  0  0  0  0  0  0  0  0  0
   58.7380   34.7254   48.1376 H   0  0  0  0  0  0  0  0  0  0  0  0
   60.3020   33.2730   48.2750 C   0  0  0  0  0  0  0  0  0  0  0  0
   60.0417   33.1721   49.3390 H   0  0  0  0  0  0  0  0  0  0  0  0
   59.8478   32.4651   47.6826 H   0  0  0  0  0  0  0  0  0  0  0  0
   61.7530   33.1870   48.1310 N   0  0  0  0  0  0  0  0  0  0  0  0
   62.6810   33.7620   48.9180 C   0  0  0  0  0  0  0  0  0  0  0  0
   62.4816   34.3678   49.8142 H   0  0  0  0  0  0  0  0  0  0  0  0
   63.9250   33.4600   48.4060 C   0  0  0  0  0  0  0  0  0  0  0  0
   64.8883   33.7814   48.8288 H   0  0  0  0  0  0  0  0  0  0  0  0
   63.7640   32.7060   47.3020 N   0  0  0  0  0  0  0  0  0  0  0  0
   64.5140   32.3230   46.6850 H   0  0  0  0  0  0  0  0  0  0  0  0
   62.4340   32.5560   47.1530 C   0  0  0  0  0  0  0  0  0  0  0  0
   61.9624   31.9899   46.3362 H   0  0  0  0  0  0  0  0  0  0  0  0
   59.2360   31.1840   45.8100 N   0  0  0  0  0  0  0  0  0  0  0  0
   58.3800   30.1350   45.6610 C   0  0  0  0  0  0  0  0  0  0  0  0
   61.1440   29.8590   48.8150 C   0  0  0  0  0  0  0  0  0  0  0  0
   62.1105   29.6189   48.3478 H   0  0  0  0  0  0  0  0  0  0  0  0
   61.1100   30.5780   50.0130 C   0  0  0  0  0  0  0  0  0  0  0  0
   62.0488   30.9061   50.4832 H   0  0  0  0  0  0  0  0  0  0  0  0
   59.8850   30.8810   50.6150 C   0  0  0  0  0  0  0  0  0  0  0  0
   59.8450   31.7850   52.1180 Cl  0  0  0  0  0  0  0  0  0  0  0  0
  1  2  1  0
  2  3  2  0
  3  4  1  0
  3  5  1  0
  5  6  1  0
  6  7  1  0
  6  8  1  0
  6  9  1  0
  9 10  1  0
 10 11  2  0
 10 12  1  0
 12 13  1  0
 13 14  2  0
 13 15  1  0
 15 16  1  0
 16 17  1  0
 16 18  2  0
 18 19  1  0
 18 20  1  0
 20 21  2  0
 21 22  1  0
 22 23  1  0
 22 24  1  0
 22 25  1  0
 25 26  1  0
 25 27  1  0
 25 28  1  0
 28 29  1  0
 28 30  1  0
 28 31  1  0
 31 32  1  0
 32 33  1  0
 32 34  2  0
 34 35  1  0
 34 36  1  0
 36 37  1  0
 36 38  2  0
 38 39  1  0
 20 40  1  0
 40 41  1  0
  5 42  2  0
 42 43  1  0
 42 44  1  0
 44 45  1  0
 44 46  2  0
 46 47  1  0
 46  2  1  0
 41  9  1  0
 41 15  2  0
 38 31  1  0
M  CHG  3  12  -1  36   1  40  -1
M  END
>  <UniqueID>  (96) 
88

>  <SMILES>  (96) 
O=c1[n-]c(=O)n(Cc2ccc(Cl)cc2)c2[n-]/c(=N/CCCn3cc[nH+]c3)c(F)cc12

>  <Energy>  (96) 
88.67447495779993

>  <Genealogy>  (96) 
O=c1[n-]c(=O)n(Cc2ccc(Cl)cc2)c2[n-]c(=NCCCn3cc[nH+]c3)c(F)cc12 (protonated)
O=c1[n-]c(=O)n(Cc2ccc(Cl)cc2)c2[n-]/c(=N/CCCn3cc[nH+]c3)c(F)cc12 (cis-trans isomerization)
O=c1[n-]c(=O)n(Cc2ccc(Cl)cc2)c2[n-]/c(=N/CCCn3cc[nH+]c3)c(F)cc12 (3D coordinates assigned)
O=c1[n-]c(=O)n(Cc2ccc(Cl)cc2)c2[n-]/c(=N/CCCn3cc[nH+]c3)c(F)cc12 (optimized conformer: 88.67447495779993 kcal/mol)

>  <smiles>  (96) 
O=c1[nH]c(=O)n(Cc2ccc(Cl)cc2)c2[nH]c(=NCCCn3ccnc3)c(F)cc12

>  <score_type>  (96) 
oracle

>  <origin>  (96) 
adg

>  <m_score__min__energy>  (96) 
-8.0099999999999998

>  <m_primary>  (96) 
energy

$$$$
