0:0
     RDKit          3D

 36 38  0  0  0  0  0  0  0  0999 V2000
   58.5600   32.2080   49.6980 N   0  0  0  0  0  0  0  0  0  0  0  0
   59.6970   33.3090   49.0060 S   0  0  0  0  0  0  0  0  0  0  0  0
   59.6740   34.6030   49.7710 O   0  0  0  0  0  0  0  0  0  0  0  0
   61.0790   32.7230   49.0950 O   0  0  0  0  0  0  0  0  0  0  0  0
   59.2810   33.6030   47.3210 C   0  0  0  0  0  0  0  0  0  0  0  0
   59.5850   34.8330   46.7260 C   0  0  0  0  0  0  0  0  0  0  0  0
   59.2480   35.0690   45.3920 C   0  0  0  0  0  0  0  0  0  0  0  0
   58.5950   34.0840   44.6470 C   0  0  0  0  0  0  0  0  0  0  0  0
   58.2640   32.8470   45.2330 C   0  0  0  0  0  0  0  0  0  0  0  0
   57.5740   31.7830   44.4600 C   0  0  0  0  0  0  0  0  0  0  0  0
   57.4570   31.8440   43.0600 C   0  0  0  0  0  0  0  0  0  0  0  0
   56.8030   30.8170   42.3800 C   0  0  0  0  0  0  0  0  0  0  0  0
   56.2590   29.7440   43.0870 C   0  0  0  0  0  0  0  0  0  0  0  0
   56.3660   29.7180   44.4920 C   0  0  0  0  0  0  0  0  0  0  0  0
   55.8850   28.7430   45.2130 N   0  0  0  0  0  0  0  0  0  0  0  0
   56.5910   27.5730   45.6550 C   0  0  0  0  0  0  0  0  0  0  0  0
   57.9820   27.6330   45.8110 C   0  0  0  0  0  0  0  0  0  0  0  0
   58.6890   26.5190   46.2710 C   0  0  0  0  0  0  0  0  0  0  0  0
   58.0070   25.3440   46.6000 C   0  0  0  0  0  0  0  0  0  0  0  0
   56.6150   25.2860   46.4790 C   0  0  0  0  0  0  0  0  0  0  0  0
   55.9030   26.3990   46.0210 C   0  0  0  0  0  0  0  0  0  0  0  0
   54.5160   26.3410   45.9470 O   0  0  0  0  0  0  0  0  0  0  0  0
   57.0220   30.7280   45.1230 N   0  0  0  0  0  0  0  0  0  0  0  0
   58.6200   32.6160   46.5760 C   0  0  0  0  0  0  0  0  0  0  0  0
   58.7630   32.1640   50.7230 H   0  0  0  0  0  0  0  0  0  0  0  0
   60.0906   35.6154   47.3109 H   0  0  0  0  0  0  0  0  0  0  0  0
   59.4974   36.0337   44.9259 H   0  0  0  0  0  0  0  0  0  0  0  0
   58.3375   34.2761   43.5950 H   0  0  0  0  0  0  0  0  0  0  0  0
   57.8782   32.6954   42.5053 H   0  0  0  0  0  0  0  0  0  0  0  0
   56.7158   30.8529   41.2840 H   0  0  0  0  0  0  0  0  0  0  0  0
   55.7518   28.9268   42.5532 H   0  0  0  0  0  0  0  0  0  0  0  0
   58.5202   28.5616   45.5702 H   0  0  0  0  0  0  0  0  0  0  0  0
   59.7831   26.5667   46.3743 H   0  0  0  0  0  0  0  0  0  0  0  0
   58.5653   24.4649   46.9541 H   0  0  0  0  0  0  0  0  0  0  0  0
   56.0790   24.3629   46.7447 H   0  0  0  0  0  0  0  0  0  0  0  0
   58.3770   31.6513   47.0453 H   0  0  0  0  0  0  0  0  0  0  0  0
  1  2  1  0
  2  3  2  0
  2  4  2  0
  2  5  1  0
  5  6  2  0
  6  7  1  0
  7  8  2  0
  8  9  1  0
  9 10  1  0
 10 11  2  0
 11 12  1  0
 12 13  2  0
 13 14  1  0
 14 15  2  3
 15 16  1  0
 16 17  2  0
 17 18  1  0
 18 19  2  0
 19 20  1  0
 20 21  2  0
 21 22  1  0
 14 23  1  0
  9 24  2  0
 24  5  1  0
 23 10  1  0
 21 16  1  0
  1 25  1  0
  6 26  1  0
  7 27  1  0
  8 28  1  0
 11 29  1  0
 12 30  1  0
 13 31  1  0
 17 32  1  0
 18 33  1  0
 19 34  1  0
 20 35  1  0
 24 36  1  0
M  CHG  3   1  -1  22  -1  23  -1
M  END
>  <UniqueID>  (1) 
1

>  <SMILES>  (1) 
[NH-]S(=O)(=O)c1cccc(-c2cccc(=Nc3ccccc3[O-])[n-]2)c1

>  <Energy>  (1) 
53.716194498659476

>  <Genealogy>  (1) 
[NH-]S(=O)(=O)c1cccc(-c2cccc(=Nc3ccccc3[O-])[n-]2)c1 (protonated)
[NH-]S(=O)(=O)c1cccc(-c2cccc(=Nc3ccccc3[O-])[n-]2)c1 (3D coordinates assigned)
[NH-]S(=O)(=O)c1cccc(-c2cccc(=Nc3ccccc3[O-])[n-]2)c1 (optimized conformer: 53.716194498659476 kcal/mol)

>  <smiles>  (1) 
NS(=O)(=O)c1cccc(-c2cccc(=Nc3ccccc3O)[nH]2)c1

>  <score_type>  (1) 
oracle

>  <origin>  (1) 
adg

>  <m_score__min__energy>  (1) 
-16.359999999999999

>  <m_primary>  (1) 
energy

$$$$
1:0
     RDKit          3D

 43 45  0  0  0  0  0  0  0  0999 V2000
   55.8710   29.2720   45.2280 O   0  0  0  0  0  0  0  0  0  0  0  0
   56.6530   29.9910   44.5500 C   0  0  0  0  0  0  0  0  0  0  0  0
   56.4670   31.4100   44.5520 N   0  0  0  0  0  0  0  0  0  0  0  0
   57.4380   32.3790   44.9710 C   0  0  0  0  0  0  0  0  0  0  0  0
   57.9820   33.3140   44.0740 C   0  0  0  0  0  0  0  0  0  0  0  0
   58.9460   34.2270   44.5090 C   0  0  0  0  0  0  0  0  0  0  0  0
   59.3890   34.2010   45.8330 C   0  0  0  0  0  0  0  0  0  0  0  0
   58.8810   33.2490   46.7280 C   0  0  0  0  0  0  0  0  0  0  0  0
   59.4700   33.1920   48.3930 S   0  0  0  0  0  0  0  0  0  0  0  0
   58.5700   32.3010   49.2040 O   0  0  0  0  0  0  0  0  0  0  0  0
   59.4150   34.5730   48.9860 O   0  0  0  0  0  0  0  0  0  0  0  0
   61.1090   32.5880   48.4780 N   0  0  0  0  0  0  0  0  0  0  0  0
   61.9420   33.4720   49.3160 C   0  0  0  0  0  0  0  0  0  0  0  0
   63.4330   33.2710   49.0000 C   0  0  0  0  0  0  0  0  0  0  0  0
   63.7830   33.5530   47.6500 O   0  0  0  0  0  0  0  0  0  0  0  0
   62.6950   33.4480   46.7410 C   0  0  0  0  0  0  0  0  0  0  0  0
   61.6790   32.3590   47.1320 C   0  0  0  0  0  0  0  0  0  0  0  0
   57.9060   32.3410   46.2910 C   0  0  0  0  0  0  0  0  0  0  0  0
   57.6730   29.3830   43.7450 N   0  0  0  0  0  0  0  0  0  0  0  0
   58.0780   27.9910   43.9160 C   0  0  0  0  0  0  0  0  0  0  0  0
   58.8050   27.8280   45.2130 C   0  0  0  0  0  0  0  0  0  0  0  0
   59.6650   28.7580   45.7820 C   0  0  0  0  0  0  0  0  0  0  0  0
   60.1490   28.3630   47.0350 C   0  0  0  0  0  0  0  0  0  0  0  0
   59.6650   27.1310   47.4570 C   0  0  0  0  0  0  0  0  0  0  0  0
   58.6320   26.5350   46.2720 S   0  0  0  0  0  0  0  0  0  0  0  0
   57.6478   33.3271   43.0261 H   0  0  0  0  0  0  0  0  0  0  0  0
   59.3568   34.9677   43.8071 H   0  0  0  0  0  0  0  0  0  0  0  0
   60.1388   34.9297   46.1748 H   0  0  0  0  0  0  0  0  0  0  0  0
   61.6689   34.5192   49.1192 H   0  0  0  0  0  0  0  0  0  0  0  0
   61.7676   33.2252   50.3737 H   0  0  0  0  0  0  0  0  0  0  0  0
   64.0175   33.9344   49.6544 H   0  0  0  0  0  0  0  0  0  0  0  0
   63.6529   32.2066   49.1694 H   0  0  0  0  0  0  0  0  0  0  0  0
   62.1737   34.4160   46.7068 H   0  0  0  0  0  0  0  0  0  0  0  0
   63.1130   33.1681   45.7628 H   0  0  0  0  0  0  0  0  0  0  0  0
   60.8613   32.3560   46.3962 H   0  0  0  0  0  0  0  0  0  0  0  0
   62.2058   31.3934   47.1467 H   0  0  0  0  0  0  0  0  0  0  0  0
   57.5052   31.5926   46.9904 H   0  0  0  0  0  0  0  0  0  0  0  0
   58.1450   29.9500   43.0040 H   0  0  0  0  0  0  0  0  0  0  0  0
   57.1851   27.3486   43.9151 H   0  0  0  0  0  0  0  0  0  0  0  0
   58.7438   27.7033   43.0890 H   0  0  0  0  0  0  0  0  0  0  0  0
   59.9379   29.7074   45.2981 H   0  0  0  0  0  0  0  0  0  0  0  0
   60.8469   28.9710   47.6294 H   0  0  0  0  0  0  0  0  0  0  0  0
   59.9149   26.6310   48.4044 H   0  0  0  0  0  0  0  0  0  0  0  0
  1  2  2  0
  2  3  1  0
  3  4  1  0
  4  5  2  0
  5  6  1  0
  6  7  2  0
  7  8  1  0
  8  9  1  0
  9 10  2  0
  9 11  2  0
  9 12  1  0
 12 13  1  0
 13 14  1  0
 14 15  1  0
 15 16  1  0
 16 17  1  0
  8 18  2  0
  2 19  1  0
 19 20  1  0
 20 21  1  0
 21 22  2  0
 22 23  1  0
 23 24  2  0
 24 25  1  0
 18  4  1  0
 25 21  1  0
 17 12  1  0
  5 26  1  0
  6 27  1  0
  7 28  1  0
 13 29  1  0
 13 30  1  0
 14 31  1  0
 14 32  1  0
 16 33  1  0
 16 34  1  0
 17 35  1  0
 17 36  1  0
 18 37  1  0
 19 38  1  0
 20 39  1  0
 20 40  1  0
 22 41  1  0
 23 42  1  0
 24 43  1  0
M  CHG  1   3  -1
M  END
>  <UniqueID>  (2) 
2

>  <SMILES>  (2) 
O=C([N-]c1cccc(S(=O)(=O)N2CCOCC2)c1)NCc1cccs1

>  <Energy>  (2) 
81.81788906852842

>  <Genealogy>  (2) 
O=C([N-]c1cccc(S(=O)(=O)N2CCOCC2)c1)NCc1cccs1 (protonated)
O=C([N-]c1cccc(S(=O)(=O)N2CCOCC2)c1)NCc1cccs1 (3D coordinates assigned)
O=C([N-]c1cccc(S(=O)(=O)N2CCOCC2)c1)NCc1cccs1 (nonaromatic ring conformer: 81.81788906852842 kcal/mol)

>  <smiles>  (2) 
O=C(NCc1cccs1)Nc1cccc(S(=O)(=O)N2CCOCC2)c1

>  <score_type>  (2) 
oracle

>  <origin>  (2) 
adg

>  <m_score__min__energy>  (2) 
-10.27

>  <m_primary>  (2) 
energy

$$$$
2:0
     RDKit          3D

 31 32  0  0  0  0  0  0  0  0999 V2000
   60.3620   26.9990   48.6090 C   0  0  0  0  0  0  0  0  0  0  0  0
   59.6640   27.4750   47.3830 C   0  0  0  0  0  0  0  0  0  0  0  0
   60.3610   28.1850   46.4920 N   0  0  0  0  0  0  0  0  0  0  0  0
   59.8590   28.6720   45.3500 C   0  0  0  0  0  0  0  0  0  0  0  0
   60.5850   29.3320   44.5660 O   0  0  0  0  0  0  0  0  0  0  0  0
   58.5260   28.4220   45.0750 C   0  0  0  0  0  0  0  0  0  0  0  0
   57.9440   28.9180   43.8740 N   0  0  0  0  0  0  0  0  0  0  0  0
   56.8100   30.2190   44.0050 S   0  0  0  0  0  0  0  0  0  0  0  0
   56.2690   30.6010   42.6650 O   0  0  0  0  0  0  0  0  0  0  0  0
   55.6710   29.7280   44.8630 O   0  0  0  0  0  0  0  0  0  0  0  0
   57.6180   31.5760   44.7340 C   0  0  0  0  0  0  0  0  0  0  0  0
   57.8110   32.7190   43.9830 C   0  0  0  0  0  0  0  0  0  0  0  0
   58.4520   33.8390   44.5150 C   0  0  0  0  0  0  0  0  0  0  0  0
   58.9040   33.7940   45.8370 C   0  0  0  0  0  0  0  0  0  0  0  0
   59.5300   34.9050   46.3360 F   0  0  0  0  0  0  0  0  0  0  0  0
   58.7180   32.6610   46.5990 C   0  0  0  0  0  0  0  0  0  0  0  0
   58.0780   31.5670   46.0400 C   0  0  0  0  0  0  0  0  0  0  0  0
   57.7880   27.6880   45.9870 C   0  0  0  0  0  0  0  0  0  0  0  0
   56.4350   27.4470   45.6850 N   0  0  0  0  0  0  0  0  0  0  0  0
   58.3680   27.2230   47.1300 N   0  0  0  0  0  0  0  0  0  0  0  0
   59.8284   27.3629   49.4994 H   0  0  0  0  0  0  0  0  0  0  0  0
   60.3806   25.8992   48.6167 H   0  0  0  0  0  0  0  0  0  0  0  0
   61.3927   27.3832   48.6167 H   0  0  0  0  0  0  0  0  0  0  0  0
   58.2080   28.4950   42.9500 H   0  0  0  0  0  0  0  0  0  0  0  0
   57.4520   32.7473   42.9436 H   0  0  0  0  0  0  0  0  0  0  0  0
   58.5990   34.7419   43.9042 H   0  0  0  0  0  0  0  0  0  0  0  0
   59.0737   32.6257   47.6393 H   0  0  0  0  0  0  0  0  0  0  0  0
   57.9309   30.6646   46.6516 H   0  0  0  0  0  0  0  0  0  0  0  0
   56.0790   27.6000   44.7170 H   0  0  0  0  0  0  0  0  0  0  0  0
   55.7250   27.1100   46.3840 H   0  0  0  0  0  0  0  0  0  0  0  0
   57.8100   26.6680   47.8190 H   0  0  0  0  0  0  0  0  0  0  0  0
  1  2  1  0
  2  3  2  0
  3  4  1  0
  4  5  2  0
  4  6  1  0
  6  7  1  0
  7  8  1  0
  8  9  2  0
  8 10  2  0
  8 11  1  0
 11 12  2  0
 12 13  1  0
 13 14  2  0
 14 15  1  0
 14 16  1  0
 16 17  2  0
  6 18  2  0
 18 19  1  0
 18 20  1  0
 20  2  1  0
 17 11  1  0
  1 21  1  0
  1 22  1  0
  1 23  1  0
  7 24  1  0
 12 25  1  0
 13 26  1  0
 16 27  1  0
 17 28  1  0
 19 29  1  0
 19 30  1  0
 20 31  1  0
M  END
>  <smiles>  (3) 
Cc1nc(=O)c(NS(=O)(=O)c2ccc(F)cc2)c(N)[nH]1

>  <score_type>  (3) 
oracle

>  <origin>  (3) 
adg

>  <m_score__min__energy>  (3) 
-7.0999999999999996

>  <m_primary>  (3) 
energy

$$$$
3:0
     RDKit          3D

 31 32  0  0  0  0  0  0  0  0999 V2000
   54.7200   28.9670   45.6060 H   0  0  0  0  0  0  0  0  0  0  0  0
   55.2460   29.4050   44.8610 O   0  0  0  0  0  0  0  0  0  0  0  0
   56.4110   28.8660   44.3480 N   0  0  0  0  0  0  0  0  0  0  0  0
   57.4610   28.5500   45.0520 C   0  0  0  0  0  0  0  0  0  0  0  0
   58.4780   29.5700   45.4080 C   0  0  0  0  0  0  0  0  0  0  0  0
   59.1908   29.3540   46.2174 H   0  0  0  0  0  0  0  0  0  0  0  0
   58.5530   30.7480   44.7710 C   0  0  0  0  0  0  0  0  0  0  0  0
   58.5538   30.7426   43.6710 H   0  0  0  0  0  0  0  0  0  0  0  0
   58.6350   32.0580   45.4630 C   0  0  0  0  0  0  0  0  0  0  0  0
   58.4290   33.2280   44.7110 C   0  0  0  0  0  0  0  0  0  0  0  0
   58.2181   33.1542   43.6339 H   0  0  0  0  0  0  0  0  0  0  0  0
   58.4900   34.4840   45.3210 C   0  0  0  0  0  0  0  0  0  0  0  0
   58.3360   35.3933   44.7215 H   0  0  0  0  0  0  0  0  0  0  0  0
   58.7460   34.5870   46.6900 C   0  0  0  0  0  0  0  0  0  0  0  0
   58.7964   35.5763   47.1683 H   0  0  0  0  0  0  0  0  0  0  0  0
   58.9380   33.4310   47.4510 C   0  0  0  0  0  0  0  0  0  0  0  0
   59.1364   33.5122   48.5299 H   0  0  0  0  0  0  0  0  0  0  0  0
   58.8790   32.1720   46.8470 C   0  0  0  0  0  0  0  0  0  0  0  0
   59.0236   31.2661   47.4540 H   0  0  0  0  0  0  0  0  0  0  0  0
   57.5810   27.1550   45.5500 C   0  0  0  0  0  0  0  0  0  0  0  0
   58.8420   26.5320   45.5900 C   0  0  0  0  0  0  0  0  0  0  0  0
   59.7310   27.0781   45.2415 H   0  0  0  0  0  0  0  0  0  0  0  0
   58.9750   25.2270   46.0680 C   0  0  0  0  0  0  0  0  0  0  0  0
   59.9655   24.7491   46.0901 H   0  0  0  0  0  0  0  0  0  0  0  0
   57.8540   24.5270   46.5180 C   0  0  0  0  0  0  0  0  0  0  0  0
   57.9970   23.2290   46.9920 O   0  0  0  0  0  0  0  0  0  0  0  0
   56.5900   25.1290   46.4890 C   0  0  0  0  0  0  0  0  0  0  0  0
   55.4830   24.4090   46.9420 O   0  0  0  0  0  0  0  0  0  0  0  0
   54.5380   24.7630   46.8560 H   0  0  0  0  0  0  0  0  0  0  0  0
   56.4510   26.4430   46.0050 C   0  0  0  0  0  0  0  0  0  0  0  0
   55.1880   27.0280   45.9620 O   0  0  0  0  0  0  0  0  0  0  0  0
  1  2  1  0
  2  3  1  0
  3  4  2  0
  4  5  1  0
  5  6  1  0
  5  7  2  0
  7  8  1  0
  7  9  1  0
  9 10  2  0
 10 11  1  0
 10 12  1  0
 12 13  1  0
 12 14  2  0
 14 15  1  0
 14 16  1  0
 16 17  1  0
 16 18  2  0
 18 19  1  0
  4 20  1  0
 20 21  2  0
 21 22  1  0
 21 23  1  0
 23 24  1  0
 23 25  2  0
 25 26  1  0
 25 27  1  0
 27 28  1  0
 28 29  1  0
 27 30  2  0
 30 31  1  0
 18  9  1  0
 30 20  1  0
M  CHG  2  26  -1  31  -1
M  END
>  <UniqueID>  (4) 
3

>  <SMILES>  (4) 
[O-]c1ccc(C(/C=C/c2ccccc2)=N/O)c([O-])c1O

>  <Energy>  (4) 
43.961305742036465

>  <Genealogy>  (4) 
[O-]c1ccc(C(C=Cc2ccccc2)=NO)c([O-])c1O (protonated)
[O-]c1ccc(C(/C=C/c2ccccc2)=N/O)c([O-])c1O (cis-trans isomerization)
[O-]c1ccc(C(/C=C/c2ccccc2)=N/O)c([O-])c1O (3D coordinates assigned)
[O-]c1ccc(C(/C=C/c2ccccc2)=N/O)c([O-])c1O (optimized conformer: 43.961305742036465 kcal/mol)

>  <smiles>  (4) 
ON=C(C=Cc1ccccc1)c1ccc(O)c(O)c1O

>  <score_type>  (4) 
oracle

>  <origin>  (4) 
adg

>  <m_score__min__energy>  (4) 
-13.949999999999999

>  <m_primary>  (4) 
energy

$$$$
4:0
     RDKit          3D

 45 47  0  0  0  0  0  0  0  0999 V2000
   54.9350   26.3290   46.0830 N   0  0  0  0  0  0  0  0  0  0  0  0
   56.5500   25.7170   46.1050 S   0  0  0  0  0  0  0  0  0  0  0  0
   56.8640   25.1760   47.4720 O   0  0  0  0  0  0  0  0  0  0  0  0
   56.6820   24.6030   45.1040 O   0  0  0  0  0  0  0  0  0  0  0  0
   57.6690   27.0140   45.7020 C   0  0  0  0  0  0  0  0  0  0  0  0
   59.0470   26.8440   45.8960 C   0  0  0  0  0  0  0  0  0  0  0  0
   59.9320   27.8810   45.5910 C   0  0  0  0  0  0  0  0  0  0  0  0
   59.4470   29.0940   45.0960 C   0  0  0  0  0  0  0  0  0  0  0  0
   58.0720   29.2750   44.8990 C   0  0  0  0  0  0  0  0  0  0  0  0
   57.4770   30.8190   44.2980 S   0  0  0  0  0  0  0  0  0  0  0  0
   57.4140   30.7580   42.7970 O   0  0  0  0  0  0  0  0  0  0  0  0
   56.0930   31.0850   44.8270 O   0  0  0  0  0  0  0  0  0  0  0  0
   58.5590   32.0960   44.7990 N   0  0  0  0  0  0  0  0  0  0  0  0
   58.9100   31.9690   46.2340 C   0  0  0  0  0  0  0  0  0  0  0  0
   58.1280   32.9520   47.1230 C   0  0  0  0  0  0  0  0  0  0  0  0
   58.3350   34.3670   46.7180 N   0  0  0  0  0  0  0  0  0  0  0  0
   59.3630   35.0250   47.5520 C   0  0  0  0  0  0  0  0  0  0  0  0
   60.6430   34.2280   47.5570 C   0  0  0  0  0  0  0  0  0  0  0  0
   61.0090   33.4610   48.6720 C   0  0  0  0  0  0  0  0  0  0  0  0
   62.1860   32.7110   48.6460 C   0  0  0  0  0  0  0  0  0  0  0  0
   62.9860   32.7340   47.5020 C   0  0  0  0  0  0  0  0  0  0  0  0
   62.6150   33.4770   46.4260 N   0  0  0  0  0  0  0  0  0  0  0  0
   61.4730   34.2160   46.4270 C   0  0  0  0  0  0  0  0  0  0  0  0
   58.6250   34.5270   45.2710 C   0  0  0  0  0  0  0  0  0  0  0  0
   57.9860   33.4090   44.4400 C   0  0  0  0  0  0  0  0  0  0  0  0
   57.1850   28.2340   45.2100 C   0  0  0  0  0  0  0  0  0  0  0  0
   54.7680   26.7160   45.1260 H   0  0  0  0  0  0  0  0  0  0  0  0
   59.4323   25.8917   46.2893 H   0  0  0  0  0  0  0  0  0  0  0  0
   61.0129   27.7421   45.7409 H   0  0  0  0  0  0  0  0  0  0  0  0
   60.1468   29.9093   44.8603 H   0  0  0  0  0  0  0  0  0  0  0  0
   58.6867   30.9430   46.5620 H   0  0  0  0  0  0  0  0  0  0  0  0
   59.9796   32.2040   46.3378 H   0  0  0  0  0  0  0  0  0  0  0  0
   57.0558   32.7170   47.0517 H   0  0  0  0  0  0  0  0  0  0  0  0
   58.4966   32.8398   48.1533 H   0  0  0  0  0  0  0  0  0  0  0  0
   59.5652   36.0285   47.1494 H   0  0  0  0  0  0  0  0  0  0  0  0
   58.9876   35.0933   48.5837 H   0  0  0  0  0  0  0  0  0  0  0  0
   60.3691   33.4502   49.5667 H   0  0  0  0  0  0  0  0  0  0  0  0
   62.4802   32.1081   49.5178 H   0  0  0  0  0  0  0  0  0  0  0  0
   63.9177   32.1501   47.4714 H   0  0  0  0  0  0  0  0  0  0  0  0
   61.2000   34.8055   45.5393 H   0  0  0  0  0  0  0  0  0  0  0  0
   58.2275   35.4951   44.9323 H   0  0  0  0  0  0  0  0  0  0  0  0
   59.7151   34.4790   45.1314 H   0  0  0  0  0  0  0  0  0  0  0  0
   56.9025   33.3935   44.6289 H   0  0  0  0  0  0  0  0  0  0  0  0
   58.1863   33.6021   43.3758 H   0  0  0  0  0  0  0  0  0  0  0  0
   56.1036   28.3758   45.0670 H   0  0  0  0  0  0  0  0  0  0  0  0
  1  2  1  0
  2  3  2  0
  2  4  2  0
  2  5  1  0
  5  6  2  0
  6  7  1  0
  7  8  2  0
  8  9  1  0
  9 10  1  0
 10 11  2  0
 10 12  2  0
 10 13  1  0
 13 14  1  0
 14 15  1  0
 15 16  1  0
 16 17  1  0
 17 18  1  0
 18 19  2  0
 19 20  1  0
 20 21  2  0
 21 22  1  0
 22 23  2  0
 16 24  1  0
 24 25  1  0
  9 26  2  0
 26  5  1  0
 25 13  1  0
 23 18  1  0
  1 27  1  0
  6 28  1  0
  7 29  1  0
  8 30  1  0
 14 31  1  0
 14 32  1  0
 15 33  1  0
 15 34  1  0
 17 35  1  0
 17 36  1  0
 19 37  1  0
 20 38  1  0
 21 39  1  0
 23 40  1  0
 24 41  1  0
 24 42  1  0
 25 43  1  0
 25 44  1  0
 26 45  1  0
M  CHG  1   1  -1
M  END
>  <UniqueID>  (5) 
4

>  <SMILES>  (5) 
[NH-]S(=O)(=O)c1cccc(S(=O)(=O)N2CCN(Cc3cccnc3)CC2)c1

>  <Energy>  (5) 
58.276452561999584

>  <Genealogy>  (5) 
[NH-]S(=O)(=O)c1cccc(S(=O)(=O)N2CCN(Cc3cccnc3)CC2)c1 (protonated)
[NH-]S(=O)(=O)c1cccc(S(=O)(=O)N2CCN(Cc3cccnc3)CC2)c1 (3D coordinates assigned)
[NH-]S(=O)(=O)c1cccc(S(=O)(=O)N2CCN(Cc3cccnc3)CC2)c1 (nonaromatic ring conformer: 58.276452561999584 kcal/mol)

>  <smiles>  (5) 
NS(=O)(=O)c1cccc(S(=O)(=O)N2CCN(Cc3cccnc3)CC2)c1

>  <score_type>  (5) 
oracle

>  <origin>  (5) 
adg

>  <m_score__min__energy>  (5) 
-13.119999999999999

>  <m_primary>  (5) 
energy

$$$$
5:0
     RDKit          3D

 59 62  0  0  0  0  0  0  0  0999 V2000
   57.5410   31.9690   43.0620 C   0  0  0  0  0  0  0  0  0  0  0  0
   58.1110   32.4920   44.3550 C   0  0  0  0  0  0  0  0  0  0  0  0
   58.4690   33.8490   44.4290 C   0  0  0  0  0  0  0  0  0  0  0  0
   58.9480   34.3970   45.6190 C   0  0  0  0  0  0  0  0  0  0  0  0
   59.0830   33.5950   46.7550 C   0  0  0  0  0  0  0  0  0  0  0  0
   59.6820   34.2970   48.2910 S   0  0  0  0  0  0  0  0  0  0  0  0
   61.2850   33.4890   48.1720 C   0  0  0  0  0  0  0  0  0  0  0  0
   62.1070   33.8100   47.0830 C   0  0  0  0  0  0  0  0  0  0  0  0
   63.3420   33.1800   46.9160 C   0  0  0  0  0  0  0  0  0  0  0  0
   63.7660   32.2220   47.8370 C   0  0  0  0  0  0  0  0  0  0  0  0
   62.9630   31.9020   48.9340 C   0  0  0  0  0  0  0  0  0  0  0  0
   61.7230   32.5360   49.1230 C   0  0  0  0  0  0  0  0  0  0  0  0
   60.9210   32.1920   50.2700 N   0  0  0  0  0  0  0  0  0  0  0  0
   60.3510   33.2610   51.1010 C   0  0  0  0  0  0  0  0  0  0  0  0
   58.8670   33.0000   51.3830 C   0  0  0  0  0  0  0  0  0  0  0  0
   58.1420   32.2330   50.2590 C   0  0  0  0  0  0  0  0  0  0  0  0
   58.2200   30.7650   50.3510 N   0  0  0  0  0  0  0  0  0  0  0  0
   59.4890   30.1940   49.8700 C   0  0  0  0  0  0  0  0  0  0  0  0
   60.7000   30.7820   50.6140 C   0  0  0  0  0  0  0  0  0  0  0  0
   58.7360   32.2430   46.6950 C   0  0  0  0  0  0  0  0  0  0  0  0
   58.2870   31.6670   45.4950 C   0  0  0  0  0  0  0  0  0  0  0  0
   57.9940   30.2180   45.4840 C   0  0  0  0  0  0  0  0  0  0  0  0
   56.8110   29.8320   45.2720 O   0  0  0  0  0  0  0  0  0  0  0  0
   59.0230   29.2560   45.7540 N   0  0  0  0  0  0  0  0  0  0  0  0
   58.7970   27.8480   45.6120 C   0  0  0  0  0  0  0  0  0  0  0  0
   58.1070   27.3910   44.4820 C   0  0  0  0  0  0  0  0  0  0  0  0
   57.8060   26.0350   44.3350 C   0  0  0  0  0  0  0  0  0  0  0  0
   58.1940   25.1250   45.3180 C   0  0  0  0  0  0  0  0  0  0  0  0
   58.8980   25.5640   46.4420 C   0  0  0  0  0  0  0  0  0  0  0  0
   59.2250   26.9230   46.5980 C   0  0  0  0  0  0  0  0  0  0  0  0
   60.0440   27.3330   47.7620 C   0  0  0  0  0  0  0  0  0  0  0  0
   60.1180   26.6020   48.7840 O   0  0  0  0  0  0  0  0  0  0  0  0
   60.7130   28.5540   47.7530 O   0  0  0  0  0  0  0  0  0  0  0  0
   56.7465   31.2400   43.2798 H   0  0  0  0  0  0  0  0  0  0  0  0
   57.1230   32.8044   42.4811 H   0  0  0  0  0  0  0  0  0  0  0  0
   58.3374   31.4808   42.4811 H   0  0  0  0  0  0  0  0  0  0  0  0
   58.3703   34.4865   43.5380 H   0  0  0  0  0  0  0  0  0  0  0  0
   59.2198   35.4620   45.6630 H   0  0  0  0  0  0  0  0  0  0  0  0
   61.7765   34.5644   46.3539 H   0  0  0  0  0  0  0  0  0  0  0  0
   63.9803   33.4391   46.0584 H   0  0  0  0  0  0  0  0  0  0  0  0
   64.7340   31.7180   47.6991 H   0  0  0  0  0  0  0  0  0  0  0  0
   63.3043   31.1465   49.6570 H   0  0  0  0  0  0  0  0  0  0  0  0
   60.8968   33.3057   52.0550 H   0  0  0  0  0  0  0  0  0  0  0  0
   60.4444   34.2147   50.5608 H   0  0  0  0  0  0  0  0  0  0  0  0
   58.7889   32.4121   52.3094 H   0  0  0  0  0  0  0  0  0  0  0  0
   58.3800   33.9830   51.4637 H   0  0  0  0  0  0  0  0  0  0  0  0
   57.0802   32.5196   50.2814 H   0  0  0  0  0  0  0  0  0  0  0  0
   58.6514   32.5080   49.3236 H   0  0  0  0  0  0  0  0  0  0  0  0
   58.0060   30.4520   51.3270 H   0  0  0  0  0  0  0  0  0  0  0  0
   59.4706   29.1051   50.0250 H   0  0  0  0  0  0  0  0  0  0  0  0
   59.5914   30.4405   48.8029 H   0  0  0  0  0  0  0  0  0  0  0  0
   60.5247   30.7033   51.6971 H   0  0  0  0  0  0  0  0  0  0  0  0
   61.5931   30.2137   50.3149 H   0  0  0  0  0  0  0  0  0  0  0  0
   58.8154   31.6215   47.5991 H   0  0  0  0  0  0  0  0  0  0  0  0
   59.9940   29.5770   45.9690 H   0  0  0  0  0  0  0  0  0  0  0  0
   57.7997   28.1056   43.7042 H   0  0  0  0  0  0  0  0  0  0  0  0
   57.2633   25.6851   43.4445 H   0  0  0  0  0  0  0  0  0  0  0  0
   57.9452   24.0592   45.2081 H   0  0  0  0  0  0  0  0  0  0  0  0
   59.1996   24.8395   47.2128 H   0  0  0  0  0  0  0  0  0  0  0  0
  1  2  1  0
  2  3  2  0
  3  4  1  0
  4  5  2  0
  5  6  1  0
  6  7  1  0
  7  8  2  0
  8  9  1  0
  9 10  2  0
 10 11  1  0
 11 12  2  0
 12 13  1  0
 13 14  1  0
 14 15  1  0
 15 16  1  0
 16 17  1  0
 17 18  1  0
 18 19  1  0
  5 20  1  0
 20 21  2  0
 21 22  1  0
 22 23  2  0
 22 24  1  0
 24 25  1  0
 25 26  2  0
 26 27  1  0
 27 28  2  0
 28 29  1  0
 29 30  2  0
 30 31  1  0
 31 32  2  0
 31 33  1  0
 21  2  1  0
 30 25  1  0
 12  7  1  0
 19 13  1  0
  1 34  1  0
  1 35  1  0
  1 36  1  0
  3 37  1  0
  4 38  1  0
  8 39  1  0
  9 40  1  0
 10 41  1  0
 11 42  1  0
 14 43  1  0
 14 44  1  0
 15 45  1  0
 15 46  1  0
 16 47  1  0
 16 48  1  0
 17 49  1  0
 18 50  1  0
 18 51  1  0
 19 52  1  0
 19 53  1  0
 20 54  1  0
 24 55  1  0
 26 56  1  0
 27 57  1  0
 28 58  1  0
 29 59  1  0
M  CHG  1  33  -1
M  END
>  <UniqueID>  (6) 
5

>  <SMILES>  (6) 
Cc1ccc(Sc2ccccc2N2CCCNCC2)cc1C(=O)Nc1ccccc1C(=O)[O-]

>  <Energy>  (6) 
81.31634151302686

>  <Genealogy>  (6) 
Cc1ccc(Sc2ccccc2N2CCCNCC2)cc1C(=O)Nc1ccccc1C(=O)[O-] (protonated)
Cc1ccc(Sc2ccccc2N2CCCNCC2)cc1C(=O)Nc1ccccc1C(=O)[O-] (3D coordinates assigned)
Cc1ccc(Sc2ccccc2N2CCCNCC2)cc1C(=O)Nc1ccccc1C(=O)[O-] (nonaromatic ring conformer: 81.31634151302686 kcal/mol)

>  <smiles>  (6) 
Cc1ccc(Sc2ccccc2N2CCCNCC2)cc1C(=O)Nc1ccccc1C(=O)O

>  <score_type>  (6) 
oracle

>  <origin>  (6) 
adg

>  <m_score__min__energy>  (6) 
-10.73

>  <m_primary>  (6) 
energy

$$$$
6:0
     RDKit          3D

 40 43  0  0  0  0  0  0  0  0999 V2000
   59.6630   35.8320   45.6880 O   0  0  0  0  0  0  0  0  0  0  0  0
   59.5670   34.7830   46.3800 C   0  0  0  0  0  0  0  0  0  0  0  0
   58.3270   34.0630   46.4270 N   0  0  0  0  0  0  0  0  0  0  0  0
   58.1130   32.7040   46.0200 C   0  0  0  0  0  0  0  0  0  0  0  0
   58.4340   31.6060   46.8590 C   0  0  0  0  0  0  0  0  0  0  0  0
   58.2560   30.2750   46.4140 C   0  0  0  0  0  0  0  0  0  0  0  0
   58.5930   29.1180   47.2790 C   0  0  0  0  0  0  0  0  0  0  0  0
   58.6200   29.2670   48.5280 O   0  0  0  0  0  0  0  0  0  0  0  0
   58.9490   27.8410   46.7330 N   0  0  0  0  0  0  0  0  0  0  0  0
   58.0430   26.7800   46.3980 C   0  0  0  0  0  0  0  0  0  0  0  0
   58.5010   25.4900   46.0750 C   0  0  0  0  0  0  0  0  0  0  0  0
   57.5900   24.4810   45.7480 C   0  0  0  0  0  0  0  0  0  0  0  0
   56.2200   24.7540   45.7250 C   0  0  0  0  0  0  0  0  0  0  0  0
   55.7590   26.0420   46.0210 C   0  0  0  0  0  0  0  0  0  0  0  0
   54.3980   26.3160   45.9880 O   0  0  0  0  0  0  0  0  0  0  0  0
   56.6690   27.0530   46.3480 C   0  0  0  0  0  0  0  0  0  0  0  0
   57.7400   30.1070   45.1240 C   0  0  0  0  0  0  0  0  0  0  0  0
   57.4950   28.9420   44.4860 N   0  0  0  0  0  0  0  0  0  0  0  0
   57.0410   29.2610   43.2760 N   0  0  0  0  0  0  0  0  0  0  0  0
   57.0280   30.6080   43.2090 C   0  0  0  0  0  0  0  0  0  0  0  0
   56.6570   31.2590   42.1960 O   0  0  0  0  0  0  0  0  0  0  0  0
   57.4600   31.1620   44.3500 N   0  0  0  0  0  0  0  0  0  0  0  0
   57.6320   32.4510   44.7270 C   0  0  0  0  0  0  0  0  0  0  0  0
   60.7520   34.2650   47.1040 C   0  0  0  0  0  0  0  0  0  0  0  0
   60.7560   34.1920   48.5090 C   0  0  0  0  0  0  0  0  0  0  0  0
   61.8730   33.6980   49.1910 C   0  0  0  0  0  0  0  0  0  0  0  0
   62.9970   33.2720   48.4790 C   0  0  0  0  0  0  0  0  0  0  0  0
   64.0790   32.7940   49.1420 F   0  0  0  0  0  0  0  0  0  0  0  0
   63.0050   33.3380   47.0840 C   0  0  0  0  0  0  0  0  0  0  0  0
   61.8900   33.8310   46.3970 C   0  0  0  0  0  0  0  0  0  0  0  0
   58.8267   31.7921   47.8695 H   0  0  0  0  0  0  0  0  0  0  0  0
   59.5796   25.2742   46.0797 H   0  0  0  0  0  0  0  0  0  0  0  0
   57.9526   23.4705   45.5084 H   0  0  0  0  0  0  0  0  0  0  0  0
   55.5042   23.9573   45.4744 H   0  0  0  0  0  0  0  0  0  0  0  0
   56.3044   28.0674   46.5670 H   0  0  0  0  0  0  0  0  0  0  0  0
   57.4009   33.2770   44.0383 H   0  0  0  0  0  0  0  0  0  0  0  0
   59.8742   34.5259   49.0755 H   0  0  0  0  0  0  0  0  0  0  0  0
   61.8663   33.6449   50.2897 H   0  0  0  0  0  0  0  0  0  0  0  0
   63.8899   33.0016   46.5239 H   0  0  0  0  0  0  0  0  0  0  0  0
   61.9025   33.8798   45.2982 H   0  0  0  0  0  0  0  0  0  0  0  0
  1  2  2  0
  2  3  1  0
  3  4  1  0
  4  5  1  0
  5  6  2  0
  6  7  1  0
  7  8  2  0
  7  9  1  0
  9 10  1  0
 10 11  2  0
 11 12  1  0
 12 13  2  0
 13 14  1  0
 14 15  1  0
 14 16  2  0
  6 17  1  0
 17 18  2  0
 18 19  1  0
 19 20  1  0
 20 21  2  0
 20 22  1  0
 22 23  1  0
  2 24  1  0
 24 25  2  0
 25 26  1  0
 26 27  2  0
 27 28  1  0
 27 29  1  0
 29 30  2  0
 23  4  2  0
 30 24  1  0
 16 10  1  0
 22 17  1  0
  5 31  1  0
 11 32  1  0
 12 33  1  0
 13 34  1  0
 16 35  1  0
 23 36  1  0
 25 37  1  0
 26 38  1  0
 29 39  1  0
 30 40  1  0
M  CHG  4   3  -1   9  -1  15  -1  19  -1
M  END
>  <UniqueID>  (7) 
6

>  <SMILES>  (7) 
O=C([N-]c1cc(C(=O)[N-]c2cccc([O-])c2)c2n[n-]c(=O)n2c1)c1ccc(F)cc1

>  <Energy>  (7) 
98.8109111071532

>  <Genealogy>  (7) 
O=C([N-]c1cc(C(=O)[N-]c2cccc([O-])c2)c2n[n-]c(=O)n2c1)c1ccc(F)cc1 (protonated)
O=C([N-]c1cc(C(=O)[N-]c2cccc([O-])c2)c2n[n-]c(=O)n2c1)c1ccc(F)cc1 (3D coordinates assigned)
O=C([N-]c1cc(C(=O)[N-]c2cccc([O-])c2)c2n[n-]c(=O)n2c1)c1ccc(F)cc1 (optimized conformer: 98.8109111071532 kcal/mol)

>  <smiles>  (7) 
O=C(Nc1cc(C(=O)Nc2cccc(O)c2)c2n[nH]c(=O)n2c1)c1ccc(F)cc1

>  <score_type>  (7) 
oracle

>  <origin>  (7) 
adg

>  <m_score__min__energy>  (7) 
-15.52

>  <m_primary>  (7) 
energy

$$$$
7:0
     RDKit          3D

 46 50  0  0  0  0  0  0  0  0999 V2000
   56.9650   25.3110   45.8730 C   0  0  0  0  0  0  0  0  0  0  0  0
   56.3920   26.6280   46.3860 C   0  0  0  0  0  0  0  0  0  0  0  0
   57.1390   27.7570   45.8360 N   0  0  0  0  0  0  0  0  0  0  0  0
   56.6190   28.8170   45.1750 C   0  0  0  0  0  0  0  0  0  0  0  0
   55.2700   28.9650   44.8690 O   0  0  0  0  0  0  0  0  0  0  0  0
   57.5980   29.7620   44.9640 C   0  0  0  0  0  0  0  0  0  0  0  0
   58.7250   29.3290   45.5960 C   0  0  0  0  0  0  0  0  0  0  0  0
   58.4140   28.0990   46.1440 C   0  0  0  0  0  0  0  0  0  0  0  0
   59.2300   27.3720   47.0040 O   0  0  0  0  0  0  0  0  0  0  0  0
   59.5490   30.4870   46.1190 C   0  0  2  0  0  0  0  0  0  0  0  0
   59.6120   30.4920   47.6460 C   0  0  0  0  0  0  0  0  0  0  0  0
   58.6910   29.7120   48.3760 C   0  0  0  0  0  0  0  0  0  0  0  0
   58.6840   29.7300   49.7710 C   0  0  0  0  0  0  0  0  0  0  0  0
   59.5910   30.5300   50.4670 C   0  0  0  0  0  0  0  0  0  0  0  0
   59.5780   30.5500   51.9060 C   0  0  0  0  0  0  0  0  0  0  0  0
   59.5680   30.5670   53.0630 N   0  0  0  0  0  0  0  0  0  0  0  0
   60.5170   31.3050   49.7630 C   0  0  0  0  0  0  0  0  0  0  0  0
   60.5470   31.2870   48.3590 C   0  0  0  0  0  0  0  0  0  0  0  0
   61.5770   32.0990   47.6770 C   0  0  0  0  0  0  0  0  0  0  0  0
   61.3250   33.4300   47.3260 C   0  0  0  0  0  0  0  0  0  0  0  0
   62.2910   34.1660   46.7200 N   0  0  0  0  0  0  0  0  0  0  0  0
   63.5110   33.6330   46.4530 C   0  0  0  0  0  0  0  0  0  0  0  0
   63.7820   32.3480   46.7960 N   0  0  0  0  0  0  0  0  0  0  0  0
   62.8460   31.5750   47.4040 C   0  0  0  0  0  0  0  0  0  0  0  0
   58.8150   31.6540   45.5860 N   0  0  0  0  0  0  0  0  0  0  0  0
   58.5440   32.9610   46.1710 C   0  0  0  0  0  0  0  0  0  0  0  0
   57.0410   33.1880   45.8850 C   0  0  0  0  0  0  0  0  0  0  0  0
   56.6020   31.9800   45.1930 N   0  0  0  0  0  0  0  0  0  0  0  0
   57.6100   31.2040   45.0160 C   0  0  0  0  0  0  0  0  0  0  0  0
   57.2419   24.6745   46.7263 H   0  0  0  0  0  0  0  0  0  0  0  0
   56.2096   24.7960   45.2613 H   0  0  0  0  0  0  0  0  0  0  0  0
   57.8567   25.5126   45.2613 H   0  0  0  0  0  0  0  0  0  0  0  0
   55.3380   26.7078   46.0814 H   0  0  0  0  0  0  0  0  0  0  0  0
   56.4709   26.6483   47.4830 H   0  0  0  0  0  0  0  0  0  0  0  0
   60.6041   30.4573   45.8095 H   0  0  0  0  0  0  0  0  0  0  0  0
   57.9684   29.0809   47.8380 H   0  0  0  0  0  0  0  0  0  0  0  0
   57.9614   29.1118   50.3238 H   0  0  0  0  0  0  0  0  0  0  0  0
   61.2298   31.9357   50.3145 H   0  0  0  0  0  0  0  0  0  0  0  0
   60.3444   33.8796   47.5412 H   0  0  0  0  0  0  0  0  0  0  0  0
   64.2807   34.2434   45.9581 H   0  0  0  0  0  0  0  0  0  0  0  0
   63.0847   30.5378   47.6819 H   0  0  0  0  0  0  0  0  0  0  0  0
   58.7404   32.9544   47.2533 H   0  0  0  0  0  0  0  0  0  0  0  0
   59.1813   33.7545   45.7537 H   0  0  0  0  0  0  0  0  0  0  0  0
   56.4841   33.3195   46.8245 H   0  0  0  0  0  0  0  0  0  0  0  0
   56.8664   34.0940   45.2862 H   0  0  0  0  0  0  0  0  0  0  0  0
   55.6060   31.7060   45.0410 H   0  0  0  0  0  0  0  0  0  0  0  0
  1  2  1  0
  2  3  1  0
  3  4  1  0
  4  5  1  0
  4  6  2  0
  6  7  1  0
  7  8  2  0
  8  9  1  0
  7 10  1  0
 10 11  1  0
 11 12  2  0
 12 13  1  0
 13 14  2  0
 14 15  1  0
 15 16  3  0
 14 17  1  0
 17 18  2  0
 18 19  1  0
 19 20  2  0
 20 21  1  0
 21 22  2  0
 22 23  1  0
 23 24  2  0
 10 25  1  0
 25 26  1  0
 26 27  1  0
 27 28  1  0
 28 29  2  0
  8  3  1  0
 18 11  1  0
 24 19  1  0
 29 25  1  0
 29  6  1  0
  1 30  1  0
  1 31  1  0
  1 32  1  0
  2 33  1  0
  2 34  1  0
 10 35  1  6
 12 36  1  0
 13 37  1  0
 17 38  1  0
 20 39  1  0
 22 40  1  0
 24 41  1  0
 26 42  1  0
 26 43  1  0
 27 44  1  0
 27 45  1  0
 28 46  1  0
M  CHG  3   5  -1   9  -1  28   1
M  END
>  <UniqueID>  (8) 
7

>  <SMILES>  (8) 
CCn1c([O-])c2c(c1[O-])[C@H](c1ccc(C#N)cc1-c1cncnc1)N1CC[NH+]=C21

>  <Energy>  (8) 
148.3557239329528

>  <Genealogy>  (8) 
CCn1c([O-])c2c(c1[O-])C(c1ccc(C#N)cc1-c1cncnc1)N1CC[NH+]=C21 (protonated)
CCn1c([O-])c2c(c1[O-])[C@H](c1ccc(C#N)cc1-c1cncnc1)N1CC[NH+]=C21 (chirality)
CCn1c([O-])c2c(c1[O-])[C@H](c1ccc(C#N)cc1-c1cncnc1)N1CC[NH+]=C21 (3D coordinates assigned)
CCn1c([O-])c2c(c1[O-])[C@H](c1ccc(C#N)cc1-c1cncnc1)N1CC[NH+]=C21 (nonaromatic ring conformer: 148.3557239329528 kcal/mol)

>  <smiles>  (8) 
CCn1c(O)c2c(c1O)C(c1ccc(C#N)cc1-c1cncnc1)N1CCN=C21

>  <score_type>  (8) 
oracle

>  <origin>  (8) 
adg

>  <m_score__min__energy>  (8) 
-9.8499999999999996

>  <m_primary>  (8) 
energy

$$$$
8:0
     RDKit          3D

 37 39  0  0  0  0  0  0  0  0999 V2000
   58.9569   28.5898   48.0223 H   0  0  0  0  0  0  0  0  0  0  0  0
   58.6800   28.6850   46.9620 C   0  0  0  0  0  0  0  0  0  0  0  0
   58.0370   29.8020   46.5280 N   0  0  0  0  0  0  0  0  0  0  0  0
   57.6720   29.9750   45.2300 C   0  0  0  0  0  0  0  0  0  0  0  0
   57.0540   31.0750   44.9000 N   0  0  0  0  0  0  0  0  0  0  0  0
   57.6510   32.2970   44.4390 C   0  0  0  0  0  0  0  0  0  0  0  0
   57.6480   32.5410   43.2040 O   0  0  0  0  0  0  0  0  0  0  0  0
   58.3350   33.2310   45.3690 C   0  0  0  0  0  0  0  0  0  0  0  0
   58.9750   34.3890   44.8860 C   0  0  0  0  0  0  0  0  0  0  0  0
   58.9700   34.6074   43.8079 H   0  0  0  0  0  0  0  0  0  0  0  0
   59.6170   35.2630   45.7700 C   0  0  0  0  0  0  0  0  0  0  0  0
   60.1199   36.1621   45.3842 H   0  0  0  0  0  0  0  0  0  0  0  0
   59.6210   34.9970   47.1400 C   0  0  0  0  0  0  0  0  0  0  0  0
   60.1287   35.6846   47.8324 H   0  0  0  0  0  0  0  0  0  0  0  0
   58.9800   33.8570   47.6320 C   0  0  0  0  0  0  0  0  0  0  0  0
   58.9810   33.6496   48.7123 H   0  0  0  0  0  0  0  0  0  0  0  0
   58.3370   32.9790   46.7530 C   0  0  0  0  0  0  0  0  0  0  0  0
   57.8297   32.0858   47.1466 H   0  0  0  0  0  0  0  0  0  0  0  0
   57.9990   28.9780   44.2900 C   0  0  0  0  0  0  0  0  0  0  0  0
   57.7360   29.1088   43.2299 H   0  0  0  0  0  0  0  0  0  0  0  0
   58.6590   27.8230   44.7130 C   0  0  0  0  0  0  0  0  0  0  0  0
   58.9189   27.0425   43.9827 H   0  0  0  0  0  0  0  0  0  0  0  0
   58.9920   27.6530   46.0630 C   0  0  0  0  0  0  0  0  0  0  0  0
   59.6870   26.4270   46.5180 C   0  0  0  0  0  0  0  0  0  0  0  0
   60.7940   26.5280   47.1090 O   0  0  0  0  0  0  0  0  0  0  0  0
   59.1160   25.1220   46.3510 N   0  0  0  0  0  0  0  0  0  0  0  0
   57.7700   24.8330   45.9460 C   0  0  0  0  0  0  0  0  0  0  0  0
   57.5090   23.6370   45.2670 C   0  0  0  0  0  0  0  0  0  0  0  0
   58.3299   22.9338   45.0627 H   0  0  0  0  0  0  0  0  0  0  0  0
   56.2110   23.3310   44.8470 C   0  0  0  0  0  0  0  0  0  0  0  0
   56.0110   22.3832   44.3258 H   0  0  0  0  0  0  0  0  0  0  0  0
   55.1670   24.2290   45.0890 C   0  0  0  0  0  0  0  0  0  0  0  0
   54.1448   23.9844   44.7645 H   0  0  0  0  0  0  0  0  0  0  0  0
   55.4220   25.4370   45.7430 C   0  0  0  0  0  0  0  0  0  0  0  0
   54.3870   26.3360   45.9720 O   0  0  0  0  0  0  0  0  0  0  0  0
   56.7200   25.7440   46.1650 C   0  0  0  0  0  0  0  0  0  0  0  0
   56.9205   26.7006   46.6697 H   0  0  0  0  0  0  0  0  0  0  0  0
  1  2  1  0
  2  3  1  0
  3  4  1  0
  4  5  2  0
  5  6  1  0
  6  7  2  0
  6  8  1  0
  8  9  2  0
  9 10  1  0
  9 11  1  0
 11 12  1  0
 11 13  2  0
 13 14  1  0
 13 15  1  0
 15 16  1  0
 15 17  2  0
 17 18  1  0
  4 19  1  0
 19 20  1  0
 19 21  2  0
 21 22  1  0
 21 23  1  0
 23 24  1  0
 24 25  2  0
 24 26  1  0
 26 27  1  0
 27 28  2  0
 28 29  1  0
 28 30  1  0
 30 31  1  0
 30 32  2  0
 32 33  1  0
 32 34  1  0
 34 35  1  0
 34 36  2  0
 36 37  1  0
 23  2  2  0
 36 27  1  0
 17  8  1  0
M  CHG  3   3  -1  26  -1  35  -1
M  END
>  <UniqueID>  (9) 
8

>  <SMILES>  (9) 
O=C(/N=c1\ccc(C(=O)[N-]c2cccc([O-])c2)c[n-]1)c1ccccc1

>  <Energy>  (9) 
58.25428606235847

>  <Genealogy>  (9) 
O=C(N=c1ccc(C(=O)[N-]c2cccc([O-])c2)c[n-]1)c1ccccc1 (protonated)
O=C(/N=c1\ccc(C(=O)[N-]c2cccc([O-])c2)c[n-]1)c1ccccc1 (cis-trans isomerization)
O=C(/N=c1\ccc(C(=O)[N-]c2cccc([O-])c2)c[n-]1)c1ccccc1 (3D coordinates assigned)
O=C(/N=c1\ccc(C(=O)[N-]c2cccc([O-])c2)c[n-]1)c1ccccc1 (optimized conformer: 58.25428606235847 kcal/mol)

>  <smiles>  (9) 
O=C(N=c1ccc(C(=O)Nc2cccc(O)c2)c[nH]1)c1ccccc1

>  <score_type>  (9) 
oracle

>  <origin>  (9) 
adg

>  <m_score__min__energy>  (9) 
-14.710000000000001

>  <m_primary>  (9) 
energy

$$$$
9:0
     RDKit          3D

 50 53  0  0  0  0  0  0  0  0999 V2000
   55.5230   28.5680   45.2180 O   0  0  0  0  0  0  0  0  0  0  0  0
   56.6770   29.0770   45.2000 C   0  0  0  0  0  0  0  0  0  0  0  0
   57.1590   29.7090   46.3370 O   0  0  0  0  0  0  0  0  0  0  0  0
   57.4980   29.0870   43.9330 C   0  0  2  0  0  0  0  0  0  0  0  0
   58.2800   27.7600   43.8020 C   0  0  0  0  0  0  0  0  0  0  0  0
   58.6440   27.1610   45.1350 C   0  0  0  0  0  0  0  0  0  0  0  0
   58.2450   25.9180   45.6170 C   0  0  0  0  0  0  0  0  0  0  0  0
   58.6950   25.7350   46.8790 N   0  0  0  0  0  0  0  0  0  0  0  0
   59.3710   26.8510   47.1980 C   0  0  0  0  0  0  0  0  0  0  0  0
   60.0060   27.1380   48.4060 C   0  0  0  0  0  0  0  0  0  0  0  0
   60.6500   28.3820   48.5320 C   0  0  0  0  0  0  0  0  0  0  0  0
   60.6480   29.3000   47.4600 C   0  0  0  0  0  0  0  0  0  0  0  0
   59.9980   28.9840   46.2530 C   0  0  0  0  0  0  0  0  0  0  0  0
   59.3620   27.7450   46.1590 C   0  0  0  0  0  0  0  0  0  0  0  0
   58.4190   30.2400   43.8910 N   0  0  0  0  0  0  0  0  0  0  0  0
   57.5610   31.7570   43.9620 S   0  0  0  0  0  0  0  0  0  0  0  0
   56.1730   31.5790   44.5090 O   0  0  0  0  0  0  0  0  0  0  0  0
   57.4510   32.3150   42.5700 O   0  0  0  0  0  0  0  0  0  0  0  0
   58.4440   32.8980   44.9770 C   0  0  0  0  0  0  0  0  0  0  0  0
   58.5690   34.2400   44.5910 C   0  0  0  0  0  0  0  0  0  0  0  0
   59.2750   35.1390   45.3930 C   0  0  0  0  0  0  0  0  0  0  0  0
   59.8600   34.7040   46.5860 C   0  0  0  0  0  0  0  0  0  0  0  0
   59.7320   33.3640   46.9890 C   0  0  0  0  0  0  0  0  0  0  0  0
   60.3220   32.8880   48.1700 O   0  0  0  0  0  0  0  0  0  0  0  0
   61.7010   32.8230   48.4160 C   0  0  0  0  0  0  0  0  0  0  0  0
   62.1440   32.4320   49.6850 C   0  0  0  0  0  0  0  0  0  0  0  0
   63.5110   32.3660   49.9680 C   0  0  0  0  0  0  0  0  0  0  0  0
   64.4460   32.7000   48.9850 C   0  0  0  0  0  0  0  0  0  0  0  0
   64.0130   33.1120   47.7210 C   0  0  0  0  0  0  0  0  0  0  0  0
   62.6460   33.1800   47.4350 C   0  0  0  0  0  0  0  0  0  0  0  0
   59.0350   32.4650   46.1730 C   0  0  0  0  0  0  0  0  0  0  0  0
   56.8099   29.1857   43.0805 H   0  0  0  0  0  0  0  0  0  0  0  0
   57.6582   27.0390   43.2511 H   0  0  0  0  0  0  0  0  0  0  0  0
   59.2181   27.9803   43.2715 H   0  0  0  0  0  0  0  0  0  0  0  0
   57.6479   25.1875   45.0514 H   0  0  0  0  0  0  0  0  0  0  0  0
   58.5360   24.9000   47.4840 H   0  0  0  0  0  0  0  0  0  0  0  0
   60.0033   26.4142   49.2343 H   0  0  0  0  0  0  0  0  0  0  0  0
   61.1586   28.6412   49.4723 H   0  0  0  0  0  0  0  0  0  0  0  0
   61.1578   30.2686   47.5689 H   0  0  0  0  0  0  0  0  0  0  0  0
   59.9912   29.6908   45.4102 H   0  0  0  0  0  0  0  0  0  0  0  0
   59.0430   30.2330   44.7330 H   0  0  0  0  0  0  0  0  0  0  0  0
   58.1094   34.5858   43.6533 H   0  0  0  0  0  0  0  0  0  0  0  0
   59.3710   36.1908   45.0857 H   0  0  0  0  0  0  0  0  0  0  0  0
   60.4223   35.4131   47.2112 H   0  0  0  0  0  0  0  0  0  0  0  0
   61.4115   32.1751   50.4644 H   0  0  0  0  0  0  0  0  0  0  0  0
   63.8511   32.0508   50.9655 H   0  0  0  0  0  0  0  0  0  0  0  0
   65.5220   32.6389   49.2053 H   0  0  0  0  0  0  0  0  0  0  0  0
   64.7492   33.3832   46.9500 H   0  0  0  0  0  0  0  0  0  0  0  0
   62.3084   33.5128   46.4424 H   0  0  0  0  0  0  0  0  0  0  0  0
   58.9501   31.4099   46.4724 H   0  0  0  0  0  0  0  0  0  0  0  0
  1  2  2  0
  2  3  1  0
  2  4  1  0
  4  5  1  0
  5  6  1  0
  6  7  2  0
  7  8  1  0
  8  9  1  0
  9 10  2  0
 10 11  1  0
 11 12  2  0
 12 13  1  0
 13 14  2  0
  4 15  1  0
 15 16  1  0
 16 17  2  0
 16 18  2  0
 16 19  1  0
 19 20  2  0
 20 21  1  0
 21 22  2  0
 22 23  1  0
 23 24  1  0
 24 25  1  0
 25 26  2  0
 26 27  1  0
 27 28  2  0
 28 29  1  0
 29 30  2  0
 23 31  2  0
 14  6  1  0
 31 19  1  0
 14  9  1  0
 30 25  1  0
  4 32  1  6
  5 33  1  0
  5 34  1  0
  7 35  1  0
  8 36  1  0
 10 37  1  0
 11 38  1  0
 12 39  1  0
 13 40  1  0
 15 41  1  0
 20 42  1  0
 21 43  1  0
 22 44  1  0
 26 45  1  0
 27 46  1  0
 28 47  1  0
 29 48  1  0
 30 49  1  0
 31 50  1  0
M  CHG  1   3  -1
M  END
>  <UniqueID>  (10) 
9

>  <SMILES>  (10) 
O=C([O-])[C@H](Cc1c[nH]c2ccccc12)NS(=O)(=O)c1cccc(Oc2ccccc2)c1

>  <Energy>  (10) 
92.80980164858612

>  <Genealogy>  (10) 
O=C([O-])C(Cc1c[nH]c2ccccc12)NS(=O)(=O)c1cccc(Oc2ccccc2)c1 (protonated)
O=C([O-])[C@H](Cc1c[nH]c2ccccc12)NS(=O)(=O)c1cccc(Oc2ccccc2)c1 (chirality)
O=C([O-])[C@H](Cc1c[nH]c2ccccc12)NS(=O)(=O)c1cccc(Oc2ccccc2)c1 (3D coordinates assigned)
O=C([O-])[C@H](Cc1c[nH]c2ccccc12)NS(=O)(=O)c1cccc(Oc2ccccc2)c1 (optimized conformer: 92.80980164858612 kcal/mol)

>  <smiles>  (10) 
O=C(O)C(Cc1c[nH]c2ccccc12)NS(=O)(=O)c1cccc(Oc2ccccc2)c1

>  <score_type>  (10) 
oracle

>  <origin>  (10) 
adg

>  <m_score__min__energy>  (10) 
-12.380000000000001

>  <m_primary>  (10) 
energy

$$$$
10:0
     RDKit          3D

 63 66  0  0  0  0  0  0  0  0999 V2000
   54.9940   29.3340   44.1250 O   0  0  0  0  0  0  0  0  0  0  0  0
   56.0650   29.8840   44.4970 C   0  0  0  0  0  0  0  0  0  0  0  0
   57.3790   29.1450   44.3660 C   0  0  0  0  0  0  0  0  0  0  0  0
   57.3270   27.7410   44.8580 N   0  0  0  0  0  0  0  0  0  0  0  0
   58.1590   26.8850   43.9720 C   0  0  0  0  0  0  0  0  0  0  0  0
   57.8680   25.4130   44.1740 C   0  0  0  0  0  0  0  0  0  0  0  0
   57.0250   24.7160   43.2870 C   0  0  0  0  0  0  0  0  0  0  0  0
   56.7850   23.3500   43.4700 C   0  0  0  0  0  0  0  0  0  0  0  0
   57.3720   22.6740   44.5430 C   0  0  0  0  0  0  0  0  0  0  0  0
   58.2020   23.3610   45.4360 C   0  0  0  0  0  0  0  0  0  0  0  0
   58.4520   24.7240   45.2530 C   0  0  0  0  0  0  0  0  0  0  0  0
   57.7930   27.6440   46.2780 C   0  0  0  0  0  0  0  0  0  0  0  0
   58.9100   28.6160   46.5910 C   0  0  0  0  0  0  0  0  0  0  0  0
   58.8370   29.4400   47.7270 C   0  0  0  0  0  0  0  0  0  0  0  0
   59.8520   30.3640   47.9920 C   0  0  0  0  0  0  0  0  0  0  0  0
   60.9500   30.4670   47.1350 C   0  0  0  0  0  0  0  0  0  0  0  0
   61.0330   29.6510   46.0020 C   0  0  0  0  0  0  0  0  0  0  0  0
   60.0120   28.7370   45.7230 C   0  0  0  0  0  0  0  0  0  0  0  0
   56.0280   31.2760   44.8510 N   0  0  0  0  0  0  0  0  0  0  0  0
   57.1590   32.1540   44.8830 C   0  0  0  0  0  0  0  0  0  0  0  0
   57.7300   32.6400   43.6980 C   0  0  0  0  0  0  0  0  0  0  0  0
   58.8520   33.4710   43.7510 C   0  0  0  0  0  0  0  0  0  0  0  0
   59.4110   33.8160   44.9850 C   0  0  0  0  0  0  0  0  0  0  0  0
   58.8560   33.3220   46.1740 C   0  0  0  0  0  0  0  0  0  0  0  0
   59.5410   33.7820   47.7360 S   0  0  0  0  0  0  0  0  0  0  0  0
   58.7590   33.1090   48.8280 O   0  0  0  0  0  0  0  0  0  0  0  0
   59.4040   35.2660   47.9180 O   0  0  0  0  0  0  0  0  0  0  0  0
   61.2220   33.3370   47.8760 N   0  0  0  0  0  0  0  0  0  0  0  0
   61.9960   33.8710   46.7450 C   0  0  0  0  0  0  0  0  0  0  0  0
   63.4610   33.4020   46.8540 C   0  0  0  0  0  0  0  0  0  0  0  0
   63.7640   32.8410   48.1240 O   0  0  0  0  0  0  0  0  0  0  0  0
   63.3220   33.7050   49.1520 C   0  0  0  0  0  0  0  0  0  0  0  0
   61.7840   33.8160   49.1530 C   0  0  0  0  0  0  0  0  0  0  0  0
   57.7390   32.4780   46.1140 C   0  0  0  0  0  0  0  0  0  0  0  0
   57.6650   29.1305   43.3039 H   0  0  0  0  0  0  0  0  0  0  0  0
   58.1113   29.6778   44.9904 H   0  0  0  0  0  0  0  0  0  0  0  0
   56.3350   27.4100   44.7640 H   0  0  0  0  0  0  0  0  0  0  0  0
   57.9501   27.1484   42.9246 H   0  0  0  0  0  0  0  0  0  0  0  0
   59.2157   27.0611   44.2219 H   0  0  0  0  0  0  0  0  0  0  0  0
   56.5536   25.2476   42.4473 H   0  0  0  0  0  0  0  0  0  0  0  0
   56.1338   22.8076   42.7688 H   0  0  0  0  0  0  0  0  0  0  0  0
   57.1813   21.6001   44.6859 H   0  0  0  0  0  0  0  0  0  0  0  0
   58.6582   22.8277   46.2830 H   0  0  0  0  0  0  0  0  0  0  0  0
   59.1077   25.2600   45.9550 H   0  0  0  0  0  0  0  0  0  0  0  0
   56.9433   27.8576   46.9431 H   0  0  0  0  0  0  0  0  0  0  0  0
   58.1829   26.6271   46.4322 H   0  0  0  0  0  0  0  0  0  0  0  0
   57.9785   29.3577   48.4098 H   0  0  0  0  0  0  0  0  0  0  0  0
   59.7857   31.0121   48.8784 H   0  0  0  0  0  0  0  0  0  0  0  0
   61.7500   31.1903   47.3512 H   0  0  0  0  0  0  0  0  0  0  0  0
   61.9010   29.7282   45.3307 H   0  0  0  0  0  0  0  0  0  0  0  0
   60.0701   28.1097   44.8213 H   0  0  0  0  0  0  0  0  0  0  0  0
   57.2941   32.3667   42.7257 H   0  0  0  0  0  0  0  0  0  0  0  0
   59.2961   33.8543   42.8205 H   0  0  0  0  0  0  0  0  0  0  0  0
   60.2892   34.4773   45.0233 H   0  0  0  0  0  0  0  0  0  0  0  0
   61.5641   33.5066   45.8012 H   0  0  0  0  0  0  0  0  0  0  0  0
   61.9617   34.9703   46.7652 H   0  0  0  0  0  0  0  0  0  0  0  0
   63.6457   32.6421   46.0804 H   0  0  0  0  0  0  0  0  0  0  0  0
   64.1034   34.2846   46.7187 H   0  0  0  0  0  0  0  0  0  0  0  0
   63.6553   33.3098   50.1229 H   0  0  0  0  0  0  0  0  0  0  0  0
   63.7468   34.7047   48.9782 H   0  0  0  0  0  0  0  0  0  0  0  0
   61.3793   33.2079   49.9755 H   0  0  0  0  0  0  0  0  0  0  0  0
   61.5075   34.8725   49.2850 H   0  0  0  0  0  0  0  0  0  0  0  0
   57.3150   32.0671   47.0421 H   0  0  0  0  0  0  0  0  0  0  0  0
  1  2  2  0
  2  3  1  0
  3  4  1  0
  4  5  1  0
  5  6  1  0
  6  7  2  0
  7  8  1  0
  8  9  2  0
  9 10  1  0
 10 11  2  0
  4 12  1  0
 12 13  1  0
 13 14  2  0
 14 15  1  0
 15 16  2  0
 16 17  1  0
 17 18  2  0
  2 19  1  0
 19 20  1  0
 20 21  2  0
 21 22  1  0
 22 23  2  0
 23 24  1  0
 24 25  1  0
 25 26  2  0
 25 27  2  0
 25 28  1  0
 28 29  1  0
 29 30  1  0
 30 31  1  0
 31 32  1  0
 32 33  1  0
 24 34  2  0
 11  6  1  0
 18 13  1  0
 34 20  1  0
 33 28  1  0
  3 35  1  0
  3 36  1  0
  4 37  1  0
  5 38  1  0
  5 39  1  0
  7 40  1  0
  8 41  1  0
  9 42  1  0
 10 43  1  0
 11 44  1  0
 12 45  1  0
 12 46  1  0
 14 47  1  0
 15 48  1  0
 16 49  1  0
 17 50  1  0
 18 51  1  0
 21 52  1  0
 22 53  1  0
 23 54  1  0
 29 55  1  0
 29 56  1  0
 30 57  1  0
 30 58  1  0
 32 59  1  0
 32 60  1  0
 33 61  1  0
 33 62  1  0
 34 63  1  0
M  CHG  2   4   1  19  -1
M  END
>  <UniqueID>  (11) 
10

>  <SMILES>  (11) 
O=C(C[NH+](Cc1ccccc1)Cc1ccccc1)[N-]c1cccc(S(=O)(=O)N2CCOCC2)c1

>  <Energy>  (11) 
86.85011048350542

>  <Genealogy>  (11) 
O=C(C[NH+](Cc1ccccc1)Cc1ccccc1)[N-]c1cccc(S(=O)(=O)N2CCOCC2)c1 (protonated)
O=C(C[NH+](Cc1ccccc1)Cc1ccccc1)[N-]c1cccc(S(=O)(=O)N2CCOCC2)c1 (3D coordinates assigned)
O=C(C[NH+](Cc1ccccc1)Cc1ccccc1)[N-]c1cccc(S(=O)(=O)N2CCOCC2)c1 (nonaromatic ring conformer: 86.85011048350542 kcal/mol)

>  <smiles>  (11) 
O=C(CN(Cc1ccccc1)Cc1ccccc1)Nc1cccc(S(=O)(=O)N2CCOCC2)c1

>  <score_type>  (11) 
oracle

>  <origin>  (11) 
adg

>  <m_score__min__energy>  (11) 
-10.27

>  <m_primary>  (11) 
energy

$$$$
11:0
     RDKit          3D

 58 60  0  0  0  0  0  0  0  0999 V2000
   64.5270   34.9450   51.9990 C   0  0  0  0  0  0  0  0  0  0  0  0
   64.7450   33.9790   51.0950 C   0  0  0  0  0  0  0  0  0  0  0  0
   66.1600   33.5170   50.8620 C   0  0  0  0  0  0  0  0  0  0  0  0
   63.5770   33.3920   50.3100 C   0  0  2  0  0  0  0  0  0  0  0  0
   62.2960   33.8420   50.8540 N   0  0  0  0  0  0  0  0  0  0  0  0
   63.6500   31.8500   50.2580 C   0  0  0  0  0  0  0  0  0  0  0  0
   62.5000   31.2160   49.5010 C   0  0  0  0  0  0  0  0  0  0  0  0
   61.5630   30.4450   50.2060 C   0  0  0  0  0  0  0  0  0  0  0  0
   60.4700   29.8620   49.5590 C   0  0  0  0  0  0  0  0  0  0  0  0
   59.5280   29.1850   50.3440 O   0  0  0  0  0  0  0  0  0  0  0  0
   60.3330   29.9950   48.1580 C   0  0  0  0  0  0  0  0  0  0  0  0
   59.3190   29.2400   47.3910 C   0  0  0  0  0  0  0  0  0  0  0  0
   58.1610   29.0760   47.8720 O   0  0  0  0  0  0  0  0  0  0  0  0
   59.6110   28.7850   46.0620 N   0  0  0  0  0  0  0  0  0  0  0  0
   59.6520   29.6760   44.9090 C   0  0  0  0  0  0  0  0  0  0  0  0
   58.7760   30.8650   45.1750 C   0  0  0  0  0  0  0  0  0  0  0  0
   57.4380   30.8450   44.7550 C   0  0  0  0  0  0  0  0  0  0  0  0
   56.6530   31.9960   44.8720 C   0  0  0  0  0  0  0  0  0  0  0  0
   57.1910   33.1590   45.4220 C   0  0  0  0  0  0  0  0  0  0  0  0
   58.5250   33.1870   45.8540 C   0  0  0  0  0  0  0  0  0  0  0  0
   59.1120   34.4550   46.4040 C   0  0  0  0  0  0  0  0  0  0  0  0
   58.8970   34.5240   47.8480 N   0  0  0  0  0  0  0  0  0  0  0  0
   59.8350   33.9990   48.7930 C   0  0  0  0  0  0  0  0  0  0  0  0
   61.0710   34.0980   48.5780 O   0  0  0  0  0  0  0  0  0  0  0  0
   59.3610   33.3430   50.0160 C   0  0  0  0  0  0  0  0  0  0  0  0
   58.5880   32.2250   49.9400 N   0  0  0  0  0  0  0  0  0  0  0  0
   58.1190   31.6170   51.0640 C   0  0  0  0  0  0  0  0  0  0  0  0
   57.4020   30.5870   50.9660 O   0  0  0  0  0  0  0  0  0  0  0  0
   58.4370   32.1390   52.3220 C   0  0  0  0  0  0  0  0  0  0  0  0
   57.9840   31.5330   53.4860 O   0  0  0  0  0  0  0  0  0  0  0  0
   59.2440   33.2740   52.3810 C   0  0  0  0  0  0  0  0  0  0  0  0
   59.6790   33.8610   51.2350 N   0  0  0  0  0  0  0  0  0  0  0  0
   59.3180   32.0330   45.7220 C   0  0  0  0  0  0  0  0  0  0  0  0
   61.2600   30.7850   47.4540 C   0  0  0  0  0  0  0  0  0  0  0  0
   62.3350   31.3920   48.1110 C   0  0  0  0  0  0  0  0  0  0  0  0
   63.4820   32.3040   47.1360 Cl  0  0  0  0  0  0  0  0  0  0  0  0
   63.5033   35.3004   52.1881 H   0  0  0  0  0  0  0  0  0  0  0  0
   65.3718   35.3821   52.5515 H   0  0  0  0  0  0  0  0  0  0  0  0
   66.6568   33.3548   51.8299 H   0  0  0  0  0  0  0  0  0  0  0  0
   66.1494   32.5757   50.2930 H   0  0  0  0  0  0  0  0  0  0  0  0
   66.7069   34.2832   50.2930 H   0  0  0  0  0  0  0  0  0  0  0  0
   63.6527   33.7622   49.2769 H   0  0  0  0  0  0  0  0  0  0  0  0
   62.0500   34.7560   50.4040 H   0  0  0  0  0  0  0  0  0  0  0  0
   61.5540   33.1700   50.5560 H   0  0  0  0  0  0  0  0  0  0  0  0
   64.5911   31.5623   49.7666 H   0  0  0  0  0  0  0  0  0  0  0  0
   63.5936   31.4880   51.2952 H   0  0  0  0  0  0  0  0  0  0  0  0
   61.6913   30.2967   51.2884 H   0  0  0  0  0  0  0  0  0  0  0  0
   58.5600   29.1040   50.0820 H   0  0  0  0  0  0  0  0  0  0  0  0
   60.6859   30.0110   44.7391 H   0  0  0  0  0  0  0  0  0  0  0  0
   59.2922   29.1433   44.0164 H   0  0  0  0  0  0  0  0  0  0  0  0
   57.0067   29.9248   44.3340 H   0  0  0  0  0  0  0  0  0  0  0  0
   55.6079   31.9841   44.5292 H   0  0  0  0  0  0  0  0  0  0  0  0
   56.5659   34.0591   45.5175 H   0  0  0  0  0  0  0  0  0  0  0  0
   60.1919   34.4761   46.1957 H   0  0  0  0  0  0  0  0  0  0  0  0
   58.6212   35.3155   45.9258 H   0  0  0  0  0  0  0  0  0  0  0  0
   59.5291   33.6951   53.3564 H   0  0  0  0  0  0  0  0  0  0  0  0
   60.3679   32.0488   46.0499 H   0  0  0  0  0  0  0  0  0  0  0  0
   61.1374   30.9274   46.3702 H   0  0  0  0  0  0  0  0  0  0  0  0
  1  2  2  0
  2  3  1  0
  2  4  1  0
  4  5  1  0
  4  6  1  0
  6  7  1  0
  7  8  2  0
  8  9  1  0
  9 10  1  0
  9 11  2  0
 11 12  1  0
 12 13  2  0
 12 14  1  0
 14 15  1  0
 15 16  1  0
 16 17  2  0
 17 18  1  0
 18 19  2  0
 19 20  1  0
 20 21  1  0
 21 22  1  0
 22 23  1  0
 23 24  2  0
 23 25  1  0
 25 26  2  0
 26 27  1  0
 27 28  2  0
 27 29  1  0
 29 30  1  0
 29 31  2  0
 31 32  1  0
 20 33  2  0
 11 34  1  0
 34 35  2  0
 35 36  1  0
 35  7  1  0
 33 16  1  0
 32 25  1  0
  1 37  1  0
  1 38  1  0
  3 39  1  0
  3 40  1  0
  3 41  1  0
  4 42  1  6
  5 43  1  0
  5 44  1  0
  6 45  1  0
  6 46  1  0
  8 47  1  0
 10 48  1  0
 15 49  1  0
 15 50  1  0
 17 51  1  0
 18 52  1  0
 19 53  1  0
 21 54  1  0
 21 55  1  0
 31 56  1  0
 33 57  1  0
 34 58  1  0
M  CHG  4  14  -1  22  -1  30  -1  32  -1
M  END
>  <UniqueID>  (12) 
11

>  <SMILES>  (12) 
C=C(C)[C@H](N)Cc1cc(O)c(C(=O)[N-]Cc2cccc(C[N-]C(=O)c3nc(=O)c([O-])c[n-]3)c2)cc1Cl

>  <Energy>  (12) 
57.56916736396114

>  <Genealogy>  (12) 
C=C(C)C(N)Cc1cc(O)c(C(=O)[N-]Cc2cccc(C[N-]C(=O)c3nc(=O)c([O-])c[n-]3)c2)cc1Cl (protonated)
C=C(C)[C@H](N)Cc1cc(O)c(C(=O)[N-]Cc2cccc(C[N-]C(=O)c3nc(=O)c([O-])c[n-]3)c2)cc1Cl (chirality)
C=C(C)[C@H](N)Cc1cc(O)c(C(=O)[N-]Cc2cccc(C[N-]C(=O)c3nc(=O)c([O-])c[n-]3)c2)cc1Cl (3D coordinates assigned)
C=C(C)[C@H](N)Cc1cc(O)c(C(=O)[N-]Cc2cccc(C[N-]C(=O)c3nc(=O)c([O-])c[n-]3)c2)cc1Cl (optimized conformer: 57.56916736396114 kcal/mol)

>  <smiles>  (12) 
C=C(C)C(N)Cc1cc(O)c(C(=O)NCc2cccc(CNC(=O)c3nc(=O)c(O)c[nH]3)c2)cc1Cl

>  <score_type>  (12) 
oracle

>  <origin>  (12) 
adg

>  <m_score__min__energy>  (12) 
-16.539999999999999

>  <m_primary>  (12) 
energy

$$$$
12:0
     RDKit          3D

 41 45  0  0  0  0  0  0  0  0999 V2000
   59.0477   25.0118   47.6593 H   0  0  0  0  0  0  0  0  0  0  0  0
   58.7360   25.9100   47.1060 C   0  0  0  0  0  0  0  0  0  0  0  0
   59.6100   26.9940   46.9830 C   0  0  0  0  0  0  0  0  0  0  0  0
   60.6079   26.9502   47.4436 H   0  0  0  0  0  0  0  0  0  0  0  0
   59.2170   28.1340   46.2750 C   0  0  0  0  0  0  0  0  0  0  0  0
   59.9077   28.9852   46.1836 H   0  0  0  0  0  0  0  0  0  0  0  0
   57.9450   28.2000   45.6790 C   0  0  0  0  0  0  0  0  0  0  0  0
   57.5300   29.3740   44.9560 N   0  0  0  0  0  0  0  0  0  0  0  0
   58.3350   30.3690   44.5250 C   0  0  0  0  0  0  0  0  0  0  0  0
   59.4240   30.4109   44.6746 H   0  0  0  0  0  0  0  0  0  0  0  0
   57.5850   31.3280   43.8670 C   0  0  0  0  0  0  0  0  0  0  0  0
   58.0980   32.5800   43.2790 C   0  0  0  0  0  0  0  0  0  0  0  0
   58.3380   32.6300   42.0450 O   0  0  0  0  0  0  0  0  0  0  0  0
   58.4020   33.7230   44.0910 N   0  0  0  0  0  0  0  0  0  0  0  0
   58.8330   33.6840   45.3160 C   0  0  0  0  0  0  0  0  0  0  0  0
   60.1220   33.4090   45.6140 N   0  0  0  0  0  0  0  0  0  0  0  0
   60.3450   33.4580   46.9550 C   0  0  0  0  0  0  0  0  0  0  0  0
   59.2310   33.7830   47.7220 C   0  0  0  0  0  0  0  0  0  0  0  0
   57.9220   34.0390   46.7000 S   0  0  0  0  0  0  0  0  0  0  0  0
   59.2670   34.0090   49.1980 C   0  0  0  0  0  0  0  0  0  0  0  0
   59.6892   35.0026   49.4092 H   0  0  0  0  0  0  0  0  0  0  0  0
   58.2476   33.9566   49.6080 H   0  0  0  0  0  0  0  0  0  0  0  0
   60.3090   32.7250   49.9670 S   0  0  0  0  0  0  0  0  0  0  0  0
   61.7750   33.0600   48.9620 C   0  0  0  0  0  0  0  0  0  0  0  0
   63.0350   33.0470   49.5730 C   0  0  0  0  0  0  0  0  0  0  0  0
   63.1143   32.9254   50.6634 H   0  0  0  0  0  0  0  0  0  0  0  0
   64.1920   33.1880   48.8020 C   0  0  0  0  0  0  0  0  0  0  0  0
   65.1795   33.1753   49.2865 H   0  0  0  0  0  0  0  0  0  0  0  0
   64.0970   33.3450   47.4180 C   0  0  0  0  0  0  0  0  0  0  0  0
   65.0106   33.4367   46.8122 H   0  0  0  0  0  0  0  0  0  0  0  0
   62.8430   33.3860   46.8000 C   0  0  0  0  0  0  0  0  0  0  0  0
   62.7724   33.5180   45.7102 H   0  0  0  0  0  0  0  0  0  0  0  0
   61.6730   33.2590   47.5680 C   0  0  0  0  0  0  0  0  0  0  0  0
   56.2650   30.9150   43.9130 C   0  0  0  0  0  0  0  0  0  0  0  0
   55.3901   31.4362   43.4971 H   0  0  0  0  0  0  0  0  0  0  0  0
   56.2760   29.7140   44.5890 C   0  0  0  0  0  0  0  0  0  0  0  0
   55.1410   28.9710   44.8900 O   0  0  0  0  0  0  0  0  0  0  0  0
   57.0700   27.1070   45.8190 C   0  0  0  0  0  0  0  0  0  0  0  0
   56.0670   27.1489   45.3692 H   0  0  0  0  0  0  0  0  0  0  0  0
   57.4670   25.9680   46.5260 C   0  0  0  0  0  0  0  0  0  0  0  0
   56.7784   25.1160   46.6256 H   0  0  0  0  0  0  0  0  0  0  0  0
  1  2  1  0
  2  3  2  0
  3  4  1  0
  3  5  1  0
  5  6  1  0
  5  7  2  0
  7  8  1  0
  8  9  1  0
  9 10  1  0
  9 11  2  0
 11 12  1  0
 12 13  2  0
 12 14  1  0
 14 15  2  0
 15 16  1  0
 16 17  1  0
 17 18  2  0
 18 19  1  0
 18 20  1  0
 20 21  1  0
 20 22  1  0
 20 23  1  0
 23 24  1  0
 24 25  2  0
 25 26  1  0
 25 27  1  0
 27 28  1  0
 27 29  2  0
 29 30  1  0
 29 31  1  0
 31 32  1  0
 31 33  2  0
 11 34  1  0
 34 35  1  0
 34 36  2  0
 36 37  1  0
  7 38  1  0
 38 39  1  0
 38 40  2  0
 40 41  1  0
 40  2  1  0
 36  8  1  0
 19 15  1  0
 33 24  1  0
 33 17  1  0
M  CHG  2  16  -1  37  -1
M  END
>  <UniqueID>  (13) 
12

>  <SMILES>  (13) 
O=C(/N=c1/[n-]c2c(s1)CSc1ccccc1-2)c1cc([O-])n(-c2ccccc2)c1

>  <Energy>  (13) 
123.3600424593748

>  <Genealogy>  (13) 
O=C(N=c1[n-]c2c(s1)CSc1ccccc1-2)c1cc([O-])n(-c2ccccc2)c1 (protonated)
O=C(/N=c1/[n-]c2c(s1)CSc1ccccc1-2)c1cc([O-])n(-c2ccccc2)c1 (cis-trans isomerization)
O=C(/N=c1/[n-]c2c(s1)CSc1ccccc1-2)c1cc([O-])n(-c2ccccc2)c1 (3D coordinates assigned)
O=C(/N=c1/[n-]c2c(s1)CSc1ccccc1-2)c1cc([O-])n(-c2ccccc2)c1 (nonaromatic ring conformer: 123.3600424593748 kcal/mol)

>  <smiles>  (13) 
O=C(N=c1[nH]c2c(s1)CSc1ccccc1-2)c1cc(O)n(-c2ccccc2)c1

>  <score_type>  (13) 
oracle

>  <origin>  (13) 
adg

>  <m_score__min__energy>  (13) 
-13.98

>  <m_primary>  (13) 
energy

$$$$
13:0
     RDKit          3D

 38 40  0  0  0  0  0  0  0  0999 V2000
   57.3970   23.2970   47.8240 O   0  0  0  0  0  0  0  0  0  0  0  0
   57.1510   24.3190   47.1320 C   0  0  0  0  0  0  0  0  0  0  0  0
   55.9280   24.8850   47.0660 N   0  0  0  0  0  0  0  0  0  0  0  0
   55.9380   25.9700   46.2490 C   0  0  0  0  0  0  0  0  0  0  0  0
   54.7880   26.7130   46.0090 O   0  0  0  0  0  0  0  0  0  0  0  0
   57.1720   26.2730   45.6780 C   0  0  0  0  0  0  0  0  0  0  0  0
   57.4500   27.3640   44.6910 C   0  0  0  0  0  0  0  0  0  0  0  0
   58.3770   28.3830   45.2920 C   0  0  0  0  0  0  0  0  0  0  0  0
   57.8720   29.4020   46.1160 C   0  0  0  0  0  0  0  0  0  0  0  0
   58.7360   30.3290   46.7060 C   0  0  0  0  0  0  0  0  0  0  0  0
   60.1240   30.2440   46.4870 C   0  0  0  0  0  0  0  0  0  0  0  0
   61.0320   31.1460   47.0570 O   0  0  0  0  0  0  0  0  0  0  0  0
   60.9260   31.6720   48.3780 C   0  0  0  0  0  0  0  0  0  0  0  0
   60.7080   33.1830   48.3210 C   0  0  0  0  0  0  0  0  0  0  0  0
   59.7490   33.5510   47.2190 C   0  0  0  0  0  0  0  0  0  0  0  0
   60.2340   33.9790   45.9720 C   0  0  0  0  0  0  0  0  0  0  0  0
   59.3450   34.2870   44.9380 C   0  0  0  0  0  0  0  0  0  0  0  0
   57.9680   34.1640   45.1390 C   0  0  0  0  0  0  0  0  0  0  0  0
   57.4760   33.7290   46.3730 C   0  0  0  0  0  0  0  0  0  0  0  0
   58.3630   33.4200   47.4100 C   0  0  0  0  0  0  0  0  0  0  0  0
   60.6260   29.2220   45.6730 C   0  0  0  0  0  0  0  0  0  0  0  0
   59.7620   28.2940   45.0830 C   0  0  0  0  0  0  0  0  0  0  0  0
   58.2900   25.1220   46.1930 S   0  0  0  0  0  0  0  0  0  0  0  0
   57.9173   26.9320   43.7938 H   0  0  0  0  0  0  0  0  0  0  0  0
   56.5030   27.8546   44.4217 H   0  0  0  0  0  0  0  0  0  0  0  0
   56.7894   29.4711   46.2983 H   0  0  0  0  0  0  0  0  0  0  0  0
   58.3298   31.1279   47.3438 H   0  0  0  0  0  0  0  0  0  0  0  0
   60.0752   31.2000   48.8912 H   0  0  0  0  0  0  0  0  0  0  0  0
   61.8555   31.4610   48.9271 H   0  0  0  0  0  0  0  0  0  0  0  0
   60.2975   33.5234   49.2831 H   0  0  0  0  0  0  0  0  0  0  0  0
   61.6745   33.6683   48.1199 H   0  0  0  0  0  0  0  0  0  0  0  0
   61.3178   34.0722   45.8085 H   0  0  0  0  0  0  0  0  0  0  0  0
   59.7301   34.6265   43.9652 H   0  0  0  0  0  0  0  0  0  0  0  0
   57.2700   34.4098   44.3251 H   0  0  0  0  0  0  0  0  0  0  0  0
   56.3916   33.6296   46.5287 H   0  0  0  0  0  0  0  0  0  0  0  0
   57.9739   33.0731   48.3786 H   0  0  0  0  0  0  0  0  0  0  0  0
   61.7091   29.1481   45.4959 H   0  0  0  0  0  0  0  0  0  0  0  0
   60.1699   27.4905   44.4521 H   0  0  0  0  0  0  0  0  0  0  0  0
  1  2  2  0
  2  3  1  0
  3  4  1  0
  4  5  1  0
  4  6  2  0
  6  7  1  0
  7  8  1  0
  8  9  2  0
  9 10  1  0
 10 11  2  0
 11 12  1  0
 12 13  1  0
 13 14  1  0
 14 15  1  0
 15 16  2  0
 16 17  1  0
 17 18  2  0
 18 19  1  0
 19 20  2  0
 11 21  1  0
 21 22  2  0
  6 23  1  0
 23  2  1  0
 22  8  1  0
 20 15  1  0
  7 24  1  0
  7 25  1  0
  9 26  1  0
 10 27  1  0
 13 28  1  0
 13 29  1  0
 14 30  1  0
 14 31  1  0
 16 32  1  0
 17 33  1  0
 18 34  1  0
 19 35  1  0
 20 36  1  0
 21 37  1  0
 22 38  1  0
M  CHG  2   3  -1   5  -1
M  END
>  <UniqueID>  (14) 
13

>  <SMILES>  (14) 
O=c1[n-]c([O-])c(Cc2ccc(OCCc3ccccc3)cc2)s1

>  <Energy>  (14) 
66.17530653213495

>  <Genealogy>  (14) 
O=c1[n-]c([O-])c(Cc2ccc(OCCc3ccccc3)cc2)s1 (protonated)
O=c1[n-]c([O-])c(Cc2ccc(OCCc3ccccc3)cc2)s1 (3D coordinates assigned)
O=c1[n-]c([O-])c(Cc2ccc(OCCc3ccccc3)cc2)s1 (optimized conformer: 66.17530653213495 kcal/mol)

>  <smiles>  (14) 
O=c1[nH]c(O)c(Cc2ccc(OCCc3ccccc3)cc2)s1

>  <score_type>  (14) 
oracle

>  <origin>  (14) 
adg

>  <m_score__min__energy>  (14) 
-14.029999999999999

>  <m_primary>  (14) 
energy

$$$$
14:0
     RDKit          3D

 30 32  0  0  0  0  0  0  0  0999 V2000
   55.4580   28.9700   44.8200 O   0  0  0  0  0  0  0  0  0  0  0  0
   56.6320   29.7250   44.2670 S   0  0  0  0  0  0  0  0  0  0  0  0
   56.7430   29.4510   42.7930 O   0  0  0  0  0  0  0  0  0  0  0  0
   56.3770   31.4250   44.5080 N   0  0  0  0  0  0  0  0  0  0  0  0
   57.3070   32.3190   45.1290 C   0  0  0  0  0  0  0  0  0  0  0  0
   57.7860   33.4730   44.4830 C   0  0  0  0  0  0  0  0  0  0  0  0
   58.6720   34.2830   45.1200 N   0  0  0  0  0  0  0  0  0  0  0  0
   59.1070   34.0000   46.3750 C   0  0  0  0  0  0  0  0  0  0  0  0
   60.0200   34.8410   47.0220 C   0  0  0  0  0  0  0  0  0  0  0  0
   60.4560   34.5320   48.3160 C   0  0  0  0  0  0  0  0  0  0  0  0
   59.9800   33.3860   48.9630 C   0  0  0  0  0  0  0  0  0  0  0  0
   59.0670   32.5420   48.3210 C   0  0  0  0  0  0  0  0  0  0  0  0
   58.6290   32.8470   47.0280 C   0  0  0  0  0  0  0  0  0  0  0  0
   57.7440   32.0400   46.3860 N   0  0  0  0  0  0  0  0  0  0  0  0
   58.0910   29.2070   45.1070 C   0  0  0  0  0  0  0  0  0  0  0  0
   57.9970   28.6140   46.3740 C   0  0  0  0  0  0  0  0  0  0  0  0
   59.1550   28.2070   47.0460 C   0  0  0  0  0  0  0  0  0  0  0  0
   60.4080   28.3900   46.4550 C   0  0  0  0  0  0  0  0  0  0  0  0
   60.5050   28.9760   45.1890 C   0  0  0  0  0  0  0  0  0  0  0  0
   59.3490   29.3840   44.5150 C   0  0  0  0  0  0  0  0  0  0  0  0
   57.4449   33.7188   43.4665 H   0  0  0  0  0  0  0  0  0  0  0  0
   60.3940   35.7426   46.5149 H   0  0  0  0  0  0  0  0  0  0  0  0
   61.1742   35.1914   48.8252 H   0  0  0  0  0  0  0  0  0  0  0  0
   60.3249   33.1478   49.9800 H   0  0  0  0  0  0  0  0  0  0  0  0
   58.6949   31.6415   48.8315 H   0  0  0  0  0  0  0  0  0  0  0  0
   57.0115   28.4685   46.8405 H   0  0  0  0  0  0  0  0  0  0  0  0
   59.0789   27.7426   48.0403 H   0  0  0  0  0  0  0  0  0  0  0  0
   61.3180   28.0731   46.9856 H   0  0  0  0  0  0  0  0  0  0  0  0
   61.4913   29.1163   44.7226 H   0  0  0  0  0  0  0  0  0  0  0  0
   59.4275   29.8444   43.5191 H   0  0  0  0  0  0  0  0  0  0  0  0
  1  2  2  0
  2  3  2  0
  2  4  1  0
  4  5  1  0
  5  6  2  0
  6  7  1  0
  7  8  2  0
  8  9  1  0
  9 10  2  0
 10 11  1  0
 11 12  2  0
 12 13  1  0
 13 14  2  0
  2 15  1  0
 15 16  2  0
 16 17  1  0
 17 18  2  0
 18 19  1  0
 19 20  2  0
 14  5  1  0
 20 15  1  0
 13  8  1  0
  6 21  1  0
  9 22  1  0
 10 23  1  0
 11 24  1  0
 12 25  1  0
 16 26  1  0
 17 27  1  0
 18 28  1  0
 19 29  1  0
 20 30  1  0
M  CHG  1   4  -1
M  END
>  <UniqueID>  (15) 
14

>  <SMILES>  (15) 
O=S(=O)([N-]c1cnc2ccccc2n1)c1ccccc1

>  <Energy>  (15) 
39.976472606223346

>  <Genealogy>  (15) 
O=S(=O)([N-]c1cnc2ccccc2n1)c1ccccc1 (protonated)
O=S(=O)([N-]c1cnc2ccccc2n1)c1ccccc1 (3D coordinates assigned)
O=S(=O)([N-]c1cnc2ccccc2n1)c1ccccc1 (optimized conformer: 39.976472606223346 kcal/mol)

>  <smiles>  (15) 
O=S(=O)(Nc1cnc2ccccc2n1)c1ccccc1

>  <score_type>  (15) 
oracle

>  <origin>  (15) 
adg

>  <m_score__min__energy>  (15) 
-9.0600000000000005

>  <m_primary>  (15) 
energy

$$$$
15:0
     RDKit          3D

 43 45  0  0  0  0  0  0  0  0999 V2000
   55.2620   29.3080   45.2280 O   0  0  0  0  0  0  0  0  0  0  0  0
   56.3940   29.3360   44.6760 C   0  0  0  0  0  0  0  0  0  0  0  0
   57.0720   28.0960   44.4390 N   0  0  0  0  0  0  0  0  0  0  0  0
   57.4410   27.1490   45.4520 C   0  0  0  0  0  0  0  0  0  0  0  0
   58.7980   26.8690   45.6510 C   0  0  0  0  0  0  0  0  0  0  0  0
   59.1940   25.9460   46.6230 C   0  0  0  0  0  0  0  0  0  0  0  0
   58.2350   25.2780   47.3860 C   0  0  0  0  0  0  0  0  0  0  0  0
   56.8760   25.5240   47.1730 C   0  0  0  0  0  0  0  0  0  0  0  0
   56.4700   26.4540   46.2040 C   0  0  0  0  0  0  0  0  0  0  0  0
   55.1120   26.6660   45.9710 O   0  0  0  0  0  0  0  0  0  0  0  0
   56.9610   30.6300   44.2280 C   0  0  0  0  0  0  0  0  0  0  0  0
   57.4750   31.5400   45.1690 C   0  0  0  0  0  0  0  0  0  0  0  0
   58.0730   32.7360   44.7540 C   0  0  0  0  0  0  0  0  0  0  0  0
   58.7300   33.8440   45.9580 S   0  0  0  0  0  0  0  0  0  0  0  0
   57.7720   33.9920   47.1090 O   0  0  0  0  0  0  0  0  0  0  0  0
   58.9160   35.1920   45.3210 O   0  0  0  0  0  0  0  0  0  0  0  0
   60.2750   33.2590   46.5090 N   0  0  0  0  0  0  0  0  0  0  0  0
   60.2750   33.0040   47.9510 C   0  0  0  0  0  0  0  0  0  0  0  0
   59.8190   31.6030   48.2610 C   0  0  0  0  0  0  0  0  0  0  0  0
   59.8440   30.6180   47.2610 C   0  0  0  0  0  0  0  0  0  0  0  0
   59.4030   29.3200   47.5400 C   0  0  0  0  0  0  0  0  0  0  0  0
   58.9370   28.9980   48.8160 C   0  0  0  0  0  0  0  0  0  0  0  0
   58.9220   29.9690   49.8200 C   0  0  0  0  0  0  0  0  0  0  0  0
   59.3650   31.2670   49.5470 C   0  0  0  0  0  0  0  0  0  0  0  0
   58.1510   33.0330   43.3880 C   0  0  0  0  0  0  0  0  0  0  0  0
   57.6270   32.1460   42.4460 C   0  0  0  0  0  0  0  0  0  0  0  0
   57.0410   30.9450   42.8580 C   0  0  0  0  0  0  0  0  0  0  0  0
   56.5410   30.1010   41.9210 F   0  0  0  0  0  0  0  0  0  0  0  0
   59.5570   27.3783   45.0390 H   0  0  0  0  0  0  0  0  0  0  0  0
   60.2631   25.7457   46.7869 H   0  0  0  0  0  0  0  0  0  0  0  0
   58.5492   24.5574   48.1555 H   0  0  0  0  0  0  0  0  0  0  0  0
   56.1220   24.9867   47.7670 H   0  0  0  0  0  0  0  0  0  0  0  0
   54.7800   27.1130   45.1250 H   0  0  0  0  0  0  0  0  0  0  0  0
   57.4065   31.3097   46.2424 H   0  0  0  0  0  0  0  0  0  0  0  0
   61.2950   33.1425   48.3390 H   0  0  0  0  0  0  0  0  0  0  0  0
   59.5773   33.7086   48.4272 H   0  0  0  0  0  0  0  0  0  0  0  0
   60.2116   30.8676   46.2547 H   0  0  0  0  0  0  0  0  0  0  0  0
   59.4234   28.5520   46.7528 H   0  0  0  0  0  0  0  0  0  0  0  0
   58.5816   27.9794   49.0308 H   0  0  0  0  0  0  0  0  0  0  0  0
   58.5612   29.7123   50.8269 H   0  0  0  0  0  0  0  0  0  0  0  0
   59.3579   32.0273   50.3419 H   0  0  0  0  0  0  0  0  0  0  0  0
   58.6265   33.9678   43.0562 H   0  0  0  0  0  0  0  0  0  0  0  0
   57.6752   32.3928   41.3751 H   0  0  0  0  0  0  0  0  0  0  0  0
  1  2  2  0
  2  3  1  0
  3  4  1  0
  4  5  2  0
  5  6  1  0
  6  7  2  0
  7  8  1  0
  8  9  2  0
  9 10  1  0
  2 11  1  0
 11 12  2  0
 12 13  1  0
 13 14  1  0
 14 15  2  0
 14 16  2  0
 14 17  1  0
 17 18  1  0
 18 19  1  0
 19 20  2  0
 20 21  1  0
 21 22  2  0
 22 23  1  0
 23 24  2  0
 13 25  2  0
 25 26  1  0
 26 27  2  0
 27 28  1  0
  9  4  1  0
 27 11  1  0
 24 19  1  0
  5 29  1  0
  6 30  1  0
  7 31  1  0
  8 32  1  0
 10 33  1  0
 12 34  1  0
 18 35  1  0
 18 36  1  0
 20 37  1  0
 21 38  1  0
 22 39  1  0
 23 40  1  0
 24 41  1  0
 25 42  1  0
 26 43  1  0
M  CHG  2   3  -1  17  -1
M  END
>  <UniqueID>  (16) 
15

>  <SMILES>  (16) 
O=C([N-]c1ccccc1O)c1cc(S(=O)(=O)[N-]Cc2ccccc2)ccc1F

>  <Energy>  (16) 
49.25494491019247

>  <Genealogy>  (16) 
O=C([N-]c1ccccc1O)c1cc(S(=O)(=O)[N-]Cc2ccccc2)ccc1F (protonated)
O=C([N-]c1ccccc1O)c1cc(S(=O)(=O)[N-]Cc2ccccc2)ccc1F (3D coordinates assigned)
O=C([N-]c1ccccc1O)c1cc(S(=O)(=O)[N-]Cc2ccccc2)ccc1F (optimized conformer: 49.25494491019247 kcal/mol)

>  <smiles>  (16) 
O=C(Nc1ccccc1O)c1cc(S(=O)(=O)NCc2ccccc2)ccc1F

>  <score_type>  (16) 
oracle

>  <origin>  (16) 
adg

>  <m_score__min__energy>  (16) 
-13.27

>  <m_primary>  (16) 
energy

$$$$
16:0
     RDKit          3D

 46 48  0  0  0  0  0  0  0  0999 V2000
   55.6470   24.7520   46.3420 C   0  0  0  0  0  0  0  0  0  0  0  0
   56.3720   26.0160   46.0060 C   0  0  0  0  0  0  0  0  0  0  0  0
   57.7730   26.0560   46.0120 C   0  0  0  0  0  0  0  0  0  0  0  0
   58.4270   27.2360   45.6540 C   0  0  0  0  0  0  0  0  0  0  0  0
   57.6860   28.3710   45.2910 C   0  0  0  0  0  0  0  0  0  0  0  0
   58.3930   29.6110   44.8990 C   0  0  0  0  0  0  0  0  0  0  0  0
   58.8990   29.6880   43.7470 O   0  0  0  0  0  0  0  0  0  0  0  0
   58.5300   30.7170   45.8130 N   0  0  0  0  0  0  0  0  0  0  0  0
   58.6910   32.0750   45.2860 C   0  0  0  0  0  0  0  0  0  0  0  0
   58.1590   33.1000   46.3010 C   0  0  0  0  0  0  0  0  0  0  0  0
   58.6530   32.8970   47.6930 N   0  0  0  0  0  0  0  0  0  0  0  0
   59.3560   34.0970   48.1990 C   0  0  0  0  0  0  0  0  0  0  0  0
   60.8580   33.9580   48.0480 C   0  0  0  0  0  0  0  0  0  0  0  0
   61.3940   33.9540   46.7470 C   0  0  0  0  0  0  0  0  0  0  0  0
   62.7700   33.8270   46.5400 C   0  0  0  0  0  0  0  0  0  0  0  0
   63.6310   33.7040   47.6310 C   0  0  0  0  0  0  0  0  0  0  0  0
   63.1190   33.7090   48.9320 C   0  0  0  0  0  0  0  0  0  0  0  0
   61.7360   33.8370   49.1600 C   0  0  0  0  0  0  0  0  0  0  0  0
   61.2280   33.8270   50.5800 C   0  0  0  0  0  0  0  0  0  0  0  0
   59.4760   31.6800   47.8760 C   0  0  0  0  0  0  0  0  0  0  0  0
   58.8070   30.4630   47.2320 C   0  0  0  0  0  0  0  0  0  0  0  0
   56.2790   28.2790   45.2660 C   0  0  0  0  0  0  0  0  0  0  0  0
   55.5740   29.2550   44.8920 O   0  0  0  0  0  0  0  0  0  0  0  0
   55.6690   27.1160   45.6230 N   0  0  0  0  0  0  0  0  0  0  0  0
   55.5852   24.6442   47.4350 H   0  0  0  0  0  0  0  0  0  0  0  0
   54.6322   24.7879   45.9191 H   0  0  0  0  0  0  0  0  0  0  0  0
   56.1903   23.8941   45.9191 H   0  0  0  0  0  0  0  0  0  0  0  0
   58.3522   25.1651   46.2964 H   0  0  0  0  0  0  0  0  0  0  0  0
   59.5263   27.2763   45.6564 H   0  0  0  0  0  0  0  0  0  0  0  0
   59.7574   32.2686   45.0978 H   0  0  0  0  0  0  0  0  0  0  0  0
   58.1236   32.1678   44.3482 H   0  0  0  0  0  0  0  0  0  0  0  0
   58.4644   34.1035   45.9698 H   0  0  0  0  0  0  0  0  0  0  0  0
   57.0666   32.9748   46.3326 H   0  0  0  0  0  0  0  0  0  0  0  0
   59.0183   34.9765   47.6312 H   0  0  0  0  0  0  0  0  0  0  0  0
   59.1229   34.2119   49.2679 H   0  0  0  0  0  0  0  0  0  0  0  0
   60.7214   34.0521   45.8821 H   0  0  0  0  0  0  0  0  0  0  0  0
   63.1744   33.8240   45.5170 H   0  0  0  0  0  0  0  0  0  0  0  0
   64.7141   33.6030   47.4673 H   0  0  0  0  0  0  0  0  0  0  0  0
   63.8045   33.6118   49.7868 H   0  0  0  0  0  0  0  0  0  0  0  0
   62.0808   33.8438   51.2746 H   0  0  0  0  0  0  0  0  0  0  0  0
   60.5987   34.7129   50.7505 H   0  0  0  0  0  0  0  0  0  0  0  0
   60.6340   32.9170   50.7505 H   0  0  0  0  0  0  0  0  0  0  0  0
   60.4600   31.8379   47.4104 H   0  0  0  0  0  0  0  0  0  0  0  0
   59.5856   31.4900   48.9539 H   0  0  0  0  0  0  0  0  0  0  0  0
   59.4757   29.5940   47.3200 H   0  0  0  0  0  0  0  0  0  0  0  0
   57.8565   30.2654   47.7493 H   0  0  0  0  0  0  0  0  0  0  0  0
  1  2  1  0
  2  3  2  0
  3  4  1  0
  4  5  2  0
  5  6  1  0
  6  7  2  0
  6  8  1  0
  8  9  1  0
  9 10  1  0
 10 11  1  0
 11 12  1  0
 12 13  1  0
 13 14  2  0
 14 15  1  0
 15 16  2  0
 16 17  1  0
 17 18  2  0
 18 19  1  0
 11 20  1  0
 20 21  1  0
  5 22  1  0
 22 23  2  0
 22 24  1  0
 24  2  1  0
 21  8  1  0
 18 13  1  0
  1 25  1  0
  1 26  1  0
  1 27  1  0
  3 28  1  0
  4 29  1  0
  9 30  1  0
  9 31  1  0
 10 32  1  0
 10 33  1  0
 12 34  1  0
 12 35  1  0
 14 36  1  0
 15 37  1  0
 16 38  1  0
 17 39  1  0
 19 40  1  0
 19 41  1  0
 19 42  1  0
 20 43  1  0
 20 44  1  0
 21 45  1  0
 21 46  1  0
M  CHG  1  24  -1
M  END
>  <UniqueID>  (17) 
16

>  <SMILES>  (17) 
Cc1ccc(C(=O)N2CCN(Cc3ccccc3C)CC2)c(=O)[n-]1

>  <Energy>  (17) 
61.849233898928716

>  <Genealogy>  (17) 
Cc1ccc(C(=O)N2CCN(Cc3ccccc3C)CC2)c(=O)[n-]1 (protonated)
Cc1ccc(C(=O)N2CCN(Cc3ccccc3C)CC2)c(=O)[n-]1 (3D coordinates assigned)
Cc1ccc(C(=O)N2CCN(Cc3ccccc3C)CC2)c(=O)[n-]1 (nonaromatic ring conformer: 61.849233898928716 kcal/mol)

>  <smiles>  (17) 
Cc1ccc(C(=O)N2CCN(Cc3ccccc3C)CC2)c(=O)[nH]1

>  <score_type>  (17) 
oracle

>  <origin>  (17) 
adg

>  <m_score__min__energy>  (17) 
-10.77

>  <m_primary>  (17) 
energy

$$$$
17:0
     RDKit          3D

 63 66  0  0  0  0  0  0  0  0999 V2000
   55.1880   29.6640   44.8640 O   0  0  0  0  0  0  0  0  0  0  0  0
   56.1820   28.8920   44.9420 C   0  0  0  0  0  0  0  0  0  0  0  0
   57.5010   29.3380   44.3630 C   0  0  0  0  0  0  0  0  0  0  0  0
   57.8550   30.7650   44.7480 C   0  0  0  0  0  0  0  0  0  0  0  0
   57.1020   31.8350   44.2160 C   0  0  0  0  0  0  0  0  0  0  0  0
   57.3970   33.1570   44.5490 C   0  0  0  0  0  0  0  0  0  0  0  0
   58.4380   33.4380   45.4290 C   0  0  0  0  0  0  0  0  0  0  0  0
   59.1720   32.3980   45.9990 C   0  0  0  0  0  0  0  0  0  0  0  0
   58.8750   31.0570   45.6980 C   0  0  0  0  0  0  0  0  0  0  0  0
   59.7890   29.7840   46.5310 S   0  0  0  0  0  0  0  0  0  0  0  0
   59.8790   28.5500   45.6790 O   0  0  0  0  0  0  0  0  0  0  0  0
   61.1760   30.2900   46.8100 O   0  0  0  0  0  0  0  0  0  0  0  0
   59.0430   29.3590   48.0410 N   0  0  0  0  0  0  0  0  0  0  0  0
   58.9410   30.2410   49.1750 C   0  0  0  0  0  0  0  0  0  0  0  0
   58.5530   29.7800   50.4470 C   0  0  0  0  0  0  0  0  0  0  0  0
   58.4460   30.6720   51.5170 C   0  0  0  0  0  0  0  0  0  0  0  0
   58.7140   32.0290   51.3330 C   0  0  0  0  0  0  0  0  0  0  0  0
   59.1010   32.5090   50.0670 C   0  0  0  0  0  0  0  0  0  0  0  0
   59.3690   33.8650   49.8190 O   0  0  0  0  0  0  0  0  0  0  0  0
   59.8550   34.4000   48.5870 C   0  0  0  0  0  0  0  0  0  0  0  0
   61.2780   33.9720   48.3390 C   0  0  0  0  0  0  0  0  0  0  0  0
   61.7540   33.8070   47.0290 C   0  0  0  0  0  0  0  0  0  0  0  0
   63.0650   33.3750   46.8030 C   0  0  0  0  0  0  0  0  0  0  0  0
   63.9060   33.0980   47.8810 C   0  0  0  0  0  0  0  0  0  0  0  0
   63.4390   33.2520   49.1890 C   0  0  0  0  0  0  0  0  0  0  0  0
   62.1280   33.6840   49.4190 C   0  0  0  0  0  0  0  0  0  0  0  0
   59.2180   31.6070   49.0020 C   0  0  0  0  0  0  0  0  0  0  0  0
   56.0280   27.6370   45.6140 N   0  0  0  0  0  0  0  0  0  0  0  0
   57.1260   26.7830   46.0460 C   0  0  0  0  0  0  0  0  0  0  0  0
   56.5930   25.4390   46.5350 C   0  0  0  0  0  0  0  0  0  0  0  0
   55.3400   24.7540   45.3880 S   0  0  0  0  0  0  0  0  0  0  0  0
   56.3920   23.4560   44.7350 C   0  0  0  0  0  0  0  0  0  0  0  0
   57.6800   23.2680   45.2470 C   0  0  0  0  0  0  0  0  0  0  0  0
   58.4840   22.2570   44.7170 C   0  0  0  0  0  0  0  0  0  0  0  0
   57.9990   21.4560   43.6830 C   0  0  0  0  0  0  0  0  0  0  0  0
   56.7090   21.6750   43.1960 C   0  0  0  0  0  0  0  0  0  0  0  0
   55.9420   22.6660   43.7230 N   0  0  0  0  0  0  0  0  0  0  0  0
   58.2918   28.6674   44.7302 H   0  0  0  0  0  0  0  0  0  0  0  0
   57.4139   29.3002   43.2671 H   0  0  0  0  0  0  0  0  0  0  0  0
   56.2701   31.6225   43.5284 H   0  0  0  0  0  0  0  0  0  0  0  0
   56.8066   33.9779   44.1159 H   0  0  0  0  0  0  0  0  0  0  0  0
   58.6822   34.4819   45.6753 H   0  0  0  0  0  0  0  0  0  0  0  0
   59.9936   32.6298   46.6928 H   0  0  0  0  0  0  0  0  0  0  0  0
   58.6760   28.3870   48.1240 H   0  0  0  0  0  0  0  0  0  0  0  0
   58.3331   28.7130   50.5993 H   0  0  0  0  0  0  0  0  0  0  0  0
   58.1489   30.3026   52.5096 H   0  0  0  0  0  0  0  0  0  0  0  0
   58.6227   32.7257   52.1793 H   0  0  0  0  0  0  0  0  0  0  0  0
   59.2217   34.0394   47.7631 H   0  0  0  0  0  0  0  0  0  0  0  0
   59.8232   35.4981   48.6439 H   0  0  0  0  0  0  0  0  0  0  0  0
   61.0927   34.0185   46.1758 H   0  0  0  0  0  0  0  0  0  0  0  0
   63.4334   33.2535   45.7737 H   0  0  0  0  0  0  0  0  0  0  0  0
   64.9367   32.7584   47.7014 H   0  0  0  0  0  0  0  0  0  0  0  0
   64.1026   33.0334   50.0387 H   0  0  0  0  0  0  0  0  0  0  0  0
   61.7618   33.7984   50.4499 H   0  0  0  0  0  0  0  0  0  0  0  0
   59.5320   31.9744   48.0139 H   0  0  0  0  0  0  0  0  0  0  0  0
   57.8097   26.6160   45.2006 H   0  0  0  0  0  0  0  0  0  0  0  0
   57.6595   27.2773   46.8713 H   0  0  0  0  0  0  0  0  0  0  0  0
   57.4304   24.7301   46.6139 H   0  0  0  0  0  0  0  0  0  0  0  0
   56.1159   25.5933   47.5140 H   0  0  0  0  0  0  0  0  0  0  0  0
   58.0553   23.9094   46.0580 H   0  0  0  0  0  0  0  0  0  0  0  0
   59.4968   22.0926   45.1136 H   0  0  0  0  0  0  0  0  0  0  0  0
   58.6265   20.6600   43.2557 H   0  0  0  0  0  0  0  0  0  0  0  0
   56.3131   21.0454   42.3855 H   0  0  0  0  0  0  0  0  0  0  0  0
  1  2  2  0
  2  3  1  0
  3  4  1  0
  4  5  2  0
  5  6  1  0
  6  7  2  0
  7  8  1  0
  8  9  2  0
  9 10  1  0
 10 11  2  0
 10 12  2  0
 10 13  1  0
 13 14  1  0
 14 15  2  0
 15 16  1  0
 16 17  2  0
 17 18  1  0
 18 19  1  0
 19 20  1  0
 20 21  1  0
 21 22  2  0
 22 23  1  0
 23 24  2  0
 24 25  1  0
 25 26  2  0
 18 27  2  0
  2 28  1  0
 28 29  1  0
 29 30  1  0
 30 31  1  0
 31 32  1  0
 32 33  2  0
 33 34  1  0
 34 35  2  0
 35 36  1  0
 36 37  2  0
  9  4  1  0
 27 14  1  0
 37 32  1  0
 26 21  1  0
  3 38  1  0
  3 39  1  0
  5 40  1  0
  6 41  1  0
  7 42  1  0
  8 43  1  0
 13 44  1  0
 15 45  1  0
 16 46  1  0
 17 47  1  0
 20 48  1  0
 20 49  1  0
 22 50  1  0
 23 51  1  0
 24 52  1  0
 25 53  1  0
 26 54  1  0
 27 55  1  0
 29 56  1  0
 29 57  1  0
 30 58  1  0
 30 59  1  0
 33 60  1  0
 34 61  1  0
 35 62  1  0
 36 63  1  0
M  CHG  1  28  -1
M  END
>  <UniqueID>  (18) 
17

>  <SMILES>  (18) 
O=C(Cc1ccccc1S(=O)(=O)Nc1cccc(OCc2ccccc2)c1)[N-]CCSc1ccccn1

>  <Energy>  (18) 
67.85695476202436

>  <Genealogy>  (18) 
O=C(Cc1ccccc1S(=O)(=O)Nc1cccc(OCc2ccccc2)c1)[N-]CCSc1ccccn1 (protonated)
O=C(Cc1ccccc1S(=O)(=O)Nc1cccc(OCc2ccccc2)c1)[N-]CCSc1ccccn1 (3D coordinates assigned)
O=C(Cc1ccccc1S(=O)(=O)Nc1cccc(OCc2ccccc2)c1)[N-]CCSc1ccccn1 (optimized conformer: 67.85695476202436 kcal/mol)

>  <smiles>  (18) 
O=C(Cc1ccccc1S(=O)(=O)Nc1cccc(OCc2ccccc2)c1)NCCSc1ccccn1

>  <score_type>  (18) 
oracle

>  <origin>  (18) 
adg

>  <m_score__min__energy>  (18) 
-12.960000000000001

>  <m_primary>  (18) 
energy

$$$$
18:0
     RDKit          3D

 57 60  0  0  0  0  0  0  0  0999 V2000
   55.2020   29.1870   44.5320 O   0  0  0  0  0  0  0  0  0  0  0  0
   56.2530   29.8690   44.4030 C   0  0  0  0  0  0  0  0  0  0  0  0
   57.4920   29.2080   43.8570 C   0  0  0  0  0  0  0  0  0  0  0  0
   58.3320   28.4530   44.8730 C   0  0  0  0  0  0  0  0  0  0  0  0
   59.7160   28.6730   45.0070 C   0  0  0  0  0  0  0  0  0  0  0  0
   60.4460   28.0050   45.9830 C   0  0  0  0  0  0  0  0  0  0  0  0
   59.8270   27.0900   46.8310 C   0  0  0  0  0  0  0  0  0  0  0  0
   60.5990   26.4630   47.8030 O   0  0  0  0  0  0  0  0  0  0  0  0
   58.4460   26.8190   46.7090 C   0  0  0  0  0  0  0  0  0  0  0  0
   57.8260   25.7300   47.5790 C   0  0  0  0  0  0  0  0  0  0  0  0
   57.5450   24.4560   46.8660 N   0  0  0  0  0  0  0  0  0  0  0  0
   56.3720   23.6930   47.3340 C   0  0  0  0  0  0  0  0  0  0  0  0
   55.1130   23.9630   46.4860 C   0  0  0  0  0  0  0  0  0  0  0  0
   55.2800   25.0800   45.6390 O   0  0  0  0  0  0  0  0  0  0  0  0
   56.3100   24.8210   44.7080 C   0  0  0  0  0  0  0  0  0  0  0  0
   57.6570   24.5030   45.3950 C   0  0  0  0  0  0  0  0  0  0  0  0
   57.6880   27.5600   45.7590 C   0  0  0  0  0  0  0  0  0  0  0  0
   56.2950   27.4560   45.6750 O   0  0  0  0  0  0  0  0  0  0  0  0
   56.1990   31.2750   44.6850 N   0  0  0  0  0  0  0  0  0  0  0  0
   57.2680   32.0830   45.1910 C   0  0  0  0  0  0  0  0  0  0  0  0
   58.1550   31.6000   46.1670 C   0  0  0  0  0  0  0  0  0  0  0  0
   59.1580   32.4270   46.6780 C   0  0  0  0  0  0  0  0  0  0  0  0
   59.2840   33.7510   46.2270 C   0  0  0  0  0  0  0  0  0  0  0  0
   60.3950   34.6250   46.7450 C   0  0  0  0  0  0  0  0  0  0  0  0
   61.4940   33.7790   47.3300 C   0  0  0  0  0  0  0  0  0  0  0  0
   62.6420   33.4910   46.5780 C   0  0  0  0  0  0  0  0  0  0  0  0
   63.6320   32.6690   47.1220 C   0  0  0  0  0  0  0  0  0  0  0  0
   63.4790   32.1500   48.3700 N   0  0  0  0  0  0  0  0  0  0  0  0
   62.3750   32.4110   49.1190 C   0  0  0  0  0  0  0  0  0  0  0  0
   61.3610   33.2290   48.6130 C   0  0  0  0  0  0  0  0  0  0  0  0
   58.3890   34.2350   45.2610 C   0  0  0  0  0  0  0  0  0  0  0  0
   57.3780   33.4110   44.7600 C   0  0  0  0  0  0  0  0  0  0  0  0
   57.1812   28.4961   43.0782 H   0  0  0  0  0  0  0  0  0  0  0  0
   58.1296   30.0229   43.4837 H   0  0  0  0  0  0  0  0  0  0  0  0
   60.2238   29.3793   44.3338 H   0  0  0  0  0  0  0  0  0  0  0  0
   61.5234   28.2010   46.0867 H   0  0  0  0  0  0  0  0  0  0  0  0
   58.5187   25.5152   48.4060 H   0  0  0  0  0  0  0  0  0  0  0  0
   56.8550   26.1178   47.9206 H   0  0  0  0  0  0  0  0  0  0  0  0
   56.6070   22.6196   47.2840 H   0  0  0  0  0  0  0  0  0  0  0  0
   56.1553   24.0131   48.3639 H   0  0  0  0  0  0  0  0  0  0  0  0
   54.9026   23.0769   45.8691 H   0  0  0  0  0  0  0  0  0  0  0  0
   54.2790   24.1755   47.1710 H   0  0  0  0  0  0  0  0  0  0  0  0
   56.0178   23.9608   44.0878 H   0  0  0  0  0  0  0  0  0  0  0  0
   56.4487   25.7270   44.0998 H   0  0  0  0  0  0  0  0  0  0  0  0
   58.0133   23.5258   45.0371 H   0  0  0  0  0  0  0  0  0  0  0  0
   58.3606   25.3089   45.1393 H   0  0  0  0  0  0  0  0  0  0  0  0
   55.7960   27.0850   44.8800 H   0  0  0  0  0  0  0  0  0  0  0  0
   58.0594   30.5662   46.5305 H   0  0  0  0  0  0  0  0  0  0  0  0
   59.8528   32.0392   47.4376 H   0  0  0  0  0  0  0  0  0  0  0  0
   60.8005   35.2255   45.9174 H   0  0  0  0  0  0  0  0  0  0  0  0
   59.9956   35.2856   47.5286 H   0  0  0  0  0  0  0  0  0  0  0  0
   62.7621   33.9090   45.5676 H   0  0  0  0  0  0  0  0  0  0  0  0
   64.5371   32.4410   46.5399 H   0  0  0  0  0  0  0  0  0  0  0  0
   62.2795   31.9775   50.1254 H   0  0  0  0  0  0  0  0  0  0  0  0
   60.4657   33.4397   49.2164 H   0  0  0  0  0  0  0  0  0  0  0  0
   58.4837   35.2684   44.8962 H   0  0  0  0  0  0  0  0  0  0  0  0
   56.6643   33.8076   44.0228 H   0  0  0  0  0  0  0  0  0  0  0  0
  1  2  2  0
  2  3  1  0
  3  4  1  0
  4  5  2  0
  5  6  1  0
  6  7  2  0
  7  8  1  0
  7  9  1  0
  9 10  1  0
 10 11  1  0
 11 12  1  0
 12 13  1  0
 13 14  1  0
 14 15  1  0
 15 16  1  0
  9 17  2  0
 17 18  1  0
  2 19  1  0
 19 20  1  0
 20 21  2  0
 21 22  1  0
 22 23  2  0
 23 24  1  0
 24 25  1  0
 25 26  2  0
 26 27  1  0
 27 28  2  0
 28 29  1  0
 29 30  2  0
 23 31  1  0
 31 32  2  0
 17  4  1  0
 32 20  1  0
 16 11  1  0
 30 25  1  0
  3 33  1  0
  3 34  1  0
  5 35  1  0
  6 36  1  0
 10 37  1  0
 10 38  1  0
 12 39  1  0
 12 40  1  0
 13 41  1  0
 13 42  1  0
 15 43  1  0
 15 44  1  0
 16 45  1  0
 16 46  1  0
 18 47  1  0
 21 48  1  0
 22 49  1  0
 24 50  1  0
 24 51  1  0
 26 52  1  0
 27 53  1  0
 29 54  1  0
 30 55  1  0
 31 56  1  0
 32 57  1  0
M  CHG  2   8  -1  19  -1
M  END
>  <UniqueID>  (19) 
18

>  <SMILES>  (19) 
O=C(Cc1ccc([O-])c(CN2CCOCC2)c1O)[N-]c1ccc(Cc2ccncc2)cc1

>  <Energy>  (19) 
84.60824011326615

>  <Genealogy>  (19) 
O=C(Cc1ccc([O-])c(CN2CCOCC2)c1O)[N-]c1ccc(Cc2ccncc2)cc1 (protonated)
O=C(Cc1ccc([O-])c(CN2CCOCC2)c1O)[N-]c1ccc(Cc2ccncc2)cc1 (3D coordinates assigned)
O=C(Cc1ccc([O-])c(CN2CCOCC2)c1O)[N-]c1ccc(Cc2ccncc2)cc1 (nonaromatic ring conformer: 84.60824011326615 kcal/mol)

>  <smiles>  (19) 
O=C(Cc1ccc(O)c(CN2CCOCC2)c1O)Nc1ccc(Cc2ccncc2)cc1

>  <score_type>  (19) 
oracle

>  <origin>  (19) 
adg

>  <m_score__min__energy>  (19) 
-13.619999999999999

>  <m_primary>  (19) 
energy

$$$$
19:0
     RDKit          3D

 59 63  0  0  0  0  0  0  0  0999 V2000
   57.9630   27.6540   44.2530 O   0  0  0  0  0  0  0  0  0  0  0  0
   57.3360   28.0520   45.2670 C   0  0  0  0  0  0  0  0  0  0  0  0
   56.0690   27.4730   45.6130 N   0  0  0  0  0  0  0  0  0  0  0  0
   55.9190   26.2260   46.3620 C   0  0  0  0  0  0  0  0  0  0  0  0
   56.7080   25.1040   45.7230 C   0  0  0  0  0  0  0  0  0  0  0  0
   56.1570   24.3880   44.6410 C   0  0  0  0  0  0  0  0  0  0  0  0
   56.8720   23.3420   44.0480 C   0  0  0  0  0  0  0  0  0  0  0  0
   58.1370   22.9960   44.5330 C   0  0  0  0  0  0  0  0  0  0  0  0
   58.6910   23.6950   45.6150 C   0  0  0  0  0  0  0  0  0  0  0  0
   57.9840   24.7490   46.2050 C   0  0  0  0  0  0  0  0  0  0  0  0
   57.9130   29.1030   46.1220 C   0  0  0  0  0  0  0  0  0  0  0  0
   57.8350   30.4910   45.9550 C   0  0  0  0  0  0  0  0  0  0  0  0
   57.0540   31.1640   44.8760 C   0  0  0  0  0  0  0  0  0  0  0  0
   57.5390   32.1600   44.2740 O   0  0  0  0  0  0  0  0  0  0  0  0
   55.7800   30.7400   44.5220 O   0  0  0  0  0  0  0  0  0  0  0  0
   58.5390   31.1180   46.9510 N   0  0  0  0  0  0  0  0  0  0  0  0
   58.7320   32.5560   47.1860 C   0  0  0  0  0  0  0  0  0  0  0  0
   60.1590   32.8370   47.5870 C   0  0  0  0  0  0  0  0  0  0  0  0
   61.2250   32.4250   46.7590 C   0  0  0  0  0  0  0  0  0  0  0  0
   62.5490   32.6580   47.1440 C   0  0  0  0  0  0  0  0  0  0  0  0
   62.8340   33.3260   48.3480 C   0  0  0  0  0  0  0  0  0  0  0  0
   64.1470   33.5700   48.7760 O   0  0  0  0  0  0  0  0  0  0  0  0
   64.8310   32.7390   49.6680 C   0  0  0  0  0  0  0  0  0  0  0  0
   66.1700   33.0060   49.9590 C   0  0  0  0  0  0  0  0  0  0  0  0
   66.8610   32.2030   50.8750 C   0  0  0  0  0  0  0  0  0  0  0  0
   66.2190   31.1350   51.5040 C   0  0  0  0  0  0  0  0  0  0  0  0
   64.8900   30.8530   51.2040 C   0  0  0  0  0  0  0  0  0  0  0  0
   64.2060   31.6360   50.2690 C   0  0  0  0  0  0  0  0  0  0  0  0
   61.7720   33.7730   49.1500 C   0  0  0  0  0  0  0  0  0  0  0  0
   60.4450   33.5210   48.7830 C   0  0  0  0  0  0  0  0  0  0  0  0
   59.0780   30.1330   47.7070 C   0  0  0  0  0  0  0  0  0  0  0  0
   59.9140   30.2680   48.8190 C   0  0  0  0  0  0  0  0  0  0  0  0
   60.3860   29.0980   49.4340 C   0  0  0  0  0  0  0  0  0  0  0  0
   60.0220   27.8250   48.9340 C   0  0  0  0  0  0  0  0  0  0  0  0
   60.5250   26.6790   49.5410 O   0  0  0  0  0  0  0  0  0  0  0  0
   59.1690   27.7190   47.8180 C   0  0  0  0  0  0  0  0  0  0  0  0
   58.7080   28.8980   47.2330 C   0  0  0  0  0  0  0  0  0  0  0  0
   56.2810   26.3791   47.3894 H   0  0  0  0  0  0  0  0  0  0  0  0
   54.8551   25.9465   46.3626 H   0  0  0  0  0  0  0  0  0  0  0  0
   55.1594   24.6532   44.2609 H   0  0  0  0  0  0  0  0  0  0  0  0
   56.4389   22.7915   43.1998 H   0  0  0  0  0  0  0  0  0  0  0  0
   58.6985   22.1740   44.0649 H   0  0  0  0  0  0  0  0  0  0  0  0
   59.6824   23.4146   46.0005 H   0  0  0  0  0  0  0  0  0  0  0  0
   58.4254   25.3019   47.0473 H   0  0  0  0  0  0  0  0  0  0  0  0
   58.4993   33.1083   46.2636 H   0  0  0  0  0  0  0  0  0  0  0  0
   58.0634   32.8775   47.9982 H   0  0  0  0  0  0  0  0  0  0  0  0
   61.0133   31.9180   45.8060 H   0  0  0  0  0  0  0  0  0  0  0  0
   63.3732   32.3164   46.5005 H   0  0  0  0  0  0  0  0  0  0  0  0
   66.6823   33.8470   49.4689 H   0  0  0  0  0  0  0  0  0  0  0  0
   67.9166   32.4153   51.1003 H   0  0  0  0  0  0  0  0  0  0  0  0
   66.7623   30.5180   52.2349 H   0  0  0  0  0  0  0  0  0  0  0  0
   64.3784   30.0158   51.7013 H   0  0  0  0  0  0  0  0  0  0  0  0
   63.1688   31.3850   50.0023 H   0  0  0  0  0  0  0  0  0  0  0  0
   61.9849   34.3269   50.0762 H   0  0  0  0  0  0  0  0  0  0  0  0
   59.6232   33.8587   49.4315 H   0  0  0  0  0  0  0  0  0  0  0  0
   60.1935   31.2611   49.2006 H   0  0  0  0  0  0  0  0  0  0  0  0
   61.0445   29.1711   50.3121 H   0  0  0  0  0  0  0  0  0  0  0  0
   61.1540   26.7280   50.3280 H   0  0  0  0  0  0  0  0  0  0  0  0
   58.8755   26.7364   47.4202 H   0  0  0  0  0  0  0  0  0  0  0  0
  1  2  2  0
  2  3  1  0
  3  4  1  0
  4  5  1  0
  5  6  2  0
  6  7  1  0
  7  8  2  0
  8  9  1  0
  9 10  2  0
  2 11  1  0
 11 12  2  0
 12 13  1  0
 13 14  2  0
 13 15  1  0
 12 16  1  0
 16 17  1  0
 17 18  1  0
 18 19  2  0
 19 20  1  0
 20 21  2  0
 21 22  1  0
 22 23  1  0
 23 24  2  0
 24 25  1  0
 25 26  2  0
 26 27  1  0
 27 28  2  0
 21 29  1  0
 29 30  2  0
 16 31  1  0
 31 32  2  0
 32 33  1  0
 33 34  2  0
 34 35  1  0
 34 36  1  0
 36 37  2  0
 10  5  1  0
 37 11  1  0
 30 18  1  0
 37 31  1  0
 28 23  1  0
  4 38  1  0
  4 39  1  0
  6 40  1  0
  7 41  1  0
  8 42  1  0
  9 43  1  0
 10 44  1  0
 17 45  1  0
 17 46  1  0
 19 47  1  0
 20 48  1  0
 24 49  1  0
 25 50  1  0
 26 51  1  0
 27 52  1  0
 28 53  1  0
 29 54  1  0
 30 55  1  0
 32 56  1  0
 33 57  1  0
 35 58  1  0
 36 59  1  0
M  CHG  2   3  -1  15  -1
M  END
>  <UniqueID>  (20) 
19

>  <SMILES>  (20) 
O=C([N-]Cc1ccccc1)c1c(C(=O)[O-])n(Cc2ccc(Oc3ccccc3)cc2)c2ccc(O)cc12

>  <Energy>  (20) 
118.88541156747601

>  <Genealogy>  (20) 
O=C([N-]Cc1ccccc1)c1c(C(=O)[O-])n(Cc2ccc(Oc3ccccc3)cc2)c2ccc(O)cc12 (protonated)
O=C([N-]Cc1ccccc1)c1c(C(=O)[O-])n(Cc2ccc(Oc3ccccc3)cc2)c2ccc(O)cc12 (3D coordinates assigned)
O=C([N-]Cc1ccccc1)c1c(C(=O)[O-])n(Cc2ccc(Oc3ccccc3)cc2)c2ccc(O)cc12 (optimized conformer: 118.88541156747601 kcal/mol)

>  <smiles>  (20) 
O=C(NCc1ccccc1)c1c(C(=O)O)n(Cc2ccc(Oc3ccccc3)cc2)c2ccc(O)cc12

>  <score_type>  (20) 
oracle

>  <origin>  (20) 
adg

>  <m_score__min__energy>  (20) 
-12.43

>  <m_primary>  (20) 
energy

$$$$
20:0
     RDKit          3D

 24 25  0  0  0  0  0  0  0  0999 V2000
   55.4620   25.3300   45.9760 C   0  0  0  0  0  0  0  0  0  0  0  0
   55.7790   26.7040   45.9960 O   0  0  0  0  0  0  0  0  0  0  0  0
   57.0480   26.9220   45.4100 C   0  0  0  0  0  0  0  0  0  0  0  0
   57.4480   28.3890   45.5130 C   0  0  0  0  0  0  0  0  0  0  0  0
   58.6990   28.6190   46.1050 C   0  0  0  0  0  0  0  0  0  0  0  0
   59.3810   29.8080   46.3620 C   0  0  0  0  0  0  0  0  0  0  0  0
   60.5120   29.6940   46.9130 O   0  0  0  0  0  0  0  0  0  0  0  0
   58.9250   31.0550   46.0650 N   0  0  0  0  0  0  0  0  0  0  0  0
   59.6250   32.1880   46.3230 C   0  0  0  0  0  0  0  0  0  0  0  0
   58.9150   33.2950   45.9200 C   0  0  0  0  0  0  0  0  0  0  0  0
   59.4250   34.9650   46.0570 Cl  0  0  0  0  0  0  0  0  0  0  0  0
   57.7300   32.8450   45.3930 C   0  0  0  0  0  0  0  0  0  0  0  0
   57.7690   31.4680   45.4970 C   0  0  0  0  0  0  0  0  0  0  0  0
   56.7460   30.7000   45.0720 N   0  0  0  0  0  0  0  0  0  0  0  0
   56.5400   29.3650   45.0530 C   0  0  0  0  0  0  0  0  0  0  0  0
   55.4370   28.9820   44.5780 O   0  0  0  0  0  0  0  0  0  0  0  0
   55.3763   24.9584   47.0078 H   0  0  0  0  0  0  0  0  0  0  0  0
   54.5061   25.1818   45.4523 H   0  0  0  0  0  0  0  0  0  0  0  0
   56.2564   24.7780   45.4523 H   0  0  0  0  0  0  0  0  0  0  0  0
   57.7962   26.3069   45.9314 H   0  0  0  0  0  0  0  0  0  0  0  0
   56.9972   26.6447   44.3467 H   0  0  0  0  0  0  0  0  0  0  0  0
   59.2311   27.7089   46.4191 H   0  0  0  0  0  0  0  0  0  0  0  0
   60.6209   32.2173   46.7892 H   0  0  0  0  0  0  0  0  0  0  0  0
   56.9165   33.4555   44.9740 H   0  0  0  0  0  0  0  0  0  0  0  0
  1  2  1  0
  2  3  1  0
  3  4  1  0
  4  5  2  0
  5  6  1  0
  6  7  2  0
  6  8  1  0
  8  9  1  0
  9 10  2  0
 10 11  1  0
 10 12  1  0
 12 13  2  0
 13 14  1  0
 14 15  1  0
 15 16  2  0
 15  4  1  0
 13  8  1  0
  1 17  1  0
  1 18  1  0
  1 19  1  0
  3 20  1  0
  3 21  1  0
  5 22  1  0
  9 23  1  0
 12 24  1  0
M  CHG  1  14  -1
M  END
>  <UniqueID>  (21) 
20

>  <SMILES>  (21) 
COCc1cc(=O)n2cc(Cl)cc2[n-]c1=O

>  <Energy>  (21) 
76.31424277806907

>  <Genealogy>  (21) 
COCc1cc(=O)n2cc(Cl)cc2[n-]c1=O (protonated)
COCc1cc(=O)n2cc(Cl)cc2[n-]c1=O (3D coordinates assigned)
COCc1cc(=O)n2cc(Cl)cc2[n-]c1=O (optimized conformer: 76.31424277806907 kcal/mol)

>  <smiles>  (21) 
COCc1cc(=O)n2cc(Cl)cc2[nH]c1=O

>  <score_type>  (21) 
oracle

>  <origin>  (21) 
adg

>  <m_score__min__energy>  (21) 
-7.6699999999999999

>  <m_primary>  (21) 
energy

$$$$
21:0
     RDKit          3D

 33 34  0  0  0  0  0  0  0  0999 V2000
   55.1757   25.1427   46.4542 H   0  0  0  0  0  0  0  0  0  0  0  0
   55.9240   25.7330   45.9050 C   0  0  0  0  0  0  0  0  0  0  0  0
   55.9190   27.0870   45.9930 N   0  0  0  0  0  0  0  0  0  0  0  0
   56.8150   27.8740   45.3370 C   0  0  0  0  0  0  0  0  0  0  0  0
   56.7050   29.1660   45.4900 N   0  0  0  0  0  0  0  0  0  0  0  0
   56.5090   30.1730   44.4900 C   0  0  0  0  0  0  0  0  0  0  0  0
   55.4410   30.8420   44.4930 O   0  0  0  0  0  0  0  0  0  0  0  0
   57.4650   30.3460   43.4350 N   0  0  0  0  0  0  0  0  0  0  0  0
   58.2810   29.6960   43.3750 H   0  0  0  0  0  0  0  0  0  0  0  0
   57.3420   31.4160   42.4550 C   0  0  0  0  0  0  0  0  0  0  0  0
   57.2313   32.3788   42.9753 H   0  0  0  0  0  0  0  0  0  0  0  0
   58.2432   31.4413   41.8247 H   0  0  0  0  0  0  0  0  0  0  0  0
   56.4586   31.2362   41.8247 H   0  0  0  0  0  0  0  0  0  0  0  0
   57.8380   27.2560   44.5620 C   0  0  0  0  0  0  0  0  0  0  0  0
   58.8460   28.0320   43.9630 O   0  0  0  0  0  0  0  0  0  0  0  0
   60.0790   28.4160   44.5700 C   0  0  0  0  0  0  0  0  0  0  0  0
   60.8495   27.6703   44.3246 H   0  0  0  0  0  0  0  0  0  0  0  0
   60.3680   29.4055   44.1862 H   0  0  0  0  0  0  0  0  0  0  0  0
   59.9340   28.5020   46.0660 C   0  0  0  0  0  0  0  0  0  0  0  0
   60.0880   27.3500   46.8540 C   0  0  0  0  0  0  0  0  0  0  0  0
   60.3211   26.3867   46.3768 H   0  0  0  0  0  0  0  0  0  0  0  0
   59.9460   27.4230   48.2440 C   0  0  0  0  0  0  0  0  0  0  0  0
   60.0755   26.5194   48.8578 H   0  0  0  0  0  0  0  0  0  0  0  0
   59.6400   28.6420   48.8530 C   0  0  0  0  0  0  0  0  0  0  0  0
   59.5312   28.6985   49.9461 H   0  0  0  0  0  0  0  0  0  0  0  0
   59.4720   29.7900   48.0740 C   0  0  0  0  0  0  0  0  0  0  0  0
   59.2277   30.7488   48.5547 H   0  0  0  0  0  0  0  0  0  0  0  0
   59.6140   29.7220   46.6840 C   0  0  0  0  0  0  0  0  0  0  0  0
   59.4747   30.6263   46.0734 H   0  0  0  0  0  0  0  0  0  0  0  0
   57.8320   25.8520   44.4490 C   0  0  0  0  0  0  0  0  0  0  0  0
   58.5882   25.3518   43.8262 H   0  0  0  0  0  0  0  0  0  0  0  0
   56.8770   25.0920   45.1190 C   0  0  0  0  0  0  0  0  0  0  0  0
   56.8757   23.9958   45.0280 H   0  0  0  0  0  0  0  0  0  0  0  0
  1  2  1  0
  2  3  1  0
  3  4  1  0
  4  5  2  0
  5  6  1  0
  6  7  2  0
  6  8  1  0
  8  9  1  0
  8 10  1  0
 10 11  1  0
 10 12  1  0
 10 13  1  0
  4 14  1  0
 14 15  1  0
 15 16  1  0
 16 17  1  0
 16 18  1  0
 16 19  1  0
 19 20  2  0
 20 21  1  0
 20 22  1  0
 22 23  1  0
 22 24  2  0
 24 25  1  0
 24 26  1  0
 26 27  1  0
 26 28  2  0
 28 29  1  0
 14 30  2  0
 30 31  1  0
 30 32  1  0
 32 33  1  0
 32  2  2  0
 28 19  1  0
M  CHG  1   3  -1
M  END
>  <UniqueID>  (22) 
21

>  <SMILES>  (22) 
CNC(=O)/N=c1/[n-]cccc1OCc1ccccc1

>  <Energy>  (22) 
42.14421708975496

>  <Genealogy>  (22) 
CNC(=O)N=c1[n-]cccc1OCc1ccccc1 (protonated)
CNC(=O)/N=c1/[n-]cccc1OCc1ccccc1 (cis-trans isomerization)
CNC(=O)/N=c1/[n-]cccc1OCc1ccccc1 (3D coordinates assigned)
CNC(=O)/N=c1/[n-]cccc1OCc1ccccc1 (optimized conformer: 42.14421708975496 kcal/mol)

>  <smiles>  (22) 
CNC(=O)N=c1[nH]cccc1OCc1ccccc1

>  <score_type>  (22) 
oracle

>  <origin>  (22) 
adg

>  <m_score__min__energy>  (22) 
-8.3300000000000001

>  <m_primary>  (22) 
energy

$$$$
22:0
     RDKit          3D

 55 58  0  0  0  0  0  0  0  0999 V2000
   58.4664   32.4895   41.3388 H   0  0  0  0  0  0  0  0  0  0  0  0
   58.0080   32.2210   42.3020 C   0  0  0  0  0  0  0  0  0  0  0  0
   58.3250   32.9220   43.4230 N   0  0  0  0  0  0  0  0  0  0  0  0
   57.7780   32.6200   44.6310 C   0  0  0  0  0  0  0  0  0  0  0  0
   58.0542   33.2052   45.5205 H   0  0  0  0  0  0  0  0  0  0  0  0
   56.8660   31.5680   44.7440 C   0  0  0  0  0  0  0  0  0  0  0  0
   56.4186   31.3249   45.7190 H   0  0  0  0  0  0  0  0  0  0  0  0
   56.5250   30.8240   43.6050 C   0  0  0  0  0  0  0  0  0  0  0  0
   55.5320   29.6980   43.6900 C   0  0  0  0  0  0  0  0  0  0  0  0
   55.7615   28.9518   42.9150 H   0  0  0  0  0  0  0  0  0  0  0  0
   54.5196   30.0997   43.5363 H   0  0  0  0  0  0  0  0  0  0  0  0
   55.5990   29.0660   45.0020 N   0  0  0  0  0  0  0  0  0  0  0  0
   56.2660   27.8250   45.2510 C   0  0  0  0  0  0  0  0  0  0  0  0
   57.3790   27.5830   44.7130 O   0  0  0  0  0  0  0  0  0  0  0  0
   55.6540   26.8200   46.0660 N   0  0  0  0  0  0  0  0  0  0  0  0
   55.8070   25.4000   45.9060 C   0  0  0  0  0  0  0  0  0  0  0  0
   54.7040   24.5890   45.5800 C   0  0  0  0  0  0  0  0  0  0  0  0
   53.7210   25.0498   45.4027 H   0  0  0  0  0  0  0  0  0  0  0  0
   54.8480   23.2050   45.4800 C   0  0  0  0  0  0  0  0  0  0  0  0
   53.9821   22.5811   45.2134 H   0  0  0  0  0  0  0  0  0  0  0  0
   56.0860   22.6110   45.7170 C   0  0  0  0  0  0  0  0  0  0  0  0
   56.1958   21.5200   45.6299 H   0  0  0  0  0  0  0  0  0  0  0  0
   57.1890   23.3960   46.0650 C   0  0  0  0  0  0  0  0  0  0  0  0
   58.4150   22.7790   46.2880 O   0  0  0  0  0  0  0  0  0  0  0  0
   57.0580   24.7970   46.1710 C   0  0  0  0  0  0  0  0  0  0  0  0
   58.2310   25.6230   46.5460 C   0  0  0  0  0  0  0  0  0  0  0  0
   59.5010   25.3290   46.0260 C   0  0  0  0  0  0  0  0  0  0  0  0
   59.6278   24.4810   45.3369 H   0  0  0  0  0  0  0  0  0  0  0  0
   60.6050   26.1090   46.3800 C   0  0  0  0  0  0  0  0  0  0  0  0
   61.5972   25.8759   45.9662 H   0  0  0  0  0  0  0  0  0  0  0  0
   60.4510   27.1850   47.2590 C   0  0  0  0  0  0  0  0  0  0  0  0
   61.3237   27.7950   47.5353 H   0  0  0  0  0  0  0  0  0  0  0  0
   59.1930   27.4900   47.7890 C   0  0  0  0  0  0  0  0  0  0  0  0
   59.0760   28.5710   48.6670 O   0  0  0  0  0  0  0  0  0  0  0  0
   58.7900   29.8440   48.2200 N   0  0  0  0  0  0  0  0  0  0  0  0
   59.3210   30.3470   47.1450 C   0  0  0  0  0  0  0  0  0  0  0  0
   60.1850   31.5520   47.2680 C   0  0  0  0  0  0  0  0  0  0  0  0
   59.6320   32.8480   47.2730 C   0  0  0  0  0  0  0  0  0  0  0  0
   58.5427   32.9764   47.1896 H   0  0  0  0  0  0  0  0  0  0  0  0
   60.4560   33.9720   47.3830 C   0  0  0  0  0  0  0  0  0  0  0  0
   59.9120   35.2150   47.3780 F   0  0  0  0  0  0  0  0  0  0  0  0
   61.8410   33.8200   47.4870 C   0  0  0  0  0  0  0  0  0  0  0  0
   62.4871   34.7058   47.5759 H   0  0  0  0  0  0  0  0  0  0  0  0
   62.4040   32.5420   47.4780 C   0  0  0  0  0  0  0  0  0  0  0  0
   63.7490   32.3950   47.5760 F   0  0  0  0  0  0  0  0  0  0  0  0
   61.5850   31.4150   47.3670 C   0  0  0  0  0  0  0  0  0  0  0  0
   62.0365   30.4120   47.3568 H   0  0  0  0  0  0  0  0  0  0  0  0
   59.1210   29.6750   45.8090 C   0  0  0  0  0  0  0  0  0  0  0  0
   58.8104   28.6315   45.9663 H   0  0  0  0  0  0  0  0  0  0  0  0
   58.3425   30.2080   45.2434 H   0  0  0  0  0  0  0  0  0  0  0  0
   60.0642   29.6956   45.2434 H   0  0  0  0  0  0  0  0  0  0  0  0
   58.0810   26.7050   47.4300 C   0  0  0  0  0  0  0  0  0  0  0  0
   57.0892   26.9399   47.8437 H   0  0  0  0  0  0  0  0  0  0  0  0
   57.1010   31.1600   42.3710 C   0  0  0  0  0  0  0  0  0  0  0  0
   56.8409   30.5930   41.4650 H   0  0  0  0  0  0  0  0  0  0  0  0
  1  2  1  0
  2  3  2  0
  3  4  1  0
  4  5  1  0
  4  6  2  0
  6  7  1  0
  6  8  1  0
  8  9  1  0
  9 10  1  0
  9 11  1  0
  9 12  1  0
 12 13  1  0
 13 14  2  0
 13 15  1  0
 15 16  1  0
 16 17  2  0
 17 18  1  0
 17 19  1  0
 19 20  1  0
 19 21  2  0
 21 22  1  0
 21 23  1  0
 23 24  1  0
 23 25  2  0
 25 26  1  0
 26 27  2  0
 27 28  1  0
 27 29  1  0
 29 30  1  0
 29 31  2  0
 31 32  1  0
 31 33  1  0
 33 34  1  0
 34 35  1  0
 35 36  2  0
 36 37  1  0
 37 38  2  0
 38 39  1  0
 38 40  1  0
 40 41  1  0
 40 42  2  0
 42 43  1  0
 42 44  1  0
 44 45  1  0
 44 46  2  0
 46 47  1  0
 36 48  1  0
 48 49  1  0
 48 50  1  0
 48 51  1  0
 33 52  2  0
 52 53  1  0
  8 54  2  0
 54 55  1  0
 54  2  1  0
 25 16  1  0
 52 26  1  0
 46 37  1  0
M  CHG  3  12  -1  15  -1  24  -1
M  END
>  <UniqueID>  (23) 
22

>  <SMILES>  (23) 
C/C(=N\Oc1cccc(-c2c([O-])cccc2[N-]C(=O)[N-]Cc2ccncc2)c1)c1cc(F)cc(F)c1

>  <Energy>  (23) 
70.12892501487231

>  <Genealogy>  (23) 
CC(=NOc1cccc(-c2c([O-])cccc2[N-]C(=O)[N-]Cc2ccncc2)c1)c1cc(F)cc(F)c1 (protonated)
C/C(=N\Oc1cccc(-c2c([O-])cccc2[N-]C(=O)[N-]Cc2ccncc2)c1)c1cc(F)cc(F)c1 (cis-trans isomerization)
C/C(=N\Oc1cccc(-c2c([O-])cccc2[N-]C(=O)[N-]Cc2ccncc2)c1)c1cc(F)cc(F)c1 (3D coordinates assigned)
C/C(=N\Oc1cccc(-c2c([O-])cccc2[N-]C(=O)[N-]Cc2ccncc2)c1)c1cc(F)cc(F)c1 (optimized conformer: 70.12892501487231 kcal/mol)

>  <smiles>  (23) 
CC(=NOc1cccc(-c2c(O)cccc2NC(=O)NCc2ccncc2)c1)c1cc(F)cc(F)c1

>  <score_type>  (23) 
oracle

>  <origin>  (23) 
adg

>  <m_score__min__energy>  (23) 
-14.210000000000001

>  <m_primary>  (23) 
energy

$$$$
23:0
     RDKit          3D

 33 35  0  0  0  0  0  0  0  0999 V2000
   59.2680   35.5190   44.8800 O   0  0  0  0  0  0  0  0  0  0  0  0
   58.7600   34.5380   45.4870 C   0  0  0  0  0  0  0  0  0  0  0  0
   57.3920   34.0670   45.0980 C   0  0  0  0  0  0  0  0  0  0  0  0
   57.5090   32.9480   44.1670 N   0  0  0  0  0  0  0  0  0  0  0  0
   57.6030   31.7050   44.5310 C   0  0  0  0  0  0  0  0  0  0  0  0
   58.7940   31.1750   44.9070 N   0  0  0  0  0  0  0  0  0  0  0  0
   58.8810   29.8750   45.2860 C   0  0  0  0  0  0  0  0  0  0  0  0
   60.0000   29.4150   45.6440 O   0  0  0  0  0  0  0  0  0  0  0  0
   57.7640   29.0830   45.2880 N   0  0  0  0  0  0  0  0  0  0  0  0
   57.8480   27.6990   45.6870 C   0  0  0  0  0  0  0  0  0  0  0  0
   57.7630   26.6760   44.7270 C   0  0  0  0  0  0  0  0  0  0  0  0
   57.8450   25.3360   45.1170 C   0  0  0  0  0  0  0  0  0  0  0  0
   58.0120   25.0060   46.4650 C   0  0  0  0  0  0  0  0  0  0  0  0
   58.0940   23.6740   46.8500 O   0  0  0  0  0  0  0  0  0  0  0  0
   58.0980   26.0190   47.4260 C   0  0  0  0  0  0  0  0  0  0  0  0
   58.0170   27.3610   47.0410 C   0  0  0  0  0  0  0  0  0  0  0  0
   56.5660   29.6250   44.9050 C   0  0  0  0  0  0  0  0  0  0  0  0
   55.5180   28.9230   44.8810 O   0  0  0  0  0  0  0  0  0  0  0  0
   56.4950   30.9260   44.5320 N   0  0  0  0  0  0  0  0  0  0  0  0
   59.5340   33.8630   46.5440 C   0  0  0  0  0  0  0  0  0  0  0  0
   59.0220   33.1700   47.6380 C   0  0  0  0  0  0  0  0  0  0  0  0
   60.0150   32.6320   48.4670 C   0  0  0  0  0  0  0  0  0  0  0  0
   61.3070   32.8960   48.0340 C   0  0  0  0  0  0  0  0  0  0  0  0
   61.2150   33.7980   46.6180 S   0  0  0  0  0  0  0  0  0  0  0  0
   56.8472   33.7412   45.9963 H   0  0  0  0  0  0  0  0  0  0  0  0
   56.8443   34.8899   44.6154 H   0  0  0  0  0  0  0  0  0  0  0  0
   57.6315   26.9306   43.6650 H   0  0  0  0  0  0  0  0  0  0  0  0
   57.7779   24.5395   44.3613 H   0  0  0  0  0  0  0  0  0  0  0  0
   58.2296   25.7594   48.4868 H   0  0  0  0  0  0  0  0  0  0  0  0
   58.0857   28.1544   47.7999 H   0  0  0  0  0  0  0  0  0  0  0  0
   57.9452   33.0563   47.8319 H   0  0  0  0  0  0  0  0  0  0  0  0
   59.7916   32.0544   49.3761 H   0  0  0  0  0  0  0  0  0  0  0  0
   62.2324   32.5709   48.5318 H   0  0  0  0  0  0  0  0  0  0  0  0
  1  2  2  0
  2  3  1  0
  3  4  1  0
  4  5  2  3
  5  6  1  0
  6  7  1  0
  7  8  2  0
  7  9  1  0
  9 10  1  0
 10 11  2  0
 11 12  1  0
 12 13  2  0
 13 14  1  0
 13 15  1  0
 15 16  2  0
  9 17  1  0
 17 18  2  0
 17 19  1  0
  2 20  1  0
 20 21  2  0
 21 22  1  0
 22 23  2  0
 23 24  1  0
 19  5  1  0
 24 20  1  0
 16 10  1  0
  3 25  1  0
  3 26  1  0
 11 27  1  0
 12 28  1  0
 15 29  1  0
 16 30  1  0
 21 31  1  0
 22 32  1  0
 23 33  1  0
M  CHG  3   6  -1  14  -1  19  -1
M  END
>  <UniqueID>  (24) 
23

>  <SMILES>  (24) 
O=C(CN=c1[n-]c(=O)n(-c2ccc([O-])cc2)c(=O)[n-]1)c1cccs1

>  <Energy>  (24) 
69.9094932705891

>  <Genealogy>  (24) 
O=C(CN=c1[n-]c(=O)n(-c2ccc([O-])cc2)c(=O)[n-]1)c1cccs1 (protonated)
O=C(CN=c1[n-]c(=O)n(-c2ccc([O-])cc2)c(=O)[n-]1)c1cccs1 (3D coordinates assigned)
O=C(CN=c1[n-]c(=O)n(-c2ccc([O-])cc2)c(=O)[n-]1)c1cccs1 (optimized conformer: 69.9094932705891 kcal/mol)

>  <smiles>  (24) 
O=C(CN=c1[nH]c(=O)n(-c2ccc(O)cc2)c(=O)[nH]1)c1cccs1

>  <score_type>  (24) 
oracle

>  <origin>  (24) 
adg

>  <m_score__min__energy>  (24) 
-11.4

>  <m_primary>  (24) 
energy

$$$$
24:0
     RDKit          3D

 42 46  0  0  0  0  0  0  0  0999 V2000
   60.0240   27.9850   47.1830 H   0  0  0  0  0  0  0  0  0  0  0  0
   60.1870   28.6540   47.9270 O   0  0  0  0  0  0  0  0  0  0  0  0
   59.8770   30.0050   47.7850 C   0  0  0  0  0  0  0  0  0  0  0  0
   59.9600   30.8410   48.9010 C   0  0  0  0  0  0  0  0  0  0  0  0
   60.2556   30.4222   49.8743 H   0  0  0  0  0  0  0  0  0  0  0  0
   59.6730   32.1960   48.7940 C   0  0  0  0  0  0  0  0  0  0  0  0
   59.7420   32.8417   49.6818 H   0  0  0  0  0  0  0  0  0  0  0  0
   59.2970   32.7430   47.5640 C   0  0  0  0  0  0  0  0  0  0  0  0
   59.0170   34.1170   47.4810 C   0  0  0  0  0  0  0  0  0  0  0  0
   59.0962   34.7459   48.3800 H   0  0  0  0  0  0  0  0  0  0  0  0
   58.6400   34.6880   46.2690 C   0  0  0  0  0  0  0  0  0  0  0  0
   58.4250   35.7653   46.2119 H   0  0  0  0  0  0  0  0  0  0  0  0
   58.5350   33.8960   45.1290 C   0  0  0  0  0  0  0  0  0  0  0  0
   58.2336   34.3506   44.1738 H   0  0  0  0  0  0  0  0  0  0  0  0
   58.8100   32.5270   45.1900 C   0  0  0  0  0  0  0  0  0  0  0  0
   58.7240   31.9151   44.2799 H   0  0  0  0  0  0  0  0  0  0  0  0
   59.1980   31.9170   46.4080 C   0  0  0  0  0  0  0  0  0  0  0  0
   59.4930   30.5210   46.5240 C   0  0  0  0  0  0  0  0  0  0  0  0
   59.4190   29.5410   45.3570 C   0  0  0  0  0  0  0  0  0  0  0  0
   60.3211   28.9116   45.3606 H   0  0  0  0  0  0  0  0  0  0  0  0
   59.3497   30.1190   44.4237 H   0  0  0  0  0  0  0  0  0  0  0  0
   58.2240   28.6710   45.4560 N   0  0  0  0  0  0  0  0  0  0  0  0
   56.9790   29.1870   45.1820 C   0  0  0  0  0  0  0  0  0  0  0  0
   56.8420   30.3900   44.8330 O   0  0  0  0  0  0  0  0  0  0  0  0
   55.8740   28.4090   45.2860 N   0  0  0  0  0  0  0  0  0  0  0  0
   55.9540   27.1030   45.6320 C   0  0  0  0  0  0  0  0  0  0  0  0
   54.7880   26.3510   45.7270 O   0  0  0  0  0  0  0  0  0  0  0  0
   57.2000   26.5220   45.8710 C   0  0  0  0  0  0  0  0  0  0  0  0
   57.2810   25.0920   46.2500 C   0  0  0  0  0  0  0  0  0  0  0  0
   56.7401   24.7610   47.1488 H   0  0  0  0  0  0  0  0  0  0  0  0
   57.9760   24.1810   45.5590 C   0  0  0  0  0  0  0  0  0  0  0  0
   59.2230   23.6300   45.9020 C   0  0  0  0  0  0  0  0  0  0  0  0
   59.8617   23.9847   46.7243 H   0  0  0  0  0  0  0  0  0  0  0  0
   59.5280   22.5940   45.0710 N   0  0  0  0  0  0  0  0  0  0  0  0
   58.5480   22.5730   44.1880 N   0  0  0  0  0  0  0  0  0  0  0  0
   58.0640   21.5590   43.5080 N   0  0  0  0  0  0  0  0  0  0  0  0
   56.7710   21.9370   43.3180 C   0  0  0  0  0  0  0  0  0  0  0  0
   55.9480   21.2410   42.6680 O   0  0  0  0  0  0  0  0  0  0  0  0
   56.4190   23.1020   43.9430 N   0  0  0  0  0  0  0  0  0  0  0  0
   57.6150   23.4430   44.4540 C   0  0  0  0  0  0  0  0  0  0  0  0
   58.3410   27.3430   45.7950 C   0  0  0  0  0  0  0  0  0  0  0  0
   59.4740   26.8490   46.0580 O   0  0  0  0  0  0  0  0  0  0  0  0
  1  2  1  0
  2  3  1  0
  3  4  2  0
  4  5  1  0
  4  6  1  0
  6  7  1  0
  6  8  2  0
  8  9  1  0
  9 10  1  0
  9 11  2  0
 11 12  1  0
 11 13  1  0
 13 14  1  0
 13 15  2  0
 15 16  1  0
 15 17  1  0
 17 18  2  0
 18 19  1  0
 19 20  1  0
 19 21  1  0
 19 22  1  0
 22 23  1  0
 23 24  2  0
 23 25  1  0
 25 26  1  0
 26 27  1  0
 26 28  2  0
 28 29  1  0
 29 30  1  0
 29 31  2  0
 31 32  1  0
 32 33  1  0
 32 34  2  0
 34 35  1  0
 35 36  1  0
 36 37  1  0
 37 38  2  0
 37 39  1  0
 39 40  2  0
 28 41  1  0
 41 42  2  0
 18  3  1  0
 41 22  1  0
 17  8  1  0
 40 31  1  0
 40 35  1  0
M  CHG  3  25  -1  27  -1  36  -1
M  END
>  <UniqueID>  (25) 
24

>  <SMILES>  (25) 
O=c1nc2/c(=C\c3c([O-])[n-]c(=O)n(Cc4c(O)ccc5ccccc45)c3=O)cnn2[n-]1

>  <Energy>  (25) 
165.80149793106875

>  <Genealogy>  (25) 
O=c1nc2c(=Cc3c([O-])[n-]c(=O)n(Cc4c(O)ccc5ccccc45)c3=O)cnn2[n-]1 (protonated)
O=c1nc2/c(=C\c3c([O-])[n-]c(=O)n(Cc4c(O)ccc5ccccc45)c3=O)cnn2[n-]1 (cis-trans isomerization)
O=c1nc2/c(=C\c3c([O-])[n-]c(=O)n(Cc4c(O)ccc5ccccc45)c3=O)cnn2[n-]1 (3D coordinates assigned)
O=c1nc2/c(=C\c3c([O-])[n-]c(=O)n(Cc4c(O)ccc5ccccc45)c3=O)cnn2[n-]1 (optimized conformer: 165.80149793106875 kcal/mol)

>  <smiles>  (25) 
O=c1nc2c(=Cc3c(O)[nH]c(=O)n(Cc4c(O)ccc5ccccc45)c3=O)cnn2[nH]1

>  <score_type>  (25) 
oracle

>  <origin>  (25) 
adg

>  <m_score__min__energy>  (25) 
-15.279999999999999

>  <m_primary>  (25) 
energy

$$$$
25:0
     RDKit          3D

 45 47  0  0  0  0  0  0  0  0999 V2000
   55.7631   32.6741   52.2660 H   0  0  0  0  0  0  0  0  0  0  0  0
   56.5080   31.9090   52.0020 C   0  0  0  0  0  0  0  0  0  0  0  0
   56.1540   30.5620   51.9810 C   0  0  0  0  0  0  0  0  0  0  0  0
   54.8480   30.1860   52.3190 O   0  0  0  0  0  0  0  0  0  0  0  0
   53.6900   30.5620   51.6220 C   0  0  0  0  0  0  0  0  0  0  0  0
   53.2650   29.7670   50.5510 C   0  0  0  0  0  0  0  0  0  0  0  0
   53.8430   28.8740   50.2707 H   0  0  0  0  0  0  0  0  0  0  0  0
   52.1110   30.1000   49.8350 C   0  0  0  0  0  0  0  0  0  0  0  0
   51.7908   29.4759   48.9876 H   0  0  0  0  0  0  0  0  0  0  0  0
   51.3640   31.2250   50.1950 C   0  0  0  0  0  0  0  0  0  0  0  0
   50.4601   31.4901   49.6270 H   0  0  0  0  0  0  0  0  0  0  0  0
   51.7660   32.0130   51.2770 C   0  0  0  0  0  0  0  0  0  0  0  0
   51.0130   33.1220   51.6460 O   0  0  0  0  0  0  0  0  0  0  0  0
   52.9220   31.6830   51.9940 C   0  0  0  0  0  0  0  0  0  0  0  0
   53.2316   32.3005   52.8501 H   0  0  0  0  0  0  0  0  0  0  0  0
   57.1010   29.6330   51.6740 N   0  0  0  0  0  0  0  0  0  0  0  0
   58.3520   29.9840   51.3690 N   0  0  0  0  0  0  0  0  0  0  0  0
   58.7440   31.2870   51.3450 C   0  0  0  0  0  0  0  0  0  0  0  0
   60.1520   31.6140   51.0250 C   0  0  0  0  0  0  0  0  0  0  0  0
   61.0720   30.5420   50.7900 N   0  0  0  0  0  0  0  0  0  0  0  0
   60.7670   29.5480   50.8800 H   0  0  0  0  0  0  0  0  0  0  0  0
   62.0680   30.7340   50.5410 H   0  0  0  0  0  0  0  0  0  0  0  0
   60.5650   32.8460   50.9260 N   0  0  0  0  0  0  0  0  0  0  0  0
   61.4070   33.1510   51.4660 H   0  0  0  0  0  0  0  0  0  0  0  0
   59.9540   33.7490   50.0780 O   0  0  0  0  0  0  0  0  0  0  0  0
   60.4340   33.9690   48.7580 C   0  0  0  0  0  0  0  0  0  0  0  0
   61.4275   33.5096   48.6495 H   0  0  0  0  0  0  0  0  0  0  0  0
   60.5035   35.0510   48.5727 H   0  0  0  0  0  0  0  0  0  0  0  0
   59.4890   33.3550   47.7630 C   0  0  0  0  0  0  0  0  0  0  0  0
   58.7250   34.1760   46.9220 C   0  0  0  0  0  0  0  0  0  0  0  0
   58.7983   35.2698   47.0130 H   0  0  0  0  0  0  0  0  0  0  0  0
   57.8710   33.6150   45.9690 C   0  0  0  0  0  0  0  0  0  0  0  0
   57.2715   34.2683   45.3180 H   0  0  0  0  0  0  0  0  0  0  0  0
   57.7750   32.2150   45.8390 C   0  0  0  0  0  0  0  0  0  0  0  0
   56.9340   31.6030   44.9000 O   0  0  0  0  0  0  0  0  0  0  0  0
   57.3540   31.1530   43.6160 C   0  0  0  0  0  0  0  0  0  0  0  0
   58.1002   30.3535   43.7337 H   0  0  0  0  0  0  0  0  0  0  0  0
   56.4865   30.7661   43.0612 H   0  0  0  0  0  0  0  0  0  0  0  0
   57.7997   31.9918   43.0612 H   0  0  0  0  0  0  0  0  0  0  0  0
   58.5480   31.3980   46.6740 C   0  0  0  0  0  0  0  0  0  0  0  0
   58.4814   30.3041   46.5795 H   0  0  0  0  0  0  0  0  0  0  0  0
   59.4030   31.9600   47.6260 C   0  0  0  0  0  0  0  0  0  0  0  0
   60.0106   31.3075   48.2702 H   0  0  0  0  0  0  0  0  0  0  0  0
   57.8130   32.2790   51.6860 C   0  0  0  0  0  0  0  0  0  0  0  0
   58.1103   33.3379   51.7037 H   0  0  0  0  0  0  0  0  0  0  0  0
  1  2  1  0
  2  3  2  0
  3  4  1  0
  4  5  1  0
  5  6  2  0
  6  7  1  0
  6  8  1  0
  8  9  1  0
  8 10  2  0
 10 11  1  0
 10 12  1  0
 12 13  1  0
 12 14  2  0
 14 15  1  0
  3 16  1  0
 16 17  2  0
 17 18  1  0
 18 19  1  0
 19 20  1  0
 20 21  1  0
 20 22  1  0
 19 23  2  0
 23 24  1  0
 23 25  1  0
 25 26  1  0
 26 27  1  0
 26 28  1  0
 26 29  1  0
 29 30  2  0
 30 31  1  0
 30 32  1  0
 32 33  1  0
 32 34  2  0
 34 35  1  0
 35 36  1  0
 36 37  1  0
 36 38  1  0
 36 39  1  0
 34 40  1  0
 40 41  1  0
 40 42  2  0
 42 43  1  0
 18 44  2  0
 44 45  1  0
 44  2  1  0
 14  5  1  0
 42 29  1  0
M  CHG  2  13  -1  23   1
M  END
>  <UniqueID>  (26) 
25

>  <SMILES>  (26) 
COc1ccc(CO/[NH+]=C(/N)c2ccc(Oc3cccc([O-])c3)nn2)cc1

>  <Energy>  (26) 
52.52611457048966

>  <Genealogy>  (26) 
COc1ccc(CO[NH+]=C(N)c2ccc(Oc3cccc([O-])c3)nn2)cc1 (protonated)
COc1ccc(CO/[NH+]=C(/N)c2ccc(Oc3cccc([O-])c3)nn2)cc1 (cis-trans isomerization)
COc1ccc(CO/[NH+]=C(/N)c2ccc(Oc3cccc([O-])c3)nn2)cc1 (3D coordinates assigned)
COc1ccc(CO/[NH+]=C(/N)c2ccc(Oc3cccc([O-])c3)nn2)cc1 (optimized conformer: 52.52611457048966 kcal/mol)

>  <smiles>  (26) 
COc1ccc(CON=C(N)c2ccc(Oc3cccc(O)c3)nn2)cc1

>  <score_type>  (26) 
oracle

>  <origin>  (26) 
adg

>  <m_score__min__energy>  (26) 
-10.98

>  <m_primary>  (26) 
energy

$$$$
26:0
     RDKit          3D

 36 38  0  0  0  0  0  0  0  0999 V2000
   57.0380   28.2500   43.6820 O   0  0  0  0  0  0  0  0  0  0  0  0
   56.6060   28.3750   44.8570 C   0  0  0  0  0  0  0  0  0  0  0  0
   55.7510   29.4810   45.1720 N   0  0  0  0  0  0  0  0  0  0  0  0
   55.5150   30.6170   44.2860 C   0  0  0  0  0  0  0  0  0  0  0  0
   56.8420   31.1390   43.7350 C   0  0  0  0  0  0  0  0  0  0  0  0
   57.5220   32.0370   44.7360 C   0  0  0  0  0  0  0  0  0  0  0  0
   58.0730   31.4960   45.9090 C   0  0  0  0  0  0  0  0  0  0  0  0
   58.6520   32.3330   46.8670 C   0  0  0  0  0  0  0  0  0  0  0  0
   58.6750   33.7170   46.6660 C   0  0  0  0  0  0  0  0  0  0  0  0
   59.2300   34.5270   47.6010 F   0  0  0  0  0  0  0  0  0  0  0  0
   58.1200   34.2640   45.5070 C   0  0  0  0  0  0  0  0  0  0  0  0
   57.5410   33.4290   44.5450 C   0  0  0  0  0  0  0  0  0  0  0  0
   56.9800   27.3720   45.8770 C   0  0  0  0  0  0  0  0  0  0  0  0
   56.0550   26.3730   46.2220 C   0  0  0  0  0  0  0  0  0  0  0  0
   54.7990   26.3340   45.6230 O   0  0  0  0  0  0  0  0  0  0  0  0
   56.4040   25.4010   47.1670 C   0  0  0  0  0  0  0  0  0  0  0  0
   55.5850   24.4960   47.4790 O   0  0  0  0  0  0  0  0  0  0  0  0
   57.6290   25.4250   47.7500 N   0  0  0  0  0  0  0  0  0  0  0  0
   58.5490   26.3810   47.4550 C   0  0  0  0  0  0  0  0  0  0  0  0
   59.7940   26.3630   48.0920 C   0  0  0  0  0  0  0  0  0  0  0  0
   60.7420   27.3510   47.8120 C   0  0  0  0  0  0  0  0  0  0  0  0
   60.4470   28.3650   46.8980 C   0  0  0  0  0  0  0  0  0  0  0  0
   59.2080   28.3930   46.2540 C   0  0  0  0  0  0  0  0  0  0  0  0
   58.2450   27.3940   46.5120 C   0  0  0  0  0  0  0  0  0  0  0  0
   54.8740   30.2995   43.4504 H   0  0  0  0  0  0  0  0  0  0  0  0
   55.0207   31.4192   44.8535 H   0  0  0  0  0  0  0  0  0  0  0  0
   57.4996   30.2862   43.5107 H   0  0  0  0  0  0  0  0  0  0  0  0
   56.6406   31.7184   42.8219 H   0  0  0  0  0  0  0  0  0  0  0  0
   58.0488   30.4088   46.0746 H   0  0  0  0  0  0  0  0  0  0  0  0
   59.0900   31.9029   47.7798 H   0  0  0  0  0  0  0  0  0  0  0  0
   58.1381   35.3526   45.3502 H   0  0  0  0  0  0  0  0  0  0  0  0
   57.0992   33.8637   43.6362 H   0  0  0  0  0  0  0  0  0  0  0  0
   60.0279   25.5685   48.8159 H   0  0  0  0  0  0  0  0  0  0  0  0
   61.7216   27.3300   48.3120 H   0  0  0  0  0  0  0  0  0  0  0  0
   61.1932   29.1445   46.6846 H   0  0  0  0  0  0  0  0  0  0  0  0
   58.9812   29.1992   45.5408 H   0  0  0  0  0  0  0  0  0  0  0  0
  1  2  2  0
  2  3  1  0
  3  4  1  0
  4  5  1  0
  5  6  1  0
  6  7  2  0
  7  8  1  0
  8  9  2  0
  9 10  1  0
  9 11  1  0
 11 12  2  0
  2 13  1  0
 13 14  2  0
 14 15  1  0
 14 16  1  0
 16 17  2  0
 16 18  1  0
 18 19  1  0
 19 20  2  0
 20 21  1  0
 21 22  2  0
 22 23  1  0
 23 24  2  0
 12  6  1  0
 24 13  1  0
 24 19  1  0
  4 25  1  0
  4 26  1  0
  5 27  1  0
  5 28  1  0
  7 29  1  0
  8 30  1  0
 11 31  1  0
 12 32  1  0
 20 33  1  0
 21 34  1  0
 22 35  1  0
 23 36  1  0
M  CHG  3   3  -1  15  -1  18  -1
M  END
>  <UniqueID>  (27) 
26

>  <SMILES>  (27) 
O=C([N-]CCc1ccc(F)cc1)c1c([O-])c(=O)[n-]c2ccccc12

>  <Energy>  (27) 
45.2722368351149

>  <Genealogy>  (27) 
O=C([N-]CCc1ccc(F)cc1)c1c([O-])c(=O)[n-]c2ccccc12 (protonated)
O=C([N-]CCc1ccc(F)cc1)c1c([O-])c(=O)[n-]c2ccccc12 (3D coordinates assigned)
O=C([N-]CCc1ccc(F)cc1)c1c([O-])c(=O)[n-]c2ccccc12 (optimized conformer: 45.2722368351149 kcal/mol)

>  <smiles>  (27) 
O=C(NCCc1ccc(F)cc1)c1c(O)c(=O)[nH]c2ccccc12

>  <score_type>  (27) 
oracle

>  <origin>  (27) 
adg

>  <m_score__min__energy>  (27) 
-14.6

>  <m_primary>  (27) 
energy

$$$$
27:0
     RDKit          3D

 43 45  0  0  0  0  0  0  0  0999 V2000
   54.7430   27.2850   46.3850 H   0  0  0  0  0  0  0  0  0  0  0  0
   54.8510   26.3190   46.0020 N   0  0  0  0  0  0  0  0  0  0  0  0
   56.0150   25.7650   45.8790 C   0  0  0  0  0  0  0  0  0  0  0  0
   56.1250   24.4120   45.9970 N   0  0  0  0  0  0  0  0  0  0  0  0
   57.3200   23.7730   45.9070 C   0  0  0  0  0  0  0  0  0  0  0  0
   57.3651   22.6768   45.9865 H   0  0  0  0  0  0  0  0  0  0  0  0
   58.4880   24.5060   45.7140 C   0  0  0  0  0  0  0  0  0  0  0  0
   59.4609   23.9959   45.6568 H   0  0  0  0  0  0  0  0  0  0  0  0
   58.4120   25.8930   45.5940 C   0  0  0  0  0  0  0  0  0  0  0  0
   59.3324   26.4816   45.4664 H   0  0  0  0  0  0  0  0  0  0  0  0
   57.1690   26.5430   45.6350 C   0  0  0  0  0  0  0  0  0  0  0  0
   57.1180   28.3090   45.4210 S   0  0  0  0  0  0  0  0  0  0  0  0
   55.7160   28.7510   45.1030 O   0  0  0  0  0  0  0  0  0  0  0  0
   57.4960   28.9330   46.7370 O   0  0  0  0  0  0  0  0  0  0  0  0
   58.2120   28.9200   44.1860 N   0  0  1  0  0  0  0  0  0  0  0  0
   57.7600   28.6690   43.2760 H   0  0  0  0  0  0  0  0  0  0  0  0
   58.3320   30.3910   44.2020 C   0  0  0  0  0  0  0  0  0  0  0  0
   57.3331   30.8228   44.3627 H   0  0  0  0  0  0  0  0  0  0  0  0
   58.7603   30.6975   43.2363 H   0  0  0  0  0  0  0  0  0  0  0  0
   59.2540   30.8940   45.2860 C   0  0  0  0  0  0  0  0  0  0  0  0
   59.1300   32.2160   45.7340 C   0  0  0  0  0  0  0  0  0  0  0  0
   58.3768   32.8765   45.2796 H   0  0  0  0  0  0  0  0  0  0  0  0
   59.9590   32.7070   46.7590 C   0  0  0  0  0  0  0  0  0  0  0  0
   59.8370   34.0160   47.2530 O   0  0  0  0  0  0  0  0  0  0  0  0
   59.6330   34.3470   48.6230 C   0  0  0  0  0  0  0  0  0  0  0  0
   60.1039   33.5829   49.2589 H   0  0  0  0  0  0  0  0  0  0  0  0
   60.0833   35.3281   48.8342 H   0  0  0  0  0  0  0  0  0  0  0  0
   58.5541   34.3857   48.8342 H   0  0  0  0  0  0  0  0  0  0  0  0
   60.9380   31.8740   47.3180 C   0  0  0  0  0  0  0  0  0  0  0  0
   61.7430   32.3880   48.3460 O   0  0  0  0  0  0  0  0  0  0  0  0
   63.0330   32.9600   48.1530 C   0  0  0  0  0  0  0  0  0  0  0  0
   63.4936   33.1642   49.1308 H   0  0  0  0  0  0  0  0  0  0  0  0
   63.6649   32.2577   47.5896 H   0  0  0  0  0  0  0  0  0  0  0  0
   62.9368   33.8998   47.5896 H   0  0  0  0  0  0  0  0  0  0  0  0
   61.0830   30.5570   46.8430 C   0  0  0  0  0  0  0  0  0  0  0  0
   61.8549   29.9045   47.2770 H   0  0  0  0  0  0  0  0  0  0  0  0
   60.2550   30.0670   45.8230 C   0  0  0  0  0  0  0  0  0  0  0  0
   60.3990   28.6300   45.3980 C   0  0  0  0  0  0  0  0  0  0  0  0
   60.1099   27.9865   46.2420 H   0  0  0  0  0  0  0  0  0  0  0  0
   61.4483   28.4832   45.1024 H   0  0  0  0  0  0  0  0  0  0  0  0
   59.5320   28.2610   44.1860 C   0  0  0  0  0  0  0  0  0  0  0  0
   59.3777   27.1719   44.1866 H   0  0  0  0  0  0  0  0  0  0  0  0
   60.0663   28.6054   43.2883 H   0  0  0  0  0  0  0  0  0  0  0  0
  1  2  1  0
  2  3  2  0
  3  4  1  0
  4  5  1  0
  5  6  1  0
  5  7  2  0
  7  8  1  0
  7  9  1  0
  9 10  1  0
  9 11  2  0
 11 12  1  0
 12 13  2  0
 12 14  2  0
 12 15  1  0
 15 16  1  6
 15 17  1  0
 17 18  1  0
 17 19  1  0
 17 20  1  0
 20 21  2  0
 21 22  1  0
 21 23  1  0
 23 24  1  0
 24 25  1  0
 25 26  1  0
 25 27  1  0
 25 28  1  0
 23 29  2  0
 29 30  1  0
 30 31  1  0
 31 32  1  0
 31 33  1  0
 31 34  1  0
 29 35  1  0
 35 36  1  0
 35 37  2  0
 37 38  1  0
 38 39  1  0
 38 40  1  0
 38 41  1  0
 41 42  1  0
 41 43  1  0
 11  3  1  0
 41 15  1  0
 37 20  1  0
M  CHG  2   4  -1  15   1
M  END
>  <UniqueID>  (28) 
27

>  <SMILES>  (28) 
[H]/N=c1\[n-]cccc1S(=O)(=O)[N@@H+]1CCc2cc(OC)c(OC)cc2C1

>  <Energy>  (28) 
49.54693124131473

>  <Genealogy>  (28) 
COc1cc2c(cc1OC)C[NH+](S(=O)(=O)c1ccc[n-]c1=N)CC2 (protonated)
COc1cc2c(cc1OC)C[N@H+](S(=O)(=O)c1ccc[n-]c1=N)CC2 (chirality)
[H]/N=c1\[n-]cccc1S(=O)(=O)[N@@H+]1CCc2cc(OC)c(OC)cc2C1 (cis-trans isomerization)
[H]/N=c1\[n-]cccc1S(=O)(=O)[N@@H+]1CCc2cc(OC)c(OC)cc2C1 (3D coordinates assigned)
[H]/N=c1\[n-]cccc1S(=O)(=O)[N@@H+]1CCc2cc(OC)c(OC)cc2C1 (nonaromatic ring conformer: 49.54693124131473 kcal/mol)

>  <smiles>  (28) 
COc1cc2c(cc1OC)CN(S(=O)(=O)c1ccc[nH]c1=N)CC2

>  <score_type>  (28) 
oracle

>  <origin>  (28) 
adg

>  <m_score__min__energy>  (28) 
-7.9500000000000002

>  <m_primary>  (28) 
energy

$$$$
28:0
     RDKit          3D

 60 63  0  0  1  0  0  0  0  0999 V2000
   56.5390   24.5350   43.5730 C   0  0  0  0  0  0  0  0  0  0  0  0
   57.7010   24.5230   44.4930 C   0  0  0  0  0  0  0  0  0  0  0  0
   58.4720   23.4240   44.4910 N   0  0  0  0  0  0  0  0  0  0  0  0
   59.5490   23.3200   45.2870 C   0  0  0  0  0  0  0  0  0  0  0  0
   60.2560   22.2450   45.2440 N   0  0  0  0  0  0  0  0  0  0  0  0
   59.8180   24.3630   46.0860 N   0  0  0  0  0  0  0  0  0  0  0  0
   59.0670   25.4870   46.1230 C   0  0  0  0  0  0  0  0  0  0  0  0
   59.3860   26.3730   46.9520 N   0  0  0  0  0  0  0  0  0  0  0  0
   60.0140   27.5970   46.7460 C   0  0  0  0  0  0  0  0  0  0  0  0
   60.2130   28.4640   47.8330 C   0  0  0  0  0  0  0  0  0  0  0  0
   60.7700   29.7100   47.6640 C   0  0  0  0  0  0  0  0  0  0  0  0
   61.1370   30.1020   46.3950 C   0  0  0  0  0  0  0  0  0  0  0  0
   60.9460   29.2530   45.3150 C   0  0  0  0  0  0  0  0  0  0  0  0
   60.3880   27.9940   45.4500 C   0  0  0  0  0  0  0  0  0  0  0  0
   57.9850   25.6210   45.3340 C   0  0  0  0  0  0  0  0  0  0  0  0
   57.0710   26.7230   45.2150 C   0  0  0  0  0  0  0  0  0  0  0  0
   55.9530   26.8660   45.7420 O   0  0  0  0  0  0  0  0  0  0  0  0
   57.5000   27.8210   44.3700 N   0  0  0  0  0  0  0  0  0  0  0  0
   56.5980   28.9710   44.2190 C   0  0  0  0  0  0  0  0  0  0  0  0
   57.3170   30.1950   44.6890 C   0  0  0  0  0  0  0  0  0  0  0  0
   57.4980   31.1940   43.7320 C   0  0  0  0  0  0  0  0  0  0  0  0
   58.1510   32.3600   44.0750 C   0  0  0  0  0  0  0  0  0  0  0  0
   58.6200   32.5160   45.3820 C   0  0  0  0  0  0  0  0  0  0  0  0
   59.3120   33.7890   45.6840 C   0  0  0  0  0  0  0  0  0  0  0  0
   60.0380   33.7570   46.9300 N   0  0  0  0  0  0  0  0  0  0  0  0
   59.3780   33.7180   48.2180 C   0  0  0  0  0  0  0  0  0  0  0  0
   60.1040   34.5430   49.2590 C   0  0  0  0  0  0  0  0  0  0  0  0
   61.5080   34.0490   49.4270 C   0  0  0  0  0  0  0  0  0  0  0  0
   62.1180   33.6810   48.1830 N   0  0  0  0  0  0  0  0  0  0  0  0
   61.4640   33.7640   46.9190 C   0  0  0  0  0  0  0  0  0  0  0  0
   62.1460   33.8380   45.8710 O   0  0  0  0  0  0  0  0  0  0  0  0
   58.4300   31.5150   46.3140 C   0  0  0  0  0  0  0  0  0  0  0  0
   57.7730   30.3290   45.9840 C   0  0  0  0  0  0  0  0  0  0  0  0
   55.6078   24.5446   44.1585 H   0  0  0  0  0  0  0  0  0  0  0  0
   56.5827   25.4327   42.9388 H   0  0  0  0  0  0  0  0  0  0  0  0
   56.5641   23.6365   42.9388 H   0  0  0  0  0  0  0  0  0  0  0  0
   58.2380   22.6150   43.8520 H   0  0  0  0  0  0  0  0  0  0  0  0
   61.0500   22.0840   44.5870 H   0  0  0  0  0  0  0  0  0  0  0  0
   60.6590   24.2690   46.7010 H   0  0  0  0  0  0  0  0  0  0  0  0
   59.9169   28.1393   48.8414 H   0  0  0  0  0  0  0  0  0  0  0  0
   60.9194   30.3796   48.5238 H   0  0  0  0  0  0  0  0  0  0  0  0
   61.5843   31.0945   46.2375 H   0  0  0  0  0  0  0  0  0  0  0  0
   61.2494   29.5932   44.3139 H   0  0  0  0  0  0  0  0  0  0  0  0
   60.2435   27.3334   44.5824 H   0  0  0  0  0  0  0  0  0  0  0  0
   58.4200   27.8040   43.8800 H   0  0  0  0  0  0  0  0  0  0  0  0
   56.3170   29.0873   43.1619 H   0  0  0  0  0  0  0  0  0  0  0  0
   55.6840   28.8168   44.8114 H   0  0  0  0  0  0  0  0  0  0  0  0
   57.1216   31.0526   42.7081 H   0  0  0  0  0  0  0  0  0  0  0  0
   58.3003   33.1555   43.3301 H   0  0  0  0  0  0  0  0  0  0  0  0
   60.0213   34.0032   44.8710 H   0  0  0  0  0  0  0  0  0  0  0  0
   58.5407   34.5681   45.7739 H   0  0  0  0  0  0  0  0  0  0  0  0
   58.3567   34.1104   48.1045 H   0  0  0  0  0  0  0  0  0  0  0  0
   59.3701   32.6730   48.5613 H   0  0  0  0  0  0  0  0  0  0  0  0
   60.1254   35.5949   48.9381 H   0  0  0  0  0  0  0  0  0  0  0  0
   59.5755   34.4527   50.2195 H   0  0  0  0  0  0  0  0  0  0  0  0
   62.1081   34.8456   49.8910 H   0  0  0  0  0  0  0  0  0  0  0  0
   61.4699   33.1484   50.0574 H   0  0  0  0  0  0  0  0  0  0  0  0
   63.1020   33.3310   48.2120 H   0  0  0  0  0  0  0  0  0  0  0  0
   58.8046   31.6555   47.3386 H   0  0  0  0  0  0  0  0  0  0  0  0
   57.6245   29.5320   46.7275 H   0  0  0  0  0  0  0  0  0  0  0  0
  1  2  1  0
  2  3  1  0
  3  4  1  0
  4  5  2  3
  4  6  1  0
  6  7  1  0
  7  8  2  0
  8  9  1  0
  9 10  2  0
 10 11  1  0
 11 12  2  0
 12 13  1  0
 13 14  2  0
  7 15  1  0
 15 16  1  0
 16 17  2  0
 16 18  1  0
 18 19  1  0
 19 20  1  0
 20 21  2  0
 21 22  1  0
 22 23  2  0
 23 24  1  0
 24 25  1  0
 25 26  1  0
 26 27  1  0
 27 28  1  0
 28 29  1  0
 29 30  1  0
 30 31  2  0
 23 32  1  0
 32 33  2  0
 15  2  2  0
 33 20  1  0
 14  9  1  0
 30 25  1  0
  1 34  1  0
  1 35  1  0
  1 36  1  0
  3 37  1  0
  5 38  1  0
  6 39  1  0
 10 40  1  0
 11 41  1  0
 12 42  1  0
 13 43  1  0
 14 44  1  0
 18 45  1  0
 19 46  1  0
 19 47  1  0
 21 48  1  0
 22 49  1  0
 24 50  1  0
 24 51  1  0
 26 52  1  0
 26 53  1  0
 27 54  1  0
 27 55  1  0
 28 56  1  0
 28 57  1  0
 29 58  1  0
 32 59  1  0
 33 60  1  0
M  END
>  <smiles>  (29) 
Cc1[nH]c(=N)[nH]c(=Nc2ccccc2)c1C(=O)NCc1ccc(CN2CCCNC2=O)cc1

>  <score_type>  (29) 
oracle

>  <origin>  (29) 
adg

>  <m_score__min__energy>  (29) 
-9.4299999999999997

>  <m_primary>  (29) 
energy

$$$$
29:0
     RDKit          3D

 47 49  0  0  0  0  0  0  0  0999 V2000
   58.1870   25.7240   46.2860 C   0  0  0  0  0  0  0  0  0  0  0  0
   57.8190   27.1560   46.6490 C   0  0  0  0  0  0  0  0  0  0  0  0
   58.7670   28.0910   46.0390 N   0  0  0  0  0  0  0  0  0  0  0  0
   59.7980   28.7530   46.6090 C   0  0  0  0  0  0  0  0  0  0  0  0
   60.0510   28.8670   48.0910 C   0  0  0  0  0  0  0  0  0  0  0  0
   60.9740   29.9740   48.3970 N   0  0  0  0  0  0  0  0  0  0  0  0
   60.3690   30.9380   49.2860 C   0  0  0  0  0  0  0  0  0  0  0  0
   61.0300   32.1450   49.5820 C   0  0  0  0  0  0  0  0  0  0  0  0
   60.4770   33.0470   50.4960 C   0  0  0  0  0  0  0  0  0  0  0  0
   59.2610   32.7560   51.1220 C   0  0  0  0  0  0  0  0  0  0  0  0
   58.5100   33.9810   52.3830 Br  0  0  0  0  0  0  0  0  0  0  0  0
   58.5940   31.5630   50.8290 C   0  0  0  0  0  0  0  0  0  0  0  0
   59.1430   30.6550   49.9200 C   0  0  0  0  0  0  0  0  0  0  0  0
   60.5030   29.4440   45.6900 N   0  0  0  0  0  0  0  0  0  0  0  0
   59.9460   29.2070   44.5120 N   0  0  0  0  0  0  0  0  0  0  0  0
   58.9010   28.3880   44.7310 C   0  0  0  0  0  0  0  0  0  0  0  0
   57.7870   27.8330   43.4370 S   0  0  0  0  0  0  0  0  0  0  0  0
   57.0500   29.4830   43.1770 C   0  0  0  0  0  0  0  0  0  0  0  0
   56.2160   29.8480   44.3620 C   0  0  0  0  0  0  0  0  0  0  0  0
   55.5220   28.9690   44.9410 O   0  0  0  0  0  0  0  0  0  0  0  0
   56.2410   31.1950   44.8500 N   0  0  0  0  0  0  0  0  0  0  0  0
   57.4180   31.9770   45.0830 C   0  0  0  0  0  0  0  0  0  0  0  0
   57.7590   33.0580   44.2470 C   0  0  0  0  0  0  0  0  0  0  0  0
   58.8280   33.8950   44.5760 C   0  0  0  0  0  0  0  0  0  0  0  0
   59.5600   33.6710   45.7470 C   0  0  0  0  0  0  0  0  0  0  0  0
   60.5520   34.5300   46.1010 F   0  0  0  0  0  0  0  0  0  0  0  0
   59.2380   32.5900   46.5730 C   0  0  0  0  0  0  0  0  0  0  0  0
   58.1750   31.7430   46.2410 C   0  0  0  0  0  0  0  0  0  0  0  0
   57.8580   30.7180   47.0700 F   0  0  0  0  0  0  0  0  0  0  0  0
   58.3372   25.1396   47.2058 H   0  0  0  0  0  0  0  0  0  0  0  0
   57.3750   25.2753   45.6950 H   0  0  0  0  0  0  0  0  0  0  0  0
   59.1147   25.7224   45.6950 H   0  0  0  0  0  0  0  0  0  0  0  0
   56.8054   27.3750   46.2822 H   0  0  0  0  0  0  0  0  0  0  0  0
   57.8550   27.2701   47.7425 H   0  0  0  0  0  0  0  0  0  0  0  0
   59.0948   29.0465   48.6042 H   0  0  0  0  0  0  0  0  0  0  0  0
   60.5102   27.9289   48.4362 H   0  0  0  0  0  0  0  0  0  0  0  0
   61.8330   29.5810   48.8520 H   0  0  0  0  0  0  0  0  0  0  0  0
   61.2800   30.4380   47.5070 H   0  0  0  0  0  0  0  0  0  0  0  0
   61.9863   32.3797   49.0918 H   0  0  0  0  0  0  0  0  0  0  0  0
   60.9998   33.9878   50.7232 H   0  0  0  0  0  0  0  0  0  0  0  0
   57.6335   31.3383   51.3158 H   0  0  0  0  0  0  0  0  0  0  0  0
   58.6159   29.7153   49.6984 H   0  0  0  0  0  0  0  0  0  0  0  0
   57.8507   30.2263   43.0491 H   0  0  0  0  0  0  0  0  0  0  0  0
   56.4192   29.4651   42.2760 H   0  0  0  0  0  0  0  0  0  0  0  0
   57.1805   33.2442   43.3301 H   0  0  0  0  0  0  0  0  0  0  0  0
   59.0946   34.7315   43.9133 H   0  0  0  0  0  0  0  0  0  0  0  0
   59.8221   32.4048   47.4866 H   0  0  0  0  0  0  0  0  0  0  0  0
  1  2  1  0
  2  3  1  0
  3  4  1  0
  4  5  1  0
  5  6  1  0
  6  7  1  0
  7  8  2  0
  8  9  1  0
  9 10  2  0
 10 11  1  0
 10 12  1  0
 12 13  2  0
  4 14  2  0
 14 15  1  0
 15 16  2  0
 16 17  1  0
 17 18  1  0
 18 19  1  0
 19 20  2  0
 19 21  1  0
 21 22  1  0
 22 23  2  0
 23 24  1  0
 24 25  2  0
 25 26  1  0
 25 27  1  0
 27 28  2  0
 28 29  1  0
 16  3  1  0
 28 22  1  0
 13  7  1  0
  1 30  1  0
  1 31  1  0
  1 32  1  0
  2 33  1  0
  2 34  1  0
  5 35  1  0
  5 36  1  0
  6 37  1  0
  6 38  1  0
  8 39  1  0
  9 40  1  0
 12 41  1  0
 13 42  1  0
 18 43  1  0
 18 44  1  0
 23 45  1  0
 24 46  1  0
 27 47  1  0
M  CHG  2   6   1  21  -1
M  END
>  <UniqueID>  (30) 
28

>  <SMILES>  (30) 
CCn1c(C[NH2+]c2ccc(Br)cc2)nnc1SCC(=O)[N-]c1ccc(F)cc1F

>  <Energy>  (30) 
77.73374790589376

>  <Genealogy>  (30) 
CCn1c(C[NH2+]c2ccc(Br)cc2)nnc1SCC(=O)[N-]c1ccc(F)cc1F (protonated)
CCn1c(C[NH2+]c2ccc(Br)cc2)nnc1SCC(=O)[N-]c1ccc(F)cc1F (3D coordinates assigned)
CCn1c(C[NH2+]c2ccc(Br)cc2)nnc1SCC(=O)[N-]c1ccc(F)cc1F (optimized conformer: 77.73374790589376 kcal/mol)

>  <smiles>  (30) 
CCn1c(CNc2ccc(Br)cc2)nnc1SCC(=O)Nc1ccc(F)cc1F

>  <score_type>  (30) 
oracle

>  <origin>  (30) 
adg

>  <m_score__min__energy>  (30) 
-9.1600000000000001

>  <m_primary>  (30) 
energy

$$$$
30:0
     RDKit          3D

 24 25  0  0  0  0  0  0  0  0999 V2000
   58.7120   27.4180   44.3520 O   0  0  0  0  0  0  0  0  0  0  0  0
   57.6920   27.3930   45.0950 C   0  0  0  0  0  0  0  0  0  0  0  0
   56.8400   28.5430   45.1610 N   0  0  0  0  0  0  0  0  0  0  0  0
   57.1280   29.8040   44.5420 C   0  0  0  0  0  0  0  0  0  0  0  0
   56.7170   30.0090   43.2180 C   0  0  0  0  0  0  0  0  0  0  0  0
   56.9800   31.2220   42.5760 C   0  0  0  0  0  0  0  0  0  0  0  0
   57.6720   32.2320   43.2460 C   0  0  0  0  0  0  0  0  0  0  0  0
   58.1160   32.0260   44.5550 C   0  0  0  0  0  0  0  0  0  0  0  0
   57.8570   30.8130   45.2070 C   0  0  0  0  0  0  0  0  0  0  0  0
   58.5430   30.5640   46.8090 Cl  0  0  0  0  0  0  0  0  0  0  0  0
   57.4040   26.1930   45.9270 C   0  0  0  0  0  0  0  0  0  0  0  0
   56.0930   25.8930   46.3530 C   0  0  0  0  0  0  0  0  0  0  0  0
   55.0180   26.7010   45.9910 O   0  0  0  0  0  0  0  0  0  0  0  0
   55.8610   24.7920   47.1140 N   0  0  0  0  0  0  0  0  0  0  0  0
   56.8680   23.9600   47.4770 C   0  0  0  0  0  0  0  0  0  0  0  0
   56.6250   22.9470   48.1820 O   0  0  0  0  0  0  0  0  0  0  0  0
   58.1370   24.2190   47.0780 N   0  0  0  0  0  0  0  0  0  0  0  0
   58.4300   25.3050   46.3180 C   0  0  0  0  0  0  0  0  0  0  0  0
   59.6270   25.5070   45.9830 O   0  0  0  0  0  0  0  0  0  0  0  0
   56.1842   29.2104   42.6810 H   0  0  0  0  0  0  0  0  0  0  0  0
   56.6413   31.3810   41.5416 H   0  0  0  0  0  0  0  0  0  0  0  0
   57.8680   33.1907   42.7435 H   0  0  0  0  0  0  0  0  0  0  0  0
   58.6714   32.8198   45.0760 H   0  0  0  0  0  0  0  0  0  0  0  0
   55.1450   27.4910   45.3700 H   0  0  0  0  0  0  0  0  0  0  0  0
  1  2  2  0
  2  3  1  0
  3  4  1  0
  4  5  2  0
  5  6  1  0
  6  7  2  0
  7  8  1  0
  8  9  2  0
  9 10  1  0
  2 11  1  0
 11 12  2  0
 12 13  1  0
 12 14  1  0
 14 15  1  0
 15 16  2  0
 15 17  1  0
 17 18  1  0
 18 19  2  0
  9  4  1  0
 18 11  1  0
  5 20  1  0
  6 21  1  0
  7 22  1  0
  8 23  1  0
 13 24  1  0
M  CHG  3   3  -1  14  -1  17  -1
M  END
>  <UniqueID>  (31) 
29

>  <SMILES>  (31) 
O=C([N-]c1ccccc1Cl)c1c(O)[n-]c(=O)[n-]c1=O

>  <Energy>  (31) 
36.99973538051799

>  <Genealogy>  (31) 
O=C([N-]c1ccccc1Cl)c1c(O)[n-]c(=O)[n-]c1=O (protonated)
O=C([N-]c1ccccc1Cl)c1c(O)[n-]c(=O)[n-]c1=O (3D coordinates assigned)
O=C([N-]c1ccccc1Cl)c1c(O)[n-]c(=O)[n-]c1=O (optimized conformer: 36.99973538051799 kcal/mol)

>  <smiles>  (31) 
O=C(Nc1ccccc1Cl)c1c(O)[nH]c(=O)[nH]c1=O

>  <score_type>  (31) 
oracle

>  <origin>  (31) 
adg

>  <m_score__min__energy>  (31) 
-12.77

>  <m_primary>  (31) 
energy

$$$$
31:0
     RDKit          3D

 27 28  0  0  0  0  0  0  0  0999 V2000
   56.6200   31.2000   44.7070 O   0  0  0  0  0  0  0  0  0  0  0  0
   57.6410   30.5370   45.0350 C   0  0  0  0  0  0  0  0  0  0  0  0
   57.9860   29.2920   44.2820 C   0  0  0  0  0  0  0  0  0  0  0  0
   57.4300   28.0830   44.9950 C   0  0  0  0  0  0  0  0  0  0  0  0
   56.0540   27.9700   45.2590 C   0  0  0  0  0  0  0  0  0  0  0  0
   55.1670   28.9560   44.8440 O   0  0  0  0  0  0  0  0  0  0  0  0
   55.5770   26.8890   45.9290 N   0  0  0  0  0  0  0  0  0  0  0  0
   56.4100   25.9100   46.3640 C   0  0  0  0  0  0  0  0  0  0  0  0
   55.9440   24.9170   46.9810 O   0  0  0  0  0  0  0  0  0  0  0  0
   57.7440   26.0010   46.1370 N   0  0  0  0  0  0  0  0  0  0  0  0
   58.2730   27.0600   45.4720 C   0  0  0  0  0  0  0  0  0  0  0  0
   59.5190   27.1150   45.2900 O   0  0  0  0  0  0  0  0  0  0  0  0
   58.4150   30.9020   46.1840 N   0  0  0  0  0  0  0  0  0  0  0  0
   59.0000   32.1850   46.4520 C   0  0  0  0  0  0  0  0  0  0  0  0
   60.3710   32.3190   46.7440 C   0  0  0  0  0  0  0  0  0  0  0  0
   60.9140   33.5770   47.0230 C   0  0  0  0  0  0  0  0  0  0  0  0
   62.6240   33.7350   47.3840 Cl  0  0  0  0  0  0  0  0  0  0  0  0
   60.0940   34.7070   47.0290 C   0  0  0  0  0  0  0  0  0  0  0  0
   58.7280   34.5810   46.7640 C   0  0  0  0  0  0  0  0  0  0  0  0
   58.1760   33.3270   46.4820 C   0  0  0  0  0  0  0  0  0  0  0  0
   56.8060   33.2400   46.2270 O   0  0  0  0  0  0  0  0  0  0  0  0
   57.5563   29.3476   43.2709 H   0  0  0  0  0  0  0  0  0  0  0  0
   59.0804   29.2010   44.2193 H   0  0  0  0  0  0  0  0  0  0  0  0
   61.0181   31.4295   46.7527 H   0  0  0  0  0  0  0  0  0  0  0  0
   60.5236   35.6969   47.2425 H   0  0  0  0  0  0  0  0  0  0  0  0
   58.0834   35.4723   46.7772 H   0  0  0  0  0  0  0  0  0  0  0  0
   56.3470   32.3610   46.0230 H   0  0  0  0  0  0  0  0  0  0  0  0
  1  2  2  0
  2  3  1  0
  3  4  1  0
  4  5  2  0
  5  6  1  0
  5  7  1  0
  7  8  1  0
  8  9  2  0
  8 10  1  0
 10 11  1  0
 11 12  2  0
  2 13  1  0
 13 14  1  0
 14 15  2  0
 15 16  1  0
 16 17  1  0
 16 18  2  0
 18 19  1  0
 19 20  2  0
 20 21  1  0
 11  4  1  0
 20 14  1  0
  3 22  1  0
  3 23  1  0
 15 24  1  0
 18 25  1  0
 19 26  1  0
 21 27  1  0
M  CHG  4   6  -1   7  -1  10  -1  13  -1
M  END
>  <UniqueID>  (32) 
30

>  <SMILES>  (32) 
O=C(Cc1c([O-])[n-]c(=O)[n-]c1=O)[N-]c1cc(Cl)ccc1O

>  <Energy>  (32) 
32.38243468355315

>  <Genealogy>  (32) 
O=C(Cc1c([O-])[n-]c(=O)[n-]c1=O)[N-]c1cc(Cl)ccc1O (protonated)
O=C(Cc1c([O-])[n-]c(=O)[n-]c1=O)[N-]c1cc(Cl)ccc1O (3D coordinates assigned)
O=C(Cc1c([O-])[n-]c(=O)[n-]c1=O)[N-]c1cc(Cl)ccc1O (optimized conformer: 32.38243468355315 kcal/mol)

>  <smiles>  (32) 
O=C(Cc1c(O)[nH]c(=O)[nH]c1=O)Nc1cc(Cl)ccc1O

>  <score_type>  (32) 
oracle

>  <origin>  (32) 
adg

>  <m_score__min__energy>  (32) 
-16.140000000000001

>  <m_primary>  (32) 
energy

$$$$
32:0
     RDKit          3D

 51 53  0  0  0  0  0  0  0  0999 V2000
   56.2610   29.6300   42.7340 C   0  0  0  0  0  0  0  0  0  0  0  0
   56.0460   29.9520   44.1830 C   0  0  0  0  0  0  0  0  0  0  0  0
   55.1530   29.3330   44.8190 O   0  0  0  0  0  0  0  0  0  0  0  0
   56.7990   30.9700   44.8590 N   0  0  0  0  0  0  0  0  0  0  0  0
   57.7810   30.7740   45.8890 C   0  0  0  0  0  0  0  0  0  0  0  0
   58.3710   29.5150   46.0960 C   0  0  0  0  0  0  0  0  0  0  0  0
   59.3140   29.3330   47.1090 C   0  0  0  0  0  0  0  0  0  0  0  0
   59.6630   30.3960   47.9480 C   0  0  0  0  0  0  0  0  0  0  0  0
   60.8500   30.1490   49.2250 S   0  0  0  0  0  0  0  0  0  0  0  0
   60.8900   28.7020   49.6270 O   0  0  0  0  0  0  0  0  0  0  0  0
   62.2040   30.5480   48.7120 O   0  0  0  0  0  0  0  0  0  0  0  0
   60.4040   31.0930   50.6120 N   0  0  0  0  0  0  0  0  0  0  0  0
   59.0720   31.0920   51.1910 C   0  0  0  0  0  0  0  0  0  0  0  0
   59.1430   32.1670   52.2870 C   0  0  0  0  0  0  0  0  0  0  0  0
   60.5000   32.6890   52.2050 N   0  0  0  0  0  0  0  0  0  0  0  0
   61.1620   32.0880   51.2800 C   0  0  0  0  0  0  0  0  0  0  0  0
   62.8840   32.4750   50.9390 S   0  0  0  0  0  0  0  0  0  0  0  0
   62.5260   34.1670   50.3650 C   0  0  0  0  0  0  0  0  0  0  0  0
   61.9640   34.1220   48.9660 C   0  0  0  0  0  0  0  0  0  0  0  0
   60.6520   34.5900   48.7550 C   0  0  0  0  0  0  0  0  0  0  0  0
   60.0890   34.5740   47.4770 C   0  0  0  0  0  0  0  0  0  0  0  0
   60.8270   34.1000   46.3940 C   0  0  0  0  0  0  0  0  0  0  0  0
   62.1360   33.6490   46.5800 C   0  0  0  0  0  0  0  0  0  0  0  0
   62.7240   33.6650   47.8580 C   0  0  0  0  0  0  0  0  0  0  0  0
   64.1370   33.1700   48.0180 C   0  0  0  0  0  0  0  0  0  0  0  0
   59.0530   31.6440   47.7740 C   0  0  0  0  0  0  0  0  0  0  0  0
   58.1080   31.8400   46.7520 C   0  0  0  0  0  0  0  0  0  0  0  0
   57.4700   33.1900   46.5680 C   0  0  0  0  0  0  0  0  0  0  0  0
   56.8699   28.7180   42.6475 H   0  0  0  0  0  0  0  0  0  0  0  0
   55.2884   29.4692   42.2459 H   0  0  0  0  0  0  0  0  0  0  0  0
   56.7823   30.4666   42.2459 H   0  0  0  0  0  0  0  0  0  0  0  0
   58.0875   28.6671   45.4551 H   0  0  0  0  0  0  0  0  0  0  0  0
   59.7849   28.3486   47.2480 H   0  0  0  0  0  0  0  0  0  0  0  0
   58.3168   31.3533   50.4351 H   0  0  0  0  0  0  0  0  0  0  0  0
   58.7811   30.1062   51.5828 H   0  0  0  0  0  0  0  0  0  0  0  0
   58.4087   32.9637   52.0971 H   0  0  0  0  0  0  0  0  0  0  0  0
   58.9123   31.7617   53.2833 H   0  0  0  0  0  0  0  0  0  0  0  0
   60.8870   33.4440   52.8140 H   0  0  0  0  0  0  0  0  0  0  0  0
   61.7924   34.6339   51.0387 H   0  0  0  0  0  0  0  0  0  0  0  0
   63.4553   34.7555   50.3651 H   0  0  0  0  0  0  0  0  0  0  0  0
   60.0660   34.9713   49.6042 H   0  0  0  0  0  0  0  0  0  0  0  0
   59.0615   34.9361   47.3250 H   0  0  0  0  0  0  0  0  0  0  0  0
   60.3776   34.0809   45.3902 H   0  0  0  0  0  0  0  0  0  0  0  0
   62.7122   33.2780   45.7195 H   0  0  0  0  0  0  0  0  0  0  0  0
   64.3771   33.0859   49.0882 H   0  0  0  0  0  0  0  0  0  0  0  0
   64.2361   32.1836   47.5414 H   0  0  0  0  0  0  0  0  0  0  0  0
   64.8300   33.8789   47.5414 H   0  0  0  0  0  0  0  0  0  0  0  0
   59.3152   32.4776   48.4421 H   0  0  0  0  0  0  0  0  0  0  0  0
   57.2603   33.6337   47.5525 H   0  0  0  0  0  0  0  0  0  0  0  0
   58.1536   33.8454   46.0085 H   0  0  0  0  0  0  0  0  0  0  0  0
   56.5296   33.0779   46.0085 H   0  0  0  0  0  0  0  0  0  0  0  0
  1  2  1  0
  2  3  2  0
  2  4  1  0
  4  5  1  0
  5  6  2  0
  6  7  1  0
  7  8  2  0
  8  9  1  0
  9 10  2  0
  9 11  2  0
  9 12  1  0
 12 13  1  0
 13 14  1  0
 14 15  1  0
 15 16  2  0
 16 17  1  0
 17 18  1  0
 18 19  1  0
 19 20  2  0
 20 21  1  0
 21 22  2  0
 22 23  1  0
 23 24  2  0
 24 25  1  0
  8 26  1  0
 26 27  2  0
 27 28  1  0
 27  5  1  0
 16 12  1  0
 24 19  1  0
  1 29  1  0
  1 30  1  0
  1 31  1  0
  6 32  1  0
  7 33  1  0
 13 34  1  0
 13 35  1  0
 14 36  1  0
 14 37  1  0
 15 38  1  0
 18 39  1  0
 18 40  1  0
 20 41  1  0
 21 42  1  0
 22 43  1  0
 23 44  1  0
 25 45  1  0
 25 46  1  0
 25 47  1  0
 26 48  1  0
 28 49  1  0
 28 50  1  0
 28 51  1  0
M  CHG  2   4  -1  15   1
M  END
>  <UniqueID>  (33) 
31

>  <SMILES>  (33) 
CC(=O)[N-]c1ccc(S(=O)(=O)N2CC[NH+]=C2SCc2ccccc2C)cc1C

>  <Energy>  (33) 
64.41520523081354

>  <Genealogy>  (33) 
CC(=O)[N-]c1ccc(S(=O)(=O)N2CC[NH+]=C2SCc2ccccc2C)cc1C (protonated)
CC(=O)[N-]c1ccc(S(=O)(=O)N2CC[NH+]=C2SCc2ccccc2C)cc1C (3D coordinates assigned)
CC(=O)[N-]c1ccc(S(=O)(=O)N2CC[NH+]=C2SCc2ccccc2C)cc1C (nonaromatic ring conformer: 64.41520523081354 kcal/mol)

>  <smiles>  (33) 
CC(=O)Nc1ccc(S(=O)(=O)N2CCN=C2SCc2ccccc2C)cc1C

>  <score_type>  (33) 
oracle

>  <origin>  (33) 
adg

>  <m_score__min__energy>  (33) 
-9.1300000000000008

>  <m_primary>  (33) 
energy

$$$$
33:0
     RDKit          3D

 48 50  0  0  0  0  0  0  0  0999 V2000
   59.4130   29.7920   49.6190 C   0  0  0  0  0  0  0  0  0  0  0  0
   59.4810   29.7140   48.1230 C   0  0  0  0  0  0  0  0  0  0  0  0
   60.6140   30.1820   47.4430 C   0  0  0  0  0  0  0  0  0  0  0  0
   60.7000   30.0620   46.0530 C   0  0  0  0  0  0  0  0  0  0  0  0
   59.6530   29.4800   45.3340 C   0  0  0  0  0  0  0  0  0  0  0  0
   58.5110   29.0100   46.0000 C   0  0  0  0  0  0  0  0  0  0  0  0
   57.4280   28.3640   45.2320 C   0  0  0  0  0  0  0  0  0  0  0  0
   57.6940   27.3460   44.5410 O   0  0  0  0  0  0  0  0  0  0  0  0
   56.0830   28.8630   45.2300 N   0  0  0  0  0  0  0  0  0  0  0  0
   55.5090   29.7840   44.2520 C   0  0  0  0  0  0  0  0  0  0  0  0
   56.4780   30.8870   43.9280 C   0  0  0  0  0  0  0  0  0  0  0  0
   57.1450   30.8990   42.6970 C   0  0  0  0  0  0  0  0  0  0  0  0
   58.0380   31.9250   42.4000 C   0  0  0  0  0  0  0  0  0  0  0  0
   58.2580   32.9370   43.3350 C   0  0  0  0  0  0  0  0  0  0  0  0
   57.6080   32.9250   44.5380 N   0  0  0  0  0  0  0  0  0  0  0  0
   57.8730   33.9920   45.5120 C   0  0  0  0  0  0  0  0  0  0  0  0
   58.7370   33.4910   46.6330 C   0  0  0  0  0  0  0  0  0  0  0  0
   58.3640   32.4960   47.3130 O   0  0  0  0  0  0  0  0  0  0  0  0
   59.9650   34.1610   46.9490 N   0  0  0  0  0  0  0  0  0  0  0  0
   60.7720   33.7920   48.0760 C   0  0  0  0  0  0  0  0  0  0  0  0
   60.1490   33.5300   49.3050 C   0  0  0  0  0  0  0  0  0  0  0  0
   60.9110   33.1740   50.4210 C   0  0  0  0  0  0  0  0  0  0  0  0
   62.2990   33.0640   50.3150 C   0  0  0  0  0  0  0  0  0  0  0  0
   62.9270   33.2960   49.0880 C   0  0  0  0  0  0  0  0  0  0  0  0
   62.1720   33.6520   47.9650 C   0  0  0  0  0  0  0  0  0  0  0  0
   62.9950   33.8350   46.4210 Cl  0  0  0  0  0  0  0  0  0  0  0  0
   56.7370   31.9160   44.8480 C   0  0  0  0  0  0  0  0  0  0  0  0
   58.4460   29.1000   47.3990 C   0  0  0  0  0  0  0  0  0  0  0  0
   60.0763   29.0312   50.0564 H   0  0  0  0  0  0  0  0  0  0  0  0
   59.7334   30.7912   49.9490 H   0  0  0  0  0  0  0  0  0  0  0  0
   58.3794   29.6108   49.9490 H   0  0  0  0  0  0  0  0  0  0  0  0
   61.4382   30.6453   48.0052 H   0  0  0  0  0  0  0  0  0  0  0  0
   61.5933   30.4263   45.5245 H   0  0  0  0  0  0  0  0  0  0  0  0
   59.7243   29.3898   44.2400 H   0  0  0  0  0  0  0  0  0  0  0  0
   55.2707   29.2308   43.3316 H   0  0  0  0  0  0  0  0  0  0  0  0
   54.5970   30.2282   44.6774 H   0  0  0  0  0  0  0  0  0  0  0  0
   56.9636   30.0983   41.9650 H   0  0  0  0  0  0  0  0  0  0  0  0
   58.5663   31.9377   41.4352 H   0  0  0  0  0  0  0  0  0  0  0  0
   58.9601   33.7512   43.1025 H   0  0  0  0  0  0  0  0  0  0  0  0
   58.3860   34.8228   45.0055 H   0  0  0  0  0  0  0  0  0  0  0  0
   56.9144   34.3312   45.9315 H   0  0  0  0  0  0  0  0  0  0  0  0
   60.3760   34.8110   46.2420 H   0  0  0  0  0  0  0  0  0  0  0  0
   59.0549   33.6051   49.3908 H   0  0  0  0  0  0  0  0  0  0  0  0
   60.4167   32.9801   51.3844 H   0  0  0  0  0  0  0  0  0  0  0  0
   62.8983   32.7947   51.1972 H   0  0  0  0  0  0  0  0  0  0  0  0
   64.0195   33.1983   49.0049 H   0  0  0  0  0  0  0  0  0  0  0  0
   56.2351   31.9109   45.8268 H   0  0  0  0  0  0  0  0  0  0  0  0
   57.5776   28.6864   47.9327 H   0  0  0  0  0  0  0  0  0  0  0  0
  1  2  1  0
  2  3  2  0
  3  4  1  0
  4  5  2  0
  5  6  1  0
  6  7  1  0
  7  8  2  0
  7  9  1  0
  9 10  1  0
 10 11  1  0
 11 12  2  0
 12 13  1  0
 13 14  2  0
 14 15  1  0
 15 16  1  0
 16 17  1  0
 17 18  2  0
 17 19  1  0
 19 20  1  0
 20 21  2  0
 21 22  1  0
 22 23  2  0
 23 24  1  0
 24 25  2  0
 25 26  1  0
 15 27  2  0
  6 28  2  0
 28  2  1  0
 27 11  1  0
 25 20  1  0
  1 29  1  0
  1 30  1  0
  1 31  1  0
  3 32  1  0
  4 33  1  0
  5 34  1  0
 10 35  1  0
 10 36  1  0
 12 37  1  0
 13 38  1  0
 14 39  1  0
 16 40  1  0
 16 41  1  0
 19 42  1  0
 21 43  1  0
 22 44  1  0
 23 45  1  0
 24 46  1  0
 27 47  1  0
 28 48  1  0
M  CHG  2   9  -1  15   1
M  END
>  <UniqueID>  (34) 
32

>  <SMILES>  (34) 
Cc1cccc(C(=O)[N-]Cc2ccc[n+](CC(=O)Nc3ccccc3Cl)c2)c1

>  <Energy>  (34) 
55.71985300518604

>  <Genealogy>  (34) 
Cc1cccc(C(=O)[N-]Cc2ccc[n+](CC(=O)Nc3ccccc3Cl)c2)c1 (protonated)
Cc1cccc(C(=O)[N-]Cc2ccc[n+](CC(=O)Nc3ccccc3Cl)c2)c1 (3D coordinates assigned)
Cc1cccc(C(=O)[N-]Cc2ccc[n+](CC(=O)Nc3ccccc3Cl)c2)c1 (optimized conformer: 55.71985300518604 kcal/mol)

>  <smiles>  (34) 
Cc1cccc(C(=O)NCc2ccc[n+](CC(=O)Nc3ccccc3Cl)c2)c1

>  <score_type>  (34) 
oracle

>  <origin>  (34) 
adg

>  <m_score__min__energy>  (34) 
-9.5600000000000005

>  <m_primary>  (34) 
energy

$$$$
34:0
     RDKit          3D

 58 61  0  0  0  0  0  0  0  0999 V2000
   59.6560   28.5310   49.5120 O   0  0  0  0  0  0  0  0  0  0  0  0
   59.3160   29.3280   48.5960 C   0  0  0  0  0  0  0  0  0  0  0  0
   59.1010   28.8410   47.2700 N   0  0  0  0  0  0  0  0  0  0  0  0
   58.2970   27.6920   46.9750 C   0  0  0  0  0  0  0  0  0  0  0  0
   58.6220   26.4740   47.5860 C   0  0  0  0  0  0  0  0  0  0  0  0
   57.9420   25.3050   47.2390 C   0  0  0  0  0  0  0  0  0  0  0  0
   56.9420   25.3410   46.2680 C   0  0  0  0  0  0  0  0  0  0  0  0
   56.6160   26.5450   45.6430 C   0  0  0  0  0  0  0  0  0  0  0  0
   57.2810   27.7360   45.9890 C   0  0  0  0  0  0  0  0  0  0  0  0
   56.8960   28.9900   45.3050 C   0  0  0  0  0  0  0  0  0  0  0  0
   55.6790   29.2250   45.0790 O   0  0  0  0  0  0  0  0  0  0  0  0
   57.9010   29.9610   44.9750 N   0  0  0  0  0  0  0  0  0  0  0  0
   57.8540   31.2460   45.1900 C   0  0  0  0  0  0  0  0  0  0  0  0
   57.9030   32.1220   44.0970 C   0  0  0  0  0  0  0  0  0  0  0  0
   57.7660   33.4940   44.3080 C   0  0  0  0  0  0  0  0  0  0  0  0
   57.6140   33.9840   45.6050 C   0  0  0  0  0  0  0  0  0  0  0  0
   57.6000   33.0890   46.6770 C   0  0  0  0  0  0  0  0  0  0  0  0
   57.7140   31.7520   46.4490 N   0  0  0  0  0  0  0  0  0  0  0  0
   59.0880   30.7170   48.8750 N   0  0  0  0  0  0  0  0  0  0  0  0
   58.6680   31.2010   50.1620 C   0  0  0  0  0  0  0  0  0  0  0  0
   57.7740   30.4590   50.9540 C   0  0  0  0  0  0  0  0  0  0  0  0
   57.3410   30.9530   52.1870 C   0  0  0  0  0  0  0  0  0  0  0  0
   57.8140   32.1800   52.6550 C   0  0  0  0  0  0  0  0  0  0  0  0
   58.7300   32.9090   51.9000 C   0  0  0  0  0  0  0  0  0  0  0  0
   59.1710   32.4290   50.6550 C   0  0  0  0  0  0  0  0  0  0  0  0
   60.1230   33.1950   49.9000 N   0  0  0  0  0  0  0  0  0  0  0  0
   61.5510   32.8640   49.9570 C   0  0  0  0  0  0  0  0  0  0  0  0
   62.0410   32.4380   48.5670 C   0  0  0  0  0  0  0  0  0  0  0  0
   61.5090   33.3520   47.4150 C   0  0  0  0  0  0  0  0  0  0  0  0
   60.6100   32.5630   46.4280 C   0  0  0  0  0  0  0  0  0  0  0  0
   60.6000   31.1880   46.7150 O   0  0  0  0  0  0  0  0  0  0  0  0
   60.7660   34.6000   47.9570 C   0  0  0  0  0  0  0  0  0  0  0  0
   59.6500   34.1980   48.9350 C   0  0  0  0  0  0  0  0  0  0  0  0
   59.4182   26.4384   48.3442 H   0  0  0  0  0  0  0  0  0  0  0  0
   58.1954   24.3549   47.7320 H   0  0  0  0  0  0  0  0  0  0  0  0
   56.4091   24.4184   45.9942 H   0  0  0  0  0  0  0  0  0  0  0  0
   55.8315   26.5635   44.8722 H   0  0  0  0  0  0  0  0  0  0  0  0
   58.0485   31.7301   43.0795 H   0  0  0  0  0  0  0  0  0  0  0  0
   57.7778   34.1874   43.4541 H   0  0  0  0  0  0  0  0  0  0  0  0
   57.5063   35.0644   45.7817 H   0  0  0  0  0  0  0  0  0  0  0  0
   57.4968   33.4646   47.7057 H   0  0  0  0  0  0  0  0  0  0  0  0
   58.9500   31.3400   48.0480 H   0  0  0  0  0  0  0  0  0  0  0  0
   57.4128   29.4821   50.6001 H   0  0  0  0  0  0  0  0  0  0  0  0
   56.6261   30.3740   52.7900 H   0  0  0  0  0  0  0  0  0  0  0  0
   57.4630   32.5718   53.6211 H   0  0  0  0  0  0  0  0  0  0  0  0
   59.1111   33.8678   52.2813 H   0  0  0  0  0  0  0  0  0  0  0  0
   62.1175   33.7464   50.2895 H   0  0  0  0  0  0  0  0  0  0  0  0
   61.7043   32.0368   50.6657 H   0  0  0  0  0  0  0  0  0  0  0  0
   63.1405   32.4714   48.5593 H   0  0  0  0  0  0  0  0  0  0  0  0
   61.6550   31.4246   48.3826 H   0  0  0  0  0  0  0  0  0  0  0  0
   62.3919   33.7060   46.8625 H   0  0  0  0  0  0  0  0  0  0  0  0
   59.5821   32.9484   46.4971 H   0  0  0  0  0  0  0  0  0  0  0  0
   61.0159   32.6973   45.4145 H   0  0  0  0  0  0  0  0  0  0  0  0
   59.6700   30.8600   46.5930 H   0  0  0  0  0  0  0  0  0  0  0  0
   61.4854   35.2478   48.4793 H   0  0  0  0  0  0  0  0  0  0  0  0
   60.3119   35.1324   47.1083 H   0  0  0  0  0  0  0  0  0  0  0  0
   59.3136   35.0911   49.4820 H   0  0  0  0  0  0  0  0  0  0  0  0
   58.8219   33.7614   48.3573 H   0  0  0  0  0  0  0  0  0  0  0  0
  1  2  2  0
  2  3  1  0
  3  4  1  0
  4  5  2  0
  5  6  1  0
  6  7  2  0
  7  8  1  0
  8  9  2  0
  9 10  1  0
 10 11  2  0
 10 12  1  0
 12 13  2  3
 13 14  1  0
 14 15  2  0
 15 16  1  0
 16 17  2  0
 17 18  1  0
  2 19  1  0
 19 20  1  0
 20 21  2  0
 21 22  1  0
 22 23  2  0
 23 24  1  0
 24 25  2  0
 25 26  1  0
 26 27  1  0
 27 28  1  0
 28 29  1  0
 29 30  1  0
 30 31  1  0
 29 32  1  0
 32 33  1  0
  9  4  1  0
 18 13  1  0
 25 20  1  0
 33 26  1  0
  5 34  1  0
  6 35  1  0
  7 36  1  0
  8 37  1  0
 14 38  1  0
 15 39  1  0
 16 40  1  0
 17 41  1  0
 19 42  1  0
 21 43  1  0
 22 44  1  0
 23 45  1  0
 24 46  1  0
 27 47  1  0
 27 48  1  0
 28 49  1  0
 28 50  1  0
 29 51  1  0
 30 52  1  0
 30 53  1  0
 31 54  1  0
 32 55  1  0
 32 56  1  0
 33 57  1  0
 33 58  1  0
M  CHG  2   3  -1  18  -1
M  END
>  <UniqueID>  (35) 
33

>  <SMILES>  (35) 
O=C([N-]c1ccccc1C(=O)N=c1cccc[n-]1)Nc1ccccc1N1CCC(CO)CC1

>  <Energy>  (35) 
85.66009413889603

>  <Genealogy>  (35) 
O=C([N-]c1ccccc1C(=O)N=c1cccc[n-]1)Nc1ccccc1N1CCC(CO)CC1 (protonated)
O=C([N-]c1ccccc1C(=O)N=c1cccc[n-]1)Nc1ccccc1N1CCC(CO)CC1 (3D coordinates assigned)
O=C([N-]c1ccccc1C(=O)N=c1cccc[n-]1)Nc1ccccc1N1CCC(CO)CC1 (nonaromatic ring conformer: 85.66009413889603 kcal/mol)

>  <smiles>  (35) 
O=C(Nc1ccccc1C(=O)N=c1cccc[nH]1)Nc1ccccc1N1CCC(CO)CC1

>  <score_type>  (35) 
oracle

>  <origin>  (35) 
adg

>  <m_score__min__energy>  (35) 
-13.109999999999999

>  <m_primary>  (35) 
energy

$$$$
35:0
     RDKit          3D

 28 29  0  0  0  0  0  0  0  0999 V2000
   56.8580   30.9420   45.0480 O   0  0  0  0  0  0  0  0  0  0  0  0
   56.5530   29.7360   45.2470 C   0  0  0  0  0  0  0  0  0  0  0  0
   55.2380   29.3260   45.0700 O   0  0  0  0  0  0  0  0  0  0  0  0
   57.6040   28.7320   45.6210 C   0  0  0  0  0  0  0  0  0  0  0  0
   57.6160   27.5580   44.6670 C   0  0  0  0  0  0  0  0  0  0  0  0
   57.8250   27.8190   43.2990 C   0  0  0  0  0  0  0  0  0  0  0  0
   57.8860   26.7760   42.3750 C   0  0  0  0  0  0  0  0  0  0  0  0
   57.7590   25.4570   42.8030 C   0  0  0  0  0  0  0  0  0  0  0  0
   57.5600   25.1770   44.1550 C   0  0  0  0  0  0  0  0  0  0  0  0
   57.4640   26.2140   45.0950 C   0  0  0  0  0  0  0  0  0  0  0  0
   57.2390   25.7560   46.8290 S   0  0  0  0  0  0  0  0  0  0  0  0
   55.9350   24.5510   46.5060 C   0  0  0  0  0  0  0  0  0  0  0  0
   54.6990   24.9580   45.9840 C   0  0  0  0  0  0  0  0  0  0  0  0
   54.4600   26.2940   45.6810 O   0  0  0  0  0  0  0  0  0  0  0  0
   53.6950   24.0150   45.7510 C   0  0  0  0  0  0  0  0  0  0  0  0
   53.9460   22.6690   46.0180 C   0  0  0  0  0  0  0  0  0  0  0  0
   55.1630   22.2790   46.4820 N   0  0  0  0  0  0  0  0  0  0  0  0
   56.1600   23.1790   46.7150 C   0  0  0  0  0  0  0  0  0  0  0  0
   57.2880   22.7700   47.0990 O   0  0  0  0  0  0  0  0  0  0  0  0
   58.5891   29.2209   45.5981 H   0  0  0  0  0  0  0  0  0  0  0  0
   57.3766   28.3545   46.6289 H   0  0  0  0  0  0  0  0  0  0  0  0
   57.9415   28.8574   42.9552 H   0  0  0  0  0  0  0  0  0  0  0  0
   58.0345   26.9955   41.3074 H   0  0  0  0  0  0  0  0  0  0  0  0
   57.8157   24.6350   42.0742 H   0  0  0  0  0  0  0  0  0  0  0  0
   57.4775   24.1318   44.4877 H   0  0  0  0  0  0  0  0  0  0  0  0
   52.7162   24.3307   45.3608 H   0  0  0  0  0  0  0  0  0  0  0  0
   53.1568   21.9208   45.8526 H   0  0  0  0  0  0  0  0  0  0  0  0
   55.3340   21.2630   46.6520 H   0  0  0  0  0  0  0  0  0  0  0  0
  1  2  2  0
  2  3  1  0
  2  4  1  0
  4  5  1  0
  5  6  2  0
  6  7  1  0
  7  8  2  0
  8  9  1  0
  9 10  2  0
 10 11  1  0
 11 12  1  0
 12 13  2  0
 13 14  1  0
 13 15  1  0
 15 16  2  0
 16 17  1  0
 17 18  1  0
 18 19  2  0
 10  5  1  0
 18 12  1  0
  4 20  1  0
  4 21  1  0
  6 22  1  0
  7 23  1  0
  8 24  1  0
  9 25  1  0
 15 26  1  0
 16 27  1  0
 17 28  1  0
M  CHG  2   3  -1  14  -1
M  END
>  <UniqueID>  (36) 
34

>  <SMILES>  (36) 
O=C([O-])Cc1ccccc1Sc1c([O-])cc[nH]c1=O

>  <Energy>  (36) 
28.39104993294581

>  <Genealogy>  (36) 
O=C([O-])Cc1ccccc1Sc1c([O-])cc[nH]c1=O (protonated)
O=C([O-])Cc1ccccc1Sc1c([O-])cc[nH]c1=O (3D coordinates assigned)
O=C([O-])Cc1ccccc1Sc1c([O-])cc[nH]c1=O (optimized conformer: 28.39104993294581 kcal/mol)

>  <smiles>  (36) 
O=C(O)Cc1ccccc1Sc1c(O)cc[nH]c1=O

>  <score_type>  (36) 
oracle

>  <origin>  (36) 
adg

>  <m_score__min__energy>  (36) 
-11.630000000000001

>  <m_primary>  (36) 
energy

$$$$
36:0
     RDKit          3D

 57 60  0  0  0  0  0  0  0  0999 V2000
   55.1450   29.1290   44.8110 N   0  0  0  0  0  0  0  0  0  0  0  0
   56.5640   29.2350   44.8840 C   0  0  0  0  0  0  0  0  0  0  0  0
   57.2390   28.3000   45.3890 O   0  0  0  0  0  0  0  0  0  0  0  0
   57.2510   30.4450   44.3300 C   0  0  0  0  0  0  0  0  0  0  0  0
   57.1160   31.5500   45.2210 O   0  0  0  0  0  0  0  0  0  0  0  0
   58.0220   32.6210   45.3370 C   0  0  0  0  0  0  0  0  0  0  0  0
   57.7670   33.8880   44.7730 C   0  0  0  0  0  0  0  0  0  0  0  0
   58.6960   34.9230   44.9140 C   0  0  0  0  0  0  0  0  0  0  0  0
   59.8810   34.7120   45.6200 C   0  0  0  0  0  0  0  0  0  0  0  0
   60.1450   33.4630   46.1860 C   0  0  0  0  0  0  0  0  0  0  0  0
   59.2270   32.4130   46.0390 C   0  0  0  0  0  0  0  0  0  0  0  0
   59.5260   31.0970   46.6300 C   0  0  0  0  0  0  0  0  0  0  0  0
   60.0290   30.0870   45.7950 C   0  0  0  0  0  0  0  0  0  0  0  0
   60.3130   28.8200   46.3090 C   0  0  0  0  0  0  0  0  0  0  0  0
   60.0940   28.5490   47.6600 C   0  0  0  0  0  0  0  0  0  0  0  0
   59.5980   29.5450   48.5030 C   0  0  0  0  0  0  0  0  0  0  0  0
   59.3200   30.8290   48.0060 C   0  0  0  0  0  0  0  0  0  0  0  0
   58.6630   32.0470   49.1110 S   0  0  0  0  0  0  0  0  0  0  0  0
   57.7340   32.9550   48.3530 O   0  0  0  0  0  0  0  0  0  0  0  0
   57.8970   31.3970   50.2290 O   0  0  0  0  0  0  0  0  0  0  0  0
   59.9780   32.9710   49.7560 N   0  0  0  0  0  0  0  0  0  0  0  0
   61.3440   32.7230   49.3950 C   0  0  0  0  0  0  0  0  0  0  0  0
   61.9930   33.5420   48.4550 C   0  0  0  0  0  0  0  0  0  0  0  0
   63.3410   33.3370   48.1500 C   0  0  0  0  0  0  0  0  0  0  0  0
   64.0540   32.3160   48.7820 C   0  0  0  0  0  0  0  0  0  0  0  0
   63.4190   31.4930   49.7140 C   0  0  0  0  0  0  0  0  0  0  0  0
   62.0630   31.6830   50.0230 C   0  0  0  0  0  0  0  0  0  0  0  0
   61.4060   30.7940   50.9400 N   0  0  0  0  0  0  0  0  0  0  0  0
   61.7370   29.3660   50.9350 C   0  0  0  0  0  0  0  0  0  0  0  0
   60.5140   28.5600   51.3830 C   0  0  0  0  0  0  0  0  0  0  0  0
   60.0170   29.0450   52.6170 O   0  0  0  0  0  0  0  0  0  0  0  0
   59.5410   30.3700   52.4600 C   0  0  0  0  0  0  0  0  0  0  0  0
   60.6840   31.3240   52.0960 C   0  0  0  0  0  0  0  0  0  0  0  0
   54.5470   29.3400   45.6410 H   0  0  0  0  0  0  0  0  0  0  0  0
   58.3190   30.2220   44.1897 H   0  0  0  0  0  0  0  0  0  0  0  0
   56.7875   30.7067   43.3673 H   0  0  0  0  0  0  0  0  0  0  0  0
   56.8326   34.0628   44.2195 H   0  0  0  0  0  0  0  0  0  0  0  0
   58.4922   35.9071   44.4669 H   0  0  0  0  0  0  0  0  0  0  0  0
   60.6078   35.5302   45.7308 H   0  0  0  0  0  0  0  0  0  0  0  0
   61.0762   33.3022   46.7491 H   0  0  0  0  0  0  0  0  0  0  0  0
   60.2006   30.2949   44.7286 H   0  0  0  0  0  0  0  0  0  0  0  0
   60.7096   28.0351   45.6483 H   0  0  0  0  0  0  0  0  0  0  0  0
   60.3126   27.5486   48.0616 H   0  0  0  0  0  0  0  0  0  0  0  0
   59.4233   29.3223   49.5660 H   0  0  0  0  0  0  0  0  0  0  0  0
   59.7700   33.5880   50.5720 H   0  0  0  0  0  0  0  0  0  0  0  0
   61.4363   34.3492   47.9565 H   0  0  0  0  0  0  0  0  0  0  0  0
   63.8412   33.9805   47.4113 H   0  0  0  0  0  0  0  0  0  0  0  0
   65.1169   32.1601   48.5453 H   0  0  0  0  0  0  0  0  0  0  0  0
   63.9850   30.6904   50.2094 H   0  0  0  0  0  0  0  0  0  0  0  0
   62.0266   29.0597   49.9190 H   0  0  0  0  0  0  0  0  0  0  0  0
   62.5733   29.1797   51.6249 H   0  0  0  0  0  0  0  0  0  0  0  0
   59.7270   28.6441   50.6191 H   0  0  0  0  0  0  0  0  0  0  0  0
   60.8120   27.5089   51.5114 H   0  0  0  0  0  0  0  0  0  0  0  0
   58.7874   30.3891   51.6589 H   0  0  0  0  0  0  0  0  0  0  0  0
   59.0992   30.6991   53.4121 H   0  0  0  0  0  0  0  0  0  0  0  0
   60.2722   32.3139   51.8499 H   0  0  0  0  0  0  0  0  0  0  0  0
   61.3720   31.4174   52.9492 H   0  0  0  0  0  0  0  0  0  0  0  0
  1  2  1  0
  2  3  2  0
  2  4  1  0
  4  5  1  0
  5  6  1  0
  6  7  2  0
  7  8  1  0
  8  9  2  0
  9 10  1  0
 10 11  2  0
 11 12  1  0
 12 13  2  0
 13 14  1  0
 14 15  2  0
 15 16  1  0
 16 17  2  0
 17 18  1  0
 18 19  2  0
 18 20  2  0
 18 21  1  0
 21 22  1  0
 22 23  2  0
 23 24  1  0
 24 25  2  0
 25 26  1  0
 26 27  2  0
 27 28  1  0
 28 29  1  0
 29 30  1  0
 30 31  1  0
 31 32  1  0
 32 33  1  0
 11  6  1  0
 17 12  1  0
 27 22  1  0
 33 28  1  0
  1 34  1  0
  4 35  1  0
  4 36  1  0
  7 37  1  0
  8 38  1  0
  9 39  1  0
 10 40  1  0
 13 41  1  0
 14 42  1  0
 15 43  1  0
 16 44  1  0
 21 45  1  0
 23 46  1  0
 24 47  1  0
 25 48  1  0
 26 49  1  0
 29 50  1  0
 29 51  1  0
 30 52  1  0
 30 53  1  0
 32 54  1  0
 32 55  1  0
 33 56  1  0
 33 57  1  0
M  CHG  1   1  -1
M  END
>  <UniqueID>  (37) 
35

>  <SMILES>  (37) 
[NH-]C(=O)COc1ccccc1-c1ccccc1S(=O)(=O)Nc1ccccc1N1CCOCC1

>  <Energy>  (37) 
75.94979721941006

>  <Genealogy>  (37) 
[NH-]C(=O)COc1ccccc1-c1ccccc1S(=O)(=O)Nc1ccccc1N1CCOCC1 (protonated)
[NH-]C(=O)COc1ccccc1-c1ccccc1S(=O)(=O)Nc1ccccc1N1CCOCC1 (3D coordinates assigned)
[NH-]C(=O)COc1ccccc1-c1ccccc1S(=O)(=O)Nc1ccccc1N1CCOCC1 (nonaromatic ring conformer: 75.94979721941006 kcal/mol)

>  <smiles>  (37) 
NC(=O)COc1ccccc1-c1ccccc1S(=O)(=O)Nc1ccccc1N1CCOCC1

>  <score_type>  (37) 
oracle

>  <origin>  (37) 
adg

>  <m_score__min__energy>  (37) 
-12.220000000000001

>  <m_primary>  (37) 
energy

$$$$
37:0
     RDKit          3D

 53 55  0  0  0  0  0  0  0  0999 V2000
   55.2330   29.3960   44.8670 O   0  0  0  0  0  0  0  0  0  0  0  0
   56.2850   29.9830   44.4990 C   0  0  0  0  0  0  0  0  0  0  0  0
   57.3220   29.2130   43.7340 C   0  0  0  0  0  0  0  0  0  0  0  0
   58.9740   29.4000   44.4990 S   0  0  0  0  0  0  0  0  0  0  0  0
   58.7730   28.0390   45.6620 C   0  0  0  0  0  0  0  0  0  0  0  0
   58.1130   26.8810   45.2300 C   0  0  0  0  0  0  0  0  0  0  0  0
   57.9360   25.8030   46.1000 C   0  0  0  0  0  0  0  0  0  0  0  0
   58.4130   25.8770   47.4080 C   0  0  0  0  0  0  0  0  0  0  0  0
   59.0550   27.0340   47.8560 C   0  0  0  0  0  0  0  0  0  0  0  0
   59.2240   28.1370   46.9970 C   0  0  0  0  0  0  0  0  0  0  0  0
   59.8950   29.3250   47.4580 N   0  0  0  0  0  0  0  0  0  0  0  0
   59.5570   30.0030   48.6790 C   0  0  0  0  0  0  0  0  0  0  0  0
   58.5050   29.7040   49.3070 O   0  0  0  0  0  0  0  0  0  0  0  0
   60.4290   31.1120   49.1940 C   0  0  0  0  0  0  0  0  0  0  0  0
   61.8780   30.9290   48.7250 C   0  0  0  0  0  0  0  0  0  0  0  0
   62.0430   31.3650   47.3360 N   0  0  0  0  0  0  0  0  0  0  0  0
   62.9090   32.8730   47.2150 S   0  0  0  0  0  0  0  0  0  0  0  0
   64.1490   32.6590   46.3900 O   0  0  0  0  0  0  0  0  0  0  0  0
   62.0840   33.9520   46.5660 O   0  0  0  0  0  0  0  0  0  0  0  0
   63.3740   33.3940   48.8250 C   0  0  0  0  0  0  0  0  0  0  0  0
   62.6430   34.2370   49.6470 C   0  0  0  0  0  0  0  0  0  0  0  0
   63.2730   34.4820   50.8720 C   0  0  0  0  0  0  0  0  0  0  0  0
   64.4980   33.8370   51.0100 C   0  0  0  0  0  0  0  0  0  0  0  0
   64.7960   32.9580   49.6070 S   0  0  0  0  0  0  0  0  0  0  0  0
   56.4710   31.3560   44.8600 N   0  0  0  0  0  0  0  0  0  0  0  0
   57.4370   32.2500   44.2350 C   0  0  0  0  0  0  0  0  0  0  0  0
   58.1200   33.0650   45.2960 C   0  0  0  0  0  0  0  0  0  0  0  0
   58.0330   32.6880   46.6470 C   0  0  0  0  0  0  0  0  0  0  0  0
   58.6470   33.4650   47.6350 C   0  0  0  0  0  0  0  0  0  0  0  0
   59.3380   34.6280   47.2830 C   0  0  0  0  0  0  0  0  0  0  0  0
   59.4130   35.0200   45.9430 C   0  0  0  0  0  0  0  0  0  0  0  0
   58.8020   34.2450   44.9520 C   0  0  0  0  0  0  0  0  0  0  0  0
   57.0471   28.1479   43.7273 H   0  0  0  0  0  0  0  0  0  0  0  0
   57.3644   29.6063   42.7076 H   0  0  0  0  0  0  0  0  0  0  0  0
   57.7321   26.8206   44.1998 H   0  0  0  0  0  0  0  0  0  0  0  0
   57.4202   24.8954   45.7533 H   0  0  0  0  0  0  0  0  0  0  0  0
   58.2835   25.0226   48.0886 H   0  0  0  0  0  0  0  0  0  0  0  0
   59.4316   27.0839   48.8883 H   0  0  0  0  0  0  0  0  0  0  0  0
   60.6470   29.7400   46.8630 H   0  0  0  0  0  0  0  0  0  0  0  0
   60.0478   32.0737   48.8200 H   0  0  0  0  0  0  0  0  0  0  0  0
   60.4097   31.0936   50.2937 H   0  0  0  0  0  0  0  0  0  0  0  0
   62.5418   31.5241   49.3694 H   0  0  0  0  0  0  0  0  0  0  0  0
   62.1328   29.8608   48.7880 H   0  0  0  0  0  0  0  0  0  0  0  0
   61.6706   34.6678   49.3661 H   0  0  0  0  0  0  0  0  0  0  0  0
   62.8402   35.1245   51.6530 H   0  0  0  0  0  0  0  0  0  0  0  0
   65.1592   33.8924   51.8873 H   0  0  0  0  0  0  0  0  0  0  0  0
   58.1855   31.6576   43.6884 H   0  0  0  0  0  0  0  0  0  0  0  0
   56.9182   32.9199   43.5335 H   0  0  0  0  0  0  0  0  0  0  0  0
   57.4805   31.7794   46.9284 H   0  0  0  0  0  0  0  0  0  0  0  0
   58.5860   33.1604   48.6902 H   0  0  0  0  0  0  0  0  0  0  0  0
   59.8233   35.2355   48.0611 H   0  0  0  0  0  0  0  0  0  0  0  0
   59.9527   35.9382   45.6681 H   0  0  0  0  0  0  0  0  0  0  0  0
   58.8553   34.5600   43.8994 H   0  0  0  0  0  0  0  0  0  0  0  0
  1  2  2  0
  2  3  1  0
  3  4  1  0
  4  5  1  0
  5  6  2  0
  6  7  1  0
  7  8  2  0
  8  9  1  0
  9 10  2  0
 10 11  1  0
 11 12  1  0
 12 13  2  0
 12 14  1  0
 14 15  1  0
 15 16  1  0
 16 17  1  0
 17 18  2  0
 17 19  2  0
 17 20  1  0
 20 21  2  0
 21 22  1  0
 22 23  2  0
 23 24  1  0
  2 25  1  0
 25 26  1  0
 26 27  1  0
 27 28  2  0
 28 29  1  0
 29 30  2  0
 30 31  1  0
 31 32  2  0
 10  5  1  0
 24 20  1  0
 32 27  1  0
  3 33  1  0
  3 34  1  0
  6 35  1  0
  7 36  1  0
  8 37  1  0
  9 38  1  0
 11 39  1  0
 14 40  1  0
 14 41  1  0
 15 42  1  0
 15 43  1  0
 21 44  1  0
 22 45  1  0
 23 46  1  0
 26 47  1  0
 26 48  1  0
 28 49  1  0
 29 50  1  0
 30 51  1  0
 31 52  1  0
 32 53  1  0
M  CHG  2  16  -1  25  -1
M  END
>  <UniqueID>  (38) 
36

>  <SMILES>  (38) 
O=C(CSc1ccccc1NC(=O)CC[N-]S(=O)(=O)c1cccs1)[N-]Cc1ccccc1

>  <Energy>  (38) 
76.08550945766957

>  <Genealogy>  (38) 
O=C(CSc1ccccc1NC(=O)CC[N-]S(=O)(=O)c1cccs1)[N-]Cc1ccccc1 (protonated)
O=C(CSc1ccccc1NC(=O)CC[N-]S(=O)(=O)c1cccs1)[N-]Cc1ccccc1 (3D coordinates assigned)
O=C(CSc1ccccc1NC(=O)CC[N-]S(=O)(=O)c1cccs1)[N-]Cc1ccccc1 (optimized conformer: 76.08550945766957 kcal/mol)

>  <smiles>  (38) 
O=C(CSc1ccccc1NC(=O)CCNS(=O)(=O)c1cccs1)NCc1ccccc1

>  <score_type>  (38) 
oracle

>  <origin>  (38) 
adg

>  <m_score__min__energy>  (38) 
-13.02

>  <m_primary>  (38) 
energy

$$$$
38:0
     RDKit          3D

 43 45  0  0  0  0  0  0  0  0999 V2000
   59.3070   33.8430   48.6330 C   0  0  0  0  0  0  0  0  0  0  0  0
   58.8430   33.8360   47.2030 C   0  0  0  0  0  0  0  0  0  0  0  0
   57.5300   33.4470   46.8910 C   0  0  0  0  0  0  0  0  0  0  0  0
   57.0940   33.4290   45.5650 C   0  0  0  0  0  0  0  0  0  0  0  0
   57.9660   33.7970   44.5390 C   0  0  0  0  0  0  0  0  0  0  0  0
   59.2750   34.1820   44.8350 C   0  0  0  0  0  0  0  0  0  0  0  0
   59.7290   34.2020   46.1700 C   0  0  0  0  0  0  0  0  0  0  0  0
   61.0430   34.5760   46.5060 O   0  0  0  0  0  0  0  0  0  0  0  0
   62.1720   33.7020   46.5230 C   0  0  0  0  0  0  0  0  0  0  0  0
   61.8450   32.4360   47.2510 C   0  0  0  0  0  0  0  0  0  0  0  0
   62.2280   32.1250   48.5400 C   0  0  0  0  0  0  0  0  0  0  0  0
   61.7030   30.8760   48.7960 C   0  0  0  0  0  0  0  0  0  0  0  0
   61.0240   30.5110   47.6450 C   0  0  0  0  0  0  0  0  0  0  0  0
   60.2980   29.2510   47.4130 C   0  0  0  0  0  0  0  0  0  0  0  0
   60.5390   28.2640   48.1590 O   0  0  0  0  0  0  0  0  0  0  0  0
   59.3330   29.1360   46.3550 N   0  0  0  0  0  0  0  0  0  0  0  0
   58.5350   27.9560   46.1790 C   0  0  0  0  0  0  0  0  0  0  0  0
   59.1140   26.7120   46.4690 C   0  0  0  0  0  0  0  0  0  0  0  0
   58.3600   25.5400   46.3800 C   0  0  0  0  0  0  0  0  0  0  0  0
   57.0220   25.5990   45.9930 C   0  0  0  0  0  0  0  0  0  0  0  0
   56.4380   26.8270   45.6740 C   0  0  0  0  0  0  0  0  0  0  0  0
   57.1850   28.0180   45.7410 C   0  0  0  0  0  0  0  0  0  0  0  0
   56.5550   29.2860   45.2980 C   0  0  0  0  0  0  0  0  0  0  0  0
   55.1880   29.3040   44.8880 N   0  0  0  0  0  0  0  0  0  0  0  0
   57.2230   30.3530   45.2500 O   0  0  0  0  0  0  0  0  0  0  0  0
   61.1250   31.4610   46.7460 O   0  0  0  0  0  0  0  0  0  0  0  0
   58.4338   33.8298   49.3019 H   0  0  0  0  0  0  0  0  0  0  0  0
   59.9269   32.9541   48.8217 H   0  0  0  0  0  0  0  0  0  0  0  0
   59.8998   34.7502   48.8217 H   0  0  0  0  0  0  0  0  0  0  0  0
   56.8407   33.1546   47.6968 H   0  0  0  0  0  0  0  0  0  0  0  0
   56.0636   33.1249   45.3287 H   0  0  0  0  0  0  0  0  0  0  0  0
   57.6210   33.7836   43.4946 H   0  0  0  0  0  0  0  0  0  0  0  0
   59.9566   34.4716   44.0216 H   0  0  0  0  0  0  0  0  0  0  0  0
   62.4586   33.4609   45.4887 H   0  0  0  0  0  0  0  0  0  0  0  0
   63.0028   34.2047   47.0398 H   0  0  0  0  0  0  0  0  0  0  0  0
   62.8280   32.7453   49.2221 H   0  0  0  0  0  0  0  0  0  0  0  0
   61.8027   30.2908   49.7221 H   0  0  0  0  0  0  0  0  0  0  0  0
   59.3640   29.8210   45.5670 H   0  0  0  0  0  0  0  0  0  0  0  0
   60.1709   26.6590   46.7691 H   0  0  0  0  0  0  0  0  0  0  0  0
   58.8220   24.5699   46.6153 H   0  0  0  0  0  0  0  0  0  0  0  0
   56.4251   24.6767   45.9388 H   0  0  0  0  0  0  0  0  0  0  0  0
   55.3824   26.8637   45.3669 H   0  0  0  0  0  0  0  0  0  0  0  0
   54.4170   29.3430   45.5920 H   0  0  0  0  0  0  0  0  0  0  0  0
  1  2  1  0
  2  3  2  0
  3  4  1  0
  4  5  2  0
  5  6  1  0
  6  7  2  0
  7  8  1  0
  8  9  1  0
  9 10  1  0
 10 11  2  0
 11 12  1  0
 12 13  2  0
 13 14  1  0
 14 15  2  0
 14 16  1  0
 16 17  1  0
 17 18  2  0
 18 19  1  0
 19 20  2  0
 20 21  1  0
 21 22  2  0
 22 23  1  0
 23 24  1  0
 23 25  2  0
 13 26  1  0
  7  2  1  0
 26 10  1  0
 22 17  1  0
  1 27  1  0
  1 28  1  0
  1 29  1  0
  3 30  1  0
  4 31  1  0
  5 32  1  0
  6 33  1  0
  9 34  1  0
  9 35  1  0
 11 36  1  0
 12 37  1  0
 16 38  1  0
 18 39  1  0
 19 40  1  0
 20 41  1  0
 21 42  1  0
 24 43  1  0
M  CHG  1  24  -1
M  END
>  <UniqueID>  (39) 
37

>  <SMILES>  (39) 
Cc1ccccc1OCc1ccc(C(=O)Nc2ccccc2C([NH-])=O)o1

>  <Energy>  (39) 
78.15792713473013

>  <Genealogy>  (39) 
Cc1ccccc1OCc1ccc(C(=O)Nc2ccccc2C([NH-])=O)o1 (protonated)
Cc1ccccc1OCc1ccc(C(=O)Nc2ccccc2C([NH-])=O)o1 (3D coordinates assigned)
Cc1ccccc1OCc1ccc(C(=O)Nc2ccccc2C([NH-])=O)o1 (optimized conformer: 78.15792713473013 kcal/mol)

>  <smiles>  (39) 
Cc1ccccc1OCc1ccc(C(=O)Nc2ccccc2C(N)=O)o1

>  <score_type>  (39) 
oracle

>  <origin>  (39) 
adg

>  <m_score__min__energy>  (39) 
-11.83

>  <m_primary>  (39) 
energy

$$$$
39:0
     RDKit          3D

 54 57  0  0  0  0  0  0  0  0999 V2000
   57.5420   33.7330   44.8870 C   0  0  0  0  0  0  0  0  0  0  0  0
   56.8670   32.5610   45.3240 O   0  0  0  0  0  0  0  0  0  0  0  0
   57.1420   31.2620   44.8650 C   0  0  0  0  0  0  0  0  0  0  0  0
   56.3190   30.6330   43.9110 C   0  0  0  0  0  0  0  0  0  0  0  0
   56.6420   29.3660   43.4200 C   0  0  0  0  0  0  0  0  0  0  0  0
   57.7880   28.7120   43.8710 C   0  0  0  0  0  0  0  0  0  0  0  0
   58.2040   27.1290   43.2330 Cl  0  0  0  0  0  0  0  0  0  0  0  0
   58.6020   29.3150   44.8340 C   0  0  0  0  0  0  0  0  0  0  0  0
   58.2830   30.5830   45.3470 C   0  0  0  0  0  0  0  0  0  0  0  0
   59.1790   31.2030   46.3560 C   0  0  0  0  0  0  0  0  0  0  0  0
   59.9520   32.1390   46.0200 O   0  0  0  0  0  0  0  0  0  0  0  0
   59.1420   30.7920   47.7330 N   0  0  0  0  0  0  0  0  0  0  0  0
   59.5770   29.6550   48.2060 C   0  0  0  0  0  0  0  0  0  0  0  0
   59.1760   28.4160   47.6670 C   0  0  0  0  0  0  0  0  0  0  0  0
   59.6920   27.2220   48.1940 C   0  0  0  0  0  0  0  0  0  0  0  0
   59.3390   25.9720   47.6630 O   0  0  0  0  0  0  0  0  0  0  0  0
   58.0360   25.6410   47.2740 C   0  0  0  0  0  0  0  0  0  0  0  0
   57.3500   26.4180   46.3280 C   0  0  0  0  0  0  0  0  0  0  0  0
   56.0830   26.0260   45.8860 C   0  0  0  0  0  0  0  0  0  0  0  0
   55.4840   24.8600   46.3800 C   0  0  0  0  0  0  0  0  0  0  0  0
   54.2360   24.4460   45.8100 N   0  0  0  0  0  0  0  0  0  0  0  0
   53.9490   23.2400   45.0910 C   0  0  0  0  0  0  0  0  0  0  0  0
   52.8490   22.6440   45.2420 O   0  0  0  0  0  0  0  0  0  0  0  0
   54.9230   22.6850   44.1990 N   0  0  0  0  0  0  0  0  0  0  0  0
   56.2760   22.3590   44.5420 C   0  0  0  0  0  0  0  0  0  0  0  0
   57.3000   23.2360   44.1570 C   0  0  0  0  0  0  0  0  0  0  0  0
   58.6290   22.9660   44.5040 C   0  0  0  0  0  0  0  0  0  0  0  0
   58.9400   21.8290   45.2620 C   0  0  0  0  0  0  0  0  0  0  0  0
   60.2620   21.5730   45.6120 O   0  0  0  0  0  0  0  0  0  0  0  0
   57.9160   20.9610   45.6720 C   0  0  0  0  0  0  0  0  0  0  0  0
   56.5910   21.2290   45.3190 C   0  0  0  0  0  0  0  0  0  0  0  0
   56.1650   24.0970   47.3480 C   0  0  0  0  0  0  0  0  0  0  0  0
   57.4220   24.5030   47.8080 C   0  0  0  0  0  0  0  0  0  0  0  0
   60.6150   27.2840   49.2400 C   0  0  0  0  0  0  0  0  0  0  0  0
   61.0030   28.5280   49.7450 C   0  0  0  0  0  0  0  0  0  0  0  0
   60.4860   29.6710   49.2190 N   0  0  0  0  0  0  0  0  0  0  0  0
   57.8753   34.3117   45.7611 H   0  0  0  0  0  0  0  0  0  0  0  0
   58.4149   33.4489   44.2808 H   0  0  0  0  0  0  0  0  0  0  0  0
   56.8583   34.3454   44.2808 H   0  0  0  0  0  0  0  0  0  0  0  0
   55.4143   31.1437   43.5495 H   0  0  0  0  0  0  0  0  0  0  0  0
   55.9912   28.8832   42.6762 H   0  0  0  0  0  0  0  0  0  0  0  0
   59.5004   28.7919   45.1933 H   0  0  0  0  0  0  0  0  0  0  0  0
   58.4588   28.3849   46.8335 H   0  0  0  0  0  0  0  0  0  0  0  0
   57.8096   27.3364   45.9339 H   0  0  0  0  0  0  0  0  0  0  0  0
   55.5514   26.6389   45.1433 H   0  0  0  0  0  0  0  0  0  0  0  0
   57.0579   24.1404   43.5796 H   0  0  0  0  0  0  0  0  0  0  0  0
   59.4302   23.6471   44.1813 H   0  0  0  0  0  0  0  0  0  0  0  0
   60.7160   20.7070   45.3480 H   0  0  0  0  0  0  0  0  0  0  0  0
   58.1565   20.0702   46.2709 H   0  0  0  0  0  0  0  0  0  0  0  0
   55.7893   20.5526   45.6505 H   0  0  0  0  0  0  0  0  0  0  0  0
   55.7069   23.1786   47.7437 H   0  0  0  0  0  0  0  0  0  0  0  0
   57.9303   23.9246   48.5936 H   0  0  0  0  0  0  0  0  0  0  0  0
   61.0341   26.3595   49.6638 H   0  0  0  0  0  0  0  0  0  0  0  0
   61.7284   28.5830   50.5701 H   0  0  0  0  0  0  0  0  0  0  0  0
  1  2  1  0
  2  3  1  0
  3  4  2  0
  4  5  1  0
  5  6  2  0
  6  7  1  0
  6  8  1  0
  8  9  2  0
  9 10  1  0
 10 11  2  0
 10 12  1  0
 12 13  2  3
 13 14  1  0
 14 15  2  0
 15 16  1  0
 16 17  1  0
 17 18  2  0
 18 19  1  0
 19 20  2  0
 20 21  1  0
 21 22  1  0
 22 23  2  0
 22 24  1  0
 24 25  1  0
 25 26  2  0
 26 27  1  0
 27 28  2  0
 28 29  1  0
 28 30  1  0
 30 31  2  0
 20 32  1  0
 32 33  2  0
 15 34  1  0
 34 35  2  0
 35 36  1  0
  9  3  1  0
 36 13  1  0
 33 17  1  0
 31 25  1  0
  1 37  1  0
  1 38  1  0
  1 39  1  0
  4 40  1  0
  5 41  1  0
  8 42  1  0
 14 43  1  0
 18 44  1  0
 19 45  1  0
 26 46  1  0
 27 47  1  0
 29 48  1  0
 30 49  1  0
 31 50  1  0
 32 51  1  0
 33 52  1  0
 34 53  1  0
 35 54  1  0
M  CHG  3  21  -1  24  -1  36  -1
M  END
>  <UniqueID>  (40) 
38

>  <SMILES>  (40) 
COc1ccc(Cl)cc1C(=O)N=c1cc(Oc2ccc([N-]C(=O)[N-]c3ccc(O)cc3)cc2)cc[n-]1

>  <Energy>  (40) 
80.64013190472566

>  <Genealogy>  (40) 
COc1ccc(Cl)cc1C(=O)N=c1cc(Oc2ccc([N-]C(=O)[N-]c3ccc(O)cc3)cc2)cc[n-]1 (protonated)
COc1ccc(Cl)cc1C(=O)N=c1cc(Oc2ccc([N-]C(=O)[N-]c3ccc(O)cc3)cc2)cc[n-]1 (3D coordinates assigned)
COc1ccc(Cl)cc1C(=O)N=c1cc(Oc2ccc([N-]C(=O)[N-]c3ccc(O)cc3)cc2)cc[n-]1 (optimized conformer: 80.64013190472566 kcal/mol)

>  <smiles>  (40) 
COc1ccc(Cl)cc1C(=O)N=c1cc(Oc2ccc(NC(=O)Nc3ccc(O)cc3)cc2)cc[nH]1

>  <score_type>  (40) 
oracle

>  <origin>  (40) 
adg

>  <m_score__min__energy>  (40) 
-14.199999999999999

>  <m_primary>  (40) 
energy

$$$$
40:0
     RDKit          3D

 24 25  0  0  0  0  0  0  0  0999 V2000
   60.3954   29.4117   44.8853 H   0  0  0  0  0  0  0  0  0  0  0  0
   59.2980   29.3430   44.9160 C   0  0  0  0  0  0  0  0  0  0  0  0
   58.6950   28.4590   45.7550 N   0  0  0  0  0  0  0  0  0  0  0  0
   57.3430   28.3310   45.8410 C   0  0  0  0  0  0  0  0  0  0  0  0
   56.8730   27.4570   46.6890 N   0  0  0  0  0  0  0  0  0  0  0  0
   57.1710   26.0570   46.8060 C   0  0  0  0  0  0  0  0  0  0  0  0
   58.0430   25.6760   47.6340 O   0  0  0  0  0  0  0  0  0  0  0  0
   56.5400   25.0830   45.8770 C   0  0  0  0  0  0  0  0  0  0  0  0
   57.3070   24.0230   45.3510 C   0  0  0  0  0  0  0  0  0  0  0  0
   58.3653   23.9249   45.6346 H   0  0  0  0  0  0  0  0  0  0  0  0
   56.7380   23.0950   44.4730 C   0  0  0  0  0  0  0  0  0  0  0  0
   57.7090   21.7830   43.8320 Cl  0  0  0  0  0  0  0  0  0  0  0  0
   55.3960   23.2130   44.1060 C   0  0  0  0  0  0  0  0  0  0  0  0
   54.9483   22.4825   43.4161 H   0  0  0  0  0  0  0  0  0  0  0  0
   54.6230   24.2570   44.6140 C   0  0  0  0  0  0  0  0  0  0  0  0
   53.5662   24.3463   44.3220 H   0  0  0  0  0  0  0  0  0  0  0  0
   55.1820   25.1910   45.4920 C   0  0  0  0  0  0  0  0  0  0  0  0
   54.3770   26.2190   45.9700 O   0  0  0  0  0  0  0  0  0  0  0  0
   56.5300   29.1200   44.9850 C   0  0  0  0  0  0  0  0  0  0  0  0
   55.1490   28.9730   44.9210 O   0  0  0  0  0  0  0  0  0  0  0  0
   57.1370   30.0450   44.1310 C   0  0  0  0  0  0  0  0  0  0  0  0
   56.5165   30.6832   43.4847 H   0  0  0  0  0  0  0  0  0  0  0  0
   58.5250   30.1620   44.0950 C   0  0  0  0  0  0  0  0  0  0  0  0
   59.0049   30.8920   43.4266 H   0  0  0  0  0  0  0  0  0  0  0  0
  1  2  1  0
  2  3  1  0
  3  4  1  0
  4  5  2  0
  5  6  1  0
  6  7  2  0
  6  8  1  0
  8  9  2  0
  9 10  1  0
  9 11  1  0
 11 12  1  0
 11 13  2  0
 13 14  1  0
 13 15  1  0
 15 16  1  0
 15 17  2  0
 17 18  1  0
  4 19  1  0
 19 20  1  0
 19 21  2  0
 21 22  1  0
 21 23  1  0
 23 24  1  0
 23  2  2  0
 17  8  1  0
M  CHG  3   3  -1  18  -1  20  -1
M  END
>  <UniqueID>  (41) 
39

>  <SMILES>  (41) 
O=C(/N=c1/[n-]cccc1[O-])c1cc(Cl)ccc1[O-]

>  <Energy>  (41) 
40.28538756067914

>  <Genealogy>  (41) 
O=C(N=c1[n-]cccc1[O-])c1cc(Cl)ccc1[O-] (protonated)
O=C(/N=c1/[n-]cccc1[O-])c1cc(Cl)ccc1[O-] (cis-trans isomerization)
O=C(/N=c1/[n-]cccc1[O-])c1cc(Cl)ccc1[O-] (3D coordinates assigned)
O=C(/N=c1/[n-]cccc1[O-])c1cc(Cl)ccc1[O-] (optimized conformer: 40.28538756067914 kcal/mol)

>  <smiles>  (41) 
O=C(N=c1[nH]cccc1O)c1cc(Cl)ccc1O

>  <score_type>  (41) 
oracle

>  <origin>  (41) 
adg

>  <m_score__min__energy>  (41) 
-14.779999999999999

>  <m_primary>  (41) 
energy

$$$$
41:0
     RDKit          3D

 26 27  0  0  0  0  0  0  0  0999 V2000
   58.4570   32.8880   46.8740 O   0  0  0  0  0  0  0  0  0  0  0  0
   58.4010   33.0410   45.6250 C   0  0  0  0  0  0  0  0  0  0  0  0
   58.8910   34.2180   45.0690 O   0  0  0  0  0  0  0  0  0  0  0  0
   57.8260   31.9870   44.7610 C   0  0  0  0  0  0  0  0  0  0  0  0
   57.5640   32.2400   43.4030 C   0  0  0  0  0  0  0  0  0  0  0  0
   57.0390   31.2360   42.5850 C   0  0  0  0  0  0  0  0  0  0  0  0
   56.7620   29.9750   43.1140 C   0  0  0  0  0  0  0  0  0  0  0  0
   56.9900   29.7080   44.4710 C   0  0  0  0  0  0  0  0  0  0  0  0
   56.7150   28.3940   44.9840 N   0  0  0  0  0  0  0  0  0  0  0  0
   57.5480   27.7120   45.9380 C   0  0  0  0  0  0  0  0  0  0  0  0
   58.5540   28.2890   46.4320 O   0  0  0  0  0  0  0  0  0  0  0  0
   57.2330   26.3290   46.3650 C   0  0  0  0  0  0  0  0  0  0  0  0
   55.9030   25.8740   46.3820 C   0  0  0  0  0  0  0  0  0  0  0  0
   54.8580   26.7160   46.0170 O   0  0  0  0  0  0  0  0  0  0  0  0
   55.6230   24.6040   46.7740 N   0  0  0  0  0  0  0  0  0  0  0  0
   56.6100   23.7510   47.1470 C   0  0  0  0  0  0  0  0  0  0  0  0
   56.3260   22.5810   47.5100 O   0  0  0  0  0  0  0  0  0  0  0  0
   57.9040   24.1590   47.1260 N   0  0  0  0  0  0  0  0  0  0  0  0
   58.2390   25.4180   46.7400 C   0  0  0  0  0  0  0  0  0  0  0  0
   59.4550   25.7440   46.7010 O   0  0  0  0  0  0  0  0  0  0  0  0
   57.5430   30.7130   45.2860 C   0  0  0  0  0  0  0  0  0  0  0  0
   57.7736   33.2344   42.9819 H   0  0  0  0  0  0  0  0  0  0  0  0
   56.8437   31.4403   41.5219 H   0  0  0  0  0  0  0  0  0  0  0  0
   56.3619   29.1849   42.4616 H   0  0  0  0  0  0  0  0  0  0  0  0
   55.8270   27.9370   44.6770 H   0  0  0  0  0  0  0  0  0  0  0  0
   57.7561   30.5003   46.3440 H   0  0  0  0  0  0  0  0  0  0  0  0
  1  2  2  0
  2  3  1  0
  2  4  1  0
  4  5  2  0
  5  6  1  0
  6  7  2  0
  7  8  1  0
  8  9  1  0
  9 10  1  0
 10 11  2  0
 10 12  1  0
 12 13  2  0
 13 14  1  0
 13 15  1  0
 15 16  1  0
 16 17  2  0
 16 18  1  0
 18 19  1  0
 19 20  2  0
  8 21  2  0
 21  4  1  0
 19 12  1  0
  5 22  1  0
  6 23  1  0
  7 24  1  0
  9 25  1  0
 21 26  1  0
M  CHG  4   3  -1  14  -1  15  -1  18  -1
M  END
>  <UniqueID>  (42) 
40

>  <SMILES>  (42) 
O=C([O-])c1cccc(NC(=O)c2c([O-])[n-]c(=O)[n-]c2=O)c1

>  <Energy>  (42) 
38.964317355009484

>  <Genealogy>  (42) 
O=C([O-])c1cccc(NC(=O)c2c([O-])[n-]c(=O)[n-]c2=O)c1 (protonated)
O=C([O-])c1cccc(NC(=O)c2c([O-])[n-]c(=O)[n-]c2=O)c1 (3D coordinates assigned)
O=C([O-])c1cccc(NC(=O)c2c([O-])[n-]c(=O)[n-]c2=O)c1 (optimized conformer: 38.964317355009484 kcal/mol)

>  <smiles>  (42) 
O=C(O)c1cccc(NC(=O)c2c(O)[nH]c(=O)[nH]c2=O)c1

>  <score_type>  (42) 
oracle

>  <origin>  (42) 
adg

>  <m_score__min__energy>  (42) 
-15.44

>  <m_primary>  (42) 
energy

$$$$
42:0
     RDKit          3D

 40 42  0  0  0  0  0  0  0  0999 V2000
   55.5210   28.9720   45.0850 N   0  0  0  0  0  0  0  0  0  0  0  0
   56.6280   29.6120   43.9230 S   0  0  0  0  0  0  0  0  0  0  0  0
   55.8670   29.9750   42.6800 O   0  0  0  0  0  0  0  0  0  0  0  0
   57.6610   28.5730   43.5910 O   0  0  0  0  0  0  0  0  0  0  0  0
   57.4250   31.0390   44.5790 C   0  0  0  0  0  0  0  0  0  0  0  0
   57.7730   31.0950   45.9360 C   0  0  0  0  0  0  0  0  0  0  0  0
   58.4010   32.2310   46.4560 C   0  0  0  0  0  0  0  0  0  0  0  0
   58.6740   33.3300   45.6260 C   0  0  0  0  0  0  0  0  0  0  0  0
   59.3860   34.5370   46.1750 C   0  0  0  0  0  0  0  0  0  0  0  0
   60.1970   34.1660   47.4140 C   0  0  0  0  0  0  0  0  0  0  0  0
   61.4410   33.5180   47.0050 N   0  0  0  0  0  0  0  0  0  0  0  0
   61.8220   32.2290   48.1060 S   0  0  0  0  0  0  0  0  0  0  0  0
   63.3060   31.9970   48.1020 O   0  0  0  0  0  0  0  0  0  0  0  0
   61.3960   32.6040   49.4980 O   0  0  0  0  0  0  0  0  0  0  0  0
   61.0130   30.7490   47.6180 C   0  0  0  0  0  0  0  0  0  0  0  0
   60.0480   30.0830   48.3670 C   0  0  0  0  0  0  0  0  0  0  0  0
   59.6710   29.0160   47.5810 C   0  0  0  0  0  0  0  0  0  0  0  0
   58.7350   28.0100   47.8080 C   0  0  0  0  0  0  0  0  0  0  0  0
   58.5540   27.0420   46.8020 C   0  0  0  0  0  0  0  0  0  0  0  0
   57.3890   25.7520   47.0320 Cl  0  0  0  0  0  0  0  0  0  0  0  0
   59.3050   27.1070   45.6050 C   0  0  0  0  0  0  0  0  0  0  0  0
   60.2420   28.1380   45.4050 C   0  0  0  0  0  0  0  0  0  0  0  0
   60.3990   29.0790   46.4210 C   0  0  0  0  0  0  0  0  0  0  0  0
   61.2250   30.1390   46.4310 N   0  0  0  0  0  0  0  0  0  0  0  0
   58.3300   33.2690   44.2660 C   0  0  0  0  0  0  0  0  0  0  0  0
   57.7030   32.1320   43.7480 C   0  0  0  0  0  0  0  0  0  0  0  0
   54.5750   29.3450   44.8430 H   0  0  0  0  0  0  0  0  0  0  0  0
   57.5511   30.2420   46.5942 H   0  0  0  0  0  0  0  0  0  0  0  0
   58.6821   32.2637   47.5190 H   0  0  0  0  0  0  0  0  0  0  0  0
   60.0633   34.9377   45.4064 H   0  0  0  0  0  0  0  0  0  0  0  0
   58.6376   35.2930   46.4547 H   0  0  0  0  0  0  0  0  0  0  0  0
   60.4286   35.0761   47.9868 H   0  0  0  0  0  0  0  0  0  0  0  0
   59.6133   33.4766   48.0417 H   0  0  0  0  0  0  0  0  0  0  0  0
   59.6700   30.3492   49.3651 H   0  0  0  0  0  0  0  0  0  0  0  0
   58.1562   27.9730   48.7427 H   0  0  0  0  0  0  0  0  0  0  0  0
   59.1556   26.3462   44.8248 H   0  0  0  0  0  0  0  0  0  0  0  0
   60.8307   28.1990   44.4778 H   0  0  0  0  0  0  0  0  0  0  0  0
   61.8830   30.4360   45.6760 H   0  0  0  0  0  0  0  0  0  0  0  0
   58.5548   34.1194   43.6055 H   0  0  0  0  0  0  0  0  0  0  0  0
   57.4269   32.0954   42.6839 H   0  0  0  0  0  0  0  0  0  0  0  0
  1  2  1  0
  2  3  2  0
  2  4  2  0
  2  5  1  0
  5  6  2  0
  6  7  1  0
  7  8  2  0
  8  9  1  0
  9 10  1  0
 10 11  1  0
 11 12  1  0
 12 13  2  0
 12 14  2  0
 12 15  1  0
 15 16  2  0
 16 17  1  0
 17 18  2  0
 18 19  1  0
 19 20  1  0
 19 21  2  0
 21 22  1  0
 22 23  2  0
 23 24  1  0
  8 25  1  0
 25 26  2  0
 26  5  1  0
 24 15  1  0
 23 17  1  0
  1 27  1  0
  6 28  1  0
  7 29  1  0
  9 30  1  0
  9 31  1  0
 10 32  1  0
 10 33  1  0
 16 34  1  0
 18 35  1  0
 21 36  1  0
 22 37  1  0
 24 38  1  0
 25 39  1  0
 26 40  1  0
M  CHG  2   1  -1  11  -1
M  END
>  <UniqueID>  (43) 
41

>  <SMILES>  (43) 
[NH-]S(=O)(=O)c1ccc(CC[N-]S(=O)(=O)c2cc3cc(Cl)ccc3[nH]2)cc1

>  <Energy>  (43) 
69.35891817248196

>  <Genealogy>  (43) 
[NH-]S(=O)(=O)c1ccc(CC[N-]S(=O)(=O)c2cc3cc(Cl)ccc3[nH]2)cc1 (protonated)
[NH-]S(=O)(=O)c1ccc(CC[N-]S(=O)(=O)c2cc3cc(Cl)ccc3[nH]2)cc1 (3D coordinates assigned)
[NH-]S(=O)(=O)c1ccc(CC[N-]S(=O)(=O)c2cc3cc(Cl)ccc3[nH]2)cc1 (optimized conformer: 69.35891817248196 kcal/mol)

>  <smiles>  (43) 
NS(=O)(=O)c1ccc(CCNS(=O)(=O)c2cc3cc(Cl)ccc3[nH]2)cc1

>  <score_type>  (43) 
oracle

>  <origin>  (43) 
adg

>  <m_score__min__energy>  (43) 
-12.539999999999999

>  <m_primary>  (43) 
energy

$$$$
43:0
     RDKit          3D

 47 50  0  0  0  0  0  0  0  0999 V2000
   59.4200   30.5220   46.9210 C   0  0  0  0  0  0  0  0  0  0  0  0
   59.0690   31.5910   46.1910 C   0  0  0  0  0  0  0  0  0  0  0  0
   58.3570   31.5970   44.9780 C   0  0  0  0  0  0  0  0  0  0  0  0
   57.7230   30.6090   44.3190 C   0  0  0  0  0  0  0  0  0  0  0  0
   57.8440   29.1720   44.6090 C   0  0  0  0  0  0  0  0  0  0  0  0
   59.2910   28.3090   44.6800 S   0  0  0  0  0  0  0  0  0  0  0  0
   58.5460   26.9260   45.2760 C   0  0  0  0  0  0  0  0  0  0  0  0
   59.1630   25.8580   45.5270 O   0  0  0  0  0  0  0  0  0  0  0  0
   57.2100   27.0980   45.4610 N   0  0  0  0  0  0  0  0  0  0  0  0
   56.3140   26.0920   45.9820 C   0  0  0  0  0  0  0  0  0  0  0  0
   55.0720   26.3130   46.0260 O   0  0  0  0  0  0  0  0  0  0  0  0
   56.8220   24.8200   46.4050 N   0  0  0  0  0  0  0  0  0  0  0  0
   56.8440   23.6250   45.6120 C   0  0  0  0  0  0  0  0  0  0  0  0
   56.7340   23.7430   44.2200 C   0  0  0  0  0  0  0  0  0  0  0  0
   56.7580   22.6050   43.4080 C   0  0  0  0  0  0  0  0  0  0  0  0
   56.9130   21.3410   43.9810 C   0  0  0  0  0  0  0  0  0  0  0  0
   57.0580   21.2140   45.3650 C   0  0  0  0  0  0  0  0  0  0  0  0
   57.0400   22.3490   46.1830 C   0  0  0  0  0  0  0  0  0  0  0  0
   57.2530   22.2010   47.5490 O   0  0  0  0  0  0  0  0  0  0  0  0
   56.8270   28.3640   45.1090 C   0  0  0  0  0  0  0  0  0  0  0  0
   55.5200   28.8220   45.2470 O   0  0  0  0  0  0  0  0  0  0  0  0
   58.3880   32.9040   44.5180 C   0  0  0  0  0  0  0  0  0  0  0  0
   59.0540   33.6490   45.4680 C   0  0  0  0  0  0  0  0  0  0  0  0
   59.2850   35.1260   45.3880 C   0  0  0  0  0  0  0  0  0  0  0  0
   59.4560   32.8580   46.4880 N   0  0  0  0  0  0  0  0  0  0  0  0
   60.2240   33.2950   47.6220 C   0  0  0  0  0  0  0  0  0  0  0  0
   61.6030   33.5210   47.4940 C   0  0  0  0  0  0  0  0  0  0  0  0
   62.3540   33.9290   48.6000 C   0  0  0  0  0  0  0  0  0  0  0  0
   61.7340   34.1110   49.8390 C   0  0  0  0  0  0  0  0  0  0  0  0
   60.3600   33.8800   49.9750 C   0  0  0  0  0  0  0  0  0  0  0  0
   59.7450   34.0570   51.2090 O   0  0  0  0  0  0  0  0  0  0  0  0
   59.6070   33.4720   48.8690 C   0  0  0  0  0  0  0  0  0  0  0  0
   59.9802   30.6558   47.8582 H   0  0  0  0  0  0  0  0  0  0  0  0
   59.1477   29.5114   46.5825 H   0  0  0  0  0  0  0  0  0  0  0  0
   57.0577   30.9013   43.4932 H   0  0  0  0  0  0  0  0  0  0  0  0
   56.6280   24.7379   43.7629 H   0  0  0  0  0  0  0  0  0  0  0  0
   56.6548   22.7054   42.3175 H   0  0  0  0  0  0  0  0  0  0  0  0
   56.9210   20.4451   43.3428 H   0  0  0  0  0  0  0  0  0  0  0  0
   57.1868   20.2177   45.8132 H   0  0  0  0  0  0  0  0  0  0  0  0
   57.9623   33.2762   43.5745 H   0  0  0  0  0  0  0  0  0  0  0  0
   59.3501   35.5425   46.4040 H   0  0  0  0  0  0  0  0  0  0  0  0
   60.2247   35.3216   44.8506 H   0  0  0  0  0  0  0  0  0  0  0  0
   58.4499   35.5992   44.8506 H   0  0  0  0  0  0  0  0  0  0  0  0
   62.0944   33.3767   46.5205 H   0  0  0  0  0  0  0  0  0  0  0  0
   63.4344   34.1070   48.4949 H   0  0  0  0  0  0  0  0  0  0  0  0
   62.3257   34.4358   50.7076 H   0  0  0  0  0  0  0  0  0  0  0  0
   58.5277   33.2894   48.9776 H   0  0  0  0  0  0  0  0  0  0  0  0
  1  2  2  0
  2  3  1  0
  3  4  2  3
  4  5  1  0
  5  6  1  0
  6  7  1  0
  7  8  2  0
  7  9  1  0
  9 10  1  0
 10 11  2  0
 10 12  1  0
 12 13  1  0
 13 14  2  0
 14 15  1  0
 15 16  2  0
 16 17  1  0
 17 18  2  0
 18 19  1  0
  9 20  1  0
 20 21  1  0
  3 22  1  0
 22 23  2  0
 23 24  1  0
 23 25  1  0
 25 26  1  0
 26 27  2  0
 27 28  1  0
 28 29  2  0
 29 30  1  0
 30 31  1  0
 30 32  2  0
 25  2  1  0
 32 26  1  0
 20  5  2  0
 18 13  1  0
  1 33  1  0
  1 34  1  0
  4 35  1  0
 14 36  1  0
 15 37  1  0
 16 38  1  0
 17 39  1  0
 22 40  1  0
 24 41  1  0
 24 42  1  0
 24 43  1  0
 27 44  1  0
 28 45  1  0
 29 46  1  0
 32 47  1  0
M  CHG  4  12  -1  19  -1  21  -1  31  -1
M  END
>  <UniqueID>  (44) 
42

>  <SMILES>  (44) 
C=c1c(=Cc2sc(=O)n(C(=O)[N-]c3ccccc3[O-])c2[O-])cc(C)n1-c1cccc([O-])c1

>  <Energy>  (44) 
138.28455179163487

>  <Genealogy>  (44) 
C=c1c(=Cc2sc(=O)n(C(=O)[N-]c3ccccc3[O-])c2[O-])cc(C)n1-c1cccc([O-])c1 (protonated)
C=c1c(=Cc2sc(=O)n(C(=O)[N-]c3ccccc3[O-])c2[O-])cc(C)n1-c1cccc([O-])c1 (3D coordinates assigned)
C=c1c(=Cc2sc(=O)n(C(=O)[N-]c3ccccc3[O-])c2[O-])cc(C)n1-c1cccc([O-])c1 (optimized conformer: 138.28455179163487 kcal/mol)

>  <smiles>  (44) 
C=c1c(=Cc2sc(=O)n(C(=O)Nc3ccccc3O)c2O)cc(C)n1-c1cccc(O)c1

>  <score_type>  (44) 
oracle

>  <origin>  (44) 
adg

>  <m_score__min__energy>  (44) 
-18.129999999999999

>  <m_primary>  (44) 
energy

$$$$
44:0
     RDKit          3D

 52 54  0  0  1  0  0  0  0  0999 V2000
   58.1310   32.4150   43.0850 C   0  0  0  0  0  0  0  0  0  0  0  0
   57.5700   31.0740   43.0180 N   0  0  0  0  0  0  0  0  0  0  0  0
   56.6090   30.6530   43.9640 C   0  0  0  0  0  0  0  0  0  0  0  0
   56.3010   31.5120   44.8580 O   0  0  0  0  0  0  0  0  0  0  0  0
   55.9440   29.3590   44.0270 C   0  0  0  0  0  0  0  0  0  0  0  0
   56.0080   28.6520   45.2230 O   0  0  0  0  0  0  0  0  0  0  0  0
   57.0660   27.8280   45.5650 C   0  0  0  0  0  0  0  0  0  0  0  0
   57.4470   26.8670   44.6560 C   0  0  0  0  0  0  0  0  0  0  0  0
   58.4900   26.0200   44.9470 C   0  0  0  0  0  0  0  0  0  0  0  0
   59.1950   26.0810   46.1320 C   0  0  0  0  0  0  0  0  0  0  0  0
   58.8290   27.0340   47.0490 C   0  0  0  0  0  0  0  0  0  0  0  0
   61.2740   31.2980   47.5760 N   0  0  0  0  0  0  0  0  0  0  0  0
   60.8030   30.3880   48.3450 C   0  0  0  0  0  0  0  0  0  0  0  0
   59.8910   28.5390   50.0530 N   0  0  0  0  0  0  0  0  0  0  0  0
   60.3750   29.6730   50.5830 C   0  0  0  0  0  0  0  0  0  0  0  0
   60.8430   30.6240   49.7040 C   0  0  0  0  0  0  0  0  0  0  0  0
   61.3450   31.7900   50.1690 F   0  0  0  0  0  0  0  0  0  0  0  0
   59.8600   28.3290   48.6980 C   0  0  0  0  0  0  0  0  0  0  0  0
   59.3920   27.2230   48.3200 N   0  0  0  0  0  0  0  0  0  0  0  0
   60.4900   32.3600   47.0520 C   0  0  0  0  0  0  0  0  0  0  0  0
   59.1390   32.2430   46.7580 C   0  0  0  0  0  0  0  0  0  0  0  0
   58.4500   33.3320   46.2740 C   0  0  0  0  0  0  0  0  0  0  0  0
   59.0390   34.5450   46.0640 C   0  0  0  0  0  0  0  0  0  0  0  0
   60.3930   34.6840   46.3520 C   0  0  0  0  0  0  0  0  0  0  0  0
   61.0920   33.5960   46.8380 C   0  0  0  0  0  0  0  0  0  0  0  0
   62.5390   33.7340   47.1370 C   0  0  0  0  0  0  0  0  0  0  0  0
   63.2640   34.4340   46.3880 O   0  0  0  0  0  0  0  0  0  0  0  0
   63.0960   33.0720   48.2690 N   0  0  0  0  0  0  0  0  0  0  0  0
   64.5160   33.1940   48.5790 C   0  0  0  0  0  0  0  0  0  0  0  0
   60.3150   29.2510   47.8340 N   0  0  0  0  0  0  0  0  0  0  0  0
   57.7620   27.8960   46.7400 C   0  0  0  0  0  0  0  0  0  0  0  0
   58.2539   32.7088   44.1379 H   0  0  0  0  0  0  0  0  0  0  0  0
   59.1101   32.4283   42.5839 H   0  0  0  0  0  0  0  0  0  0  0  0
   57.4530   33.1216   42.5839 H   0  0  0  0  0  0  0  0  0  0  0  0
   57.9030   30.4420   42.2700 H   0  0  0  0  0  0  0  0  0  0  0  0
   54.8804   29.5260   43.8017 H   0  0  0  0  0  0  0  0  0  0  0  0
   56.4906   28.7326   43.3067 H   0  0  0  0  0  0  0  0  0  0  0  0
   56.9167   26.7768   43.6965 H   0  0  0  0  0  0  0  0  0  0  0  0
   58.7749   25.2611   44.2035 H   0  0  0  0  0  0  0  0  0  0  0  0
   60.0243   25.3874   46.3350 H   0  0  0  0  0  0  0  0  0  0  0  0
   59.5350   27.8250   50.7120 H   0  0  0  0  0  0  0  0  0  0  0  0
   60.3969   29.8355   51.6707 H   0  0  0  0  0  0  0  0  0  0  0  0
   58.6211   31.2847   46.9110 H   0  0  0  0  0  0  0  0  0  0  0  0
   57.3796   33.2198   46.0469 H   0  0  0  0  0  0  0  0  0  0  0  0
   58.4565   35.3935   45.6759 H   0  0  0  0  0  0  0  0  0  0  0  0
   60.9002   35.6473   46.1948 H   0  0  0  0  0  0  0  0  0  0  0  0
   62.5260   32.4910   48.9160 H   0  0  0  0  0  0  0  0  0  0  0  0
   64.6534   33.2058   49.6703 H   0  0  0  0  0  0  0  0  0  0  0  0
   65.0597   32.3393   48.1502 H   0  0  0  0  0  0  0  0  0  0  0  0
   64.9059   34.1290   48.1502 H   0  0  0  0  0  0  0  0  0  0  0  0
   60.2900   29.1240   46.7990 H   0  0  0  0  0  0  0  0  0  0  0  0
   57.4740   28.6600   47.4772 H   0  0  0  0  0  0  0  0  0  0  0  0
  1  2  1  0
  2  3  1  0
  3  4  2  0
  3  5  1  0
  5  6  1  0
  6  7  1  0
  7  8  2  0
  8  9  1  0
  9 10  2  0
 10 11  1  0
 11 12  1  0
 12 13  2  0
 13 14  1  0
 14 15  1  0
 15 16  2  0
 16 17  1  0
 16 18  1  0
 18 19  2  0
 19 20  1  0
 20 21  2  0
 21 22  1  0
 22 23  2  0
 23 24  1  0
 24 25  2  0
 25 26  1  0
 26 27  2  0
 26 28  1  0
 28 29  1  0
 18 30  1  0
 11 31  2  0
 31  7  1  0
 30 13  1  0
 25 20  1  0
  1 32  1  0
  1 33  1  0
  1 34  1  0
  2 35  1  0
  5 36  1  0
  5 37  1  0
  8 38  1  0
  9 39  1  0
 10 40  1  0
 14 41  1  0
 15 42  1  0
 21 43  1  0
 22 44  1  0
 23 45  1  0
 24 46  1  0
 28 47  1  0
 29 48  1  0
 29 49  1  0
 29 50  1  0
 30 51  1  0
 31 52  1  0
M  END
>  <smiles>  (45) 
CNC(=O)COc1cccc(N=c2[nH]cc(F)c(=Nc3ccccc3C(=O)NC)[nH]2)c1

>  <score_type>  (45) 
oracle

>  <origin>  (45) 
adg

>  <m_score__min__energy>  (45) 
-8.9100000000000001

>  <m_primary>  (45) 
energy

$$$$
45:0
     RDKit          3D

 51 52  0  0  0  0  0  0  0  0999 V2000
   58.8375   31.6973   50.3224 H   0  0  0  0  0  0  0  0  0  0  0  0
   58.8080   30.6550   49.9720 C   0  0  0  0  0  0  0  0  0  0  0  0
   57.8536   30.1086   49.9511 H   0  0  0  0  0  0  0  0  0  0  0  0
   59.9310   30.0530   49.5720 C   0  0  0  0  0  0  0  0  0  0  0  0
   60.8787   30.6108   49.5980 H   0  0  0  0  0  0  0  0  0  0  0  0
   59.9290   28.6300   49.0870 C   0  0  0  0  0  0  0  0  0  0  0  0
   60.9679   28.2912   48.9606 H   0  0  0  0  0  0  0  0  0  0  0  0
   59.4090   28.0067   49.8293 H   0  0  0  0  0  0  0  0  0  0  0  0
   59.2290   28.5150   47.8080 N   0  0  0  0  0  0  0  0  0  0  0  0
   59.1380   29.3510   47.1890 H   0  0  0  0  0  0  0  0  0  0  0  0
   58.6670   27.2670   47.3750 C   0  0  0  0  0  0  0  0  0  0  0  0
   59.0170   26.1940   47.9380 O   0  0  0  0  0  0  0  0  0  0  0  0
   57.7110   27.2130   46.2460 C   0  0  0  0  0  0  0  0  0  0  0  0
   56.6220   26.2710   46.3260 C   0  0  0  0  0  0  0  0  0  0  0  0
   55.7480   25.5160   46.3910 N   0  0  0  0  0  0  0  0  0  0  0  0
   57.8120   27.9860   45.1480 C   0  0  0  0  0  0  0  0  0  0  0  0
   58.1656   27.5131   44.2200 H   0  0  0  0  0  0  0  0  0  0  0  0
   57.4800   29.4290   45.1030 C   0  0  0  0  0  0  0  0  0  0  0  0
   56.1710   29.8710   44.8790 C   0  0  0  0  0  0  0  0  0  0  0  0
   55.1350   28.9670   44.6780 O   0  0  0  0  0  0  0  0  0  0  0  0
   55.9060   31.1990   44.8390 N   0  0  0  0  0  0  0  0  0  0  0  0
   56.8850   32.1240   44.9930 C   0  0  0  0  0  0  0  0  0  0  0  0
   56.5790   33.3460   44.9450 O   0  0  0  0  0  0  0  0  0  0  0  0
   58.1860   31.7330   45.1890 N   0  0  0  0  0  0  0  0  0  0  0  0
   59.2530   32.7510   45.2920 C   0  0  0  0  0  0  0  0  0  0  0  0
   60.2157   32.2456   45.4585 H   0  0  0  0  0  0  0  0  0  0  0  0
   59.2736   33.3285   44.3560 H   0  0  0  0  0  0  0  0  0  0  0  0
   58.9890   33.7200   46.4540 C   0  0  0  0  0  0  0  0  0  0  0  0
   58.9115   34.7424   46.0556 H   0  0  0  0  0  0  0  0  0  0  0  0
   58.0532   33.4185   46.9474 H   0  0  0  0  0  0  0  0  0  0  0  0
   60.0960   33.6760   47.4760 C   0  0  0  0  0  0  0  0  0  0  0  0
   61.4300   33.5490   47.0660 C   0  0  0  0  0  0  0  0  0  0  0  0
   61.6738   33.5367   45.9934 H   0  0  0  0  0  0  0  0  0  0  0  0
   62.4510   33.4380   48.0110 C   0  0  0  0  0  0  0  0  0  0  0  0
   63.4952   33.3421   47.6787 H   0  0  0  0  0  0  0  0  0  0  0  0
   62.1530   33.4480   49.3870 C   0  0  0  0  0  0  0  0  0  0  0  0
   63.1510   33.3330   50.3660 O   0  0  0  0  0  0  0  0  0  0  0  0
   63.5900   34.4020   51.2000 C   0  0  0  0  0  0  0  0  0  0  0  0
   63.4724   34.1156   52.2555 H   0  0  0  0  0  0  0  0  0  0  0  0
   64.6490   34.6166   50.9941 H   0  0  0  0  0  0  0  0  0  0  0  0
   62.9874   35.2989   50.9941 H   0  0  0  0  0  0  0  0  0  0  0  0
   60.8180   33.5710   49.8050 C   0  0  0  0  0  0  0  0  0  0  0  0
   60.5510   33.5720   51.1840 O   0  0  0  0  0  0  0  0  0  0  0  0
   59.2680   33.8010   51.7570 C   0  0  0  0  0  0  0  0  0  0  0  0
   59.3485   33.7866   52.8540 H   0  0  0  0  0  0  0  0  0  0  0  0
   58.8899   34.7808   51.4299 H   0  0  0  0  0  0  0  0  0  0  0  0
   58.5743   33.0125   51.4299 H   0  0  0  0  0  0  0  0  0  0  0  0
   59.7940   33.6830   48.8450 C   0  0  0  0  0  0  0  0  0  0  0  0
   58.7479   33.7768   49.1721 H   0  0  0  0  0  0  0  0  0  0  0  0
   58.4910   30.3930   45.2380 C   0  0  0  0  0  0  0  0  0  0  0  0
   59.6850   30.0160   45.4120 O   0  0  0  0  0  0  0  0  0  0  0  0
  1  2  1  0
  2  3  1  0
  2  4  2  0
  4  5  1  0
  4  6  1  0
  6  7  1  0
  6  8  1  0
  6  9  1  0
  9 10  1  0
  9 11  1  0
 11 12  2  0
 11 13  1  0
 13 14  1  0
 14 15  3  0
 13 16  2  0
 16 17  1  0
 16 18  1  0
 18 19  2  0
 19 20  1  0
 19 21  1  0
 21 22  1  0
 22 23  2  0
 22 24  1  0
 24 25  1  0
 25 26  1  0
 25 27  1  0
 25 28  1  0
 28 29  1  0
 28 30  1  0
 28 31  1  0
 31 32  2  0
 32 33  1  0
 32 34  1  0
 34 35  1  0
 34 36  2  0
 36 37  1  0
 37 38  1  0
 38 39  1  0
 38 40  1  0
 38 41  1  0
 36 42  1  0
 42 43  1  0
 43 44  1  0
 44 45  1  0
 44 46  1  0
 44 47  1  0
 42 48  2  0
 48 49  1  0
 24 50  1  0
 50 51  2  0
 50 18  1  0
 48 31  1  0
M  CHG  2  20  -1  21  -1
M  END
>  <UniqueID>  (46) 
43

>  <SMILES>  (46) 
C=CCNC(=O)/C(C#N)=C\c1c([O-])[n-]c(=O)n(CCc2ccc(OC)c(OC)c2)c1=O

>  <Energy>  (46) 
55.20866770436087

>  <Genealogy>  (46) 
C=CCNC(=O)C(C#N)=Cc1c([O-])[n-]c(=O)n(CCc2ccc(OC)c(OC)c2)c1=O (protonated)
C=CCNC(=O)/C(C#N)=C\c1c([O-])[n-]c(=O)n(CCc2ccc(OC)c(OC)c2)c1=O (cis-trans isomerization)
C=CCNC(=O)/C(C#N)=C\c1c([O-])[n-]c(=O)n(CCc2ccc(OC)c(OC)c2)c1=O (3D coordinates assigned)
C=CCNC(=O)/C(C#N)=C\c1c([O-])[n-]c(=O)n(CCc2ccc(OC)c(OC)c2)c1=O (optimized conformer: 55.20866770436087 kcal/mol)

>  <smiles>  (46) 
C=CCNC(=O)C(C#N)=Cc1c(O)[nH]c(=O)n(CCc2ccc(OC)c(OC)c2)c1=O

>  <score_type>  (46) 
oracle

>  <origin>  (46) 
adg

>  <m_score__min__energy>  (46) 
-11.69

>  <m_primary>  (46) 
energy

$$$$
46:0
     RDKit          3D

 50 53  0  0  0  0  0  0  0  0999 V2000
   50.2373   32.3184   53.5614 H   0  0  0  0  0  0  0  0  0  0  0  0
   50.9530   32.0570   52.7680 C   0  0  0  0  0  0  0  0  0  0  0  0
   51.8420   31.0470   52.8800 N   0  0  0  0  0  0  0  0  0  0  0  0
   52.5220   31.0920   51.7190 C   0  0  0  0  0  0  0  0  0  0  0  0
   53.5590   30.0890   51.3170 C   0  0  0  0  0  0  0  0  0  0  0  0
   54.0783   30.4384   50.4124 H   0  0  0  0  0  0  0  0  0  0  0  0
   53.0779   29.1221   51.1078 H   0  0  0  0  0  0  0  0  0  0  0  0
   54.5440   29.9310   52.4300 C   0  0  0  0  0  0  0  0  0  0  0  0
   54.4480   28.9490   53.2170 O   0  0  0  0  0  0  0  0  0  0  0  0
   55.5460   30.9360   52.6330 N   0  0  0  0  0  0  0  0  0  0  0  0
   56.6650   31.0050   51.9770 C   0  0  0  0  0  0  0  0  0  0  0  0
   57.3160   29.9030   51.5450 N   0  0  0  0  0  0  0  0  0  0  0  0
   58.3910   30.2220   50.7740 C   0  0  0  0  0  0  0  0  0  0  0  0
   59.0585   29.4606   50.3442 H   0  0  0  0  0  0  0  0  0  0  0  0
   58.5810   31.5870   50.5710 C   0  0  0  0  0  0  0  0  0  0  0  0
   59.6270   32.2070   49.6890 C   0  0  0  0  0  0  0  0  0  0  0  0
   60.4973   31.5362   49.6375 H   0  0  0  0  0  0  0  0  0  0  0  0
   59.9133   33.1792   50.1166 H   0  0  0  0  0  0  0  0  0  0  0  0
   59.0960   32.4340   48.2940 C   0  0  0  0  0  0  0  0  0  0  0  0
   58.8890   33.7360   47.8110 C   0  0  0  0  0  0  0  0  0  0  0  0
   59.1688   34.6011   48.4302 H   0  0  0  0  0  0  0  0  0  0  0  0
   58.3290   33.9370   46.5470 C   0  0  0  0  0  0  0  0  0  0  0  0
   58.1888   34.9595   46.1663 H   0  0  0  0  0  0  0  0  0  0  0  0
   57.9460   32.8440   45.7640 C   0  0  0  0  0  0  0  0  0  0  0  0
   57.4970   33.0084   44.7734 H   0  0  0  0  0  0  0  0  0  0  0  0
   58.1340   31.5350   46.2410 C   0  0  0  0  0  0  0  0  0  0  0  0
   57.7090   30.3860   45.4950 N   0  0  0  0  0  0  0  0  0  0  0  0
   58.4310   29.1500   45.3670 C   0  0  0  0  0  0  0  0  0  0  0  0
   59.5980   29.1530   44.8950 O   0  0  0  0  0  0  0  0  0  0  0  0
   57.7770   27.8670   45.7350 C   0  0  0  0  0  0  0  0  0  0  0  0
   58.5640   26.7900   46.1820 C   0  0  0  0  0  0  0  0  0  0  0  0
   59.6559   26.9045   46.2496 H   0  0  0  0  0  0  0  0  0  0  0  0
   57.9720   25.5760   46.5410 C   0  0  0  0  0  0  0  0  0  0  0  0
   58.6014   24.7439   46.8896 H   0  0  0  0  0  0  0  0  0  0  0  0
   56.5780   25.4100   46.4600 C   0  0  0  0  0  0  0  0  0  0  0  0
   55.9450   24.2060   46.8040 O   0  0  0  0  0  0  0  0  0  0  0  0
   55.0980   23.4620   45.9340 C   0  0  0  0  0  0  0  0  0  0  0  0
   54.4039   22.8523   46.5310 H   0  0  0  0  0  0  0  0  0  0  0  0
   54.5252   24.1543   45.2995 H   0  0  0  0  0  0  0  0  0  0  0  0
   55.7107   22.8047   45.2995 H   0  0  0  0  0  0  0  0  0  0  0  0
   55.7900   26.4790   46.0180 C   0  0  0  0  0  0  0  0  0  0  0  0
   54.4090   26.3250   45.9310 O   0  0  0  0  0  0  0  0  0  0  0  0
   56.3750   27.7000   45.6580 C   0  0  0  0  0  0  0  0  0  0  0  0
   55.5560   28.7330   45.2180 O   0  0  0  0  0  0  0  0  0  0  0  0
   58.7560   31.3380   47.4780 C   0  0  0  0  0  0  0  0  0  0  0  0
   58.9820   30.3162   47.8170 H   0  0  0  0  0  0  0  0  0  0  0  0
   57.3940   32.4250   51.4290 S   0  0  0  0  0  0  0  0  0  0  0  0
   52.0170   32.0960   50.9270 C   0  0  0  0  0  0  0  0  0  0  0  0
   52.3672   32.3504   49.9157 H   0  0  0  0  0  0  0  0  0  0  0  0
   51.0240   32.7170   51.5910 N   0  0  0  0  0  0  0  0  0  0  0  0
  1  2  1  0
  2  3  2  0
  3  4  1  0
  4  5  1  0
  5  6  1  0
  5  7  1  0
  5  8  1  0
  8  9  2  0
  8 10  1  0
 10 11  2  0
 11 12  1  0
 12 13  1  0
 13 14  1  0
 13 15  2  0
 15 16  1  0
 16 17  1  0
 16 18  1  0
 16 19  1  0
 19 20  2  0
 20 21  1  0
 20 22  1  0
 22 23  1  0
 22 24  2  0
 24 25  1  0
 24 26  1  0
 26 27  1  0
 27 28  1  0
 28 29  2  0
 28 30  1  0
 30 31  2  0
 31 32  1  0
 31 33  1  0
 33 34  1  0
 33 35  2  0
 35 36  1  0
 36 37  1  0
 37 38  1  0
 37 39  1  0
 37 40  1  0
 35 41  1  0
 41 42  1  0
 41 43  2  0
 43 44  1  0
 26 45  2  0
 45 46  1  0
 15 47  1  0
  4 48  2  0
 48 49  1  0
 48 50  1  0
 50  2  1  0
 47 11  1  0
 45 19  1  0
 43 30  1  0
M  CHG  5  12  -1  27  -1  42  -1  44  -1  50  -1
M  END
>  <UniqueID>  (47) 
44

>  <SMILES>  (47) 
COc1ccc(C(=O)[N-]c2cccc(Cc3c[n-]/c(=N/C(=O)Cc4c[n-]cn4)s3)c2)c([O-])c1[O-]

>  <Energy>  (47) 
120.12051371908723

>  <Genealogy>  (47) 
COc1ccc(C(=O)[N-]c2cccc(Cc3c[n-]c(=NC(=O)Cc4c[n-]cn4)s3)c2)c([O-])c1[O-] (protonated)
COc1ccc(C(=O)[N-]c2cccc(Cc3c[n-]/c(=N/C(=O)Cc4c[n-]cn4)s3)c2)c([O-])c1[O-] (cis-trans isomerization)
COc1ccc(C(=O)[N-]c2cccc(Cc3c[n-]/c(=N/C(=O)Cc4c[n-]cn4)s3)c2)c([O-])c1[O-] (3D coordinates assigned)
COc1ccc(C(=O)[N-]c2cccc(Cc3c[n-]/c(=N/C(=O)Cc4c[n-]cn4)s3)c2)c([O-])c1[O-] (optimized conformer: 120.12051371908723 kcal/mol)

>  <smiles>  (47) 
COc1ccc(C(=O)Nc2cccc(Cc3c[nH]c(=NC(=O)Cc4c[nH]cn4)s3)c2)c(O)c1O

>  <score_type>  (47) 
oracle

>  <origin>  (47) 
adg

>  <m_score__min__energy>  (47) 
-22.02

>  <m_primary>  (47) 
energy

$$$$
47:0
     RDKit          3D

 46 48  0  0  0  0  0  0  0  0999 V2000
   61.0890   30.0600   46.3790 C   0  0  0  0  0  0  0  0  0  0  0  0
   60.6640   31.4170   46.4590 O   0  0  0  0  0  0  0  0  0  0  0  0
   61.1070   32.3380   47.4230 C   0  0  0  0  0  0  0  0  0  0  0  0
   62.3880   32.9190   47.3560 C   0  0  0  0  0  0  0  0  0  0  0  0
   62.8000   33.8400   48.3220 C   0  0  0  0  0  0  0  0  0  0  0  0
   61.9380   34.1970   49.3590 C   0  0  0  0  0  0  0  0  0  0  0  0
   60.6640   33.6330   49.4360 C   0  0  0  0  0  0  0  0  0  0  0  0
   60.2430   32.6910   48.4830 C   0  0  0  0  0  0  0  0  0  0  0  0
   58.8420   32.1380   48.5640 C   0  0  0  0  0  0  0  0  0  0  0  0
   58.8610   30.7050   48.2770 N   0  0  0  0  0  0  0  0  0  0  0  0
   58.7980   29.7140   49.3070 C   0  0  0  0  0  0  0  0  0  0  0  0
   58.3650   30.0150   50.4540 O   0  0  0  0  0  0  0  0  0  0  0  0
   59.1940   28.3700   49.0170 N   0  0  0  0  0  0  0  0  0  0  0  0
   58.9150   27.6650   47.7980 C   0  0  0  0  0  0  0  0  0  0  0  0
   59.3430   26.3390   47.6700 C   0  0  0  0  0  0  0  0  0  0  0  0
   59.0540   25.6130   46.5120 C   0  0  0  0  0  0  0  0  0  0  0  0
   58.3270   26.2030   45.4740 C   0  0  0  0  0  0  0  0  0  0  0  0
   57.8890   27.5340   45.5880 C   0  0  0  0  0  0  0  0  0  0  0  0
   57.1040   28.1720   44.5690 N   0  0  0  0  0  0  0  0  0  0  0  0
   56.3400   29.3790   44.6950 C   0  0  0  0  0  0  0  0  0  0  0  0
   55.1700   29.3430   45.1600 O   0  0  0  0  0  0  0  0  0  0  0  0
   56.9080   30.6640   44.2260 C   0  0  0  0  0  0  0  0  0  0  0  0
   57.3910   31.6110   45.1450 C   0  0  0  0  0  0  0  0  0  0  0  0
   57.9300   32.8150   44.6810 C   0  0  0  0  0  0  0  0  0  0  0  0
   58.5470   34.0000   45.8160 Cl  0  0  0  0  0  0  0  0  0  0  0  0
   57.9820   33.0700   43.3480 N   0  0  0  0  0  0  0  0  0  0  0  0
   57.5210   32.1770   42.4330 C   0  0  0  0  0  0  0  0  0  0  0  0
   57.6130   32.5610   40.7250 Cl  0  0  0  0  0  0  0  0  0  0  0  0
   56.9790   30.9590   42.8530 C   0  0  0  0  0  0  0  0  0  0  0  0
   58.1620   28.2490   46.7620 C   0  0  0  0  0  0  0  0  0  0  0  0
   61.2158   29.6551   47.3939 H   0  0  0  0  0  0  0  0  0  0  0  0
   60.3326   29.4700   45.8407 H   0  0  0  0  0  0  0  0  0  0  0  0
   62.0468   30.0069   45.8407 H   0  0  0  0  0  0  0  0  0  0  0  0
   63.0693   32.6455   46.5368 H   0  0  0  0  0  0  0  0  0  0  0  0
   63.8048   34.2840   48.2649 H   0  0  0  0  0  0  0  0  0  0  0  0
   62.2631   34.9244   50.1174 H   0  0  0  0  0  0  0  0  0  0  0  0
   59.9844   33.9283   50.2490 H   0  0  0  0  0  0  0  0  0  0  0  0
   58.4415   32.3032   49.5751 H   0  0  0  0  0  0  0  0  0  0  0  0
   58.2054   32.6489   47.8267 H   0  0  0  0  0  0  0  0  0  0  0  0
   59.1350   30.4000   47.3150 H   0  0  0  0  0  0  0  0  0  0  0  0
   59.9099   25.8658   48.4853 H   0  0  0  0  0  0  0  0  0  0  0  0
   59.3998   24.5731   46.4166 H   0  0  0  0  0  0  0  0  0  0  0  0
   58.0973   25.6250   44.5667 H   0  0  0  0  0  0  0  0  0  0  0  0
   57.3453   31.4061   46.2248 H   0  0  0  0  0  0  0  0  0  0  0  0
   56.6095   30.2343   42.1126 H   0  0  0  0  0  0  0  0  0  0  0  0
   57.7844   29.2760   46.8749 H   0  0  0  0  0  0  0  0  0  0  0  0
  1  2  1  0
  2  3  1  0
  3  4  2  0
  4  5  1  0
  5  6  2  0
  6  7  1  0
  7  8  2  0
  8  9  1  0
  9 10  1  0
 10 11  1  0
 11 12  2  0
 11 13  1  0
 13 14  1  0
 14 15  2  0
 15 16  1  0
 16 17  2  0
 17 18  1  0
 18 19  1  0
 19 20  1  0
 20 21  2  0
 20 22  1  0
 22 23  2  0
 23 24  1  0
 24 25  1  0
 24 26  2  0
 26 27  1  0
 27 28  1  0
 27 29  2  0
 18 30  2  0
  8  3  1  0
 30 14  1  0
 29 22  1  0
  1 31  1  0
  1 32  1  0
  1 33  1  0
  4 34  1  0
  5 35  1  0
  6 36  1  0
  7 37  1  0
  9 38  1  0
  9 39  1  0
 10 40  1  0
 15 41  1  0
 16 42  1  0
 17 43  1  0
 23 44  1  0
 29 45  1  0
 30 46  1  0
M  CHG  2  13  -1  19  -1
M  END
>  <UniqueID>  (48) 
45

>  <SMILES>  (48) 
COc1ccccc1CNC(=O)[N-]c1cccc([N-]C(=O)c2cc(Cl)nc(Cl)c2)c1

>  <Energy>  (48) 
53.905759208818516

>  <Genealogy>  (48) 
COc1ccccc1CNC(=O)[N-]c1cccc([N-]C(=O)c2cc(Cl)nc(Cl)c2)c1 (protonated)
COc1ccccc1CNC(=O)[N-]c1cccc([N-]C(=O)c2cc(Cl)nc(Cl)c2)c1 (3D coordinates assigned)
COc1ccccc1CNC(=O)[N-]c1cccc([N-]C(=O)c2cc(Cl)nc(Cl)c2)c1 (optimized conformer: 53.905759208818516 kcal/mol)

>  <smiles>  (48) 
COc1ccccc1CNC(=O)Nc1cccc(NC(=O)c2cc(Cl)nc(Cl)c2)c1

>  <score_type>  (48) 
oracle

>  <origin>  (48) 
adg

>  <m_score__min__energy>  (48) 
-12.16

>  <m_primary>  (48) 
energy

$$$$
48:0
     RDKit          3D

 61 65  0  0  1  0  0  0  0  0999 V2000
   57.7910   21.9860   43.8140 C   0  0  0  0  0  0  0  0  0  0  0  0
   56.8450   22.9550   44.4310 C   0  0  0  0  0  0  0  0  0  0  0  0
   55.5840   22.5110   44.7720 C   0  0  0  0  0  0  0  0  0  0  0  0
   54.7030   23.4150   45.3460 C   0  0  0  0  0  0  0  0  0  0  0  0
   55.0900   24.7220   45.5660 C   0  0  0  0  0  0  0  0  0  0  0  0
   56.3710   25.1450   45.2100 C   0  0  0  0  0  0  0  0  0  0  0  0
   56.7790   26.5060   45.4370 N   0  0  0  0  0  0  0  0  0  0  0  0
   57.7250   26.7070   46.4750 C   0  0  0  0  0  0  0  0  0  0  0  0
   58.1710   25.7210   47.1530 O   0  0  0  0  0  0  0  0  0  0  0  0
   58.1880   28.0820   46.7600 C   0  0  0  0  0  0  0  0  0  0  0  0
   57.5750   29.1290   46.1800 N   0  0  0  0  0  0  0  0  0  0  0  0
   57.9920   30.3780   46.4380 C   0  0  0  0  0  0  0  0  0  0  0  0
   57.3980   31.3750   45.8750 N   0  0  0  0  0  0  0  0  0  0  0  0
   57.3720   31.4600   44.4380 C   0  0  0  0  0  0  0  0  0  0  0  0
   56.6870   30.4940   43.7220 C   0  0  0  0  0  0  0  0  0  0  0  0
   56.6580   30.5700   42.3260 C   0  0  0  0  0  0  0  0  0  0  0  0
   57.3150   31.6100   41.6850 C   0  0  0  0  0  0  0  0  0  0  0  0
   57.9870   32.5510   42.4440 C   0  0  0  0  0  0  0  0  0  0  0  0
   58.0370   32.5060   43.8220 C   0  0  0  0  0  0  0  0  0  0  0  0
   59.0570   30.5640   47.3030 C   0  0  0  0  0  0  0  0  0  0  0  0
   59.4500   31.9490   47.5410 C   0  0  0  0  0  0  0  0  0  0  0  0
   59.1950   32.5180   48.7730 C   0  0  0  0  0  0  0  0  0  0  0  0
   59.5330   33.8400   49.0640 C   0  0  0  0  0  0  0  0  0  0  0  0
   60.1430   34.5960   48.0810 C   0  0  0  0  0  0  0  0  0  0  0  0
   60.4160   34.0640   46.8380 C   0  0  0  0  0  0  0  0  0  0  0  0
   60.0610   32.7390   46.5890 C   0  0  0  0  0  0  0  0  0  0  0  0
   59.7110   29.4880   47.9200 C   0  0  0  0  0  0  0  0  0  0  0  0
   60.8370   29.7960   48.7410 C   0  0  0  0  0  0  0  0  0  0  0  0
   61.0120   28.9550   49.7230 O   0  0  0  0  0  0  0  0  0  0  0  0
   61.7750   30.8220   48.6820 N   0  0  0  0  0  0  0  0  0  0  0  0
   62.4100   31.0140   47.4840 C   0  0  0  0  0  0  0  0  0  0  0  0
   63.3260   32.0390   47.2930 C   0  0  0  0  0  0  0  0  0  0  0  0
   63.6330   32.9110   48.3160 C   0  0  0  0  0  0  0  0  0  0  0  0
   64.4540   33.8570   48.2040 O   0  0  0  0  0  0  0  0  0  0  0  0
   62.9950   32.7010   49.4790 N   0  0  0  0  0  0  0  0  0  0  0  0
   62.0980   31.6880   49.6430 C   0  0  0  0  0  0  0  0  0  0  0  0
   61.5770   31.6110   50.7600 O   0  0  0  0  0  0  0  0  0  0  0  0
   59.2380   28.2740   47.6130 N   0  0  0  0  0  0  0  0  0  0  0  0
   57.2630   24.2470   44.6340 C   0  0  0  0  0  0  0  0  0  0  0  0
   58.3245   21.4396   44.6057 H   0  0  0  0  0  0  0  0  0  0  0  0
   57.2312   21.2737   43.1901 H   0  0  0  0  0  0  0  0  0  0  0  0
   58.5166   22.5285   43.1901 H   0  0  0  0  0  0  0  0  0  0  0  0
   55.2854   21.4675   44.5933 H   0  0  0  0  0  0  0  0  0  0  0  0
   53.6908   23.0892   45.6275 H   0  0  0  0  0  0  0  0  0  0  0  0
   54.3858   25.4324   46.0236 H   0  0  0  0  0  0  0  0  0  0  0  0
   56.3880   27.2940   44.8550 H   0  0  0  0  0  0  0  0  0  0  0  0
   56.1710   29.6754   44.2452 H   0  0  0  0  0  0  0  0  0  0  0  0
   56.1184   29.8109   41.7407 H   0  0  0  0  0  0  0  0  0  0  0  0
   57.3017   31.6854   40.5877 H   0  0  0  0  0  0  0  0  0  0  0  0
   58.5046   33.3718   41.9259 H   0  0  0  0  0  0  0  0  0  0  0  0
   58.5798   33.2656   44.4037 H   0  0  0  0  0  0  0  0  0  0  0  0
   58.7097   31.9093   49.5502 H   0  0  0  0  0  0  0  0  0  0  0  0
   59.3188   34.2707   50.0533 H   0  0  0  0  0  0  0  0  0  0  0  0
   60.4156   35.6403   48.2936 H   0  0  0  0  0  0  0  0  0  0  0  0
   60.9028   34.6714   46.0608 H   0  0  0  0  0  0  0  0  0  0  0  0
   60.2754   32.3086   45.5996 H   0  0  0  0  0  0  0  0  0  0  0  0
   62.1873   30.3352   46.6476 H   0  0  0  0  0  0  0  0  0  0  0  0
   63.8129   32.1572   46.3137 H   0  0  0  0  0  0  0  0  0  0  0  0
   63.2150   33.3550   50.2680 H   0  0  0  0  0  0  0  0  0  0  0  0
   59.6630   27.3980   47.9670 H   0  0  0  0  0  0  0  0  0  0  0  0
   58.2770   24.5635   44.3485 H   0  0  0  0  0  0  0  0  0  0  0  0
  1  2  1  0
  2  3  2  0
  3  4  1  0
  4  5  2  0
  5  6  1  0
  6  7  1  0
  7  8  1  0
  8  9  2  0
  8 10  1  0
 10 11  2  0
 11 12  1  0
 12 13  2  0
 13 14  1  0
 14 15  2  0
 15 16  1  0
 16 17  2  0
 17 18  1  0
 18 19  2  0
 12 20  1  0
 20 21  1  0
 21 22  2  0
 22 23  1  0
 23 24  2  0
 24 25  1  0
 25 26  2  0
 20 27  2  0
 27 28  1  0
 28 29  2  0
 28 30  1  0
 30 31  1  0
 31 32  2  0
 32 33  1  0
 33 34  2  0
 33 35  1  0
 35 36  1  0
 36 37  2  0
 27 38  1  0
  6 39  2  0
 39  2  1  0
 38 10  1  0
 19 14  1  0
 26 21  1  0
 36 30  1  0
  1 40  1  0
  1 41  1  0
  1 42  1  0
  3 43  1  0
  4 44  1  0
  5 45  1  0
  7 46  1  0
 15 47  1  0
 16 48  1  0
 17 49  1  0
 18 50  1  0
 19 51  1  0
 22 52  1  0
 23 53  1  0
 24 54  1  0
 25 55  1  0
 26 56  1  0
 31 57  1  0
 32 58  1  0
 35 59  1  0
 38 60  1  0
 39 61  1  0
M  END
>  <smiles>  (49) 
Cc1cccc(NC(=O)c2nc(=Nc3ccccc3)c(-c3ccccc3)c(C(=O)n3ccc(=O)[nH]c3=O)[nH]2)c1

>  <score_type>  (49) 
oracle

>  <origin>  (49) 
adg

>  <m_score__min__energy>  (49) 
-9.5600000000000005

>  <m_primary>  (49) 
energy

$$$$
49:0
     RDKit          3D

 39 41  0  0  0  0  0  0  0  0999 V2000
   56.3830   29.3550   42.6730 O   0  0  0  0  0  0  0  0  0  0  0  0
   56.5690   29.5880   43.8980 C   0  0  0  0  0  0  0  0  0  0  0  0
   56.0540   28.6560   44.8570 N   0  0  0  0  0  0  0  0  0  0  0  0
   56.8220   27.7110   45.6170 C   0  0  0  0  0  0  0  0  0  0  0  0
   58.2270   27.7390   45.6130 C   0  0  0  0  0  0  0  0  0  0  0  0
   58.9510   26.8200   46.3730 C   0  0  0  0  0  0  0  0  0  0  0  0
   58.2860   25.8580   47.1360 C   0  0  0  0  0  0  0  0  0  0  0  0
   56.8800   25.8040   47.1360 C   0  0  0  0  0  0  0  0  0  0  0  0
   56.1580   24.8380   47.9140 N   0  0  0  0  0  0  0  0  0  0  0  0
   56.1700   23.1250   47.6340 S   0  0  0  0  0  0  0  0  0  0  0  0
   54.8920   22.5350   48.1600 O   0  0  0  0  0  0  0  0  0  0  0  0
   57.3300   22.5140   48.3670 O   0  0  0  0  0  0  0  0  0  0  0  0
   56.3690   22.8120   45.9090 C   0  0  0  0  0  0  0  0  0  0  0  0
   57.5240   22.1490   45.4680 C   0  0  0  0  0  0  0  0  0  0  0  0
   57.7090   21.8770   44.1110 C   0  0  0  0  0  0  0  0  0  0  0  0
   56.7430   22.2670   43.1830 C   0  0  0  0  0  0  0  0  0  0  0  0
   56.9220   21.9970   41.8670 F   0  0  0  0  0  0  0  0  0  0  0  0
   55.5900   22.9360   43.6110 C   0  0  0  0  0  0  0  0  0  0  0  0
   54.6530   23.3190   42.7080 F   0  0  0  0  0  0  0  0  0  0  0  0
   55.3980   23.2070   44.9700 C   0  0  0  0  0  0  0  0  0  0  0  0
   54.2720   23.8550   45.3620 F   0  0  0  0  0  0  0  0  0  0  0  0
   56.1550   26.7250   46.3610 C   0  0  0  0  0  0  0  0  0  0  0  0
   54.7660   26.6760   46.3510 O   0  0  0  0  0  0  0  0  0  0  0  0
   57.2620   30.8370   44.3020 C   0  0  0  0  0  0  0  0  0  0  0  0
   57.4700   31.8800   43.3790 C   0  0  0  0  0  0  0  0  0  0  0  0
   58.1150   33.0560   43.7750 C   0  0  0  0  0  0  0  0  0  0  0  0
   58.5690   33.1980   45.0860 C   0  0  0  0  0  0  0  0  0  0  0  0
   58.3860   32.1630   46.0060 C   0  0  0  0  0  0  0  0  0  0  0  0
   57.7440   30.9850   45.6160 C   0  0  0  0  0  0  0  0  0  0  0  0
   58.7582   28.4887   45.0081 H   0  0  0  0  0  0  0  0  0  0  0  0
   60.0505   26.8534   46.3712 H   0  0  0  0  0  0  0  0  0  0  0  0
   58.8627   25.1407   47.7385 H   0  0  0  0  0  0  0  0  0  0  0  0
   58.2890   21.8414   46.1961 H   0  0  0  0  0  0  0  0  0  0  0  0
   58.6166   21.3551   43.7736 H   0  0  0  0  0  0  0  0  0  0  0  0
   57.1233   31.7691   42.3410 H   0  0  0  0  0  0  0  0  0  0  0  0
   58.2645   33.8706   43.0510 H   0  0  0  0  0  0  0  0  0  0  0  0
   59.0717   34.1260   45.3959 H   0  0  0  0  0  0  0  0  0  0  0  0
   58.7478   32.2755   47.0387 H   0  0  0  0  0  0  0  0  0  0  0  0
   57.6144   30.1677   46.3408 H   0  0  0  0  0  0  0  0  0  0  0  0
  1  2  2  0
  2  3  1  0
  3  4  1  0
  4  5  2  0
  5  6  1  0
  6  7  2  0
  7  8  1  0
  8  9  1  0
  9 10  1  0
 10 11  2  0
 10 12  2  0
 10 13  1  0
 13 14  2  0
 14 15  1  0
 15 16  2  0
 16 17  1  0
 16 18  1  0
 18 19  1  0
 18 20  2  0
 20 21  1  0
  8 22  2  0
 22 23  1  0
  2 24  1  0
 24 25  2  0
 25 26  1  0
 26 27  2  0
 27 28  1  0
 28 29  2  0
 22  4  1  0
 29 24  1  0
 20 13  1  0
  5 30  1  0
  6 31  1  0
  7 32  1  0
 14 33  1  0
 15 34  1  0
 25 35  1  0
 26 36  1  0
 27 37  1  0
 28 38  1  0
 29 39  1  0
M  CHG  3   3  -1   9  -1  23  -1
M  END
>  <UniqueID>  (50) 
46

>  <SMILES>  (50) 
O=C([N-]c1cccc([N-]S(=O)(=O)c2ccc(F)c(F)c2F)c1[O-])c1ccccc1

>  <Energy>  (50) 
53.89905843965595

>  <Genealogy>  (50) 
O=C([N-]c1cccc([N-]S(=O)(=O)c2ccc(F)c(F)c2F)c1[O-])c1ccccc1 (protonated)
O=C([N-]c1cccc([N-]S(=O)(=O)c2ccc(F)c(F)c2F)c1[O-])c1ccccc1 (3D coordinates assigned)
O=C([N-]c1cccc([N-]S(=O)(=O)c2ccc(F)c(F)c2F)c1[O-])c1ccccc1 (optimized conformer: 53.89905843965595 kcal/mol)

>  <smiles>  (50) 
O=C(Nc1cccc(NS(=O)(=O)c2ccc(F)c(F)c2F)c1O)c1ccccc1

>  <score_type>  (50) 
oracle

>  <origin>  (50) 
adg

>  <m_score__min__energy>  (50) 
-15.529999999999999

>  <m_primary>  (50) 
energy

$$$$
50:0
     RDKit          3D

 31 32  0  0  0  0  0  0  0  0999 V2000
   57.4020   32.2230   43.8350 C   0  0  0  0  0  0  0  0  0  0  0  0
   57.9590   32.4380   45.2170 C   0  0  0  0  0  0  0  0  0  0  0  0
   58.2950   33.7330   45.6410 C   0  0  0  0  0  0  0  0  0  0  0  0
   58.8280   33.9440   46.9120 C   0  0  0  0  0  0  0  0  0  0  0  0
   59.0190   32.8680   47.7800 C   0  0  0  0  0  0  0  0  0  0  0  0
   58.6670   31.5670   47.3890 C   0  0  0  0  0  0  0  0  0  0  0  0
   58.8780   30.4280   48.3510 C   0  0  0  0  0  0  0  0  0  0  0  0
   58.1540   31.3470   46.0900 C   0  0  0  0  0  0  0  0  0  0  0  0
   57.8130   30.0230   45.6580 N   0  0  0  0  0  0  0  0  0  0  0  0
   58.7930   29.1390   45.0970 C   0  0  0  0  0  0  0  0  0  0  0  0
   60.0160   29.4430   45.1240 O   0  0  0  0  0  0  0  0  0  0  0  0
   58.3590   27.8870   44.4020 C   0  0  0  0  0  0  0  0  0  0  0  0
   57.4390   27.1100   45.2910 C   0  0  0  0  0  0  0  0  0  0  0  0
   57.7780   25.5950   45.9450 S   0  0  0  0  0  0  0  0  0  0  0  0
   56.2500   25.4600   46.6330 C   0  0  0  0  0  0  0  0  0  0  0  0
   55.8640   24.4730   47.3120 O   0  0  0  0  0  0  0  0  0  0  0  0
   55.4660   26.5280   46.3760 N   0  0  0  0  0  0  0  0  0  0  0  0
   56.1260   27.4440   45.6210 C   0  0  0  0  0  0  0  0  0  0  0  0
   55.5190   28.6250   45.2130 O   0  0  0  0  0  0  0  0  0  0  0  0
   56.3782   31.8278   43.9097 H   0  0  0  0  0  0  0  0  0  0  0  0
   57.3870   33.1799   43.2927 H   0  0  0  0  0  0  0  0  0  0  0  0
   58.0338   31.5042   43.2927 H   0  0  0  0  0  0  0  0  0  0  0  0
   58.1368   34.5871   44.9662 H   0  0  0  0  0  0  0  0  0  0  0  0
   59.0987   34.9612   47.2314 H   0  0  0  0  0  0  0  0  0  0  0  0
   59.4485   33.0409   48.7778 H   0  0  0  0  0  0  0  0  0  0  0  0
   58.8087   30.8021   49.3831 H   0  0  0  0  0  0  0  0  0  0  0  0
   58.1066   29.6613   48.1863 H   0  0  0  0  0  0  0  0  0  0  0  0
   59.8728   29.9885   48.1863 H   0  0  0  0  0  0  0  0  0  0  0  0
   56.8020   29.7860   45.5500 H   0  0  0  0  0  0  0  0  0  0  0  0
   57.8340   28.1485   43.4714 H   0  0  0  0  0  0  0  0  0  0  0  0
   59.2426   27.2751   44.1679 H   0  0  0  0  0  0  0  0  0  0  0  0
  1  2  1  0
  2  3  2  0
  3  4  1  0
  4  5  2  0
  5  6  1  0
  6  7  1  0
  6  8  2  0
  8  9  1  0
  9 10  1  0
 10 11  2  0
 10 12  1  0
 12 13  1  0
 13 14  1  0
 14 15  1  0
 15 16  2  0
 15 17  1  0
 17 18  1  0
 18 19  1  0
  8  2  1  0
 18 13  2  0
  1 20  1  0
  1 21  1  0
  1 22  1  0
  3 23  1  0
  4 24  1  0
  5 25  1  0
  7 26  1  0
  7 27  1  0
  7 28  1  0
  9 29  1  0
 12 30  1  0
 12 31  1  0
M  CHG  2  17  -1  19  -1
M  END
>  <UniqueID>  (51) 
47

>  <SMILES>  (51) 
Cc1cccc(C)c1NC(=O)Cc1sc(=O)[n-]c1[O-]

>  <Energy>  (51) 
64.65501480589076

>  <Genealogy>  (51) 
Cc1cccc(C)c1NC(=O)Cc1sc(=O)[n-]c1[O-] (protonated)
Cc1cccc(C)c1NC(=O)Cc1sc(=O)[n-]c1[O-] (3D coordinates assigned)
Cc1cccc(C)c1NC(=O)Cc1sc(=O)[n-]c1[O-] (optimized conformer: 64.65501480589076 kcal/mol)

>  <smiles>  (51) 
Cc1cccc(C)c1NC(=O)Cc1sc(=O)[nH]c1O

>  <score_type>  (51) 
oracle

>  <origin>  (51) 
adg

>  <m_score__min__energy>  (51) 
-13.24

>  <m_primary>  (51) 
energy

$$$$
51:0
     RDKit          3D

 34 36  0  0  0  0  0  0  0  0999 V2000
   55.8260   27.4660   45.6220 O   0  0  0  0  0  0  0  0  0  0  0  0
   56.7130   28.3590   45.6160 C   0  0  0  0  0  0  0  0  0  0  0  0
   56.3110   29.7260   45.4580 N   0  0  0  0  0  0  0  0  0  0  0  0
   56.9870   30.6750   44.6680 N   0  0  0  0  0  0  0  0  0  0  0  0
   57.6100   31.8140   45.0390 C   0  0  0  0  0  0  0  0  0  0  0  0
   57.7760   32.3150   46.4460 C   0  0  0  0  0  0  0  0  0  0  0  0
   59.1950   32.2930   46.8380 N   0  0  0  0  0  0  0  0  0  0  0  0
   60.0090   33.3090   46.4140 C   0  0  0  0  0  0  0  0  0  0  0  0
   61.3670   33.3190   46.7410 C   0  0  0  0  0  0  0  0  0  0  0  0
   61.8960   32.2790   47.5000 C   0  0  0  0  0  0  0  0  0  0  0  0
   61.0680   31.2400   47.9170 C   0  0  0  0  0  0  0  0  0  0  0  0
   59.7120   31.2540   47.5740 C   0  0  0  0  0  0  0  0  0  0  0  0
   58.9770   30.2980   47.9460 O   0  0  0  0  0  0  0  0  0  0  0  0
   58.0170   32.5090   43.9540 N   0  0  0  0  0  0  0  0  0  0  0  0
   57.6220   31.8360   42.8820 N   0  0  0  0  0  0  0  0  0  0  0  0
   56.9810   30.7400   43.3270 C   0  0  0  0  0  0  0  0  0  0  0  0
   56.2780   29.6370   42.3420 S   0  0  0  0  0  0  0  0  0  0  0  0
   58.1310   27.9650   45.7640 C   0  0  0  0  0  0  0  0  0  0  0  0
   59.1280   28.8350   45.2860 C   0  0  0  0  0  0  0  0  0  0  0  0
   60.4770   28.4840   45.3740 C   0  0  0  0  0  0  0  0  0  0  0  0
   60.8480   27.2740   45.9590 C   0  0  0  0  0  0  0  0  0  0  0  0
   59.8720   26.4190   46.4750 C   0  0  0  0  0  0  0  0  0  0  0  0
   58.5160   26.7580   46.3920 C   0  0  0  0  0  0  0  0  0  0  0  0
   57.3530   25.6990   47.1790 Cl  0  0  0  0  0  0  0  0  0  0  0  0
   57.3990   33.3464   46.5097 H   0  0  0  0  0  0  0  0  0  0  0  0
   57.2095   31.6611   47.1253 H   0  0  0  0  0  0  0  0  0  0  0  0
   59.5890   34.1263   45.8093 H   0  0  0  0  0  0  0  0  0  0  0  0
   62.0131   34.1420   46.4015 H   0  0  0  0  0  0  0  0  0  0  0  0
   62.9626   32.2779   47.7690 H   0  0  0  0  0  0  0  0  0  0  0  0
   61.4784   30.4119   48.5135 H   0  0  0  0  0  0  0  0  0  0  0  0
   58.8429   29.7990   44.8395 H   0  0  0  0  0  0  0  0  0  0  0  0
   61.2479   29.1632   44.9812 H   0  0  0  0  0  0  0  0  0  0  0  0
   61.9100   26.9928   46.0141 H   0  0  0  0  0  0  0  0  0  0  0  0
   60.1705   25.4727   46.9499 H   0  0  0  0  0  0  0  0  0  0  0  0
  1  2  2  0
  2  3  1  0
  3  4  1  0
  4  5  1  0
  5  6  1  0
  6  7  1  0
  7  8  1  0
  8  9  2  0
  9 10  1  0
 10 11  2  0
 11 12  1  0
 12 13  2  0
  5 14  2  0
 14 15  1  0
 15 16  1  0
 16 17  2  0
  2 18  1  0
 18 19  2  0
 19 20  1  0
 20 21  2  0
 21 22  1  0
 22 23  2  0
 23 24  1  0
 16  4  1  0
 23 18  1  0
 12  7  1  0
  6 25  1  0
  6 26  1  0
  8 27  1  0
  9 28  1  0
 10 29  1  0
 11 30  1  0
 19 31  1  0
 20 32  1  0
 21 33  1  0
 22 34  1  0
M  CHG  2   3  -1  15  -1
M  END
>  <UniqueID>  (52) 
48

>  <SMILES>  (52) 
O=C([N-]n1c(Cn2ccccc2=O)n[n-]c1=S)c1ccccc1Cl

>  <Energy>  (52) 
86.3535200054843

>  <Genealogy>  (52) 
O=C([N-]n1c(Cn2ccccc2=O)n[n-]c1=S)c1ccccc1Cl (protonated)
O=C([N-]n1c(Cn2ccccc2=O)n[n-]c1=S)c1ccccc1Cl (3D coordinates assigned)
O=C([N-]n1c(Cn2ccccc2=O)n[n-]c1=S)c1ccccc1Cl (optimized conformer: 86.3535200054843 kcal/mol)

>  <smiles>  (52) 
O=C(Nn1c(Cn2ccccc2=O)n[nH]c1=S)c1ccccc1Cl

>  <score_type>  (52) 
oracle

>  <origin>  (52) 
adg

>  <m_score__min__energy>  (52) 
-10.369999999999999

>  <m_primary>  (52) 
energy

$$$$
52:0
     RDKit          3D

 25 26  0  0  0  0  0  0  0  0999 V2000
   59.0681   27.4251   46.4066 H   0  0  0  0  0  0  0  0  0  0  0  0
   58.0250   27.7670   46.3350 C   0  0  0  0  0  0  0  0  0  0  0  0
   57.0640   26.9080   46.7060 C   0  0  0  0  0  0  0  0  0  0  0  0
   56.4698   27.1662   47.5950 H   0  0  0  0  0  0  0  0  0  0  0  0
   56.7390   25.6380   46.0130 C   0  0  0  0  0  0  0  0  0  0  0  0
   57.7520   24.7350   45.6360 C   0  0  0  0  0  0  0  0  0  0  0  0
   58.8019   24.9603   45.8745 H   0  0  0  0  0  0  0  0  0  0  0  0
   57.4310   23.5550   44.9610 C   0  0  0  0  0  0  0  0  0  0  0  0
   58.2265   22.8479   44.6833 H   0  0  0  0  0  0  0  0  0  0  0  0
   56.1030   23.2710   44.6380 C   0  0  0  0  0  0  0  0  0  0  0  0
   55.8523   22.3380   44.1119 H   0  0  0  0  0  0  0  0  0  0  0  0
   55.0920   24.1720   44.9830 C   0  0  0  0  0  0  0  0  0  0  0  0
   54.0471   23.9507   44.7201 H   0  0  0  0  0  0  0  0  0  0  0  0
   55.4050   25.3550   45.6620 C   0  0  0  0  0  0  0  0  0  0  0  0
   54.3830   26.2400   45.9940 O   0  0  0  0  0  0  0  0  0  0  0  0
   57.7880   29.1390   45.8370 C   0  0  0  0  0  0  0  0  0  0  0  0
   56.5620   29.5280   45.2610 C   0  0  0  0  0  0  0  0  0  0  0  0
   55.5190   28.6190   45.1230 O   0  0  0  0  0  0  0  0  0  0  0  0
   56.3960   30.8000   44.8120 N   0  0  0  0  0  0  0  0  0  0  0  0
   57.3920   31.7240   44.8820 C   0  0  0  0  0  0  0  0  0  0  0  0
   57.1930   32.8920   44.4590 O   0  0  0  0  0  0  0  0  0  0  0  0
   58.6340   31.3710   45.4140 C   0  0  0  0  0  0  0  0  0  0  0  0
   59.4475   32.1098   45.4631 H   0  0  0  0  0  0  0  0  0  0  0  0
   58.8330   30.0710   45.8830 C   0  0  0  0  0  0  0  0  0  0  0  0
   59.8123   29.7780   46.2894 H   0  0  0  0  0  0  0  0  0  0  0  0
  1  2  1  0
  2  3  2  0
  3  4  1  0
  3  5  1  0
  5  6  2  0
  6  7  1  0
  6  8  1  0
  8  9  1  0
  8 10  2  0
 10 11  1  0
 10 12  1  0
 12 13  1  0
 12 14  2  0
 14 15  1  0
  2 16  1  0
 16 17  2  0
 17 18  1  0
 17 19  1  0
 19 20  1  0
 20 21  2  0
 20 22  1  0
 22 23  1  0
 22 24  2  0
 24 25  1  0
 14  5  1  0
 24 16  1  0
M  CHG  3  15  -1  18  -1  19  -1
M  END
>  <UniqueID>  (53) 
49

>  <SMILES>  (53) 
O=c1ccc(/C=C\c2ccccc2[O-])c([O-])[n-]1

>  <Energy>  (53) 
38.5584506251794

>  <Genealogy>  (53) 
O=c1ccc(C=Cc2ccccc2[O-])c([O-])[n-]1 (protonated)
O=c1ccc(/C=C\c2ccccc2[O-])c([O-])[n-]1 (cis-trans isomerization)
O=c1ccc(/C=C\c2ccccc2[O-])c([O-])[n-]1 (3D coordinates assigned)
O=c1ccc(/C=C\c2ccccc2[O-])c([O-])[n-]1 (optimized conformer: 38.5584506251794 kcal/mol)

>  <smiles>  (53) 
O=c1ccc(C=Cc2ccccc2O)c(O)[nH]1

>  <score_type>  (53) 
oracle

>  <origin>  (53) 
adg

>  <m_score__min__energy>  (53) 
-15.68

>  <m_primary>  (53) 
energy

$$$$
53:0
     RDKit          3D

 42 45  0  0  0  0  0  0  0  0999 V2000
   59.0040   32.3800   49.4190 C   0  0  0  0  0  0  0  0  0  0  0  0
   59.5660   31.9210   48.1940 O   0  0  0  0  0  0  0  0  0  0  0  0
   60.8200   32.3070   47.6970 C   0  0  0  0  0  0  0  0  0  0  0  0
   61.9950   31.5990   48.0230 C   0  0  0  0  0  0  0  0  0  0  0  0
   63.2390   32.0460   47.5730 C   0  0  0  0  0  0  0  0  0  0  0  0
   63.3300   33.2060   46.8070 C   0  0  0  0  0  0  0  0  0  0  0  0
   62.1750   33.9120   46.4680 C   0  0  0  0  0  0  0  0  0  0  0  0
   60.9150   33.4510   46.8740 C   0  0  0  0  0  0  0  0  0  0  0  0
   59.7550   34.1930   46.4630 N   0  0  0  0  0  0  0  0  0  0  0  0
   58.7310   33.7240   45.5760 C   0  0  0  0  0  0  0  0  0  0  0  0
   58.5270   34.3360   44.4950 O   0  0  0  0  0  0  0  0  0  0  0  0
   57.9160   32.5960   45.9070 N   0  0  0  0  0  0  0  0  0  0  0  0
   57.7100   31.5600   45.1470 C   0  0  0  0  0  0  0  0  0  0  0  0
   56.5090   31.3070   44.5680 N   0  0  0  0  0  0  0  0  0  0  0  0
   56.7240   30.0910   44.0100 C   0  0  0  0  0  0  0  0  0  0  0  0
   55.8190   29.4000   43.4730 O   0  0  0  0  0  0  0  0  0  0  0  0
   57.9910   29.6750   44.1760 N   0  0  0  0  0  0  0  0  0  0  0  0
   58.6050   30.5830   44.8840 N   0  0  0  0  0  0  0  0  0  0  0  0
   59.6010   30.0410   45.7060 N   0  0  0  0  0  0  0  0  0  0  0  0
   59.6090   28.7570   45.4970 C   0  0  0  0  0  0  0  0  0  0  0  0
   58.5470   28.4210   44.5290 C   0  0  0  0  0  0  0  0  0  0  0  0
   58.1530   27.2290   44.0690 C   0  0  0  0  0  0  0  0  0  0  0  0
   57.4500   26.2370   44.9060 C   0  0  0  0  0  0  0  0  0  0  0  0
   57.8990   24.9100   44.9140 C   0  0  0  0  0  0  0  0  0  0  0  0
   57.2430   23.9530   45.6890 C   0  0  0  0  0  0  0  0  0  0  0  0
   56.1240   24.3280   46.4370 C   0  0  0  0  0  0  0  0  0  0  0  0
   55.5230   23.4790   47.1460 O   0  0  0  0  0  0  0  0  0  0  0  0
   55.6780   25.6120   46.3940 N   0  0  0  0  0  0  0  0  0  0  0  0
   56.2980   26.5650   45.6470 C   0  0  0  0  0  0  0  0  0  0  0  0
   55.7690   27.8540   45.6050 O   0  0  0  0  0  0  0  0  0  0  0  0
   59.5504   31.9338   50.2630 H   0  0  0  0  0  0  0  0  0  0  0  0
   59.0819   33.4760   49.4702 H   0  0  0  0  0  0  0  0  0  0  0  0
   57.9456   32.0848   49.4702 H   0  0  0  0  0  0  0  0  0  0  0  0
   61.9312   30.6880   48.6362 H   0  0  0  0  0  0  0  0  0  0  0  0
   64.1489   31.4811   47.8239 H   0  0  0  0  0  0  0  0  0  0  0  0
   64.3131   33.5657   46.4691 H   0  0  0  0  0  0  0  0  0  0  0  0
   62.2539   34.8370   45.8779 H   0  0  0  0  0  0  0  0  0  0  0  0
   60.2965   28.0378   45.9661 H   0  0  0  0  0  0  0  0  0  0  0  0
   58.3622   26.9761   43.0191 H   0  0  0  0  0  0  0  0  0  0  0  0
   58.7706   24.6219   44.3080 H   0  0  0  0  0  0  0  0  0  0  0  0
   57.6031   22.9138   45.7109 H   0  0  0  0  0  0  0  0  0  0  0  0
   55.1300   28.1300   44.8700 H   0  0  0  0  0  0  0  0  0  0  0  0
  1  2  1  0
  2  3  1  0
  3  4  2  0
  4  5  1  0
  5  6  2  0
  6  7  1  0
  7  8  2  0
  8  9  1  0
  9 10  1  0
 10 11  2  0
 10 12  1  0
 12 13  2  3
 13 14  1  0
 14 15  1  0
 15 16  2  0
 15 17  1  0
 17 18  1  0
 18 19  1  0
 19 20  2  0
 20 21  1  0
 21 22  2  3
 22 23  1  0
 23 24  1  0
 24 25  2  0
 25 26  1  0
 26 27  2  0
 26 28  1  0
 28 29  1  0
 29 30  1  0
  8  3  1  0
 18 13  1  0
 29 23  2  0
 21 17  1  0
  1 31  1  0
  1 32  1  0
  1 33  1  0
  4 34  1  0
  5 35  1  0
  6 36  1  0
  7 37  1  0
 20 38  1  0
 22 39  1  0
 24 40  1  0
 25 41  1  0
 30 42  1  0
M  CHG  3   9  -1  14  -1  28  -1
M  END
>  <UniqueID>  (54) 
50

>  <SMILES>  (54) 
COc1ccccc1[N-]C(=O)N=c1[n-]c(=O)n2n1N=CC2=Cc1ccc(=O)[n-]c1O

>  <Energy>  (54) 
160.11329237863671

>  <Genealogy>  (54) 
COc1ccccc1[N-]C(=O)N=c1[n-]c(=O)n2n1N=CC2=Cc1ccc(=O)[n-]c1O (protonated)
COc1ccccc1[N-]C(=O)N=c1[n-]c(=O)n2n1N=CC2=Cc1ccc(=O)[n-]c1O (3D coordinates assigned)
COc1ccccc1[N-]C(=O)N=c1[n-]c(=O)n2n1N=CC2=Cc1ccc(=O)[n-]c1O (nonaromatic ring conformer: 160.11329237863671 kcal/mol)

>  <smiles>  (54) 
COc1ccccc1NC(=O)N=c1[nH]c(=O)n2n1N=CC2=Cc1ccc(=O)[nH]c1O

>  <score_type>  (54) 
oracle

>  <origin>  (54) 
adg

>  <m_score__min__energy>  (54) 
-13.67

>  <m_primary>  (54) 
energy

$$$$
54:0
     RDKit          3D

 46 48  0  0  0  0  0  0  0  0999 V2000
   59.2210   34.6460   45.9760 C   0  0  0  0  0  0  0  0  0  0  0  0
   58.1490   33.9940   46.7420 N   0  0  0  0  0  0  0  0  0  0  0  0
   57.0240   33.5560   45.8900 C   0  0  0  0  0  0  0  0  0  0  0  0
   57.4300   32.6050   44.7970 C   0  0  0  0  0  0  0  0  0  0  0  0
   58.3570   32.9250   44.0040 O   0  0  0  0  0  0  0  0  0  0  0  0
   56.7280   31.3670   44.6400 N   0  0  0  0  0  0  0  0  0  0  0  0
   57.2890   30.0520   44.7580 C   0  0  0  0  0  0  0  0  0  0  0  0
   58.6640   29.7980   44.5100 C   0  0  0  0  0  0  0  0  0  0  0  0
   59.1900   28.5030   44.6630 C   0  0  0  0  0  0  0  0  0  0  0  0
   58.3320   27.4880   45.0750 C   0  0  0  0  0  0  0  0  0  0  0  0
   57.0130   27.7350   45.3330 C   0  0  0  0  0  0  0  0  0  0  0  0
   56.4560   29.0030   45.1950 C   0  0  0  0  0  0  0  0  0  0  0  0
   56.4270   26.4770   45.7460 C   0  0  0  0  0  0  0  0  0  0  0  0
   55.2230   26.3020   46.0700 O   0  0  0  0  0  0  0  0  0  0  0  0
   57.5020   25.4190   45.7200 C   0  0  0  0  0  0  0  0  0  0  0  0
   57.7430   24.8430   47.1190 C   0  0  0  0  0  0  0  0  0  0  0  0
   57.1710   24.3200   44.7060 C   0  0  0  0  0  0  0  0  0  0  0  0
   58.6580   26.1530   45.2870 O   0  0  0  0  0  0  0  0  0  0  0  0
   58.7930   32.6940   47.7170 S   0  0  0  0  0  0  0  0  0  0  0  0
   58.1560   32.7010   49.0790 O   0  0  0  0  0  0  0  0  0  0  0  0
   58.5240   31.3710   47.0530 O   0  0  0  0  0  0  0  0  0  0  0  0
   60.5290   32.9170   47.9100 C   0  0  0  0  0  0  0  0  0  0  0  0
   61.4200   32.1400   47.1560 C   0  0  0  0  0  0  0  0  0  0  0  0
   62.8000   32.3130   47.3020 C   0  0  0  0  0  0  0  0  0  0  0  0
   63.2960   33.2640   48.1980 C   0  0  0  0  0  0  0  0  0  0  0  0
   64.6340   33.4300   48.3390 F   0  0  0  0  0  0  0  0  0  0  0  0
   62.4110   34.0460   48.9490 C   0  0  0  0  0  0  0  0  0  0  0  0
   61.0310   33.8740   48.8050 C   0  0  0  0  0  0  0  0  0  0  0  0
   59.9501   35.0894   46.6701 H   0  0  0  0  0  0  0  0  0  0  0  0
   59.7242   33.9009   45.3424 H   0  0  0  0  0  0  0  0  0  0  0  0
   58.7908   35.4356   45.3424 H   0  0  0  0  0  0  0  0  0  0  0  0
   56.2796   33.0560   46.5271 H   0  0  0  0  0  0  0  0  0  0  0  0
   56.6206   34.4552   45.4014 H   0  0  0  0  0  0  0  0  0  0  0  0
   59.3228   30.6209   44.1957 H   0  0  0  0  0  0  0  0  0  0  0  0
   60.2519   28.2977   44.4623 H   0  0  0  0  0  0  0  0  0  0  0  0
   55.3943   29.1813   45.4210 H   0  0  0  0  0  0  0  0  0  0  0  0
   57.4351   25.5788   47.8765 H   0  0  0  0  0  0  0  0  0  0  0  0
   57.1549   23.9216   47.2425 H   0  0  0  0  0  0  0  0  0  0  0  0
   58.8120   24.6150   47.2425 H   0  0  0  0  0  0  0  0  0  0  0  0
   56.8937   23.3994   45.2405 H   0  0  0  0  0  0  0  0  0  0  0  0
   56.3308   24.6446   44.0746 H   0  0  0  0  0  0  0  0  0  0  0  0
   58.0508   24.1266   44.0746 H   0  0  0  0  0  0  0  0  0  0  0  0
   61.0326   31.3926   46.4480 H   0  0  0  0  0  0  0  0  0  0  0  0
   63.4960   31.6998   46.7108 H   0  0  0  0  0  0  0  0  0  0  0  0
   62.8012   34.7961   49.6527 H   0  0  0  0  0  0  0  0  0  0  0  0
   60.3369   34.4906   49.3949 H   0  0  0  0  0  0  0  0  0  0  0  0
  1  2  1  0
  2  3  1  0
  3  4  1  0
  4  5  2  0
  4  6  1  0
  6  7  1  0
  7  8  2  0
  8  9  1  0
  9 10  2  0
 10 11  1  0
 11 12  2  0
 11 13  1  0
 13 14  2  0
 13 15  1  0
 15 16  1  0
 15 17  1  0
 15 18  1  0
  2 19  1  0
 19 20  2  0
 19 21  2  0
 19 22  1  0
 22 23  2  0
 23 24  1  0
 24 25  2  0
 25 26  1  0
 25 27  1  0
 27 28  2  0
 12  7  1  0
 28 22  1  0
 18 10  1  0
  1 29  1  0
  1 30  1  0
  1 31  1  0
  3 32  1  0
  3 33  1  0
  8 34  1  0
  9 35  1  0
 12 36  1  0
 16 37  1  0
 16 38  1  0
 16 39  1  0
 17 40  1  0
 17 41  1  0
 17 42  1  0
 23 43  1  0
 24 44  1  0
 27 45  1  0
 28 46  1  0
M  CHG  1   6  -1
M  END
>  <UniqueID>  (55) 
51

>  <SMILES>  (55) 
CN(CC(=O)[N-]c1ccc2c(c1)C(=O)C(C)(C)O2)S(=O)(=O)c1ccc(F)cc1

>  <Energy>  (55) 
71.14835089670375

>  <Genealogy>  (55) 
CN(CC(=O)[N-]c1ccc2c(c1)C(=O)C(C)(C)O2)S(=O)(=O)c1ccc(F)cc1 (protonated)
CN(CC(=O)[N-]c1ccc2c(c1)C(=O)C(C)(C)O2)S(=O)(=O)c1ccc(F)cc1 (3D coordinates assigned)
CN(CC(=O)[N-]c1ccc2c(c1)C(=O)C(C)(C)O2)S(=O)(=O)c1ccc(F)cc1 (nonaromatic ring conformer: 71.14835089670375 kcal/mol)

>  <smiles>  (55) 
CN(CC(=O)Nc1ccc2c(c1)C(=O)C(C)(C)O2)S(=O)(=O)c1ccc(F)cc1

>  <score_type>  (55) 
oracle

>  <origin>  (55) 
adg

>  <m_score__min__energy>  (55) 
-10.76

>  <m_primary>  (55) 
energy

$$$$
55:0
     RDKit          3D

 49 51  0  0  0  0  0  0  0  0999 V2000
   58.0640   28.0710   46.3110 O   0  0  0  0  0  0  0  0  0  0  0  0
   56.9660   27.6440   45.8620 C   0  0  0  0  0  0  0  0  0  0  0  0
   56.4640   26.3080   46.3080 C   0  0  0  0  0  0  0  0  0  0  0  0
   55.0960   26.1260   45.8300 N   0  0  0  0  0  0  0  0  0  0  0  0
   54.6580   24.4480   45.9170 S   0  0  0  0  0  0  0  0  0  0  0  0
   53.2210   24.2800   45.5070 O   0  0  0  0  0  0  0  0  0  0  0  0
   54.8070   23.9730   47.3360 O   0  0  0  0  0  0  0  0  0  0  0  0
   55.7040   23.4810   44.8780 C   0  0  0  0  0  0  0  0  0  0  0  0
   56.7890   22.7720   45.4170 C   0  0  0  0  0  0  0  0  0  0  0  0
   57.6020   21.9930   44.5870 C   0  0  0  0  0  0  0  0  0  0  0  0
   57.3320   21.9160   43.2160 C   0  0  0  0  0  0  0  0  0  0  0  0
   56.2490   22.6140   42.6760 C   0  0  0  0  0  0  0  0  0  0  0  0
   55.4340   23.3940   43.5030 C   0  0  0  0  0  0  0  0  0  0  0  0
   56.1560   28.4630   45.0010 N   0  0  0  0  0  0  0  0  0  0  0  0
   56.6140   29.6700   44.3680 C   0  0  0  0  0  0  0  0  0  0  0  0
   56.5170   29.7940   42.9740 C   0  0  0  0  0  0  0  0  0  0  0  0
   56.9740   30.9470   42.3320 C   0  0  0  0  0  0  0  0  0  0  0  0
   57.5460   31.9830   43.0740 C   0  0  0  0  0  0  0  0  0  0  0  0
   57.6730   31.8660   44.4630 C   0  0  0  0  0  0  0  0  0  0  0  0
   58.4140   33.1670   45.4010 S   0  0  0  0  0  0  0  0  0  0  0  0
   57.5000   33.5360   46.5360 O   0  0  0  0  0  0  0  0  0  0  0  0
   58.5750   34.3770   44.5250 O   0  0  0  0  0  0  0  0  0  0  0  0
   59.9740   32.7070   46.0390 N   0  0  0  0  0  0  0  0  0  0  0  0
   59.8170   31.7210   47.1210 C   0  0  0  0  0  0  0  0  0  0  0  0
   61.1760   31.4460   47.8020 C   0  0  0  0  0  0  0  0  0  0  0  0
   62.2390   32.0550   47.0940 O   0  0  0  0  0  0  0  0  0  0  0  0
   62.0740   33.4620   47.0970 C   0  0  0  0  0  0  0  0  0  0  0  0
   60.7010   33.8870   46.5300 C   0  0  0  0  0  0  0  0  0  0  0  0
   57.2120   30.7080   45.1070 C   0  0  0  0  0  0  0  0  0  0  0  0
   57.1066   25.5166   45.8948 H   0  0  0  0  0  0  0  0  0  0  0  0
   56.4824   26.2538   47.4065 H   0  0  0  0  0  0  0  0  0  0  0  0
   57.0005   22.8291   46.4950 H   0  0  0  0  0  0  0  0  0  0  0  0
   58.4534   21.4410   45.0119 H   0  0  0  0  0  0  0  0  0  0  0  0
   57.9730   21.3054   42.5631 H   0  0  0  0  0  0  0  0  0  0  0  0
   56.0368   22.5501   41.5986 H   0  0  0  0  0  0  0  0  0  0  0  0
   54.5802   23.9401   43.0754 H   0  0  0  0  0  0  0  0  0  0  0  0
   55.1440   28.2130   44.9060 H   0  0  0  0  0  0  0  0  0  0  0  0
   56.0778   28.9772   42.3824 H   0  0  0  0  0  0  0  0  0  0  0  0
   56.8833   31.0395   41.2397 H   0  0  0  0  0  0  0  0  0  0  0  0
   57.8975   32.8929   42.5656 H   0  0  0  0  0  0  0  0  0  0  0  0
   59.1102   32.1121   47.8677 H   0  0  0  0  0  0  0  0  0  0  0  0
   59.4357   30.7815   46.6944 H   0  0  0  0  0  0  0  0  0  0  0  0
   61.1513   31.8472   48.8259 H   0  0  0  0  0  0  0  0  0  0  0  0
   61.3446   30.3591   47.8136 H   0  0  0  0  0  0  0  0  0  0  0  0
   62.1591   33.8270   48.1312 H   0  0  0  0  0  0  0  0  0  0  0  0
   62.8548   33.8962   46.4552 H   0  0  0  0  0  0  0  0  0  0  0  0
   60.1138   34.3730   47.3230 H   0  0  0  0  0  0  0  0  0  0  0  0
   60.8552   34.5891   45.6973 H   0  0  0  0  0  0  0  0  0  0  0  0
   57.3187   30.6105   46.1975 H   0  0  0  0  0  0  0  0  0  0  0  0
  1  2  2  0
  2  3  1  0
  3  4  1  0
  4  5  1  0
  5  6  2  0
  5  7  2  0
  5  8  1  0
  8  9  2  0
  9 10  1  0
 10 11  2  0
 11 12  1  0
 12 13  2  0
  2 14  1  0
 14 15  1  0
 15 16  2  0
 16 17  1  0
 17 18  2  0
 18 19  1  0
 19 20  1  0
 20 21  2  0
 20 22  2  0
 20 23  1  0
 23 24  1  0
 24 25  1  0
 25 26  1  0
 26 27  1  0
 27 28  1  0
 19 29  2  0
 13  8  1  0
 29 15  1  0
 28 23  1  0
  3 30  1  0
  3 31  1  0
  9 32  1  0
 10 33  1  0
 11 34  1  0
 12 35  1  0
 13 36  1  0
 14 37  1  0
 16 38  1  0
 17 39  1  0
 18 40  1  0
 24 41  1  0
 24 42  1  0
 25 43  1  0
 25 44  1  0
 27 45  1  0
 27 46  1  0
 28 47  1  0
 28 48  1  0
 29 49  1  0
M  CHG  1   4  -1
M  END
>  <UniqueID>  (56) 
52

>  <SMILES>  (56) 
O=C(C[N-]S(=O)(=O)c1ccccc1)Nc1cccc(S(=O)(=O)N2CCOCC2)c1

>  <Energy>  (56) 
57.388245920585

>  <Genealogy>  (56) 
O=C(C[N-]S(=O)(=O)c1ccccc1)Nc1cccc(S(=O)(=O)N2CCOCC2)c1 (protonated)
O=C(C[N-]S(=O)(=O)c1ccccc1)Nc1cccc(S(=O)(=O)N2CCOCC2)c1 (3D coordinates assigned)
O=C(C[N-]S(=O)(=O)c1ccccc1)Nc1cccc(S(=O)(=O)N2CCOCC2)c1 (nonaromatic ring conformer: 57.388245920585 kcal/mol)

>  <smiles>  (56) 
O=C(CNS(=O)(=O)c1ccccc1)Nc1cccc(S(=O)(=O)N2CCOCC2)c1

>  <score_type>  (56) 
oracle

>  <origin>  (56) 
adg

>  <m_score__min__energy>  (56) 
-11.720000000000001

>  <m_primary>  (56) 
energy

$$$$
56:0
     RDKit          3D

 48 50  0  0  0  0  0  0  0  0999 V2000
   57.5200   29.3070   52.4530 C   0  0  0  0  0  0  0  0  0  0  0  0
   57.7450   30.1020   51.2330 N   0  0  0  0  0  0  0  0  0  0  0  0
   57.7450   31.5410   51.5670 C   0  0  0  0  0  0  0  0  0  0  0  0
   58.8350   32.3260   50.8290 C   0  0  0  0  0  0  0  0  0  0  0  0
   58.6730   32.4150   49.2950 C   0  0  0  0  0  0  0  0  0  0  0  0
   59.2290   31.2520   48.5770 N   0  0  0  0  0  0  0  0  0  0  0  0
   59.9050   31.4500   47.3150 C   0  0  0  0  0  0  0  0  0  0  0  0
   60.9700   30.8270   47.0570 O   0  0  0  0  0  0  0  0  0  0  0  0
   59.3980   32.4190   46.3240 C   0  0  0  0  0  0  0  0  0  0  0  0
   59.8600   33.7420   46.3840 C   0  0  0  0  0  0  0  0  0  0  0  0
   59.3450   34.7110   45.5220 C   0  0  0  0  0  0  0  0  0  0  0  0
   58.3670   34.3680   44.5890 C   0  0  0  0  0  0  0  0  0  0  0  0
   57.9080   33.0520   44.5070 C   0  0  0  0  0  0  0  0  0  0  0  0
   58.4190   32.0610   45.3630 C   0  0  0  0  0  0  0  0  0  0  0  0
   57.9770   30.6580   45.1890 C   0  0  0  0  0  0  0  0  0  0  0  0
   56.7520   30.4200   45.0130 O   0  0  0  0  0  0  0  0  0  0  0  0
   58.9290   29.5810   45.2750 N   0  0  0  0  0  0  0  0  0  0  0  0
   58.6000   28.1780   45.2420 C   0  0  0  0  0  0  0  0  0  0  0  0
   58.2740   27.5120   44.0430 C   0  0  0  0  0  0  0  0  0  0  0  0
   57.9910   26.1420   44.0520 C   0  0  0  0  0  0  0  0  0  0  0  0
   58.0400   25.4220   45.2470 C   0  0  0  0  0  0  0  0  0  0  0  0
   58.3810   26.0690   46.4370 C   0  0  0  0  0  0  0  0  0  0  0  0
   58.6660   27.4370   46.4340 C   0  0  0  0  0  0  0  0  0  0  0  0
   58.9140   29.8660   48.9840 C   0  0  0  0  0  0  0  0  0  0  0  0
   58.9540   29.6340   50.5100 C   0  0  0  0  0  0  0  0  0  0  0  0
   57.6979   29.9354   53.3381 H   0  0  0  0  0  0  0  0  0  0  0  0
   56.4829   28.9406   52.4658 H   0  0  0  0  0  0  0  0  0  0  0  0
   58.2113   28.4515   52.4658 H   0  0  0  0  0  0  0  0  0  0  0  0
   56.7656   31.9634   51.2981 H   0  0  0  0  0  0  0  0  0  0  0  0
   57.9478   31.6291   52.6445 H   0  0  0  0  0  0  0  0  0  0  0  0
   58.8426   33.3510   51.2283 H   0  0  0  0  0  0  0  0  0  0  0  0
   59.7709   31.7740   51.0006 H   0  0  0  0  0  0  0  0  0  0  0  0
   57.6005   32.4884   49.0616 H   0  0  0  0  0  0  0  0  0  0  0  0
   59.2336   33.3004   48.9608 H   0  0  0  0  0  0  0  0  0  0  0  0
   60.6337   34.0176   47.1157 H   0  0  0  0  0  0  0  0  0  0  0  0
   59.7110   35.7468   45.5785 H   0  0  0  0  0  0  0  0  0  0  0  0
   57.9565   35.1356   43.9165 H   0  0  0  0  0  0  0  0  0  0  0  0
   57.1394   32.7882   43.7657 H   0  0  0  0  0  0  0  0  0  0  0  0
   59.9260   29.8290   45.4640 H   0  0  0  0  0  0  0  0  0  0  0  0
   58.2420   28.0718   43.0966 H   0  0  0  0  0  0  0  0  0  0  0  0
   57.7290   25.6303   43.1142 H   0  0  0  0  0  0  0  0  0  0  0  0
   57.8103   24.3463   45.2515 H   0  0  0  0  0  0  0  0  0  0  0  0
   58.4253   25.5008   47.3779 H   0  0  0  0  0  0  0  0  0  0  0  0
   58.9444   27.9381   47.3728 H   0  0  0  0  0  0  0  0  0  0  0  0
   57.9041   29.6209   48.6234 H   0  0  0  0  0  0  0  0  0  0  0  0
   59.6894   29.2216   48.5442 H   0  0  0  0  0  0  0  0  0  0  0  0
   59.0671   28.5549   50.6911 H   0  0  0  0  0  0  0  0  0  0  0  0
   59.7985   30.2242   50.8954 H   0  0  0  0  0  0  0  0  0  0  0  0
  1  2  1  0
  2  3  1  0
  3  4  1  0
  4  5  1  0
  5  6  1  0
  6  7  1  0
  7  8  2  0
  7  9  1  0
  9 10  2  0
 10 11  1  0
 11 12  2  0
 12 13  1  0
 13 14  2  0
 14 15  1  0
 15 16  2  0
 15 17  1  0
 17 18  1  0
 18 19  2  0
 19 20  1  0
 20 21  2  0
 21 22  1  0
 22 23  2  0
  6 24  1  0
 24 25  1  0
 25  2  1  0
 14  9  1  0
 23 18  1  0
  1 26  1  0
  1 27  1  0
  1 28  1  0
  3 29  1  0
  3 30  1  0
  4 31  1  0
  4 32  1  0
  5 33  1  0
  5 34  1  0
 10 35  1  0
 11 36  1  0
 12 37  1  0
 13 38  1  0
 17 39  1  0
 19 40  1  0
 20 41  1  0
 21 42  1  0
 22 43  1  0
 23 44  1  0
 24 45  1  0
 24 46  1  0
 25 47  1  0
 25 48  1  0
M  END
>  <UniqueID>  (57) 
53

>  <SMILES>  (57) 
CN1CCCN(C(=O)c2ccccc2C(=O)Nc2ccccc2)CC1

>  <Energy>  (57) 
74.80824667240003

>  <Genealogy>  (57) 
CN1CCCN(C(=O)c2ccccc2C(=O)Nc2ccccc2)CC1 (3D coordinates assigned)
CN1CCCN(C(=O)c2ccccc2C(=O)Nc2ccccc2)CC1 (nonaromatic ring conformer: 74.80824667240003 kcal/mol)

>  <smiles>  (57) 
CN1CCCN(C(=O)c2ccccc2C(=O)Nc2ccccc2)CC1

>  <score_type>  (57) 
oracle

>  <origin>  (57) 
adg

>  <m_score__min__energy>  (57) 
-5.5599999999999996

>  <m_primary>  (57) 
energy

$$$$
57:0
     RDKit          3D

 54 56  0  0  0  0  0  0  0  0999 V2000
   57.0300   29.1770   43.0620 N   0  0  0  0  0  0  0  0  0  0  0  0
   56.5600   29.7830   44.6110 S   0  0  0  0  0  0  0  0  0  0  0  0
   55.5400   28.8630   45.2230 O   0  0  0  0  0  0  0  0  0  0  0  0
   55.9440   31.1450   44.4490 O   0  0  0  0  0  0  0  0  0  0  0  0
   57.9730   29.8800   45.6570 C   0  0  0  0  0  0  0  0  0  0  0  0
   58.1690   28.9370   46.6740 C   0  0  0  0  0  0  0  0  0  0  0  0
   59.2710   29.0420   47.5270 C   0  0  0  0  0  0  0  0  0  0  0  0
   60.1740   30.1080   47.3900 C   0  0  0  0  0  0  0  0  0  0  0  0
   61.3200   30.2510   48.3110 C   0  0  0  0  0  0  0  0  0  0  0  0
   61.3150   29.6150   49.3980 O   0  0  0  0  0  0  0  0  0  0  0  0
   62.4390   31.0980   48.0150 N   0  0  0  0  0  0  0  0  0  0  0  0
   62.4790   32.5530   48.1560 C   0  0  0  0  0  0  0  0  0  0  0  0
   61.7880   32.9970   49.4500 C   0  0  0  0  0  0  0  0  0  0  0  0
   60.4080   33.4810   49.2050 N   0  0  0  0  0  0  0  0  0  0  0  0
   60.3780   34.5850   48.2240 C   0  0  0  0  0  0  0  0  0  0  0  0
   59.3380   34.3210   47.1660 C   0  0  0  0  0  0  0  0  0  0  0  0
   58.1490   33.6400   47.4820 C   0  0  0  0  0  0  0  0  0  0  0  0
   57.1780   33.4260   46.4980 C   0  0  0  0  0  0  0  0  0  0  0  0
   57.3860   33.8860   45.1960 C   0  0  0  0  0  0  0  0  0  0  0  0
   58.5680   34.5600   44.8740 C   0  0  0  0  0  0  0  0  0  0  0  0
   59.5410   34.7760   45.8530 C   0  0  0  0  0  0  0  0  0  0  0  0
   59.6620   33.8150   50.4460 C   0  0  0  0  0  0  0  0  0  0  0  0
   58.7990   32.6880   50.9780 C   0  0  0  0  0  0  0  0  0  0  0  0
   58.8840   31.4040   50.4110 C   0  0  0  0  0  0  0  0  0  0  0  0
   58.0850   30.3640   50.8940 C   0  0  0  0  0  0  0  0  0  0  0  0
   57.1880   30.5980   51.9390 C   0  0  0  0  0  0  0  0  0  0  0  0
   57.0840   31.8740   52.4970 C   0  0  0  0  0  0  0  0  0  0  0  0
   57.8820   32.9170   52.0170 C   0  0  0  0  0  0  0  0  0  0  0  0
   59.9960   31.0280   46.3440 C   0  0  0  0  0  0  0  0  0  0  0  0
   58.8940   30.9220   45.4920 C   0  0  0  0  0  0  0  0  0  0  0  0
   58.0630   29.3080   42.9840 H   0  0  0  0  0  0  0  0  0  0  0  0
   56.8580   28.1460   43.0730 H   0  0  0  0  0  0  0  0  0  0  0  0
   57.4534   28.1114   46.8016 H   0  0  0  0  0  0  0  0  0  0  0  0
   59.4316   28.2857   48.3095 H   0  0  0  0  0  0  0  0  0  0  0  0
   63.5278   32.8841   48.1761 H   0  0  0  0  0  0  0  0  0  0  0  0
   61.9499   33.0031   47.3031 H   0  0  0  0  0  0  0  0  0  0  0  0
   61.7472   32.1428   50.1419 H   0  0  0  0  0  0  0  0  0  0  0  0
   62.3686   33.8279   49.8773 H   0  0  0  0  0  0  0  0  0  0  0  0
   60.1364   35.5243   48.7430 H   0  0  0  0  0  0  0  0  0  0  0  0
   61.3643   34.6611   47.7430 H   0  0  0  0  0  0  0  0  0  0  0  0
   57.9819   33.2745   48.5060 H   0  0  0  0  0  0  0  0  0  0  0  0
   56.2487   32.8943   46.7504 H   0  0  0  0  0  0  0  0  0  0  0  0
   56.6204   33.7182   44.4242 H   0  0  0  0  0  0  0  0  0  0  0  0
   58.7321   34.9209   43.8479 H   0  0  0  0  0  0  0  0  0  0  0  0
   60.4702   35.3048   45.5942 H   0  0  0  0  0  0  0  0  0  0  0  0
   60.3911   34.0870   51.2235 H   0  0  0  0  0  0  0  0  0  0  0  0
   58.9805   34.6400   50.1913 H   0  0  0  0  0  0  0  0  0  0  0  0
   59.5833   31.2171   49.5827 H   0  0  0  0  0  0  0  0  0  0  0  0
   58.1626   29.3602   50.4508 H   0  0  0  0  0  0  0  0  0  0  0  0
   56.5637   29.7774   52.3223 H   0  0  0  0  0  0  0  0  0  0  0  0
   56.3729   32.0589   53.3157 H   0  0  0  0  0  0  0  0  0  0  0  0
   57.7912   33.9218   52.4552 H   0  0  0  0  0  0  0  0  0  0  0  0
   60.7276   31.8358   46.1949 H   0  0  0  0  0  0  0  0  0  0  0  0
   58.7492   31.6595   44.6888 H   0  0  0  0  0  0  0  0  0  0  0  0
  1  2  1  0
  2  3  2  0
  2  4  2  0
  2  5  1  0
  5  6  2  0
  6  7  1  0
  7  8  2  0
  8  9  1  0
  9 10  2  0
  9 11  1  0
 11 12  1  0
 12 13  1  0
 13 14  1  0
 14 15  1  0
 15 16  1  0
 16 17  2  0
 17 18  1  0
 18 19  2  0
 19 20  1  0
 20 21  2  0
 14 22  1  0
 22 23  1  0
 23 24  2  0
 24 25  1  0
 25 26  2  0
 26 27  1  0
 27 28  2  0
  8 29  1  0
 29 30  2  0
 30  5  1  0
 21 16  1  0
 28 23  1  0
  1 31  1  0
  1 32  1  0
  6 33  1  0
  7 34  1  0
 12 35  1  0
 12 36  1  0
 13 37  1  0
 13 38  1  0
 15 39  1  0
 15 40  1  0
 17 41  1  0
 18 42  1  0
 19 43  1  0
 20 44  1  0
 21 45  1  0
 22 46  1  0
 22 47  1  0
 24 48  1  0
 25 49  1  0
 26 50  1  0
 27 51  1  0
 28 52  1  0
 29 53  1  0
 30 54  1  0
M  CHG  1  11  -1
M  END
>  <UniqueID>  (58) 
54

>  <SMILES>  (58) 
NS(=O)(=O)c1ccc(C(=O)[N-]CCN(Cc2ccccc2)Cc2ccccc2)cc1

>  <Energy>  (58) 
58.716137008570875

>  <Genealogy>  (58) 
NS(=O)(=O)c1ccc(C(=O)[N-]CCN(Cc2ccccc2)Cc2ccccc2)cc1 (protonated)
NS(=O)(=O)c1ccc(C(=O)[N-]CCN(Cc2ccccc2)Cc2ccccc2)cc1 (3D coordinates assigned)
NS(=O)(=O)c1ccc(C(=O)[N-]CCN(Cc2ccccc2)Cc2ccccc2)cc1 (optimized conformer: 58.716137008570875 kcal/mol)

>  <smiles>  (58) 
NS(=O)(=O)c1ccc(C(=O)NCCN(Cc2ccccc2)Cc2ccccc2)cc1

>  <score_type>  (58) 
oracle

>  <origin>  (58) 
adg

>  <m_score__min__energy>  (58) 
-11.48

>  <m_primary>  (58) 
energy

$$$$
58:0
     RDKit          3D

 49 52  0  0  0  0  0  0  0  0999 V2000
   62.0263   34.0033   45.3570 H   0  0  0  0  0  0  0  0  0  0  0  0
   61.9280   33.8930   46.4470 C   0  0  0  0  0  0  0  0  0  0  0  0
   60.7440   34.4890   47.0930 C   0  0  0  0  0  0  0  0  0  0  0  0
   60.7290   34.6160   48.3480 O   0  0  0  0  0  0  0  0  0  0  0  0
   59.5930   34.8480   46.3210 N   0  0  0  0  0  0  0  0  0  0  0  0
   59.4600   34.6020   44.8900 C   0  0  0  0  0  0  0  0  0  0  0  0
   58.9630   35.4608   44.4152 H   0  0  0  0  0  0  0  0  0  0  0  0
   60.4578   34.4646   44.4478 H   0  0  0  0  0  0  0  0  0  0  0  0
   58.6400   33.3640   44.6680 C   0  0  0  0  0  0  0  0  0  0  0  0
   58.2180   32.5870   45.7570 C   0  0  0  0  0  0  0  0  0  0  0  0
   58.5283   32.8589   46.7767 H   0  0  0  0  0  0  0  0  0  0  0  0
   57.4050   31.4690   45.5520 C   0  0  0  0  0  0  0  0  0  0  0  0
   57.0939   30.8559   46.4107 H   0  0  0  0  0  0  0  0  0  0  0  0
   56.9810   31.1210   44.2560 C   0  0  0  0  0  0  0  0  0  0  0  0
   56.1080   29.9450   44.0300 C   0  0  0  0  0  0  0  0  0  0  0  0
   55.6360   29.7360   42.8810 O   0  0  0  0  0  0  0  0  0  0  0  0
   55.8150   29.0060   45.0750 N   0  0  0  0  0  0  0  0  0  0  0  0
   56.6690   27.9350   45.5060 C   0  0  0  0  0  0  0  0  0  0  0  0
   58.0580   28.1050   45.4200 C   0  0  0  0  0  0  0  0  0  0  0  0
   58.4701   29.0359   45.0032 H   0  0  0  0  0  0  0  0  0  0  0  0
   58.9230   27.0980   45.8610 C   0  0  0  0  0  0  0  0  0  0  0  0
   60.0118   27.2442   45.8044 H   0  0  0  0  0  0  0  0  0  0  0  0
   58.4030   25.9050   46.3740 C   0  0  0  0  0  0  0  0  0  0  0  0
   59.0832   25.1189   46.7337 H   0  0  0  0  0  0  0  0  0  0  0  0
   57.0200   25.7110   46.4300 C   0  0  0  0  0  0  0  0  0  0  0  0
   56.6140   24.7683   46.8256 H   0  0  0  0  0  0  0  0  0  0  0  0
   56.1500   26.7130   45.9840 C   0  0  0  0  0  0  0  0  0  0  0  0
   54.7790   26.4760   45.9960 O   0  0  0  0  0  0  0  0  0  0  0  0
   57.4140   31.8960   43.1670 C   0  0  0  0  0  0  0  0  0  0  0  0
   57.1104   31.6218   42.1459 H   0  0  0  0  0  0  0  0  0  0  0  0
   58.2280   33.0130   43.3730 C   0  0  0  0  0  0  0  0  0  0  0  0
   58.5481   33.6214   42.5143 H   0  0  0  0  0  0  0  0  0  0  0  0
   62.8930   33.2260   47.0960 C   0  0  0  0  0  0  0  0  0  0  0  0
   63.9392   33.4135   46.8126 H   0  0  0  0  0  0  0  0  0  0  0  0
   62.6230   32.2570   48.1670 C   0  0  0  0  0  0  0  0  0  0  0  0
   63.3740   32.0740   49.3250 C   0  0  0  0  0  0  0  0  0  0  0  0
   64.2584   32.6668   49.6016 H   0  0  0  0  0  0  0  0  0  0  0  0
   62.8590   31.0610   50.0620 N   0  0  0  0  0  0  0  0  0  0  0  0
   63.2290   30.6980   50.9690 H   0  0  0  0  0  0  0  0  0  0  0  0
   61.7970   30.6020   49.3720 C   0  0  0  0  0  0  0  0  0  0  0  0
   60.9710   29.5300   49.7060 C   0  0  0  0  0  0  0  0  0  0  0  0
   61.1208   28.9674   50.6393 H   0  0  0  0  0  0  0  0  0  0  0  0
   59.9380   29.1900   48.8100 C   0  0  0  0  0  0  0  0  0  0  0  0
   59.2704   28.3470   49.0415 H   0  0  0  0  0  0  0  0  0  0  0  0
   59.7530   29.9230   47.6170 C   0  0  0  0  0  0  0  0  0  0  0  0
   58.9386   29.6517   46.9292 H   0  0  0  0  0  0  0  0  0  0  0  0
   60.6050   30.9990   47.3030 C   0  0  0  0  0  0  0  0  0  0  0  0
   60.4768   31.5735   46.3737 H   0  0  0  0  0  0  0  0  0  0  0  0
   61.6180   31.3120   48.2110 C   0  0  0  0  0  0  0  0  0  0  0  0
  1  2  1  0
  2  3  1  0
  3  4  2  0
  3  5  1  0
  5  6  1  0
  6  7  1  0
  6  8  1  0
  6  9  1  0
  9 10  2  0
 10 11  1  0
 10 12  1  0
 12 13  1  0
 12 14  2  0
 14 15  1  0
 15 16  2  0
 15 17  1  0
 17 18  1  0
 18 19  2  0
 19 20  1  0
 19 21  1  0
 21 22  1  0
 21 23  2  0
 23 24  1  0
 23 25  1  0
 25 26  1  0
 25 27  2  0
 27 28  1  0
 14 29  1  0
 29 30  1  0
 29 31  2  0
 31 32  1  0
  2 33  2  0
 33 34  1  0
 33 35  1  0
 35 36  2  0
 36 37  1  0
 36 38  1  0
 38 39  1  0
 38 40  1  0
 40 41  2  0
 41 42  1  0
 41 43  1  0
 43 44  1  0
 43 45  2  0
 45 46  1  0
 45 47  1  0
 47 48  1  0
 47 49  2  0
 31  9  1  0
 49 35  1  0
 27 18  1  0
 49 40  1  0
M  CHG  3   5  -1  17  -1  28  -1
M  END
>  <UniqueID>  (59) 
55

>  <SMILES>  (59) 
O=C(/C=C\c1c[nH]c2ccccc12)[N-]Cc1ccc(C(=O)[N-]c2ccccc2[O-])cc1

>  <Energy>  (59) 
98.65687101604848

>  <Genealogy>  (59) 
O=C(C=Cc1c[nH]c2ccccc12)[N-]Cc1ccc(C(=O)[N-]c2ccccc2[O-])cc1 (protonated)
O=C(/C=C\c1c[nH]c2ccccc12)[N-]Cc1ccc(C(=O)[N-]c2ccccc2[O-])cc1 (cis-trans isomerization)
O=C(/C=C\c1c[nH]c2ccccc12)[N-]Cc1ccc(C(=O)[N-]c2ccccc2[O-])cc1 (3D coordinates assigned)
O=C(/C=C\c1c[nH]c2ccccc12)[N-]Cc1ccc(C(=O)[N-]c2ccccc2[O-])cc1 (optimized conformer: 98.65687101604848 kcal/mol)

>  <smiles>  (59) 
O=C(C=Cc1c[nH]c2ccccc12)NCc1ccc(C(=O)Nc2ccccc2O)cc1

>  <score_type>  (59) 
oracle

>  <origin>  (59) 
adg

>  <m_score__min__energy>  (59) 
-16.079999999999998

>  <m_primary>  (59) 
energy

$$$$
59:0
     RDKit          3D

 47 49  0  0  0  0  0  0  0  0999 V2000
   59.5309   25.3906   46.6190 H   0  0  0  0  0  0  0  0  0  0  0  0
   58.4550   25.5770   46.4860 C   0  0  0  0  0  0  0  0  0  0  0  0
   58.0300   26.7460   45.9380 N   0  0  0  0  0  0  0  0  0  0  0  0
   56.7070   27.0220   45.7540 C   0  0  0  0  0  0  0  0  0  0  0  0
   56.3180   28.1480   45.2260 N   0  0  0  0  0  0  0  0  0  0  0  0
   56.9800   29.4220   45.3070 C   0  0  0  0  0  0  0  0  0  0  0  0
   56.4320   30.4600   44.8440 O   0  0  0  0  0  0  0  0  0  0  0  0
   58.3180   29.5180   45.9370 C   0  0  0  0  0  0  0  0  0  0  0  0
   59.4770   29.5930   45.1440 C   0  0  0  0  0  0  0  0  0  0  0  0
   59.3903   29.5784   44.0475 H   0  0  0  0  0  0  0  0  0  0  0  0
   60.7380   29.6860   45.7390 C   0  0  0  0  0  0  0  0  0  0  0  0
   61.6381   29.7460   45.1096 H   0  0  0  0  0  0  0  0  0  0  0  0
   60.8590   29.7030   47.1290 C   0  0  0  0  0  0  0  0  0  0  0  0
   61.8545   29.7777   47.5909 H   0  0  0  0  0  0  0  0  0  0  0  0
   59.7130   29.6250   47.9430 C   0  0  0  0  0  0  0  0  0  0  0  0
   59.7740   29.6380   49.3460 O   0  0  0  0  0  0  0  0  0  0  0  0
   59.1300   30.5880   50.1950 C   0  0  0  0  0  0  0  0  0  0  0  0
   59.4475   30.4176   51.2343 H   0  0  0  0  0  0  0  0  0  0  0  0
   58.0409   30.4633   50.1043 H   0  0  0  0  0  0  0  0  0  0  0  0
   59.4990   32.0160   49.7840 C   0  0  0  0  0  0  0  0  0  0  0  0
   59.2642   32.7002   50.6127 H   0  0  0  0  0  0  0  0  0  0  0  0
   58.9203   32.2816   48.8870 H   0  0  0  0  0  0  0  0  0  0  0  0
   60.9900   32.1270   49.4510 C   0  0  0  0  0  0  0  0  0  0  0  0
   61.4178   31.1171   49.3670 H   0  0  0  0  0  0  0  0  0  0  0  0
   61.4918   32.6873   50.2536 H   0  0  0  0  0  0  0  0  0  0  0  0
   61.1840   32.8380   48.1870 N   0  0  0  0  0  0  0  0  0  0  0  0
   60.2250   33.2450   47.4070 C   0  0  0  0  0  0  0  0  0  0  0  0
   59.1990   32.4140   47.0650 N   0  0  0  0  0  0  0  0  0  0  0  0
   58.1880   32.8150   46.2510 C   0  0  0  0  0  0  0  0  0  0  0  0
   57.3739   32.1181   46.0030 H   0  0  0  0  0  0  0  0  0  0  0  0
   58.1800   34.1160   45.7260 C   0  0  0  0  0  0  0  0  0  0  0  0
   57.0490   34.5820   44.8590 C   0  0  0  0  0  0  0  0  0  0  0  0
   56.2179   34.9244   45.4931 H   0  0  0  0  0  0  0  0  0  0  0  0
   57.3918   35.4122   44.2239 H   0  0  0  0  0  0  0  0  0  0  0  0
   56.7075   33.7513   44.2239 H   0  0  0  0  0  0  0  0  0  0  0  0
   59.2130   34.9920   46.0830 C   0  0  0  0  0  0  0  0  0  0  0  0
   59.2141   36.0240   45.7022 H   0  0  0  0  0  0  0  0  0  0  0  0
   60.2420   34.5570   46.9220 C   0  0  0  0  0  0  0  0  0  0  0  0
   61.0584   35.2403   47.1988 H   0  0  0  0  0  0  0  0  0  0  0  0
   58.4520   29.5360   47.3390 C   0  0  0  0  0  0  0  0  0  0  0  0
   57.5525   29.4793   47.9696 H   0  0  0  0  0  0  0  0  0  0  0  0
   55.7470   26.0740   46.1400 C   0  0  0  0  0  0  0  0  0  0  0  0
   54.3900   26.3240   45.9660 O   0  0  0  0  0  0  0  0  0  0  0  0
   56.1640   24.8650   46.7060 C   0  0  0  0  0  0  0  0  0  0  0  0
   55.4206   24.1146   47.0132 H   0  0  0  0  0  0  0  0  0  0  0  0
   57.5250   24.6130   46.8800 C   0  0  0  0  0  0  0  0  0  0  0  0
   57.8621   23.6643   47.3232 H   0  0  0  0  0  0  0  0  0  0  0  0
  1  2  1  0
  2  3  1  0
  3  4  1  0
  4  5  2  0
  5  6  1  0
  6  7  2  0
  6  8  1  0
  8  9  2  0
  9 10  1  0
  9 11  1  0
 11 12  1  0
 11 13  2  0
 13 14  1  0
 13 15  1  0
 15 16  1  0
 16 17  1  0
 17 18  1  0
 17 19  1  0
 17 20  1  0
 20 21  1  0
 20 22  1  0
 20 23  1  0
 23 24  1  0
 23 25  1  0
 23 26  1  0
 26 27  2  3
 27 28  1  0
 28 29  1  0
 29 30  1  0
 29 31  2  0
 31 32  1  0
 32 33  1  0
 32 34  1  0
 32 35  1  0
 31 36  1  0
 36 37  1  0
 36 38  2  0
 38 39  1  0
 15 40  2  0
 40 41  1  0
  4 42  1  0
 42 43  1  0
 42 44  2  0
 44 45  1  0
 44 46  1  0
 46 47  1  0
 46  2  2  0
 40  8  1  0
 38 27  1  0
M  CHG  3   3  -1  28  -1  43  -1
M  END
>  <UniqueID>  (60) 
56

>  <SMILES>  (60) 
Cc1ccc(=NCCCOc2cccc(C(=O)/N=c3\[n-]cccc3[O-])c2)[n-]c1

>  <Energy>  (60) 
50.25358287428815

>  <Genealogy>  (60) 
Cc1ccc(=NCCCOc2cccc(C(=O)N=c3[n-]cccc3[O-])c2)[n-]c1 (protonated)
Cc1ccc(=NCCCOc2cccc(C(=O)/N=c3\[n-]cccc3[O-])c2)[n-]c1 (cis-trans isomerization)
Cc1ccc(=NCCCOc2cccc(C(=O)/N=c3\[n-]cccc3[O-])c2)[n-]c1 (3D coordinates assigned)
Cc1ccc(=NCCCOc2cccc(C(=O)/N=c3\[n-]cccc3[O-])c2)[n-]c1 (optimized conformer: 50.25358287428815 kcal/mol)

>  <smiles>  (60) 
Cc1ccc(=NCCCOc2cccc(C(=O)N=c3[nH]cccc3O)c2)[nH]c1

>  <score_type>  (60) 
oracle

>  <origin>  (60) 
adg

>  <m_score__min__energy>  (60) 
-14.289999999999999

>  <m_primary>  (60) 
energy

$$$$
60:0
     RDKit          3D

 52 55  0  0  0  0  0  0  0  0999 V2000
   58.1570   34.4210   46.3270 O   0  0  0  0  0  0  0  0  0  0  0  0
   58.4760   33.2090   46.1910 C   0  0  0  0  0  0  0  0  0  0  0  0
   59.1960   32.5340   47.2330 N   0  0  0  0  0  0  0  0  0  0  0  0
   60.6100   32.5920   47.4710 C   0  0  0  0  0  0  0  0  0  0  0  0
   61.4360   31.4730   47.2500 C   0  0  0  0  0  0  0  0  0  0  0  0
   62.8100   31.5490   47.5040 C   0  0  0  0  0  0  0  0  0  0  0  0
   63.3680   32.7310   47.9920 C   0  0  0  0  0  0  0  0  0  0  0  0
   62.5530   33.8390   48.2370 C   0  0  0  0  0  0  0  0  0  0  0  0
   61.1770   33.7750   47.9860 C   0  0  0  0  0  0  0  0  0  0  0  0
   60.3960   34.9010   48.2490 O   0  0  0  0  0  0  0  0  0  0  0  0
   58.0500   32.4630   44.9830 C   0  0  0  0  0  0  0  0  0  0  0  0
   58.1320   33.0570   43.7100 C   0  0  0  0  0  0  0  0  0  0  0  0
   57.7470   32.3470   42.5710 C   0  0  0  0  0  0  0  0  0  0  0  0
   57.2840   31.0340   42.6850 C   0  0  0  0  0  0  0  0  0  0  0  0
   57.1960   30.4230   43.9450 C   0  0  0  0  0  0  0  0  0  0  0  0
   56.7520   28.9930   44.0730 C   0  0  0  0  0  0  0  0  0  0  0  0
   56.6670   28.6610   45.4550 O   0  0  0  0  0  0  0  0  0  0  0  0
   57.7150   28.1240   46.2200 C   0  0  0  0  0  0  0  0  0  0  0  0
   58.5760   28.9340   46.9850 C   0  0  0  0  0  0  0  0  0  0  0  0
   59.6060   28.3570   47.7320 C   0  0  0  0  0  0  0  0  0  0  0  0
   59.7960   26.9740   47.7120 C   0  0  0  0  0  0  0  0  0  0  0  0
   60.8100   26.4210   48.4210 F   0  0  0  0  0  0  0  0  0  0  0  0
   58.9500   26.1620   46.9510 C   0  0  0  0  0  0  0  0  0  0  0  0
   57.8940   26.7310   46.2170 C   0  0  0  0  0  0  0  0  0  0  0  0
   57.0260   25.9310   45.3990 N   0  0  0  0  0  0  0  0  0  0  0  0
   55.7030   25.4810   45.7240 C   0  0  0  0  0  0  0  0  0  0  0  0
   54.7990   26.3220   45.9850 O   0  0  0  0  0  0  0  0  0  0  0  0
   55.3920   24.0260   45.6940 C   0  0  0  0  0  0  0  0  0  0  0  0
   56.4300   23.0860   45.8310 C   0  0  0  0  0  0  0  0  0  0  0  0
   56.1550   21.7190   45.8120 C   0  0  0  0  0  0  0  0  0  0  0  0
   54.8400   21.2880   45.6530 C   0  0  0  0  0  0  0  0  0  0  0  0
   53.8400   22.1970   45.5160 N   0  0  0  0  0  0  0  0  0  0  0  0
   54.0720   23.5370   45.5300 C   0  0  0  0  0  0  0  0  0  0  0  0
   53.1000   24.3240   45.3900 O   0  0  0  0  0  0  0  0  0  0  0  0
   57.5770   31.1410   45.0890 C   0  0  0  0  0  0  0  0  0  0  0  0
   60.9992   30.5352   46.8761 H   0  0  0  0  0  0  0  0  0  0  0  0
   63.4516   30.6749   47.3185 H   0  0  0  0  0  0  0  0  0  0  0  0
   64.4495   32.7905   48.1838 H   0  0  0  0  0  0  0  0  0  0  0  0
   62.9948   34.7669   48.6293 H   0  0  0  0  0  0  0  0  0  0  0  0
   59.4180   34.9540   47.9900 H   0  0  0  0  0  0  0  0  0  0  0  0
   58.5021   34.0882   43.6115 H   0  0  0  0  0  0  0  0  0  0  0  0
   57.8085   32.8229   41.5812 H   0  0  0  0  0  0  0  0  0  0  0  0
   56.9874   30.4772   41.7839 H   0  0  0  0  0  0  0  0  0  0  0  0
   55.7660   28.8684   43.6015 H   0  0  0  0  0  0  0  0  0  0  0  0
   57.4746   28.3311   43.5733 H   0  0  0  0  0  0  0  0  0  0  0  0
   58.4371   30.0252   46.9945 H   0  0  0  0  0  0  0  0  0  0  0  0
   60.2685   28.9935   48.3370 H   0  0  0  0  0  0  0  0  0  0  0  0
   59.1109   25.0741   46.9262 H   0  0  0  0  0  0  0  0  0  0  0  0
   57.4668   23.4322   45.9541 H   0  0  0  0  0  0  0  0  0  0  0  0
   56.9693   20.9876   45.9216 H   0  0  0  0  0  0  0  0  0  0  0  0
   54.6115   20.2121   45.6384 H   0  0  0  0  0  0  0  0  0  0  0  0
   57.5054   30.6662   46.0786 H   0  0  0  0  0  0  0  0  0  0  0  0
  1  2  2  0
  2  3  1  0
  3  4  1  0
  4  5  2  0
  5  6  1  0
  6  7  2  0
  7  8  1  0
  8  9  2  0
  9 10  1  0
  2 11  1  0
 11 12  2  0
 12 13  1  0
 13 14  2  0
 14 15  1  0
 15 16  1  0
 16 17  1  0
 17 18  1  0
 18 19  2  0
 19 20  1  0
 20 21  2  0
 21 22  1  0
 21 23  1  0
 23 24  2  0
 24 25  1  0
 25 26  1  0
 26 27  2  0
 26 28  1  0
 28 29  2  0
 29 30  1  0
 30 31  2  0
 31 32  1  0
 32 33  1  0
 33 34  2  0
 15 35  2  0
  9  4  1  0
 35 11  1  0
 24 18  1  0
 33 28  1  0
  5 36  1  0
  6 37  1  0
  7 38  1  0
  8 39  1  0
 10 40  1  0
 12 41  1  0
 13 42  1  0
 14 43  1  0
 16 44  1  0
 16 45  1  0
 19 46  1  0
 20 47  1  0
 23 48  1  0
 29 49  1  0
 30 50  1  0
 31 51  1  0
 35 52  1  0
M  CHG  3   3  -1  25  -1  32  -1
M  END
>  <UniqueID>  (61) 
57

>  <SMILES>  (61) 
O=C([N-]c1ccccc1O)c1cccc(COc2ccc(F)cc2[N-]C(=O)c2ccc[n-]c2=O)c1

>  <Energy>  (61) 
68.27900615676155

>  <Genealogy>  (61) 
O=C([N-]c1ccccc1O)c1cccc(COc2ccc(F)cc2[N-]C(=O)c2ccc[n-]c2=O)c1 (protonated)
O=C([N-]c1ccccc1O)c1cccc(COc2ccc(F)cc2[N-]C(=O)c2ccc[n-]c2=O)c1 (3D coordinates assigned)
O=C([N-]c1ccccc1O)c1cccc(COc2ccc(F)cc2[N-]C(=O)c2ccc[n-]c2=O)c1 (optimized conformer: 68.27900615676155 kcal/mol)

>  <smiles>  (61) 
O=C(Nc1ccccc1O)c1cccc(COc2ccc(F)cc2NC(=O)c2ccc[nH]c2=O)c1

>  <score_type>  (61) 
oracle

>  <origin>  (61) 
adg

>  <m_score__min__energy>  (61) 
-14.880000000000001

>  <m_primary>  (61) 
energy

$$$$
61:0
     RDKit          3D

 58 61  0  0  0  0  0  0  0  0999 V2000
   62.6320   31.0100   50.9000 C   0  0  0  0  0  0  0  0  0  0  0  0
   62.1510   29.7340   50.4910 O   0  0  0  0  0  0  0  0  0  0  0  0
   61.0890   29.5380   49.5930 C   0  0  0  0  0  0  0  0  0  0  0  0
   60.3500   30.6100   49.0530 C   0  0  0  0  0  0  0  0  0  0  0  0
   59.3010   30.3660   48.1610 C   0  0  0  0  0  0  0  0  0  0  0  0
   58.9750   29.0560   47.8090 C   0  0  0  0  0  0  0  0  0  0  0  0
   59.6970   27.9750   48.3410 C   0  0  0  0  0  0  0  0  0  0  0  0
   59.3290   26.5680   47.9560 C   0  0  0  0  0  0  0  0  0  0  0  0
   59.0580   26.4920   46.4990 N   0  0  0  0  0  0  0  0  0  0  0  0
   59.3100   25.1310   45.9970 C   0  0  0  0  0  0  0  0  0  0  0  0
   57.6830   26.9340   46.1430 C   0  0  0  0  0  0  0  0  0  0  0  0
   57.5570   27.2280   44.6380 C   0  0  0  0  0  0  0  0  0  0  0  0
   57.6480   28.7070   44.3480 C   0  0  0  0  0  0  0  0  0  0  0  0
   56.5560   29.3840   43.7830 C   0  0  0  0  0  0  0  0  0  0  0  0
   56.5960   30.7680   43.6100 C   0  0  0  0  0  0  0  0  0  0  0  0
   57.7340   31.4970   43.9980 C   0  0  0  0  0  0  0  0  0  0  0  0
   57.7700   32.9280   43.8910 N   0  0  0  0  0  0  0  0  0  0  0  0
   57.6980   33.8260   45.0080 C   0  0  0  0  0  0  0  0  0  0  0  0
   56.7340   34.6350   45.0790 O   0  0  0  0  0  0  0  0  0  0  0  0
   58.7480   33.8420   46.0530 C   0  0  0  0  0  0  0  0  0  0  0  0
   58.3930   33.8210   47.4130 C   0  0  0  0  0  0  0  0  0  0  0  0
   59.3800   33.7740   48.4020 C   0  0  0  0  0  0  0  0  0  0  0  0
   60.7330   33.7610   48.0450 C   0  0  0  0  0  0  0  0  0  0  0  0
   61.6960   33.6920   49.0050 N   0  0  0  0  0  0  0  0  0  0  0  0
   63.0210   33.6780   48.6910 C   0  0  0  0  0  0  0  0  0  0  0  0
   63.4260   33.7400   47.3560 C   0  0  0  0  0  0  0  0  0  0  0  0
   62.4630   33.8150   46.3460 C   0  0  0  0  0  0  0  0  0  0  0  0
   61.1010   33.8170   46.6830 C   0  0  0  0  0  0  0  0  0  0  0  0
   60.1090   33.8580   45.6940 C   0  0  0  0  0  0  0  0  0  0  0  0
   58.8510   30.8150   44.4950 C   0  0  0  0  0  0  0  0  0  0  0  0
   58.8070   29.4280   44.6780 C   0  0  0  0  0  0  0  0  0  0  0  0
   60.7590   28.2260   49.2270 C   0  0  0  0  0  0  0  0  0  0  0  0
   62.6508   31.0598   51.9987 H   0  0  0  0  0  0  0  0  0  0  0  0
   63.6488   31.1612   50.5087 H   0  0  0  0  0  0  0  0  0  0  0  0
   61.9680   31.7948   50.5087 H   0  0  0  0  0  0  0  0  0  0  0  0
   60.5997   31.6436   49.3346 H   0  0  0  0  0  0  0  0  0  0  0  0
   58.7329   31.2070   47.7369 H   0  0  0  0  0  0  0  0  0  0  0  0
   58.1467   28.8684   47.1099 H   0  0  0  0  0  0  0  0  0  0  0  0
   60.1604   25.8929   48.2071 H   0  0  0  0  0  0  0  0  0  0  0  0
   58.4247   26.2691   48.5063 H   0  0  0  0  0  0  0  0  0  0  0  0
   59.4371   24.4444   46.8469 H   0  0  0  0  0  0  0  0  0  0  0  0
   58.4574   24.8024   45.3845 H   0  0  0  0  0  0  0  0  0  0  0  0
   60.2237   25.1294   45.3845 H   0  0  0  0  0  0  0  0  0  0  0  0
   56.9712   26.1399   46.4129 H   0  0  0  0  0  0  0  0  0  0  0  0
   57.4645   27.8600   46.6950 H   0  0  0  0  0  0  0  0  0  0  0  0
   58.3674   26.7097   44.1045 H   0  0  0  0  0  0  0  0  0  0  0  0
   56.5722   26.8725   44.3006 H   0  0  0  0  0  0  0  0  0  0  0  0
   55.6633   28.8201   43.4747 H   0  0  0  0  0  0  0  0  0  0  0  0
   55.7345   31.2904   43.1686 H   0  0  0  0  0  0  0  0  0  0  0  0
   57.3316   33.8417   47.7010 H   0  0  0  0  0  0  0  0  0  0  0  0
   59.0923   33.7472   49.4634 H   0  0  0  0  0  0  0  0  0  0  0  0
   63.7739   33.6177   49.4907 H   0  0  0  0  0  0  0  0  0  0  0  0
   64.4960   33.7299   47.1011 H   0  0  0  0  0  0  0  0  0  0  0  0
   62.7714   33.8722   45.2917 H   0  0  0  0  0  0  0  0  0  0  0  0
   60.3951   33.9029   44.6328 H   0  0  0  0  0  0  0  0  0  0  0  0
   59.7670   31.3714   44.7427 H   0  0  0  0  0  0  0  0  0  0  0  0
   59.6838   28.9007   45.0819 H   0  0  0  0  0  0  0  0  0  0  0  0
   61.3367   27.3845   49.6371 H   0  0  0  0  0  0  0  0  0  0  0  0
  1  2  1  0
  2  3  1  0
  3  4  2  0
  4  5  1  0
  5  6  2  0
  6  7  1  0
  7  8  1  0
  8  9  1  0
  9 10  1  0
  9 11  1  0
 11 12  1  0
 12 13  1  0
 13 14  2  0
 14 15  1  0
 15 16  2  0
 16 17  1  0
 17 18  1  0
 18 19  2  0
 18 20  1  0
 20 21  2  0
 21 22  1  0
 22 23  2  0
 23 24  1  0
 24 25  2  0
 25 26  1  0
 26 27  2  0
 27 28  1  0
 28 29  2  0
 16 30  1  0
 30 31  2  0
  7 32  2  0
 32  3  1  0
 31 13  1  0
 29 20  1  0
 28 23  1  0
  1 33  1  0
  1 34  1  0
  1 35  1  0
  4 36  1  0
  5 37  1  0
  6 38  1  0
  8 39  1  0
  8 40  1  0
 10 41  1  0
 10 42  1  0
 10 43  1  0
 11 44  1  0
 11 45  1  0
 12 46  1  0
 12 47  1  0
 14 48  1  0
 15 49  1  0
 21 50  1  0
 22 51  1  0
 25 52  1  0
 26 53  1  0
 27 54  1  0
 29 55  1  0
 30 56  1  0
 31 57  1  0
 32 58  1  0
M  CHG  1  17  -1
M  END
>  <UniqueID>  (62) 
58

>  <SMILES>  (62) 
COc1cccc(CN(C)CCc2ccc([N-]C(=O)c3ccc4ncccc4c3)cc2)c1

>  <Energy>  (62) 
66.89070969942321

>  <Genealogy>  (62) 
COc1cccc(CN(C)CCc2ccc([N-]C(=O)c3ccc4ncccc4c3)cc2)c1 (protonated)
COc1cccc(CN(C)CCc2ccc([N-]C(=O)c3ccc4ncccc4c3)cc2)c1 (3D coordinates assigned)
COc1cccc(CN(C)CCc2ccc([N-]C(=O)c3ccc4ncccc4c3)cc2)c1 (optimized conformer: 66.89070969942321 kcal/mol)

>  <smiles>  (62) 
COc1cccc(CN(C)CCc2ccc(NC(=O)c3ccc4ncccc4c3)cc2)c1

>  <score_type>  (62) 
oracle

>  <origin>  (62) 
adg

>  <m_score__min__energy>  (62) 
-10.640000000000001

>  <m_primary>  (62) 
energy

$$$$
62:0
     RDKit          3D

 62 65  0  0  1  0  0  0  0  0999 V2000
   60.4730   33.0670   52.7760 C   0  0  0  0  0  0  0  0  0  0  0  0
   60.7420   28.3990   50.3650 C   0  0  0  0  0  0  0  0  0  0  0  0
   59.7380   28.9650   51.0760 N   0  0  0  0  0  0  0  0  0  0  0  0
   58.6730   29.5500   50.4970 C   0  0  0  0  0  0  0  0  0  0  0  0
   57.7500   30.0670   51.2350 N   0  0  0  0  0  0  0  0  0  0  0  0
   60.2390   33.8180   46.9520 C   0  0  0  0  0  0  0  0  0  0  0  0
   59.7290   34.4300   45.9470 O   0  0  0  0  0  0  0  0  0  0  0  0
   60.9090   32.5500   46.6710 C   0  0  0  0  0  0  0  0  0  0  0  0
   61.9320   32.3330   47.7380 C   0  0  0  0  0  0  0  0  0  0  0  0
   61.7000   31.4380   48.7670 C   0  0  0  0  0  0  0  0  0  0  0  0
   62.6590   31.2530   49.7400 C   0  0  0  0  0  0  0  0  0  0  0  0
   63.8580   31.9610   49.6920 C   0  0  0  0  0  0  0  0  0  0  0  0
   64.0650   32.8480   48.6580 C   0  0  0  0  0  0  0  0  0  0  0  0
   63.1260   33.0530   47.6730 C   0  0  0  0  0  0  0  0  0  0  0  0
   63.3950   34.1920   46.3490 Cl  0  0  0  0  0  0  0  0  0  0  0  0
   58.4240   32.5780   49.3570 S   0  0  0  0  0  0  0  0  0  0  0  0
   58.8020   32.2480   51.1110 C   0  0  0  0  0  0  0  0  0  0  0  0
   58.0570   31.2870   51.9550 C   0  0  1  0  0  0  0  0  0  0  0  0
   56.8270   31.9900   52.4550 C   0  0  0  0  0  0  0  0  0  0  0  0
   60.0860   34.4490   48.1970 N   0  0  0  0  0  0  0  0  0  0  0  0
   59.7770   33.7970   49.2270 C   0  0  0  0  0  0  0  0  0  0  0  0
   58.5370   29.6100   49.1370 N   0  0  0  0  0  0  0  0  0  0  0  0
   59.5300   29.0500   48.3930 C   0  0  0  0  0  0  0  0  0  0  0  0
   59.4540   29.0800   46.9830 N   0  0  0  0  0  0  0  0  0  0  0  0
   58.8300   30.0350   46.1190 C   0  0  0  0  0  0  0  0  0  0  0  0
   57.9380   30.8470   46.4720 O   0  0  0  0  0  0  0  0  0  0  0  0
   59.3510   29.9340   44.8420 O   0  0  0  0  0  0  0  0  0  0  0  0
   60.3570   28.9520   44.8550 C   0  0  0  0  0  0  0  0  0  0  0  0
   60.0280   28.1060   46.0380 C   0  0  2  0  0  0  0  0  0  0  0  0
   58.9710   27.0650   45.7680 C   0  0  0  0  0  0  0  0  0  0  0  0
   58.4760   27.0860   44.3570 C   0  0  0  0  0  0  0  0  0  0  0  0
   59.5350   25.7150   46.0790 C   0  0  0  0  0  0  0  0  0  0  0  0
   60.6090   28.4560   48.9880 C   0  0  0  0  0  0  0  0  0  0  0  0
   59.8600   33.0640   51.3770 C   0  0  0  0  0  0  0  0  0  0  0  0
   60.3150   33.8210   50.4070 N   0  0  0  0  0  0  0  0  0  0  0  0
   59.6703   33.0631   53.5281 H   0  0  0  0  0  0  0  0  0  0  0  0
   61.0995   32.1719   52.9037 H   0  0  0  0  0  0  0  0  0  0  0  0
   61.0907   33.9682   52.9037 H   0  0  0  0  0  0  0  0  0  0  0  0
   59.8440   28.9190   52.1160 H   0  0  0  0  0  0  0  0  0  0  0  0
   60.1771   31.7289   46.6806 H   0  0  0  0  0  0  0  0  0  0  0  0
   61.3847   32.5760   45.6795 H   0  0  0  0  0  0  0  0  0  0  0  0
   60.7549   30.8767   48.8087 H   0  0  0  0  0  0  0  0  0  0  0  0
   62.4764   30.5420   50.5593 H   0  0  0  0  0  0  0  0  0  0  0  0
   64.6259   31.8145   50.4659 H   0  0  0  0  0  0  0  0  0  0  0  0
   65.0100   33.4096   48.6187 H   0  0  0  0  0  0  0  0  0  0  0  0
   58.6707   30.9663   52.8097 H   0  0  0  0  0  0  0  0  0  0  0  0
   56.8265   31.9903   53.5550 H   0  0  0  0  0  0  0  0  0  0  0  0
   56.8226   33.0270   52.0880 H   0  0  0  0  0  0  0  0  0  0  0  0
   55.9313   31.4674   52.0880 H   0  0  0  0  0  0  0  0  0  0  0  0
   60.3325   28.3563   43.9306 H   0  0  0  0  0  0  0  0  0  0  0  0
   61.3667   29.3844   44.9143 H   0  0  0  0  0  0  0  0  0  0  0  0
   60.9181   27.5555   46.3768 H   0  0  0  0  0  0  0  0  0  0  0  0
   58.1082   27.2939   46.4108 H   0  0  0  0  0  0  0  0  0  0  0  0
   57.3770   27.1326   44.3546 H   0  0  0  0  0  0  0  0  0  0  0  0
   58.8815   27.9677   43.8392 H   0  0  0  0  0  0  0  0  0  0  0  0
   58.8054   26.1731   43.8392 H   0  0  0  0  0  0  0  0  0  0  0  0
   59.5901   25.5830   47.1697 H   0  0  0  0  0  0  0  0  0  0  0  0
   58.8861   24.9384   45.6480 H   0  0  0  0  0  0  0  0  0  0  0  0
   60.5435   25.6308   45.6480 H   0  0  0  0  0  0  0  0  0  0  0  0
   61.3919   28.0118   48.3557 H   0  0  0  0  0  0  0  0  0  0  0  0
   61.6076   27.9244   50.8503 H   0  0  0  0  0  0  0  0  0  0  0  0
   61.1650   34.4880   50.5990 H   0  0  0  0  0  0  0  0  0  0  0  0
  1  2  1  0
  2  3  1  0
  3  4  1  0
  4  5  2  0
  5  6  1  0
  6  7  2  0
  6  8  1  0
  8  9  1  0
  9 10  2  0
 10 11  1  0
 11 12  2  0
 12 13  1  0
 13 14  2  0
 14 15  1  0
  4 16  1  0
 16 17  1  0
 17 18  1  0
 18 19  1  0
 18 20  1  0
 20 21  2  0
 21 22  1  0
 22 23  2  0
 23 24  1  0
 24 25  1  0
 25 26  2  0
 25 27  1  0
 27 28  1  0
 28 29  1  0
 29 30  1  0
 30 31  1  0
 30 32  1  0
 23 33  1  0
 33 34  2  0
 34 35  1  0
 17  2  2  0
 35 21  1  0
 14  9  1  0
 29 24  1  0
  1 36  1  0
  1 37  1  0
  1 38  1  0
  3 39  1  0
  8 40  1  0
  8 41  1  0
 10 42  1  0
 11 43  1  0
 12 44  1  0
 13 45  1  0
 18 46  1  6
 19 47  1  0
 19 48  1  0
 19 49  1  0
 28 50  1  0
 28 51  1  0
 29 52  1  1
 30 53  1  0
 31 54  1  0
 31 55  1  0
 31 56  1  0
 32 57  1  0
 32 58  1  0
 32 59  1  0
 33 60  1  0
 34 61  1  0
 35 62  1  0
M  END
>  <smiles>  (63) 
Cc1[nH]c(=NC(=O)Cc2ccccc2Cl)sc1C(C)N=c1nc(N2C(=O)OCC2C(C)C)cc[nH]1

>  <score_type>  (63) 
oracle

>  <origin>  (63) 
adg

>  <m_score__min__energy>  (63) 
-10.5

>  <m_primary>  (63) 
energy

$$$$
63:0
     RDKit          3D

 50 52  0  0  0  0  0  0  0  0999 V2000
   54.3260   27.8580   55.5450 C   0  0  0  0  0  0  0  0  0  0  0  0
   54.7020   28.1380   53.8280 S   0  0  0  0  0  0  0  0  0  0  0  0
   53.5980   27.5760   52.9730 O   0  0  0  0  0  0  0  0  0  0  0  0
   55.9930   27.4500   53.4660 O   0  0  0  0  0  0  0  0  0  0  0  0
   54.8520   29.8440   53.5420 N   0  0  0  0  0  0  0  0  0  0  0  0
   56.1540   30.5040   53.6490 C   0  0  0  0  0  0  0  0  0  0  0  0
   56.7920   30.6180   52.3000 C   0  0  0  0  0  0  0  0  0  0  0  0
   57.0230   29.5770   51.6300 O   0  0  0  0  0  0  0  0  0  0  0  0
   57.1710   31.9070   51.8070 N   0  0  0  0  0  0  0  0  0  0  0  0
   58.4890   32.4830   51.8320 C   0  0  0  0  0  0  0  0  0  0  0  0
   58.9170   33.3110   52.8880 C   0  0  0  0  0  0  0  0  0  0  0  0
   60.2160   33.8260   52.8990 C   0  0  0  0  0  0  0  0  0  0  0  0
   61.1040   33.5090   51.8720 C   0  0  0  0  0  0  0  0  0  0  0  0
   60.7010   32.6660   50.8340 C   0  0  0  0  0  0  0  0  0  0  0  0
   59.3940   32.1390   50.8110 C   0  0  0  0  0  0  0  0  0  0  0  0
   58.9540   31.2740   49.7930 O   0  0  0  0  0  0  0  0  0  0  0  0
   59.5590   31.1380   48.5060 C   0  0  0  0  0  0  0  0  0  0  0  0
   59.0930   32.2270   47.5740 C   0  0  0  0  0  0  0  0  0  0  0  0
   59.4880   33.5600   47.7840 C   0  0  0  0  0  0  0  0  0  0  0  0
   59.0330   34.5750   46.9330 C   0  0  0  0  0  0  0  0  0  0  0  0
   58.1780   34.2660   45.8710 C   0  0  0  0  0  0  0  0  0  0  0  0
   57.7720   32.9440   45.6630 C   0  0  0  0  0  0  0  0  0  0  0  0
   58.2200   31.9290   46.5160 C   0  0  0  0  0  0  0  0  0  0  0  0
   53.7210   30.5730   53.0530 C   0  0  0  0  0  0  0  0  0  0  0  0
   53.6920   31.0180   51.7230 C   0  0  0  0  0  0  0  0  0  0  0  0
   52.5870   31.7320   51.2460 C   0  0  0  0  0  0  0  0  0  0  0  0
   51.5080   32.0030   52.0950 C   0  0  0  0  0  0  0  0  0  0  0  0
   50.4100   32.7090   51.6220 O   0  0  0  0  0  0  0  0  0  0  0  0
   51.5370   31.5650   53.4240 C   0  0  0  0  0  0  0  0  0  0  0  0
   52.6420   30.8520   53.9040 C   0  0  0  0  0  0  0  0  0  0  0  0
   55.0510   28.3979   56.1719 H   0  0  0  0  0  0  0  0  0  0  0  0
   53.3109   28.2219   55.7621 H   0  0  0  0  0  0  0  0  0  0  0  0
   54.3838   26.7812   55.7621 H   0  0  0  0  0  0  0  0  0  0  0  0
   56.0169   31.5103   54.0716 H   0  0  0  0  0  0  0  0  0  0  0  0
   56.8053   29.9057   54.3030 H   0  0  0  0  0  0  0  0  0  0  0  0
   58.2252   33.5535   53.7082 H   0  0  0  0  0  0  0  0  0  0  0  0
   60.5387   34.4831   53.7200 H   0  0  0  0  0  0  0  0  0  0  0  0
   62.1230   33.9232   51.8793 H   0  0  0  0  0  0  0  0  0  0  0  0
   61.4075   32.4120   50.0300 H   0  0  0  0  0  0  0  0  0  0  0  0
   60.6520   31.1996   48.6137 H   0  0  0  0  0  0  0  0  0  0  0  0
   59.2685   30.1653   48.0825 H   0  0  0  0  0  0  0  0  0  0  0  0
   60.1578   33.8069   48.6209 H   0  0  0  0  0  0  0  0  0  0  0  0
   59.3484   35.6155   47.1003 H   0  0  0  0  0  0  0  0  0  0  0  0
   57.8248   35.0623   45.1993 H   0  0  0  0  0  0  0  0  0  0  0  0
   57.0992   32.7015   44.8272 H   0  0  0  0  0  0  0  0  0  0  0  0
   57.8865   30.8930   46.3566 H   0  0  0  0  0  0  0  0  0  0  0  0
   54.5390   30.8054   51.0541 H   0  0  0  0  0  0  0  0  0  0  0  0
   52.5665   32.0805   50.2029 H   0  0  0  0  0  0  0  0  0  0  0  0
   50.6904   31.7813   54.0922 H   0  0  0  0  0  0  0  0  0  0  0  0
   52.6638   30.5104   54.9494 H   0  0  0  0  0  0  0  0  0  0  0  0
  1  2  1  0
  2  3  2  0
  2  4  2  0
  2  5  1  0
  5  6  1  0
  6  7  1  0
  7  8  2  0
  7  9  1  0
  9 10  1  0
 10 11  2  0
 11 12  1  0
 12 13  2  0
 13 14  1  0
 14 15  2  0
 15 16  1  0
 16 17  1  0
 17 18  1  0
 18 19  2  0
 19 20  1  0
 20 21  2  0
 21 22  1  0
 22 23  2  0
  5 24  1  0
 24 25  2  0
 25 26  1  0
 26 27  2  0
 27 28  1  0
 27 29  1  0
 29 30  2  0
 15 10  1  0
 23 18  1  0
 30 24  1  0
  1 31  1  0
  1 32  1  0
  1 33  1  0
  6 34  1  0
  6 35  1  0
 11 36  1  0
 12 37  1  0
 13 38  1  0
 14 39  1  0
 17 40  1  0
 17 41  1  0
 19 42  1  0
 20 43  1  0
 21 44  1  0
 22 45  1  0
 23 46  1  0
 25 47  1  0
 26 48  1  0
 29 49  1  0
 30 50  1  0
M  CHG  2   9  -1  28  -1
M  END
>  <UniqueID>  (64) 
59

>  <SMILES>  (64) 
CS(=O)(=O)N(CC(=O)[N-]c1ccccc1OCc1ccccc1)c1ccc([O-])cc1

>  <Energy>  (64) 
56.915004093585026

>  <Genealogy>  (64) 
CS(=O)(=O)N(CC(=O)[N-]c1ccccc1OCc1ccccc1)c1ccc([O-])cc1 (protonated)
CS(=O)(=O)N(CC(=O)[N-]c1ccccc1OCc1ccccc1)c1ccc([O-])cc1 (3D coordinates assigned)
CS(=O)(=O)N(CC(=O)[N-]c1ccccc1OCc1ccccc1)c1ccc([O-])cc1 (optimized conformer: 56.915004093585026 kcal/mol)

>  <smiles>  (64) 
CS(=O)(=O)N(CC(=O)Nc1ccccc1OCc1ccccc1)c1ccc(O)cc1

>  <score_type>  (64) 
oracle

>  <origin>  (64) 
adg

>  <m_score__min__energy>  (64) 
-12.369999999999999

>  <m_primary>  (64) 
energy

$$$$
64:0
     RDKit          3D

 38 40  0  0  0  0  0  0  0  0999 V2000
   56.2390   30.4290   44.8660 O   0  0  0  0  0  0  0  0  0  0  0  0
   57.2120   29.8910   44.2690 C   0  0  0  0  0  0  0  0  0  0  0  0
   58.2190   30.7210   43.6640 N   0  0  0  0  0  0  0  0  0  0  0  0
   58.1130   32.1780   43.6320 C   0  0  0  0  0  0  0  0  0  0  0  0
   58.5290   32.7600   44.9560 C   0  0  0  0  0  0  0  0  0  0  0  0
   58.6450   34.1510   45.1070 C   0  0  0  0  0  0  0  0  0  0  0  0
   59.0490   34.6960   46.3290 C   0  0  0  0  0  0  0  0  0  0  0  0
   59.3450   33.8570   47.4090 C   0  0  0  0  0  0  0  0  0  0  0  0
   59.8550   34.5430   48.9400 Cl  0  0  0  0  0  0  0  0  0  0  0  0
   59.2360   32.4700   47.2640 C   0  0  0  0  0  0  0  0  0  0  0  0
   58.8310   31.9220   46.0430 C   0  0  0  0  0  0  0  0  0  0  0  0
   57.3050   28.4120   44.2190 C   0  0  0  0  0  0  0  0  0  0  0  0
   57.7570   27.7490   43.0660 C   0  0  0  0  0  0  0  0  0  0  0  0
   57.8370   26.3540   43.0330 C   0  0  0  0  0  0  0  0  0  0  0  0
   57.4650   25.5870   44.1530 C   0  0  0  0  0  0  0  0  0  0  0  0
   57.5360   24.1030   44.1350 C   0  0  0  0  0  0  0  0  0  0  0  0
   56.6180   23.3280   43.4020 C   0  0  0  0  0  0  0  0  0  0  0  0
   56.7300   21.9360   43.4140 C   0  0  0  0  0  0  0  0  0  0  0  0
   57.7480   21.3240   44.1430 C   0  0  0  0  0  0  0  0  0  0  0  0
   58.6510   22.1200   44.8500 C   0  0  0  0  0  0  0  0  0  0  0  0
   58.5270   23.4740   44.8290 N   0  0  0  0  0  0  0  0  0  0  0  0
   56.9900   26.2520   45.2970 C   0  0  0  0  0  0  0  0  0  0  0  0
   56.9110   27.6470   45.3290 C   0  0  0  0  0  0  0  0  0  0  0  0
   59.0940   30.2910   43.2890 H   0  0  0  0  0  0  0  0  0  0  0  0
   58.7671   32.5723   42.8404 H   0  0  0  0  0  0  0  0  0  0  0  0
   57.0682   32.4569   43.4304 H   0  0  0  0  0  0  0  0  0  0  0  0
   58.4170   34.8147   44.2600 H   0  0  0  0  0  0  0  0  0  0  0  0
   59.1344   35.7868   46.4420 H   0  0  0  0  0  0  0  0  0  0  0  0
   59.4693   31.8093   48.1120 H   0  0  0  0  0  0  0  0  0  0  0  0
   58.7485   30.8306   45.9328 H   0  0  0  0  0  0  0  0  0  0  0  0
   58.0506   28.3329   42.1812 H   0  0  0  0  0  0  0  0  0  0  0  0
   58.1943   25.8505   42.1226 H   0  0  0  0  0  0  0  0  0  0  0  0
   55.8186   23.8148   42.8242 H   0  0  0  0  0  0  0  0  0  0  0  0
   56.0142   21.3222   42.8476 H   0  0  0  0  0  0  0  0  0  0  0  0
   57.8388   20.2279   44.1611 H   0  0  0  0  0  0  0  0  0  0  0  0
   59.4636   21.6515   45.4246 H   0  0  0  0  0  0  0  0  0  0  0  0
   56.6774   25.6686   46.1756 H   0  0  0  0  0  0  0  0  0  0  0  0
   56.5366   28.1507   46.2324 H   0  0  0  0  0  0  0  0  0  0  0  0
  1  2  2  0
  2  3  1  0
  3  4  1  0
  4  5  1  0
  5  6  2  0
  6  7  1  0
  7  8  2  0
  8  9  1  0
  8 10  1  0
 10 11  2  0
  2 12  1  0
 12 13  2  0
 13 14  1  0
 14 15  2  0
 15 16  1  0
 16 17  2  0
 17 18  1  0
 18 19  2  0
 19 20  1  0
 20 21  2  0
 15 22  1  0
 22 23  2  0
 11  5  1  0
 23 12  1  0
 21 16  1  0
  3 24  1  0
  4 25  1  0
  4 26  1  0
  6 27  1  0
  7 28  1  0
 10 29  1  0
 11 30  1  0
 13 31  1  0
 14 32  1  0
 17 33  1  0
 18 34  1  0
 19 35  1  0
 20 36  1  0
 22 37  1  0
 23 38  1  0
M  END
>  <UniqueID>  (65) 
60

>  <SMILES>  (65) 
O=C(NCc1ccc(Cl)cc1)c1ccc(-c2ccccn2)cc1

>  <Energy>  (65) 
45.650002142311166

>  <Genealogy>  (65) 
O=C(NCc1ccc(Cl)cc1)c1ccc(-c2ccccn2)cc1 (3D coordinates assigned)
O=C(NCc1ccc(Cl)cc1)c1ccc(-c2ccccn2)cc1 (optimized conformer: 45.650002142311166 kcal/mol)

>  <smiles>  (65) 
O=C(NCc1ccc(Cl)cc1)c1ccc(-c2ccccn2)cc1

>  <score_type>  (65) 
oracle

>  <origin>  (65) 
adg

>  <m_score__min__energy>  (65) 
-8.3200000000000003

>  <m_primary>  (65) 
energy

$$$$
65:0
     RDKit          3D

 41 42  0  0  0  0  0  0  0  0999 V2000
   63.1690   32.8190   47.6060 C   0  0  0  0  0  0  0  0  0  0  0  0
   61.7420   32.9360   47.1580 C   0  0  0  0  0  0  0  0  0  0  0  0
   60.8120   31.9600   47.5120 C   0  0  0  0  0  0  0  0  0  0  0  0
   59.4640   32.0660   47.1320 C   0  0  0  0  0  0  0  0  0  0  0  0
   58.5450   30.9380   47.5250 C   0  0  0  0  0  0  0  0  0  0  0  0
   59.0300   33.1910   46.3670 C   0  0  0  0  0  0  0  0  0  0  0  0
   57.3200   33.3710   45.8530 S   0  0  0  0  0  0  0  0  0  0  0  0
   57.1010   34.6290   45.0600 O   0  0  0  0  0  0  0  0  0  0  0  0
   56.4390   33.4670   47.0660 O   0  0  0  0  0  0  0  0  0  0  0  0
   56.8130   32.0020   44.9050 N   0  0  0  0  0  0  0  0  0  0  0  0
   57.9770   31.2840   44.3860 C   0  0  0  0  0  0  0  0  0  0  0  0
   57.8850   29.8270   44.7580 C   0  0  0  0  0  0  0  0  0  0  0  0
   59.0490   29.0470   44.8240 C   0  0  0  0  0  0  0  0  0  0  0  0
   58.9680   27.6890   45.1350 C   0  0  0  0  0  0  0  0  0  0  0  0
   57.7160   27.1130   45.3740 C   0  0  0  0  0  0  0  0  0  0  0  0
   57.6020   25.6550   45.6900 C   0  0  0  0  0  0  0  0  0  0  0  0
   56.5940   27.8760   45.2810 N   0  0  0  0  0  0  0  0  0  0  0  0
   56.6430   29.2010   44.9800 C   0  0  0  0  0  0  0  0  0  0  0  0
   55.5690   29.8560   44.9010 O   0  0  0  0  0  0  0  0  0  0  0  0
   59.9830   34.2010   46.0410 C   0  0  0  0  0  0  0  0  0  0  0  0
   59.6360   35.4160   45.2170 C   0  0  0  0  0  0  0  0  0  0  0  0
   61.3220   34.0540   46.4370 C   0  0  0  0  0  0  0  0  0  0  0  0
   63.2091   32.8157   48.7053 H   0  0  0  0  0  0  0  0  0  0  0  0
   63.5987   31.8826   47.2206 H   0  0  0  0  0  0  0  0  0  0  0  0
   63.7455   33.6729   47.2206 H   0  0  0  0  0  0  0  0  0  0  0  0
   61.1400   31.0902   48.1001 H   0  0  0  0  0  0  0  0  0  0  0  0
   58.4922   30.8732   48.6218 H   0  0  0  0  0  0  0  0  0  0  0  0
   57.5397   31.1260   47.1200 H   0  0  0  0  0  0  0  0  0  0  0  0
   58.9323   29.9914   47.1200 H   0  0  0  0  0  0  0  0  0  0  0  0
   56.2930   31.3560   45.5400 H   0  0  0  0  0  0  0  0  0  0  0  0
   58.0069   31.3801   43.2906 H   0  0  0  0  0  0  0  0  0  0  0  0
   58.8920   31.7129   44.8206 H   0  0  0  0  0  0  0  0  0  0  0  0
   60.0290   29.5074   44.6300 H   0  0  0  0  0  0  0  0  0  0  0  0
   59.8804   27.0772   45.1917 H   0  0  0  0  0  0  0  0  0  0  0  0
   57.5911   25.5161   46.7811 H   0  0  0  0  0  0  0  0  0  0  0  0
   56.6701   25.2585   45.2606 H   0  0  0  0  0  0  0  0  0  0  0  0
   58.4609   25.1185   45.2606 H   0  0  0  0  0  0  0  0  0  0  0  0
   59.3961   36.2560   45.8854 H   0  0  0  0  0  0  0  0  0  0  0  0
   60.4931   35.6856   44.5824 H   0  0  0  0  0  0  0  0  0  0  0  0
   58.7658   35.1923   44.5824 H   0  0  0  0  0  0  0  0  0  0  0  0
   62.0522   34.8336   46.1743 H   0  0  0  0  0  0  0  0  0  0  0  0
  1  2  1  0
  2  3  2  0
  3  4  1  0
  4  5  1  0
  4  6  2  0
  6  7  1  0
  7  8  2  0
  7  9  2  0
  7 10  1  0
 10 11  1  0
 11 12  1  0
 12 13  2  0
 13 14  1  0
 14 15  2  0
 15 16  1  0
 15 17  1  0
 17 18  1  0
 18 19  2  0
  6 20  1  0
 20 21  1  0
 20 22  2  0
 22  2  1  0
 18 12  1  0
  1 23  1  0
  1 24  1  0
  1 25  1  0
  3 26  1  0
  5 27  1  0
  5 28  1  0
  5 29  1  0
 10 30  1  0
 11 31  1  0
 11 32  1  0
 13 33  1  0
 14 34  1  0
 16 35  1  0
 16 36  1  0
 16 37  1  0
 21 38  1  0
 21 39  1  0
 21 40  1  0
 22 41  1  0
M  CHG  1  17  -1
M  END
>  <UniqueID>  (66) 
61

>  <SMILES>  (66) 
Cc1cc(C)c(S(=O)(=O)NCc2ccc(C)[n-]c2=O)c(C)c1

>  <Energy>  (66) 
44.15700491991683

>  <Genealogy>  (66) 
Cc1cc(C)c(S(=O)(=O)NCc2ccc(C)[n-]c2=O)c(C)c1 (protonated)
Cc1cc(C)c(S(=O)(=O)NCc2ccc(C)[n-]c2=O)c(C)c1 (3D coordinates assigned)
Cc1cc(C)c(S(=O)(=O)NCc2ccc(C)[n-]c2=O)c(C)c1 (optimized conformer: 44.15700491991683 kcal/mol)

>  <smiles>  (66) 
Cc1cc(C)c(S(=O)(=O)NCc2ccc(C)[nH]c2=O)c(C)c1

>  <score_type>  (66) 
oracle

>  <origin>  (66) 
adg

>  <m_score__min__energy>  (66) 
-10.35

>  <m_primary>  (66) 
energy

$$$$
66:0
     RDKit          3D

 63 66  0  0  0  0  0  0  0  0999 V2000
   58.1030   32.3030   54.2780 C   0  0  0  0  0  0  0  0  0  0  0  0
   58.6150   32.5550   52.8910 C   0  0  0  0  0  0  0  0  0  0  0  0
   58.7200   31.5010   51.9680 C   0  0  0  0  0  0  0  0  0  0  0  0
   59.1350   31.7460   50.6560 C   0  0  0  0  0  0  0  0  0  0  0  0
   59.4440   33.0520   50.2470 C   0  0  0  0  0  0  0  0  0  0  0  0
   59.8290   33.3220   48.8430 C   0  0  0  0  0  0  0  0  0  0  0  0
   61.1280   33.4630   48.4730 C   0  0  0  0  0  0  0  0  0  0  0  0
   62.2390   33.1940   49.4140 C   0  0  0  0  0  0  0  0  0  0  0  0
   62.1310   33.5520   50.6190 O   0  0  0  0  0  0  0  0  0  0  0  0
   63.4570   32.6000   48.9340 N   0  0  0  0  0  0  0  0  0  0  0  0
   64.5820   32.2970   49.7800 C   0  0  0  0  0  0  0  0  0  0  0  0
   64.5600   31.2030   50.6640 C   0  0  0  0  0  0  0  0  0  0  0  0
   65.6740   30.9190   51.4620 C   0  0  0  0  0  0  0  0  0  0  0  0
   66.8170   31.7200   51.3820 C   0  0  0  0  0  0  0  0  0  0  0  0
   66.8540   32.7950   50.4930 C   0  0  0  0  0  0  0  0  0  0  0  0
   65.7470   33.0790   49.6880 C   0  0  0  0  0  0  0  0  0  0  0  0
   61.4420   33.8810   47.0880 C   0  0  0  0  0  0  0  0  0  0  0  0
   62.6270   34.1120   46.7330 O   0  0  0  0  0  0  0  0  0  0  0  0
   60.3890   33.9940   46.1270 N   0  0  0  0  0  0  0  0  0  0  0  0
   59.0710   33.4220   46.4020 C   0  0  1  0  0  0  0  0  0  0  0  0
   58.0390   34.0960   45.4820 C   0  0  0  0  0  0  0  0  0  0  0  0
   59.0920   31.9370   46.0790 C   0  0  0  0  0  0  0  0  0  0  0  0
   60.1960   31.3260   46.0720 O   0  0  0  0  0  0  0  0  0  0  0  0
   57.9010   31.2680   45.6430 N   0  0  0  0  0  0  0  0  0  0  0  0
   57.8460   30.3900   44.4730 C   0  0  0  0  0  0  0  0  0  0  0  0
   56.1990   29.7270   44.1990 S   0  0  0  0  0  0  0  0  0  0  0  0
   55.1400   30.7510   44.4890 O   0  0  0  0  0  0  0  0  0  0  0  0
   56.0670   29.2820   42.7660 O   0  0  0  0  0  0  0  0  0  0  0  0
   55.9400   28.3490   45.2290 N   0  0  0  0  0  0  0  0  0  0  0  0
   56.9760   27.5730   45.8560 C   0  0  0  0  0  0  0  0  0  0  0  0
   57.0010   26.1880   45.6420 C   0  0  0  0  0  0  0  0  0  0  0  0
   58.0060   25.3960   46.2240 C   0  0  0  0  0  0  0  0  0  0  0  0
   58.9920   25.9880   47.0190 C   0  0  0  0  0  0  0  0  0  0  0  0
   58.9740   27.3680   47.2420 C   0  0  0  0  0  0  0  0  0  0  0  0
   57.9600   28.1580   46.6790 C   0  0  0  0  0  0  0  0  0  0  0  0
   58.7100   33.6940   47.8850 C   0  0  0  0  0  0  0  0  0  0  0  0
   59.3210   34.1080   51.1640 C   0  0  0  0  0  0  0  0  0  0  0  0
   58.9070   33.8610   52.4770 C   0  0  0  0  0  0  0  0  0  0  0  0
   58.8383   32.6649   55.0117 H   0  0  0  0  0  0  0  0  0  0  0  0
   57.1510   32.8355   54.4198 H   0  0  0  0  0  0  0  0  0  0  0  0
   57.9442   31.2238   54.4198 H   0  0  0  0  0  0  0  0  0  0  0  0
   58.4738   30.4754   52.2802 H   0  0  0  0  0  0  0  0  0  0  0  0
   59.2195   30.9130   49.9425 H   0  0  0  0  0  0  0  0  0  0  0  0
   63.6020   32.5730   47.9000 H   0  0  0  0  0  0  0  0  0  0  0  0
   63.6638   30.5684   50.7283 H   0  0  0  0  0  0  0  0  0  0  0  0
   65.6502   30.0639   52.1535 H   0  0  0  0  0  0  0  0  0  0  0  0
   67.6868   31.5030   52.0195 H   0  0  0  0  0  0  0  0  0  0  0  0
   67.7564   33.4204   50.4255 H   0  0  0  0  0  0  0  0  0  0  0  0
   65.7875   33.9188   48.9787 H   0  0  0  0  0  0  0  0  0  0  0  0
   57.2736   34.5959   46.0938 H   0  0  0  0  0  0  0  0  0  0  0  0
   58.5438   34.8391   44.8471 H   0  0  0  0  0  0  0  0  0  0  0  0
   57.5616   33.3351   44.8471 H   0  0  0  0  0  0  0  0  0  0  0  0
   58.1491   30.9639   43.5849 H   0  0  0  0  0  0  0  0  0  0  0  0
   58.5250   29.5436   44.6537 H   0  0  0  0  0  0  0  0  0  0  0  0
   56.2293   25.7179   45.0147 H   0  0  0  0  0  0  0  0  0  0  0  0
   58.0167   24.3093   46.0538 H   0  0  0  0  0  0  0  0  0  0  0  0
   59.7816   25.3682   47.4688 H   0  0  0  0  0  0  0  0  0  0  0  0
   59.7555   27.8350   47.8594 H   0  0  0  0  0  0  0  0  0  0  0  0
   57.9327   29.2390   46.8808 H   0  0  0  0  0  0  0  0  0  0  0  0
   58.4894   34.7653   48.0019 H   0  0  0  0  0  0  0  0  0  0  0  0
   57.8404   33.0678   48.1336 H   0  0  0  0  0  0  0  0  0  0  0  0
   59.5517   35.1360   50.8479 H   0  0  0  0  0  0  0  0  0  0  0  0
   58.8103   34.6954   53.1872 H   0  0  0  0  0  0  0  0  0  0  0  0
  1  2  1  0
  2  3  2  0
  3  4  1  0
  4  5  2  0
  5  6  1  0
  6  7  2  0
  7  8  1  0
  8  9  2  0
  8 10  1  0
 10 11  1  0
 11 12  2  0
 12 13  1  0
 13 14  2  0
 14 15  1  0
 15 16  2  0
  7 17  1  0
 17 18  2  0
 17 19  1  0
 19 20  1  0
 20 21  1  6
 20 22  1  0
 22 23  2  0
 22 24  1  0
 24 25  1  0
 25 26  1  0
 26 27  2  0
 26 28  2  0
 26 29  1  0
 29 30  1  0
 30 31  2  0
 31 32  1  0
 32 33  2  0
 33 34  1  0
 34 35  2  0
 20 36  1  0
  5 37  1  0
 37 38  2  0
 38  2  1  0
 36  6  1  0
 16 11  1  0
 35 30  1  0
  1 39  1  0
  1 40  1  0
  1 41  1  0
  3 42  1  0
  4 43  1  0
 10 44  1  0
 12 45  1  0
 13 46  1  0
 14 47  1  0
 15 48  1  0
 16 49  1  0
 21 50  1  0
 21 51  1  0
 21 52  1  0
 25 53  1  0
 25 54  1  0
 31 55  1  0
 32 56  1  0
 33 57  1  0
 34 58  1  0
 35 59  1  0
 36 60  1  0
 36 61  1  0
 37 62  1  0
 38 63  1  0
M  CHG  3  19  -1  24  -1  29  -1
M  END
>  <UniqueID>  (67) 
62

>  <SMILES>  (67) 
Cc1ccc(C2=C(C(=O)Nc3ccccc3)C(=O)[N-][C@@](C)(C(=O)[N-]CS(=O)(=O)[N-]c3ccccc3)C2)cc1

>  <Energy>  (67) 
83.174206620056

>  <Genealogy>  (67) 
Cc1ccc(C2=C(C(=O)Nc3ccccc3)C(=O)[N-]C(C)(C(=O)[N-]CS(=O)(=O)[N-]c3ccccc3)C2)cc1 (protonated)
Cc1ccc(C2=C(C(=O)Nc3ccccc3)C(=O)[N-][C@@](C)(C(=O)[N-]CS(=O)(=O)[N-]c3ccccc3)C2)cc1 (chirality)
Cc1ccc(C2=C(C(=O)Nc3ccccc3)C(=O)[N-][C@@](C)(C(=O)[N-]CS(=O)(=O)[N-]c3ccccc3)C2)cc1 (3D coordinates assigned)
Cc1ccc(C2=C(C(=O)Nc3ccccc3)C(=O)[N-][C@@](C)(C(=O)[N-]CS(=O)(=O)[N-]c3ccccc3)C2)cc1 (nonaromatic ring conformer: 83.174206620056 kcal/mol)

>  <smiles>  (67) 
Cc1ccc(C2=C(C(=O)Nc3ccccc3)C(=O)NC(C)(C(=O)NCS(=O)(=O)Nc3ccccc3)C2)cc1

>  <score_type>  (67) 
oracle

>  <origin>  (67) 
adg

>  <m_score__min__energy>  (67) 
-15.33

>  <m_primary>  (67) 
energy

$$$$
67:0
     RDKit          3D

 43 45  0  0  0  0  0  0  0  0999 V2000
   58.8420   30.3740   46.7630 C   0  0  0  0  0  0  0  0  0  0  0  0
   58.2590   31.7370   46.5240 C   0  0  0  0  0  0  0  0  0  0  0  0
   57.7660   32.2340   45.3180 C   0  0  0  0  0  0  0  0  0  0  0  0
   57.6230   31.6340   44.0570 O   0  0  0  0  0  0  0  0  0  0  0  0
   56.6590   30.6460   43.7000 C   0  0  0  0  0  0  0  0  0  0  0  0
   57.1120   29.2710   44.1010 C   0  0  0  0  0  0  0  0  0  0  0  0
   57.8570   28.6200   43.3210 O   0  0  0  0  0  0  0  0  0  0  0  0
   56.6820   28.6960   45.3450 N   0  0  0  0  0  0  0  0  0  0  0  0
   57.0890   27.3910   45.7810 C   0  0  0  0  0  0  0  0  0  0  0  0
   58.4540   27.1200   45.9530 C   0  0  0  0  0  0  0  0  0  0  0  0
   58.8760   25.8570   46.3800 C   0  0  0  0  0  0  0  0  0  0  0  0
   57.9360   24.8610   46.6540 C   0  0  0  0  0  0  0  0  0  0  0  0
   56.5720   25.1300   46.5150 C   0  0  0  0  0  0  0  0  0  0  0  0
   56.1430   26.3940   46.0900 C   0  0  0  0  0  0  0  0  0  0  0  0
   54.7800   26.6550   46.0040 O   0  0  0  0  0  0  0  0  0  0  0  0
   57.4340   33.5370   45.5960 C   0  0  0  0  0  0  0  0  0  0  0  0
   56.9500   34.3590   44.7750 O   0  0  0  0  0  0  0  0  0  0  0  0
   57.6960   33.8320   46.8780 N   0  0  0  0  0  0  0  0  0  0  0  0
   58.1980   32.7420   47.4400 N   0  0  0  0  0  0  0  0  0  0  0  0
   58.6580   32.7280   48.8320 C   0  0  0  0  0  0  0  0  0  0  0  0
   60.1680   32.7810   48.8930 C   0  0  0  0  0  0  0  0  0  0  0  0
   60.8380   33.9470   48.4830 C   0  0  0  0  0  0  0  0  0  0  0  0
   62.2300   34.0320   48.5570 C   0  0  0  0  0  0  0  0  0  0  0  0
   62.9730   32.9530   49.0410 C   0  0  0  0  0  0  0  0  0  0  0  0
   64.7220   33.0620   49.1340 Cl  0  0  0  0  0  0  0  0  0  0  0  0
   62.3240   31.7840   49.4440 C   0  0  0  0  0  0  0  0  0  0  0  0
   60.9280   31.6880   49.3730 C   0  0  0  0  0  0  0  0  0  0  0  0
   60.1820   30.1720   49.8640 Cl  0  0  0  0  0  0  0  0  0  0  0  0
   58.9194   30.1929   47.8452 H   0  0  0  0  0  0  0  0  0  0  0  0
   58.1910   29.6121   46.3094 H   0  0  0  0  0  0  0  0  0  0  0  0
   59.8426   30.3185   46.3094 H   0  0  0  0  0  0  0  0  0  0  0  0
   55.7094   30.8724   44.2069 H   0  0  0  0  0  0  0  0  0  0  0  0
   56.5313   30.6645   42.6076 H   0  0  0  0  0  0  0  0  0  0  0  0
   56.2010   29.3100   46.0410 H   0  0  0  0  0  0  0  0  0  0  0  0
   59.1971   27.9054   45.7509 H   0  0  0  0  0  0  0  0  0  0  0  0
   59.9492   25.6478   46.5002 H   0  0  0  0  0  0  0  0  0  0  0  0
   58.2696   23.8646   46.9793 H   0  0  0  0  0  0  0  0  0  0  0  0
   55.8329   24.3470   46.7399 H   0  0  0  0  0  0  0  0  0  0  0  0
   58.2439   33.6005   49.3586 H   0  0  0  0  0  0  0  0  0  0  0  0
   58.3158   31.7981   49.3097 H   0  0  0  0  0  0  0  0  0  0  0  0
   60.2600   34.8010   48.1001 H   0  0  0  0  0  0  0  0  0  0  0  0
   62.7420   34.9503   48.2336 H   0  0  0  0  0  0  0  0  0  0  0  0
   62.9122   30.9336   49.8194 H   0  0  0  0  0  0  0  0  0  0  0  0
  1  2  1  0
  2  3  2  0
  3  4  1  0
  4  5  1  0
  5  6  1  0
  6  7  2  0
  6  8  1  0
  8  9  1  0
  9 10  2  0
 10 11  1  0
 11 12  2  0
 12 13  1  0
 13 14  2  0
 14 15  1  0
  3 16  1  0
 16 17  2  0
 16 18  1  0
 18 19  1  0
 19 20  1  0
 20 21  1  0
 21 22  2  0
 22 23  1  0
 23 24  2  0
 24 25  1  0
 24 26  1  0
 26 27  2  0
 27 28  1  0
 19  2  1  0
 27 21  1  0
 14  9  1  0
  1 29  1  0
  1 30  1  0
  1 31  1  0
  5 32  1  0
  5 33  1  0
  8 34  1  0
 10 35  1  0
 11 36  1  0
 12 37  1  0
 13 38  1  0
 20 39  1  0
 20 40  1  0
 22 41  1  0
 23 42  1  0
 26 43  1  0
M  CHG  2  15  -1  18  -1
M  END
>  <UniqueID>  (68) 
63

>  <SMILES>  (68) 
Cc1c(OCC(=O)Nc2ccccc2[O-])c(=O)[n-]n1Cc1ccc(Cl)cc1Cl

>  <Energy>  (68) 
85.41625099433388

>  <Genealogy>  (68) 
Cc1c(OCC(=O)Nc2ccccc2[O-])c(=O)[n-]n1Cc1ccc(Cl)cc1Cl (protonated)
Cc1c(OCC(=O)Nc2ccccc2[O-])c(=O)[n-]n1Cc1ccc(Cl)cc1Cl (3D coordinates assigned)
Cc1c(OCC(=O)Nc2ccccc2[O-])c(=O)[n-]n1Cc1ccc(Cl)cc1Cl (optimized conformer: 85.41625099433388 kcal/mol)

>  <smiles>  (68) 
Cc1c(OCC(=O)Nc2ccccc2O)c(=O)[nH]n1Cc1ccc(Cl)cc1Cl

>  <score_type>  (68) 
oracle

>  <origin>  (68) 
adg

>  <m_score__min__energy>  (68) 
-14.16

>  <m_primary>  (68) 
energy

$$$$
68:0
     RDKit          3D

 51 53  0  0  0  0  0  0  0  0999 V2000
   57.9170   34.0380   45.8190 C   0  0  0  0  0  0  0  0  0  0  0  0
   57.6580   32.9380   44.8400 C   0  0  0  0  0  0  0  0  0  0  0  0
   58.0440   33.0670   43.5030 C   0  0  0  0  0  0  0  0  0  0  0  0
   57.7760   32.0140   42.6270 C   0  0  0  0  0  0  0  0  0  0  0  0
   57.1550   30.8950   43.0830 N   0  0  0  0  0  0  0  0  0  0  0  0
   56.7860   30.7770   44.3860 C   0  0  0  0  0  0  0  0  0  0  0  0
   56.1940   29.6920   44.7850 N   0  0  0  0  0  0  0  0  0  0  0  0
   57.0360   28.2440   45.2420 S   0  0  0  0  0  0  0  0  0  0  0  0
   57.8170   27.7150   44.0710 O   0  0  0  0  0  0  0  0  0  0  0  0
   56.0340   27.2020   45.6480 O   0  0  0  0  0  0  0  0  0  0  0  0
   58.1110   28.5820   46.5960 C   0  0  0  0  0  0  0  0  0  0  0  0
   58.3250   29.9010   47.0190 C   0  0  0  0  0  0  0  0  0  0  0  0
   59.1550   30.1620   48.1120 C   0  0  0  0  0  0  0  0  0  0  0  0
   59.7710   29.1100   48.8010 C   0  0  0  0  0  0  0  0  0  0  0  0
   60.6400   29.4130   49.9010 N   0  0  0  0  0  0  0  0  0  0  0  0
   60.7000   30.6520   50.6250 C   0  0  0  0  0  0  0  0  0  0  0  0
   61.8060   31.2570   50.6750 O   0  0  0  0  0  0  0  0  0  0  0  0
   59.4730   31.2580   51.2810 C   0  0  2  0  0  0  0  0  0  0  0  0
   58.4330   30.2330   51.4690 C   0  0  0  0  0  0  0  0  0  0  0  0
   57.6150   29.4270   51.6210 N   0  0  0  0  0  0  0  0  0  0  0  0
   58.9210   32.4350   50.5000 C   0  0  0  0  0  0  0  0  0  0  0  0
   57.8210   32.3250   49.9760 O   0  0  0  0  0  0  0  0  0  0  0  0
   59.6360   33.7710   50.4640 C   0  0  0  0  0  0  0  0  0  0  0  0
   60.1340   34.1120   49.0810 C   0  0  0  0  0  0  0  0  0  0  0  0
   59.4430   34.9010   48.3810 O   0  0  0  0  0  0  0  0  0  0  0  0
   61.3840   33.5330   48.5140 C   0  0  0  0  0  0  0  0  0  0  0  0
   62.6520   34.0640   48.8240 C   0  0  0  0  0  0  0  0  0  0  0  0
   63.8130   33.4990   48.2840 C   0  0  0  0  0  0  0  0  0  0  0  0
   63.7260   32.3970   47.4330 C   0  0  0  0  0  0  0  0  0  0  0  0
   62.4770   31.8540   47.1220 C   0  0  0  0  0  0  0  0  0  0  0  0
   61.3120   32.4210   47.6500 C   0  0  0  0  0  0  0  0  0  0  0  0
   59.5920   27.7930   48.3480 C   0  0  0  0  0  0  0  0  0  0  0  0
   58.7510   27.5290   47.2630 C   0  0  0  0  0  0  0  0  0  0  0  0
   57.0410   31.7980   45.2520 N   0  0  0  0  0  0  0  0  0  0  0  0
   57.8249   33.6468   46.8429 H   0  0  0  0  0  0  0  0  0  0  0  0
   58.9326   34.4324   45.6672 H   0  0  0  0  0  0  0  0  0  0  0  0
   57.1841   34.8441   45.6672 H   0  0  0  0  0  0  0  0  0  0  0  0
   58.5479   33.9784   43.1489 H   0  0  0  0  0  0  0  0  0  0  0  0
   58.0672   32.0900   41.5690 H   0  0  0  0  0  0  0  0  0  0  0  0
   57.8381   30.7329   46.4890 H   0  0  0  0  0  0  0  0  0  0  0  0
   59.3257   31.2001   48.4333 H   0  0  0  0  0  0  0  0  0  0  0  0
   59.7869   31.6409   52.2633 H   0  0  0  0  0  0  0  0  0  0  0  0
   58.9386   34.5554   50.7931 H   0  0  0  0  0  0  0  0  0  0  0  0
   60.5081   33.7062   51.1313 H   0  0  0  0  0  0  0  0  0  0  0  0
   62.7300   34.9308   49.4968 H   0  0  0  0  0  0  0  0  0  0  0  0
   64.7966   33.9249   48.5312 H   0  0  0  0  0  0  0  0  0  0  0  0
   64.6396   31.9563   47.0075 H   0  0  0  0  0  0  0  0  0  0  0  0
   62.4093   30.9781   46.4601 H   0  0  0  0  0  0  0  0  0  0  0  0
   60.3317   31.9957   47.3889 H   0  0  0  0  0  0  0  0  0  0  0  0
   60.1157   26.9655   48.8490 H   0  0  0  0  0  0  0  0  0  0  0  0
   58.5913   26.4922   46.9321 H   0  0  0  0  0  0  0  0  0  0  0  0
  1  2  1  0
  2  3  1  0
  3  4  2  0
  4  5  1  0
  5  6  1  0
  6  7  2  3
  7  8  1  0
  8  9  2  0
  8 10  2  0
  8 11  1  0
 11 12  2  0
 12 13  1  0
 13 14  2  0
 14 15  1  0
 15 16  1  0
 16 17  2  0
 16 18  1  0
 18 19  1  0
 19 20  3  0
 18 21  1  0
 21 22  2  0
 21 23  1  0
 23 24  1  0
 24 25  2  0
 24 26  1  0
 26 27  2  0
 27 28  1  0
 28 29  2  0
 29 30  1  0
 30 31  2  0
 14 32  1  0
 32 33  2  0
  6 34  1  0
 34  2  2  0
 33 11  1  0
 31 26  1  0
  1 35  1  0
  1 36  1  0
  1 37  1  0
  3 38  1  0
  4 39  1  0
 12 40  1  0
 13 41  1  0
 18 42  1  1
 23 43  1  0
 23 44  1  0
 27 45  1  0
 28 46  1  0
 29 47  1  0
 30 48  1  0
 31 49  1  0
 32 50  1  0
 33 51  1  0
M  CHG  2   5  -1  15  -1
M  END
>  <UniqueID>  (69) 
64

>  <SMILES>  (69) 
Cc1cc[n-]c(=NS(=O)(=O)c2ccc([N-]C(=O)[C@H](C#N)C(=O)CC(=O)c3ccccc3)cc2)n1

>  <Energy>  (69) 
62.737740529804675

>  <Genealogy>  (69) 
Cc1cc[n-]c(=NS(=O)(=O)c2ccc([N-]C(=O)C(C#N)C(=O)CC(=O)c3ccccc3)cc2)n1 (protonated)
Cc1cc[n-]c(=NS(=O)(=O)c2ccc([N-]C(=O)[C@H](C#N)C(=O)CC(=O)c3ccccc3)cc2)n1 (chirality)
Cc1cc[n-]c(=NS(=O)(=O)c2ccc([N-]C(=O)[C@H](C#N)C(=O)CC(=O)c3ccccc3)cc2)n1 (3D coordinates assigned)
Cc1cc[n-]c(=NS(=O)(=O)c2ccc([N-]C(=O)[C@H](C#N)C(=O)CC(=O)c3ccccc3)cc2)n1 (optimized conformer: 62.737740529804675 kcal/mol)

>  <smiles>  (69) 
Cc1cc[nH]c(=NS(=O)(=O)c2ccc(NC(=O)C(C#N)C(=O)CC(=O)c3ccccc3)cc2)n1

>  <score_type>  (69) 
oracle

>  <origin>  (69) 
adg

>  <m_score__min__energy>  (69) 
-12.52

>  <m_primary>  (69) 
energy

$$$$
69:0
     RDKit          3D

 49 52  0  0  0  0  0  0  0  0999 V2000
   60.1080   29.0160   45.1880 C   0  0  0  0  0  0  0  0  0  0  0  0
   59.7260   30.3530   45.7600 C   0  0  0  0  0  0  0  0  0  0  0  0
   60.5520   30.8950   46.6920 N   0  0  0  0  0  0  0  0  0  0  0  0
   60.2960   32.0930   47.2660 C   0  0  0  0  0  0  0  0  0  0  0  0
   61.1770   32.6150   48.2210 C   0  0  0  0  0  0  0  0  0  0  0  0
   60.9150   33.8560   48.8090 C   0  0  0  0  0  0  0  0  0  0  0  0
   59.7750   34.5780   48.4440 C   0  0  0  0  0  0  0  0  0  0  0  0
   58.8920   34.0620   47.4910 C   0  0  0  0  0  0  0  0  0  0  0  0
   59.1470   32.8120   46.8950 C   0  0  0  0  0  0  0  0  0  0  0  0
   58.2920   32.2480   45.9330 C   0  0  0  0  0  0  0  0  0  0  0  0
   57.2590   32.8810   45.5730 O   0  0  0  0  0  0  0  0  0  0  0  0
   58.5750   31.0170   45.3850 N   0  0  0  0  0  0  0  0  0  0  0  0
   57.6580   30.4600   44.3670 C   0  0  0  0  0  0  0  0  0  0  0  0
   56.6350   29.5620   45.0100 C   0  0  0  0  0  0  0  0  0  0  0  0
   55.4110   29.8260   44.8780 O   0  0  0  0  0  0  0  0  0  0  0  0
   57.0140   28.4360   45.8140 N   0  0  0  0  0  0  0  0  0  0  0  0
   56.9030   27.0530   45.4500 C   0  0  0  0  0  0  0  0  0  0  0  0
   55.8920   26.2790   46.0300 C   0  0  0  0  0  0  0  0  0  0  0  0
   55.7400   24.9350   45.6780 C   0  0  0  0  0  0  0  0  0  0  0  0
   56.5850   24.3510   44.7190 C   0  0  0  0  0  0  0  0  0  0  0  0
   56.4370   22.9650   44.3550 N   0  0  0  0  0  0  0  0  0  0  0  0
   56.6220   22.5490   42.9610 C   0  0  0  0  0  0  0  0  0  0  0  0
   57.0930   21.0930   42.9160 C   0  0  0  0  0  0  0  0  0  0  0  0
   56.2270   20.2610   43.6640 O   0  0  0  0  0  0  0  0  0  0  0  0
   56.2880   20.6140   45.0330 C   0  0  0  0  0  0  0  0  0  0  0  0
   55.7510   22.0320   45.2550 C   0  0  0  0  0  0  0  0  0  0  0  0
   57.5820   25.1360   44.1200 C   0  0  0  0  0  0  0  0  0  0  0  0
   57.7340   26.4790   44.4730 C   0  0  0  0  0  0  0  0  0  0  0  0
   60.3095   28.3106   46.0076 H   0  0  0  0  0  0  0  0  0  0  0  0
   59.2834   28.6329   44.5690 H   0  0  0  0  0  0  0  0  0  0  0  0
   61.0106   29.1264   44.5690 H   0  0  0  0  0  0  0  0  0  0  0  0
   62.0751   32.0487   48.5085 H   0  0  0  0  0  0  0  0  0  0  0  0
   61.6070   34.2649   49.5600 H   0  0  0  0  0  0  0  0  0  0  0  0
   59.5723   35.5546   48.9078 H   0  0  0  0  0  0  0  0  0  0  0  0
   57.9963   34.6335   47.2062 H   0  0  0  0  0  0  0  0  0  0  0  0
   57.1429   31.2856   43.8541 H   0  0  0  0  0  0  0  0  0  0  0  0
   58.2440   29.8708   43.6463 H   0  0  0  0  0  0  0  0  0  0  0  0
   55.2126   26.7311   46.7676 H   0  0  0  0  0  0  0  0  0  0  0  0
   54.9541   24.3306   46.1546 H   0  0  0  0  0  0  0  0  0  0  0  0
   55.6676   22.6415   42.4219 H   0  0  0  0  0  0  0  0  0  0  0  0
   57.3779   23.1916   42.4860 H   0  0  0  0  0  0  0  0  0  0  0  0
   57.1077   20.7510   41.8706 H   0  0  0  0  0  0  0  0  0  0  0  0
   58.1011   21.0351   43.3523 H   0  0  0  0  0  0  0  0  0  0  0  0
   55.6826   19.9040   45.6156 H   0  0  0  0  0  0  0  0  0  0  0  0
   57.3381   20.5801   45.3589 H   0  0  0  0  0  0  0  0  0  0  0  0
   54.6709   22.0509   45.0477 H   0  0  0  0  0  0  0  0  0  0  0  0
   55.9314   22.3316   46.2979 H   0  0  0  0  0  0  0  0  0  0  0  0
   58.2487   24.6906   43.3670 H   0  0  0  0  0  0  0  0  0  0  0  0
   58.5074   27.0897   43.9842 H   0  0  0  0  0  0  0  0  0  0  0  0
  1  2  1  0
  2  3  2  0
  3  4  1  0
  4  5  2  0
  5  6  1  0
  6  7  2  0
  7  8  1  0
  8  9  2  0
  9 10  1  0
 10 11  2  0
 10 12  1  0
 12 13  1  0
 13 14  1  0
 14 15  2  0
 14 16  1  0
 16 17  1  0
 17 18  2  0
 18 19  1  0
 19 20  2  0
 20 21  1  0
 21 22  1  0
 22 23  1  0
 23 24  1  0
 24 25  1  0
 25 26  1  0
 20 27  1  0
 27 28  2  0
 12  2  1  0
 28 17  1  0
  9  4  1  0
 26 21  1  0
  1 29  1  0
  1 30  1  0
  1 31  1  0
  5 32  1  0
  6 33  1  0
  7 34  1  0
  8 35  1  0
 13 36  1  0
 13 37  1  0
 18 38  1  0
 19 39  1  0
 22 40  1  0
 22 41  1  0
 23 42  1  0
 23 43  1  0
 25 44  1  0
 25 45  1  0
 26 46  1  0
 26 47  1  0
 27 48  1  0
 28 49  1  0
M  CHG  1  16  -1
M  END
>  <UniqueID>  (70) 
65

>  <SMILES>  (70) 
Cc1nc2ccccc2c(=O)n1CC(=O)[N-]c1ccc(N2CCOCC2)cc1

>  <Energy>  (70) 
70.11930817914927

>  <Genealogy>  (70) 
Cc1nc2ccccc2c(=O)n1CC(=O)[N-]c1ccc(N2CCOCC2)cc1 (protonated)
Cc1nc2ccccc2c(=O)n1CC(=O)[N-]c1ccc(N2CCOCC2)cc1 (3D coordinates assigned)
Cc1nc2ccccc2c(=O)n1CC(=O)[N-]c1ccc(N2CCOCC2)cc1 (nonaromatic ring conformer: 70.11930817914927 kcal/mol)

>  <smiles>  (70) 
Cc1nc2ccccc2c(=O)n1CC(=O)Nc1ccc(N2CCOCC2)cc1

>  <score_type>  (70) 
oracle

>  <origin>  (70) 
adg

>  <m_score__min__energy>  (70) 
-10.09

>  <m_primary>  (70) 
energy

$$$$
70:0
     RDKit          3D

 43 45  0  0  0  0  0  0  0  0999 V2000
   58.8890   35.0440   44.7790 C   0  0  0  0  0  0  0  0  0  0  0  0
   58.9700   34.5730   46.1970 C   0  0  0  0  0  0  0  0  0  0  0  0
   59.4760   35.3070   47.2050 N   0  0  0  0  0  0  0  0  0  0  0  0
   59.3800   34.6150   48.2990 O   0  0  0  0  0  0  0  0  0  0  0  0
   58.8330   33.4450   48.0640 C   0  0  0  0  0  0  0  0  0  0  0  0
   58.6310   32.5860   49.0210 N   0  0  0  0  0  0  0  0  0  0  0  0
   59.7750   31.6100   49.8880 S   0  0  0  0  0  0  0  0  0  0  0  0
   59.4180   30.1570   49.7440 O   0  0  0  0  0  0  0  0  0  0  0  0
   59.8270   31.9960   51.3390 O   0  0  0  0  0  0  0  0  0  0  0  0
   61.3660   31.8810   49.1860 C   0  0  0  0  0  0  0  0  0  0  0  0
   62.4340   32.4290   49.9110 C   0  0  0  0  0  0  0  0  0  0  0  0
   63.6010   32.5620   49.1700 C   0  0  0  0  0  0  0  0  0  0  0  0
   63.3020   32.0030   47.6150 S   0  0  0  0  0  0  0  0  0  0  0  0
   61.6950   31.5590   47.8700 C   0  0  0  0  0  0  0  0  0  0  0  0
   60.7590   31.0680   46.8380 C   0  0  0  0  0  0  0  0  0  0  0  0
   60.7960   29.8470   46.2850 C   0  0  0  0  0  0  0  0  0  0  0  0
   59.6580   28.9060   46.2300 C   0  0  0  0  0  0  0  0  0  0  0  0
   58.7650   28.9030   45.1440 C   0  0  0  0  0  0  0  0  0  0  0  0
   57.7160   27.9810   45.0960 C   0  0  0  0  0  0  0  0  0  0  0  0
   57.5580   27.0390   46.1220 C   0  0  0  0  0  0  0  0  0  0  0  0
   56.2440   25.8700   46.0540 S   0  0  0  0  0  0  0  0  0  0  0  0
   56.2870   24.9820   47.2670 O   0  0  0  0  0  0  0  0  0  0  0  0
   56.3850   25.0150   44.8260 O   0  0  0  0  0  0  0  0  0  0  0  0
   54.7750   26.6810   46.0050 O   0  0  0  0  0  0  0  0  0  0  0  0
   58.4700   27.0140   47.1850 C   0  0  0  0  0  0  0  0  0  0  0  0
   59.5190   27.9380   47.2350 C   0  0  0  0  0  0  0  0  0  0  0  0
   58.5460   33.3490   46.6960 C   0  0  0  0  0  0  0  0  0  0  0  0
   57.8730   32.2670   45.9040 C   0  0  0  0  0  0  0  0  0  0  0  0
   58.7026   36.1280   44.7628 H   0  0  0  0  0  0  0  0  0  0  0  0
   59.8376   34.8274   44.2659 H   0  0  0  0  0  0  0  0  0  0  0  0
   58.0673   34.5229   44.2659 H   0  0  0  0  0  0  0  0  0  0  0  0
   59.8730   36.2700   47.1410 H   0  0  0  0  0  0  0  0  0  0  0  0
   62.3548   32.7256   50.9673 H   0  0  0  0  0  0  0  0  0  0  0  0
   64.5564   32.9641   49.5382 H   0  0  0  0  0  0  0  0  0  0  0  0
   59.9717   31.7565   46.4972 H   0  0  0  0  0  0  0  0  0  0  0  0
   61.7466   29.5208   45.8379 H   0  0  0  0  0  0  0  0  0  0  0  0
   58.8927   29.6299   44.3283 H   0  0  0  0  0  0  0  0  0  0  0  0
   57.0122   27.9945   44.2507 H   0  0  0  0  0  0  0  0  0  0  0  0
   58.3608   26.2651   47.9832 H   0  0  0  0  0  0  0  0  0  0  0  0
   60.2383   27.9051   48.0666 H   0  0  0  0  0  0  0  0  0  0  0  0
   57.4194   31.5377   46.5913 H   0  0  0  0  0  0  0  0  0  0  0  0
   57.0904   32.7094   45.2700 H   0  0  0  0  0  0  0  0  0  0  0  0
   58.6158   31.7606   45.2700 H   0  0  0  0  0  0  0  0  0  0  0  0
  1  2  1  0
  2  3  1  0
  3  4  1  0
  4  5  1  0
  5  6  2  3
  6  7  1  0
  7  8  2  0
  7  9  2  0
  7 10  1  0
 10 11  1  0
 11 12  2  0
 12 13  1  0
 13 14  1  0
 14 15  1  0
 15 16  2  3
 16 17  1  0
 17 18  2  0
 18 19  1  0
 19 20  2  0
 20 21  1  0
 21 22  2  0
 21 23  2  0
 21 24  1  0
 20 25  1  0
 25 26  2  0
  5 27  1  0
 27 28  1  0
 27  2  2  0
 14 10  2  0
 26 17  1  0
  1 29  1  0
  1 30  1  0
  1 31  1  0
  3 32  1  0
 11 33  1  0
 12 34  1  0
 15 35  1  0
 16 36  1  0
 18 37  1  0
 19 38  1  0
 25 39  1  0
 26 40  1  0
 28 41  1  0
 28 42  1  0
 28 43  1  0
M  CHG  1  24  -1
M  END
>  <UniqueID>  (71) 
66

>  <SMILES>  (71) 
Cc1[nH]oc(=NS(=O)(=O)c2ccsc2C=Cc2ccc(S(=O)(=O)[O-])cc2)c1C

>  <Energy>  (71) 
120.59885398486517

>  <Genealogy>  (71) 
Cc1[nH]oc(=NS(=O)(=O)c2ccsc2C=Cc2ccc(S(=O)(=O)[O-])cc2)c1C (protonated)
Cc1[nH]oc(=NS(=O)(=O)c2ccsc2C=Cc2ccc(S(=O)(=O)[O-])cc2)c1C (3D coordinates assigned)
Cc1[nH]oc(=NS(=O)(=O)c2ccsc2C=Cc2ccc(S(=O)(=O)[O-])cc2)c1C (optimized conformer: 120.59885398486517 kcal/mol)

>  <smiles>  (71) 
Cc1[nH]oc(=NS(=O)(=O)c2ccsc2C=Cc2ccc(S(=O)(=O)O)cc2)c1C

>  <score_type>  (71) 
oracle

>  <origin>  (71) 
adg

>  <m_score__min__energy>  (71) 
-12.4

>  <m_primary>  (71) 
energy

$$$$
71:0
     RDKit          3D

 45 48  0  0  0  0  0  0  0  0999 V2000
   59.7800   26.8630   48.6870 O   0  0  0  0  0  0  0  0  0  0  0  0
   59.2310   27.7640   47.9940 C   0  0  0  0  0  0  0  0  0  0  0  0
   59.5270   29.0620   48.2510 N   0  0  0  0  0  0  0  0  0  0  0  0
   58.9730   30.0880   47.5520 C   0  0  0  0  0  0  0  0  0  0  0  0
   59.3130   31.3600   47.8380 C   0  0  0  0  0  0  0  0  0  0  0  0
   60.7070   31.8590   47.8220 C   0  0  0  0  0  0  0  0  0  0  0  0
   61.6910   31.0750   47.2010 C   0  0  0  0  0  0  0  0  0  0  0  0
   63.0160   31.5110   47.1520 C   0  0  0  0  0  0  0  0  0  0  0  0
   63.3680   32.7390   47.7130 C   0  0  0  0  0  0  0  0  0  0  0  0
   62.3940   33.5430   48.3100 C   0  0  0  0  0  0  0  0  0  0  0  0
   61.0500   33.1230   48.3550 C   0  0  0  0  0  0  0  0  0  0  0  0
   60.0350   33.9320   48.8960 O   0  0  0  0  0  0  0  0  0  0  0  0
   59.3320   34.9590   48.1990 C   0  0  0  0  0  0  0  0  0  0  0  0
   58.8540   34.4650   46.8600 C   0  0  0  0  0  0  0  0  0  0  0  0
   59.6600   34.6030   45.7170 C   0  0  0  0  0  0  0  0  0  0  0  0
   59.2040   34.1490   44.4750 C   0  0  0  0  0  0  0  0  0  0  0  0
   57.9390   33.5650   44.3630 C   0  0  0  0  0  0  0  0  0  0  0  0
   57.1270   33.4360   45.4930 C   0  0  0  0  0  0  0  0  0  0  0  0
   57.5780   33.8880   46.7360 C   0  0  0  0  0  0  0  0  0  0  0  0
   58.0620   29.7810   46.5230 C   0  0  0  0  0  0  0  0  0  0  0  0
   57.5120   30.6940   45.8470 O   0  0  0  0  0  0  0  0  0  0  0  0
   57.7600   28.4800   46.2570 N   0  0  0  0  0  0  0  0  0  0  0  0
   58.3300   27.4460   46.9540 C   0  0  0  0  0  0  0  0  0  0  0  0
   58.0220   26.1560   46.6870 C   0  0  0  0  0  0  0  0  0  0  0  0
   56.6550   25.6340   46.5020 C   0  0  0  0  0  0  0  0  0  0  0  0
   56.3280   24.3420   46.6720 N   0  0  0  0  0  0  0  0  0  0  0  0
   55.0290   24.2910   46.3030 C   0  0  0  0  0  0  0  0  0  0  0  0
   54.1540   22.9120   46.3390 S   0  0  0  0  0  0  0  0  0  0  0  0
   54.5210   25.4670   45.8770 N   0  0  0  0  0  0  0  0  0  0  0  0
   55.5630   26.3040   45.9970 C   0  0  0  0  0  0  0  0  0  0  0  0
   55.5270   27.6390   45.6150 O   0  0  0  0  0  0  0  0  0  0  0  0
   58.5109   32.0666   48.0976 H   0  0  0  0  0  0  0  0  0  0  0  0
   61.4164   30.1102   46.7497 H   0  0  0  0  0  0  0  0  0  0  0  0
   63.7830   30.8862   46.6709 H   0  0  0  0  0  0  0  0  0  0  0  0
   64.4151   33.0749   47.6851 H   0  0  0  0  0  0  0  0  0  0  0  0
   62.6785   34.5110   48.7481 H   0  0  0  0  0  0  0  0  0  0  0  0
   58.4646   35.2729   48.7983 H   0  0  0  0  0  0  0  0  0  0  0  0
   60.0139   35.8072   48.0391 H   0  0  0  0  0  0  0  0  0  0  0  0
   60.6527   35.0696   45.7993 H   0  0  0  0  0  0  0  0  0  0  0  0
   59.8420   34.2517   43.5849 H   0  0  0  0  0  0  0  0  0  0  0  0
   57.5828   33.2071   43.3857 H   0  0  0  0  0  0  0  0  0  0  0  0
   56.1310   32.9778   45.4039 H   0  0  0  0  0  0  0  0  0  0  0  0
   56.9320   33.7919   47.6211 H   0  0  0  0  0  0  0  0  0  0  0  0
   57.0400   28.2990   45.5220 H   0  0  0  0  0  0  0  0  0  0  0  0
   58.8545   25.4421   46.6014 H   0  0  0  0  0  0  0  0  0  0  0  0
  1  2  2  0
  2  3  1  0
  3  4  1  0
  4  5  2  3
  5  6  1  0
  6  7  2  0
  7  8  1  0
  8  9  2  0
  9 10  1  0
 10 11  2  0
 11 12  1  0
 12 13  1  0
 13 14  1  0
 14 15  2  0
 15 16  1  0
 16 17  2  0
 17 18  1  0
 18 19  2  0
  4 20  1  0
 20 21  2  0
 20 22  1  0
 22 23  1  0
 23 24  2  3
 24 25  1  0
 25 26  1  0
 26 27  1  0
 27 28  2  0
 27 29  1  0
 29 30  1  0
 30 31  1  0
 23  2  1  0
 30 25  2  0
 11  6  1  0
 19 14  1  0
  5 32  1  0
  7 33  1  0
  8 34  1  0
  9 35  1  0
 10 36  1  0
 13 37  1  0
 13 38  1  0
 15 39  1  0
 16 40  1  0
 17 41  1  0
 18 42  1  0
 19 43  1  0
 22 44  1  0
 24 45  1  0
M  CHG  4   3  -1  26  -1  29  -1  31  -1
M  END
>  <UniqueID>  (72) 
67

>  <SMILES>  (72) 
O=c1[n-]c(=Cc2ccccc2OCc2ccccc2)c(=O)[nH]c1=Cc1[n-]c(=S)[n-]c1[O-]

>  <Energy>  (72) 
99.04783614052737

>  <Genealogy>  (72) 
O=c1[n-]c(=Cc2ccccc2OCc2ccccc2)c(=O)[nH]c1=Cc1[n-]c(=S)[n-]c1[O-] (protonated)
O=c1[n-]c(=Cc2ccccc2OCc2ccccc2)c(=O)[nH]c1=Cc1[n-]c(=S)[n-]c1[O-] (3D coordinates assigned)
O=c1[n-]c(=Cc2ccccc2OCc2ccccc2)c(=O)[nH]c1=Cc1[n-]c(=S)[n-]c1[O-] (optimized conformer: 99.04783614052737 kcal/mol)

>  <smiles>  (72) 
O=c1[nH]c(=Cc2[nH]c(=S)[nH]c2O)c(=O)[nH]c1=Cc1ccccc1OCc1ccccc1

>  <score_type>  (72) 
oracle

>  <origin>  (72) 
adg

>  <m_score__min__energy>  (72) 
-17.93

>  <m_primary>  (72) 
energy

$$$$
72:0
     RDKit          3D

 48 50  0  0  0  0  0  0  0  0999 V2000
   58.5530   31.3370   48.6440 N   0  0  0  0  0  0  0  0  0  0  0  0
   59.9480   30.9740   49.5970 S   0  0  0  0  0  0  0  0  0  0  0  0
   59.6870   31.3160   51.0370 O   0  0  0  0  0  0  0  0  0  0  0  0
   60.2160   29.4980   49.5100 O   0  0  0  0  0  0  0  0  0  0  0  0
   61.3440   31.8760   48.9760 C   0  0  0  0  0  0  0  0  0  0  0  0
   62.6000   31.2440   49.0040 C   0  0  0  0  0  0  0  0  0  0  0  0
   63.7340   31.8830   48.5020 C   0  0  0  0  0  0  0  0  0  0  0  0
   63.6320   33.1590   47.9550 C   0  0  0  0  0  0  0  0  0  0  0  0
   62.3950   33.8020   47.9080 C   0  0  0  0  0  0  0  0  0  0  0  0
   61.2380   33.1810   48.4180 C   0  0  0  0  0  0  0  0  0  0  0  0
   59.9250   33.9270   48.3070 C   0  0  0  0  0  0  0  0  0  0  0  0
   59.4490   34.0150   46.8880 C   0  0  0  0  0  0  0  0  0  0  0  0
   58.9040   32.9900   46.1970 N   0  0  0  0  0  0  0  0  0  0  0  0
   58.6100   33.3240   44.9120 C   0  0  0  0  0  0  0  0  0  0  0  0
   57.8870   32.3890   43.9900 C   0  0  0  0  0  0  0  0  0  0  0  0
   57.0880   31.4220   44.8010 C   0  0  0  0  0  0  0  0  0  0  0  0
   55.8920   31.1750   44.4900 O   0  0  0  0  0  0  0  0  0  0  0  0
   57.7140   30.7380   45.8870 N   0  0  0  0  0  0  0  0  0  0  0  0
   59.1720   29.8170   45.7290 S   0  0  0  0  0  0  0  0  0  0  0  0
   59.5570   29.7540   44.2780 O   0  0  0  0  0  0  0  0  0  0  0  0
   60.2770   30.4560   46.5220 O   0  0  0  0  0  0  0  0  0  0  0  0
   58.8960   28.1960   46.3560 C   0  0  0  0  0  0  0  0  0  0  0  0
   59.8180   27.6180   47.2370 C   0  0  0  0  0  0  0  0  0  0  0  0
   59.5780   26.3490   47.7670 C   0  0  0  0  0  0  0  0  0  0  0  0
   58.4190   25.6490   47.4210 C   0  0  0  0  0  0  0  0  0  0  0  0
   57.4940   26.2070   46.5200 C   0  0  0  0  0  0  0  0  0  0  0  0
   56.2120   25.4850   46.1910 C   0  0  0  0  0  0  0  0  0  0  0  0
   56.3500   24.7470   45.0270 F   0  0  0  0  0  0  0  0  0  0  0  0
   55.8900   24.6310   47.2300 F   0  0  0  0  0  0  0  0  0  0  0  0
   55.1770   26.3860   46.0110 F   0  0  0  0  0  0  0  0  0  0  0  0
   57.7340   27.4940   46.0070 C   0  0  0  0  0  0  0  0  0  0  0  0
   58.9310   34.6350   44.5620 C   0  0  0  0  0  0  0  0  0  0  0  0
   59.6150   35.3740   45.9110 S   0  0  0  0  0  0  0  0  0  0  0  0
   58.8550   31.3100   47.6450 H   0  0  0  0  0  0  0  0  0  0  0  0
   62.6895   30.2326   49.4272 H   0  0  0  0  0  0  0  0  0  0  0  0
   64.7104   31.3777   48.5385 H   0  0  0  0  0  0  0  0  0  0  0  0
   64.5275   33.6606   47.5595 H   0  0  0  0  0  0  0  0  0  0  0  0
   62.3221   34.8071   47.4669 H   0  0  0  0  0  0  0  0  0  0  0  0
   59.1658   33.4011   48.9046 H   0  0  0  0  0  0  0  0  0  0  0  0
   60.0827   34.9507   48.6773 H   0  0  0  0  0  0  0  0  0  0  0  0
   58.7140   32.0470   46.6060 H   0  0  0  0  0  0  0  0  0  0  0  0
   57.2153   32.9637   43.3354 H   0  0  0  0  0  0  0  0  0  0  0  0
   58.6145   31.8418   43.3725 H   0  0  0  0  0  0  0  0  0  0  0  0
   60.7323   28.1643   47.5118 H   0  0  0  0  0  0  0  0  0  0  0  0
   60.3040   25.8983   48.4597 H   0  0  0  0  0  0  0  0  0  0  0  0
   58.2291   24.6565   47.8555 H   0  0  0  0  0  0  0  0  0  0  0  0
   57.0032   27.9541   45.3256 H   0  0  0  0  0  0  0  0  0  0  0  0
   58.7667   35.1027   43.5800 H   0  0  0  0  0  0  0  0  0  0  0  0
  1  2  1  0
  2  3  2  0
  2  4  2  0
  2  5  1  0
  5  6  2  0
  6  7  1  0
  7  8  2  0
  8  9  1  0
  9 10  2  0
 10 11  1  0
 11 12  1  0
 12 13  2  0
 13 14  1  0
 14 15  1  0
 15 16  1  0
 16 17  2  0
 16 18  1  0
 18 19  1  0
 19 20  2  0
 19 21  2  0
 19 22  1  0
 22 23  2  0
 23 24  1  0
 24 25  2  0
 25 26  1  0
 26 27  1  0
 27 28  1  0
 27 29  1  0
 27 30  1  0
 26 31  2  0
 14 32  2  0
 32 33  1  0
 10  5  1  0
 33 12  1  0
 31 22  1  0
  1 34  1  0
  6 35  1  0
  7 36  1  0
  8 37  1  0
  9 38  1  0
 11 39  1  0
 11 40  1  0
 13 41  1  0
 15 42  1  0
 15 43  1  0
 23 44  1  0
 24 45  1  0
 25 46  1  0
 31 47  1  0
 32 48  1  0
M  CHG  3   1  -1  13   1  18  -1
M  END
>  <UniqueID>  (73) 
68

>  <SMILES>  (73) 
[NH-]S(=O)(=O)c1ccccc1Cc1[nH+]c(CC(=O)[N-]S(=O)(=O)c2cccc(C(F)(F)F)c2)cs1

>  <Energy>  (73) 
78.07767253163898

>  <Genealogy>  (73) 
[NH-]S(=O)(=O)c1ccccc1Cc1[nH+]c(CC(=O)[N-]S(=O)(=O)c2cccc(C(F)(F)F)c2)cs1 (protonated)
[NH-]S(=O)(=O)c1ccccc1Cc1[nH+]c(CC(=O)[N-]S(=O)(=O)c2cccc(C(F)(F)F)c2)cs1 (3D coordinates assigned)
[NH-]S(=O)(=O)c1ccccc1Cc1[nH+]c(CC(=O)[N-]S(=O)(=O)c2cccc(C(F)(F)F)c2)cs1 (optimized conformer: 78.07767253163898 kcal/mol)

>  <smiles>  (73) 
NS(=O)(=O)c1ccccc1Cc1nc(CC(=O)NS(=O)(=O)c2cccc(C(F)(F)F)c2)cs1

>  <score_type>  (73) 
oracle

>  <origin>  (73) 
adg

>  <m_score__min__energy>  (73) 
-12.58

>  <m_primary>  (73) 
energy

$$$$
73:0
     RDKit          3D

 58 61  0  0  0  0  0  0  0  0999 V2000
   66.9540   30.9040   50.8680 N   0  0  0  0  0  0  0  0  0  0  0  0
   67.4460   32.1400   51.3870 C   0  0  0  0  0  0  0  0  0  0  0  0
   68.2800   32.1330   52.3320 O   0  0  0  0  0  0  0  0  0  0  0  0
   66.9540   33.4470   50.8410 C   0  0  0  0  0  0  0  0  0  0  0  0
   66.0840   33.2330   49.7300 O   0  0  0  0  0  0  0  0  0  0  0  0
   64.6850   33.1260   49.8050 C   0  0  0  0  0  0  0  0  0  0  0  0
   63.9270   33.7570   50.8080 C   0  0  0  0  0  0  0  0  0  0  0  0
   62.5370   33.6230   50.8300 C   0  0  0  0  0  0  0  0  0  0  0  0
   61.8800   32.8700   49.8480 C   0  0  0  0  0  0  0  0  0  0  0  0
   62.6340   32.2130   48.8550 C   0  0  0  0  0  0  0  0  0  0  0  0
   64.0290   32.3620   48.8340 C   0  0  0  0  0  0  0  0  0  0  0  0
   61.9650   31.4250   47.7590 C   0  0  0  0  0  0  0  0  0  0  0  0
   60.4810   31.1490   48.0490 C   0  0  0  0  0  0  0  0  0  0  0  0
   59.7830   32.3170   48.6310 N   0  0  0  0  0  0  0  0  0  0  0  0
   59.6930   33.4770   47.7150 C   0  0  0  0  0  0  0  0  0  0  0  0
   58.9740   33.1080   46.4440 C   0  0  0  0  0  0  0  0  0  0  0  0
   59.1700   33.8540   45.2710 C   0  0  0  0  0  0  0  0  0  0  0  0
   58.5250   33.4850   44.0880 C   0  0  0  0  0  0  0  0  0  0  0  0
   57.6770   32.3740   44.0680 C   0  0  0  0  0  0  0  0  0  0  0  0
   57.4560   31.6320   45.2400 C   0  0  0  0  0  0  0  0  0  0  0  0
   56.6200   30.4680   45.2430 N   0  0  0  0  0  0  0  0  0  0  0  0
   56.3600   29.6100   44.1250 C   0  0  0  0  0  0  0  0  0  0  0  0
   55.2780   29.7460   43.4950 O   0  0  0  0  0  0  0  0  0  0  0  0
   57.3730   28.6100   43.6360 C   0  0  0  0  0  0  0  0  0  0  0  0
   58.4160   28.3570   44.6960 C   0  0  0  0  0  0  0  0  0  0  0  0
   59.6630   29.0000   44.6070 C   0  0  0  0  0  0  0  0  0  0  0  0
   60.6370   28.7980   45.5880 C   0  0  0  0  0  0  0  0  0  0  0  0
   60.3750   27.9600   46.6730 C   0  0  0  0  0  0  0  0  0  0  0  0
   59.1370   27.3250   46.7820 C   0  0  0  0  0  0  0  0  0  0  0  0
   58.1520   27.5190   45.8030 C   0  0  0  0  0  0  0  0  0  0  0  0
   56.6040   26.7040   46.0040 Cl  0  0  0  0  0  0  0  0  0  0  0  0
   58.1250   31.9900   46.4170 C   0  0  0  0  0  0  0  0  0  0  0  0
   60.3830   32.6860   49.9300 C   0  0  0  0  0  0  0  0  0  0  0  0
   66.2580   30.8890   50.0920 H   0  0  0  0  0  0  0  0  0  0  0  0
   67.2920   29.9970   51.2610 H   0  0  0  0  0  0  0  0  0  0  0  0
   66.4074   33.9851   51.6295 H   0  0  0  0  0  0  0  0  0  0  0  0
   67.8185   34.0383   50.5050 H   0  0  0  0  0  0  0  0  0  0  0  0
   64.4313   34.3587   51.5785 H   0  0  0  0  0  0  0  0  0  0  0  0
   61.9538   34.1122   51.6241 H   0  0  0  0  0  0  0  0  0  0  0  0
   64.6150   31.8712   48.0430 H   0  0  0  0  0  0  0  0  0  0  0  0
   62.0405   31.9934   46.8203 H   0  0  0  0  0  0  0  0  0  0  0  0
   62.4763   30.4536   47.6881 H   0  0  0  0  0  0  0  0  0  0  0  0
   59.9836   30.8762   47.1065 H   0  0  0  0  0  0  0  0  0  0  0  0
   60.4339   30.3341   48.7863 H   0  0  0  0  0  0  0  0  0  0  0  0
   59.1447   34.2887   48.2156 H   0  0  0  0  0  0  0  0  0  0  0  0
   60.7126   33.8007   47.4590 H   0  0  0  0  0  0  0  0  0  0  0  0
   59.8332   34.7315   45.2834 H   0  0  0  0  0  0  0  0  0  0  0  0
   58.6848   34.0700   43.1703 H   0  0  0  0  0  0  0  0  0  0  0  0
   57.1810   32.0798   43.1313 H   0  0  0  0  0  0  0  0  0  0  0  0
   56.8632   27.6652   43.3963 H   0  0  0  0  0  0  0  0  0  0  0  0
   57.8663   29.0115   42.7385 H   0  0  0  0  0  0  0  0  0  0  0  0
   59.8735   29.6674   43.7583 H   0  0  0  0  0  0  0  0  0  0  0  0
   61.6121   29.3003   45.5052 H   0  0  0  0  0  0  0  0  0  0  0  0
   61.1446   27.8000   47.4425 H   0  0  0  0  0  0  0  0  0  0  0  0
   58.9328   26.6686   47.6407 H   0  0  0  0  0  0  0  0  0  0  0  0
   57.9842   31.3902   47.3282 H   0  0  0  0  0  0  0  0  0  0  0  0
   59.9306   33.6286   50.2718 H   0  0  0  0  0  0  0  0  0  0  0  0
   60.1869   31.8630   50.6330 H   0  0  0  0  0  0  0  0  0  0  0  0
  1  2  1  0
  2  3  2  0
  2  4  1  0
  4  5  1  0
  5  6  1  0
  6  7  2  0
  7  8  1  0
  8  9  2  0
  9 10  1  0
 10 11  2  0
 10 12  1  0
 12 13  1  0
 13 14  1  0
 14 15  1  0
 15 16  1  0
 16 17  2  0
 17 18  1  0
 18 19  2  0
 19 20  1  0
 20 21  1  0
 21 22  1  0
 22 23  2  0
 22 24  1  0
 24 25  1  0
 25 26  2  0
 26 27  1  0
 27 28  2  0
 28 29  1  0
 29 30  2  0
 30 31  1  0
 20 32  2  0
 14 33  1  0
 11  6  1  0
 32 16  1  0
 33  9  1  0
 30 25  1  0
  1 34  1  0
  1 35  1  0
  4 36  1  0
  4 37  1  0
  7 38  1  0
  8 39  1  0
 11 40  1  0
 12 41  1  0
 12 42  1  0
 13 43  1  0
 13 44  1  0
 15 45  1  0
 15 46  1  0
 17 47  1  0
 18 48  1  0
 19 49  1  0
 24 50  1  0
 24 51  1  0
 26 52  1  0
 27 53  1  0
 28 54  1  0
 29 55  1  0
 32 56  1  0
 33 57  1  0
 33 58  1  0
M  CHG  1  21  -1
M  END
>  <UniqueID>  (74) 
69

>  <SMILES>  (74) 
NC(=O)COc1ccc2c(c1)CCN(Cc1cccc([N-]C(=O)Cc3ccccc3Cl)c1)C2

>  <Energy>  (74) 
69.89177524515586

>  <Genealogy>  (74) 
NC(=O)COc1ccc2c(c1)CCN(Cc1cccc([N-]C(=O)Cc3ccccc3Cl)c1)C2 (protonated)
NC(=O)COc1ccc2c(c1)CCN(Cc1cccc([N-]C(=O)Cc3ccccc3Cl)c1)C2 (3D coordinates assigned)
NC(=O)COc1ccc2c(c1)CCN(Cc1cccc([N-]C(=O)Cc3ccccc3Cl)c1)C2 (nonaromatic ring conformer: 69.89177524515586 kcal/mol)

>  <smiles>  (74) 
NC(=O)COc1ccc2c(c1)CCN(Cc1cccc(NC(=O)Cc3ccccc3Cl)c1)C2

>  <score_type>  (74) 
oracle

>  <origin>  (74) 
adg

>  <m_score__min__energy>  (74) 
-11.529999999999999

>  <m_primary>  (74) 
energy

$$$$
74:0
     RDKit          3D

 35 37  0  0  0  0  0  0  0  0999 V2000
   54.7000   27.0870   46.7000 H   0  0  0  0  0  0  0  0  0  0  0  0
   54.8390   26.3370   45.9870 N   0  0  0  0  0  0  0  0  0  0  0  0
   56.4940   25.8470   46.0840 S   0  0  0  0  0  0  0  0  0  0  0  0
   56.7660   24.7820   45.0600 O   0  0  0  0  0  0  0  0  0  0  0  0
   56.7530   25.2950   47.4590 O   0  0  0  0  0  0  0  0  0  0  0  0
   57.5420   27.2290   45.7850 C   0  0  0  0  0  0  0  0  0  0  0  0
   58.9110   27.1540   46.0730 C   0  0  0  0  0  0  0  0  0  0  0  0
   59.3343   26.2291   46.4918 H   0  0  0  0  0  0  0  0  0  0  0  0
   59.7390   28.2520   45.8290 C   0  0  0  0  0  0  0  0  0  0  0  0
   60.8122   28.1920   46.0629 H   0  0  0  0  0  0  0  0  0  0  0  0
   59.2090   29.4260   45.2890 C   0  0  0  0  0  0  0  0  0  0  0  0
   59.8656   30.2898   45.1082 H   0  0  0  0  0  0  0  0  0  0  0  0
   57.8400   29.5100   44.9750 C   0  0  0  0  0  0  0  0  0  0  0  0
   57.2690   30.7530   44.4050 C   0  0  0  0  0  0  0  0  0  0  0  0
   56.9300   30.7790   43.1920 O   0  0  0  0  0  0  0  0  0  0  0  0
   57.0260   31.9150   45.2100 N   0  0  0  0  0  0  0  0  0  0  0  0
   57.8830   32.8630   45.4530 C   0  0  0  0  0  0  0  0  0  0  0  0
   58.9520   32.6760   46.2530 N   0  0  0  0  0  0  0  0  0  0  0  0
   59.6930   33.8100   46.3980 C   0  0  0  0  0  0  0  0  0  0  0  0
   60.9260   33.8260   47.2290 C   0  0  0  0  0  0  0  0  0  0  0  0
   62.1660   33.4980   46.6470 C   0  0  0  0  0  0  0  0  0  0  0  0
   62.2142   33.2331   45.5805 H   0  0  0  0  0  0  0  0  0  0  0  0
   63.3360   33.5060   47.4120 C   0  0  0  0  0  0  0  0  0  0  0  0
   64.2987   33.2502   46.9454 H   0  0  0  0  0  0  0  0  0  0  0  0
   63.2850   33.8380   48.7670 C   0  0  0  0  0  0  0  0  0  0  0  0
   64.2070   33.8459   49.3669 H   0  0  0  0  0  0  0  0  0  0  0  0
   62.0630   34.1600   49.3600 C   0  0  0  0  0  0  0  0  0  0  0  0
   62.0233   34.4192   50.4283 H   0  0  0  0  0  0  0  0  0  0  0  0
   60.8890   34.1540   48.6000 C   0  0  0  0  0  0  0  0  0  0  0  0
   59.9297   34.4070   49.0752 H   0  0  0  0  0  0  0  0  0  0  0  0
   59.1950   34.9180   45.7020 C   0  0  0  0  0  0  0  0  0  0  0  0
   59.6437   35.9222   45.6840 H   0  0  0  0  0  0  0  0  0  0  0  0
   57.7930   34.4510   44.8980 S   0  0  0  0  0  0  0  0  0  0  0  0
   57.0100   28.4050   45.2360 C   0  0  0  0  0  0  0  0  0  0  0  0
   55.9355   28.4635   45.0079 H   0  0  0  0  0  0  0  0  0  0  0  0
  1  2  1  0
  2  3  1  0
  3  4  2  0
  3  5  2  0
  3  6  1  0
  6  7  2  0
  7  8  1  0
  7  9  1  0
  9 10  1  0
  9 11  2  0
 11 12  1  0
 11 13  1  0
 13 14  1  0
 14 15  2  0
 14 16  1  0
 16 17  2  0
 17 18  1  0
 18 19  1  0
 19 20  1  0
 20 21  2  0
 21 22  1  0
 21 23  1  0
 23 24  1  0
 23 25  2  0
 25 26  1  0
 25 27  1  0
 27 28  1  0
 27 29  2  0
 29 30  1  0
 19 31  2  0
 31 32  1  0
 31 33  1  0
 13 34  2  0
 34 35  1  0
 34  6  1  0
 33 17  1  0
 29 20  1  0
M  CHG  2   2  -1  18  -1
M  END
>  <UniqueID>  (75) 
70

>  <SMILES>  (75) 
[NH-]S(=O)(=O)c1cccc(C(=O)/N=c2/[n-]c(-c3ccccc3)cs2)c1

>  <Energy>  (75) 
78.68432506642372

>  <Genealogy>  (75) 
[NH-]S(=O)(=O)c1cccc(C(=O)N=c2[n-]c(-c3ccccc3)cs2)c1 (protonated)
[NH-]S(=O)(=O)c1cccc(C(=O)/N=c2/[n-]c(-c3ccccc3)cs2)c1 (cis-trans isomerization)
[NH-]S(=O)(=O)c1cccc(C(=O)/N=c2/[n-]c(-c3ccccc3)cs2)c1 (3D coordinates assigned)
[NH-]S(=O)(=O)c1cccc(C(=O)/N=c2/[n-]c(-c3ccccc3)cs2)c1 (optimized conformer: 78.68432506642372 kcal/mol)

>  <smiles>  (75) 
NS(=O)(=O)c1cccc(C(=O)N=c2[nH]c(-c3ccccc3)cs2)c1

>  <score_type>  (75) 
oracle

>  <origin>  (75) 
adg

>  <m_score__min__energy>  (75) 
-13.390000000000001

>  <m_primary>  (75) 
energy

$$$$
75:0
     RDKit          3D

 51 53  0  0  0  0  0  0  0  0999 V2000
   56.2825   29.2431   46.3706 H   0  0  0  0  0  0  0  0  0  0  0  0
   56.9810   28.5770   45.8430 C   0  0  0  0  0  0  0  0  0  0  0  0
   57.6260   29.0600   44.7660 C   0  0  0  0  0  0  0  0  0  0  0  0
   57.0980   28.8760   43.4340 C   0  0  0  0  0  0  0  0  0  0  0  0
   56.6760   28.7270   42.3660 N   0  0  0  0  0  0  0  0  0  0  0  0
   58.8530   29.8680   44.9220 C   0  0  0  0  0  0  0  0  0  0  0  0
   59.9580   29.2750   45.0410 O   0  0  0  0  0  0  0  0  0  0  0  0
   58.8420   31.3000   44.9370 N   0  0  0  0  0  0  0  0  0  0  0  0
   57.5620   32.2840   44.3070 S   0  0  0  0  0  0  0  0  0  0  0  0
   56.2390   31.6180   44.5610 O   0  0  0  0  0  0  0  0  0  0  0  0
   57.7540   32.4960   42.8320 O   0  0  0  0  0  0  0  0  0  0  0  0
   57.5780   33.8580   45.1440 C   0  0  0  0  0  0  0  0  0  0  0  0
   57.6764   34.6634   44.4013 H   0  0  0  0  0  0  0  0  0  0  0  0
   56.6387   33.9762   45.7041 H   0  0  0  0  0  0  0  0  0  0  0  0
   58.7330   33.9240   46.1040 C   0  0  0  0  0  0  0  0  0  0  0  0
   58.5080   33.8530   47.4890 C   0  0  0  0  0  0  0  0  0  0  0  0
   57.4862   33.7135   47.8716 H   0  0  0  0  0  0  0  0  0  0  0  0
   59.5780   33.9590   48.3830 C   0  0  0  0  0  0  0  0  0  0  0  0
   59.3973   33.8944   49.4661 H   0  0  0  0  0  0  0  0  0  0  0  0
   60.8770   34.1470   47.9020 C   0  0  0  0  0  0  0  0  0  0  0  0
   61.7177   34.2289   48.6066 H   0  0  0  0  0  0  0  0  0  0  0  0
   61.1080   34.2310   46.5260 C   0  0  0  0  0  0  0  0  0  0  0  0
   62.1303   34.3805   46.1484 H   0  0  0  0  0  0  0  0  0  0  0  0
   60.0400   34.1250   45.6290 C   0  0  0  0  0  0  0  0  0  0  0  0
   60.2241   34.1993   44.5471 H   0  0  0  0  0  0  0  0  0  0  0  0
   57.1570   27.1990   46.3600 C   0  0  0  0  0  0  0  0  0  0  0  0
   58.3930   26.7560   46.8850 C   0  0  0  0  0  0  0  0  0  0  0  0
   59.5620   27.6080   46.8850 N   0  0  0  0  0  0  0  0  0  0  0  0
   59.2960   28.5240   46.4540 H   0  0  0  0  0  0  0  0  0  0  0  0
   60.3290   27.2080   46.3020 H   0  0  0  0  0  0  0  0  0  0  0  0
   60.0670   27.8050   48.2250 C   0  0  0  0  0  0  0  0  0  0  0  0
   60.5780   26.7080   48.9440 C   0  0  0  0  0  0  0  0  0  0  0  0
   60.6013   25.7131   48.4753 H   0  0  0  0  0  0  0  0  0  0  0  0
   61.0560   26.8700   50.2470 C   0  0  0  0  0  0  0  0  0  0  0  0
   61.4534   26.0047   50.7978 H   0  0  0  0  0  0  0  0  0  0  0  0
   61.0300   28.1270   50.8500 C   0  0  0  0  0  0  0  0  0  0  0  0
   61.3977   28.2502   51.8794 H   0  0  0  0  0  0  0  0  0  0  0  0
   60.5380   29.2290   50.1490 C   0  0  0  0  0  0  0  0  0  0  0  0
   60.5158   30.2173   50.6315 H   0  0  0  0  0  0  0  0  0  0  0  0
   60.0720   29.0860   48.8350 C   0  0  0  0  0  0  0  0  0  0  0  0
   59.4610   30.5490   47.9800 S   0  0  0  0  0  0  0  0  0  0  0  0
   61.0650   30.9500   47.2160 C   0  0  0  0  0  0  0  0  0  0  0  0
   61.8099   31.1362   48.0036 H   0  0  0  0  0  0  0  0  0  0  0  0
   61.3947   30.1066   46.5915 H   0  0  0  0  0  0  0  0  0  0  0  0
   60.9591   31.8493   46.5915 H   0  0  0  0  0  0  0  0  0  0  0  0
   58.4630   25.5210   47.4580 N   0  0  0  0  0  0  0  0  0  0  0  0
   57.3900   24.6920   47.5000 C   0  0  0  0  0  0  0  0  0  0  0  0
   57.4980   23.5510   48.0190 O   0  0  0  0  0  0  0  0  0  0  0  0
   56.2010   25.0950   46.9890 N   0  0  0  0  0  0  0  0  0  0  0  0
   56.0570   26.3250   46.4350 C   0  0  0  0  0  0  0  0  0  0  0  0
   54.8070   26.7140   45.9690 O   0  0  0  0  0  0  0  0  0  0  0  0
  1  2  1  0
  2  3  2  0
  3  4  1  0
  4  5  3  0
  3  6  1  0
  6  7  2  0
  6  8  1  0
  8  9  1  0
  9 10  2  0
  9 11  2  0
  9 12  1  0
 12 13  1  0
 12 14  1  0
 12 15  1  0
 15 16  2  0
 16 17  1  0
 16 18  1  0
 18 19  1  0
 18 20  2  0
 20 21  1  0
 20 22  1  0
 22 23  1  0
 22 24  2  0
 24 25  1  0
  2 26  1  0
 26 27  1  0
 27 28  1  0
 28 29  1  0
 28 30  1  0
 28 31  1  0
 31 32  2  0
 32 33  1  0
 32 34  1  0
 34 35  1  0
 34 36  2  0
 36 37  1  0
 36 38  1  0
 38 39  1  0
 38 40  2  0
 40 41  1  0
 41 42  1  0
 42 43  1  0
 42 44  1  0
 42 45  1  0
 27 46  2  0
 46 47  1  0
 47 48  2  0
 47 49  1  0
 49 50  1  0
 50 51  1  0
 24 15  1  0
 50 26  2  0
 40 31  1  0
M  CHG  4   8  -1  28   1  49  -1  51  -1
M  END
>  <UniqueID>  (76) 
71

>  <SMILES>  (76) 
CSc1ccccc1[NH2+]c1nc(=O)[n-]c([O-])c1/C=C(\C#N)C(=O)[N-]S(=O)(=O)Cc1ccccc1

>  <Energy>  (76) 
62.48974762237685

>  <Genealogy>  (76) 
CSc1ccccc1[NH2+]c1nc(=O)[n-]c([O-])c1C=C(C#N)C(=O)[N-]S(=O)(=O)Cc1ccccc1 (protonated)
CSc1ccccc1[NH2+]c1nc(=O)[n-]c([O-])c1/C=C(\C#N)C(=O)[N-]S(=O)(=O)Cc1ccccc1 (cis-trans isomerization)
CSc1ccccc1[NH2+]c1nc(=O)[n-]c([O-])c1/C=C(\C#N)C(=O)[N-]S(=O)(=O)Cc1ccccc1 (3D coordinates assigned)
CSc1ccccc1[NH2+]c1nc(=O)[n-]c([O-])c1/C=C(\C#N)C(=O)[N-]S(=O)(=O)Cc1ccccc1 (optimized conformer: 62.48974762237685 kcal/mol)

>  <smiles>  (76) 
CSc1ccccc1Nc1nc(=O)[nH]c(O)c1C=C(C#N)C(=O)NS(=O)(=O)Cc1ccccc1

>  <score_type>  (76) 
oracle

>  <origin>  (76) 
adg

>  <m_score__min__energy>  (76) 
-15.48

>  <m_primary>  (76) 
energy

$$$$
76:0
     RDKit          3D

 55 59  0  0  1  0  0  0  0  0999 V2000
   57.4170   32.8650   48.0000 N   0  0  0  0  0  0  0  0  0  0  0  0
   58.0430   33.3820   46.9850 C   0  0  0  0  0  0  0  0  0  0  0  0
   58.8720   34.4390   47.1980 N   0  0  0  0  0  0  0  0  0  0  0  0
   59.5490   35.0160   46.1740 C   0  0  0  0  0  0  0  0  0  0  0  0
   59.4100   34.5500   44.9220 N   0  0  0  0  0  0  0  0  0  0  0  0
   58.5930   33.5070   44.7050 C   0  0  0  0  0  0  0  0  0  0  0  0
   58.4430   33.0230   43.4390 N   0  0  0  0  0  0  0  0  0  0  0  0
   57.6140   31.9680   43.2300 C   0  0  0  0  0  0  0  0  0  0  0  0
   56.9090   31.3450   44.2090 C   0  0  0  0  0  0  0  0  0  0  0  0
   56.0120   30.1840   44.0670 C   0  0  0  0  0  0  0  0  0  0  0  0
   56.6460   28.9190   44.1350 N   0  0  0  0  0  0  0  0  0  0  0  0
   57.5010   28.3990   45.1260 C   0  0  0  0  0  0  0  0  0  0  0  0
   57.7580   27.0750   45.3470 C   0  0  0  0  0  0  0  0  0  0  0  0
   58.6300   26.6120   46.3270 C   0  0  0  0  0  0  0  0  0  0  0  0
   59.2830   27.5040   47.1340 C   0  0  0  0  0  0  0  0  0  0  0  0
   60.3960   27.0040   48.3920 Cl  0  0  0  0  0  0  0  0  0  0  0  0
   59.0510   28.8490   46.9440 C   0  0  0  0  0  0  0  0  0  0  0  0
   59.7220   29.7980   47.7640 N   0  0  0  0  0  0  0  0  0  0  0  0
   60.3860   30.9440   47.2770 C   0  0  0  0  0  0  0  0  0  0  0  0
   60.3770   31.1310   46.0240 O   0  0  0  0  0  0  0  0  0  0  0  0
   61.0700   31.8990   48.1540 C   0  0  0  0  0  0  0  0  0  0  0  0
   62.3220   32.4070   47.8710 C   0  0  0  0  0  0  0  0  0  0  0  0
   62.9750   33.3040   48.6960 C   0  0  0  0  0  0  0  0  0  0  0  0
   62.3520   33.7170   49.8610 C   0  0  0  0  0  0  0  0  0  0  0  0
   61.1060   33.2200   50.1560 C   0  0  0  0  0  0  0  0  0  0  0  0
   60.4630   33.6720   51.4080 C   0  0  0  0  0  0  0  0  0  0  0  0
   61.2040   33.8370   52.4010 O   0  0  0  0  0  0  0  0  0  0  0  0
   59.0650   33.9100   51.4900 N   0  0  0  0  0  0  0  0  0  0  0  0
   58.3180   32.8710   51.7620 C   0  0  0  0  0  0  0  0  0  0  0  0
   57.3150   32.2380   51.1130 N   0  0  0  0  0  0  0  0  0  0  0  0
   56.7340   31.2090   51.6200 C   0  0  0  0  0  0  0  0  0  0  0  0
   57.1190   30.7080   52.8630 C   0  0  0  0  0  0  0  0  0  0  0  0
   58.4970   31.8870   53.3420 S   0  0  0  0  0  0  0  0  0  0  0  0
   60.4530   32.3120   49.3150 C   0  0  0  0  0  0  0  0  0  0  0  0
   58.1820   29.2920   45.9650 C   0  0  0  0  0  0  0  0  0  0  0  0
   57.0620   31.8330   45.4780 N   0  0  0  0  0  0  0  0  0  0  0  0
   57.8850   32.8870   45.7050 C   0  0  0  0  0  0  0  0  0  0  0  0
   56.4660   33.0900   48.3020 H   0  0  0  0  0  0  0  0  0  0  0  0
   60.2148   35.8694   46.3698 H   0  0  0  0  0  0  0  0  0  0  0  0
   59.9030   34.9520   44.0940 H   0  0  0  0  0  0  0  0  0  0  0  0
   57.5067   31.5940   42.2011 H   0  0  0  0  0  0  0  0  0  0  0  0
   55.2629   30.2326   44.8710 H   0  0  0  0  0  0  0  0  0  0  0  0
   55.5796   30.2544   43.0580 H   0  0  0  0  0  0  0  0  0  0  0  0
   56.4510   28.2530   43.3130 H   0  0  0  0  0  0  0  0  0  0  0  0
   57.2468   26.3342   44.7147 H   0  0  0  0  0  0  0  0  0  0  0  0
   58.7943   25.5317   46.4530 H   0  0  0  0  0  0  0  0  0  0  0  0
   59.6920   29.5870   48.8060 H   0  0  0  0  0  0  0  0  0  0  0  0
   62.8231   32.0833   46.9468 H   0  0  0  0  0  0  0  0  0  0  0  0
   63.9730   33.6831   48.4309 H   0  0  0  0  0  0  0  0  0  0  0  0
   62.8455   34.4299   50.5379 H   0  0  0  0  0  0  0  0  0  0  0  0
   57.0330   32.6460   50.1500 H   0  0  0  0  0  0  0  0  0  0  0  0
   55.9216   30.7169   51.0652 H   0  0  0  0  0  0  0  0  0  0  0  0
   56.7191   29.8464   53.4178 H   0  0  0  0  0  0  0  0  0  0  0  0
   59.4553   31.9310   49.5785 H   0  0  0  0  0  0  0  0  0  0  0  0
   58.0205   30.3730   45.8409 H   0  0  0  0  0  0  0  0  0  0  0  0
  1  2  2  3
  2  3  1  0
  3  4  2  0
  4  5  1  0
  5  6  1  0
  6  7  2  0
  7  8  1  0
  8  9  2  0
  9 10  1  0
 10 11  1  0
 11 12  1  0
 12 13  2  0
 13 14  1  0
 14 15  2  0
 15 16  1  0
 15 17  1  0
 17 18  1  0
 18 19  1  0
 19 20  2  0
 19 21  1  0
 21 22  2  0
 22 23  1  0
 23 24  2  0
 24 25  1  0
 25 26  1  0
 26 27  2  0
 26 28  1  0
 28 29  2  0
 29 30  1  0
 30 31  1  0
 31 32  2  0
 32 33  1  0
 25 34  2  0
 17 35  2  0
  9 36  1  0
 36 37  2  0
 37  2  1  0
 37  6  1  0
 35 12  1  0
 34 21  1  0
 33 29  1  0
  1 38  1  0
  4 39  1  0
  5 40  1  0
  8 41  1  0
 10 42  1  0
 10 43  1  0
 11 44  1  0
 13 45  1  0
 14 46  1  0
 18 47  1  0
 22 48  1  0
 23 49  1  0
 24 50  1  0
 30 51  1  0
 31 52  1  0
 32 53  1  0
 34 54  1  0
 35 55  1  0
M  END
>  <smiles>  (77) 
N=c1nc[nH]c2ncc(CNc3ccc(Cl)c(NC(=O)c4cccc(C(=O)N=c5[nH]ccs5)c4)c3)nc12

>  <score_type>  (77) 
oracle

>  <origin>  (77) 
adg

>  <m_score__min__energy>  (77) 
-9.9900000000000002

>  <m_primary>  (77) 
energy

$$$$
77:0
     RDKit          3D

 42 44  0  0  0  0  0  0  0  0999 V2000
   58.5360   25.4390   47.8860 O   0  0  0  0  0  0  0  0  0  0  0  0
   57.6850   25.6020   46.9730 C   0  0  0  0  0  0  0  0  0  0  0  0
   56.7660   24.5370   46.6880 N   0  0  0  0  0  0  0  0  0  0  0  0
   56.7250   23.7580   45.4840 C   0  0  0  0  0  0  0  0  0  0  0  0
   55.8160   24.0440   44.4460 C   0  0  0  0  0  0  0  0  0  0  0  0
   55.8050   23.2640   43.2860 C   0  0  0  0  0  0  0  0  0  0  0  0
   56.7090   22.2090   43.1420 C   0  0  0  0  0  0  0  0  0  0  0  0
   57.6330   21.9390   44.1550 C   0  0  0  0  0  0  0  0  0  0  0  0
   57.6470   22.7150   45.3180 C   0  0  0  0  0  0  0  0  0  0  0  0
   57.6170   26.8980   46.2600 C   0  0  0  0  0  0  0  0  0  0  0  0
   58.7940   27.6340   46.0400 C   0  0  0  0  0  0  0  0  0  0  0  0
   58.7410   28.8870   45.4270 C   0  0  0  0  0  0  0  0  0  0  0  0
   57.5130   29.4260   45.0270 C   0  0  0  0  0  0  0  0  0  0  0  0
   57.4390   31.0560   44.3540 S   0  0  0  0  0  0  0  0  0  0  0  0
   57.6950   30.9940   42.8740 O   0  0  0  0  0  0  0  0  0  0  0  0
   56.0600   31.6200   44.5640 O   0  0  0  0  0  0  0  0  0  0  0  0
   58.6180   32.1080   45.1030 N   0  0  0  0  0  0  0  0  0  0  0  0
   58.4690   32.1370   46.5750 C   0  0  0  0  0  0  0  0  0  0  0  0
   57.7950   33.4320   47.0630 C   0  0  0  0  0  0  0  0  0  0  0  0
   58.4990   34.6080   46.6890 O   0  0  0  0  0  0  0  0  0  0  0  0
   59.1770   34.5000   45.4420 C   0  0  0  0  0  0  0  0  0  0  0  0
   58.5740   33.4520   44.4930 C   0  0  0  0  0  0  0  0  0  0  0  0
   56.3410   28.6780   45.2030 C   0  0  0  0  0  0  0  0  0  0  0  0
   56.3850   27.4200   45.8190 C   0  0  0  0  0  0  0  0  0  0  0  0
   55.2050   26.7030   46.0170 O   0  0  0  0  0  0  0  0  0  0  0  0
   55.1129   24.8837   44.5488 H   0  0  0  0  0  0  0  0  0  0  0  0
   55.0830   23.4815   42.4851 H   0  0  0  0  0  0  0  0  0  0  0  0
   56.6936   21.5912   42.2320 H   0  0  0  0  0  0  0  0  0  0  0  0
   58.3510   21.1140   44.0371 H   0  0  0  0  0  0  0  0  0  0  0  0
   58.3850   22.5061   46.1065 H   0  0  0  0  0  0  0  0  0  0  0  0
   59.7637   27.2197   46.3531 H   0  0  0  0  0  0  0  0  0  0  0  0
   59.6687   29.4533   45.2576 H   0  0  0  0  0  0  0  0  0  0  0  0
   57.8556   31.2787   46.8865 H   0  0  0  0  0  0  0  0  0  0  0  0
   59.4746   32.0905   47.0184 H   0  0  0  0  0  0  0  0  0  0  0  0
   56.7824   33.4807   46.6360 H   0  0  0  0  0  0  0  0  0  0  0  0
   57.7804   33.3971   48.1623 H   0  0  0  0  0  0  0  0  0  0  0  0
   59.1421   35.4797   44.9430 H   0  0  0  0  0  0  0  0  0  0  0  0
   60.2041   34.1752   45.6645 H   0  0  0  0  0  0  0  0  0  0  0  0
   57.5281   33.7175   44.2797 H   0  0  0  0  0  0  0  0  0  0  0  0
   59.1616   33.4375   43.5632 H   0  0  0  0  0  0  0  0  0  0  0  0
   55.3788   29.0816   44.8548 H   0  0  0  0  0  0  0  0  0  0  0  0
   55.1230   26.0030   46.7450 H   0  0  0  0  0  0  0  0  0  0  0  0
  1  2  2  0
  2  3  1  0
  3  4  1  0
  4  5  2  0
  5  6  1  0
  6  7  2  0
  7  8  1  0
  8  9  2  0
  2 10  1  0
 10 11  2  0
 11 12  1  0
 12 13  2  0
 13 14  1  0
 14 15  2  0
 14 16  2  0
 14 17  1  0
 17 18  1  0
 18 19  1  0
 19 20  1  0
 20 21  1  0
 21 22  1  0
 13 23  1  0
 23 24  2  0
 24 25  1  0
  9  4  1  0
 24 10  1  0
 22 17  1  0
  5 26  1  0
  6 27  1  0
  7 28  1  0
  8 29  1  0
  9 30  1  0
 11 31  1  0
 12 32  1  0
 18 33  1  0
 18 34  1  0
 19 35  1  0
 19 36  1  0
 21 37  1  0
 21 38  1  0
 22 39  1  0
 22 40  1  0
 23 41  1  0
 25 42  1  0
M  CHG  1   3  -1
M  END
>  <UniqueID>  (78) 
72

>  <SMILES>  (78) 
O=C([N-]c1ccccc1)c1ccc(S(=O)(=O)N2CCOCC2)cc1O

>  <Energy>  (78) 
61.643208540394426

>  <Genealogy>  (78) 
O=C([N-]c1ccccc1)c1ccc(S(=O)(=O)N2CCOCC2)cc1O (protonated)
O=C([N-]c1ccccc1)c1ccc(S(=O)(=O)N2CCOCC2)cc1O (3D coordinates assigned)
O=C([N-]c1ccccc1)c1ccc(S(=O)(=O)N2CCOCC2)cc1O (nonaromatic ring conformer: 61.643208540394426 kcal/mol)

>  <smiles>  (78) 
O=C(Nc1ccccc1)c1ccc(S(=O)(=O)N2CCOCC2)cc1O

>  <score_type>  (78) 
oracle

>  <origin>  (78) 
adg

>  <m_score__min__energy>  (78) 
-10.98

>  <m_primary>  (78) 
energy

$$$$
78:0
     RDKit          3D

 61 64  0  0  0  0  0  0  0  0999 V2000
   59.7653   35.0895   47.7725 H   0  0  0  0  0  0  0  0  0  0  0  0
   60.0140   34.1580   48.3020 C   0  0  0  0  0  0  0  0  0  0  0  0
   60.5510   34.2140   49.5430 N   0  0  0  0  0  0  0  0  0  0  0  0
   60.8850   33.1000   50.2500 C   0  0  0  0  0  0  0  0  0  0  0  0
   61.3910   33.2230   51.4450 N   0  0  0  0  0  0  0  0  0  0  0  0
   62.7870   33.5370   51.7440 C   0  0  0  0  0  0  0  0  0  0  0  0
   63.3171   32.6065   51.9952 H   0  0  0  0  0  0  0  0  0  0  0  0
   62.8100   34.2402   52.5896 H   0  0  0  0  0  0  0  0  0  0  0  0
   63.4810   34.1990   50.5470 C   0  0  0  0  0  0  0  0  0  0  0  0
   64.1561   34.9879   50.9101 H   0  0  0  0  0  0  0  0  0  0  0  0
   62.7162   34.6316   49.8852 H   0  0  0  0  0  0  0  0  0  0  0  0
   64.2650   33.1970   49.7860 N   0  0  0  0  0  0  0  0  0  0  0  0
   63.7730   33.0700   48.4030 C   0  0  0  0  0  0  0  0  0  0  0  0
   62.7080   32.7951   48.4165 H   0  0  0  0  0  0  0  0  0  0  0  0
   63.8974   34.0297   47.8800 H   0  0  0  0  0  0  0  0  0  0  0  0
   64.3463   32.2904   47.8800 H   0  0  0  0  0  0  0  0  0  0  0  0
   64.2210   31.8820   50.4430 C   0  0  0  0  0  0  0  0  0  0  0  0
   64.2255   32.0172   51.5347 H   0  0  0  0  0  0  0  0  0  0  0  0
   63.3046   31.3526   50.1429 H   0  0  0  0  0  0  0  0  0  0  0  0
   65.0999   31.2926   50.1429 H   0  0  0  0  0  0  0  0  0  0  0  0
   60.6780   31.8190   49.6750 C   0  0  0  0  0  0  0  0  0  0  0  0
   60.9900   30.6060   50.3370 C   0  0  0  0  0  0  0  0  0  0  0  0
   61.4670   30.6190   51.5070 O   0  0  0  0  0  0  0  0  0  0  0  0
   60.7780   29.4070   49.7130 N   0  0  0  0  0  0  0  0  0  0  0  0
   61.1110   28.1470   50.3910 C   0  0  0  0  0  0  0  0  0  0  0  0
   61.0718   28.2953   51.4803 H   0  0  0  0  0  0  0  0  0  0  0  0
   60.3869   27.3717   50.1002 H   0  0  0  0  0  0  0  0  0  0  0  0
   62.1236   27.8306   50.1002 H   0  0  0  0  0  0  0  0  0  0  0  0
   60.3070   29.3730   48.4350 C   0  0  0  0  0  0  0  0  0  0  0  0
   60.1880   28.4053   47.9256 H   0  0  0  0  0  0  0  0  0  0  0  0
   59.9830   30.5170   47.7830 N   0  0  0  0  0  0  0  0  0  0  0  0
   59.6360   30.4240   46.8030 H   0  0  0  0  0  0  0  0  0  0  0  0
   60.1300   31.7390   48.3710 C   0  0  0  0  0  0  0  0  0  0  0  0
   59.7730   32.9260   47.6880 C   0  0  0  0  0  0  0  0  0  0  0  0
   59.1080   32.9160   46.3660 C   0  0  0  0  0  0  0  0  0  0  0  0
   59.4850   33.8350   45.3760 C   0  0  0  0  0  0  0  0  0  0  0  0
   60.3060   34.5417   45.5673 H   0  0  0  0  0  0  0  0  0  0  0  0
   58.8200   33.8550   44.1470 C   0  0  0  0  0  0  0  0  0  0  0  0
   59.1203   34.5758   43.3722 H   0  0  0  0  0  0  0  0  0  0  0  0
   57.7740   32.9610   43.9000 C   0  0  0  0  0  0  0  0  0  0  0  0
   57.2495   32.9866   42.9334 H   0  0  0  0  0  0  0  0  0  0  0  0
   57.3900   32.0330   44.8760 C   0  0  0  0  0  0  0  0  0  0  0  0
   56.2870   31.1570   44.6060 N   0  0  0  0  0  0  0  0  0  0  0  0
   56.2730   29.7390   44.8190 C   0  0  0  0  0  0  0  0  0  0  0  0
   55.1760   29.1260   44.7450 O   0  0  0  0  0  0  0  0  0  0  0  0
   57.5180   28.9770   45.0680 C   0  0  0  0  0  0  0  0  0  0  0  0
   58.7100   29.3220   44.4080 C   0  0  0  0  0  0  0  0  0  0  0  0
   58.7241   30.1747   43.7133 H   0  0  0  0  0  0  0  0  0  0  0  0
   59.8750   28.5880   44.6300 C   0  0  0  0  0  0  0  0  0  0  0  0
   60.8024   28.8593   44.1044 H   0  0  0  0  0  0  0  0  0  0  0  0
   59.8680   27.5090   45.5180 C   0  0  0  0  0  0  0  0  0  0  0  0
   60.7893   26.9310   45.6828 H   0  0  0  0  0  0  0  0  0  0  0  0
   58.6930   27.1580   46.2010 C   0  0  0  0  0  0  0  0  0  0  0  0
   58.7100   25.9800   47.1420 C   0  0  0  0  0  0  0  0  0  0  0  0
   57.4170   25.7010   47.5470 F   0  0  0  0  0  0  0  0  0  0  0  0
   59.4840   26.2360   48.2630 F   0  0  0  0  0  0  0  0  0  0  0  0
   59.2300   24.8710   46.4980 F   0  0  0  0  0  0  0  0  0  0  0  0
   57.5130   27.8820   45.9510 C   0  0  0  0  0  0  0  0  0  0  0  0
   56.5778   27.5891   46.4506 H   0  0  0  0  0  0  0  0  0  0  0  0
   58.0490   32.0280   46.1190 C   0  0  0  0  0  0  0  0  0  0  0  0
   57.7324   31.3237   46.9024 H   0  0  0  0  0  0  0  0  0  0  0  0
  1  2  1  0
  2  3  1  0
  3  4  1  0
  4  5  2  0
  5  6  1  0
  6  7  1  0
  6  8  1  0
  6  9  1  0
  9 10  1  0
  9 11  1  0
  9 12  1  0
 12 13  1  0
 13 14  1  0
 13 15  1  0
 13 16  1  0
 12 17  1  0
 17 18  1  0
 17 19  1  0
 17 20  1  0
  4 21  1  0
 21 22  1  0
 22 23  2  0
 22 24  1  0
 24 25  1  0
 25 26  1  0
 25 27  1  0
 25 28  1  0
 24 29  1  0
 29 30  1  0
 29 31  2  0
 31 32  1  0
 31 33  1  0
 33 34  1  0
 34 35  1  0
 35 36  2  0
 36 37  1  0
 36 38  1  0
 38 39  1  0
 38 40  2  0
 40 41  1  0
 40 42  1  0
 42 43  1  0
 43 44  1  0
 44 45  2  0
 44 46  1  0
 46 47  2  0
 47 48  1  0
 47 49  1  0
 49 50  1  0
 49 51  2  0
 51 52  1  0
 51 53  1  0
 53 54  1  0
 54 55  1  0
 54 56  1  0
 54 57  1  0
 53 58  2  0
 58 59  1  0
 42 60  2  0
 60 61  1  0
 34  2  2  0
 60 35  1  0
 33 21  2  0
 58 46  1  0
M  CHG  3   3  -1  31   1  43  -1
M  END
>  <UniqueID>  (79) 
73

>  <SMILES>  (79) 
CN(C)CC/N=c1\[n-]cc(-c2cccc([N-]C(=O)c3cccc(C(F)(F)F)c3)c2)c2[nH+]cn(C)c(=O)c12

>  <Energy>  (79) 
86.61777441506092

>  <Genealogy>  (79) 
CN(C)CCN=c1[n-]cc(-c2cccc([N-]C(=O)c3cccc(C(F)(F)F)c3)c2)c2[nH+]cn(C)c(=O)c12 (protonated)
CN(C)CC/N=c1\[n-]cc(-c2cccc([N-]C(=O)c3cccc(C(F)(F)F)c3)c2)c2[nH+]cn(C)c(=O)c12 (cis-trans isomerization)
CN(C)CC/N=c1\[n-]cc(-c2cccc([N-]C(=O)c3cccc(C(F)(F)F)c3)c2)c2[nH+]cn(C)c(=O)c12 (3D coordinates assigned)
CN(C)CC/N=c1\[n-]cc(-c2cccc([N-]C(=O)c3cccc(C(F)(F)F)c3)c2)c2[nH+]cn(C)c(=O)c12 (optimized conformer: 86.61777441506092 kcal/mol)

>  <smiles>  (79) 
CN(C)CCN=c1[nH]cc(-c2cccc(NC(=O)c3cccc(C(F)(F)F)c3)c2)c2ncn(C)c(=O)c12

>  <score_type>  (79) 
oracle

>  <origin>  (79) 
adg

>  <m_score__min__energy>  (79) 
-10.31

>  <m_primary>  (79) 
energy

$$$$
79:0
     RDKit          3D

 38 39  0  0  0  0  0  0  0  0999 V2000
   58.4400   25.7380   47.4510 C   0  0  0  0  0  0  0  0  0  0  0  0
   57.7990   25.8310   46.2820 C   0  0  0  0  0  0  0  0  0  0  0  0
   57.3640   24.5790   45.5750 C   0  0  0  0  0  0  0  0  0  0  0  0
   57.4500   27.1620   45.7220 C   0  0  0  0  0  0  0  0  0  0  0  0
   56.1040   27.5590   45.5940 C   0  0  0  0  0  0  0  0  0  0  0  0
   55.0730   26.7170   45.9980 O   0  0  0  0  0  0  0  0  0  0  0  0
   55.7970   28.7850   45.0940 N   0  0  0  0  0  0  0  0  0  0  0  0
   56.7540   29.6690   44.7040 C   0  0  0  0  0  0  0  0  0  0  0  0
   56.3520   31.0130   44.1770 C   0  0  0  0  0  0  0  0  0  0  0  0
   57.4240   31.9280   44.3310 O   0  0  0  0  0  0  0  0  0  0  0  0
   57.3670   32.6100   45.5700 C   0  0  0  0  0  0  0  0  0  0  0  0
   58.1280   33.9450   45.5240 C   0  0  0  0  0  0  0  0  0  0  0  0
   59.2950   33.9640   46.4800 C   0  0  0  0  0  0  0  0  0  0  0  0
   59.0850   34.1730   47.8540 C   0  0  0  0  0  0  0  0  0  0  0  0
   60.1680   34.2080   48.7370 C   0  0  0  0  0  0  0  0  0  0  0  0
   61.4700   34.0290   48.2570 C   0  0  0  0  0  0  0  0  0  0  0  0
   62.5460   34.0690   49.1360 O   0  0  0  0  0  0  0  0  0  0  0  0
   61.6870   33.8070   46.8950 C   0  0  0  0  0  0  0  0  0  0  0  0
   60.6050   33.7680   46.0100 C   0  0  0  0  0  0  0  0  0  0  0  0
   58.1040   29.3150   44.8050 C   0  0  0  0  0  0  0  0  0  0  0  0
   58.4550   28.0640   45.3180 C   0  0  0  0  0  0  0  0  0  0  0  0
   59.6730   27.7520   45.4000 O   0  0  0  0  0  0  0  0  0  0  0  0
   58.7622   26.6496   47.9756 H   0  0  0  0  0  0  0  0  0  0  0  0
   58.6454   24.7499   47.8885 H   0  0  0  0  0  0  0  0  0  0  0  0
   57.0976   23.8123   46.3175 H   0  0  0  0  0  0  0  0  0  0  0  0
   56.4895   24.7987   44.9449 H   0  0  0  0  0  0  0  0  0  0  0  0
   58.1863   24.2092   44.9449 H   0  0  0  0  0  0  0  0  0  0  0  0
   56.0962   30.9259   43.1107 H   0  0  0  0  0  0  0  0  0  0  0  0
   55.4790   31.3776   44.7382 H   0  0  0  0  0  0  0  0  0  0  0  0
   56.3141   32.8090   45.8185 H   0  0  0  0  0  0  0  0  0  0  0  0
   57.8403   31.9734   46.3321 H   0  0  0  0  0  0  0  0  0  0  0  0
   58.5033   34.1048   44.5024 H   0  0  0  0  0  0  0  0  0  0  0  0
   57.4320   34.7431   45.8218 H   0  0  0  0  0  0  0  0  0  0  0  0
   58.0628   34.3098   48.2365 H   0  0  0  0  0  0  0  0  0  0  0  0
   59.9965   34.3765   49.8104 H   0  0  0  0  0  0  0  0  0  0  0  0
   62.7103   33.6627   46.5182 H   0  0  0  0  0  0  0  0  0  0  0  0
   60.7801   33.5829   44.9399 H   0  0  0  0  0  0  0  0  0  0  0  0
   58.8853   30.0186   44.4819 H   0  0  0  0  0  0  0  0  0  0  0  0
  1  2  2  0
  2  3  1  0
  2  4  1  0
  4  5  2  0
  5  6  1  0
  5  7  1  0
  7  8  1  0
  8  9  1  0
  9 10  1  0
 10 11  1  0
 11 12  1  0
 12 13  1  0
 13 14  2  0
 14 15  1  0
 15 16  2  0
 16 17  1  0
 16 18  1  0
 18 19  2  0
  8 20  2  0
 20 21  1  0
 21 22  2  0
 21  4  1  0
 19 13  1  0
  1 23  1  0
  1 24  1  0
  3 25  1  0
  3 26  1  0
  3 27  1  0
  9 28  1  0
  9 29  1  0
 11 30  1  0
 11 31  1  0
 12 32  1  0
 12 33  1  0
 14 34  1  0
 15 35  1  0
 18 36  1  0
 19 37  1  0
 20 38  1  0
M  CHG  3   6  -1   7  -1  17  -1
M  END
>  <UniqueID>  (80) 
74

>  <SMILES>  (80) 
C=C(C)c1c([O-])[n-]c(COCCc2ccc([O-])cc2)cc1=O

>  <Energy>  (80) 
43.42844153831519

>  <Genealogy>  (80) 
C=C(C)c1c([O-])[n-]c(COCCc2ccc([O-])cc2)cc1=O (protonated)
C=C(C)c1c([O-])[n-]c(COCCc2ccc([O-])cc2)cc1=O (3D coordinates assigned)
C=C(C)c1c([O-])[n-]c(COCCc2ccc([O-])cc2)cc1=O (optimized conformer: 43.42844153831519 kcal/mol)

>  <smiles>  (80) 
C=C(C)c1c(O)[nH]c(COCCc2ccc(O)cc2)cc1=O

>  <score_type>  (80) 
oracle

>  <origin>  (80) 
adg

>  <m_score__min__energy>  (80) 
-13.880000000000001

>  <m_primary>  (80) 
energy

$$$$
80:0
     RDKit          3D

 71 75  0  0  0  0  0  0  0  0999 V2000
   57.4040   31.6850   42.5200 C   0  0  0  0  0  0  0  0  0  0  0  0
   57.7940   31.9960   43.9390 C   0  0  0  0  0  0  0  0  0  0  0  0
   57.6860   33.3160   44.4040 C   0  0  0  0  0  0  0  0  0  0  0  0
   58.0340   33.6360   45.7190 C   0  0  0  0  0  0  0  0  0  0  0  0
   58.5050   32.6440   46.5930 C   0  0  0  0  0  0  0  0  0  0  0  0
   58.8680   32.9800   47.9910 C   0  0  0  0  0  0  0  0  0  0  0  0
   59.9220   33.8730   48.2560 C   0  0  0  0  0  0  0  0  0  0  0  0
   60.2690   34.1800   49.5770 C   0  0  0  0  0  0  0  0  0  0  0  0
   59.5780   33.5930   50.6420 C   0  0  0  0  0  0  0  0  0  0  0  0
   58.5290   32.6980   50.3930 C   0  0  0  0  0  0  0  0  0  0  0  0
   57.8250   32.0950   51.4850 N   0  0  0  0  0  0  0  0  0  0  0  0
   58.1770   32.3950   49.0680 C   0  0  0  0  0  0  0  0  0  0  0  0
   58.6090   31.3230   46.1330 C   0  0  0  0  0  0  0  0  0  0  0  0
   58.2280   30.9870   44.8270 C   0  0  0  0  0  0  0  0  0  0  0  0
   58.2840   29.6120   44.4300 N   0  0  0  0  0  0  0  0  0  0  0  0
   57.2220   28.6900   44.6970 C   0  0  0  0  0  0  0  0  0  0  0  0
   56.1650   29.0800   45.2640 O   0  0  0  0  0  0  0  0  0  0  0  0
   57.3980   27.2340   44.3760 C   0  0  0  0  0  0  0  0  0  0  0  0
   57.6340   26.4030   45.6520 C   0  0  2  0  0  0  0  0  0  0  0  0
   56.3340   26.1310   46.3580 C   0  0  0  0  0  0  0  0  0  0  0  0
   55.2800   26.7210   45.9960 O   0  0  0  0  0  0  0  0  0  0  0  0
   56.2950   25.1770   47.4250 N   0  0  0  0  0  0  0  0  0  0  0  0
   55.8990   23.7870   47.2370 C   0  0  0  0  0  0  0  0  0  0  0  0
   56.1250   23.3820   45.8060 C   0  0  0  0  0  0  0  0  0  0  0  0
   55.1370   23.6470   44.8410 C   0  0  0  0  0  0  0  0  0  0  0  0
   55.3640   23.3310   43.4980 C   0  0  0  0  0  0  0  0  0  0  0  0
   56.5770   22.7530   43.1090 C   0  0  0  0  0  0  0  0  0  0  0  0
   57.5640   22.4880   44.0620 C   0  0  0  0  0  0  0  0  0  0  0  0
   57.3430   22.8030   45.4060 C   0  0  0  0  0  0  0  0  0  0  0  0
   58.5770   27.0650   46.5600 N   0  0  0  0  0  0  0  0  0  0  0  0
   58.2990   27.9860   47.5010 C   0  0  0  0  0  0  0  0  0  0  0  0
   59.5040   28.3160   48.0820 C   0  0  0  0  0  0  0  0  0  0  0  0
   59.7250   29.2890   49.1960 C   0  0  0  0  0  0  0  0  0  0  0  0
   60.8380   30.2390   48.8360 C   0  0  0  0  0  0  0  0  0  0  0  0
   61.6290   30.8190   49.8420 C   0  0  0  0  0  0  0  0  0  0  0  0
   62.7130   31.6310   49.5000 C   0  0  0  0  0  0  0  0  0  0  0  0
   63.0190   31.8640   48.1580 C   0  0  0  0  0  0  0  0  0  0  0  0
   62.2390   31.2850   47.1500 C   0  0  0  0  0  0  0  0  0  0  0  0
   61.1560   30.4710   47.4850 C   0  0  0  0  0  0  0  0  0  0  0  0
   60.4760   27.6000   47.4840 N   0  0  0  0  0  0  0  0  0  0  0  0
   59.8840   26.8480   46.5650 N   0  0  0  0  0  0  0  0  0  0  0  0
   56.5440   30.9992   42.5180 H   0  0  0  0  0  0  0  0  0  0  0  0
   57.1314   32.6164   42.0021 H   0  0  0  0  0  0  0  0  0  0  0  0
   58.2514   31.2120   42.0021 H   0  0  0  0  0  0  0  0  0  0  0  0
   57.3246   34.1048   43.7279 H   0  0  0  0  0  0  0  0  0  0  0  0
   57.9380   34.6734   46.0719 H   0  0  0  0  0  0  0  0  0  0  0  0
   60.4751   34.3314   47.4229 H   0  0  0  0  0  0  0  0  0  0  0  0
   61.0884   34.8857   49.7782 H   0  0  0  0  0  0  0  0  0  0  0  0
   59.8588   33.8346   51.6778 H   0  0  0  0  0  0  0  0  0  0  0  0
   56.7830   32.1540   51.5520 H   0  0  0  0  0  0  0  0  0  0  0  0
   58.3400   31.6330   52.2680 H   0  0  0  0  0  0  0  0  0  0  0  0
   57.3531   31.6936   48.8700 H   0  0  0  0  0  0  0  0  0  0  0  0
   58.9940   30.5419   46.8051 H   0  0  0  0  0  0  0  0  0  0  0  0
   56.4922   26.8664   43.8716 H   0  0  0  0  0  0  0  0  0  0  0  0
   58.2777   27.1264   43.7244 H   0  0  0  0  0  0  0  0  0  0  0  0
   58.0774   25.4446   45.3440 H   0  0  0  0  0  0  0  0  0  0  0  0
   56.4989   23.1438   47.8977 H   0  0  0  0  0  0  0  0  0  0  0  0
   54.8322   23.6770   47.4815 H   0  0  0  0  0  0  0  0  0  0  0  0
   54.1832   24.1040   45.1435 H   0  0  0  0  0  0  0  0  0  0  0  0
   54.5877   23.5372   42.7464 H   0  0  0  0  0  0  0  0  0  0  0  0
   56.7541   22.5068   42.0516 H   0  0  0  0  0  0  0  0  0  0  0  0
   58.5161   22.0310   43.7543 H   0  0  0  0  0  0  0  0  0  0  0  0
   58.1239   22.5975   46.1530 H   0  0  0  0  0  0  0  0  0  0  0  0
   57.3093   28.3933   47.7551 H   0  0  0  0  0  0  0  0  0  0  0  0
   58.8009   29.8596   49.3702 H   0  0  0  0  0  0  0  0  0  0  0  0
   60.0004   28.7384   50.1076 H   0  0  0  0  0  0  0  0  0  0  0  0
   61.3943   30.6334   50.9005 H   0  0  0  0  0  0  0  0  0  0  0  0
   63.3270   32.0879   50.2901 H   0  0  0  0  0  0  0  0  0  0  0  0
   63.8739   32.5032   47.8924 H   0  0  0  0  0  0  0  0  0  0  0  0
   62.4799   31.4718   46.0931 H   0  0  0  0  0  0  0  0  0  0  0  0
   60.5498   30.0099   46.6914 H   0  0  0  0  0  0  0  0  0  0  0  0
  1  2  1  0
  2  3  2  0
  3  4  1  0
  4  5  2  0
  5  6  1  0
  6  7  2  0
  7  8  1  0
  8  9  2  0
  9 10  1  0
 10 11  1  0
 10 12  2  0
  5 13  1  0
 13 14  2  0
 14 15  1  0
 15 16  1  0
 16 17  2  0
 16 18  1  0
 18 19  1  0
 19 20  1  0
 20 21  2  0
 20 22  1  0
 22 23  1  0
 23 24  1  0
 24 25  2  0
 25 26  1  0
 26 27  2  0
 27 28  1  0
 28 29  2  0
 19 30  1  0
 30 31  1  0
 31 32  2  0
 32 33  1  0
 33 34  1  0
 34 35  2  0
 35 36  1  0
 36 37  2  0
 37 38  1  0
 38 39  2  0
 32 40  1  0
 40 41  2  0
 14  2  1  0
 29 24  1  0
 41 30  1  0
 12  6  1  0
 39 34  1  0
  1 42  1  0
  1 43  1  0
  1 44  1  0
  3 45  1  0
  4 46  1  0
  7 47  1  0
  8 48  1  0
  9 49  1  0
 11 50  1  0
 11 51  1  0
 12 52  1  0
 13 53  1  0
 18 54  1  0
 18 55  1  0
 19 56  1  6
 23 57  1  0
 23 58  1  0
 25 59  1  0
 26 60  1  0
 27 61  1  0
 28 62  1  0
 29 63  1  0
 31 64  1  0
 33 65  1  0
 33 66  1  0
 35 67  1  0
 36 68  1  0
 37 69  1  0
 38 70  1  0
 39 71  1  0
M  CHG  2  15  -1  22  -1
M  END
>  <UniqueID>  (81) 
75

>  <SMILES>  (81) 
Cc1ccc(-c2cccc(N)c2)cc1[N-]C(=O)C[C@H](C(=O)[N-]Cc1ccccc1)n1cc(Cc2ccccc2)nn1

>  <Energy>  (81) 
115.9717893881221

>  <Genealogy>  (81) 
Cc1ccc(-c2cccc(N)c2)cc1[N-]C(=O)CC(C(=O)[N-]Cc1ccccc1)n1cc(Cc2ccccc2)nn1 (protonated)
Cc1ccc(-c2cccc(N)c2)cc1[N-]C(=O)C[C@H](C(=O)[N-]Cc1ccccc1)n1cc(Cc2ccccc2)nn1 (chirality)
Cc1ccc(-c2cccc(N)c2)cc1[N-]C(=O)C[C@H](C(=O)[N-]Cc1ccccc1)n1cc(Cc2ccccc2)nn1 (3D coordinates assigned)
Cc1ccc(-c2cccc(N)c2)cc1[N-]C(=O)C[C@H](C(=O)[N-]Cc1ccccc1)n1cc(Cc2ccccc2)nn1 (optimized conformer: 115.9717893881221 kcal/mol)

>  <smiles>  (81) 
Cc1ccc(-c2cccc(N)c2)cc1NC(=O)CC(C(=O)NCc1ccccc1)n1cc(Cc2ccccc2)nn1

>  <score_type>  (81) 
oracle

>  <origin>  (81) 
adg

>  <m_score__min__energy>  (81) 
-13.92

>  <m_primary>  (81) 
energy

$$$$
81:0
     RDKit          3D

 30 31  0  0  0  0  0  0  0  0999 V2000
   59.9640   29.0060   46.1470 N   0  0  0  0  0  0  0  0  0  0  0  0
   58.9330   28.7970   45.6640 C   0  0  0  0  0  0  0  0  0  0  0  0
   57.6490   28.5370   45.0620 C   0  0  0  0  0  0  0  0  0  0  0  0
   57.3780   27.2920   44.6340 C   0  0  0  0  0  0  0  0  0  0  0  0
   57.1010   26.1280   45.5040 C   0  0  0  0  0  0  0  0  0  0  0  0
   58.1990   24.9470   46.0120 S   0  0  0  0  0  0  0  0  0  0  0  0
   57.0750   24.2020   47.0110 C   0  0  0  0  0  0  0  0  0  0  0  0
   57.3090   23.1790   47.7050 O   0  0  0  0  0  0  0  0  0  0  0  0
   55.8790   24.8260   47.0010 N   0  0  0  0  0  0  0  0  0  0  0  0
   55.8970   25.9020   46.1710 C   0  0  0  0  0  0  0  0  0  0  0  0
   54.7810   26.7140   46.0120 O   0  0  0  0  0  0  0  0  0  0  0  0
   56.6520   29.6250   45.0620 C   0  0  0  0  0  0  0  0  0  0  0  0
   55.4400   29.3520   44.8500 O   0  0  0  0  0  0  0  0  0  0  0  0
   57.0210   30.9880   45.3040 N   0  0  0  0  0  0  0  0  0  0  0  0
   57.8780   31.7780   44.4250 C   0  0  0  0  0  0  0  0  0  0  0  0
   58.5190   32.9480   45.1430 C   0  0  0  0  0  0  0  0  0  0  0  0
   58.6570   34.2080   44.5190 C   0  0  0  0  0  0  0  0  0  0  0  0
   59.2540   35.2760   45.1920 C   0  0  0  0  0  0  0  0  0  0  0  0
   59.7290   35.1060   46.4920 C   0  0  0  0  0  0  0  0  0  0  0  0
   59.6170   33.8650   47.1200 C   0  0  0  0  0  0  0  0  0  0  0  0
   59.0250   32.7830   46.4570 C   0  0  0  0  0  0  0  0  0  0  0  0
   58.9620   31.5600   47.1300 O   0  0  0  0  0  0  0  0  0  0  0  0
   57.3608   27.1248   43.5469 H   0  0  0  0  0  0  0  0  0  0  0  0
   58.6724   31.1284   44.0288 H   0  0  0  0  0  0  0  0  0  0  0  0
   57.2491   32.1830   43.6185 H   0  0  0  0  0  0  0  0  0  0  0  0
   58.2901   34.3493   43.4917 H   0  0  0  0  0  0  0  0  0  0  0  0
   59.3497   36.2531   44.6958 H   0  0  0  0  0  0  0  0  0  0  0  0
   60.1923   35.9508   47.0228 H   0  0  0  0  0  0  0  0  0  0  0  0
   59.9968   33.7356   48.1442 H   0  0  0  0  0  0  0  0  0  0  0  0
   58.6730   30.6970   46.6890 H   0  0  0  0  0  0  0  0  0  0  0  0
  1  2  3  0
  2  3  1  0
  3  4  2  3
  4  5  1  0
  5  6  1  0
  6  7  1  0
  7  8  2  0
  7  9  1  0
  9 10  1  0
 10 11  1  0
  3 12  1  0
 12 13  2  0
 12 14  1  0
 14 15  1  0
 15 16  1  0
 16 17  2  0
 17 18  1  0
 18 19  2  0
 19 20  1  0
 20 21  2  0
 21 22  1  0
 10  5  2  0
 21 16  1  0
  4 23  1  0
 15 24  1  0
 15 25  1  0
 17 26  1  0
 18 27  1  0
 19 28  1  0
 20 29  1  0
 22 30  1  0
M  CHG  3   9  -1  11  -1  14  -1
M  END
>  <UniqueID>  (82) 
76

>  <SMILES>  (82) 
N#CC(=Cc1sc(=O)[n-]c1[O-])C(=O)[N-]Cc1ccccc1O

>  <Energy>  (82) 
71.6133020106697

>  <Genealogy>  (82) 
N#CC(=Cc1sc(=O)[n-]c1[O-])C(=O)[N-]Cc1ccccc1O (protonated)
N#CC(=Cc1sc(=O)[n-]c1[O-])C(=O)[N-]Cc1ccccc1O (3D coordinates assigned)
N#CC(=Cc1sc(=O)[n-]c1[O-])C(=O)[N-]Cc1ccccc1O (optimized conformer: 71.6133020106697 kcal/mol)

>  <smiles>  (82) 
N#CC(=Cc1sc(=O)[nH]c1O)C(=O)NCc1ccccc1O

>  <score_type>  (82) 
oracle

>  <origin>  (82) 
adg

>  <m_score__min__energy>  (82) 
-14.81

>  <m_primary>  (82) 
energy

$$$$
82:0
     RDKit          3D

 43 45  0  0  0  0  0  0  0  0999 V2000
   58.9570   33.2170   47.0230 C   0  0  0  0  0  0  0  0  0  0  0  0
   58.4360   32.2210   46.0710 N   0  0  0  0  0  0  0  0  0  0  0  0
   57.2860   32.4740   45.3670 C   0  0  0  0  0  0  0  0  0  0  0  0
   56.6480   33.5480   45.5360 O   0  0  0  0  0  0  0  0  0  0  0  0
   56.8160   31.5680   44.4740 N   0  0  0  0  0  0  0  0  0  0  0  0
   57.4710   30.4070   44.2260 C   0  0  0  0  0  0  0  0  0  0  0  0
   56.9480   29.5050   43.3030 O   0  0  0  0  0  0  0  0  0  0  0  0
   58.6750   30.1350   44.8810 C   0  0  0  0  0  0  0  0  0  0  0  0
   59.3960   28.8730   44.5960 C   0  0  0  0  0  0  0  0  0  0  0  0
   59.5380   27.8570   45.4640 C   0  0  0  0  0  0  0  0  0  0  0  0
   58.4670   26.9120   45.8550 C   0  0  0  0  0  0  0  0  0  0  0  0
   58.8210   25.6730   46.4060 C   0  0  0  0  0  0  0  0  0  0  0  0
   57.8350   24.7640   46.7960 C   0  0  0  0  0  0  0  0  0  0  0  0
   56.4720   25.0890   46.6610 C   0  0  0  0  0  0  0  0  0  0  0  0
   55.4430   24.2080   47.0360 O   0  0  0  0  0  0  0  0  0  0  0  0
   54.6570   23.4250   46.1370 C   0  0  0  0  0  0  0  0  0  0  0  0
   55.5110   22.8570   45.0340 C   0  0  0  0  0  0  0  0  0  0  0  0
   56.0350   21.5580   45.1470 C   0  0  0  0  0  0  0  0  0  0  0  0
   56.8190   21.0230   44.1200 C   0  0  0  0  0  0  0  0  0  0  0  0
   57.0790   21.7770   42.9720 C   0  0  0  0  0  0  0  0  0  0  0  0
   56.5510   23.0640   42.8460 C   0  0  0  0  0  0  0  0  0  0  0  0
   55.7650   23.6030   43.8710 C   0  0  0  0  0  0  0  0  0  0  0  0
   56.1190   26.3400   46.1350 C   0  0  0  0  0  0  0  0  0  0  0  0
   54.7790   26.6850   46.0040 O   0  0  0  0  0  0  0  0  0  0  0  0
   57.1070   27.2490   45.7450 C   0  0  0  0  0  0  0  0  0  0  0  0
   59.1380   31.0660   45.8330 C   0  0  0  0  0  0  0  0  0  0  0  0
   60.1970   30.8220   46.4770 O   0  0  0  0  0  0  0  0  0  0  0  0
   58.7760   32.8710   48.0514 H   0  0  0  0  0  0  0  0  0  0  0  0
   60.0379   33.3456   46.8643 H   0  0  0  0  0  0  0  0  0  0  0  0
   58.4462   34.1782   46.8643 H   0  0  0  0  0  0  0  0  0  0  0  0
   57.4940   29.2020   42.5060 H   0  0  0  0  0  0  0  0  0  0  0  0
   59.8488   28.7589   43.6000 H   0  0  0  0  0  0  0  0  0  0  0  0
   60.5288   27.7161   45.9205 H   0  0  0  0  0  0  0  0  0  0  0  0
   59.8828   25.4147   46.5322 H   0  0  0  0  0  0  0  0  0  0  0  0
   58.1254   23.7877   47.2114 H   0  0  0  0  0  0  0  0  0  0  0  0
   54.1896   22.5988   46.6928 H   0  0  0  0  0  0  0  0  0  0  0  0
   53.8867   24.0701   45.6893 H   0  0  0  0  0  0  0  0  0  0  0  0
   55.8277   20.9598   46.0466 H   0  0  0  0  0  0  0  0  0  0  0  0
   57.2315   20.0078   44.2156 H   0  0  0  0  0  0  0  0  0  0  0  0
   57.6999   21.3565   42.1672 H   0  0  0  0  0  0  0  0  0  0  0  0
   56.7531   23.6545   41.9402 H   0  0  0  0  0  0  0  0  0  0  0  0
   55.3448   24.6141   43.7656 H   0  0  0  0  0  0  0  0  0  0  0  0
   56.8182   28.2340   45.3496 H   0  0  0  0  0  0  0  0  0  0  0  0
  1  2  1  0
  2  3  1  0
  3  4  2  0
  3  5  1  0
  5  6  1  0
  6  7  1  0
  6  8  2  0
  8  9  1  0
  9 10  2  3
 10 11  1  0
 11 12  2  0
 12 13  1  0
 13 14  2  0
 14 15  1  0
 15 16  1  0
 16 17  1  0
 17 18  2  0
 18 19  1  0
 19 20  2  0
 20 21  1  0
 21 22  2  0
 14 23  1  0
 23 24  1  0
 23 25  2  0
  8 26  1  0
 26 27  2  0
 26  2  1  0
 25 11  1  0
 22 17  1  0
  1 28  1  0
  1 29  1  0
  1 30  1  0
  7 31  1  0
  9 32  1  0
 10 33  1  0
 12 34  1  0
 13 35  1  0
 16 36  1  0
 16 37  1  0
 18 38  1  0
 19 39  1  0
 20 40  1  0
 21 41  1  0
 22 42  1  0
 25 43  1  0
M  CHG  2   5  -1  24  -1
M  END
>  <UniqueID>  (83) 
77

>  <SMILES>  (83) 
Cn1c(=O)[n-]c(O)c(C=Cc2ccc(OCc3ccccc3)c([O-])c2)c1=O

>  <Energy>  (83) 
60.75886319562767

>  <Genealogy>  (83) 
Cn1c(=O)[n-]c(O)c(C=Cc2ccc(OCc3ccccc3)c([O-])c2)c1=O (protonated)
Cn1c(=O)[n-]c(O)c(C=Cc2ccc(OCc3ccccc3)c([O-])c2)c1=O (3D coordinates assigned)
Cn1c(=O)[n-]c(O)c(C=Cc2ccc(OCc3ccccc3)c([O-])c2)c1=O (optimized conformer: 60.75886319562767 kcal/mol)

>  <smiles>  (83) 
Cn1c(=O)[nH]c(O)c(C=Cc2ccc(OCc3ccccc3)c(O)c2)c1=O

>  <score_type>  (83) 
oracle

>  <origin>  (83) 
adg

>  <m_score__min__energy>  (83) 
-14.94

>  <m_primary>  (83) 
energy

$$$$
83:0
     RDKit          3D

 41 43  0  0  0  0  0  0  0  0999 V2000
   59.9840   34.9640   47.4750 C   0  0  0  0  0  0  0  0  0  0  0  0
   59.1790   34.0280   46.6230 C   0  0  0  0  0  0  0  0  0  0  0  0
   58.8390   32.7530   47.1000 C   0  0  0  0  0  0  0  0  0  0  0  0
   58.1220   31.8660   46.2920 C   0  0  0  0  0  0  0  0  0  0  0  0
   57.7440   32.2380   44.9940 C   0  0  0  0  0  0  0  0  0  0  0  0
   56.9940   31.2690   44.1210 C   0  0  0  0  0  0  0  0  0  0  0  0
   56.6550   30.0680   44.8750 N   0  0  0  0  0  0  0  0  0  0  0  0
   57.5900   29.0250   45.1650 C   0  0  0  0  0  0  0  0  0  0  0  0
   58.5660   28.8090   44.3990 O   0  0  0  0  0  0  0  0  0  0  0  0
   57.3780   28.1580   46.3650 C   0  0  0  0  0  0  0  0  0  0  0  0
   57.1910   26.7680   45.9510 N   0  0  0  0  0  0  0  0  0  0  0  0
   56.0090   26.1300   45.8030 C   0  0  0  0  0  0  0  0  0  0  0  0
   54.7710   26.6990   46.0790 O   0  0  0  0  0  0  0  0  0  0  0  0
   56.2090   24.8490   45.3300 C   0  0  0  0  0  0  0  0  0  0  0  0
   57.5620   24.7000   45.1640 C   0  0  0  0  0  0  0  0  0  0  0  0
   58.1430   25.8950   45.5430 C   0  0  0  0  0  0  0  0  0  0  0  0
   59.5080   26.1650   45.4920 O   0  0  0  0  0  0  0  0  0  0  0  0
   58.2100   23.4680   44.6200 C   0  0  0  0  0  0  0  0  0  0  0  0
   57.1980   22.3690   44.3650 C   0  0  0  0  0  0  0  0  0  0  0  0
   55.8640   22.5160   44.5280 C   0  0  0  0  0  0  0  0  0  0  0  0
   55.2010   23.8000   44.9880 C   0  0  0  0  0  0  0  0  0  0  0  0
   58.1030   33.5060   44.5080 C   0  0  0  0  0  0  0  0  0  0  0  0
   58.8210   34.3930   45.3160 C   0  0  0  0  0  0  0  0  0  0  0  0
   59.7967   34.7462   48.5368 H   0  0  0  0  0  0  0  0  0  0  0  0
   61.0538   34.8305   47.2565 H   0  0  0  0  0  0  0  0  0  0  0  0
   59.6919   36.0017   47.2565 H   0  0  0  0  0  0  0  0  0  0  0  0
   59.1380   32.4501   48.1143 H   0  0  0  0  0  0  0  0  0  0  0  0
   57.8529   30.8711   46.6764 H   0  0  0  0  0  0  0  0  0  0  0  0
   56.0698   31.7448   43.7612 H   0  0  0  0  0  0  0  0  0  0  0  0
   57.6298   30.9890   43.2681 H   0  0  0  0  0  0  0  0  0  0  0  0
   58.2561   28.2269   47.0239 H   0  0  0  0  0  0  0  0  0  0  0  0
   56.4807   28.4985   46.9025 H   0  0  0  0  0  0  0  0  0  0  0  0
   59.8660   27.0400   45.1320 H   0  0  0  0  0  0  0  0  0  0  0  0
   58.7118   23.7173   43.6734 H   0  0  0  0  0  0  0  0  0  0  0  0
   58.9327   23.1030   45.3647 H   0  0  0  0  0  0  0  0  0  0  0  0
   57.5720   21.3915   44.0264 H   0  0  0  0  0  0  0  0  0  0  0  0
   55.2196   21.6507   44.3137 H   0  0  0  0  0  0  0  0  0  0  0  0
   54.5541   24.1762   44.1818 H   0  0  0  0  0  0  0  0  0  0  0  0
   54.6147   23.5791   45.8921 H   0  0  0  0  0  0  0  0  0  0  0  0
   57.8182   33.8024   43.4877 H   0  0  0  0  0  0  0  0  0  0  0  0
   59.1064   35.3810   44.9256 H   0  0  0  0  0  0  0  0  0  0  0  0
  1  2  1  0
  2  3  2  0
  3  4  1  0
  4  5  2  0
  5  6  1  0
  6  7  1  0
  7  8  1  0
  8  9  2  0
  8 10  1  0
 10 11  1  0
 11 12  1  0
 12 13  1  0
 12 14  2  0
 14 15  1  0
 15 16  2  0
 16 17  1  0
 15 18  1  0
 18 19  1  0
 19 20  2  0
 20 21  1  0
  5 22  1  0
 22 23  2  0
 23  2  1  0
 16 11  1  0
 21 14  1  0
  1 24  1  0
  1 25  1  0
  1 26  1  0
  3 27  1  0
  4 28  1  0
  6 29  1  0
  6 30  1  0
 10 31  1  0
 10 32  1  0
 17 33  1  0
 18 34  1  0
 18 35  1  0
 19 36  1  0
 20 37  1  0
 21 38  1  0
 21 39  1  0
 22 40  1  0
 23 41  1  0
M  CHG  2   7  -1  13  -1
M  END
>  <UniqueID>  (84) 
78

>  <SMILES>  (84) 
Cc1ccc(C[N-]C(=O)Cn2c([O-])c3c(c2O)CC=CC3)cc1

>  <Energy>  (84) 
69.48352205464688

>  <Genealogy>  (84) 
Cc1ccc(C[N-]C(=O)Cn2c([O-])c3c(c2O)CC=CC3)cc1 (protonated)
Cc1ccc(C[N-]C(=O)Cn2c([O-])c3c(c2O)CC=CC3)cc1 (3D coordinates assigned)
Cc1ccc(C[N-]C(=O)Cn2c([O-])c3c(c2O)CC=CC3)cc1 (nonaromatic ring conformer: 69.48352205464688 kcal/mol)

>  <smiles>  (84) 
Cc1ccc(CNC(=O)Cn2c(O)c3c(c2O)CC=CC3)cc1

>  <score_type>  (84) 
oracle

>  <origin>  (84) 
adg

>  <m_score__min__energy>  (84) 
-12.23

>  <m_primary>  (84) 
energy

$$$$
84:0
     RDKit          3D

 44 46  0  0  0  0  0  0  0  0999 V2000
   53.3830   23.3030   44.6480 O   0  0  0  0  0  0  0  0  0  0  0  0
   54.4980   23.0520   45.1760 C   0  0  0  0  0  0  0  0  0  0  0  0
   54.8480   23.6550   46.5100 C   0  0  0  0  0  0  0  0  0  0  0  0
   56.0840   24.3650   46.4540 O   0  0  0  0  0  0  0  0  0  0  0  0
   56.1680   25.7590   46.3390 C   0  0  0  0  0  0  0  0  0  0  0  0
   55.1530   26.4220   45.9870 O   0  0  0  0  0  0  0  0  0  0  0  0
   57.4560   26.4550   46.5800 C   0  0  0  0  0  0  0  0  0  0  0  0
   58.3610   25.8990   47.5030 C   0  0  0  0  0  0  0  0  0  0  0  0
   59.5430   26.5620   47.8280 C   0  0  0  0  0  0  0  0  0  0  0  0
   59.8490   27.7820   47.2310 C   0  0  0  0  0  0  0  0  0  0  0  0
   58.9890   28.3400   46.2740 C   0  0  0  0  0  0  0  0  0  0  0  0
   59.3160   29.5810   45.6270 N   0  0  0  0  0  0  0  0  0  0  0  0
   59.6920   30.8020   46.2770 C   0  0  0  0  0  0  0  0  0  0  0  0
   60.4790   30.7470   47.2590 O   0  0  0  0  0  0  0  0  0  0  0  0
   59.0920   32.1010   45.8970 C   0  0  0  0  0  0  0  0  0  0  0  0
   59.8060   33.2830   46.1610 C   0  0  0  0  0  0  0  0  0  0  0  0
   59.2920   34.5240   45.7780 C   0  0  0  0  0  0  0  0  0  0  0  0
   58.0650   34.6000   45.1210 C   0  0  0  0  0  0  0  0  0  0  0  0
   57.3410   33.4350   44.8550 C   0  0  0  0  0  0  0  0  0  0  0  0
   57.8350   32.1850   45.2480 C   0  0  0  0  0  0  0  0  0  0  0  0
   57.0440   31.0610   45.0040 O   0  0  0  0  0  0  0  0  0  0  0  0
   57.7790   27.6850   45.9520 C   0  0  0  0  0  0  0  0  0  0  0  0
   56.9320   28.2340   44.9310 N   0  0  0  0  0  0  0  0  0  0  0  0
   55.8440   28.7670   45.2330 O   0  0  0  0  0  0  0  0  0  0  0  0
   57.3820   28.3100   43.6340 O   0  0  0  0  0  0  0  0  0  0  0  0
   55.3840   22.1410   44.5160 N   0  0  0  0  0  0  0  0  0  0  0  0
   56.3510   22.5510   43.5060 C   0  0  0  0  0  0  0  0  0  0  0  0
   56.6320   24.0430   43.5030 C   0  0  0  0  0  0  0  0  0  0  0  0
   57.6420   23.0770   44.1060 C   0  0  0  0  0  0  0  0  0  0  0  0
   54.0495   24.3502   46.8087 H   0  0  0  0  0  0  0  0  0  0  0  0
   54.9508   22.8397   47.2413 H   0  0  0  0  0  0  0  0  0  0  0  0
   58.1331   24.9309   47.9729 H   0  0  0  0  0  0  0  0  0  0  0  0
   60.2364   26.1200   48.5586 H   0  0  0  0  0  0  0  0  0  0  0  0
   60.7713   28.3117   47.5118 H   0  0  0  0  0  0  0  0  0  0  0  0
   60.7778   33.2300   46.6736 H   0  0  0  0  0  0  0  0  0  0  0  0
   59.8564   35.4428   45.9952 H   0  0  0  0  0  0  0  0  0  0  0  0
   57.6665   35.5776   44.8118 H   0  0  0  0  0  0  0  0  0  0  0  0
   56.3751   33.5002   44.3326 H   0  0  0  0  0  0  0  0  0  0  0  0
   57.4280   30.1540   44.7680 H   0  0  0  0  0  0  0  0  0  0  0  0
   56.0877   21.8096   42.7373 H   0  0  0  0  0  0  0  0  0  0  0  0
   56.8596   24.5582   42.5581 H   0  0  0  0  0  0  0  0  0  0  0  0
   56.0992   24.9362   43.8612 H   0  0  0  0  0  0  0  0  0  0  0  0
   58.5999   22.8939   43.5971 H   0  0  0  0  0  0  0  0  0  0  0  0
   58.1422   22.9824   45.0811 H   0  0  0  0  0  0  0  0  0  0  0  0
  1  2  2  0
  2  3  1  0
  3  4  1  0
  4  5  1  0
  5  6  2  0
  5  7  1  0
  7  8  2  0
  8  9  1  0
  9 10  2  0
 10 11  1  0
 11 12  1  0
 12 13  1  0
 13 14  2  0
 13 15  1  0
 15 16  2  0
 16 17  1  0
 17 18  2  0
 18 19  1  0
 19 20  2  0
 20 21  1  0
 11 22  2  0
 22 23  1  0
 23 24  2  0
 23 25  1  0
  2 26  1  0
 26 27  1  0
 27 28  1  0
 28 29  1  0
 22  7  1  0
 29 27  1  0
 20 15  1  0
  3 30  1  0
  3 31  1  0
  8 32  1  0
  9 33  1  0
 10 34  1  0
 16 35  1  0
 17 36  1  0
 18 37  1  0
 19 38  1  0
 21 39  1  0
 27 40  1  0
 28 41  1  0
 28 42  1  0
 29 43  1  0
 29 44  1  0
M  CHG  4  12  -1  23   1  25  -1  26  -1
M  END
>  <UniqueID>  (85) 
79

>  <SMILES>  (85) 
O=C(COC(=O)c1cccc([N-]C(=O)c2ccccc2O)c1[N+](=O)[O-])[N-]C1CC1

>  <Energy>  (85) 
326.06662468683123

>  <Genealogy>  (85) 
O=C(COC(=O)c1cccc([N-]C(=O)c2ccccc2O)c1[N+](=O)[O-])[N-]C1CC1 (protonated)
O=C(COC(=O)c1cccc([N-]C(=O)c2ccccc2O)c1[N+](=O)[O-])[N-]C1CC1 (3D coordinates assigned)
O=C(COC(=O)c1cccc([N-]C(=O)c2ccccc2O)c1[N+](=O)[O-])[N-]C1CC1 (nonaromatic ring conformer: 326.06662468683123 kcal/mol)

>  <smiles>  (85) 
O=C(COC(=O)c1cccc(NC(=O)c2ccccc2O)c1[N+](=O)[O-])NC1CC1

>  <score_type>  (85) 
oracle

>  <origin>  (85) 
adg

>  <m_score__min__energy>  (85) 
-11.81

>  <m_primary>  (85) 
energy

$$$$
85:0
     RDKit          3D

 59 63  0  0  0  0  0  0  0  0999 V2000
   53.9210   25.9200   46.3710 H   0  0  0  0  0  0  0  0  0  0  0  0
   54.7990   26.4080   46.2560 O   0  0  0  0  0  0  0  0  0  0  0  0
   56.0290   25.7580   46.3640 C   0  0  0  0  0  0  0  0  0  0  0  0
   57.1710   26.4780   46.2200 N   0  0  0  0  0  0  0  0  0  0  0  0
   58.3980   25.8980   46.3040 C   0  0  0  0  0  0  0  0  0  0  0  0
   59.6310   26.7280   46.1030 C   0  0  0  0  0  0  0  0  0  0  0  0
   60.4426   26.3251   46.7267 H   0  0  0  0  0  0  0  0  0  0  0  0
   59.9112   26.6917   45.0399 H   0  0  0  0  0  0  0  0  0  0  0  0
   59.3850   28.1240   46.4770 N   0  0  0  0  0  0  0  0  0  0  0  0
   59.6040   28.7420   47.6600 C   0  0  0  0  0  0  0  0  0  0  0  0
   60.1940   28.1060   48.8870 C   0  0  0  0  0  0  0  0  0  0  0  0
   59.4903   27.3607   49.2861 H   0  0  0  0  0  0  0  0  0  0  0  0
   61.1423   27.6160   48.6214 H   0  0  0  0  0  0  0  0  0  0  0  0
   60.4540   29.1570   49.9320 C   0  0  0  0  0  0  0  0  0  0  0  0
   59.9450   28.9980   51.2310 C   0  0  0  0  0  0  0  0  0  0  0  0
   59.4221   28.0695   51.5038 H   0  0  0  0  0  0  0  0  0  0  0  0
   60.0990   30.0120   52.1780 C   0  0  0  0  0  0  0  0  0  0  0  0
   59.6998   29.8800   53.1945 H   0  0  0  0  0  0  0  0  0  0  0  0
   60.7590   31.1930   51.8360 C   0  0  0  0  0  0  0  0  0  0  0  0
   60.8660   31.9950   52.5812 H   0  0  0  0  0  0  0  0  0  0  0  0
   61.2850   31.3630   50.5520 C   0  0  0  0  0  0  0  0  0  0  0  0
   61.9310   32.5650   50.2380 O   0  0  0  0  0  0  0  0  0  0  0  0
   62.3250   32.9540   48.9490 C   0  0  0  0  0  0  0  0  0  0  0  0
   63.6770   32.9680   48.5550 C   0  0  0  0  0  0  0  0  0  0  0  0
   64.4556   32.6266   49.2531 H   0  0  0  0  0  0  0  0  0  0  0  0
   64.0320   33.4150   47.2780 C   0  0  0  0  0  0  0  0  0  0  0  0
   65.0893   33.4289   46.9747 H   0  0  0  0  0  0  0  0  0  0  0  0
   63.0440   33.8440   46.3870 C   0  0  0  0  0  0  0  0  0  0  0  0
   63.3241   34.1914   45.3816 H   0  0  0  0  0  0  0  0  0  0  0  0
   61.7020   33.8320   46.7720 C   0  0  0  0  0  0  0  0  0  0  0  0
   60.9254   34.1682   46.0693 H   0  0  0  0  0  0  0  0  0  0  0  0
   61.3450   33.3930   48.0500 C   0  0  0  0  0  0  0  0  0  0  0  0
   60.2872   33.3923   48.3517 H   0  0  0  0  0  0  0  0  0  0  0  0
   61.1180   30.3490   49.5940 C   0  0  0  0  0  0  0  0  0  0  0  0
   61.5085   30.4884   48.5751 H   0  0  0  0  0  0  0  0  0  0  0  0
   59.2650   30.0490   47.6040 N   0  0  0  0  0  0  0  0  0  0  0  0
   58.8350   30.2830   46.3720 N   0  0  0  0  0  0  0  0  0  0  0  0
   58.4280   31.5920   45.9120 C   0  0  0  0  0  0  0  0  0  0  0  0
   58.2510   32.6310   46.8450 C   0  0  0  0  0  0  0  0  0  0  0  0
   58.4282   32.4377   47.9133 H   0  0  0  0  0  0  0  0  0  0  0  0
   57.8530   33.9050   46.4310 C   0  0  0  0  0  0  0  0  0  0  0  0
   57.7178   34.7068   47.1718 H   0  0  0  0  0  0  0  0  0  0  0  0
   57.6270   34.1600   45.0770 C   0  0  0  0  0  0  0  0  0  0  0  0
   57.3207   35.1644   44.7493 H   0  0  0  0  0  0  0  0  0  0  0  0
   57.7900   33.1400   44.1410 C   0  0  0  0  0  0  0  0  0  0  0  0
   57.6119   33.3424   43.0746 H   0  0  0  0  0  0  0  0  0  0  0  0
   58.1790   31.8600   44.5510 C   0  0  0  0  0  0  0  0  0  0  0  0
   58.2911   31.0580   43.8065 H   0  0  0  0  0  0  0  0  0  0  0  0
   58.9230   29.1180   45.6930 C   0  0  0  0  0  0  0  0  0  0  0  0
   58.6530   28.9740   44.4710 O   0  0  0  0  0  0  0  0  0  0  0  0
   58.4860   24.5210   46.5400 C   0  0  0  0  0  0  0  0  0  0  0  0
   59.4686   24.0303   46.6017 H   0  0  0  0  0  0  0  0  0  0  0  0
   57.3490   23.7970   46.6920 N   0  0  0  0  0  0  0  0  0  0  0  0
   56.1180   24.3760   46.6120 C   0  0  0  0  0  0  0  0  0  0  0  0
   55.0380   23.6640   46.7510 N   0  0  0  0  0  0  0  0  0  0  0  0
   54.0720   23.4280   45.6850 C   0  0  0  0  0  0  0  0  0  0  0  0
   53.0923   23.1887   46.1243 H   0  0  0  0  0  0  0  0  0  0  0  0
   53.9842   24.3311   45.0632 H   0  0  0  0  0  0  0  0  0  0  0  0
   54.4105   22.5861   45.0632 H   0  0  0  0  0  0  0  0  0  0  0  0
  1  2  1  0
  2  3  1  0
  3  4  2  0
  4  5  1  0
  5  6  1  0
  6  7  1  0
  6  8  1  0
  6  9  1  0
  9 10  1  0
 10 11  1  0
 11 12  1  0
 11 13  1  0
 11 14  1  0
 14 15  2  0
 15 16  1  0
 15 17  1  0
 17 18  1  0
 17 19  2  0
 19 20  1  0
 19 21  1  0
 21 22  1  0
 22 23  1  0
 23 24  2  0
 24 25  1  0
 24 26  1  0
 26 27  1  0
 26 28  2  0
 28 29  1  0
 28 30  1  0
 30 31  1  0
 30 32  2  0
 32 33  1  0
 21 34  2  0
 34 35  1  0
 10 36  2  0
 36 37  1  0
 37 38  1  0
 38 39  2  0
 39 40  1  0
 39 41  1  0
 41 42  1  0
 41 43  2  0
 43 44  1  0
 43 45  1  0
 45 46  1  0
 45 47  2  0
 47 48  1  0
 37 49  1  0
 49 50  2  0
  5 51  2  0
 51 52  1  0
 51 53  1  0
 53 54  1  0
 54 55  2  0
 55 56  1  0
 56 57  1  0
 56 58  1  0
 56 59  1  0
 54  3  1  0
 49  9  1  0
 34 14  1  0
 47 38  1  0
 32 23  1  0
M  CHG  1  53  -1
M  END
>  <UniqueID>  (86) 
80

>  <SMILES>  (86) 
C/N=c1\[n-]cc(Cn2c(Cc3cccc(Oc4ccccc4)c3)nn(-c3ccccc3)c2=O)nc1O

>  <Energy>  (86) 
107.27373786033921

>  <Genealogy>  (86) 
CN=c1[n-]cc(Cn2c(Cc3cccc(Oc4ccccc4)c3)nn(-c3ccccc3)c2=O)nc1O (protonated)
C/N=c1\[n-]cc(Cn2c(Cc3cccc(Oc4ccccc4)c3)nn(-c3ccccc3)c2=O)nc1O (cis-trans isomerization)
C/N=c1\[n-]cc(Cn2c(Cc3cccc(Oc4ccccc4)c3)nn(-c3ccccc3)c2=O)nc1O (3D coordinates assigned)
C/N=c1\[n-]cc(Cn2c(Cc3cccc(Oc4ccccc4)c3)nn(-c3ccccc3)c2=O)nc1O (optimized conformer: 107.27373786033921 kcal/mol)

>  <smiles>  (86) 
CN=c1[nH]cc(Cn2c(Cc3cccc(Oc4ccccc4)c3)nn(-c3ccccc3)c2=O)nc1O

>  <score_type>  (86) 
oracle

>  <origin>  (86) 
adg

>  <m_score__min__energy>  (86) 
-13.140000000000001

>  <m_primary>  (86) 
energy

$$$$
86:0
     RDKit          3D

 37 41  0  0  0  0  0  0  0  0999 V2000
   58.8296   27.2759   48.8007 H   0  0  0  0  0  0  0  0  0  0  0  0
   58.8870   28.2410   48.2760 C   0  0  0  0  0  0  0  0  0  0  0  0
   59.2920   29.3590   48.7990 N   0  0  0  0  0  0  0  0  0  0  0  0
   59.2640   30.3190   47.7800 N   0  0  0  0  0  0  0  0  0  0  0  0
   58.8820   31.6080   47.8530 C   0  0  0  0  0  0  0  0  0  0  0  0
   59.0510   32.3870   48.8790 N   0  0  0  0  0  0  0  0  0  0  0  0
   59.8310   33.6190   48.8540 C   0  0  0  0  0  0  0  0  0  0  0  0
   60.0558   33.6733   49.9294 H   0  0  0  0  0  0  0  0  0  0  0  0
   59.3520   34.5920   47.7940 C   0  0  0  0  0  0  0  0  0  0  0  0
   58.4616   34.3560   47.1927 H   0  0  0  0  0  0  0  0  0  0  0  0
   59.0771   35.6570   47.7828 H   0  0  0  0  0  0  0  0  0  0  0  0
   60.6410   33.8110   47.5840 C   0  0  0  0  0  0  0  0  0  0  0  0
   60.6828   33.0099   46.8314 H   0  0  0  0  0  0  0  0  0  0  0  0
   61.6844   34.0764   47.3585 H   0  0  0  0  0  0  0  0  0  0  0  0
   58.2290   31.9980   46.7320 N   0  0  0  0  0  0  0  0  0  0  0  0
   58.1950   30.8510   46.0010 C   0  0  0  0  0  0  0  0  0  0  0  0
   57.5940   30.7710   44.6580 C   0  0  0  0  0  0  0  0  0  0  0  0
   56.5410   29.8790   44.4090 C   0  0  0  0  0  0  0  0  0  0  0  0
   56.1776   29.2138   45.2062 H   0  0  0  0  0  0  0  0  0  0  0  0
   55.9570   29.8420   43.1400 C   0  0  0  0  0  0  0  0  0  0  0  0
   55.1397   29.1358   42.9322 H   0  0  0  0  0  0  0  0  0  0  0  0
   56.3970   30.6770   42.1620 N   0  0  0  0  0  0  0  0  0  0  0  0
   57.4020   31.5650   42.3810 C   0  0  0  0  0  0  0  0  0  0  0  0
   57.7347   32.2294   41.5699 H   0  0  0  0  0  0  0  0  0  0  0  0
   58.0130   31.6350   43.6350 C   0  0  0  0  0  0  0  0  0  0  0  0
   58.8172   32.3625   43.8193 H   0  0  0  0  0  0  0  0  0  0  0  0
   58.8300   29.8450   46.6430 N   0  0  0  0  0  0  0  0  0  0  0  0
   58.5160   28.4710   46.8660 C   0  0  0  0  0  0  0  0  0  0  0  0
   57.8060   27.6710   46.0600 C   0  0  0  0  0  0  0  0  0  0  0  0
   57.6273   28.0002   45.0257 H   0  0  0  0  0  0  0  0  0  0  0  0
   57.2520   26.3750   46.4840 C   0  0  0  0  0  0  0  0  0  0  0  0
   57.9860   25.4200   47.0820 N   0  0  0  0  0  0  0  0  0  0  0  0
   57.0810   24.4580   47.3640 C   0  0  0  0  0  0  0  0  0  0  0  0
   57.3950   23.3760   47.9260 O   0  0  0  0  0  0  0  0  0  0  0  0
   55.8130   24.7490   47.0040 N   0  0  0  0  0  0  0  0  0  0  0  0
   55.9340   25.9700   46.4590 C   0  0  0  0  0  0  0  0  0  0  0  0
   54.8550   26.7160   45.9990 O   0  0  0  0  0  0  0  0  0  0  0  0
  1  2  1  0
  2  3  2  0
  3  4  1  0
  4  5  1  0
  5  6  2  0
  6  7  1  0
  7  8  1  0
  7  9  1  0
  9 10  1  0
  9 11  1  0
  9 12  1  0
 12 13  1  0
 12 14  1  0
  5 15  1  0
 15 16  2  0
 16 17  1  0
 17 18  2  0
 18 19  1  0
 18 20  1  0
 20 21  1  0
 20 22  2  0
 22 23  1  0
 23 24  1  0
 23 25  2  0
 25 26  1  0
 16 27  1  0
 27 28  1  0
 28 29  2  0
 29 30  1  0
 29 31  1  0
 31 32  1  0
 32 33  1  0
 33 34  2  0
 33 35  1  0
 35 36  1  0
 36 37  1  0
 28  2  1  0
 36 31  2  0
 27  4  1  0
 12  7  1  0
 25 17  1  0
M  CHG  3  32  -1  35  -1  37  -1
M  END
>  <UniqueID>  (87) 
81

>  <SMILES>  (87) 
O=c1[n-]c([O-])c(/C=C2\C=Nn3/c(=N\C4CC4)nc(-c4ccncc4)n32)[n-]1

>  <Energy>  (87) 
440.2759068602489

>  <Genealogy>  (87) 
O=c1[n-]c([O-])c(C=C2C=Nn3c(=NC4CC4)nc(-c4ccncc4)n32)[n-]1 (protonated)
O=c1[n-]c([O-])c(/C=C2\C=Nn3/c(=N\C4CC4)nc(-c4ccncc4)n32)[n-]1 (cis-trans isomerization)
O=c1[n-]c([O-])c(/C=C2\C=Nn3/c(=N\C4CC4)nc(-c4ccncc4)n32)[n-]1 (3D coordinates assigned)
O=c1[n-]c([O-])c(/C=C2\C=Nn3/c(=N\C4CC4)nc(-c4ccncc4)n32)[n-]1 (nonaromatic ring conformer: 440.2759068602489 kcal/mol)

>  <smiles>  (87) 
O=c1[nH]c(O)c(C=C2C=Nn3c(=NC4CC4)nc(-c4ccncc4)n32)[nH]1

>  <score_type>  (87) 
oracle

>  <origin>  (87) 
adg

>  <m_score__min__energy>  (87) 
-15.16

>  <m_primary>  (87) 
energy

$$$$
87:0
     RDKit          3D

 59 62  0  0  1  0  0  0  0  0999 V2000
   56.9880   30.9680   53.7570 C   0  0  0  0  0  0  0  0  0  0  0  0
   57.5560   30.7930   52.0740 S   0  0  0  0  0  0  0  0  0  0  0  0
   56.6820   31.5780   51.1780 O   0  0  0  0  0  0  0  0  0  0  0  0
   57.5510   29.3650   51.6760 O   0  0  0  0  0  0  0  0  0  0  0  0
   59.1990   31.3700   51.9720 N   0  0  0  0  0  0  0  0  0  0  0  0
   59.3180   32.5890   52.7840 C   0  0  0  0  0  0  0  0  0  0  0  0
   58.9320   33.8130   51.9730 C   0  0  0  0  0  0  0  0  0  0  0  0
   59.8170   33.9260   50.8080 N   0  0  0  0  0  0  0  0  0  0  0  0
   59.4550   33.3060   49.5520 C   0  0  0  0  0  0  0  0  0  0  0  0
   58.3840   32.6700   49.4160 O   0  0  0  0  0  0  0  0  0  0  0  0
   60.4330   33.4810   48.4740 C   0  0  0  0  0  0  0  0  0  0  0  0
   61.7040   33.0150   48.7340 C   0  0  0  0  0  0  0  0  0  0  0  0
   62.7440   33.1330   47.8280 C   0  0  0  0  0  0  0  0  0  0  0  0
   62.4600   33.7460   46.6380 C   0  0  0  0  0  0  0  0  0  0  0  0
   61.1840   34.2130   46.3740 C   0  0  0  0  0  0  0  0  0  0  0  0
   60.1380   34.0950   47.2790 C   0  0  0  0  0  0  0  0  0  0  0  0
   58.7800   34.5720   46.9180 C   0  0  0  0  0  0  0  0  0  0  0  0
   59.4030   29.6330   46.0370 N   0  0  0  0  0  0  0  0  0  0  0  0
   59.4130   29.5820   47.3260 C   0  0  0  0  0  0  0  0  0  0  0  0
   58.9070   32.0130   45.7770 N   0  0  0  0  0  0  0  0  0  0  0  0
   58.8150   30.7380   45.3790 C   0  0  0  0  0  0  0  0  0  0  0  0
   58.4420   34.2780   45.5370 N   0  0  0  0  0  0  0  0  0  0  0  0
   58.3300   33.0370   45.1190 C   0  0  0  0  0  0  0  0  0  0  0  0
   60.0550   28.7090   48.1750 C   0  0  0  0  0  0  0  0  0  0  0  0
   59.7450   29.0500   49.4700 C   0  0  0  0  0  0  0  0  0  0  0  0
   60.2090   28.4050   50.7290 C   0  0  0  0  0  0  0  0  0  0  0  0
   61.6400   28.4600   51.1360 C   0  0  0  0  0  0  0  0  0  0  0  0
   61.1450   27.1950   50.5500 C   0  0  0  0  0  0  0  0  0  0  0  0
   58.9170   30.1260   49.3990 N   0  0  0  0  0  0  0  0  0  0  0  0
   58.7300   30.4290   48.1260 N   0  0  0  0  0  0  0  0  0  0  0  0
   58.0850   30.4370   44.2190 C   0  0  0  0  0  0  0  0  0  0  0  0
   57.4900   31.4780   43.5350 C   0  0  0  0  0  0  0  0  0  0  0  0
   57.6370   32.7340   44.0150 N   0  0  0  0  0  0  0  0  0  0  0  0
   57.8059   30.7160   54.4481 H   0  0  0  0  0  0  0  0  0  0  0  0
   56.6685   32.0062   53.9301 H   0  0  0  0  0  0  0  0  0  0  0  0
   56.1396   30.2896   53.9301 H   0  0  0  0  0  0  0  0  0  0  0  0
   59.4790   31.5900   50.9860 H   0  0  0  0  0  0  0  0  0  0  0  0
   58.6521   32.5087   53.6559 H   0  0  0  0  0  0  0  0  0  0  0  0
   60.3629   32.6960   53.1108 H   0  0  0  0  0  0  0  0  0  0  0  0
   57.8901   33.7148   51.6340 H   0  0  0  0  0  0  0  0  0  0  0  0
   59.0307   34.7131   52.5975 H   0  0  0  0  0  0  0  0  0  0  0  0
   60.7400   34.4540   50.8950 H   0  0  0  0  0  0  0  0  0  0  0  0
   61.8999   32.5293   49.7013 H   0  0  0  0  0  0  0  0  0  0  0  0
   63.7509   32.7521   48.0539 H   0  0  0  0  0  0  0  0  0  0  0  0
   63.2523   33.8687   45.8849 H   0  0  0  0  0  0  0  0  0  0  0  0
   60.9906   34.6982   45.4059 H   0  0  0  0  0  0  0  0  0  0  0  0
   58.0464   34.0806   47.5741 H   0  0  0  0  0  0  0  0  0  0  0  0
   58.7626   35.6647   47.0435 H   0  0  0  0  0  0  0  0  0  0  0  0
   60.7069   27.8777   47.8684 H   0  0  0  0  0  0  0  0  0  0  0  0
   59.2667   28.6414   51.2450 H   0  0  0  0  0  0  0  0  0  0  0  0
   62.3432   29.0842   50.5651 H   0  0  0  0  0  0  0  0  0  0  0  0
   62.1573   28.7157   52.0725 H   0  0  0  0  0  0  0  0  0  0  0  0
   61.4665   26.8891   49.5435 H   0  0  0  0  0  0  0  0  0  0  0  0
   61.1302   26.1402   50.8617 H   0  0  0  0  0  0  0  0  0  0  0  0
   58.4720   30.6670   50.1670 H   0  0  0  0  0  0  0  0  0  0  0  0
   58.1470   31.2030   47.7670 H   0  0  0  0  0  0  0  0  0  0  0  0
   57.9895   29.4001   43.8645 H   0  0  0  0  0  0  0  0  0  0  0  0
   56.9092   31.2903   42.6199 H   0  0  0  0  0  0  0  0  0  0  0  0
   57.1590   33.4740   43.4470 H   0  0  0  0  0  0  0  0  0  0  0  0
  1  2  1  0
  2  3  2  0
  2  4  2  0
  2  5  1  0
  5  6  1  0
  6  7  1  0
  7  8  1  0
  8  9  1  0
  9 10  2  0
  9 11  1  0
 11 12  2  0
 12 13  1  0
 13 14  2  0
 14 15  1  0
 15 16  2  0
 16 17  1  0
 17 18  1  0
 18 19  2  0
 19 20  1  0
 20 21  2  0
 21 22  1  0
 22 23  2  0
 23 24  1  0
 24 25  2  0
 25 26  1  0
 26 27  1  0
 27 28  1  0
 25 29  1  0
 29 30  1  0
 21 31  1  0
 31 32  2  0
 32 33  1  0
 16 11  1  0
 33 19  1  0
 30 23  1  0
 28 26  1  0
  1 34  1  0
  1 35  1  0
  1 36  1  0
  5 37  1  0
  6 38  1  0
  6 39  1  0
  7 40  1  0
  7 41  1  0
  8 42  1  0
 12 43  1  0
 13 44  1  0
 14 45  1  0
 15 46  1  0
 17 47  1  0
 17 48  1  0
 24 49  1  0
 26 50  1  0
 27 51  1  0
 27 52  1  0
 28 53  1  0
 28 54  1  0
 29 55  1  0
 30 56  1  0
 31 57  1  0
 32 58  1  0
 33 59  1  0
M  END
>  <smiles>  (88) 
CS(=O)(=O)NCCNC(=O)c1ccccc1CN=c1nc(N=c2cc(C3CC3)[nH][nH]2)cc[nH]1

>  <score_type>  (88) 
oracle

>  <origin>  (88) 
adg

>  <m_score__min__energy>  (88) 
-9.1099999999999994

>  <m_primary>  (88) 
energy

$$$$
88:0
     RDKit          3D

 53 56  0  0  0  0  0  0  0  0999 V2000
   56.4300   27.6970   45.6100 N   0  0  0  0  0  0  0  0  0  0  0  0
   56.9190   28.9090   45.0190 C   0  0  0  0  0  0  0  0  0  0  0  0
   56.0680   29.6450   44.1790 C   0  0  0  0  0  0  0  0  0  0  0  0
   56.5440   30.7630   43.4930 C   0  0  0  0  0  0  0  0  0  0  0  0
   57.8760   31.1540   43.6340 C   0  0  0  0  0  0  0  0  0  0  0  0
   58.7270   30.4430   44.4810 C   0  0  0  0  0  0  0  0  0  0  0  0
   58.2560   29.3410   45.2040 C   0  0  0  0  0  0  0  0  0  0  0  0
   59.1590   28.6800   46.1000 N   0  0  0  0  0  0  0  0  0  0  0  0
   58.9460   28.4830   47.5040 C   0  0  0  0  0  0  0  0  0  0  0  0
   58.3260   27.4540   47.8830 O   0  0  0  0  0  0  0  0  0  0  0  0
   59.4310   29.4500   48.5140 C   0  0  0  0  0  0  0  0  0  0  0  0
   58.5360   30.0050   49.4430 C   0  0  0  0  0  0  0  0  0  0  0  0
   58.9840   30.9220   50.3970 C   0  0  0  0  0  0  0  0  0  0  0  0
   60.3360   31.2910   50.4450 C   0  0  0  0  0  0  0  0  0  0  0  0
   60.8370   32.2250   51.5130 C   0  0  0  0  0  0  0  0  0  0  0  0
   60.5280   33.6040   51.1560 N   0  0  0  0  0  0  0  0  0  0  0  0
   60.5000   34.0740   49.8040 C   0  0  0  0  0  0  0  0  0  0  0  0
   59.5160   34.7410   49.3860 O   0  0  0  0  0  0  0  0  0  0  0  0
   61.6300   33.7830   48.8990 C   0  0  0  0  0  0  0  0  0  0  0  0
   62.9350   33.7910   49.4210 C   0  0  0  0  0  0  0  0  0  0  0  0
   64.0220   33.4460   48.6180 C   0  0  0  0  0  0  0  0  0  0  0  0
   63.8240   33.0960   47.2830 C   0  0  0  0  0  0  0  0  0  0  0  0
   62.5370   33.1040   46.7410 C   0  0  0  0  0  0  0  0  0  0  0  0
   61.4300   33.4600   47.5310 C   0  0  0  0  0  0  0  0  0  0  0  0
   60.0980   33.5540   46.8880 C   0  0  0  0  0  0  0  0  0  0  0  0
   59.0480   32.7150   47.3020 C   0  0  0  0  0  0  0  0  0  0  0  0
   57.7910   32.8090   46.7000 C   0  0  0  0  0  0  0  0  0  0  0  0
   57.5690   33.7440   45.6860 C   0  0  0  0  0  0  0  0  0  0  0  0
   58.6030   34.5910   45.2780 C   0  0  0  0  0  0  0  0  0  0  0  0
   59.8620   34.5020   45.8780 C   0  0  0  0  0  0  0  0  0  0  0  0
   61.2370   30.7180   49.5360 C   0  0  0  0  0  0  0  0  0  0  0  0
   60.7870   29.8060   48.5760 C   0  0  0  0  0  0  0  0  0  0  0  0
   56.5400   27.5260   46.6350 H   0  0  0  0  0  0  0  0  0  0  0  0
   55.8390   27.0230   45.0780 H   0  0  0  0  0  0  0  0  0  0  0  0
   55.0183   29.3380   44.0608 H   0  0  0  0  0  0  0  0  0  0  0  0
   55.8689   31.3364   42.8408 H   0  0  0  0  0  0  0  0  0  0  0  0
   58.2555   32.0234   43.0770 H   0  0  0  0  0  0  0  0  0  0  0  0
   59.7781   30.7515   44.5814 H   0  0  0  0  0  0  0  0  0  0  0  0
   57.4750   29.7157   49.4194 H   0  0  0  0  0  0  0  0  0  0  0  0
   58.2724   31.3569   51.1143 H   0  0  0  0  0  0  0  0  0  0  0  0
   60.3515   31.9789   52.4689 H   0  0  0  0  0  0  0  0  0  0  0  0
   61.9271   32.1127   51.6078 H   0  0  0  0  0  0  0  0  0  0  0  0
   63.1004   34.0717   50.4716 H   0  0  0  0  0  0  0  0  0  0  0  0
   65.0382   33.4501   49.0391 H   0  0  0  0  0  0  0  0  0  0  0  0
   64.6825   32.8133   46.6560 H   0  0  0  0  0  0  0  0  0  0  0  0
   62.3881   32.8292   45.6863 H   0  0  0  0  0  0  0  0  0  0  0  0
   59.2174   31.9812   48.1038 H   0  0  0  0  0  0  0  0  0  0  0  0
   56.9753   32.1463   47.0246 H   0  0  0  0  0  0  0  0  0  0  0  0
   56.5804   33.8135   45.2088 H   0  0  0  0  0  0  0  0  0  0  0  0
   58.4254   35.3297   44.4825 H   0  0  0  0  0  0  0  0  0  0  0  0
   60.6706   35.1760   45.5587 H   0  0  0  0  0  0  0  0  0  0  0  0
   62.3027   30.9871   49.5782 H   0  0  0  0  0  0  0  0  0  0  0  0
   61.5007   29.3648   47.8647 H   0  0  0  0  0  0  0  0  0  0  0  0
  1  2  1  0
  2  3  2  0
  3  4  1  0
  4  5  2  0
  5  6  1  0
  6  7  2  0
  7  8  1  0
  8  9  1  0
  9 10  2  0
  9 11  1  0
 11 12  2  0
 12 13  1  0
 13 14  2  0
 14 15  1  0
 15 16  1  0
 16 17  1  0
 17 18  2  0
 17 19  1  0
 19 20  2  0
 20 21  1  0
 21 22  2  0
 22 23  1  0
 23 24  2  0
 24 25  1  0
 25 26  2  0
 26 27  1  0
 27 28  2  0
 28 29  1  0
 29 30  2  0
 14 31  1  0
 31 32  2  0
  7  2  1  0
 32 11  1  0
 24 19  1  0
 30 25  1  0
  1 33  1  0
  1 34  1  0
  3 35  1  0
  4 36  1  0
  5 37  1  0
  6 38  1  0
 12 39  1  0
 13 40  1  0
 15 41  1  0
 15 42  1  0
 20 43  1  0
 21 44  1  0
 22 45  1  0
 23 46  1  0
 26 47  1  0
 27 48  1  0
 28 49  1  0
 29 50  1  0
 30 51  1  0
 31 52  1  0
 32 53  1  0
M  CHG  2   8  -1  16  -1
M  END
>  <UniqueID>  (89) 
82

>  <SMILES>  (89) 
Nc1ccccc1[N-]C(=O)c1ccc(C[N-]C(=O)c2ccccc2-c2ccccc2)cc1

>  <Energy>  (89) 
73.76430732111653

>  <Genealogy>  (89) 
Nc1ccccc1[N-]C(=O)c1ccc(C[N-]C(=O)c2ccccc2-c2ccccc2)cc1 (protonated)
Nc1ccccc1[N-]C(=O)c1ccc(C[N-]C(=O)c2ccccc2-c2ccccc2)cc1 (3D coordinates assigned)
Nc1ccccc1[N-]C(=O)c1ccc(C[N-]C(=O)c2ccccc2-c2ccccc2)cc1 (optimized conformer: 73.76430732111653 kcal/mol)

>  <smiles>  (89) 
Nc1ccccc1NC(=O)c1ccc(CNC(=O)c2ccccc2-c2ccccc2)cc1

>  <score_type>  (89) 
oracle

>  <origin>  (89) 
adg

>  <m_score__min__energy>  (89) 
-12.710000000000001

>  <m_primary>  (89) 
energy

$$$$
89:0
     RDKit          3D

 54 55  0  0  0  0  0  0  0  0999 V2000
   56.8000   34.5650   44.8760 C   0  0  0  0  0  0  0  0  0  0  0  0
   57.4370   32.9210   45.1090 S   0  0  0  0  0  0  0  0  0  0  0  0
   56.3130   31.9380   44.9340 O   0  0  0  0  0  0  0  0  0  0  0  0
   58.5090   32.6570   44.0900 O   0  0  0  0  0  0  0  0  0  0  0  0
   58.0890   32.8250   46.6680 O   0  0  0  0  0  0  0  0  0  0  0  0
   59.0110   33.8750   46.8430 C   0  0  0  0  0  0  0  0  0  0  0  0
   59.4600   33.9280   48.3040 C   0  0  0  0  0  0  0  0  0  0  0  0
   60.6900   33.1430   48.5170 N   0  0  0  0  0  0  0  0  0  0  0  0
   61.9330   33.8230   48.9200 C   0  0  0  0  0  0  0  0  0  0  0  0
   63.1520   33.2240   48.2150 C   0  0  0  0  0  0  0  0  0  0  0  0
   63.2320   33.7520   46.5140 Cl  0  0  0  0  0  0  0  0  0  0  0  0
   60.6780   31.7090   48.3500 C   0  0  0  0  0  0  0  0  0  0  0  0
   60.3170   30.8680   49.4180 C   0  0  0  0  0  0  0  0  0  0  0  0
   60.2670   29.4830   49.2430 C   0  0  0  0  0  0  0  0  0  0  0  0
   60.5920   28.9120   48.0030 C   0  0  0  0  0  0  0  0  0  0  0  0
   60.5710   27.4160   47.8300 C   0  0  0  0  0  0  0  0  0  0  0  0
   59.3250   26.9910   47.1020 C   0  0  0  0  0  0  0  0  0  0  0  0
   58.6040   25.8650   47.5260 C   0  0  0  0  0  0  0  0  0  0  0  0
   57.4750   25.4450   46.8180 C   0  0  0  0  0  0  0  0  0  0  0  0
   57.0590   26.1430   45.6840 C   0  0  0  0  0  0  0  0  0  0  0  0
   57.7570   27.2810   45.2570 C   0  0  0  0  0  0  0  0  0  0  0  0
   57.3480   27.9510   44.0540 N   0  0  0  0  0  0  0  0  0  0  0  0
   56.8110   29.1420   44.0080 C   0  0  0  0  0  0  0  0  0  0  0  0
   55.4420   29.3670   44.3730 N   0  0  0  0  0  0  0  0  0  0  0  0
   57.5840   30.2450   43.5280 N   0  0  0  0  0  0  0  0  0  0  0  0
   58.9060   27.6860   45.9560 C   0  0  0  0  0  0  0  0  0  0  0  0
   60.9700   29.7470   46.9400 C   0  0  0  0  0  0  0  0  0  0  0  0
   61.0050   31.1340   47.1100 C   0  0  0  0  0  0  0  0  0  0  0  0
   56.6196   35.0306   45.8561 H   0  0  0  0  0  0  0  0  0  0  0  0
   57.5307   35.1651   44.3139 H   0  0  0  0  0  0  0  0  0  0  0  0
   55.8557   34.5161   44.3139 H   0  0  0  0  0  0  0  0  0  0  0  0
   59.8854   33.7052   46.1976 H   0  0  0  0  0  0  0  0  0  0  0  0
   58.5330   34.8284   46.5738 H   0  0  0  0  0  0  0  0  0  0  0  0
   59.6508   34.9750   48.5821 H   0  0  0  0  0  0  0  0  0  0  0  0
   58.6622   33.4980   48.9275 H   0  0  0  0  0  0  0  0  0  0  0  0
   61.8578   34.8893   48.6604 H   0  0  0  0  0  0  0  0  0  0  0  0
   62.0623   33.6930   50.0046 H   0  0  0  0  0  0  0  0  0  0  0  0
   64.0645   33.5498   48.7358 H   0  0  0  0  0  0  0  0  0  0  0  0
   63.0653   32.1277   48.2372 H   0  0  0  0  0  0  0  0  0  0  0  0
   60.0723   31.3039   50.3979 H   0  0  0  0  0  0  0  0  0  0  0  0
   59.9711   28.8362   50.0821 H   0  0  0  0  0  0  0  0  0  0  0  0
   61.4532   27.1054   47.2509 H   0  0  0  0  0  0  0  0  0  0  0  0
   60.5847   26.9413   48.8222 H   0  0  0  0  0  0  0  0  0  0  0  0
   58.9285   25.3107   48.4190 H   0  0  0  0  0  0  0  0  0  0  0  0
   56.9128   24.5618   47.1556 H   0  0  0  0  0  0  0  0  0  0  0  0
   56.1785   25.7984   45.1219 H   0  0  0  0  0  0  0  0  0  0  0  0
   57.4610   27.4190   43.1620 H   0  0  0  0  0  0  0  0  0  0  0  0
   54.7710   28.5870   44.5440 H   0  0  0  0  0  0  0  0  0  0  0  0
   55.0580   30.3380   44.3650 H   0  0  0  0  0  0  0  0  0  0  0  0
   58.5790   30.1200   43.2340 H   0  0  0  0  0  0  0  0  0  0  0  0
   57.1680   31.2000   43.4790 H   0  0  0  0  0  0  0  0  0  0  0  0
   59.4820   28.5542   45.6031 H   0  0  0  0  0  0  0  0  0  0  0  0
   61.2400   29.3077   45.9683 H   0  0  0  0  0  0  0  0  0  0  0  0
   61.2906   31.7803   46.2669 H   0  0  0  0  0  0  0  0  0  0  0  0
  1  2  1  0
  2  3  2  0
  2  4  2  0
  2  5  1  0
  5  6  1  0
  6  7  1  0
  7  8  1  0
  8  9  1  0
  9 10  1  0
 10 11  1  0
  8 12  1  0
 12 13  2  0
 13 14  1  0
 14 15  2  0
 15 16  1  0
 16 17  1  0
 17 18  2  0
 18 19  1  0
 19 20  2  0
 20 21  1  0
 21 22  1  0
 22 23  2  3
 23 24  1  0
 23 25  1  0
 21 26  2  0
 15 27  1  0
 27 28  2  0
 28 12  1  0
 26 17  1  0
  1 29  1  0
  1 30  1  0
  1 31  1  0
  6 32  1  0
  6 33  1  0
  7 34  1  0
  7 35  1  0
  9 36  1  0
  9 37  1  0
 10 38  1  0
 10 39  1  0
 13 40  1  0
 14 41  1  0
 16 42  1  0
 16 43  1  0
 18 44  1  0
 19 45  1  0
 20 46  1  0
 22 47  1  0
 24 48  1  0
 24 49  1  0
 25 50  1  0
 25 51  1  0
 26 52  1  0
 27 53  1  0
 28 54  1  0
M  CHG  1  22   1
M  END
>  <UniqueID>  (90) 
83

>  <SMILES>  (90) 
CS(=O)(=O)OCCN(CCCl)c1ccc(Cc2cccc([NH+]=C(N)N)c2)cc1

>  <Energy>  (90) 
51.91471072046798

>  <Genealogy>  (90) 
CS(=O)(=O)OCCN(CCCl)c1ccc(Cc2cccc([NH+]=C(N)N)c2)cc1 (protonated)
CS(=O)(=O)OCCN(CCCl)c1ccc(Cc2cccc([NH+]=C(N)N)c2)cc1 (3D coordinates assigned)
CS(=O)(=O)OCCN(CCCl)c1ccc(Cc2cccc([NH+]=C(N)N)c2)cc1 (optimized conformer: 51.91471072046798 kcal/mol)

>  <smiles>  (90) 
CS(=O)(=O)OCCN(CCCl)c1ccc(Cc2cccc(N=C(N)N)c2)cc1

>  <score_type>  (90) 
oracle

>  <origin>  (90) 
adg

>  <m_score__min__energy>  (90) 
-7.3099999999999996

>  <m_primary>  (90) 
energy

$$$$
90:0
     RDKit          3D

 49 51  0  0  0  0  0  0  0  0999 V2000
   57.3580   24.7720   43.8600 C   0  0  0  0  0  0  0  0  0  0  0  0
   57.1290   23.2990   44.0660 C   0  0  0  0  0  0  0  0  0  0  0  0
   56.8870   22.4850   42.9430 C   0  0  0  0  0  0  0  0  0  0  0  0
   56.6460   21.1180   43.0920 C   0  0  0  0  0  0  0  0  0  0  0  0
   56.6320   20.5470   44.3630 C   0  0  0  0  0  0  0  0  0  0  0  0
   56.8600   21.3390   45.4900 C   0  0  0  0  0  0  0  0  0  0  0  0
   57.1040   22.7180   45.3600 C   0  0  0  0  0  0  0  0  0  0  0  0
   57.3880   23.6760   46.8230 S   0  0  0  0  0  0  0  0  0  0  0  0
   57.3690   22.7830   48.0330 O   0  0  0  0  0  0  0  0  0  0  0  0
   58.7330   24.3410   46.7170 O   0  0  0  0  0  0  0  0  0  0  0  0
   56.1390   24.8680   46.9790 N   0  0  0  0  0  0  0  0  0  0  0  0
   56.2040   26.1950   46.4440 C   0  0  0  0  0  0  0  0  0  0  0  0
   55.1450   26.7170   46.0040 O   0  0  0  0  0  0  0  0  0  0  0  0
   57.4460   26.9170   46.3820 N   0  0  0  0  0  0  0  0  0  0  0  0
   57.5500   28.2560   45.8630 C   0  0  0  0  0  0  0  0  0  0  0  0
   56.7350   28.6540   44.7880 C   0  0  0  0  0  0  0  0  0  0  0  0
   56.7940   29.9600   44.2970 C   0  0  0  0  0  0  0  0  0  0  0  0
   57.6660   30.8830   44.8710 C   0  0  0  0  0  0  0  0  0  0  0  0
   58.4730   30.5070   45.9470 C   0  0  0  0  0  0  0  0  0  0  0  0
   58.4110   29.2030   46.4710 C   0  0  0  0  0  0  0  0  0  0  0  0
   59.2780   28.8400   47.6230 C   0  0  0  0  0  0  0  0  0  0  0  0
   59.7860   27.6880   47.6690 O   0  0  0  0  0  0  0  0  0  0  0  0
   59.6420   29.8060   48.6850 C   0  0  0  0  0  0  0  0  0  0  0  0
   60.5640   30.7790   48.5730 C   0  0  0  0  0  0  0  0  0  0  0  0
   60.3270   32.0930   47.9400 C   0  0  0  0  0  0  0  0  0  0  0  0
   61.3130   32.6370   47.1040 C   0  0  0  0  0  0  0  0  0  0  0  0
   61.0980   33.8640   46.4650 C   0  0  0  0  0  0  0  0  0  0  0  0
   59.9060   34.5630   46.6780 C   0  0  0  0  0  0  0  0  0  0  0  0
   58.9330   34.0440   47.5390 C   0  0  0  0  0  0  0  0  0  0  0  0
   59.1430   32.8180   48.1770 C   0  0  0  0  0  0  0  0  0  0  0  0
   58.2050   32.3480   49.0380 F   0  0  0  0  0  0  0  0  0  0  0  0
   57.4356   25.2712   44.8371 H   0  0  0  0  0  0  0  0  0  0  0  0
   58.2904   24.9228   43.2961 H   0  0  0  0  0  0  0  0  0  0  0  0
   56.5154   25.1987   43.2961 H   0  0  0  0  0  0  0  0  0  0  0  0
   56.8878   22.9309   41.9374 H   0  0  0  0  0  0  0  0  0  0  0  0
   56.4671   20.4914   42.2058 H   0  0  0  0  0  0  0  0  0  0  0  0
   56.4409   19.4699   44.4787 H   0  0  0  0  0  0  0  0  0  0  0  0
   56.8487   20.8799   46.4895 H   0  0  0  0  0  0  0  0  0  0  0  0
   58.3290   26.4330   46.6550 H   0  0  0  0  0  0  0  0  0  0  0  0
   56.0450   27.9301   44.3299 H   0  0  0  0  0  0  0  0  0  0  0  0
   56.1514   30.2604   43.4563 H   0  0  0  0  0  0  0  0  0  0  0  0
   57.7188   31.9084   44.4763 H   0  0  0  0  0  0  0  0  0  0  0  0
   59.1648   31.2387   46.3897 H   0  0  0  0  0  0  0  0  0  0  0  0
   59.1140   29.7206   49.6462 H   0  0  0  0  0  0  0  0  0  0  0  0
   61.5661   30.5825   48.9819 H   0  0  0  0  0  0  0  0  0  0  0  0
   62.2591   32.0974   46.9498 H   0  0  0  0  0  0  0  0  0  0  0  0
   61.8665   34.2779   45.7957 H   0  0  0  0  0  0  0  0  0  0  0  0
   59.7330   35.5222   46.1680 H   0  0  0  0  0  0  0  0  0  0  0  0
   58.0011   34.6016   47.7142 H   0  0  0  0  0  0  0  0  0  0  0  0
  1  2  1  0
  2  3  2  0
  3  4  1  0
  4  5  2  0
  5  6  1  0
  6  7  2  0
  7  8  1  0
  8  9  2  0
  8 10  2  0
  8 11  1  0
 11 12  1  0
 12 13  2  0
 12 14  1  0
 14 15  1  0
 15 16  2  0
 16 17  1  0
 17 18  2  0
 18 19  1  0
 19 20  2  0
 20 21  1  0
 21 22  2  0
 21 23  1  0
 23 24  2  3
 24 25  1  0
 25 26  2  0
 26 27  1  0
 27 28  2  0
 28 29  1  0
 29 30  2  0
 30 31  1  0
  7  2  1  0
 20 15  1  0
 30 25  1  0
  1 32  1  0
  1 33  1  0
  1 34  1  0
  3 35  1  0
  4 36  1  0
  5 37  1  0
  6 38  1  0
 14 39  1  0
 16 40  1  0
 17 41  1  0
 18 42  1  0
 19 43  1  0
 23 44  1  0
 24 45  1  0
 26 46  1  0
 27 47  1  0
 28 48  1  0
 29 49  1  0
M  CHG  1  11  -1
M  END
>  <UniqueID>  (91) 
84

>  <SMILES>  (91) 
Cc1ccccc1S(=O)(=O)[N-]C(=O)Nc1ccccc1C(=O)C=Cc1ccccc1F

>  <Energy>  (91) 
72.06926461555813

>  <Genealogy>  (91) 
Cc1ccccc1S(=O)(=O)[N-]C(=O)Nc1ccccc1C(=O)C=Cc1ccccc1F (protonated)
Cc1ccccc1S(=O)(=O)[N-]C(=O)Nc1ccccc1C(=O)C=Cc1ccccc1F (3D coordinates assigned)
Cc1ccccc1S(=O)(=O)[N-]C(=O)Nc1ccccc1C(=O)C=Cc1ccccc1F (optimized conformer: 72.06926461555813 kcal/mol)

>  <smiles>  (91) 
Cc1ccccc1S(=O)(=O)NC(=O)Nc1ccccc1C(=O)C=Cc1ccccc1F

>  <score_type>  (91) 
oracle

>  <origin>  (91) 
adg

>  <m_score__min__energy>  (91) 
-12.77

>  <m_primary>  (91) 
energy

$$$$
91:0
     RDKit          3D

 32 34  0  0  0  0  0  0  0  0999 V2000
   56.0560   26.6020   46.3740 O   0  0  0  0  0  0  0  0  0  0  0  0
   57.0320   27.3120   46.0010 C   0  0  0  0  0  0  0  0  0  0  0  0
   56.9200   28.2080   44.8780 N   0  0  0  0  0  0  0  0  0  0  0  0
   56.9720   29.5080   44.8990 C   0  0  0  0  0  0  0  0  0  0  0  0
   55.9120   30.2700   44.5550 N   0  0  0  0  0  0  0  0  0  0  0  0
   56.1540   31.5770   44.6370 N   0  0  0  0  0  0  0  0  0  0  0  0
   57.4090   31.8590   45.0440 C   0  0  0  0  0  0  0  0  0  0  0  0
   58.0140   33.4910   45.2550 S   0  0  0  0  0  0  0  0  0  0  0  0
   59.2070   33.6880   44.3600 O   0  0  0  0  0  0  0  0  0  0  0  0
   56.9530   34.4900   44.8890 O   0  0  0  0  0  0  0  0  0  0  0  0
   58.4950   33.7390   46.9040 N   0  0  0  0  0  0  0  0  0  0  0  0
   59.8450   33.6020   47.3830 C   0  0  0  0  0  0  0  0  0  0  0  0
   60.7070   32.6930   46.7470 C   0  0  0  0  0  0  0  0  0  0  0  0
   62.0230   32.5340   47.1900 C   0  0  0  0  0  0  0  0  0  0  0  0
   62.4950   33.2770   48.2750 C   0  0  0  0  0  0  0  0  0  0  0  0
   64.1440   33.0670   48.8360 Cl  0  0  0  0  0  0  0  0  0  0  0  0
   61.6480   34.1850   48.9180 C   0  0  0  0  0  0  0  0  0  0  0  0
   60.3300   34.3490   48.4750 C   0  0  0  0  0  0  0  0  0  0  0  0
   58.3040   30.4600   45.3280 S   0  0  0  0  0  0  0  0  0  0  0  0
   58.3150   27.1940   46.7060 C   0  0  0  0  0  0  0  0  0  0  0  0
   59.2850   26.2230   46.4820 C   0  0  0  0  0  0  0  0  0  0  0  0
   60.4100   26.3680   47.3050 C   0  0  0  0  0  0  0  0  0  0  0  0
   60.3300   27.4480   48.1750 C   0  0  0  0  0  0  0  0  0  0  0  0
   58.8590   28.2260   47.9210 S   0  0  0  0  0  0  0  0  0  0  0  0
   57.7450   34.0120   47.5750 H   0  0  0  0  0  0  0  0  0  0  0  0
   60.3433   32.1018   45.8937 H   0  0  0  0  0  0  0  0  0  0  0  0
   62.6896   31.8212   46.6825 H   0  0  0  0  0  0  0  0  0  0  0  0
   62.0175   34.7709   49.7725 H   0  0  0  0  0  0  0  0  0  0  0  0
   59.6684   35.0661   48.9830 H   0  0  0  0  0  0  0  0  0  0  0  0
   59.1799   25.4226   45.7348 H   0  0  0  0  0  0  0  0  0  0  0  0
   61.2754   25.6901   47.2657 H   0  0  0  0  0  0  0  0  0  0  0  0
   61.0972   27.7443   48.9055 H   0  0  0  0  0  0  0  0  0  0  0  0
  1  2  2  0
  2  3  1  0
  3  4  2  3
  4  5  1  0
  5  6  1  0
  6  7  2  0
  7  8  1  0
  8  9  2  0
  8 10  2  0
  8 11  1  0
 11 12  1  0
 12 13  2  0
 13 14  1  0
 14 15  2  0
 15 16  1  0
 15 17  1  0
 17 18  2  0
  7 19  1  0
  2 20  1  0
 20 21  2  0
 21 22  1  0
 22 23  2  0
 23 24  1  0
 19  4  1  0
 24 20  1  0
 18 12  1  0
 11 25  1  0
 13 26  1  0
 14 27  1  0
 17 28  1  0
 18 29  1  0
 21 30  1  0
 22 31  1  0
 23 32  1  0
M  CHG  1   5  -1
M  END
>  <UniqueID>  (92) 
85

>  <SMILES>  (92) 
O=C(N=c1[n-]nc(S(=O)(=O)Nc2ccc(Cl)cc2)s1)c1cccs1

>  <Energy>  (92) 
100.22356331016977

>  <Genealogy>  (92) 
O=C(N=c1[n-]nc(S(=O)(=O)Nc2ccc(Cl)cc2)s1)c1cccs1 (protonated)
O=C(N=c1[n-]nc(S(=O)(=O)Nc2ccc(Cl)cc2)s1)c1cccs1 (3D coordinates assigned)
O=C(N=c1[n-]nc(S(=O)(=O)Nc2ccc(Cl)cc2)s1)c1cccs1 (optimized conformer: 100.22356331016977 kcal/mol)

>  <smiles>  (92) 
O=C(N=c1[nH]nc(S(=O)(=O)Nc2ccc(Cl)cc2)s1)c1cccs1

>  <score_type>  (92) 
oracle

>  <origin>  (92) 
adg

>  <m_score__min__energy>  (92) 
-10.130000000000001

>  <m_primary>  (92) 
energy

$$$$
92:0
     RDKit          3D

 52 54  0  0  0  0  0  0  0  0999 V2000
   56.2900   22.6280   42.6570 C   0  0  0  0  0  0  0  0  0  0  0  0
   56.8670   21.3340   43.2330 C   0  0  0  0  0  0  0  0  0  0  0  0
   58.0860   21.5820   44.1400 C   0  0  0  0  0  0  0  0  0  0  0  0
   57.7170   21.9360   45.5910 C   0  0  0  0  0  0  0  0  0  0  0  0
   56.9680   23.2070   45.6850 N   0  0  0  0  0  0  0  0  0  0  0  0
   55.6550   23.1970   46.0840 C   0  0  0  0  0  0  0  0  0  0  0  0
   55.0750   22.1150   46.3690 O   0  0  0  0  0  0  0  0  0  0  0  0
   54.9580   24.3570   46.1790 N   0  0  0  0  0  0  0  0  0  0  0  0
   55.5300   25.5530   45.9050 C   0  0  0  0  0  0  0  0  0  0  0  0
   54.7720   26.7140   46.0240 O   0  0  0  0  0  0  0  0  0  0  0  0
   56.8720   25.6140   45.5230 C   0  0  0  0  0  0  0  0  0  0  0  0
   57.4900   26.9320   45.2310 C   0  0  0  0  0  0  0  0  0  0  0  0
   57.1810   28.0790   45.8560 C   0  0  0  0  0  0  0  0  0  0  0  0
   58.1690   29.0400   46.3910 C   0  0  0  0  0  0  0  0  0  0  0  0
   59.1700   28.6400   47.2940 C   0  0  0  0  0  0  0  0  0  0  0  0
   60.1280   29.5560   47.7350 C   0  0  0  0  0  0  0  0  0  0  0  0
   60.1050   30.8790   47.2750 C   0  0  0  0  0  0  0  0  0  0  0  0
   61.1570   31.8180   47.7160 C   0  0  0  0  0  0  0  0  0  0  0  0
   61.2680   32.3110   48.9600 C   0  0  0  0  0  0  0  0  0  0  0  0
   60.1510   32.4520   49.9230 C   0  0  0  0  0  0  0  0  0  0  0  0
   59.9840   33.6180   50.6920 C   0  0  0  0  0  0  0  0  0  0  0  0
   58.9290   33.7160   51.6040 C   0  0  0  0  0  0  0  0  0  0  0  0
   58.0450   32.6430   51.7770 C   0  0  0  0  0  0  0  0  0  0  0  0
   56.9900   32.7360   52.6840 O   0  0  0  0  0  0  0  0  0  0  0  0
   58.2260   31.4690   51.0360 C   0  0  0  0  0  0  0  0  0  0  0  0
   57.3600   30.3960   51.2090 O   0  0  0  0  0  0  0  0  0  0  0  0
   59.2800   31.3700   50.1220 C   0  0  0  0  0  0  0  0  0  0  0  0
   59.0600   31.2970   46.4330 C   0  0  0  0  0  0  0  0  0  0  0  0
   58.0980   30.3830   45.9970 C   0  0  0  0  0  0  0  0  0  0  0  0
   57.5770   24.4020   45.3810 C   0  0  0  0  0  0  0  0  0  0  0  0
   58.7630   24.4200   44.9500 O   0  0  0  0  0  0  0  0  0  0  0  0
   55.9926   23.2949   43.4796 H   0  0  0  0  0  0  0  0  0  0  0  0
   57.0515   23.1256   42.0385 H   0  0  0  0  0  0  0  0  0  0  0  0
   55.4109   22.3941   42.0385 H   0  0  0  0  0  0  0  0  0  0  0  0
   56.0858   20.8315   43.8222 H   0  0  0  0  0  0  0  0  0  0  0  0
   57.2006   20.7129   42.3886 H   0  0  0  0  0  0  0  0  0  0  0  0
   58.7016   20.6704   44.1510 H   0  0  0  0  0  0  0  0  0  0  0  0
   58.6237   22.4474   43.7254 H   0  0  0  0  0  0  0  0  0  0  0  0
   57.0962   21.1280   46.0054 H   0  0  0  0  0  0  0  0  0  0  0  0
   58.6527   22.0540   46.1571 H   0  0  0  0  0  0  0  0  0  0  0  0
   58.2579   26.9714   44.4443 H   0  0  0  0  0  0  0  0  0  0  0  0
   56.1152   28.3216   45.9791 H   0  0  0  0  0  0  0  0  0  0  0  0
   59.1988   27.6012   47.6547 H   0  0  0  0  0  0  0  0  0  0  0  0
   60.9038   29.2371   48.4466 H   0  0  0  0  0  0  0  0  0  0  0  0
   61.9024   32.1359   46.9722 H   0  0  0  0  0  0  0  0  0  0  0  0
   62.2660   32.6355   49.2898 H   0  0  0  0  0  0  0  0  0  0  0  0
   60.6866   34.4563   50.5752 H   0  0  0  0  0  0  0  0  0  0  0  0
   58.7926   34.6384   52.1876 H   0  0  0  0  0  0  0  0  0  0  0  0
   56.3520   31.9630   52.8330 H   0  0  0  0  0  0  0  0  0  0  0  0
   59.4270   30.4384   49.5558 H   0  0  0  0  0  0  0  0  0  0  0  0
   58.9995   32.3486   46.1160 H   0  0  0  0  0  0  0  0  0  0  0  0
   57.2810   30.7188   45.3415 H   0  0  0  0  0  0  0  0  0  0  0  0
  1  2  1  0
  2  3  1  0
  3  4  1  0
  4  5  1  0
  5  6  1  0
  6  7  2  0
  6  8  1  0
  8  9  1  0
  9 10  1  0
  9 11  2  0
 11 12  1  0
 12 13  2  3
 13 14  1  0
 14 15  2  0
 15 16  1  0
 16 17  2  0
 17 18  1  0
 18 19  2  3
 19 20  1  0
 20 21  2  0
 21 22  1  0
 22 23  2  0
 23 24  1  0
 23 25  1  0
 25 26  1  0
 25 27  2  0
 17 28  1  0
 28 29  2  0
 11 30  1  0
 30 31  2  0
 30  5  1  0
 29 14  1  0
 27 20  1  0
  1 32  1  0
  1 33  1  0
  1 34  1  0
  2 35  1  0
  2 36  1  0
  3 37  1  0
  3 38  1  0
  4 39  1  0
  4 40  1  0
 12 41  1  0
 13 42  1  0
 15 43  1  0
 16 44  1  0
 18 45  1  0
 19 46  1  0
 21 47  1  0
 22 48  1  0
 24 49  1  0
 27 50  1  0
 28 51  1  0
 29 52  1  0
M  CHG  3   8  -1  10  -1  26  -1
M  END
>  <UniqueID>  (93) 
86

>  <SMILES>  (93) 
CCCCn1c(=O)[n-]c([O-])c(C=Cc2ccc(C=Cc3ccc(O)c([O-])c3)cc2)c1=O

>  <Energy>  (93) 
73.50656658807722

>  <Genealogy>  (93) 
CCCCn1c(=O)[n-]c([O-])c(C=Cc2ccc(C=Cc3ccc(O)c([O-])c3)cc2)c1=O (protonated)
CCCCn1c(=O)[n-]c([O-])c(C=Cc2ccc(C=Cc3ccc(O)c([O-])c3)cc2)c1=O (3D coordinates assigned)
CCCCn1c(=O)[n-]c([O-])c(C=Cc2ccc(C=Cc3ccc(O)c([O-])c3)cc2)c1=O (optimized conformer: 73.50656658807722 kcal/mol)

>  <smiles>  (93) 
CCCCn1c(=O)[nH]c(O)c(C=Cc2ccc(C=Cc3ccc(O)c(O)c3)cc2)c1=O

>  <score_type>  (93) 
oracle

>  <origin>  (93) 
adg

>  <m_score__min__energy>  (93) 
-15.449999999999999

>  <m_primary>  (93) 
energy

$$$$
93:0
     RDKit          3D

 38 40  0  0  0  0  0  0  0  0999 V2000
   54.3540   25.6740   45.6150 O   0  0  0  0  0  0  0  0  0  0  0  0
   55.5550   25.3550   45.8190 C   0  0  0  0  0  0  0  0  0  0  0  0
   56.2910   26.0630   46.8260 N   0  0  0  0  0  0  0  0  0  0  0  0
   57.6060   26.6210   46.6810 C   0  0  0  0  0  0  0  0  0  0  0  0
   58.7160   25.8030   46.9120 C   0  0  0  0  0  0  0  0  0  0  0  0
   60.0100   26.3140   46.7760 C   0  0  0  0  0  0  0  0  0  0  0  0
   60.2030   27.6530   46.4300 C   0  0  0  0  0  0  0  0  0  0  0  0
   59.0980   28.5030   46.2400 C   0  0  0  0  0  0  0  0  0  0  0  0
   59.2660   29.8810   45.8690 N   0  0  0  0  0  0  0  0  0  0  0  0
   58.1790   30.7550   45.5140 C   0  0  0  0  0  0  0  0  0  0  0  0
   57.0480   30.2720   45.2330 O   0  0  0  0  0  0  0  0  0  0  0  0
   58.3930   32.2170   45.4380 C   0  0  0  0  0  0  0  0  0  0  0  0
   57.3900   33.0720   44.9490 C   0  0  0  0  0  0  0  0  0  0  0  0
   57.6260   34.4470   44.8960 C   0  0  0  0  0  0  0  0  0  0  0  0
   58.8480   34.9610   45.3310 C   0  0  0  0  0  0  0  0  0  0  0  0
   59.8220   34.0860   45.8140 C   0  0  0  0  0  0  0  0  0  0  0  0
   59.5750   32.7500   45.8580 N   0  0  0  0  0  0  0  0  0  0  0  0
   57.8020   27.9770   46.3610 C   0  0  0  0  0  0  0  0  0  0  0  0
   56.1480   24.2330   45.0530 C   0  0  0  0  0  0  0  0  0  0  0  0
   57.3340   23.6240   45.5000 C   0  0  0  0  0  0  0  0  0  0  0  0
   57.8980   22.5620   44.7850 C   0  0  0  0  0  0  0  0  0  0  0  0
   59.0350   21.9760   45.2320 F   0  0  0  0  0  0  0  0  0  0  0  0
   57.2900   22.1070   43.6110 C   0  0  0  0  0  0  0  0  0  0  0  0
   57.8370   21.0760   42.9190 F   0  0  0  0  0  0  0  0  0  0  0  0
   56.1190   22.7160   43.1500 C   0  0  0  0  0  0  0  0  0  0  0  0
   55.5330   22.2820   42.0060 F   0  0  0  0  0  0  0  0  0  0  0  0
   55.5540   23.7770   43.8620 C   0  0  0  0  0  0  0  0  0  0  0  0
   58.5704   24.7520   47.2022 H   0  0  0  0  0  0  0  0  0  0  0  0
   60.8785   25.6596   46.9420 H   0  0  0  0  0  0  0  0  0  0  0  0
   61.2232   28.0449   46.3055 H   0  0  0  0  0  0  0  0  0  0  0  0
   60.2420   30.2410   45.7690 H   0  0  0  0  0  0  0  0  0  0  0  0
   56.4273   32.6611   44.6109 H   0  0  0  0  0  0  0  0  0  0  0  0
   56.8493   35.1245   44.5117 H   0  0  0  0  0  0  0  0  0  0  0  0
   59.0414   36.0432   45.2937 H   0  0  0  0  0  0  0  0  0  0  0  0
   60.7902   34.4777   46.1593 H   0  0  0  0  0  0  0  0  0  0  0  0
   56.9316   28.6311   46.2042 H   0  0  0  0  0  0  0  0  0  0  0  0
   57.8214   23.9849   46.4177 H   0  0  0  0  0  0  0  0  0  0  0  0
   54.6384   24.2591   43.4888 H   0  0  0  0  0  0  0  0  0  0  0  0
  1  2  2  0
  2  3  1  0
  3  4  1  0
  4  5  2  0
  5  6  1  0
  6  7  2  0
  7  8  1  0
  8  9  1  0
  9 10  1  0
 10 11  2  0
 10 12  1  0
 12 13  2  0
 13 14  1  0
 14 15  2  0
 15 16  1  0
 16 17  2  0
  8 18  2  0
  2 19  1  0
 19 20  2  0
 20 21  1  0
 21 22  1  0
 21 23  2  0
 23 24  1  0
 23 25  1  0
 25 26  1  0
 25 27  2  0
 18  4  1  0
 27 19  1  0
 17 12  1  0
  5 28  1  0
  6 29  1  0
  7 30  1  0
  9 31  1  0
 13 32  1  0
 14 33  1  0
 15 34  1  0
 16 35  1  0
 18 36  1  0
 20 37  1  0
 27 38  1  0
M  CHG  1   3  -1
M  END
>  <UniqueID>  (94) 
87

>  <SMILES>  (94) 
O=C([N-]c1cccc(NC(=O)c2ccccn2)c1)c1cc(F)c(F)c(F)c1

>  <Energy>  (94) 
52.480102532223185

>  <Genealogy>  (94) 
O=C([N-]c1cccc(NC(=O)c2ccccn2)c1)c1cc(F)c(F)c(F)c1 (protonated)
O=C([N-]c1cccc(NC(=O)c2ccccn2)c1)c1cc(F)c(F)c(F)c1 (3D coordinates assigned)
O=C([N-]c1cccc(NC(=O)c2ccccn2)c1)c1cc(F)c(F)c(F)c1 (optimized conformer: 52.480102532223185 kcal/mol)

>  <smiles>  (94) 
O=C(Nc1cccc(NC(=O)c2ccccn2)c1)c1cc(F)c(F)c(F)c1

>  <score_type>  (94) 
oracle

>  <origin>  (94) 
adg

>  <m_score__min__energy>  (94) 
-9.9000000000000004

>  <m_primary>  (94) 
energy

$$$$
94:0
     RDKit          3D

 47 50  0  0  0  0  0  0  0  0999 V2000
   58.3830   32.5630   43.9840 O   0  0  0  0  0  0  0  0  0  0  0  0
   57.4690   32.4580   44.8470 C   0  0  0  0  0  0  0  0  0  0  0  0
   57.3650   33.4900   45.9360 C   0  0  0  0  0  0  0  0  0  0  0  0
   58.2700   33.1390   47.0340 N   0  0  0  0  0  0  0  0  0  0  0  0
   57.8420   32.7270   48.2240 N   0  0  0  0  0  0  0  0  0  0  0  0
   58.9090   32.6080   49.0500 C   0  0  0  0  0  0  0  0  0  0  0  0
   60.0400   32.9720   48.3500 C   0  0  0  0  0  0  0  0  0  0  0  0
   61.3730   33.0800   48.7360 C   0  0  0  0  0  0  0  0  0  0  0  0
   62.2940   33.5240   47.7710 C   0  0  0  0  0  0  0  0  0  0  0  0
   61.8630   33.8390   46.4600 C   0  0  0  0  0  0  0  0  0  0  0  0
   60.5050   33.7240   46.1070 C   0  0  0  0  0  0  0  0  0  0  0  0
   59.6110   33.2910   47.0910 C   0  0  0  0  0  0  0  0  0  0  0  0
   56.6400   31.2900   44.8380 N   0  0  0  0  0  0  0  0  0  0  0  0
   57.0420   30.0130   45.3410 C   0  0  0  0  0  0  0  0  0  0  0  0
   58.2810   29.8860   45.9800 C   0  0  0  0  0  0  0  0  0  0  0  0
   58.6960   28.6440   46.4850 C   0  0  0  0  0  0  0  0  0  0  0  0
   60.2510   28.4910   47.3100 S   0  0  0  0  0  0  0  0  0  0  0  0
   60.9340   27.2300   46.8530 O   0  0  0  0  0  0  0  0  0  0  0  0
   61.1280   29.6540   46.9360 O   0  0  0  0  0  0  0  0  0  0  0  0
   60.0540   28.4520   49.0500 N   0  0  0  0  0  0  0  0  0  0  0  0
   60.8050   27.3180   49.6270 C   0  0  0  0  0  0  0  0  0  0  0  0
   61.0800   27.5510   51.1230 C   0  0  0  0  0  0  0  0  0  0  0  0
   61.8330   28.7270   51.4010 O   0  0  0  0  0  0  0  0  0  0  0  0
   61.7680   29.7050   50.3740 C   0  0  0  0  0  0  0  0  0  0  0  0
   60.4020   29.7500   49.6670 C   0  0  0  0  0  0  0  0  0  0  0  0
   57.8660   27.5230   46.3310 C   0  0  0  0  0  0  0  0  0  0  0  0
   56.6400   27.6410   45.6690 C   0  0  0  0  0  0  0  0  0  0  0  0
   56.2280   28.8800   45.1660 C   0  0  0  0  0  0  0  0  0  0  0  0
   55.0200   28.9760   44.4850 O   0  0  0  0  0  0  0  0  0  0  0  0
   57.6422   34.4757   45.5340 H   0  0  0  0  0  0  0  0  0  0  0  0
   56.3313   33.5227   46.3108 H   0  0  0  0  0  0  0  0  0  0  0  0
   58.8785   32.2778   50.0988 H   0  0  0  0  0  0  0  0  0  0  0  0
   61.6937   32.8275   49.7575 H   0  0  0  0  0  0  0  0  0  0  0  0
   63.3565   33.6273   48.0365 H   0  0  0  0  0  0  0  0  0  0  0  0
   62.5948   34.1763   45.7112 H   0  0  0  0  0  0  0  0  0  0  0  0
   60.1590   33.9666   45.0914 H   0  0  0  0  0  0  0  0  0  0  0  0
   58.9334   30.7651   46.0870 H   0  0  0  0  0  0  0  0  0  0  0  0
   60.2157   26.3969   49.5076 H   0  0  0  0  0  0  0  0  0  0  0  0
   61.7669   27.2274   49.1011 H   0  0  0  0  0  0  0  0  0  0  0  0
   60.1140   27.6286   51.6435 H   0  0  0  0  0  0  0  0  0  0  0  0
   61.6835   26.6994   51.4702 H   0  0  0  0  0  0  0  0  0  0  0  0
   61.9648   30.6920   50.8179 H   0  0  0  0  0  0  0  0  0  0  0  0
   62.5196   29.4356   49.6173 H   0  0  0  0  0  0  0  0  0  0  0  0
   59.6289   30.0111   50.4046 H   0  0  0  0  0  0  0  0  0  0  0  0
   60.4587   30.5022   48.8664 H   0  0  0  0  0  0  0  0  0  0  0  0
   58.1808   26.5484   46.7323 H   0  0  0  0  0  0  0  0  0  0  0  0
   55.9975   26.7571   45.5433 H   0  0  0  0  0  0  0  0  0  0  0  0
  1  2  2  0
  2  3  1  0
  3  4  1  0
  4  5  1  0
  5  6  2  0
  6  7  1  0
  7  8  2  0
  8  9  1  0
  9 10  2  0
 10 11  1  0
 11 12  2  0
  2 13  1  0
 13 14  1  0
 14 15  2  0
 15 16  1  0
 16 17  1  0
 17 18  2  0
 17 19  2  0
 17 20  1  0
 20 21  1  0
 21 22  1  0
 22 23  1  0
 23 24  1  0
 24 25  1  0
 16 26  2  0
 26 27  1  0
 27 28  2  0
 28 29  1  0
 12  4  1  0
 28 14  1  0
 12  7  1  0
 25 20  1  0
  3 30  1  0
  3 31  1  0
  6 32  1  0
  8 33  1  0
  9 34  1  0
 10 35  1  0
 11 36  1  0
 15 37  1  0
 21 38  1  0
 21 39  1  0
 22 40  1  0
 22 41  1  0
 24 42  1  0
 24 43  1  0
 25 44  1  0
 25 45  1  0
 26 46  1  0
 27 47  1  0
M  CHG  2  13  -1  29  -1
M  END
>  <UniqueID>  (95) 
88

>  <SMILES>  (95) 
O=C(Cn1ncc2ccccc21)[N-]c1cc(S(=O)(=O)N2CCOCC2)ccc1[O-]

>  <Energy>  (95) 
103.14789825999014

>  <Genealogy>  (95) 
O=C(Cn1ncc2ccccc21)[N-]c1cc(S(=O)(=O)N2CCOCC2)ccc1[O-] (protonated)
O=C(Cn1ncc2ccccc21)[N-]c1cc(S(=O)(=O)N2CCOCC2)ccc1[O-] (3D coordinates assigned)
O=C(Cn1ncc2ccccc21)[N-]c1cc(S(=O)(=O)N2CCOCC2)ccc1[O-] (nonaromatic ring conformer: 103.14789825999014 kcal/mol)

>  <smiles>  (95) 
O=C(Cn1ncc2ccccc21)Nc1cc(S(=O)(=O)N2CCOCC2)ccc1O

>  <score_type>  (95) 
oracle

>  <origin>  (95) 
adg

>  <m_score__min__energy>  (95) 
-14.050000000000001

>  <m_primary>  (95) 
energy

$$$$
95:0
     RDKit          3D

 44 46  0  0  0  0  0  0  0  0999 V2000
   54.5380   26.1670   45.9660 N   0  0  0  0  0  0  0  0  0  0  0  0
   55.9490   25.1770   46.0850 S   0  0  0  0  0  0  0  0  0  0  0  0
   56.0740   24.3250   44.8530 O   0  0  0  0  0  0  0  0  0  0  0  0
   55.8270   24.2790   47.2860 O   0  0  0  0  0  0  0  0  0  0  0  0
   57.3720   26.2030   46.2320 C   0  0  0  0  0  0  0  0  0  0  0  0
   58.5700   25.6970   46.7550 C   0  0  0  0  0  0  0  0  0  0  0  0
   59.6830   26.5300   46.8880 C   0  0  0  0  0  0  0  0  0  0  0  0
   59.6070   27.8720   46.5070 C   0  0  0  0  0  0  0  0  0  0  0  0
   58.4120   28.3950   45.9840 C   0  0  0  0  0  0  0  0  0  0  0  0
   58.3150   29.8240   45.6030 C   0  0  0  0  0  0  0  0  0  0  0  0
   57.1600   30.3180   44.9710 C   0  0  0  0  0  0  0  0  0  0  0  0
   57.0330   31.6790   44.6890 C   0  0  0  0  0  0  0  0  0  0  0  0
   58.0530   32.5740   45.0480 C   0  0  0  0  0  0  0  0  0  0  0  0
   57.8580   34.0590   44.8920 C   0  0  0  0  0  0  0  0  0  0  0  0
   59.1140   34.7830   45.1510 N   0  0  0  0  0  0  0  0  0  0  0  0
   59.2700   35.1680   46.5650 C   0  0  0  0  0  0  0  0  0  0  0  0
   60.4580   34.4790   47.1900 C   0  0  0  0  0  0  0  0  0  0  0  0
   60.4630   34.1670   48.5610 C   0  0  0  0  0  0  0  0  0  0  0  0
   61.5410   33.4770   49.1230 C   0  0  0  0  0  0  0  0  0  0  0  0
   62.6280   33.1060   48.3270 C   0  0  0  0  0  0  0  0  0  0  0  0
   62.6440   33.4370   46.9690 C   0  0  0  0  0  0  0  0  0  0  0  0
   61.5690   34.1270   46.4030 C   0  0  0  0  0  0  0  0  0  0  0  0
   59.2280   32.0780   45.6320 C   0  0  0  0  0  0  0  0  0  0  0  0
   59.3580   30.7160   45.9100 C   0  0  0  0  0  0  0  0  0  0  0  0
   57.2960   27.5490   45.8500 C   0  0  0  0  0  0  0  0  0  0  0  0
   54.7680   27.0830   46.4140 H   0  0  0  0  0  0  0  0  0  0  0  0
   58.6336   24.6424   47.0611 H   0  0  0  0  0  0  0  0  0  0  0  0
   60.6229   26.1280   47.2942 H   0  0  0  0  0  0  0  0  0  0  0  0
   60.4871   28.5227   46.6170 H   0  0  0  0  0  0  0  0  0  0  0  0
   56.3500   29.6261   44.6967 H   0  0  0  0  0  0  0  0  0  0  0  0
   56.1300   32.0518   44.1834 H   0  0  0  0  0  0  0  0  0  0  0  0
   57.5239   34.2727   43.8660 H   0  0  0  0  0  0  0  0  0  0  0  0
   57.1030   34.3930   45.6188 H   0  0  0  0  0  0  0  0  0  0  0  0
   59.0800   35.6670   44.5910 H   0  0  0  0  0  0  0  0  0  0  0  0
   59.4133   36.2569   46.6267 H   0  0  0  0  0  0  0  0  0  0  0  0
   58.3644   34.8645   47.1107 H   0  0  0  0  0  0  0  0  0  0  0  0
   59.6150   34.4672   49.1940 H   0  0  0  0  0  0  0  0  0  0  0  0
   61.5336   33.2256   50.1939 H   0  0  0  0  0  0  0  0  0  0  0  0
   63.4706   32.5538   48.7688 H   0  0  0  0  0  0  0  0  0  0  0  0
   63.5044   33.1538   46.3449 H   0  0  0  0  0  0  0  0  0  0  0  0
   61.5918   34.3962   45.3367 H   0  0  0  0  0  0  0  0  0  0  0  0
   60.0518   32.7662   45.8723 H   0  0  0  0  0  0  0  0  0  0  0  0
   60.2820   30.3382   46.3720 H   0  0  0  0  0  0  0  0  0  0  0  0
   56.3555   27.9476   45.4418 H   0  0  0  0  0  0  0  0  0  0  0  0
  1  2  1  0
  2  3  2  0
  2  4  2  0
  2  5  1  0
  5  6  2  0
  6  7  1  0
  7  8  2  0
  8  9  1  0
  9 10  1  0
 10 11  2  0
 11 12  1  0
 12 13  2  0
 13 14  1  0
 14 15  1  0
 15 16  1  0
 16 17  1  0
 17 18  2  0
 18 19  1  0
 19 20  2  0
 20 21  1  0
 21 22  2  0
 13 23  1  0
 23 24  2  0
  9 25  2  0
 25  5  1  0
 24 10  1  0
 22 17  1  0
  1 26  1  0
  6 27  1  0
  7 28  1  0
  8 29  1  0
 11 30  1  0
 12 31  1  0
 14 32  1  0
 14 33  1  0
 15 34  1  0
 16 35  1  0
 16 36  1  0
 18 37  1  0
 19 38  1  0
 20 39  1  0
 21 40  1  0
 22 41  1  0
 23 42  1  0
 24 43  1  0
 25 44  1  0
M  CHG  1   1  -1
M  END
>  <UniqueID>  (96) 
89

>  <SMILES>  (96) 
[NH-]S(=O)(=O)c1cccc(-c2ccc(CNCc3ccccc3)cc2)c1

>  <Energy>  (96) 
47.16170733831855

>  <Genealogy>  (96) 
[NH-]S(=O)(=O)c1cccc(-c2ccc(CNCc3ccccc3)cc2)c1 (protonated)
[NH-]S(=O)(=O)c1cccc(-c2ccc(CNCc3ccccc3)cc2)c1 (3D coordinates assigned)
[NH-]S(=O)(=O)c1cccc(-c2ccc(CNCc3ccccc3)cc2)c1 (optimized conformer: 47.16170733831855 kcal/mol)

>  <smiles>  (96) 
NS(=O)(=O)c1cccc(-c2ccc(CNCc3ccccc3)cc2)c1

>  <score_type>  (96) 
oracle

>  <origin>  (96) 
adg

>  <m_score__min__energy>  (96) 
-12.109999999999999

>  <m_primary>  (96) 
energy

$$$$
96:0
     RDKit          3D

 53 56  0  0  0  0  0  0  0  0999 V2000
   58.9420   25.3380   45.7970 C   0  0  0  0  0  0  0  0  0  0  0  0
   57.4370   25.5140   45.7960 C   0  0  0  0  0  0  0  0  0  0  0  0
   56.8700   26.7920   46.0320 C   0  0  0  0  0  0  0  0  0  0  0  0
   57.6870   28.0270   46.3310 C   0  0  0  0  0  0  0  0  0  0  0  0
   57.4760   29.0650   45.2600 C   0  0  0  0  0  0  0  0  0  0  0  0
   57.0210   28.6880   43.9890 C   0  0  0  0  0  0  0  0  0  0  0  0
   56.8750   29.6430   42.9830 C   0  0  0  0  0  0  0  0  0  0  0  0
   57.1900   30.9850   43.2200 C   0  0  0  0  0  0  0  0  0  0  0  0
   57.0990   31.8720   42.1460 O   0  0  0  0  0  0  0  0  0  0  0  0
   57.6200   31.3880   44.5100 C   0  0  0  0  0  0  0  0  0  0  0  0
   57.8830   32.8030   44.8550 C   0  0  0  0  0  0  0  0  0  0  0  0
   58.5050   33.5500   44.0520 O   0  0  0  0  0  0  0  0  0  0  0  0
   57.3740   33.3420   46.0810 N   0  0  0  0  0  0  0  0  0  0  0  0
   58.2180   33.9180   47.1210 C   0  0  0  0  0  0  0  0  0  0  0  0
   59.1090   32.8410   47.7420 C   0  0  0  0  0  0  0  0  0  0  0  0
   60.5490   33.0930   47.4110 C   0  0  0  0  0  0  0  0  0  0  0  0
   61.0360   33.8310   46.3350 C   0  0  0  0  0  0  0  0  0  0  0  0
   62.3850   33.9100   46.3900 N   0  0  0  0  0  0  0  0  0  0  0  0
   62.7530   33.2400   47.4960 C   0  0  0  0  0  0  0  0  0  0  0  0
   64.0460   33.0630   47.9860 C   0  0  0  0  0  0  0  0  0  0  0  0
   64.2020   32.3390   49.1840 C   0  0  0  0  0  0  0  0  0  0  0  0
   63.0750   31.8170   49.8570 C   0  0  0  0  0  0  0  0  0  0  0  0
   61.7820   32.0130   49.3390 C   0  0  0  0  0  0  0  0  0  0  0  0
   61.6600   32.7310   48.1490 C   0  0  0  0  0  0  0  0  0  0  0  0
   57.7790   30.4120   45.5100 C   0  0  0  0  0  0  0  0  0  0  0  0
   55.5180   26.9320   46.0080 N   0  0  0  0  0  0  0  0  0  0  0  0
   54.7030   25.9090   45.7710 N   0  0  0  0  0  0  0  0  0  0  0  0
   55.1740   24.6610   45.5380 C   0  0  0  0  0  0  0  0  0  0  0  0
   54.3530   23.7300   45.3200 O   0  0  0  0  0  0  0  0  0  0  0  0
   56.5620   24.4240   45.5410 C   0  0  0  0  0  0  0  0  0  0  0  0
   57.0900   23.0320   45.2710 C   0  0  0  0  0  0  0  0  0  0  0  0
   59.3055   25.2955   46.8343 H   0  0  0  0  0  0  0  0  0  0  0  0
   59.2022   24.4033   45.2787 H   0  0  0  0  0  0  0  0  0  0  0  0
   59.4108   26.1874   45.2787 H   0  0  0  0  0  0  0  0  0  0  0  0
   57.3781   28.4400   47.3026 H   0  0  0  0  0  0  0  0  0  0  0  0
   58.7520   27.7534   46.3594 H   0  0  0  0  0  0  0  0  0  0  0  0
   56.7781   27.6349   43.7841 H   0  0  0  0  0  0  0  0  0  0  0  0
   56.5080   29.3373   41.9921 H   0  0  0  0  0  0  0  0  0  0  0  0
   57.4280   32.8270   42.1810 H   0  0  0  0  0  0  0  0  0  0  0  0
   58.8510   34.7026   46.6809 H   0  0  0  0  0  0  0  0  0  0  0  0
   57.5761   34.3458   47.9052 H   0  0  0  0  0  0  0  0  0  0  0  0
   58.9818   32.8522   48.8346 H   0  0  0  0  0  0  0  0  0  0  0  0
   58.8176   31.8614   47.3353 H   0  0  0  0  0  0  0  0  0  0  0  0
   60.4118   34.2853   45.5514 H   0  0  0  0  0  0  0  0  0  0  0  0
   63.0090   34.4060   45.7160 H   0  0  0  0  0  0  0  0  0  0  0  0
   64.9162   33.4754   47.4543 H   0  0  0  0  0  0  0  0  0  0  0  0
   65.2083   32.1789   49.5984 H   0  0  0  0  0  0  0  0  0  0  0  0
   63.2094   31.2536   50.7922 H   0  0  0  0  0  0  0  0  0  0  0  0
   60.8965   31.6135   49.8550 H   0  0  0  0  0  0  0  0  0  0  0  0
   58.1465   30.7092   46.5033 H   0  0  0  0  0  0  0  0  0  0  0  0
   57.2836   22.5216   46.2260 H   0  0  0  0  0  0  0  0  0  0  0  0
   56.3454   22.4627   44.6953 H   0  0  0  0  0  0  0  0  0  0  0  0
   58.0249   23.0997   44.6953 H   0  0  0  0  0  0  0  0  0  0  0  0
  1  2  1  0
  2  3  1  0
  3  4  1  0
  4  5  1  0
  5  6  2  0
  6  7  1  0
  7  8  2  0
  8  9  1  0
  8 10  1  0
 10 11  1  0
 11 12  2  0
 11 13  1  0
 13 14  1  0
 14 15  1  0
 15 16  1  0
 16 17  2  0
 17 18  1  0
 18 19  1  0
 19 20  2  0
 20 21  1  0
 21 22  2  0
 22 23  1  0
 23 24  2  0
 10 25  2  0
  3 26  2  0
 26 27  1  0
 27 28  1  0
 28 29  2  0
 28 30  1  0
 30 31  1  0
 30  2  2  0
 25  5  1  0
 24 16  1  0
 24 19  1  0
  1 32  1  0
  1 33  1  0
  1 34  1  0
  4 35  1  0
  4 36  1  0
  6 37  1  0
  7 38  1  0
  9 39  1  0
 14 40  1  0
 14 41  1  0
 15 42  1  0
 15 43  1  0
 17 44  1  0
 18 45  1  0
 20 46  1  0
 21 47  1  0
 22 48  1  0
 23 49  1  0
 25 50  1  0
 31 51  1  0
 31 52  1  0
 31 53  1  0
M  CHG  2  13  -1  27  -1
M  END
>  <UniqueID>  (97) 
90

>  <SMILES>  (97) 
Cc1c(Cc2ccc(O)c(C(=O)[N-]CCc3c[nH]c4ccccc34)c2)n[n-]c(=O)c1C

>  <Energy>  (97) 
96.26823590180705

>  <Genealogy>  (97) 
Cc1c(Cc2ccc(O)c(C(=O)[N-]CCc3c[nH]c4ccccc34)c2)n[n-]c(=O)c1C (protonated)
Cc1c(Cc2ccc(O)c(C(=O)[N-]CCc3c[nH]c4ccccc34)c2)n[n-]c(=O)c1C (3D coordinates assigned)
Cc1c(Cc2ccc(O)c(C(=O)[N-]CCc3c[nH]c4ccccc34)c2)n[n-]c(=O)c1C (optimized conformer: 96.26823590180705 kcal/mol)

>  <smiles>  (97) 
Cc1c(Cc2ccc(O)c(C(=O)NCCc3c[nH]c4ccccc34)c2)n[nH]c(=O)c1C

>  <score_type>  (97) 
oracle

>  <origin>  (97) 
adg

>  <m_score__min__energy>  (97) 
-12.960000000000001

>  <m_primary>  (97) 
energy

$$$$
