0:0
     RDKit          3D

 41 42  0  0  0  0  0  0  0  0999 V2000
   55.6840   23.9380   44.4650 C   0  0  0  0  0  0  0  0  0  0  0  0
   55.6220   24.8060   46.0160 S   0  0  0  0  0  0  0  0  0  0  0  0
   55.0970   23.8780   47.0740 O   0  0  0  0  0  0  0  0  0  0  0  0
   54.7170   25.9980   45.8830 O   0  0  0  0  0  0  0  0  0  0  0  0
   57.2240   25.3240   46.4290 N   0  0  0  0  0  0  0  0  0  0  0  0
   57.6710   26.6860   46.4570 C   0  0  0  0  0  0  0  0  0  0  0  0
   58.6610   27.1300   47.3510 C   0  0  0  0  0  0  0  0  0  0  0  0
   59.0820   28.4620   47.3250 C   0  0  0  0  0  0  0  0  0  0  0  0
   58.5260   29.3570   46.4080 C   0  0  0  0  0  0  0  0  0  0  0  0
   57.5260   28.9330   45.5140 C   0  0  0  0  0  0  0  0  0  0  0  0
   56.9640   29.8810   44.5210 C   0  0  0  0  0  0  0  0  0  0  0  0
   55.8010   30.3390   44.6910 O   0  0  0  0  0  0  0  0  0  0  0  0
   57.7190   30.2800   43.3660 N   0  0  0  0  0  0  0  0  0  0  0  0
   57.3610   31.4390   42.5490 C   0  0  0  0  0  0  0  0  0  0  0  0
   57.9110   32.7230   43.1730 C   0  0  0  0  0  0  0  0  0  0  0  0
   57.3910   32.8980   44.5320 N   0  0  0  0  0  0  0  0  0  0  0  0
   58.1540   33.4680   45.6120 C   0  0  0  0  0  0  0  0  0  0  0  0
   58.1150   32.9260   46.9120 C   0  0  0  0  0  0  0  0  0  0  0  0
   58.8750   33.4970   47.9380 C   0  0  0  0  0  0  0  0  0  0  0  0
   59.6950   34.5980   47.6730 C   0  0  0  0  0  0  0  0  0  0  0  0
   59.7490   35.1360   46.3840 C   0  0  0  0  0  0  0  0  0  0  0  0
   58.9870   34.5700   45.3570 C   0  0  0  0  0  0  0  0  0  0  0  0
   57.1040   27.5910   45.5530 C   0  0  0  0  0  0  0  0  0  0  0  0
   55.7612   22.8569   44.6527 H   0  0  0  0  0  0  0  0  0  0  0  0
   54.7687   24.1461   43.8915 H   0  0  0  0  0  0  0  0  0  0  0  0
   56.5604   24.2741   43.8915 H   0  0  0  0  0  0  0  0  0  0  0  0
   59.1048   26.4277   48.0720 H   0  0  0  0  0  0  0  0  0  0  0  0
   59.8537   28.8069   48.0289 H   0  0  0  0  0  0  0  0  0  0  0  0
   58.8725   30.4007   46.3847 H   0  0  0  0  0  0  0  0  0  0  0  0
   58.5050   29.6770   43.0350 H   0  0  0  0  0  0  0  0  0  0  0  0
   57.7838   31.3161   41.5410 H   0  0  0  0  0  0  0  0  0  0  0  0
   56.2648   31.5109   42.4934 H   0  0  0  0  0  0  0  0  0  0  0  0
   59.0089   32.6657   43.2103 H   0  0  0  0  0  0  0  0  0  0  0  0
   57.5961   33.5797   42.5590 H   0  0  0  0  0  0  0  0  0  0  0  0
   56.5310   32.3540   44.7780 H   0  0  0  0  0  0  0  0  0  0  0  0
   57.4839   32.0496   47.1210 H   0  0  0  0  0  0  0  0  0  0  0  0
   58.8275   33.0794   48.9545 H   0  0  0  0  0  0  0  0  0  0  0  0
   60.2980   35.0411   48.4793 H   0  0  0  0  0  0  0  0  0  0  0  0
   60.3911   36.0049   46.1774 H   0  0  0  0  0  0  0  0  0  0  0  0
   59.0403   34.9908   44.3421 H   0  0  0  0  0  0  0  0  0  0  0  0
   56.3180   27.2490   44.8636 H   0  0  0  0  0  0  0  0  0  0  0  0
  1  2  1  0
  2  3  2  0
  2  4  2  0
  2  5  1  0
  5  6  1  0
  6  7  2  0
  7  8  1  0
  8  9  2  0
  9 10  1  0
 10 11  1  0
 11 12  2  0
 11 13  1  0
 13 14  1  0
 14 15  1  0
 15 16  1  0
 16 17  1  0
 17 18  2  0
 18 19  1  0
 19 20  2  0
 20 21  1  0
 21 22  2  0
 10 23  2  0
 23  6  1  0
 22 17  1  0
  1 24  1  0
  1 25  1  0
  1 26  1  0
  7 27  1  0
  8 28  1  0
  9 29  1  0
 13 30  1  0
 14 31  1  0
 14 32  1  0
 15 33  1  0
 15 34  1  0
 16 35  1  0
 18 36  1  0
 19 37  1  0
 20 38  1  0
 21 39  1  0
 22 40  1  0
 23 41  1  0
M  CHG  1   5  -1
M  END
>  <UniqueID>  (1) 
1

>  <SMILES>  (1) 
CS(=O)(=O)[N-]c1cccc(C(=O)NCCNc2ccccc2)c1

>  <Energy>  (1) 
37.337783977130655

>  <Genealogy>  (1) 
CS(=O)(=O)[N-]c1cccc(C(=O)NCCNc2ccccc2)c1 (protonated)
CS(=O)(=O)[N-]c1cccc(C(=O)NCCNc2ccccc2)c1 (3D coordinates assigned)
CS(=O)(=O)[N-]c1cccc(C(=O)NCCNc2ccccc2)c1 (optimized conformer: 37.337783977130655 kcal/mol)

>  <smiles>  (1) 
CS(=O)(=O)Nc1cccc(C(=O)NCCNc2ccccc2)c1

>  <score_type>  (1) 
oracle

>  <origin>  (1) 
adg

>  <m_score__min__energy>  (1) 
-10.359999999999999

>  <m_primary>  (1) 
energy

$$$$
1:0
     RDKit          3D

 34 36  0  0  0  0  0  0  0  0999 V2000
   59.9360   34.2520   48.1600 C   0  0  0  0  0  0  0  0  0  0  0  0
   58.8720   33.3350   47.9270 O   0  0  0  0  0  0  0  0  0  0  0  0
   58.3890   32.9820   46.6550 C   0  0  0  0  0  0  0  0  0  0  0  0
   57.8970   33.9450   45.7550 C   0  0  0  0  0  0  0  0  0  0  0  0
   57.4190   33.5610   44.5040 C   0  0  0  0  0  0  0  0  0  0  0  0
   57.4280   32.2170   44.1320 C   0  0  0  0  0  0  0  0  0  0  0  0
   57.9250   31.2370   45.0050 C   0  0  0  0  0  0  0  0  0  0  0  0
   57.8860   29.7920   44.5740 C   0  0  0  0  0  0  0  0  0  0  0  0
   56.6740   29.1160   45.1370 C   0  0  0  0  0  0  0  0  0  0  0  0
   55.5290   29.5670   44.8590 O   0  0  0  0  0  0  0  0  0  0  0  0
   56.8380   27.9880   46.0120 N   0  0  0  0  0  0  0  0  0  0  0  0
   56.4290   26.7750   45.7880 C   0  0  0  0  0  0  0  0  0  0  0  0
   57.2370   25.7800   45.3300 N   0  0  0  0  0  0  0  0  0  0  0  0
   56.3940   24.7410   45.2530 C   0  0  0  0  0  0  0  0  0  0  0  0
   56.6780   23.4410   44.8380 C   0  0  0  0  0  0  0  0  0  0  0  0
   55.6210   22.5110   44.8390 C   0  0  0  0  0  0  0  0  0  0  0  0
   54.3250   22.8990   45.2510 C   0  0  0  0  0  0  0  0  0  0  0  0
   54.0770   24.2220   45.6640 C   0  0  0  0  0  0  0  0  0  0  0  0
   55.1460   25.1150   45.6490 C   0  0  0  0  0  0  0  0  0  0  0  0
   55.1380   26.4100   45.9970 N   0  0  0  0  0  0  0  0  0  0  0  0
   58.3990   31.6250   46.2820 C   0  0  0  0  0  0  0  0  0  0  0  0
   59.0640   30.3340   47.5440 Br  0  0  0  0  0  0  0  0  0  0  0  0
   60.0814   34.3773   49.2431 H   0  0  0  0  0  0  0  0  0  0  0  0
   60.8606   33.8632   47.7084 H   0  0  0  0  0  0  0  0  0  0  0  0
   59.6879   35.2239   47.7084 H   0  0  0  0  0  0  0  0  0  0  0  0
   57.8897   35.0072   46.0407 H   0  0  0  0  0  0  0  0  0  0  0  0
   57.0333   34.3202   43.8076 H   0  0  0  0  0  0  0  0  0  0  0  0
   57.0419   31.9222   43.1450 H   0  0  0  0  0  0  0  0  0  0  0  0
   57.8528   29.7414   43.4757 H   0  0  0  0  0  0  0  0  0  0  0  0
   58.7866   29.2822   44.9469 H   0  0  0  0  0  0  0  0  0  0  0  0
   57.6911   23.1522   44.5213 H   0  0  0  0  0  0  0  0  0  0  0  0
   55.8045   21.4753   44.5171 H   0  0  0  0  0  0  0  0  0  0  0  0
   53.5068   22.1637   45.2488 H   0  0  0  0  0  0  0  0  0  0  0  0
   53.0745   24.5392   45.9871 H   0  0  0  0  0  0  0  0  0  0  0  0
  1  2  1  0
  2  3  1  0
  3  4  2  0
  4  5  1  0
  5  6  2  0
  6  7  1  0
  7  8  1  0
  8  9  1  0
  9 10  2  0
  9 11  1  0
 11 12  2  3
 12 13  1  0
 13 14  1  0
 14 15  2  0
 15 16  1  0
 16 17  2  0
 17 18  1  0
 18 19  2  0
 19 20  1  0
  7 21  2  0
 21 22  1  0
 21  3  1  0
 20 12  1  0
 19 14  1  0
  1 23  1  0
  1 24  1  0
  1 25  1  0
  4 26  1  0
  5 27  1  0
  6 28  1  0
  8 29  1  0
  8 30  1  0
 15 31  1  0
 16 32  1  0
 17 33  1  0
 18 34  1  0
M  CHG  2  13  -1  20  -1
M  END
>  <UniqueID>  (2) 
2

>  <SMILES>  (2) 
COc1cccc(CC(=O)N=c2[n-]c3ccccc3[n-]2)c1Br

>  <Energy>  (2) 
73.12534370854266

>  <Genealogy>  (2) 
COc1cccc(CC(=O)N=c2[n-]c3ccccc3[n-]2)c1Br (protonated)
COc1cccc(CC(=O)N=c2[n-]c3ccccc3[n-]2)c1Br (3D coordinates assigned)
COc1cccc(CC(=O)N=c2[n-]c3ccccc3[n-]2)c1Br (optimized conformer: 73.12534370854266 kcal/mol)

>  <smiles>  (2) 
COc1cccc(CC(=O)N=c2[nH]c3ccccc3[nH]2)c1Br

>  <score_type>  (2) 
oracle

>  <origin>  (2) 
adg

>  <m_score__min__energy>  (2) 
-10.93

>  <m_primary>  (2) 
energy

$$$$
2:0
     RDKit          3D

 50 52  0  0  0  0  0  0  0  0999 V2000
   68.6560   34.1940   50.4150 C   0  0  0  0  0  0  0  0  0  0  0  0
   67.3830   33.6900   51.0900 C   0  0  0  0  0  0  0  0  0  0  0  0
   66.5610   32.8190   50.1430 C   0  0  0  0  0  0  0  0  0  0  0  0
   65.3240   33.4670   49.8590 O   0  0  0  0  0  0  0  0  0  0  0  0
   64.2470   32.8640   49.1950 C   0  0  0  0  0  0  0  0  0  0  0  0
   63.4280   31.8960   49.8060 C   0  0  0  0  0  0  0  0  0  0  0  0
   62.3650   31.3240   49.1000 C   0  0  0  0  0  0  0  0  0  0  0  0
   62.0920   31.7210   47.7830 C   0  0  0  0  0  0  0  0  0  0  0  0
   60.9900   31.1040   47.0140 C   0  0  0  0  0  0  0  0  0  0  0  0
   60.9700   29.7740   46.7360 N   0  0  0  0  0  0  0  0  0  0  0  0
   59.8090   29.6200   46.0740 C   0  0  0  0  0  0  0  0  0  0  0  0
   59.1610   30.8010   45.9560 C   0  0  0  0  0  0  0  0  0  0  0  0
   57.9220   30.8610   45.3280 C   0  0  0  0  0  0  0  0  0  0  0  0
   57.3090   31.9580   45.2180 O   0  0  0  0  0  0  0  0  0  0  0  0
   57.3790   29.6920   44.8390 N   0  0  0  0  0  0  0  0  0  0  0  0
   56.0750   29.7220   44.1490 C   0  0  0  0  0  0  0  0  0  0  0  0
   56.2720   29.7200   42.6370 C   0  0  0  0  0  0  0  0  0  0  0  0
   58.0750   28.4990   44.9540 C   0  0  0  0  0  0  0  0  0  0  0  0
   57.5780   27.4360   44.4890 O   0  0  0  0  0  0  0  0  0  0  0  0
   59.3070   28.4570   45.5740 N   0  0  0  0  0  0  0  0  0  0  0  0
   60.0410   27.1930   45.7450 C   0  0  0  0  0  0  0  0  0  0  0  0
   60.0050   26.7510   47.2050 C   0  0  0  0  0  0  0  0  0  0  0  0
   59.9020   31.7700   46.5280 N   0  0  0  0  0  0  0  0  0  0  0  0
   59.6190   33.2050   46.5690 C   0  0  0  0  0  0  0  0  0  0  0  0
   62.9230   32.6690   47.1670 C   0  0  0  0  0  0  0  0  0  0  0  0
   63.9860   33.2400   47.8720 C   0  0  0  0  0  0  0  0  0  0  0  0
   69.3882   34.4839   51.1831 H   0  0  0  0  0  0  0  0  0  0  0  0
   69.0792   33.3956   49.7878 H   0  0  0  0  0  0  0  0  0  0  0  0
   68.4180   35.0657   49.7878 H   0  0  0  0  0  0  0  0  0  0  0  0
   67.6573   33.0971   51.9751 H   0  0  0  0  0  0  0  0  0  0  0  0
   66.7746   34.5601   51.3779 H   0  0  0  0  0  0  0  0  0  0  0  0
   67.1188   32.6663   49.2073 H   0  0  0  0  0  0  0  0  0  0  0  0
   66.3660   31.8448   50.6152 H   0  0  0  0  0  0  0  0  0  0  0  0
   63.6250   31.5881   50.8435 H   0  0  0  0  0  0  0  0  0  0  0  0
   61.7390   30.5578   49.5807 H   0  0  0  0  0  0  0  0  0  0  0  0
   55.4911   28.8361   44.4394 H   0  0  0  0  0  0  0  0  0  0  0  0
   55.5404   30.6391   44.4374 H   0  0  0  0  0  0  0  0  0  0  0  0
   57.3477   29.7091   42.4074 H   0  0  0  0  0  0  0  0  0  0  0  0
   55.7961   28.8266   42.2064 H   0  0  0  0  0  0  0  0  0  0  0  0
   55.8143   30.6228   42.2064 H   0  0  0  0  0  0  0  0  0  0  0  0
   59.5764   26.4165   45.1196 H   0  0  0  0  0  0  0  0  0  0  0  0
   61.0880   27.3445   45.4435 H   0  0  0  0  0  0  0  0  0  0  0  0
   60.0769   27.6338   47.8572 H   0  0  0  0  0  0  0  0  0  0  0  0
   59.0609   26.2232   47.4051 H   0  0  0  0  0  0  0  0  0  0  0  0
   60.8513   26.0774   47.4051 H   0  0  0  0  0  0  0  0  0  0  0  0
   59.5537   33.5361   47.6160 H   0  0  0  0  0  0  0  0  0  0  0  0
   60.4264   33.7526   46.0609 H   0  0  0  0  0  0  0  0  0  0  0  0
   58.6641   33.4051   46.0609 H   0  0  0  0  0  0  0  0  0  0  0  0
   62.7368   32.9643   46.1238 H   0  0  0  0  0  0  0  0  0  0  0  0
   64.6233   33.9915   47.3830 H   0  0  0  0  0  0  0  0  0  0  0  0
  1  2  1  0
  2  3  1  0
  3  4  1  0
  4  5  1  0
  5  6  2  0
  6  7  1  0
  7  8  2  0
  8  9  1  0
  9 10  2  0
 10 11  1  0
 11 12  2  0
 12 13  1  0
 13 14  2  0
 13 15  1  0
 15 16  1  0
 16 17  1  0
 15 18  1  0
 18 19  2  0
 18 20  1  0
 20 21  1  0
 21 22  1  0
 12 23  1  0
 23 24  1  0
  8 25  1  0
 25 26  2  0
 26  5  1  0
 23  9  1  0
 20 11  1  0
  1 27  1  0
  1 28  1  0
  1 29  1  0
  2 30  1  0
  2 31  1  0
  3 32  1  0
  3 33  1  0
  6 34  1  0
  7 35  1  0
 16 36  1  0
 16 37  1  0
 17 38  1  0
 17 39  1  0
 17 40  1  0
 21 41  1  0
 21 42  1  0
 22 43  1  0
 22 44  1  0
 22 45  1  0
 24 46  1  0
 24 47  1  0
 24 48  1  0
 25 49  1  0
 26 50  1  0
M  END
>  <UniqueID>  (3) 
3

>  <SMILES>  (3) 
CCCOc1ccc(-c2nc3c(c(=O)n(CC)c(=O)n3CC)n2C)cc1

>  <Energy>  (3) 
91.16132483117003

>  <Genealogy>  (3) 
CCCOc1ccc(-c2nc3c(c(=O)n(CC)c(=O)n3CC)n2C)cc1 (3D coordinates assigned)
CCCOc1ccc(-c2nc3c(c(=O)n(CC)c(=O)n3CC)n2C)cc1 (optimized conformer: 91.16132483117003 kcal/mol)

>  <smiles>  (3) 
CCCOc1ccc(-c2nc3c(c(=O)n(CC)c(=O)n3CC)n2C)cc1

>  <score_type>  (3) 
oracle

>  <origin>  (3) 
adg

>  <m_score__min__energy>  (3) 
-6.7300000000000004

>  <m_primary>  (3) 
energy

$$$$
3:0
     RDKit          3D

 47 48  0  0  0  0  0  0  0  0999 V2000
   53.0730   24.0920   45.1780 C   0  0  0  0  0  0  0  0  0  0  0  0
   54.5590   23.8940   44.9040 C   0  0  0  0  0  0  0  0  0  0  0  0
   55.5540   25.0500   45.8370 S   0  0  0  0  0  0  0  0  0  0  0  0
   54.7920   26.3390   45.9690 O   0  0  0  0  0  0  0  0  0  0  0  0
   55.8250   24.4940   47.2070 O   0  0  0  0  0  0  0  0  0  0  0  0
   57.1000   25.3520   44.9970 C   0  0  0  0  0  0  0  0  0  0  0  0
   58.1970   25.5920   45.9960 C   0  0  0  0  0  0  0  0  0  0  0  0
   59.2550   24.9140   45.9130 O   0  0  0  0  0  0  0  0  0  0  0  0
   58.0240   26.4660   47.1190 N   0  0  0  0  0  0  0  0  0  0  0  0
   58.3350   27.8640   47.1480 C   0  0  0  0  0  0  0  0  0  0  0  0
   59.2350   28.3420   48.1050 C   0  0  0  0  0  0  0  0  0  0  0  0
   59.5700   29.6990   48.1440 C   0  0  0  0  0  0  0  0  0  0  0  0
   59.0260   30.5950   47.2070 C   0  0  0  0  0  0  0  0  0  0  0  0
   59.3600   31.9960   47.2640 N   0  0  0  0  0  0  0  0  0  0  0  0
   59.8020   32.6990   46.0530 C   0  0  0  0  0  0  0  0  0  0  0  0
   60.3240   34.1020   46.3890 C   0  0  0  0  0  0  0  0  0  0  0  0
   61.1160   34.1200   47.6350 N   0  0  0  0  0  0  0  0  0  0  0  0
   62.7270   33.4550   47.4370 S   0  0  0  0  0  0  0  0  0  0  0  0
   63.7570   33.6280   48.8870 C   0  0  0  0  0  0  0  0  0  0  0  0
   63.4000   34.1750   46.3030 O   0  0  0  0  0  0  0  0  0  0  0  0
   62.6430   31.9950   47.0870 O   0  0  0  0  0  0  0  0  0  0  0  0
   60.4100   33.5900   48.8260 C   0  0  0  0  0  0  0  0  0  0  0  0
   59.1520   32.7700   48.4910 C   0  0  0  0  0  0  0  0  0  0  0  0
   58.1460   30.1030   46.2240 C   0  0  0  0  0  0  0  0  0  0  0  0
   57.5870   30.9380   45.3130 F   0  0  0  0  0  0  0  0  0  0  0  0
   57.8130   28.7450   46.1910 C   0  0  0  0  0  0  0  0  0  0  0  0
   52.9003   24.1150   46.2641 H   0  0  0  0  0  0  0  0  0  0  0  0
   52.7417   25.0422   44.7338 H   0  0  0  0  0  0  0  0  0  0  0  0
   52.5044   23.2617   44.7338 H   0  0  0  0  0  0  0  0  0  0  0  0
   54.8416   22.8692   45.1865 H   0  0  0  0  0  0  0  0  0  0  0  0
   54.7397   24.0675   43.8329 H   0  0  0  0  0  0  0  0  0  0  0  0
   57.3552   24.4774   44.3806 H   0  0  0  0  0  0  0  0  0  0  0  0
   56.9939   26.2428   44.3605 H   0  0  0  0  0  0  0  0  0  0  0  0
   59.6819   27.6470   48.8311 H   0  0  0  0  0  0  0  0  0  0  0  0
   60.2642   30.0682   48.9133 H   0  0  0  0  0  0  0  0  0  0  0  0
   60.6069   32.1209   45.5754 H   0  0  0  0  0  0  0  0  0  0  0  0
   58.9427   32.7991   45.3735 H   0  0  0  0  0  0  0  0  0  0  0  0
   60.9585   34.4513   45.5611 H   0  0  0  0  0  0  0  0  0  0  0  0
   59.4542   34.7599   46.5327 H   0  0  0  0  0  0  0  0  0  0  0  0
   63.1384   33.5241   49.7907 H   0  0  0  0  0  0  0  0  0  0  0  0
   64.5321   32.8475   48.8815 H   0  0  0  0  0  0  0  0  0  0  0  0
   64.2345   34.6189   48.8815 H   0  0  0  0  0  0  0  0  0  0  0  0
   61.1058   32.9450   49.3826 H   0  0  0  0  0  0  0  0  0  0  0  0
   60.0780   34.4588   49.4134 H   0  0  0  0  0  0  0  0  0  0  0  0
   58.9357   32.0820   49.3216 H   0  0  0  0  0  0  0  0  0  0  0  0
   58.3067   33.4577   48.3408 H   0  0  0  0  0  0  0  0  0  0  0  0
   57.1377   28.3663   45.4097 H   0  0  0  0  0  0  0  0  0  0  0  0
  1  2  1  0
  2  3  1  0
  3  4  2  0
  3  5  2  0
  3  6  1  0
  6  7  1  0
  7  8  2  0
  7  9  1  0
  9 10  1  0
 10 11  2  0
 11 12  1  0
 12 13  2  0
 13 14  1  0
 14 15  1  0
 15 16  1  0
 16 17  1  0
 17 18  1  0
 18 19  1  0
 18 20  2  0
 18 21  2  0
 17 22  1  0
 22 23  1  0
 13 24  1  0
 24 25  1  0
 24 26  2  0
 26 10  1  0
 23 14  1  0
  1 27  1  0
  1 28  1  0
  1 29  1  0
  2 30  1  0
  2 31  1  0
  6 32  1  0
  6 33  1  0
 11 34  1  0
 12 35  1  0
 15 36  1  0
 15 37  1  0
 16 38  1  0
 16 39  1  0
 19 40  1  0
 19 41  1  0
 19 42  1  0
 22 43  1  0
 22 44  1  0
 23 45  1  0
 23 46  1  0
 26 47  1  0
M  CHG  1   9  -1
M  END
>  <UniqueID>  (4) 
4

>  <SMILES>  (4) 
CCS(=O)(=O)CC(=O)[N-]c1ccc(N2CCN(S(C)(=O)=O)CC2)c(F)c1

>  <Energy>  (4) 
48.667408775455684

>  <Genealogy>  (4) 
CCS(=O)(=O)CC(=O)[N-]c1ccc(N2CCN(S(C)(=O)=O)CC2)c(F)c1 (protonated)
CCS(=O)(=O)CC(=O)[N-]c1ccc(N2CCN(S(C)(=O)=O)CC2)c(F)c1 (3D coordinates assigned)
CCS(=O)(=O)CC(=O)[N-]c1ccc(N2CCN(S(C)(=O)=O)CC2)c(F)c1 (nonaromatic ring conformer: 48.667408775455684 kcal/mol)

>  <smiles>  (4) 
CCS(=O)(=O)CC(=O)Nc1ccc(N2CCN(S(C)(=O)=O)CC2)c(F)c1

>  <score_type>  (4) 
oracle

>  <origin>  (4) 
adg

>  <m_score__min__energy>  (4) 
-9.8800000000000008

>  <m_primary>  (4) 
energy

$$$$
4:0
     RDKit          3D

 56 58  0  0  0  0  0  0  0  0999 V2000
   56.3990   29.7730   43.1680 C   0  0  0  0  0  0  0  0  0  0  0  0
   56.4350   30.0470   44.5660 O   0  0  0  0  0  0  0  0  0  0  0  0
   57.3510   30.9140   45.1830 C   0  0  0  0  0  0  0  0  0  0  0  0
   58.1620   30.5110   46.2610 C   0  0  0  0  0  0  0  0  0  0  0  0
   59.0720   31.4070   46.8600 C   0  0  0  0  0  0  0  0  0  0  0  0
   59.9020   30.9960   47.9690 N   0  0  0  0  0  0  0  0  0  0  0  0
   59.4320   30.1120   49.0410 C   0  0  0  0  0  0  0  0  0  0  0  0
   59.4580   30.8290   50.3970 C   0  0  0  0  0  0  0  0  0  0  0  0
   58.4160   31.9560   50.5000 C   0  0  0  0  0  0  0  0  0  0  0  0
   57.3250   31.6930   51.5600 C   0  0  0  0  0  0  0  0  0  0  0  0
   57.2300   30.2010   51.9390 C   0  0  0  0  0  0  0  0  0  0  0  0
   56.3270   29.9650   53.0760 N   0  0  0  0  0  0  0  0  0  0  0  0
   55.4910   28.7720   52.8880 C   0  0  0  0  0  0  0  0  0  0  0  0
   54.2350   28.8810   53.7530 C   0  0  0  0  0  0  0  0  0  0  0  0
   53.2970   29.9220   53.2030 C   0  0  0  0  0  0  0  0  0  0  0  0
   52.1100   30.2380   53.8860 C   0  0  0  0  0  0  0  0  0  0  0  0
   51.2240   31.1830   53.3600 C   0  0  0  0  0  0  0  0  0  0  0  0
   51.5100   31.8110   52.1440 C   0  0  0  0  0  0  0  0  0  0  0  0
   50.6280   32.7490   51.6220 O   0  0  0  0  0  0  0  0  0  0  0  0
   52.6820   31.4920   51.4510 C   0  0  0  0  0  0  0  0  0  0  0  0
   53.5710   30.5470   51.9740 C   0  0  0  0  0  0  0  0  0  0  0  0
   59.1600   32.7240   46.3590 C   0  0  0  0  0  0  0  0  0  0  0  0
   60.0270   33.6190   46.9100 N   0  0  0  0  0  0  0  0  0  0  0  0
   60.1380   34.8940   46.4530 C   0  0  0  0  0  0  0  0  0  0  0  0
   59.3510   35.3260   45.3850 C   0  0  0  0  0  0  0  0  0  0  0  0
   58.4510   34.4380   44.7940 C   0  0  0  0  0  0  0  0  0  0  0  0
   58.3460   33.1260   45.2750 C   0  0  0  0  0  0  0  0  0  0  0  0
   57.4490   32.2200   44.6990 C   0  0  0  0  0  0  0  0  0  0  0  0
   56.2572   28.6938   43.0094 H   0  0  0  0  0  0  0  0  0  0  0  0
   55.5655   30.3239   42.7077 H   0  0  0  0  0  0  0  0  0  0  0  0
   57.3465   30.0899   42.7077 H   0  0  0  0  0  0  0  0  0  0  0  0
   58.0848   29.4819   46.6419 H   0  0  0  0  0  0  0  0  0  0  0  0
   60.8860   31.3480   48.0180 H   0  0  0  0  0  0  0  0  0  0  0  0
   58.4015   29.7963   48.8209 H   0  0  0  0  0  0  0  0  0  0  0  0
   60.0999   29.2395   49.0934 H   0  0  0  0  0  0  0  0  0  0  0  0
   59.2561   30.0914   51.1877 H   0  0  0  0  0  0  0  0  0  0  0  0
   60.4516   31.2878   50.5081 H   0  0  0  0  0  0  0  0  0  0  0  0
   58.9371   32.8888   50.7612 H   0  0  0  0  0  0  0  0  0  0  0  0
   57.9105   32.0185   49.5250 H   0  0  0  0  0  0  0  0  0  0  0  0
   57.5615   32.2739   52.4637 H   0  0  0  0  0  0  0  0  0  0  0  0
   56.3578   31.9954   51.1320 H   0  0  0  0  0  0  0  0  0  0  0  0
   56.8571   29.6393   51.0698 H   0  0  0  0  0  0  0  0  0  0  0  0
   58.2352   29.8668   52.2355 H   0  0  0  0  0  0  0  0  0  0  0  0
   55.7090   30.8000   53.2070 H   0  0  0  0  0  0  0  0  0  0  0  0
   55.2005   28.6922   51.8301 H   0  0  0  0  0  0  0  0  0  0  0  0
   56.0602   27.8782   53.1834 H   0  0  0  0  0  0  0  0  0  0  0  0
   53.7233   27.9074   53.7704 H   0  0  0  0  0  0  0  0  0  0  0  0
   54.5316   29.1754   54.7705 H   0  0  0  0  0  0  0  0  0  0  0  0
   51.8771   29.7396   54.8386 H   0  0  0  0  0  0  0  0  0  0  0  0
   50.3008   31.4327   53.9035 H   0  0  0  0  0  0  0  0  0  0  0  0
   52.9052   31.9849   50.4933 H   0  0  0  0  0  0  0  0  0  0  0  0
   54.4875   30.2921   51.4217 H   0  0  0  0  0  0  0  0  0  0  0  0
   60.8496   35.5867   46.9260 H   0  0  0  0  0  0  0  0  0  0  0  0
   59.4391   36.3571   45.0122 H   0  0  0  0  0  0  0  0  0  0  0  0
   57.8249   34.7675   43.9517 H   0  0  0  0  0  0  0  0  0  0  0  0
   56.8158   32.5391   43.8580 H   0  0  0  0  0  0  0  0  0  0  0  0
  1  2  1  0
  2  3  1  0
  3  4  2  0
  4  5  1  0
  5  6  1  0
  6  7  1  0
  7  8  1  0
  8  9  1  0
  9 10  1  0
 10 11  1  0
 11 12  1  0
 12 13  1  0
 13 14  1  0
 14 15  1  0
 15 16  2  0
 16 17  1  0
 17 18  2  0
 18 19  1  0
 18 20  1  0
 20 21  2  0
  5 22  2  0
 22 23  1  0
 23 24  2  0
 24 25  1  0
 25 26  2  0
 26 27  1  0
 27 28  2  0
 28  3  1  0
 21 15  1  0
 27 22  1  0
  1 29  1  0
  1 30  1  0
  1 31  1  0
  4 32  1  0
  6 33  1  0
  7 34  1  0
  7 35  1  0
  8 36  1  0
  8 37  1  0
  9 38  1  0
  9 39  1  0
 10 40  1  0
 10 41  1  0
 11 42  1  0
 11 43  1  0
 12 44  1  0
 13 45  1  0
 13 46  1  0
 14 47  1  0
 14 48  1  0
 16 49  1  0
 17 50  1  0
 20 51  1  0
 21 52  1  0
 24 53  1  0
 25 54  1  0
 26 55  1  0
 28 56  1  0
M  CHG  1  19  -1
M  END
>  <UniqueID>  (5) 
5

>  <SMILES>  (5) 
COc1cc(NCCCCCNCCc2ccc([O-])cc2)c2ncccc2c1

>  <Energy>  (5) 
54.163731819865745

>  <Genealogy>  (5) 
COc1cc(NCCCCCNCCc2ccc([O-])cc2)c2ncccc2c1 (protonated)
COc1cc(NCCCCCNCCc2ccc([O-])cc2)c2ncccc2c1 (3D coordinates assigned)
COc1cc(NCCCCCNCCc2ccc([O-])cc2)c2ncccc2c1 (optimized conformer: 54.163731819865745 kcal/mol)

>  <smiles>  (5) 
COc1cc(NCCCCCNCCc2ccc(O)cc2)c2ncccc2c1

>  <score_type>  (5) 
oracle

>  <origin>  (5) 
adg

>  <m_score__min__energy>  (5) 
-11.67

>  <m_primary>  (5) 
energy

$$$$
5:0
     RDKit          3D

 49 51  0  0  0  0  0  0  0  0999 V2000
   59.7910   32.4940   48.4800 C   0  0  0  0  0  0  0  0  0  0  0  0
   59.5930   33.4210   47.3090 C   0  0  0  0  0  0  0  0  0  0  0  0
   59.7930   34.8000   47.4990 C   0  0  0  0  0  0  0  0  0  0  0  0
   59.6250   35.6940   46.4400 C   0  0  0  0  0  0  0  0  0  0  0  0
   59.2550   35.2240   45.1810 C   0  0  0  0  0  0  0  0  0  0  0  0
   59.0390   33.8600   44.9790 C   0  0  0  0  0  0  0  0  0  0  0  0
   59.1820   32.9470   46.0370 C   0  0  0  0  0  0  0  0  0  0  0  0
   58.8860   31.2270   45.7220 S   0  0  0  0  0  0  0  0  0  0  0  0
   60.1810   30.4800   45.8690 O   0  0  0  0  0  0  0  0  0  0  0  0
   57.8880   30.6780   46.7030 O   0  0  0  0  0  0  0  0  0  0  0  0
   58.2860   30.9880   44.1050 N   0  0  0  0  0  0  0  0  0  0  0  0
   56.8850   30.5630   44.1210 C   0  0  0  0  0  0  0  0  0  0  0  0
   56.7380   29.1660   44.6740 C   0  0  0  0  0  0  0  0  0  0  0  0
   55.6160   28.7140   44.8560 O   0  0  0  0  0  0  0  0  0  0  0  0
   57.9160   28.3960   45.0410 N   0  0  0  0  0  0  0  0  0  0  0  0
   58.5670   27.7720   43.8670 C   0  0  0  0  0  0  0  0  0  0  0  0
   57.8060   26.5500   43.3400 C   0  0  0  0  0  0  0  0  0  0  0  0
   57.5210   25.6250   44.4390 N   0  0  0  0  0  0  0  0  0  0  0  0
   57.5340   24.2040   44.2040 C   0  0  0  0  0  0  0  0  0  0  0  0
   58.4090   23.3770   44.9300 C   0  0  0  0  0  0  0  0  0  0  0  0
   58.4220   21.9970   44.7080 C   0  0  0  0  0  0  0  0  0  0  0  0
   57.5640   21.4310   43.7610 C   0  0  0  0  0  0  0  0  0  0  0  0
   56.6900   22.2450   43.0370 C   0  0  0  0  0  0  0  0  0  0  0  0
   56.6720   23.6250   43.2560 C   0  0  0  0  0  0  0  0  0  0  0  0
   56.8890   26.1690   45.6440 C   0  0  0  0  0  0  0  0  0  0  0  0
   57.6420   27.4210   46.1230 C   0  0  0  0  0  0  0  0  0  0  0  0
   59.6708   33.0567   49.4175 H   0  0  0  0  0  0  0  0  0  0  0  0
   59.0450   31.6866   48.4387 H   0  0  0  0  0  0  0  0  0  0  0  0
   60.8017   32.0618   48.4387 H   0  0  0  0  0  0  0  0  0  0  0  0
   60.0842   35.1774   48.4903 H   0  0  0  0  0  0  0  0  0  0  0  0
   59.7848   36.7706   46.5993 H   0  0  0  0  0  0  0  0  0  0  0  0
   59.1331   35.9291   44.3455 H   0  0  0  0  0  0  0  0  0  0  0  0
   58.7538   33.4961   43.9809 H   0  0  0  0  0  0  0  0  0  0  0  0
   56.3075   31.2584   44.7478 H   0  0  0  0  0  0  0  0  0  0  0  0
   56.5110   30.5663   43.0865 H   0  0  0  0  0  0  0  0  0  0  0  0
   58.6170   29.0670   45.4350 H   0  0  0  0  0  0  0  0  0  0  0  0
   58.6301   28.5195   43.0625 H   0  0  0  0  0  0  0  0  0  0  0  0
   59.5618   27.4279   44.1863 H   0  0  0  0  0  0  0  0  0  0  0  0
   56.8596   26.8784   42.8856 H   0  0  0  0  0  0  0  0  0  0  0  0
   58.4231   26.0373   42.5875 H   0  0  0  0  0  0  0  0  0  0  0  0
   59.0864   23.8179   45.6761 H   0  0  0  0  0  0  0  0  0  0  0  0
   59.1087   21.3554   45.2796 H   0  0  0  0  0  0  0  0  0  0  0  0
   57.5771   20.3451   43.5860 H   0  0  0  0  0  0  0  0  0  0  0  0
   56.0142   21.7987   42.2926 H   0  0  0  0  0  0  0  0  0  0  0  0
   55.9804   24.2612   42.6842 H   0  0  0  0  0  0  0  0  0  0  0  0
   55.8465   26.4371   45.4174 H   0  0  0  0  0  0  0  0  0  0  0  0
   56.9186   25.4082   46.4379 H   0  0  0  0  0  0  0  0  0  0  0  0
   57.0356   27.9182   46.8944 H   0  0  0  0  0  0  0  0  0  0  0  0
   58.6153   27.0850   46.5099 H   0  0  0  0  0  0  0  0  0  0  0  0
  1  2  1  0
  2  3  2  0
  3  4  1  0
  4  5  2  0
  5  6  1  0
  6  7  2  0
  7  8  1  0
  8  9  2  0
  8 10  2  0
  8 11  1  0
 11 12  1  0
 12 13  1  0
 13 14  2  0
 13 15  1  0
 15 16  1  0
 16 17  1  0
 17 18  1  0
 18 19  1  0
 19 20  2  0
 20 21  1  0
 21 22  2  0
 22 23  1  0
 23 24  2  0
 18 25  1  0
 25 26  1  0
  7  2  1  0
 26 15  1  0
 24 19  1  0
  1 27  1  0
  1 28  1  0
  1 29  1  0
  3 30  1  0
  4 31  1  0
  5 32  1  0
  6 33  1  0
 12 34  1  0
 12 35  1  0
 15 36  1  0
 16 37  1  0
 16 38  1  0
 17 39  1  0
 17 40  1  0
 20 41  1  0
 21 42  1  0
 22 43  1  0
 23 44  1  0
 24 45  1  0
 25 46  1  0
 25 47  1  0
 26 48  1  0
 26 49  1  0
M  CHG  2  11  -1  15   1
M  END
>  <UniqueID>  (6) 
6

>  <SMILES>  (6) 
Cc1ccccc1S(=O)(=O)[N-]CC(=O)[NH+]1CCN(c2ccccc2)CC1

>  <Energy>  (6) 
59.474352017697676

>  <Genealogy>  (6) 
Cc1ccccc1S(=O)(=O)[N-]CC(=O)[NH+]1CCN(c2ccccc2)CC1 (protonated)
Cc1ccccc1S(=O)(=O)[N-]CC(=O)[NH+]1CCN(c2ccccc2)CC1 (3D coordinates assigned)
Cc1ccccc1S(=O)(=O)[N-]CC(=O)[NH+]1CCN(c2ccccc2)CC1 (nonaromatic ring conformer: 59.474352017697676 kcal/mol)

>  <smiles>  (6) 
Cc1ccccc1S(=O)(=O)NCC(=O)N1CCN(c2ccccc2)CC1

>  <score_type>  (6) 
oracle

>  <origin>  (6) 
adg

>  <m_score__min__energy>  (6) 
-9.3300000000000001

>  <m_primary>  (6) 
energy

$$$$
6:0
     RDKit          3D

 38 40  0  0  0  0  0  0  0  0999 V2000
   58.0466   28.3069   43.7652 H   0  0  0  0  0  0  0  0  0  0  0  0
   57.3990   29.1350   44.0890 C   0  0  0  0  0  0  0  0  0  0  0  0
   56.1760   28.7760   44.8520 C   0  0  0  0  0  0  0  0  0  0  0  0
   55.1560   29.5110   44.8190 O   0  0  0  0  0  0  0  0  0  0  0  0
   56.1190   27.5690   45.6240 N   0  0  0  0  0  0  0  0  0  0  0  0
   57.0750   26.5000   45.5950 C   0  0  0  0  0  0  0  0  0  0  0  0
   58.2910   26.5820   46.2980 C   0  0  0  0  0  0  0  0  0  0  0  0
   58.5363   27.4938   46.8624 H   0  0  0  0  0  0  0  0  0  0  0  0
   59.1890   25.5110   46.2830 C   0  0  0  0  0  0  0  0  0  0  0  0
   60.1450   25.5888   46.8216 H   0  0  0  0  0  0  0  0  0  0  0  0
   58.8750   24.3410   45.5850 C   0  0  0  0  0  0  0  0  0  0  0  0
   59.7490   23.2980   45.5700 N   0  0  0  0  0  0  0  0  0  0  0  0
   59.4710   22.1450   44.9060 C   0  0  0  0  0  0  0  0  0  0  0  0
   60.1986   21.3201   44.9118 H   0  0  0  0  0  0  0  0  0  0  0  0
   58.2640   22.0040   44.2160 C   0  0  0  0  0  0  0  0  0  0  0  0
   58.0388   21.0711   43.6784 H   0  0  0  0  0  0  0  0  0  0  0  0
   57.3460   23.0560   44.2140 C   0  0  0  0  0  0  0  0  0  0  0  0
   56.3919   22.9554   43.6759 H   0  0  0  0  0  0  0  0  0  0  0  0
   57.6450   24.2400   44.9000 C   0  0  0  0  0  0  0  0  0  0  0  0
   56.7470   25.3180   44.9180 C   0  0  0  0  0  0  0  0  0  0  0  0
   55.7811   25.2347   44.3982 H   0  0  0  0  0  0  0  0  0  0  0  0
   57.7870   30.3780   43.7580 C   0  0  0  0  0  0  0  0  0  0  0  0
   57.8816   30.6079   42.6865 H   0  0  0  0  0  0  0  0  0  0  0  0
   58.0970   31.4610   44.7120 C   0  0  0  0  0  0  0  0  0  0  0  0
   58.7590   31.1930   45.9200 C   0  0  0  0  0  0  0  0  0  0  0  0
   59.0931   30.1695   46.1456 H   0  0  0  0  0  0  0  0  0  0  0  0
   58.9960   32.2200   46.8380 C   0  0  0  0  0  0  0  0  0  0  0  0
   59.5322   32.0053   47.7741 H   0  0  0  0  0  0  0  0  0  0  0  0
   58.5510   33.5280   46.5690 C   0  0  0  0  0  0  0  0  0  0  0  0
   58.7660   34.5940   47.4570 O   0  0  0  0  0  0  0  0  0  0  0  0
   59.6840   34.5610   48.5440 C   0  0  0  0  0  0  0  0  0  0  0  0
   59.1289   34.5810   49.4935 H   0  0  0  0  0  0  0  0  0  0  0  0
   60.2841   33.6407   48.4894 H   0  0  0  0  0  0  0  0  0  0  0  0
   60.3486   35.4358   48.4894 H   0  0  0  0  0  0  0  0  0  0  0  0
   57.8640   33.7840   45.3770 C   0  0  0  0  0  0  0  0  0  0  0  0
   57.5075   34.8019   45.1607 H   0  0  0  0  0  0  0  0  0  0  0  0
   57.6270   32.7570   44.4590 C   0  0  0  0  0  0  0  0  0  0  0  0
   57.0694   32.9667   43.5343 H   0  0  0  0  0  0  0  0  0  0  0  0
  1  2  1  0
  2  3  1  0
  3  4  2  0
  3  5  1  0
  5  6  1  0
  6  7  2  0
  7  8  1  0
  7  9  1  0
  9 10  1  0
  9 11  2  0
 11 12  1  0
 12 13  2  0
 13 14  1  0
 13 15  1  0
 15 16  1  0
 15 17  2  0
 17 18  1  0
 17 19  1  0
 19 20  2  0
 20 21  1  0
  2 22  2  0
 22 23  1  0
 22 24  1  0
 24 25  2  0
 25 26  1  0
 25 27  1  0
 27 28  1  0
 27 29  2  0
 29 30  1  0
 30 31  1  0
 31 32  1  0
 31 33  1  0
 31 34  1  0
 29 35  1  0
 35 36  1  0
 35 37  2  0
 37 38  1  0
 20  6  1  0
 37 24  1  0
 19 11  1  0
M  CHG  1   5  -1
M  END
>  <UniqueID>  (7) 
7

>  <SMILES>  (7) 
COc1ccc(/C=C\C(=O)[N-]c2ccc3ncccc3c2)cc1

>  <Energy>  (7) 
56.87906297750739

>  <Genealogy>  (7) 
COc1ccc(C=CC(=O)[N-]c2ccc3ncccc3c2)cc1 (protonated)
COc1ccc(/C=C\C(=O)[N-]c2ccc3ncccc3c2)cc1 (cis-trans isomerization)
COc1ccc(/C=C\C(=O)[N-]c2ccc3ncccc3c2)cc1 (3D coordinates assigned)
COc1ccc(/C=C\C(=O)[N-]c2ccc3ncccc3c2)cc1 (optimized conformer: 56.87906297750739 kcal/mol)

>  <smiles>  (7) 
COc1ccc(C=CC(=O)Nc2ccc3ncccc3c2)cc1

>  <score_type>  (7) 
oracle

>  <origin>  (7) 
adg

>  <m_score__min__energy>  (7) 
-9.3699999999999992

>  <m_primary>  (7) 
energy

$$$$
7:0
     RDKit          3D

 41 45  0  0  0  0  0  0  0  0999 V2000
   56.3730   20.8040   43.0510 N   0  0  0  0  0  0  0  0  0  0  0  0
   57.0570   21.7410   43.6440 C   0  0  0  0  0  0  0  0  0  0  0  0
   58.1900   21.4560   44.3410 N   0  0  0  0  0  0  0  0  0  0  0  0
   58.8910   22.4370   44.9530 C   0  0  0  0  0  0  0  0  0  0  0  0
   59.9570   22.1020   45.5980 N   0  0  0  0  0  0  0  0  0  0  0  0
   58.4440   23.7320   44.8640 C   0  0  0  0  0  0  0  0  0  0  0  0
   58.9300   24.9200   45.3670 C   0  0  0  0  0  0  0  0  0  0  0  0
   58.0620   25.9170   44.9550 C   0  0  0  0  0  0  0  0  0  0  0  0
   58.2140   27.3340   45.2770 C   0  0  0  0  0  0  0  0  0  0  0  0
   57.2700   28.2840   45.0590 C   0  0  0  0  0  0  0  0  0  0  0  0
   57.5220   29.6170   45.4080 C   0  0  0  0  0  0  0  0  0  0  0  0
   58.7150   30.0090   45.9740 C   0  0  0  0  0  0  0  0  0  0  0  0
   59.2500   31.1570   46.4060 N   0  0  0  0  0  0  0  0  0  0  0  0
   60.4870   30.9130   46.8730 C   0  0  0  0  0  0  0  0  0  0  0  0
   61.4450   31.8570   47.4440 C   0  0  0  0  0  0  0  0  0  0  0  0
   62.8050   31.6200   47.4780 C   0  0  0  0  0  0  0  0  0  0  0  0
   63.7120   32.5030   48.0120 C   0  0  0  0  0  0  0  0  0  0  0  0
   63.2360   33.6860   48.5400 C   0  0  0  0  0  0  0  0  0  0  0  0
   61.8620   33.9570   48.5210 C   0  0  0  0  0  0  0  0  0  0  0  0
   60.9740   33.0400   47.9730 C   0  0  0  0  0  0  0  0  0  0  0  0
   60.7500   29.6010   46.7430 N   0  0  0  0  0  0  0  0  0  0  0  0
   59.6730   29.0450   46.1940 C   0  0  0  0  0  0  0  0  0  0  0  0
   59.4150   27.7410   45.8500 C   0  0  0  0  0  0  0  0  0  0  0  0
   57.0820   25.3340   44.2230 N   0  0  0  0  0  0  0  0  0  0  0  0
   57.2930   24.0060   44.1530 C   0  0  0  0  0  0  0  0  0  0  0  0
   56.5930   23.0120   43.5400 N   0  0  0  0  0  0  0  0  0  0  0  0
   56.6740   19.8090   43.0510 H   0  0  0  0  0  0  0  0  0  0  0  0
   58.5320   20.4650   44.4090 H   0  0  0  0  0  0  0  0  0  0  0  0
   60.8240   21.9620   45.0330 H   0  0  0  0  0  0  0  0  0  0  0  0
   59.8347   25.0509   45.9789 H   0  0  0  0  0  0  0  0  0  0  0  0
   56.3058   28.0071   44.6077 H   0  0  0  0  0  0  0  0  0  0  0  0
   56.7443   30.3730   45.2247 H   0  0  0  0  0  0  0  0  0  0  0  0
   58.7700   32.0810   46.3760 H   0  0  0  0  0  0  0  0  0  0  0  0
   63.1812   30.6764   47.0561 H   0  0  0  0  0  0  0  0  0  0  0  0
   64.7878   32.2735   48.0186 H   0  0  0  0  0  0  0  0  0  0  0  0
   63.9350   34.4153   48.9753 H   0  0  0  0  0  0  0  0  0  0  0  0
   61.4843   34.9004   48.9420 H   0  0  0  0  0  0  0  0  0  0  0  0
   59.8958   33.2575   47.9611 H   0  0  0  0  0  0  0  0  0  0  0  0
   60.1919   26.9847   46.0355 H   0  0  0  0  0  0  0  0  0  0  0  0
   56.2690   25.8280   43.7680 H   0  0  0  0  0  0  0  0  0  0  0  0
   55.7140   23.2250   42.9980 H   0  0  0  0  0  0  0  0  0  0  0  0
  1  2  2  3
  2  3  1  0
  3  4  1  0
  4  5  2  3
  4  6  1  0
  6  7  1  0
  7  8  2  0
  8  9  1  0
  9 10  2  0
 10 11  1  0
 11 12  2  0
 12 13  1  0
 13 14  1  0
 14 15  1  0
 15 16  2  0
 16 17  1  0
 17 18  2  0
 18 19  1  0
 19 20  2  0
 14 21  2  0
 21 22  1  0
 22 23  2  0
  8 24  1  0
 24 25  1  0
 25 26  1  0
 26  2  1  0
 25  6  2  0
 23  9  1  0
 22 12  1  0
 20 15  1  0
  1 27  1  0
  3 28  1  0
  5 29  1  0
  7 30  1  0
 10 31  1  0
 11 32  1  0
 13 33  1  0
 16 34  1  0
 17 35  1  0
 18 36  1  0
 19 37  1  0
 20 38  1  0
 23 39  1  0
 24 40  1  0
 26 41  1  0
M  END
>  <smiles>  (8) 
N=c1[nH]c(=N)c2cc(-c3ccc4[nH]c(-c5ccccc5)nc4c3)[nH]c2[nH]1

>  <score_type>  (8) 
oracle

>  <origin>  (8) 
adg

>  <m_score__min__energy>  (8) 
-8.8800000000000008

>  <m_primary>  (8) 
energy

$$$$
8:0
     RDKit          3D

 52 54  0  0  0  0  0  0  0  0999 V2000
   57.7580   25.7080   43.3790 C   0  0  0  0  0  0  0  0  0  0  0  0
   58.2080   27.1630   43.2310 C   0  0  0  0  0  0  0  0  0  0  0  0
   57.8320   28.0290   44.3660 N   0  0  0  0  0  0  0  0  0  0  0  0
   58.8610   28.3090   45.3880 C   0  0  0  0  0  0  0  0  0  0  0  0
   60.1880   28.8300   44.8230 C   0  0  0  0  0  0  0  0  0  0  0  0
   56.6860   29.3020   44.0030 S   0  0  0  0  0  0  0  0  0  0  0  0
   55.4390   29.1200   44.8250 O   0  0  0  0  0  0  0  0  0  0  0  0
   56.2970   29.1990   42.5550 O   0  0  0  0  0  0  0  0  0  0  0  0
   57.3560   30.9090   44.2890 C   0  0  0  0  0  0  0  0  0  0  0  0
   57.4750   31.8160   43.2270 C   0  0  0  0  0  0  0  0  0  0  0  0
   58.0380   33.0770   43.4350 C   0  0  0  0  0  0  0  0  0  0  0  0
   58.4880   33.4480   44.7110 C   0  0  0  0  0  0  0  0  0  0  0  0
   59.0530   34.6670   44.9150 N   0  0  0  0  0  0  0  0  0  0  0  0
   59.5140   35.0360   46.1400 C   0  0  0  0  0  0  0  0  0  0  0  0
   60.0330   36.1780   46.2790 O   0  0  0  0  0  0  0  0  0  0  0  0
   59.4180   34.1800   47.2110 N   0  0  0  0  0  0  0  0  0  0  0  0
   59.9800   34.5830   48.5200 C   0  0  0  0  0  0  0  0  0  0  0  0
   61.3820   34.0420   48.6950 C   0  0  0  0  0  0  0  0  0  0  0  0
   62.2010   33.8590   47.5670 C   0  0  0  0  0  0  0  0  0  0  0  0
   63.4920   33.3460   47.7050 C   0  0  0  0  0  0  0  0  0  0  0  0
   63.9800   33.0090   48.9660 C   0  0  0  0  0  0  0  0  0  0  0  0
   63.1790   33.1850   50.0970 C   0  0  0  0  0  0  0  0  0  0  0  0
   61.8750   33.7040   49.9750 C   0  0  0  0  0  0  0  0  0  0  0  0
   61.0510   33.8940   51.0950 O   0  0  0  0  0  0  0  0  0  0  0  0
   60.0380   32.9880   51.5220 C   0  0  0  0  0  0  0  0  0  0  0  0
   58.8170   32.9540   47.0510 C   0  0  0  0  0  0  0  0  0  0  0  0
   58.6820   32.1750   48.0370 O   0  0  0  0  0  0  0  0  0  0  0  0
   58.3520   32.5540   45.7870 C   0  0  0  0  0  0  0  0  0  0  0  0
   57.7730   31.2890   45.5720 C   0  0  0  0  0  0  0  0  0  0  0  0
   57.6798   25.4552   44.4467 H   0  0  0  0  0  0  0  0  0  0  0  0
   56.7773   25.5768   42.8984 H   0  0  0  0  0  0  0  0  0  0  0  0
   58.4934   25.0461   42.8984 H   0  0  0  0  0  0  0  0  0  0  0  0
   59.3036   27.1775   43.1337 H   0  0  0  0  0  0  0  0  0  0  0  0
   57.6971   27.5641   42.3433 H   0  0  0  0  0  0  0  0  0  0  0  0
   58.4616   29.0643   46.0808 H   0  0  0  0  0  0  0  0  0  0  0  0
   59.0835   27.3511   45.8808 H   0  0  0  0  0  0  0  0  0  0  0  0
   60.8610   29.0942   45.6520 H   0  0  0  0  0  0  0  0  0  0  0  0
   60.6557   28.0487   44.2058 H   0  0  0  0  0  0  0  0  0  0  0  0
   59.9992   29.7208   44.2058 H   0  0  0  0  0  0  0  0  0  0  0  0
   57.1229   31.5330   42.2240 H   0  0  0  0  0  0  0  0  0  0  0  0
   58.1289   33.7818   42.5954 H   0  0  0  0  0  0  0  0  0  0  0  0
   59.1450   35.3380   44.1170 H   0  0  0  0  0  0  0  0  0  0  0  0
   60.0079   35.6812   48.5773 H   0  0  0  0  0  0  0  0  0  0  0  0
   59.3429   34.1728   49.3174 H   0  0  0  0  0  0  0  0  0  0  0  0
   61.8218   34.1219   46.5685 H   0  0  0  0  0  0  0  0  0  0  0  0
   64.1254   33.2075   46.8164 H   0  0  0  0  0  0  0  0  0  0  0  0
   64.9973   32.6039   49.0710 H   0  0  0  0  0  0  0  0  0  0  0  0
   63.5692   32.9164   51.0898 H   0  0  0  0  0  0  0  0  0  0  0  0
   60.0090   32.9620   52.6213 H   0  0  0  0  0  0  0  0  0  0  0  0
   59.0627   33.3206   51.1372 H   0  0  0  0  0  0  0  0  0  0  0  0
   60.2601   31.9817   51.1372 H   0  0  0  0  0  0  0  0  0  0  0  0
   57.6471   30.5947   46.4159 H   0  0  0  0  0  0  0  0  0  0  0  0
  1  2  1  0
  2  3  1  0
  3  4  1  0
  4  5  1  0
  3  6  1  0
  6  7  2  0
  6  8  2  0
  6  9  1  0
  9 10  2  0
 10 11  1  0
 11 12  2  0
 12 13  1  0
 13 14  1  0
 14 15  2  0
 14 16  1  0
 16 17  1  0
 17 18  1  0
 18 19  2  0
 19 20  1  0
 20 21  2  0
 21 22  1  0
 22 23  2  0
 23 24  1  0
 24 25  1  0
 16 26  1  0
 26 27  2  0
 26 28  1  0
 28 29  2  0
 29  9  1  0
 28 12  1  0
 23 18  1  0
  1 30  1  0
  1 31  1  0
  1 32  1  0
  2 33  1  0
  2 34  1  0
  4 35  1  0
  4 36  1  0
  5 37  1  0
  5 38  1  0
  5 39  1  0
 10 40  1  0
 11 41  1  0
 13 42  1  0
 17 43  1  0
 17 44  1  0
 19 45  1  0
 20 46  1  0
 21 47  1  0
 22 48  1  0
 25 49  1  0
 25 50  1  0
 25 51  1  0
 29 52  1  0
M  END
>  <UniqueID>  (9) 
8

>  <SMILES>  (9) 
CCN(CC)S(=O)(=O)c1ccc2[nH]c(=O)n(Cc3ccccc3OC)c(=O)c2c1

>  <Energy>  (9) 
68.16390775435964

>  <Genealogy>  (9) 
CCN(CC)S(=O)(=O)c1ccc2[nH]c(=O)n(Cc3ccccc3OC)c(=O)c2c1 (3D coordinates assigned)
CCN(CC)S(=O)(=O)c1ccc2[nH]c(=O)n(Cc3ccccc3OC)c(=O)c2c1 (optimized conformer: 68.16390775435964 kcal/mol)

>  <smiles>  (9) 
CCN(CC)S(=O)(=O)c1ccc2[nH]c(=O)n(Cc3ccccc3OC)c(=O)c2c1

>  <score_type>  (9) 
oracle

>  <origin>  (9) 
adg

>  <m_score__min__energy>  (9) 
-8.9800000000000004

>  <m_primary>  (9) 
energy

$$$$
9:0
     RDKit          3D

 42 45  0  0  0  0  0  0  0  0999 V2000
   60.8120   26.5380   46.3640 N   0  0  0  0  0  0  0  0  0  0  0  0
   59.9710   27.2820   46.0860 C   0  0  0  0  0  0  0  0  0  0  0  0
   58.9180   28.2130   45.7390 C   0  0  0  0  0  0  0  0  0  0  0  0
   57.6550   27.7680   45.3010 C   0  0  0  0  0  0  0  0  0  0  0  0
   57.2870   26.3350   45.2380 C   0  0  0  0  0  0  0  0  0  0  0  0
   57.7440   25.5440   44.1690 C   0  0  0  0  0  0  0  0  0  0  0  0
   57.3840   24.1960   44.0840 C   0  0  0  0  0  0  0  0  0  0  0  0
   56.5550   23.6300   45.0550 C   0  0  0  0  0  0  0  0  0  0  0  0
   56.0790   24.4120   46.1100 C   0  0  0  0  0  0  0  0  0  0  0  0
   56.4360   25.7600   46.1990 C   0  0  0  0  0  0  0  0  0  0  0  0
   56.7360   28.6850   44.9030 N   0  0  0  0  0  0  0  0  0  0  0  0
   56.9870   30.0170   44.9360 C   0  0  0  0  0  0  0  0  0  0  0  0
   56.0840   30.8180   44.5710 O   0  0  0  0  0  0  0  0  0  0  0  0
   58.1990   30.4810   45.3760 N   0  0  0  0  0  0  0  0  0  0  0  0
   58.4540   31.9010   45.4120 C   0  0  0  0  0  0  0  0  0  0  0  0
   59.2790   32.4460   46.4040 C   0  0  0  0  0  0  0  0  0  0  0  0
   59.4930   33.8310   46.4200 C   0  0  0  0  0  0  0  0  0  0  0  0
   60.3210   34.4430   47.3720 O   0  0  0  0  0  0  0  0  0  0  0  0
   61.5880   33.9840   47.7620 C   0  0  0  0  0  0  0  0  0  0  0  0
   62.0040   33.9960   49.1080 C   0  0  0  0  0  0  0  0  0  0  0  0
   63.2810   33.5440   49.4530 C   0  0  0  0  0  0  0  0  0  0  0  0
   64.1560   33.0910   48.4600 C   0  0  0  0  0  0  0  0  0  0  0  0
   63.7560   33.0970   47.1210 C   0  0  0  0  0  0  0  0  0  0  0  0
   62.4790   33.5470   46.7740 C   0  0  0  0  0  0  0  0  0  0  0  0
   58.9200   34.6020   45.4600 N   0  0  0  0  0  0  0  0  0  0  0  0
   58.1200   34.0610   44.5040 C   0  0  0  0  0  0  0  0  0  0  0  0
   57.8850   32.7240   44.4860 N   0  0  0  0  0  0  0  0  0  0  0  0
   59.1680   29.5940   45.7670 C   0  0  0  0  0  0  0  0  0  0  0  0
   60.3000   30.0140   46.1390 O   0  0  0  0  0  0  0  0  0  0  0  0
   58.3880   25.9882   43.3958 H   0  0  0  0  0  0  0  0  0  0  0  0
   57.7542   23.5801   43.2511 H   0  0  0  0  0  0  0  0  0  0  0  0
   56.2768   22.5678   44.9890 H   0  0  0  0  0  0  0  0  0  0  0  0
   55.4224   23.9661   46.8716 H   0  0  0  0  0  0  0  0  0  0  0  0
   56.0494   26.3749   47.0251 H   0  0  0  0  0  0  0  0  0  0  0  0
   59.7508   31.7982   47.1575 H   0  0  0  0  0  0  0  0  0  0  0  0
   61.3220   34.3621   49.8896 H   0  0  0  0  0  0  0  0  0  0  0  0
   63.5981   33.5445   50.5063 H   0  0  0  0  0  0  0  0  0  0  0  0
   65.1586   32.7302   48.7331 H   0  0  0  0  0  0  0  0  0  0  0  0
   64.4467   32.7473   46.3395 H   0  0  0  0  0  0  0  0  0  0  0  0
   62.1719   33.5580   45.7178 H   0  0  0  0  0  0  0  0  0  0  0  0
   57.6613   34.7085   43.7422 H   0  0  0  0  0  0  0  0  0  0  0  0
   57.2750   32.3250   43.7380 H   0  0  0  0  0  0  0  0  0  0  0  0
  1  2  3  0
  2  3  1  0
  3  4  2  0
  4  5  1  0
  5  6  2  0
  6  7  1  0
  7  8  2  0
  8  9  1  0
  9 10  2  0
  4 11  1  0
 11 12  1  0
 12 13  2  0
 12 14  1  0
 14 15  1  0
 15 16  2  0
 16 17  1  0
 17 18  1  0
 18 19  1  0
 19 20  2  0
 20 21  1  0
 21 22  2  0
 22 23  1  0
 23 24  2  0
 17 25  2  0
 25 26  1  0
 26 27  2  0
 14 28  1  0
 28 29  2  0
 28  3  1  0
 10  5  1  0
 27 15  1  0
 24 19  1  0
  6 30  1  0
  7 31  1  0
  8 32  1  0
  9 33  1  0
 10 34  1  0
 16 35  1  0
 20 36  1  0
 21 37  1  0
 22 38  1  0
 23 39  1  0
 24 40  1  0
 26 41  1  0
 27 42  1  0
M  CHG  2  11  -1  27   1
M  END
>  <UniqueID>  (10) 
9

>  <SMILES>  (10) 
N#Cc1c(-c2ccccc2)[n-]c(=O)n(-c2cc(Oc3ccccc3)nc[nH+]2)c1=O

>  <Energy>  (10) 
71.82984787553976

>  <Genealogy>  (10) 
N#Cc1c(-c2ccccc2)[n-]c(=O)n(-c2cc(Oc3ccccc3)nc[nH+]2)c1=O (protonated)
N#Cc1c(-c2ccccc2)[n-]c(=O)n(-c2cc(Oc3ccccc3)nc[nH+]2)c1=O (3D coordinates assigned)
N#Cc1c(-c2ccccc2)[n-]c(=O)n(-c2cc(Oc3ccccc3)nc[nH+]2)c1=O (optimized conformer: 71.82984787553976 kcal/mol)

>  <smiles>  (10) 
N#Cc1c(-c2ccccc2)[nH]c(=O)n(-c2cc(Oc3ccccc3)ncn2)c1=O

>  <score_type>  (10) 
oracle

>  <origin>  (10) 
adg

>  <m_score__min__energy>  (10) 
-7.9500000000000002

>  <m_primary>  (10) 
energy

$$$$
10:0
     RDKit          3D

 47 49  0  0  0  0  0  0  0  0999 V2000
   60.5880   29.1360   45.5620 C   0  0  0  0  0  0  0  0  0  0  0  0
   59.3740   29.8620   45.9340 N   0  0  0  0  0  0  0  0  0  0  0  0
   59.3460   30.6280   47.1850 C   0  0  0  0  0  0  0  0  0  0  0  0
   59.3250   32.1030   46.8900 C   0  0  0  0  0  0  0  0  0  0  0  0
   58.0990   32.7780   46.7640 C   0  0  0  0  0  0  0  0  0  0  0  0
   58.0750   34.1520   46.5040 C   0  0  0  0  0  0  0  0  0  0  0  0
   59.2730   34.8590   46.3660 C   0  0  0  0  0  0  0  0  0  0  0  0
   60.4970   34.1960   46.4960 C   0  0  0  0  0  0  0  0  0  0  0  0
   60.5260   32.8230   46.7640 C   0  0  0  0  0  0  0  0  0  0  0  0
   58.3120   30.0180   44.9780 C   0  0  0  0  0  0  0  0  0  0  0  0
   58.4070   31.0340   44.0130 C   0  0  0  0  0  0  0  0  0  0  0  0
   57.3920   31.2120   43.0690 C   0  0  0  0  0  0  0  0  0  0  0  0
   56.2790   30.3700   43.0730 C   0  0  0  0  0  0  0  0  0  0  0  0
   56.1730   29.3530   44.0260 C   0  0  0  0  0  0  0  0  0  0  0  0
   57.1770   29.1730   44.9930 C   0  0  0  0  0  0  0  0  0  0  0  0
   57.0220   28.0600   45.9980 C   0  0  0  0  0  0  0  0  0  0  0  0
   57.4030   26.7960   45.3730 N   0  0  0  0  0  0  0  0  0  0  0  0
   56.3220   25.5360   45.8820 S   0  0  0  0  0  0  0  0  0  0  0  0
   56.5000   25.2670   47.3510 O   0  0  0  0  0  0  0  0  0  0  0  0
   54.9050   25.9780   45.6460 O   0  0  0  0  0  0  0  0  0  0  0  0
   56.6300   24.0750   44.9490 C   0  0  0  0  0  0  0  0  0  0  0  0
   55.9410   23.8600   43.7470 C   0  0  0  0  0  0  0  0  0  0  0  0
   56.1900   22.7110   42.9890 C   0  0  0  0  0  0  0  0  0  0  0  0
   57.1240   21.7690   43.4300 C   0  0  0  0  0  0  0  0  0  0  0  0
   57.8110   21.9780   44.6300 C   0  0  0  0  0  0  0  0  0  0  0  0
   57.5730   23.1320   45.3840 C   0  0  0  0  0  0  0  0  0  0  0  0
   61.1187   28.8186   46.4717 H   0  0  0  0  0  0  0  0  0  0  0  0
   60.3182   28.2509   44.9672 H   0  0  0  0  0  0  0  0  0  0  0  0
   61.2401   29.7925   44.9672 H   0  0  0  0  0  0  0  0  0  0  0  0
   58.4452   30.3587   47.7560 H   0  0  0  0  0  0  0  0  0  0  0  0
   60.2464   30.3917   47.7711 H   0  0  0  0  0  0  0  0  0  0  0  0
   57.1548   32.2238   46.8702 H   0  0  0  0  0  0  0  0  0  0  0  0
   57.1129   34.6766   46.4081 H   0  0  0  0  0  0  0  0  0  0  0  0
   59.2526   35.9384   46.1549 H   0  0  0  0  0  0  0  0  0  0  0  0
   61.4385   34.7545   46.3874 H   0  0  0  0  0  0  0  0  0  0  0  0
   61.4904   32.3059   46.8763 H   0  0  0  0  0  0  0  0  0  0  0  0
   59.2866   31.6944   44.0001 H   0  0  0  0  0  0  0  0  0  0  0  0
   57.4704   32.0161   42.3225 H   0  0  0  0  0  0  0  0  0  0  0  0
   55.4841   30.5069   42.3251 H   0  0  0  0  0  0  0  0  0  0  0  0
   55.2967   28.6881   44.0191 H   0  0  0  0  0  0  0  0  0  0  0  0
   57.6714   28.2530   46.8646 H   0  0  0  0  0  0  0  0  0  0  0  0
   55.9760   28.0070   46.3343 H   0  0  0  0  0  0  0  0  0  0  0  0
   55.2024   24.5971   43.3990 H   0  0  0  0  0  0  0  0  0  0  0  0
   55.6501   22.5485   42.0445 H   0  0  0  0  0  0  0  0  0  0  0  0
   57.3182   20.8650   42.8342 H   0  0  0  0  0  0  0  0  0  0  0  0
   58.5402   21.2333   44.9818 H   0  0  0  0  0  0  0  0  0  0  0  0
   58.1263   23.3003   46.3197 H   0  0  0  0  0  0  0  0  0  0  0  0
  1  2  1  0
  2  3  1  0
  3  4  1  0
  4  5  2  0
  5  6  1  0
  6  7  2  0
  7  8  1  0
  8  9  2  0
  2 10  1  0
 10 11  2  0
 11 12  1  0
 12 13  2  0
 13 14  1  0
 14 15  2  0
 15 16  1  0
 16 17  1  0
 17 18  1  0
 18 19  2  0
 18 20  2  0
 18 21  1  0
 21 22  2  0
 22 23  1  0
 23 24  2  0
 24 25  1  0
 25 26  2  0
  9  4  1  0
 15 10  1  0
 26 21  1  0
  1 27  1  0
  1 28  1  0
  1 29  1  0
  3 30  1  0
  3 31  1  0
  5 32  1  0
  6 33  1  0
  7 34  1  0
  8 35  1  0
  9 36  1  0
 11 37  1  0
 12 38  1  0
 13 39  1  0
 14 40  1  0
 16 41  1  0
 16 42  1  0
 22 43  1  0
 23 44  1  0
 24 45  1  0
 25 46  1  0
 26 47  1  0
M  CHG  1  17  -1
M  END
>  <UniqueID>  (11) 
10

>  <SMILES>  (11) 
CN(Cc1ccccc1)c1ccccc1C[N-]S(=O)(=O)c1ccccc1

>  <Energy>  (11) 
46.073004593732

>  <Genealogy>  (11) 
CN(Cc1ccccc1)c1ccccc1C[N-]S(=O)(=O)c1ccccc1 (protonated)
CN(Cc1ccccc1)c1ccccc1C[N-]S(=O)(=O)c1ccccc1 (3D coordinates assigned)
CN(Cc1ccccc1)c1ccccc1C[N-]S(=O)(=O)c1ccccc1 (optimized conformer: 46.073004593732 kcal/mol)

>  <smiles>  (11) 
CN(Cc1ccccc1)c1ccccc1CNS(=O)(=O)c1ccccc1

>  <score_type>  (11) 
oracle

>  <origin>  (11) 
adg

>  <m_score__min__energy>  (11) 
-10.640000000000001

>  <m_primary>  (11) 
energy

$$$$
11:0
     RDKit          3D

 50 52  0  0  0  0  0  0  0  0999 V2000
   56.4790   30.1940   43.0650 C   0  0  0  0  0  0  0  0  0  0  0  0
   56.3760   30.4470   44.4620 O   0  0  0  0  0  0  0  0  0  0  0  0
   57.3990   31.0070   45.2430 C   0  0  0  0  0  0  0  0  0  0  0  0
   57.7100   32.3780   45.2100 C   0  0  0  0  0  0  0  0  0  0  0  0
   58.7380   32.8890   46.0080 C   0  0  0  0  0  0  0  0  0  0  0  0
   59.4770   32.0400   46.8510 C   0  0  0  0  0  0  0  0  0  0  0  0
   60.5690   32.5820   47.6990 C   0  0  0  0  0  0  0  0  0  0  0  0
   61.9140   32.2980   47.4030 C   0  0  0  0  0  0  0  0  0  0  0  0
   62.9400   32.8150   48.1980 C   0  0  0  0  0  0  0  0  0  0  0  0
   62.6460   33.6340   49.2990 C   0  0  0  0  0  0  0  0  0  0  0  0
   63.7610   34.2080   50.1460 C   0  0  0  0  0  0  0  0  0  0  0  0
   64.6490   33.1770   50.7320 N   0  0  0  0  0  0  0  0  0  0  0  0
   65.8780   33.7350   51.3300 C   0  0  0  0  0  0  0  0  0  0  0  0
   67.1200   32.8770   51.0420 C   0  0  0  0  0  0  0  0  0  0  0  0
   66.7480   31.4850   50.4930 C   0  0  0  0  0  0  0  0  0  0  0  0
   66.0070   30.6180   51.4400 N   0  0  2  0  0  0  0  0  0  0  0  0
   66.5260   29.2350   51.4610 C   0  0  0  0  0  0  0  0  0  0  0  0
   64.5300   30.6990   51.3200 C   0  0  0  0  0  0  0  0  0  0  0  0
   63.9440   32.1230   51.4970 C   0  0  0  0  0  0  0  0  0  0  0  0
   61.3030   33.9000   49.6110 C   0  0  0  0  0  0  0  0  0  0  0  0
   60.2750   33.3850   48.8150 C   0  0  0  0  0  0  0  0  0  0  0  0
   59.1630   30.6700   46.8790 C   0  0  0  0  0  0  0  0  0  0  0  0
   58.1340   30.1620   46.0810 C   0  0  0  0  0  0  0  0  0  0  0  0
   56.8893   29.1861   42.9042 H   0  0  0  0  0  0  0  0  0  0  0  0
   55.4818   30.2615   42.6056 H   0  0  0  0  0  0  0  0  0  0  0  0
   57.1455   30.9388   42.6056 H   0  0  0  0  0  0  0  0  0  0  0  0
   57.1413   33.0522   44.5527 H   0  0  0  0  0  0  0  0  0  0  0  0
   58.9706   33.9637   45.9762 H   0  0  0  0  0  0  0  0  0  0  0  0
   62.1603   31.6638   46.5387 H   0  0  0  0  0  0  0  0  0  0  0  0
   63.9872   32.5780   47.9589 H   0  0  0  0  0  0  0  0  0  0  0  0
   64.3691   34.8740   49.5162 H   0  0  0  0  0  0  0  0  0  0  0  0
   63.2887   34.7421   50.9837 H   0  0  0  0  0  0  0  0  0  0  0  0
   66.0431   34.7421   50.9196 H   0  0  0  0  0  0  0  0  0  0  0  0
   65.7359   33.7584   52.4205 H   0  0  0  0  0  0  0  0  0  0  0  0
   67.7452   33.3955   50.3002 H   0  0  0  0  0  0  0  0  0  0  0  0
   67.6606   32.7344   51.9893 H   0  0  0  0  0  0  0  0  0  0  0  0
   66.1233   31.6262   49.5987 H   0  0  0  0  0  0  0  0  0  0  0  0
   67.6983   30.9719   50.2839 H   0  0  0  0  0  0  0  0  0  0  0  0
   66.2230   31.0030   52.3920 H   0  0  0  0  0  0  0  0  0  0  0  0
   66.6496   28.9056   52.5032 H   0  0  0  0  0  0  0  0  0  0  0  0
   65.8165   28.5693   50.9477 H   0  0  0  0  0  0  0  0  0  0  0  0
   67.4983   29.2004   50.9477 H   0  0  0  0  0  0  0  0  0  0  0  0
   64.2465   30.3332   50.3221 H   0  0  0  0  0  0  0  0  0  0  0  0
   64.1175   30.0890   52.1372 H   0  0  0  0  0  0  0  0  0  0  0  0
   62.8939   32.1054   51.1700 H   0  0  0  0  0  0  0  0  0  0  0  0
   64.0592   32.3786   52.5607 H   0  0  0  0  0  0  0  0  0  0  0  0
   61.0579   34.5177   50.4876 H   0  0  0  0  0  0  0  0  0  0  0  0
   59.2275   33.6101   49.0641 H   0  0  0  0  0  0  0  0  0  0  0  0
   59.7312   29.9929   47.5337 H   0  0  0  0  0  0  0  0  0  0  0  0
   57.9000   29.0876   46.1123 H   0  0  0  0  0  0  0  0  0  0  0  0
  1  2  1  0
  2  3  1  0
  3  4  2  0
  4  5  1  0
  5  6  2  0
  6  7  1  0
  7  8  2  0
  8  9  1  0
  9 10  2  0
 10 11  1  0
 11 12  1  0
 12 13  1  0
 13 14  1  0
 14 15  1  0
 15 16  1  0
 16 17  1  0
 16 18  1  0
 18 19  1  0
 10 20  1  0
 20 21  2  0
  6 22  1  0
 22 23  2  0
 23  3  1  0
 21  7  1  0
 19 12  1  0
  1 24  1  0
  1 25  1  0
  1 26  1  0
  4 27  1  0
  5 28  1  0
  8 29  1  0
  9 30  1  0
 11 31  1  0
 11 32  1  0
 13 33  1  0
 13 34  1  0
 14 35  1  0
 14 36  1  0
 15 37  1  0
 15 38  1  0
 16 39  1  1
 17 40  1  0
 17 41  1  0
 17 42  1  0
 18 43  1  0
 18 44  1  0
 19 45  1  0
 19 46  1  0
 20 47  1  0
 21 48  1  0
 22 49  1  0
 23 50  1  0
M  CHG  1  16   1
M  END
>  <UniqueID>  (12) 
11

>  <SMILES>  (12) 
COc1ccc(-c2ccc(CN3CCC[N@H+](C)CC3)cc2)cc1

>  <Energy>  (12) 
74.8349636516863

>  <Genealogy>  (12) 
COc1ccc(-c2ccc(CN3CCC[NH+](C)CC3)cc2)cc1 (protonated)
COc1ccc(-c2ccc(CN3CCC[N@H+](C)CC3)cc2)cc1 (chirality)
COc1ccc(-c2ccc(CN3CCC[N@H+](C)CC3)cc2)cc1 (3D coordinates assigned)
COc1ccc(-c2ccc(CN3CCC[N@H+](C)CC3)cc2)cc1 (nonaromatic ring conformer: 74.8349636516863 kcal/mol)

>  <smiles>  (12) 
COc1ccc(-c2ccc(CN3CCCN(C)CC3)cc2)cc1

>  <score_type>  (12) 
oracle

>  <origin>  (12) 
adg

>  <m_score__min__energy>  (12) 
-3.7400000000000002

>  <m_primary>  (12) 
energy

$$$$
12:0
     RDKit          3D

 47 49  0  0  0  0  0  0  0  0999 V2000
   59.6370   35.3940   45.3380 C   0  0  0  0  0  0  0  0  0  0  0  0
   59.4110   34.0080   45.7680 N   0  0  0  0  0  0  0  0  0  0  0  0
   60.4860   33.2620   46.4410 C   0  0  0  0  0  0  0  0  0  0  0  0
   59.9200   32.4380   47.5650 C   0  0  0  0  0  0  0  0  0  0  0  0
   59.9840   31.0360   47.5220 C   0  0  0  0  0  0  0  0  0  0  0  0
   59.4690   30.2750   48.5750 C   0  0  0  0  0  0  0  0  0  0  0  0
   58.8840   30.9070   49.6750 C   0  0  0  0  0  0  0  0  0  0  0  0
   58.8230   32.3020   49.7290 C   0  0  0  0  0  0  0  0  0  0  0  0
   59.3530   33.0680   48.6860 C   0  0  0  0  0  0  0  0  0  0  0  0
   58.0850   33.4400   45.7060 C   0  0  0  0  0  0  0  0  0  0  0  0
   57.1760   33.9050   46.4480 O   0  0  0  0  0  0  0  0  0  0  0  0
   57.7480   32.3320   44.7830 C   0  0  0  0  0  0  0  0  0  0  0  0
   57.7230   32.5580   43.3970 C   0  0  0  0  0  0  0  0  0  0  0  0
   57.3740   31.5300   42.5210 C   0  0  0  0  0  0  0  0  0  0  0  0
   57.0470   30.2670   43.0170 C   0  0  0  0  0  0  0  0  0  0  0  0
   57.0660   30.0180   44.3980 C   0  0  0  0  0  0  0  0  0  0  0  0
   56.7290   28.7120   44.8850 N   0  0  0  0  0  0  0  0  0  0  0  0
   57.9080   27.6270   45.5520 S   0  0  0  0  0  0  0  0  0  0  0  0
   58.2280   28.0600   46.9580 O   0  0  0  0  0  0  0  0  0  0  0  0
   59.1630   27.7030   44.7290 O   0  0  0  0  0  0  0  0  0  0  0  0
   57.3130   25.9670   45.5320 C   0  0  0  0  0  0  0  0  0  0  0  0
   58.2110   24.9070   45.3230 C   0  0  0  0  0  0  0  0  0  0  0  0
   57.7580   23.5840   45.3460 C   0  0  0  0  0  0  0  0  0  0  0  0
   58.8790   22.2660   45.0660 Cl  0  0  0  0  0  0  0  0  0  0  0  0
   56.4110   23.3110   45.6020 C   0  0  0  0  0  0  0  0  0  0  0  0
   55.5140   24.3590   45.8170 C   0  0  0  0  0  0  0  0  0  0  0  0
   55.9580   25.6850   45.7840 C   0  0  0  0  0  0  0  0  0  0  0  0
   55.0450   26.7140   45.9960 O   0  0  0  0  0  0  0  0  0  0  0  0
   57.3980   31.0650   45.2770 C   0  0  0  0  0  0  0  0  0  0  0  0
   59.7423   36.0397   46.2223 H   0  0  0  0  0  0  0  0  0  0  0  0
   60.5554   35.4456   44.7348 H   0  0  0  0  0  0  0  0  0  0  0  0
   58.7826   35.7347   44.7348 H   0  0  0  0  0  0  0  0  0  0  0  0
   60.9772   32.5977   45.7148 H   0  0  0  0  0  0  0  0  0  0  0  0
   61.2164   33.9752   46.8507 H   0  0  0  0  0  0  0  0  0  0  0  0
   60.4412   30.5347   46.6562 H   0  0  0  0  0  0  0  0  0  0  0  0
   59.5243   29.1770   48.5376 H   0  0  0  0  0  0  0  0  0  0  0  0
   58.4713   30.3063   50.4989 H   0  0  0  0  0  0  0  0  0  0  0  0
   58.3574   32.7983   50.5932 H   0  0  0  0  0  0  0  0  0  0  0  0
   59.3260   34.1662   48.7431 H   0  0  0  0  0  0  0  0  0  0  0  0
   57.9801   33.5512   43.0001 H   0  0  0  0  0  0  0  0  0  0  0  0
   57.3565   31.7152   41.4368 H   0  0  0  0  0  0  0  0  0  0  0  0
   56.7724   29.4611   42.3205 H   0  0  0  0  0  0  0  0  0  0  0  0
   55.7810   28.3220   44.6750 H   0  0  0  0  0  0  0  0  0  0  0  0
   59.2749   25.1185   45.1405 H   0  0  0  0  0  0  0  0  0  0  0  0
   56.0577   22.2698   45.6341 H   0  0  0  0  0  0  0  0  0  0  0  0
   54.4538   24.1410   46.0131 H   0  0  0  0  0  0  0  0  0  0  0  0
   57.3833   30.8893   46.3628 H   0  0  0  0  0  0  0  0  0  0  0  0
  1  2  1  0
  2  3  1  0
  3  4  1  0
  4  5  2  0
  5  6  1  0
  6  7  2  0
  7  8  1  0
  8  9  2  0
  2 10  1  0
 10 11  2  0
 10 12  1  0
 12 13  2  0
 13 14  1  0
 14 15  2  0
 15 16  1  0
 16 17  1  0
 17 18  1  0
 18 19  2  0
 18 20  2  0
 18 21  1  0
 21 22  2  0
 22 23  1  0
 23 24  1  0
 23 25  2  0
 25 26  1  0
 26 27  2  0
 27 28  1  0
 16 29  2  0
  9  4  1  0
 29 12  1  0
 27 21  1  0
  1 30  1  0
  1 31  1  0
  1 32  1  0
  3 33  1  0
  3 34  1  0
  5 35  1  0
  6 36  1  0
  7 37  1  0
  8 38  1  0
  9 39  1  0
 13 40  1  0
 14 41  1  0
 15 42  1  0
 17 43  1  0
 22 44  1  0
 25 45  1  0
 26 46  1  0
 29 47  1  0
M  CHG  1  28  -1
M  END
>  <UniqueID>  (13) 
12

>  <SMILES>  (13) 
CN(Cc1ccccc1)C(=O)c1cccc(NS(=O)(=O)c2cc(Cl)ccc2[O-])c1

>  <Energy>  (13) 
52.448594980604916

>  <Genealogy>  (13) 
CN(Cc1ccccc1)C(=O)c1cccc(NS(=O)(=O)c2cc(Cl)ccc2[O-])c1 (protonated)
CN(Cc1ccccc1)C(=O)c1cccc(NS(=O)(=O)c2cc(Cl)ccc2[O-])c1 (3D coordinates assigned)
CN(Cc1ccccc1)C(=O)c1cccc(NS(=O)(=O)c2cc(Cl)ccc2[O-])c1 (optimized conformer: 52.448594980604916 kcal/mol)

>  <smiles>  (13) 
CN(Cc1ccccc1)C(=O)c1cccc(NS(=O)(=O)c2cc(Cl)ccc2O)c1

>  <score_type>  (13) 
oracle

>  <origin>  (13) 
adg

>  <m_score__min__energy>  (13) 
-13.84

>  <m_primary>  (13) 
energy

$$$$
13:0
     RDKit          3D

 53 56  0  0  0  0  0  0  0  0999 V2000
   57.7038   27.3955   45.4393 H   0  0  0  0  0  0  0  0  0  0  0  0
   58.1250   28.3140   45.8740 C   0  0  0  0  0  0  0  0  0  0  0  0
   59.1690   28.2220   46.8120 C   0  0  0  0  0  0  0  0  0  0  0  0
   59.7100   26.9010   47.2180 C   0  0  0  0  0  0  0  0  0  0  0  0
   60.4720   26.8280   48.2180 O   0  0  0  0  0  0  0  0  0  0  0  0
   59.4550   25.7060   46.4640 N   0  0  0  0  0  0  0  0  0  0  0  0
   58.2880   25.2770   46.0860 C   0  0  0  0  0  0  0  0  0  0  0  0
   58.0940   24.7290   44.8620 N   0  0  0  0  0  0  0  0  0  0  0  0
   56.8060   24.3240   44.7130 C   0  0  0  0  0  0  0  0  0  0  0  0
   56.2990   23.7260   43.5610 C   0  0  0  0  0  0  0  0  0  0  0  0
   56.9470   23.5493   42.6898 H   0  0  0  0  0  0  0  0  0  0  0  0
   54.9450   23.3530   43.5330 C   0  0  0  0  0  0  0  0  0  0  0  0
   54.5328   22.8795   42.6298 H   0  0  0  0  0  0  0  0  0  0  0  0
   54.1050   23.5760   44.6450 C   0  0  0  0  0  0  0  0  0  0  0  0
   52.7620   23.1830   44.5440 O   0  0  0  0  0  0  0  0  0  0  0  0
   51.6850   24.0140   44.1130 C   0  0  0  0  0  0  0  0  0  0  0  0
   51.5222   23.8633   43.0356 H   0  0  0  0  0  0  0  0  0  0  0  0
   51.9454   25.0628   44.3183 H   0  0  0  0  0  0  0  0  0  0  0  0
   50.4020   23.6730   44.8650 C   0  0  0  0  0  0  0  0  0  0  0  0
   50.5877   23.7224   45.9481 H   0  0  0  0  0  0  0  0  0  0  0  0
   49.6160   24.3934   44.5945 H   0  0  0  0  0  0  0  0  0  0  0  0
   50.0774   22.6574   44.5945 H   0  0  0  0  0  0  0  0  0  0  0  0
   54.6370   24.1880   45.8050 C   0  0  0  0  0  0  0  0  0  0  0  0
   54.0026   24.3786   46.6832 H   0  0  0  0  0  0  0  0  0  0  0  0
   55.9840   24.5430   45.8070 C   0  0  0  0  0  0  0  0  0  0  0  0
   56.8750   25.2640   47.0330 S   0  0  0  0  0  0  0  0  0  0  0  0
   59.7230   29.3980   47.3360 C   0  0  0  0  0  0  0  0  0  0  0  0
   60.5464   29.3350   48.0626 H   0  0  0  0  0  0  0  0  0  0  0  0
   59.2390   30.6530   46.9440 C   0  0  0  0  0  0  0  0  0  0  0  0
   59.8070   31.8530   47.4980 N   0  0  0  0  0  0  0  0  0  0  0  0
   59.1330   32.5300   48.5840 C   0  0  0  0  0  0  0  0  0  0  0  0
   58.1410   31.9920   49.1470 O   0  0  0  0  0  0  0  0  0  0  0  0
   59.6410   33.8360   49.1300 C   0  0  0  0  0  0  0  0  0  0  0  0
   60.2065   33.6393   50.0528 H   0  0  0  0  0  0  0  0  0  0  0  0
   58.7733   34.4832   49.3256 H   0  0  0  0  0  0  0  0  0  0  0  0
   60.5530   34.5560   48.1360 C   0  0  0  0  0  0  0  0  0  0  0  0
   61.0635   35.3857   48.6469 H   0  0  0  0  0  0  0  0  0  0  0  0
   59.9435   34.9431   47.3061 H   0  0  0  0  0  0  0  0  0  0  0  0
   61.5950   33.5900   47.5790 C   0  0  0  0  0  0  0  0  0  0  0  0
   62.1479   33.1311   48.4119 H   0  0  0  0  0  0  0  0  0  0  0  0
   62.2890   34.1437   46.9296 H   0  0  0  0  0  0  0  0  0  0  0  0
   60.9090   32.4920   46.7600 C   0  0  0  0  0  0  0  0  0  0  0  0
   61.6540   31.7250   46.5020 H   0  0  0  0  0  0  0  0  0  0  0  0
   60.4853   32.9585   45.8584 H   0  0  0  0  0  0  0  0  0  0  0  0
   58.1820   30.7310   46.0270 C   0  0  0  0  0  0  0  0  0  0  0  0
   57.7934   31.7157   45.7282 H   0  0  0  0  0  0  0  0  0  0  0  0
   57.6120   29.5650   45.4840 C   0  0  0  0  0  0  0  0  0  0  0  0
   56.4920   29.6690   44.5090 C   0  0  0  0  0  0  0  0  0  0  0  0
   55.3250   29.3510   44.8610 O   0  0  0  0  0  0  0  0  0  0  0  0
   56.7040   30.1560   43.1070 C   0  0  0  0  0  0  0  0  0  0  0  0
   57.1429   31.1643   43.1315 H   0  0  0  0  0  0  0  0  0  0  0  0
   57.3858   29.4720   42.5804 H   0  0  0  0  0  0  0  0  0  0  0  0
   55.7388   30.1890   42.5804 H   0  0  0  0  0  0  0  0  0  0  0  0
  1  2  1  0
  2  3  2  0
  3  4  1  0
  4  5  2  0
  4  6  1  0
  6  7  2  0
  7  8  1  0
  8  9  1  0
  9 10  2  0
 10 11  1  0
 10 12  1  0
 12 13  1  0
 12 14  2  0
 14 15  1  0
 15 16  1  0
 16 17  1  0
 16 18  1  0
 16 19  1  0
 19 20  1  0
 19 21  1  0
 19 22  1  0
 14 23  1  0
 23 24  1  0
 23 25  2  0
 25 26  1  0
  3 27  1  0
 27 28  1  0
 27 29  2  0
 29 30  1  0
 30 31  1  0
 31 32  2  0
 31 33  1  0
 33 34  1  0
 33 35  1  0
 33 36  1  0
 36 37  1  0
 36 38  1  0
 36 39  1  0
 39 40  1  0
 39 41  1  0
 39 42  1  0
 42 43  1  0
 42 44  1  0
 29 45  1  0
 45 46  1  0
 45 47  2  0
 47 48  1  0
 48 49  2  0
 48 50  1  0
 50 51  1  0
 50 52  1  0
 50 53  1  0
 47  2  1  0
 26  7  1  0
 42 30  1  0
 25  9  1  0
M  CHG  1   8  -1
M  END
>  <UniqueID>  (14) 
13

>  <SMILES>  (14) 
CCOc1ccc2[n-]/c(=N/C(=O)c3cc(C(C)=O)cc(N4CCCCC4=O)c3)sc2c1

>  <Energy>  (14) 
100.8239316796211

>  <Genealogy>  (14) 
CCOc1ccc2[n-]c(=NC(=O)c3cc(C(C)=O)cc(N4CCCCC4=O)c3)sc2c1 (protonated)
CCOc1ccc2[n-]/c(=N/C(=O)c3cc(C(C)=O)cc(N4CCCCC4=O)c3)sc2c1 (cis-trans isomerization)
CCOc1ccc2[n-]/c(=N/C(=O)c3cc(C(C)=O)cc(N4CCCCC4=O)c3)sc2c1 (3D coordinates assigned)
CCOc1ccc2[n-]/c(=N/C(=O)c3cc(C(C)=O)cc(N4CCCCC4=O)c3)sc2c1 (nonaromatic ring conformer: 100.8239316796211 kcal/mol)

>  <smiles>  (14) 
CCOc1ccc2[nH]c(=NC(=O)c3cc(C(C)=O)cc(N4CCCCC4=O)c3)sc2c1

>  <score_type>  (14) 
oracle

>  <origin>  (14) 
adg

>  <m_score__min__energy>  (14) 
-10.6

>  <m_primary>  (14) 
energy

$$$$
14:0
     RDKit          3D

 25 26  0  0  0  0  0  0  0  0999 V2000
   60.6960   26.3420   46.7390 C   0  0  0  0  0  0  0  0  0  0  0  0
   59.2100   26.3700   46.5130 C   0  0  0  0  0  0  0  0  0  0  0  0
   58.3800   25.3890   46.9700 C   0  0  0  0  0  0  0  0  0  0  0  0
   57.0190   25.4420   46.7470 C   0  0  0  0  0  0  0  0  0  0  0  0
   56.1110   24.3750   47.2430 C   0  0  0  0  0  0  0  0  0  0  0  0
   56.5020   26.5140   46.0470 C   0  0  0  0  0  0  0  0  0  0  0  0
   55.1640   26.6400   45.7850 O   0  0  0  0  0  0  0  0  0  0  0  0
   57.3410   27.5170   45.5780 C   0  0  0  0  0  0  0  0  0  0  0  0
   56.8070   28.6570   44.8370 C   0  0  0  0  0  0  0  0  0  0  0  0
   55.5420   29.1380   44.9310 N   0  0  0  0  0  0  0  0  0  0  0  0
   55.4090   30.1790   44.1140 N   0  0  0  0  0  0  0  0  0  0  0  0
   56.6100   30.3440   43.5070 C   0  0  0  0  0  0  0  0  0  0  0  0
   57.0170   31.4800   42.4000 S   0  0  0  0  0  0  0  0  0  0  0  0
   57.4120   29.4240   43.9610 O   0  0  0  0  0  0  0  0  0  0  0  0
   58.7010   27.4600   45.8040 C   0  0  0  0  0  0  0  0  0  0  0  0
   60.9026   26.3381   47.8194 H   0  0  0  0  0  0  0  0  0  0  0  0
   61.1195   25.4357   46.2815 H   0  0  0  0  0  0  0  0  0  0  0  0
   61.1533   27.2317   46.2815 H   0  0  0  0  0  0  0  0  0  0  0  0
   58.8031   24.5398   47.5266 H   0  0  0  0  0  0  0  0  0  0  0  0
   56.1113   24.3753   48.3430 H   0  0  0  0  0  0  0  0  0  0  0  0
   55.0908   24.5620   46.8765 H   0  0  0  0  0  0  0  0  0  0  0  0
   56.4588   23.3979   46.8765 H   0  0  0  0  0  0  0  0  0  0  0  0
   54.7660   27.0900   44.9790 H   0  0  0  0  0  0  0  0  0  0  0  0
   54.5680   30.7770   43.9440 H   0  0  0  0  0  0  0  0  0  0  0  0
   59.3676   28.2534   45.4349 H   0  0  0  0  0  0  0  0  0  0  0  0
  1  2  1  0
  2  3  2  0
  3  4  1  0
  4  5  1  0
  4  6  2  0
  6  7  1  0
  6  8  1  0
  8  9  1  0
  9 10  2  0
 10 11  1  0
 11 12  1  0
 12 13  2  0
 12 14  1  0
  8 15  2  0
 15  2  1  0
 14  9  1  0
  1 16  1  0
  1 17  1  0
  1 18  1  0
  3 19  1  0
  5 20  1  0
  5 21  1  0
  5 22  1  0
  7 23  1  0
 11 24  1  0
 15 25  1  0
M  END
>  <smiles>  (15) 
Cc1cc(C)c(O)c(-c2n[nH]c(=S)o2)c1

>  <score_type>  (15) 
oracle

>  <origin>  (15) 
adg

>  <m_score__min__energy>  (15) 
-7.0800000000000001

>  <m_primary>  (15) 
energy

$$$$
15:0
     RDKit          3D

 44 46  0  0  0  0  0  0  0  0999 V2000
   57.6600   25.5120   47.2370 C   0  0  0  0  0  0  0  0  0  0  0  0
   58.0150   26.8240   46.6150 C   0  0  0  0  0  0  0  0  0  0  0  0
   57.2600   27.4640   45.2570 S   0  0  0  0  0  0  0  0  0  0  0  0
   58.2300   28.8300   45.1310 C   0  0  0  0  0  0  0  0  0  0  0  0
   58.0360   29.8360   44.1180 N   0  0  0  0  0  0  0  0  0  0  0  0
   57.0190   30.8960   44.1700 C   0  0  1  0  0  0  0  0  0  0  0  0
   55.8790   30.4430   44.8550 O   0  0  0  0  0  0  0  0  0  0  0  0
   57.5560   32.1370   44.8350 C   0  0  0  0  0  0  0  0  0  0  0  0
   57.9260   33.3060   44.1960 C   0  0  0  0  0  0  0  0  0  0  0  0
   58.4880   34.1010   45.1710 C   0  0  0  0  0  0  0  0  0  0  0  0
   59.0550   35.3490   44.9240 O   0  0  0  0  0  0  0  0  0  0  0  0
   58.4410   33.4890   46.3760 N   0  0  0  0  0  0  0  0  0  0  0  0
   59.1110   33.8850   47.6150 C   0  0  0  0  0  0  0  0  0  0  0  0
   60.5750   33.5510   47.5220 C   0  0  0  0  0  0  0  0  0  0  0  0
   61.2030   32.8270   48.5480 C   0  0  0  0  0  0  0  0  0  0  0  0
   62.5800   32.5920   48.5040 C   0  0  0  0  0  0  0  0  0  0  0  0
   63.3400   33.0790   47.4360 C   0  0  0  0  0  0  0  0  0  0  0  0
   62.7250   33.8080   46.4160 C   0  0  0  0  0  0  0  0  0  0  0  0
   61.3480   34.0530   46.4610 C   0  0  0  0  0  0  0  0  0  0  0  0
   57.8610   32.2890   46.1750 C   0  0  0  0  0  0  0  0  0  0  0  0
   59.1880   28.7980   46.1530 C   0  0  0  0  0  0  0  0  0  0  0  0
   60.2680   29.7430   46.2870 C   0  0  0  0  0  0  0  0  0  0  0  0
   61.1350   30.5040   46.3850 N   0  0  0  0  0  0  0  0  0  0  0  0
   59.0520   27.6780   47.0010 C   0  0  0  0  0  0  0  0  0  0  0  0
   59.9870   27.3850   48.1400 C   0  0  0  0  0  0  0  0  0  0  0  0
   57.6856   25.6067   48.3326 H   0  0  0  0  0  0  0  0  0  0  0  0
   56.6496   25.2165   46.9181 H   0  0  0  0  0  0  0  0  0  0  0  0
   58.3835   24.7473   46.9181 H   0  0  0  0  0  0  0  0  0  0  0  0
   58.5640   29.7070   43.2250 H   0  0  0  0  0  0  0  0  0  0  0  0
   56.7448   31.1507   43.1356 H   0  0  0  0  0  0  0  0  0  0  0  0
   56.1790   30.0910   45.7350 H   0  0  0  0  0  0  0  0  0  0  0  0
   57.7983   33.5504   43.1311 H   0  0  0  0  0  0  0  0  0  0  0  0
   60.0470   35.4760   44.7760 H   0  0  0  0  0  0  0  0  0  0  0  0
   58.9908   34.9678   47.7670 H   0  0  0  0  0  0  0  0  0  0  0  0
   58.6645   33.3442   48.4624 H   0  0  0  0  0  0  0  0  0  0  0  0
   60.6086   32.4430   49.3902 H   0  0  0  0  0  0  0  0  0  0  0  0
   63.0664   32.0234   49.3103 H   0  0  0  0  0  0  0  0  0  0  0  0
   64.4226   32.8878   47.3993 H   0  0  0  0  0  0  0  0  0  0  0  0
   63.3238   34.1901   45.5761 H   0  0  0  0  0  0  0  0  0  0  0  0
   60.8692   34.6402   45.6636 H   0  0  0  0  0  0  0  0  0  0  0  0
   57.6606   31.5434   46.9585 H   0  0  0  0  0  0  0  0  0  0  0  0
   59.4649   27.5486   49.0943 H   0  0  0  0  0  0  0  0  0  0  0  0
   60.3217   26.3389   48.0798 H   0  0  0  0  0  0  0  0  0  0  0  0
   60.8589   28.0530   48.0798 H   0  0  0  0  0  0  0  0  0  0  0  0
  1  2  1  0
  2  3  1  0
  3  4  1  0
  4  5  1  0
  5  6  1  0
  6  7  1  0
  6  8  1  0
  8  9  1  0
  9 10  2  0
 10 11  1  0
 10 12  1  0
 12 13  1  0
 13 14  1  0
 14 15  2  0
 15 16  1  0
 16 17  2  0
 17 18  1  0
 18 19  2  0
 12 20  1  0
  4 21  2  0
 21 22  1  0
 22 23  3  0
 21 24  1  0
 24 25  1  0
 24  2  2  0
 20  8  2  0
 19 14  1  0
  1 26  1  0
  1 27  1  0
  1 28  1  0
  5 29  1  0
  6 30  1  6
  7 31  1  0
  9 32  1  0
 11 33  1  0
 13 34  1  0
 13 35  1  0
 15 36  1  0
 16 37  1  0
 17 38  1  0
 18 39  1  0
 19 40  1  0
 20 41  1  0
 25 42  1  0
 25 43  1  0
 25 44  1  0
M  END
>  <UniqueID>  (16) 
14

>  <SMILES>  (16) 
Cc1sc(N[C@@H](O)c2cc(O)n(Cc3ccccc3)c2)c(C#N)c1C

>  <Energy>  (16) 
93.77128767696168

>  <Genealogy>  (16) 
Cc1sc(N[C@@H](O)c2cc(O)n(Cc3ccccc3)c2)c(C#N)c1C (chirality)
Cc1sc(N[C@@H](O)c2cc(O)n(Cc3ccccc3)c2)c(C#N)c1C (3D coordinates assigned)
Cc1sc(N[C@@H](O)c2cc(O)n(Cc3ccccc3)c2)c(C#N)c1C (optimized conformer: 93.77128767696168 kcal/mol)

>  <smiles>  (16) 
Cc1sc(NC(O)c2cc(O)n(Cc3ccccc3)c2)c(C#N)c1C

>  <score_type>  (16) 
oracle

>  <origin>  (16) 
adg

>  <m_score__min__energy>  (16) 
-8.9100000000000001

>  <m_primary>  (16) 
energy

$$$$
16:0
     RDKit          3D

 49 51  0  0  0  0  0  0  0  0999 V2000
   59.9642   27.9829   46.6346 H   0  0  0  0  0  0  0  0  0  0  0  0
   59.7780   29.0650   46.5690 C   0  0  0  0  0  0  0  0  0  0  0  0
   60.4990   29.8600   47.3060 N   0  0  0  0  0  0  0  0  0  0  0  0
   61.4550   30.8570   46.8170 C   0  0  0  0  0  0  0  0  0  0  0  0
   62.4628   30.5758   47.1564 H   0  0  0  0  0  0  0  0  0  0  0  0
   61.3886   30.8741   45.7191 H   0  0  0  0  0  0  0  0  0  0  0  0
   61.1330   32.3040   47.3380 C   0  0  0  0  0  0  0  0  0  0  0  0
   59.8580   32.8250   46.7300 N   0  0  0  0  0  0  0  0  0  0  0  0
   60.0050   33.9500   45.7660 C   0  0  0  0  0  0  0  0  0  0  0  0
   60.6151   34.7364   46.2343 H   0  0  0  0  0  0  0  0  0  0  0  0
   60.4815   33.5486   44.8595 H   0  0  0  0  0  0  0  0  0  0  0  0
   58.6480   34.5620   45.3460 C   0  0  0  0  0  0  0  0  0  0  0  0
   58.4509   35.4529   45.9604 H   0  0  0  0  0  0  0  0  0  0  0  0
   58.7019   34.8293   44.2803 H   0  0  0  0  0  0  0  0  0  0  0  0
   57.5050   33.5610   45.5370 C   0  0  0  0  0  0  0  0  0  0  0  0
   56.5564   34.0411   45.2547 H   0  0  0  0  0  0  0  0  0  0  0  0
   57.6995   32.6843   44.9018 H   0  0  0  0  0  0  0  0  0  0  0  0
   57.4150   33.0930   47.0000 C   0  0  0  0  0  0  0  0  0  0  0  0
   56.7207   33.7527   47.5412 H   0  0  0  0  0  0  0  0  0  0  0  0
   57.0597   32.0520   47.0010 H   0  0  0  0  0  0  0  0  0  0  0  0
   58.7810   33.1270   47.7040 C   0  0  0  0  0  0  0  0  0  0  0  0
   58.9460   34.1268   48.1320 H   0  0  0  0  0  0  0  0  0  0  0  0
   58.7948   32.3730   48.5048 H   0  0  0  0  0  0  0  0  0  0  0  0
   62.3430   33.2550   47.0330 C   0  0  0  0  0  0  0  0  0  0  0  0
   62.5322   33.2463   45.9494 H   0  0  0  0  0  0  0  0  0  0  0  0
   62.0735   34.2590   47.3925 H   0  0  0  0  0  0  0  0  0  0  0  0
   63.6330   32.8330   47.7610 C   0  0  0  0  0  0  0  0  0  0  0  0
   64.0632   31.9684   47.2343 H   0  0  0  0  0  0  0  0  0  0  0  0
   64.3070   33.7023   47.7554 H   0  0  0  0  0  0  0  0  0  0  0  0
   63.4070   32.4430   49.2370 C   0  0  0  0  0  0  0  0  0  0  0  0
   63.5286   31.3542   49.3353 H   0  0  0  0  0  0  0  0  0  0  0  0
   64.1441   32.9924   49.8410 H   0  0  0  0  0  0  0  0  0  0  0  0
   62.0140   32.8280   49.7470 C   0  0  0  0  0  0  0  0  0  0  0  0
   61.9085   32.4959   50.7904 H   0  0  0  0  0  0  0  0  0  0  0  0
   61.9049   33.9203   49.6772 H   0  0  0  0  0  0  0  0  0  0  0  0
   60.9150   32.1710   48.8970 C   0  0  0  0  0  0  0  0  0  0  0  0
   60.8773   31.1011   49.1497 H   0  0  0  0  0  0  0  0  0  0  0  0
   59.9783   32.6983   49.1305 H   0  0  0  0  0  0  0  0  0  0  0  0
   58.7240   29.5380   45.6500 C   0  0  0  0  0  0  0  0  0  0  0  0
   59.0530   30.4660   44.6510 C   0  0  0  0  0  0  0  0  0  0  0  0
   60.0836   30.8420   44.5705 H   0  0  0  0  0  0  0  0  0  0  0  0
   58.0760   30.9150   43.7570 C   0  0  0  0  0  0  0  0  0  0  0  0
   58.3355   31.6542   42.9849 H   0  0  0  0  0  0  0  0  0  0  0  0
   56.7700   30.4250   43.8440 C   0  0  0  0  0  0  0  0  0  0  0  0
   56.0002   30.7858   43.1460 H   0  0  0  0  0  0  0  0  0  0  0  0
   56.4410   29.4770   44.8170 C   0  0  0  0  0  0  0  0  0  0  0  0
   55.1470   28.9760   44.8900 O   0  0  0  0  0  0  0  0  0  0  0  0
   57.4170   29.0280   45.7140 C   0  0  0  0  0  0  0  0  0  0  0  0
   57.1596   28.2732   46.4716 H   0  0  0  0  0  0  0  0  0  0  0  0
  1  2  1  0
  2  3  2  0
  3  4  1  0
  4  5  1  0
  4  6  1  0
  4  7  1  0
  7  8  1  0
  8  9  1  0
  9 10  1  0
  9 11  1  0
  9 12  1  0
 12 13  1  0
 12 14  1  0
 12 15  1  0
 15 16  1  0
 15 17  1  0
 15 18  1  0
 18 19  1  0
 18 20  1  0
 18 21  1  0
 21 22  1  0
 21 23  1  0
  7 24  1  0
 24 25  1  0
 24 26  1  0
 24 27  1  0
 27 28  1  0
 27 29  1  0
 27 30  1  0
 30 31  1  0
 30 32  1  0
 30 33  1  0
 33 34  1  0
 33 35  1  0
 33 36  1  0
 36 37  1  0
 36 38  1  0
  2 39  1  0
 39 40  2  0
 40 41  1  0
 40 42  1  0
 42 43  1  0
 42 44  2  0
 44 45  1  0
 44 46  1  0
 46 47  1  0
 46 48  2  0
 48 49  1  0
 36  7  1  0
 48 39  1  0
 21  8  1  0
M  CHG  1  47  -1
M  END
>  <UniqueID>  (17) 
15

>  <SMILES>  (17) 
[O-]c1cccc(/C=N\CC2(N3CCCCC3)CCCCC2)c1

>  <Energy>  (17) 
76.67228570145662

>  <Genealogy>  (17) 
[O-]c1cccc(C=NCC2(N3CCCCC3)CCCCC2)c1 (protonated)
[O-]c1cccc(/C=N\CC2(N3CCCCC3)CCCCC2)c1 (cis-trans isomerization)
[O-]c1cccc(/C=N\CC2(N3CCCCC3)CCCCC2)c1 (3D coordinates assigned)
[O-]c1cccc(/C=N\CC2(N3CCCCC3)CCCCC2)c1 (nonaromatic ring conformer: 76.67228570145662 kcal/mol)

>  <smiles>  (17) 
Oc1cccc(C=NCC2(N3CCCCC3)CCCCC2)c1

>  <score_type>  (17) 
oracle

>  <origin>  (17) 
adg

>  <m_score__min__energy>  (17) 
-12.119999999999999

>  <m_primary>  (17) 
energy

$$$$
17:0
     RDKit          3D

 58 61  0  0  0  0  0  0  0  0999 V2000
   56.7160   30.1030   51.8800 N   0  0  0  0  0  0  0  0  0  0  0  0
   56.2930   31.4240   52.3450 C   0  0  0  0  0  0  0  0  0  0  0  0
   57.4750   32.1980   52.9360 C   0  0  0  0  0  0  0  0  0  0  0  0
   58.5540   32.5010   51.8880 C   0  0  0  0  0  0  0  0  0  0  0  0
   59.8290   31.6780   52.1230 C   0  0  0  0  0  0  0  0  0  0  0  0
   60.3090   31.0850   50.8660 N   0  0  0  0  0  0  0  0  0  0  0  0
   61.7530   30.8930   50.6450 C   0  0  0  0  0  0  0  0  0  0  0  0
   62.2890   31.8760   49.6350 C   0  0  0  0  0  0  0  0  0  0  0  0
   62.4170   33.2340   49.9680 C   0  0  0  0  0  0  0  0  0  0  0  0
   62.8660   34.1530   49.0150 C   0  0  0  0  0  0  0  0  0  0  0  0
   63.1930   33.7230   47.7270 C   0  0  0  0  0  0  0  0  0  0  0  0
   63.0660   32.3720   47.3880 C   0  0  0  0  0  0  0  0  0  0  0  0
   62.6210   31.4520   48.3390 C   0  0  0  0  0  0  0  0  0  0  0  0
   59.3500   30.6510   49.8840 C   0  0  0  0  0  0  0  0  0  0  0  0
   58.6100   29.6600   50.1280 O   0  0  0  0  0  0  0  0  0  0  0  0
   59.2260   31.3340   48.5870 C   0  0  0  0  0  0  0  0  0  0  0  0
   59.5420   32.6500   48.4920 N   0  0  0  0  0  0  0  0  0  0  0  0
   59.4170   33.3200   47.3190 C   0  0  0  0  0  0  0  0  0  0  0  0
   59.7920   34.6650   47.2450 C   0  0  0  0  0  0  0  0  0  0  0  0
   59.6690   35.3620   46.0410 C   0  0  0  0  0  0  0  0  0  0  0  0
   59.1810   34.7130   44.9040 C   0  0  0  0  0  0  0  0  0  0  0  0
   58.8050   33.3690   44.9660 C   0  0  0  0  0  0  0  0  0  0  0  0
   58.9120   32.6580   46.1780 C   0  0  0  0  0  0  0  0  0  0  0  0
   58.5550   31.2960   46.3060 C   0  0  0  0  0  0  0  0  0  0  0  0
   57.9100   30.5360   45.2120 C   0  0  0  0  0  0  0  0  0  0  0  0
   58.3800   29.2600   44.8620 C   0  0  0  0  0  0  0  0  0  0  0  0
   57.8210   28.5780   43.7770 C   0  0  0  0  0  0  0  0  0  0  0  0
   56.8020   29.1750   43.0250 C   0  0  0  0  0  0  0  0  0  0  0  0
   56.3440   30.4520   43.3570 C   0  0  0  0  0  0  0  0  0  0  0  0
   56.8980   31.1330   44.4440 C   0  0  0  0  0  0  0  0  0  0  0  0
   58.7560   30.6660   47.4980 N   0  0  0  0  0  0  0  0  0  0  0  0
   57.7380   30.0120   52.0840 H   0  0  0  0  0  0  0  0  0  0  0  0
   56.6230   30.0890   50.8340 H   0  0  0  0  0  0  0  0  0  0  0  0
   55.8799   31.9895   51.4967 H   0  0  0  0  0  0  0  0  0  0  0  0
   55.5305   31.2944   53.1272 H   0  0  0  0  0  0  0  0  0  0  0  0
   57.1051   33.1484   53.3481 H   0  0  0  0  0  0  0  0  0  0  0  0
   57.9307   31.5721   53.7174 H   0  0  0  0  0  0  0  0  0  0  0  0
   58.1568   32.2639   50.8900 H   0  0  0  0  0  0  0  0  0  0  0  0
   58.8167   33.5662   51.9679 H   0  0  0  0  0  0  0  0  0  0  0  0
   60.6107   32.3340   52.5335 H   0  0  0  0  0  0  0  0  0  0  0  0
   59.5988   30.8667   52.8293 H   0  0  0  0  0  0  0  0  0  0  0  0
   62.2831   31.0341   51.5984 H   0  0  0  0  0  0  0  0  0  0  0  0
   61.9123   29.8759   50.2575 H   0  0  0  0  0  0  0  0  0  0  0  0
   62.1631   33.5760   50.9822 H   0  0  0  0  0  0  0  0  0  0  0  0
   62.9619   35.2163   49.2799 H   0  0  0  0  0  0  0  0  0  0  0  0
   63.5503   34.4466   46.9795 H   0  0  0  0  0  0  0  0  0  0  0  0
   63.3169   32.0343   46.3716 H   0  0  0  0  0  0  0  0  0  0  0  0
   62.5301   30.3890   48.0711 H   0  0  0  0  0  0  0  0  0  0  0  0
   60.1847   35.1752   48.1369 H   0  0  0  0  0  0  0  0  0  0  0  0
   59.9565   36.4224   45.9878 H   0  0  0  0  0  0  0  0  0  0  0  0
   59.0924   35.2630   43.9555 H   0  0  0  0  0  0  0  0  0  0  0  0
   58.4242   32.8641   44.0659 H   0  0  0  0  0  0  0  0  0  0  0  0
   59.1903   28.7956   45.4431 H   0  0  0  0  0  0  0  0  0  0  0  0
   58.1817   27.5726   43.5142 H   0  0  0  0  0  0  0  0  0  0  0  0
   56.3617   28.6378   42.1720 H   0  0  0  0  0  0  0  0  0  0  0  0
   55.5467   30.9219   42.7624 H   0  0  0  0  0  0  0  0  0  0  0  0
   56.5396   32.1412   44.6990 H   0  0  0  0  0  0  0  0  0  0  0  0
   58.4860   29.6610   47.5930 H   0  0  0  0  0  0  0  0  0  0  0  0
  1  2  1  0
  2  3  1  0
  3  4  1  0
  4  5  1  0
  5  6  1  0
  6  7  1  0
  7  8  1  0
  8  9  2  0
  9 10  1  0
 10 11  2  0
 11 12  1  0
 12 13  2  0
  6 14  1  0
 14 15  2  0
 14 16  1  0
 16 17  2  0
 17 18  1  0
 18 19  2  0
 19 20  1  0
 20 21  2  0
 21 22  1  0
 22 23  2  0
 23 24  1  0
 24 25  1  0
 25 26  2  0
 26 27  1  0
 27 28  2  0
 28 29  1  0
 29 30  2  0
 24 31  2  0
 13  8  1  0
 31 16  1  0
 23 18  1  0
 30 25  1  0
  1 32  1  0
  1 33  1  0
  2 34  1  0
  2 35  1  0
  3 36  1  0
  3 37  1  0
  4 38  1  0
  4 39  1  0
  5 40  1  0
  5 41  1  0
  7 42  1  0
  7 43  1  0
  9 44  1  0
 10 45  1  0
 11 46  1  0
 12 47  1  0
 13 48  1  0
 19 49  1  0
 20 50  1  0
 21 51  1  0
 22 52  1  0
 26 53  1  0
 27 54  1  0
 28 55  1  0
 29 56  1  0
 30 57  1  0
 31 58  1  0
M  CHG  1  31   1
M  END
>  <UniqueID>  (18) 
16

>  <SMILES>  (18) 
NCCCCN(Cc1ccccc1)C(=O)c1nc2ccccc2c(-c2ccccc2)[nH+]1

>  <Energy>  (18) 
67.65301024683153

>  <Genealogy>  (18) 
NCCCCN(Cc1ccccc1)C(=O)c1nc2ccccc2c(-c2ccccc2)[nH+]1 (protonated)
NCCCCN(Cc1ccccc1)C(=O)c1nc2ccccc2c(-c2ccccc2)[nH+]1 (3D coordinates assigned)
NCCCCN(Cc1ccccc1)C(=O)c1nc2ccccc2c(-c2ccccc2)[nH+]1 (optimized conformer: 67.65301024683153 kcal/mol)

>  <smiles>  (18) 
NCCCCN(Cc1ccccc1)C(=O)c1nc(-c2ccccc2)c2ccccc2n1

>  <score_type>  (18) 
oracle

>  <origin>  (18) 
adg

>  <m_score__min__energy>  (18) 
-8.0700000000000003

>  <m_primary>  (18) 
energy

$$$$
18:0
     RDKit          3D

 45 47  0  0  0  0  0  0  0  0999 V2000
   60.4270   28.5380   49.5300 C   0  0  0  0  0  0  0  0  0  0  0  0
   60.7760   27.0550   49.5920 C   0  0  0  0  0  0  0  0  0  0  0  0
   60.6630   26.4540   48.3010 O   0  0  0  0  0  0  0  0  0  0  0  0
   59.7900   26.8680   47.2820 C   0  0  0  0  0  0  0  0  0  0  0  0
   58.3940   26.7080   47.3600 C   0  0  0  0  0  0  0  0  0  0  0  0
   57.5720   27.1510   46.3190 C   0  0  0  0  0  0  0  0  0  0  0  0
   58.1280   27.7700   45.1850 C   0  0  0  0  0  0  0  0  0  0  0  0
   57.3070   28.2640   44.1130 N   0  0  0  0  0  0  0  0  0  0  0  0
   56.4930   29.7980   44.1600 S   0  0  0  0  0  0  0  0  0  0  0  0
   55.1680   29.6290   44.8510 O   0  0  0  0  0  0  0  0  0  0  0  0
   56.2580   30.2800   42.7570 O   0  0  0  0  0  0  0  0  0  0  0  0
   57.4900   30.9780   45.0060 C   0  0  0  0  0  0  0  0  0  0  0  0
   58.1610   30.6070   46.1900 C   0  0  0  0  0  0  0  0  0  0  0  0
   58.9270   31.5470   46.8960 C   0  0  0  0  0  0  0  0  0  0  0  0
   58.9900   32.8590   46.4120 C   0  0  0  0  0  0  0  0  0  0  0  0
   58.3790   33.2040   45.2370 C   0  0  0  0  0  0  0  0  0  0  0  0
   57.6160   32.2880   44.5120 C   0  0  0  0  0  0  0  0  0  0  0  0
   58.6890   34.6140   44.8750 C   0  0  0  0  0  0  0  0  0  0  0  0
   59.6350   35.0740   46.0080 C   0  0  0  0  0  0  0  0  0  0  0  0
   59.7290   33.9520   46.9450 N   0  0  0  0  0  0  0  0  0  0  0  0
   60.3280   34.0710   48.2460 C   0  0  0  0  0  0  0  0  0  0  0  0
   61.7300   33.6230   48.5170 C   0  0  0  0  0  0  0  0  0  0  0  0
   59.6450   34.5340   49.1980 O   0  0  0  0  0  0  0  0  0  0  0  0
   59.5210   27.9040   45.1000 C   0  0  0  0  0  0  0  0  0  0  0  0
   60.3420   27.4590   46.1400 C   0  0  0  0  0  0  0  0  0  0  0  0
   60.3334   28.9357   50.5513 H   0  0  0  0  0  0  0  0  0  0  0  0
   61.2222   29.0798   48.9970 H   0  0  0  0  0  0  0  0  0  0  0  0
   59.4736   28.6684   48.9970 H   0  0  0  0  0  0  0  0  0  0  0  0
   61.8088   26.9422   49.9534 H   0  0  0  0  0  0  0  0  0  0  0  0
   60.0747   26.5555   50.2766 H   0  0  0  0  0  0  0  0  0  0  0  0
   57.9468   26.2317   48.2450 H   0  0  0  0  0  0  0  0  0  0  0  0
   56.4827   27.0144   46.3875 H   0  0  0  0  0  0  0  0  0  0  0  0
   57.2950   27.7500   43.2040 H   0  0  0  0  0  0  0  0  0  0  0  0
   58.0833   29.5747   46.5620 H   0  0  0  0  0  0  0  0  0  0  0  0
   59.4665   31.2591   47.8103 H   0  0  0  0  0  0  0  0  0  0  0  0
   57.1237   32.5846   43.5741 H   0  0  0  0  0  0  0  0  0  0  0  0
   59.1900   34.6685   43.8972 H   0  0  0  0  0  0  0  0  0  0  0  0
   57.7904   35.2419   44.7838 H   0  0  0  0  0  0  0  0  0  0  0  0
   60.6282   35.3147   45.6009 H   0  0  0  0  0  0  0  0  0  0  0  0
   59.2545   35.9790   46.5043 H   0  0  0  0  0  0  0  0  0  0  0  0
   61.8946   33.5704   49.6033 H   0  0  0  0  0  0  0  0  0  0  0  0
   61.8896   32.6291   48.0734 H   0  0  0  0  0  0  0  0  0  0  0  0
   62.4363   34.3402   48.0734 H   0  0  0  0  0  0  0  0  0  0  0  0
   59.9715   28.3631   44.2076 H   0  0  0  0  0  0  0  0  0  0  0  0
   61.4330   27.5745   46.0600 H   0  0  0  0  0  0  0  0  0  0  0  0
  1  2  1  0
  2  3  1  0
  3  4  1  0
  4  5  2  0
  5  6  1  0
  6  7  2  0
  7  8  1  0
  8  9  1  0
  9 10  2  0
  9 11  2  0
  9 12  1  0
 12 13  2  0
 13 14  1  0
 14 15  2  0
 15 16  1  0
 16 17  2  0
 16 18  1  0
 18 19  1  0
 19 20  1  0
 20 21  1  0
 21 22  1  0
 21 23  2  0
  7 24  1  0
 24 25  2  0
 25  4  1  0
 17 12  1  0
 20 15  1  0
  1 26  1  0
  1 27  1  0
  1 28  1  0
  2 29  1  0
  2 30  1  0
  5 31  1  0
  6 32  1  0
  8 33  1  0
 13 34  1  0
 14 35  1  0
 17 36  1  0
 18 37  1  0
 18 38  1  0
 19 39  1  0
 19 40  1  0
 22 41  1  0
 22 42  1  0
 22 43  1  0
 24 44  1  0
 25 45  1  0
M  END
>  <UniqueID>  (19) 
17

>  <SMILES>  (19) 
CCOc1ccc(NS(=O)(=O)c2ccc3c(c2)CCN3C(C)=O)cc1

>  <Energy>  (19) 
63.449079406025916

>  <Genealogy>  (19) 
CCOc1ccc(NS(=O)(=O)c2ccc3c(c2)CCN3C(C)=O)cc1 (3D coordinates assigned)
CCOc1ccc(NS(=O)(=O)c2ccc3c(c2)CCN3C(C)=O)cc1 (nonaromatic ring conformer: 63.449079406025916 kcal/mol)

>  <smiles>  (19) 
CCOc1ccc(NS(=O)(=O)c2ccc3c(c2)CCN3C(C)=O)cc1

>  <score_type>  (19) 
oracle

>  <origin>  (19) 
adg

>  <m_score__min__energy>  (19) 
-8.4399999999999995

>  <m_primary>  (19) 
energy

$$$$
19:0
     RDKit          3D

 45 47  0  0  1  0  0  0  0  0999 V2000
   60.1610   27.7350   47.8230 C   0  0  0  0  0  0  0  0  0  0  0  0
   60.1650   26.5060   47.1180 O   0  0  0  0  0  0  0  0  0  0  0  0
   59.2440   26.3480   46.0920 C   0  0  0  0  0  0  0  0  0  0  0  0
   58.8280   27.4000   45.3090 C   0  0  0  0  0  0  0  0  0  0  0  0
   57.9280   27.3070   44.2890 C   0  0  0  0  0  0  0  0  0  0  0  0
   57.6230   28.3510   43.6360 N   0  0  0  0  0  0  0  0  0  0  0  0
   56.7500   29.7030   44.1920 S   0  0  0  0  0  0  0  0  0  0  0  0
   55.4380   29.3400   44.8700 O   0  0  0  0  0  0  0  0  0  0  0  0
   56.2960   30.4400   42.9300 O   0  0  0  0  0  0  0  0  0  0  0  0
   57.6820   30.8440   45.1010 C   0  0  0  0  0  0  0  0  0  0  0  0
   57.7700   32.1680   44.6580 C   0  0  0  0  0  0  0  0  0  0  0  0
   58.5150   33.1100   45.3790 C   0  0  0  0  0  0  0  0  0  0  0  0
   59.1870   32.8000   46.5290 C   0  0  0  0  0  0  0  0  0  0  0  0
   59.9560   33.6860   47.3060 N   0  0  0  0  0  0  0  0  0  0  0  0
   61.1260   33.3590   48.0300 C   0  0  0  0  0  0  0  0  0  0  0  0
   61.6220   32.2120   48.0630 O   0  0  0  0  0  0  0  0  0  0  0  0
   61.8160   34.3660   48.7870 N   0  0  0  0  0  0  0  0  0  0  0  0
   62.9960   33.9930   49.5060 C   0  0  0  0  0  0  0  0  0  0  0  0
   63.1230   34.1750   50.8670 C   0  0  0  0  0  0  0  0  0  0  0  0
   64.3050   33.7790   51.4580 C   0  0  0  0  0  0  0  0  0  0  0  0
   65.3430   33.2180   50.7490 C   0  0  0  0  0  0  0  0  0  0  0  0
   65.2160   33.0330   49.3730 C   0  0  0  0  0  0  0  0  0  0  0  0
   64.0330   33.4320   48.7890 C   0  0  0  0  0  0  0  0  0  0  0  0
   59.0980   31.4860   46.9630 C   0  0  0  0  0  0  0  0  0  0  0  0
   58.3640   30.5560   46.2560 C   0  0  0  0  0  0  0  0  0  0  0  0
   57.4120   26.0750   44.0370 N   0  0  0  0  0  0  0  0  0  0  0  0
   57.8010   25.0280   44.7880 C   0  0  0  0  0  0  0  0  0  0  0  0
   58.6930   25.1360   45.7950 N   0  0  0  0  0  0  0  0  0  0  0  0
   60.1616   27.5370   48.9050 H   0  0  0  0  0  0  0  0  0  0  0  0
   61.0573   28.3140   47.5557 H   0  0  0  0  0  0  0  0  0  0  0  0
   59.2610   28.3081   47.5557 H   0  0  0  0  0  0  0  0  0  0  0  0
   59.2539   28.3916   45.5221 H   0  0  0  0  0  0  0  0  0  0  0  0
   57.2506   32.4715   43.7371 H   0  0  0  0  0  0  0  0  0  0  0  0
   58.5615   34.1431   45.0042 H   0  0  0  0  0  0  0  0  0  0  0  0
   59.6570   34.7050   47.3750 H   0  0  0  0  0  0  0  0  0  0  0  0
   61.4490   35.3620   48.8030 H   0  0  0  0  0  0  0  0  0  0  0  0
   62.3107   34.6201   51.4603 H   0  0  0  0  0  0  0  0  0  0  0  0
   64.4231   33.9176   52.5428 H   0  0  0  0  0  0  0  0  0  0  0  0
   66.2669   32.9175   51.2649 H   0  0  0  0  0  0  0  0  0  0  0  0
   66.0265   32.5870   48.7779 H   0  0  0  0  0  0  0  0  0  0  0  0
   63.9102   33.2974   47.7042 H   0  0  0  0  0  0  0  0  0  0  0  0
   59.6192   31.1813   47.8825 H   0  0  0  0  0  0  0  0  0  0  0  0
   58.3233   29.5260   46.6399 H   0  0  0  0  0  0  0  0  0  0  0  0
   56.7260   25.9610   43.2720 H   0  0  0  0  0  0  0  0  0  0  0  0
   57.3721   24.0386   44.5710 H   0  0  0  0  0  0  0  0  0  0  0  0
  1  2  1  0
  2  3  1  0
  3  4  2  0
  4  5  1  0
  5  6  2  0
  6  7  1  0
  7  8  2  0
  7  9  2  0
  7 10  1  0
 10 11  2  0
 11 12  1  0
 12 13  2  0
 13 14  1  0
 14 15  1  0
 15 16  2  0
 15 17  1  0
 17 18  1  0
 18 19  2  0
 19 20  1  0
 20 21  2  0
 21 22  1  0
 22 23  2  0
 13 24  1  0
 24 25  2  0
  5 26  1  0
 26 27  1  0
 27 28  2  0
 28  3  1  0
 25 10  1  0
 23 18  1  0
  1 29  1  0
  1 30  1  0
  1 31  1  0
  4 32  1  0
 11 33  1  0
 12 34  1  0
 14 35  1  0
 17 36  1  0
 19 37  1  0
 20 38  1  0
 21 39  1  0
 22 40  1  0
 23 41  1  0
 24 42  1  0
 25 43  1  0
 26 44  1  0
 27 45  1  0
M  END
>  <smiles>  (20) 
COc1cc(=NS(=O)(=O)c2ccc(NC(=O)Nc3ccccc3)cc2)[nH]cn1

>  <score_type>  (20) 
oracle

>  <origin>  (20) 
adg

>  <m_score__min__energy>  (20) 
-7.7699999999999996

>  <m_primary>  (20) 
energy

$$$$
20:0
     RDKit          3D

 58 62  0  0  0  0  0  0  0  0999 V2000
   54.2040   20.8030   47.5810 C   0  0  0  0  0  0  0  0  0  0  0  0
   53.5250   21.8490   46.7480 C   0  0  0  0  0  0  0  0  0  0  0  0
   52.2130   21.6620   46.2600 C   0  0  0  0  0  0  0  0  0  0  0  0
   51.5780   22.6730   45.5040 C   0  0  0  0  0  0  0  0  0  0  0  0
   52.2410   23.8840   45.2350 C   0  0  0  0  0  0  0  0  0  0  0  0
   53.5290   24.0430   45.7410 C   0  0  0  0  0  0  0  0  0  0  0  0
   54.3310   25.1100   45.6160 N   0  0  0  0  0  0  0  0  0  0  0  0
   55.4440   24.7290   46.3000 C   0  0  0  0  0  0  0  0  0  0  0  0
   56.6360   25.5950   46.4450 C   0  0  0  0  0  0  0  0  0  0  0  0
   57.7630   25.1400   47.1490 C   0  0  0  0  0  0  0  0  0  0  0  0
   58.8850   25.9610   47.2890 C   0  0  0  0  0  0  0  0  0  0  0  0
   58.8960   27.2410   46.7310 C   0  0  0  0  0  0  0  0  0  0  0  0
   57.7790   27.7160   46.0210 C   0  0  0  0  0  0  0  0  0  0  0  0
   57.7880   29.0750   45.4250 C   0  0  0  0  0  0  0  0  0  0  0  0
   58.8860   29.9330   45.6160 C   0  0  0  0  0  0  0  0  0  0  0  0
   58.8860   31.2170   45.0650 C   0  0  0  0  0  0  0  0  0  0  0  0
   57.7830   31.6790   44.3280 C   0  0  0  0  0  0  0  0  0  0  0  0
   57.7870   33.0790   43.7410 C   0  0  0  0  0  0  0  0  0  0  0  0
   57.9880   34.1680   44.7350 N   0  0  0  0  0  0  0  0  0  0  0  0
   59.4240   34.4830   44.9490 C   0  0  0  0  0  0  0  0  0  0  0  0
   59.6200   35.3240   46.2200 C   0  0  0  0  0  0  0  0  0  0  0  0
   59.1510   34.6150   47.4390 N   0  0  0  0  0  0  0  0  0  0  0  0
   60.2790   34.0580   48.2030 C   0  0  0  0  0  0  0  0  0  0  0  0
   58.1440   33.5630   47.1670 C   0  0  0  0  0  0  0  0  0  0  0  0
   57.2290   33.9610   45.9990 C   0  0  0  0  0  0  0  0  0  0  0  0
   56.7040   30.8090   44.1040 C   0  0  0  0  0  0  0  0  0  0  0  0
   56.7010   29.5250   44.6560 C   0  0  0  0  0  0  0  0  0  0  0  0
   56.6520   26.8840   45.8830 C   0  0  0  0  0  0  0  0  0  0  0  0
   55.3670   23.4830   46.8380 N   0  0  0  0  0  0  0  0  0  0  0  0
   54.1440   23.0710   46.4680 C   0  0  0  0  0  0  0  0  0  0  0  0
   54.0564   21.0304   48.6471 H   0  0  0  0  0  0  0  0  0  0  0  0
   53.7735   19.8166   47.3535 H   0  0  0  0  0  0  0  0  0  0  0  0
   55.2802   20.7947   47.3535 H   0  0  0  0  0  0  0  0  0  0  0  0
   51.6813   20.7222   46.4700 H   0  0  0  0  0  0  0  0  0  0  0  0
   50.5586   22.5119   45.1234 H   0  0  0  0  0  0  0  0  0  0  0  0
   51.7591   24.6779   44.6455 H   0  0  0  0  0  0  0  0  0  0  0  0
   57.7624   24.1331   47.5920 H   0  0  0  0  0  0  0  0  0  0  0  0
   59.7639   25.5972   47.8415 H   0  0  0  0  0  0  0  0  0  0  0  0
   59.7830   27.8810   46.8474 H   0  0  0  0  0  0  0  0  0  0  0  0
   59.7508   29.5908   46.2033 H   0  0  0  0  0  0  0  0  0  0  0  0
   59.7577   31.8721   45.2097 H   0  0  0  0  0  0  0  0  0  0  0  0
   58.5974   33.1376   42.9995 H   0  0  0  0  0  0  0  0  0  0  0  0
   56.7897   33.2363   43.3043 H   0  0  0  0  0  0  0  0  0  0  0  0
   57.5730   35.0210   44.2880 H   0  0  0  0  0  0  0  0  0  0  0  0
   59.9873   33.5435   45.0489 H   0  0  0  0  0  0  0  0  0  0  0  0
   59.7882   35.0610   44.0868 H   0  0  0  0  0  0  0  0  0  0  0  0
   60.6902   35.5523   46.3324 H   0  0  0  0  0  0  0  0  0  0  0  0
   59.0243   36.2425   46.1129 H   0  0  0  0  0  0  0  0  0  0  0  0
   60.0773   34.1576   49.2798 H   0  0  0  0  0  0  0  0  0  0  0  0
   60.4037   32.9947   47.9501 H   0  0  0  0  0  0  0  0  0  0  0  0
   61.1990   34.6054   47.9501 H   0  0  0  0  0  0  0  0  0  0  0  0
   58.6625   32.6264   46.9140 H   0  0  0  0  0  0  0  0  0  0  0  0
   57.5247   33.4317   48.0665 H   0  0  0  0  0  0  0  0  0  0  0  0
   56.4888   33.1628   45.8410 H   0  0  0  0  0  0  0  0  0  0  0  0
   56.7425   34.9123   46.2603 H   0  0  0  0  0  0  0  0  0  0  0  0
   55.8543   31.1406   43.4892 H   0  0  0  0  0  0  0  0  0  0  0  0
   55.8405   28.8609   44.4871 H   0  0  0  0  0  0  0  0  0  0  0  0
   55.7735   27.2464   45.3290 H   0  0  0  0  0  0  0  0  0  0  0  0
  1  2  1  0
  2  3  2  0
  3  4  1  0
  4  5  2  0
  5  6  1  0
  6  7  1  0
  7  8  1  0
  8  9  1  0
  9 10  2  0
 10 11  1  0
 11 12  2  0
 12 13  1  0
 13 14  1  0
 14 15  2  0
 15 16  1  0
 16 17  2  0
 17 18  1  0
 18 19  1  0
 19 20  1  0
 20 21  1  0
 21 22  1  0
 22 23  1  0
 22 24  1  0
 24 25  1  0
 17 26  1  0
 26 27  2  0
 13 28  2  0
  8 29  2  0
 29 30  1  0
 30  2  1  0
 30  6  2  0
 28  9  1  0
 27 14  1  0
 25 19  1  0
  1 31  1  0
  1 32  1  0
  1 33  1  0
  3 34  1  0
  4 35  1  0
  5 36  1  0
 10 37  1  0
 11 38  1  0
 12 39  1  0
 15 40  1  0
 16 41  1  0
 18 42  1  0
 18 43  1  0
 19 44  1  0
 20 45  1  0
 20 46  1  0
 21 47  1  0
 21 48  1  0
 23 49  1  0
 23 50  1  0
 23 51  1  0
 24 52  1  0
 24 53  1  0
 25 54  1  0
 25 55  1  0
 26 56  1  0
 27 57  1  0
 28 58  1  0
M  CHG  2   7  -1  19   1
M  END
>  <UniqueID>  (21) 
18

>  <SMILES>  (21) 
Cc1cccc2[n-]c(-c3cccc(-c4ccc(C[NH+]5CCN(C)CC5)cc4)c3)nc12

>  <Energy>  (21) 
118.13795807075299

>  <Genealogy>  (21) 
Cc1cccc2[n-]c(-c3cccc(-c4ccc(C[NH+]5CCN(C)CC5)cc4)c3)nc12 (protonated)
Cc1cccc2[n-]c(-c3cccc(-c4ccc(C[NH+]5CCN(C)CC5)cc4)c3)nc12 (3D coordinates assigned)
Cc1cccc2[n-]c(-c3cccc(-c4ccc(C[NH+]5CCN(C)CC5)cc4)c3)nc12 (nonaromatic ring conformer: 118.13795807075299 kcal/mol)

>  <smiles>  (21) 
Cc1cccc2[nH]c(-c3cccc(-c4ccc(CN5CCN(C)CC5)cc4)c3)nc12

>  <score_type>  (21) 
oracle

>  <origin>  (21) 
adg

>  <m_score__min__energy>  (21) 
-8.9700000000000006

>  <m_primary>  (21) 
energy

$$$$
21:0
     RDKit          3D

 55 58  0  0  0  0  0  0  0  0999 V2000
   61.8560   30.6510   50.3210 C   0  0  0  0  0  0  0  0  0  0  0  0
   61.3410   30.5330   48.9980 O   0  0  0  0  0  0  0  0  0  0  0  0
   60.7550   29.3700   48.4760 C   0  0  0  0  0  0  0  0  0  0  0  0
   60.6570   28.1800   49.2180 C   0  0  0  0  0  0  0  0  0  0  0  0
   60.0850   27.0420   48.6510 C   0  0  0  0  0  0  0  0  0  0  0  0
   59.5930   27.0760   47.3420 C   0  0  0  0  0  0  0  0  0  0  0  0
   59.0790   25.9430   46.7980 N   0  0  0  0  0  0  0  0  0  0  0  0
   58.6160   25.9070   45.5260 C   0  0  0  0  0  0  0  0  0  0  0  0
   58.6370   27.0570   44.7410 C   0  0  0  0  0  0  0  0  0  0  0  0
   59.0990   28.2740   45.2720 C   0  0  0  0  0  0  0  0  0  0  0  0
   59.0650   29.5190   44.3970 C   0  0  0  0  0  0  0  0  0  0  0  0
   57.6910   29.9280   44.0680 N   0  0  0  0  0  0  0  0  0  0  0  0
   56.9740   29.2000   43.0170 C   0  0  0  0  0  0  0  0  0  0  0  0
   57.1420   31.1280   44.6570 C   0  0  0  0  0  0  0  0  0  0  0  0
   55.8910   31.2430   44.7680 O   0  0  0  0  0  0  0  0  0  0  0  0
   58.0020   32.2390   45.1330 C   0  0  0  0  0  0  0  0  0  0  0  0
   57.8260   33.5490   44.6580 C   0  0  0  0  0  0  0  0  0  0  0  0
   58.6500   34.5810   45.1110 C   0  0  0  0  0  0  0  0  0  0  0  0
   59.6450   34.3230   46.0550 C   0  0  0  0  0  0  0  0  0  0  0  0
   59.8150   33.0310   46.5720 C   0  0  0  0  0  0  0  0  0  0  0  0
   60.8620   32.7840   47.5250 N   0  0  0  0  0  0  0  0  0  0  0  0
   62.1680   33.3800   47.4450 C   0  0  0  0  0  0  0  0  0  0  0  0
   62.6160   33.7520   46.3260 O   0  0  0  0  0  0  0  0  0  0  0  0
   63.0130   33.5230   48.6550 C   0  0  0  0  0  0  0  0  0  0  0  0
   62.5690   34.2680   49.7640 C   0  0  0  0  0  0  0  0  0  0  0  0
   63.3830   34.4140   50.8920 C   0  0  0  0  0  0  0  0  0  0  0  0
   64.6480   33.8240   50.9240 C   0  0  0  0  0  0  0  0  0  0  0  0
   65.1010   33.0860   49.8300 C   0  0  0  0  0  0  0  0  0  0  0  0
   64.2940   32.9380   48.6990 C   0  0  0  0  0  0  0  0  0  0  0  0
   58.9940   31.9900   46.0990 C   0  0  0  0  0  0  0  0  0  0  0  0
   59.6460   28.2750   46.5860 C   0  0  0  0  0  0  0  0  0  0  0  0
   60.2570   29.4080   47.1690 C   0  0  0  0  0  0  0  0  0  0  0  0
   61.0497   30.4663   51.0461 H   0  0  0  0  0  0  0  0  0  0  0  0
   62.6585   29.9135   50.4692 H   0  0  0  0  0  0  0  0  0  0  0  0
   62.2574   31.6644   50.4692 H   0  0  0  0  0  0  0  0  0  0  0  0
   61.0335   28.1466   50.2510 H   0  0  0  0  0  0  0  0  0  0  0  0
   60.0203   26.1127   49.2360 H   0  0  0  0  0  0  0  0  0  0  0  0
   58.2224   24.9671   45.1118 H   0  0  0  0  0  0  0  0  0  0  0  0
   58.2897   27.0129   43.6982 H   0  0  0  0  0  0  0  0  0  0  0  0
   59.5613   30.3420   44.9321 H   0  0  0  0  0  0  0  0  0  0  0  0
   59.5829   29.2848   43.4552 H   0  0  0  0  0  0  0  0  0  0  0  0
   56.2729   28.4881   43.4770 H   0  0  0  0  0  0  0  0  0  0  0  0
   56.4156   29.9130   42.3926 H   0  0  0  0  0  0  0  0  0  0  0  0
   57.6954   28.6526   42.3926 H   0  0  0  0  0  0  0  0  0  0  0  0
   57.0344   33.7631   43.9249 H   0  0  0  0  0  0  0  0  0  0  0  0
   58.5145   35.6011   44.7225 H   0  0  0  0  0  0  0  0  0  0  0  0
   60.3000   35.1385   46.3955 H   0  0  0  0  0  0  0  0  0  0  0  0
   60.6980   32.0570   48.2560 H   0  0  0  0  0  0  0  0  0  0  0  0
   61.5750   34.7386   49.7432 H   0  0  0  0  0  0  0  0  0  0  0  0
   63.0259   34.9946   51.7554 H   0  0  0  0  0  0  0  0  0  0  0  0
   65.2873   33.9410   51.8115 H   0  0  0  0  0  0  0  0  0  0  0  0
   66.0966   32.6192   49.8580 H   0  0  0  0  0  0  0  0  0  0  0  0
   64.6612   32.3610   47.8374 H   0  0  0  0  0  0  0  0  0  0  0  0
   59.1296   30.9704   46.4890 H   0  0  0  0  0  0  0  0  0  0  0  0
   60.3426   30.3362   46.5850 H   0  0  0  0  0  0  0  0  0  0  0  0
  1  2  1  0
  2  3  1  0
  3  4  2  0
  4  5  1  0
  5  6  2  0
  6  7  1  0
  7  8  2  0
  8  9  1  0
  9 10  2  0
 10 11  1  0
 11 12  1  0
 12 13  1  0
 12 14  1  0
 14 15  2  0
 14 16  1  0
 16 17  2  0
 17 18  1  0
 18 19  2  0
 19 20  1  0
 20 21  1  0
 21 22  1  0
 22 23  2  0
 22 24  1  0
 24 25  2  0
 25 26  1  0
 26 27  2  0
 27 28  1  0
 28 29  2  0
 20 30  2  0
 10 31  1  0
 31 32  2  0
 32  3  1  0
 31  6  1  0
 30 16  1  0
 29 24  1  0
  1 33  1  0
  1 34  1  0
  1 35  1  0
  4 36  1  0
  5 37  1  0
  8 38  1  0
  9 39  1  0
 11 40  1  0
 11 41  1  0
 13 42  1  0
 13 43  1  0
 13 44  1  0
 17 45  1  0
 18 46  1  0
 19 47  1  0
 21 48  1  0
 25 49  1  0
 26 50  1  0
 27 51  1  0
 28 52  1  0
 29 53  1  0
 30 54  1  0
 32 55  1  0
M  END
>  <UniqueID>  (22) 
19

>  <SMILES>  (22) 
COc1ccc2nccc(CN(C)C(=O)c3cccc(NC(=O)c4ccccc4)c3)c2c1

>  <Energy>  (22) 
76.10526102811282

>  <Genealogy>  (22) 
COc1ccc2nccc(CN(C)C(=O)c3cccc(NC(=O)c4ccccc4)c3)c2c1 (3D coordinates assigned)
COc1ccc2nccc(CN(C)C(=O)c3cccc(NC(=O)c4ccccc4)c3)c2c1 (optimized conformer: 76.10526102811282 kcal/mol)

>  <smiles>  (22) 
COc1ccc2nccc(CN(C)C(=O)c3cccc(NC(=O)c4ccccc4)c3)c2c1

>  <score_type>  (22) 
oracle

>  <origin>  (22) 
adg

>  <m_score__min__energy>  (22) 
-9.7699999999999996

>  <m_primary>  (22) 
energy

$$$$
22:0
     RDKit          3D

 42 44  0  0  0  0  0  0  0  0999 V2000
   57.3508   32.1805   48.4957 H   0  0  0  0  0  0  0  0  0  0  0  0
   58.3850   32.3410   48.1570 C   0  0  0  0  0  0  0  0  0  0  0  0
   59.3730   31.7020   48.8090 C   0  0  0  0  0  0  0  0  0  0  0  0
   60.4440   32.5020   49.4430 C   0  0  0  0  0  0  0  0  0  0  0  0
   60.2940   32.9000   50.6290 O   0  0  0  0  0  0  0  0  0  0  0  0
   61.6940   32.8340   48.7330 C   0  0  0  0  0  0  0  0  0  0  0  0
   62.6610   34.1840   48.9990 S   0  0  0  0  0  0  0  0  0  0  0  0
   63.7920   33.8480   47.8040 C   0  0  0  0  0  0  0  0  0  0  0  0
   64.6753   34.4574   47.5624 H   0  0  0  0  0  0  0  0  0  0  0  0
   63.4200   32.6690   47.1740 C   0  0  0  0  0  0  0  0  0  0  0  0
   63.9956   32.2179   46.3523 H   0  0  0  0  0  0  0  0  0  0  0  0
   62.2430   32.1080   47.6830 C   0  0  0  0  0  0  0  0  0  0  0  0
   61.7962   31.1828   47.2902 H   0  0  0  0  0  0  0  0  0  0  0  0
   59.4910   29.9260   48.8120 S   0  0  0  0  0  0  0  0  0  0  0  0
   60.8040   29.5150   49.4190 O   0  0  0  0  0  0  0  0  0  0  0  0
   58.3710   29.3260   49.6140 O   0  0  0  0  0  0  0  0  0  0  0  0
   59.3510   29.3020   47.1700 C   0  0  0  0  0  0  0  0  0  0  0  0
   60.3900   29.5230   46.2540 C   0  0  0  0  0  0  0  0  0  0  0  0
   61.2827   30.0872   46.5620 H   0  0  0  0  0  0  0  0  0  0  0  0
   60.2930   29.0270   44.9490 C   0  0  0  0  0  0  0  0  0  0  0  0
   61.1086   29.2036   44.2324 H   0  0  0  0  0  0  0  0  0  0  0  0
   59.1620   28.3080   44.5550 C   0  0  0  0  0  0  0  0  0  0  0  0
   59.0876   27.9184   43.5290 H   0  0  0  0  0  0  0  0  0  0  0  0
   58.1260   28.0840   45.4640 C   0  0  0  0  0  0  0  0  0  0  0  0
   57.2378   27.5135   45.1548 H   0  0  0  0  0  0  0  0  0  0  0  0
   58.2160   28.5840   46.7670 C   0  0  0  0  0  0  0  0  0  0  0  0
   57.3940   28.4135   47.4778 H   0  0  0  0  0  0  0  0  0  0  0  0
   58.6100   33.2420   47.0170 C   0  0  0  0  0  0  0  0  0  0  0  0
   59.3490   34.4230   47.2020 C   0  0  0  0  0  0  0  0  0  0  0  0
   59.7439   34.6718   48.1981 H   0  0  0  0  0  0  0  0  0  0  0  0
   59.5840   35.2820   46.1260 C   0  0  0  0  0  0  0  0  0  0  0  0
   60.1649   36.2043   46.2745 H   0  0  0  0  0  0  0  0  0  0  0  0
   59.0810   34.9690   44.8620 C   0  0  0  0  0  0  0  0  0  0  0  0
   59.2647   35.6476   44.0160 H   0  0  0  0  0  0  0  0  0  0  0  0
   58.3450   33.7970   44.6670 C   0  0  0  0  0  0  0  0  0  0  0  0
   57.9471   33.5607   43.6691 H   0  0  0  0  0  0  0  0  0  0  0  0
   58.1100   32.9170   45.7410 C   0  0  0  0  0  0  0  0  0  0  0  0
   57.3790   31.7260   45.5840 O   0  0  0  0  0  0  0  0  0  0  0  0
   57.0410   31.1400   44.3290 C   0  0  0  0  0  0  0  0  0  0  0  0
   56.4979   30.1985   44.4983 H   0  0  0  0  0  0  0  0  0  0  0  0
   56.4041   31.8334   43.7602 H   0  0  0  0  0  0  0  0  0  0  0  0
   57.9601   30.9359   43.7602 H   0  0  0  0  0  0  0  0  0  0  0  0
  1  2  1  0
  2  3  2  0
  3  4  1  0
  4  5  2  0
  4  6  1  0
  6  7  1  0
  7  8  1  0
  8  9  1  0
  8 10  2  0
 10 11  1  0
 10 12  1  0
 12 13  1  0
  3 14  1  0
 14 15  2  0
 14 16  2  0
 14 17  1  0
 17 18  2  0
 18 19  1  0
 18 20  1  0
 20 21  1  0
 20 22  2  0
 22 23  1  0
 22 24  1  0
 24 25  1  0
 24 26  2  0
 26 27  1  0
  2 28  1  0
 28 29  2  0
 29 30  1  0
 29 31  1  0
 31 32  1  0
 31 33  2  0
 33 34  1  0
 33 35  1  0
 35 36  1  0
 35 37  2  0
 37 38  1  0
 38 39  1  0
 39 40  1  0
 39 41  1  0
 39 42  1  0
 12  6  2  0
 26 17  1  0
 37 28  1  0
M  END
>  <UniqueID>  (23) 
20

>  <SMILES>  (23) 
COc1ccccc1/C=C(/C(=O)c1cccs1)S(=O)(=O)c1ccccc1

>  <Energy>  (23) 
82.8538805760285

>  <Genealogy>  (23) 
COc1ccccc1/C=C(/C(=O)c1cccs1)S(=O)(=O)c1ccccc1 (cis-trans isomerization)
COc1ccccc1/C=C(/C(=O)c1cccs1)S(=O)(=O)c1ccccc1 (3D coordinates assigned)
COc1ccccc1/C=C(/C(=O)c1cccs1)S(=O)(=O)c1ccccc1 (optimized conformer: 82.8538805760285 kcal/mol)

>  <smiles>  (23) 
COc1ccccc1C=C(C(=O)c1cccs1)S(=O)(=O)c1ccccc1

>  <score_type>  (23) 
oracle

>  <origin>  (23) 
adg

>  <m_score__min__energy>  (23) 
-8.5399999999999991

>  <m_primary>  (23) 
energy

$$$$
23:0
     RDKit          3D

 44 45  0  0  0  0  0  0  0  0999 V2000
   53.7930   24.5850   46.1272 H   0  0  0  0  0  0  0  0  0  0  0  0
   54.8190   24.9080   45.8970 C   0  0  0  0  0  0  0  0  0  0  0  0
   55.1500   26.2250   45.9770 N   0  0  0  0  0  0  0  0  0  0  0  0
   56.4030   26.6760   45.6830 C   0  0  0  0  0  0  0  0  0  0  0  0
   56.7090   27.9360   45.7810 N   0  0  0  0  0  0  0  0  0  0  0  0
   56.3450   28.9890   44.8730 C   0  0  0  0  0  0  0  0  0  0  0  0
   55.1540   29.3960   44.8680 O   0  0  0  0  0  0  0  0  0  0  0  0
   57.3510   29.6790   43.9890 C   0  0  0  0  0  0  0  0  0  0  0  0
   57.6117   29.0193   43.1483 H   0  0  0  0  0  0  0  0  0  0  0  0
   56.9167   30.6140   43.6053 H   0  0  0  0  0  0  0  0  0  0  0  0
   58.5720   29.9900   44.7670 N   0  0  0  0  0  0  0  0  0  0  0  0
   58.2590   30.4570   46.1340 C   0  0  0  0  0  0  0  0  0  0  0  0
   57.2183   30.1930   46.3732 H   0  0  0  0  0  0  0  0  0  0  0  0
   58.9547   29.9716   46.8343 H   0  0  0  0  0  0  0  0  0  0  0  0
   58.4270   31.9500   46.2550 C   0  0  0  0  0  0  0  0  0  0  0  0
   57.9880   32.8030   45.2290 C   0  0  0  0  0  0  0  0  0  0  0  0
   57.4712   32.3849   44.3526 H   0  0  0  0  0  0  0  0  0  0  0  0
   58.2050   34.1800   45.3170 C   0  0  0  0  0  0  0  0  0  0  0  0
   57.8630   34.8424   44.5081 H   0  0  0  0  0  0  0  0  0  0  0  0
   58.8560   34.7180   46.4310 C   0  0  0  0  0  0  0  0  0  0  0  0
   59.0349   35.8017   46.4910 H   0  0  0  0  0  0  0  0  0  0  0  0
   59.2820   33.8800   47.4730 C   0  0  0  0  0  0  0  0  0  0  0  0
   60.0210   34.4490   48.6490 C   0  0  0  0  0  0  0  0  0  0  0  0
   59.5577   34.0923   49.5807 H   0  0  0  0  0  0  0  0  0  0  0  0
   61.0714   34.1242   48.6141 H   0  0  0  0  0  0  0  0  0  0  0  0
   59.9755   35.5475   48.6141 H   0  0  0  0  0  0  0  0  0  0  0  0
   59.0790   32.4950   47.3730 C   0  0  0  0  0  0  0  0  0  0  0  0
   59.4331   31.8317   48.1759 H   0  0  0  0  0  0  0  0  0  0  0  0
   59.6040   28.5800   44.8580 S   0  0  0  0  0  0  0  0  0  0  0  0
   61.0130   28.9590   44.4960 O   0  0  0  0  0  0  0  0  0  0  0  0
   59.1200   27.5450   43.8800 O   0  0  0  0  0  0  0  0  0  0  0  0
   59.5950   27.8750   46.4960 C   0  0  0  0  0  0  0  0  0  0  0  0
   59.6053   28.6826   47.2428 H   0  0  0  0  0  0  0  0  0  0  0  0
   58.6890   27.2652   46.6278 H   0  0  0  0  0  0  0  0  0  0  0  0
   60.4851   27.2423   46.6278 H   0  0  0  0  0  0  0  0  0  0  0  0
   57.3900   25.7610   45.3030 C   0  0  0  0  0  0  0  0  0  0  0  0
   58.4092   26.1086   45.0786 H   0  0  0  0  0  0  0  0  0  0  0  0
   57.0750   24.4040   45.2100 C   0  0  0  0  0  0  0  0  0  0  0  0
   57.8414   23.6819   44.8919 H   0  0  0  0  0  0  0  0  0  0  0  0
   55.7820   23.9620   45.5220 C   0  0  0  0  0  0  0  0  0  0  0  0
   55.4180   22.5140   45.3850 C   0  0  0  0  0  0  0  0  0  0  0  0
   55.3059   22.0680   46.3842 H   0  0  0  0  0  0  0  0  0  0  0  0
   54.4695   22.4248   44.8351 H   0  0  0  0  0  0  0  0  0  0  0  0
   56.2116   21.9869   44.8351 H   0  0  0  0  0  0  0  0  0  0  0  0
  1  2  1  0
  2  3  1  0
  3  4  1  0
  4  5  2  0
  5  6  1  0
  6  7  2  0
  6  8  1  0
  8  9  1  0
  8 10  1  0
  8 11  1  0
 11 12  1  0
 12 13  1  0
 12 14  1  0
 12 15  1  0
 15 16  2  0
 16 17  1  0
 16 18  1  0
 18 19  1  0
 18 20  2  0
 20 21  1  0
 20 22  1  0
 22 23  1  0
 23 24  1  0
 23 25  1  0
 23 26  1  0
 22 27  2  0
 27 28  1  0
 11 29  1  0
 29 30  2  0
 29 31  2  0
 29 32  1  0
 32 33  1  0
 32 34  1  0
 32 35  1  0
  4 36  1  0
 36 37  1  0
 36 38  2  0
 38 39  1  0
 38 40  1  0
 40 41  1  0
 41 42  1  0
 41 43  1  0
 41 44  1  0
 40  2  2  0
 27 15  1  0
M  CHG  1   3  -1
M  END
>  <UniqueID>  (24) 
21

>  <SMILES>  (24) 
Cc1cc/c(=N/C(=O)CN(Cc2cccc(C)c2)S(C)(=O)=O)[n-]c1

>  <Energy>  (24) 
42.180209077194725

>  <Genealogy>  (24) 
Cc1ccc(=NC(=O)CN(Cc2cccc(C)c2)S(C)(=O)=O)[n-]c1 (protonated)
Cc1cc/c(=N/C(=O)CN(Cc2cccc(C)c2)S(C)(=O)=O)[n-]c1 (cis-trans isomerization)
Cc1cc/c(=N/C(=O)CN(Cc2cccc(C)c2)S(C)(=O)=O)[n-]c1 (3D coordinates assigned)
Cc1cc/c(=N/C(=O)CN(Cc2cccc(C)c2)S(C)(=O)=O)[n-]c1 (optimized conformer: 42.180209077194725 kcal/mol)

>  <smiles>  (24) 
Cc1ccc(=NC(=O)CN(Cc2cccc(C)c2)S(C)(=O)=O)[nH]c1

>  <score_type>  (24) 
oracle

>  <origin>  (24) 
adg

>  <m_score__min__energy>  (24) 
-10.09

>  <m_primary>  (24) 
energy

$$$$
24:0
     RDKit          3D

 17 17  0  0  0  0  0  0  0  0999 V2000
   57.5270   21.1540   44.6320 C   0  0  0  0  0  0  0  0  0  0  0  0
   56.8450   22.2770   44.8920 C   0  0  0  0  0  0  0  0  0  0  0  0
   56.8090   22.8270   46.2720 C   0  0  0  0  0  0  0  0  0  0  0  0
   57.3890   22.2350   47.2220 O   0  0  0  0  0  0  0  0  0  0  0  0
   56.1030   24.0920   46.5300 C   0  0  0  0  0  0  0  0  0  0  0  0
   56.1970   24.6550   47.6540 O   0  0  0  0  0  0  0  0  0  0  0  0
   55.2890   24.6920   45.4650 C   0  0  0  0  0  0  0  0  0  0  0  0
   54.7690   25.8280   45.6280 O   0  0  0  0  0  0  0  0  0  0  0  0
   55.0070   23.9080   44.2170 C   0  0  0  0  0  0  0  0  0  0  0  0
   56.2400   23.1010   43.7600 C   0  0  2  0  0  0  0  0  0  0  0  0
   55.8970   22.3030   42.6520 O   0  0  0  0  0  0  0  0  0  0  0  0
   57.5515   20.7497   43.6093 H   0  0  0  0  0  0  0  0  0  0  0  0
   58.0626   20.6360   45.4412 H   0  0  0  0  0  0  0  0  0  0  0  0
   54.1779   23.2121   44.4127 H   0  0  0  0  0  0  0  0  0  0  0  0
   54.7456   24.6173   43.4179 H   0  0  0  0  0  0  0  0  0  0  0  0
   57.0241   23.8096   43.4550 H   0  0  0  0  0  0  0  0  0  0  0  0
   56.3670   22.6760   41.8600 H   0  0  0  0  0  0  0  0  0  0  0  0
  1  2  2  0
  2  3  1  0
  3  4  2  0
  3  5  1  0
  5  6  2  0
  5  7  1  0
  7  8  2  0
  7  9  1  0
  9 10  1  0
 10 11  1  0
 10  2  1  0
  1 12  1  0
  1 13  1  0
  9 14  1  0
  9 15  1  0
 10 16  1  6
 11 17  1  0
M  END
>  <UniqueID>  (25) 
22

>  <SMILES>  (25) 
C=C1C(=O)C(=O)C(=O)C[C@@H]1O

>  <Energy>  (25) 
15.97616312214768

>  <Genealogy>  (25) 
C=C1C(=O)C(=O)C(=O)C[C@@H]1O (chirality)
C=C1C(=O)C(=O)C(=O)C[C@@H]1O (3D coordinates assigned)
C=C1C(=O)C(=O)C(=O)C[C@@H]1O (nonaromatic ring conformer: 15.97616312214768 kcal/mol)

>  <smiles>  (25) 
C=C1C(=O)C(=O)C(=O)CC1O

>  <score_type>  (25) 
oracle

>  <origin>  (25) 
adg

>  <m_score__min__energy>  (25) 
-5.3300000000000001

>  <m_primary>  (25) 
energy

$$$$
25:0
     RDKit          3D

 34 35  0  0  0  0  0  0  0  0999 V2000
   55.1550   26.4190   46.0300 N   0  0  0  0  0  0  0  0  0  0  0  0
   56.8320   26.8310   45.9610 S   0  0  0  0  0  0  0  0  0  0  0  0
   57.4420   26.6910   47.3280 O   0  0  0  0  0  0  0  0  0  0  0  0
   57.5380   25.8940   45.0210 O   0  0  0  0  0  0  0  0  0  0  0  0
   57.0080   28.4890   45.3980 C   0  0  0  0  0  0  0  0  0  0  0  0
   58.1520   29.2300   45.7240 C   0  0  0  0  0  0  0  0  0  0  0  0
   58.2950   30.5440   45.2670 C   0  0  0  0  0  0  0  0  0  0  0  0
   57.2920   31.1350   44.4900 C   0  0  0  0  0  0  0  0  0  0  0  0
   57.4810   32.4750   44.0140 N   0  0  0  0  0  0  0  0  0  0  0  0
   57.7880   33.6120   44.8280 C   0  0  0  0  0  0  0  0  0  0  0  0
   56.9560   33.9820   45.6990 O   0  0  0  0  0  0  0  0  0  0  0  0
   58.9950   34.3610   44.6210 N   0  0  0  0  0  0  0  0  0  0  0  0
   59.4910   35.3280   45.5960 C   0  0  0  0  0  0  0  0  0  0  0  0
   60.0530   34.6090   46.7900 C   0  0  0  0  0  0  0  0  0  0  0  0
   59.2930   34.5010   47.9660 C   0  0  0  0  0  0  0  0  0  0  0  0
   59.8250   33.8710   49.0950 C   0  0  0  0  0  0  0  0  0  0  0  0
   61.1210   33.3470   49.0590 C   0  0  0  0  0  0  0  0  0  0  0  0
   61.8880   33.4570   47.8940 C   0  0  0  0  0  0  0  0  0  0  0  0
   63.6600   32.7470   47.8480 Br  0  0  0  0  0  0  0  0  0  0  0  0
   61.3580   34.0890   46.7630 C   0  0  0  0  0  0  0  0  0  0  0  0
   56.1600   30.3800   44.1350 C   0  0  0  0  0  0  0  0  0  0  0  0
   56.0180   29.0670   44.5930 C   0  0  0  0  0  0  0  0  0  0  0  0
   54.7030   27.0900   46.6910 H   0  0  0  0  0  0  0  0  0  0  0  0
   58.9408   28.7762   46.3419 H   0  0  0  0  0  0  0  0  0  0  0  0
   59.2001   31.1158   45.5194 H   0  0  0  0  0  0  0  0  0  0  0  0
   59.5460   34.2100   43.7470 H   0  0  0  0  0  0  0  0  0  0  0  0
   60.2800   35.9396   45.1340 H   0  0  0  0  0  0  0  0  0  0  0  0
   58.6613   35.9736   45.9198 H   0  0  0  0  0  0  0  0  0  0  0  0
   58.2741   34.9141   47.9990 H   0  0  0  0  0  0  0  0  0  0  0  0
   59.2237   33.7874   50.0123 H   0  0  0  0  0  0  0  0  0  0  0  0
   61.5375   32.8483   49.9466 H   0  0  0  0  0  0  0  0  0  0  0  0
   61.9652   34.1788   45.8502 H   0  0  0  0  0  0  0  0  0  0  0  0
   55.3836   30.8242   43.4947 H   0  0  0  0  0  0  0  0  0  0  0  0
   55.1252   28.4853   44.3202 H   0  0  0  0  0  0  0  0  0  0  0  0
  1  2  1  0
  2  3  2  0
  2  4  2  0
  2  5  1  0
  5  6  2  0
  6  7  1  0
  7  8  2  0
  8  9  1  0
  9 10  1  0
 10 11  2  0
 10 12  1  0
 12 13  1  0
 13 14  1  0
 14 15  2  0
 15 16  1  0
 16 17  2  0
 17 18  1  0
 18 19  1  0
 18 20  2  0
  8 21  1  0
 21 22  2  0
 22  5  1  0
 20 14  1  0
  1 23  1  0
  6 24  1  0
  7 25  1  0
 12 26  1  0
 13 27  1  0
 13 28  1  0
 15 29  1  0
 16 30  1  0
 17 31  1  0
 20 32  1  0
 21 33  1  0
 22 34  1  0
M  CHG  2   1  -1   9  -1
M  END
>  <UniqueID>  (26) 
23

>  <SMILES>  (26) 
[NH-]S(=O)(=O)c1ccc([N-]C(=O)NCc2cccc(Br)c2)cc1

>  <Energy>  (26) 
34.6928365813148

>  <Genealogy>  (26) 
[NH-]S(=O)(=O)c1ccc([N-]C(=O)NCc2cccc(Br)c2)cc1 (protonated)
[NH-]S(=O)(=O)c1ccc([N-]C(=O)NCc2cccc(Br)c2)cc1 (3D coordinates assigned)
[NH-]S(=O)(=O)c1ccc([N-]C(=O)NCc2cccc(Br)c2)cc1 (optimized conformer: 34.6928365813148 kcal/mol)

>  <smiles>  (26) 
NS(=O)(=O)c1ccc(NC(=O)NCc2cccc(Br)c2)cc1

>  <score_type>  (26) 
oracle

>  <origin>  (26) 
adg

>  <m_score__min__energy>  (26) 
-12.4

>  <m_primary>  (26) 
energy

$$$$
26:0
     RDKit          3D

 44 47  0  0  0  0  0  0  0  0999 V2000
   59.5588   29.8645   49.6749 H   0  0  0  0  0  0  0  0  0  0  0  0
   58.7540   30.3260   50.2660 C   0  0  0  0  0  0  0  0  0  0  0  0
   57.9230   29.5990   51.0620 N   0  0  0  0  0  0  0  0  0  0  0  0
   57.0190   30.3790   51.6900 C   0  0  0  0  0  0  0  0  0  0  0  0
   56.1170   29.8900   52.4910 N   0  0  0  0  0  0  0  0  0  0  0  0
   54.7090   30.1740   52.4540 C   0  0  0  0  0  0  0  0  0  0  0  0
   54.0750   30.6120   51.2750 C   0  0  0  0  0  0  0  0  0  0  0  0
   54.6565   30.7176   50.3472 H   0  0  0  0  0  0  0  0  0  0  0  0
   52.7100   30.9130   51.2790 C   0  0  0  0  0  0  0  0  0  0  0  0
   52.2152   31.2364   50.3513 H   0  0  0  0  0  0  0  0  0  0  0  0
   51.9740   30.8030   52.4620 C   0  0  0  0  0  0  0  0  0  0  0  0
   50.8978   31.0306   52.4633 H   0  0  0  0  0  0  0  0  0  0  0  0
   52.6050   30.4040   53.6430 C   0  0  0  0  0  0  0  0  0  0  0  0
   52.0267   30.3281   54.5756 H   0  0  0  0  0  0  0  0  0  0  0  0
   53.9700   30.1010   53.6420 C   0  0  0  0  0  0  0  0  0  0  0  0
   54.4658   29.8040   54.5780 H   0  0  0  0  0  0  0  0  0  0  0  0
   57.1870   31.9980   51.2550 S   0  0  0  0  0  0  0  0  0  0  0  0
   58.5100   31.6990   50.2550 C   0  0  0  0  0  0  0  0  0  0  0  0
   59.2660   32.7070   49.4800 C   0  0  0  0  0  0  0  0  0  0  0  0
   59.6850   32.5750   48.2010 N   0  0  0  0  0  0  0  0  0  0  0  0
   59.3560   31.5520   47.2490 C   0  0  0  0  0  0  0  0  0  0  0  0
   60.1720   30.4200   47.1200 C   0  0  0  0  0  0  0  0  0  0  0  0
   61.0885   30.3321   47.7219 H   0  0  0  0  0  0  0  0  0  0  0  0
   59.8230   29.4030   46.2280 C   0  0  0  0  0  0  0  0  0  0  0  0
   60.4689   28.5186   46.1248 H   0  0  0  0  0  0  0  0  0  0  0  0
   58.6550   29.5060   45.4660 C   0  0  0  0  0  0  0  0  0  0  0  0
   58.3803   28.6983   44.7716 H   0  0  0  0  0  0  0  0  0  0  0  0
   57.8290   30.6410   45.5850 C   0  0  0  0  0  0  0  0  0  0  0  0
   56.6400   30.7850   44.8560 O   0  0  0  0  0  0  0  0  0  0  0  0
   56.4890   30.4300   43.4860 C   0  0  0  0  0  0  0  0  0  0  0  0
   56.0594   29.4199   43.4142 H   0  0  0  0  0  0  0  0  0  0  0  0
   55.8190   31.1494   42.9925 H   0  0  0  0  0  0  0  0  0  0  0  0
   57.4720   30.4463   42.9925 H   0  0  0  0  0  0  0  0  0  0  0  0
   58.1970   31.6630   46.4690 C   0  0  0  0  0  0  0  0  0  0  0  0
   57.5695   32.5626   46.5520 H   0  0  0  0  0  0  0  0  0  0  0  0
   60.3250   33.7390   47.9570 C   0  0  0  0  0  0  0  0  0  0  0  0
   61.0250   34.2130   46.3750 S   0  0  0  0  0  0  0  0  0  0  0  0
   59.4410   34.8210   45.7170 C   0  0  0  0  0  0  0  0  0  0  0  0
   58.7718   35.0779   46.5513 H   0  0  0  0  0  0  0  0  0  0  0  0
   59.6187   35.7148   45.1010 H   0  0  0  0  0  0  0  0  0  0  0  0
   58.9750   34.0378   45.1010 H   0  0  0  0  0  0  0  0  0  0  0  0
   60.3050   34.5530   49.0300 N   0  0  0  0  0  0  0  0  0  0  0  0
   59.6490   33.9000   49.9760 N   0  0  0  0  0  0  0  0  0  0  0  0
   59.4750   34.2730   50.9360 H   0  0  0  0  0  0  0  0  0  0  0  0
  1  2  1  0
  2  3  1  0
  3  4  1  0
  4  5  2  0
  5  6  1  0
  6  7  2  0
  7  8  1  0
  7  9  1  0
  9 10  1  0
  9 11  2  0
 11 12  1  0
 11 13  1  0
 13 14  1  0
 13 15  2  0
 15 16  1  0
  4 17  1  0
 17 18  1  0
 18 19  1  0
 19 20  1  0
 20 21  1  0
 21 22  2  0
 22 23  1  0
 22 24  1  0
 24 25  1  0
 24 26  2  0
 26 27  1  0
 26 28  1  0
 28 29  1  0
 29 30  1  0
 30 31  1  0
 30 32  1  0
 30 33  1  0
 28 34  2  0
 34 35  1  0
 20 36  1  0
 36 37  1  0
 37 38  1  0
 38 39  1  0
 38 40  1  0
 38 41  1  0
 36 42  2  0
 42 43  1  0
 43 44  1  0
 18  2  2  0
 43 19  2  0
 15  6  1  0
 34 21  1  0
M  CHG  2   3  -1  43   1
M  END
>  <UniqueID>  (27) 
24

>  <SMILES>  (27) 
COc1cccc(-n2c(SC)n[nH+]c2-c2c[n-]/c(=N/c3ccccc3)s2)c1

>  <Energy>  (27) 
123.89278119020379

>  <Genealogy>  (27) 
COc1cccc(-n2c(SC)n[nH+]c2-c2c[n-]c(=Nc3ccccc3)s2)c1 (protonated)
COc1cccc(-n2c(SC)n[nH+]c2-c2c[n-]/c(=N/c3ccccc3)s2)c1 (cis-trans isomerization)
COc1cccc(-n2c(SC)n[nH+]c2-c2c[n-]/c(=N/c3ccccc3)s2)c1 (3D coordinates assigned)
COc1cccc(-n2c(SC)n[nH+]c2-c2c[n-]/c(=N/c3ccccc3)s2)c1 (optimized conformer: 123.89278119020379 kcal/mol)

>  <smiles>  (27) 
COc1cccc(-n2c(SC)nnc2-c2c[nH]c(=Nc3ccccc3)s2)c1

>  <score_type>  (27) 
oracle

>  <origin>  (27) 
adg

>  <m_score__min__energy>  (27) 
-7.9299999999999997

>  <m_primary>  (27) 
energy

$$$$
27:0
     RDKit          3D

 53 56  0  0  0  0  0  0  0  0999 V2000
   56.6400   28.9640   42.7380 C   0  0  0  0  0  0  0  0  0  0  0  0
   57.0970   29.8550   43.8530 C   0  0  0  0  0  0  0  0  0  0  0  0
   56.9710   31.2310   43.8570 C   0  0  0  0  0  0  0  0  0  0  0  0
   57.4940   31.6620   45.0620 C   0  0  0  0  0  0  0  0  0  0  0  0
   57.5630   33.0930   45.5150 C   0  0  0  0  0  0  0  0  0  0  0  0
   58.8120   33.3350   46.2650 N   0  0  0  0  0  0  0  0  0  0  0  0
   59.7180   34.2380   45.5280 C   0  0  0  0  0  0  0  0  0  0  0  0
   61.1010   34.2050   46.1870 C   0  0  0  0  0  0  0  0  0  0  0  0
   60.9770   34.1120   47.6490 N   0  0  0  0  0  0  0  0  0  0  0  0
   62.1010   33.6940   48.4470 C   0  0  0  0  0  0  0  0  0  0  0  0
   62.2860   34.2120   49.7420 C   0  0  0  0  0  0  0  0  0  0  0  0
   63.3730   33.8010   50.5200 C   0  0  0  0  0  0  0  0  0  0  0  0
   64.2800   32.8650   50.0170 C   0  0  0  0  0  0  0  0  0  0  0  0
   65.3350   32.4720   50.7710 F   0  0  0  0  0  0  0  0  0  0  0  0
   64.1010   32.3380   48.7360 C   0  0  0  0  0  0  0  0  0  0  0  0
   63.0140   32.7430   47.9540 C   0  0  0  0  0  0  0  0  0  0  0  0
   59.7250   34.5450   48.2810 C   0  0  0  0  0  0  0  0  0  0  0  0
   58.5080   33.8720   47.6130 C   0  0  0  0  0  0  0  0  0  0  0  0
   57.9020   30.5320   45.7550 C   0  0  0  0  0  0  0  0  0  0  0  0
   58.5220   30.5270   47.1240 C   0  0  0  0  0  0  0  0  0  0  0  0
   57.6550   29.4300   45.0100 N   0  0  0  0  0  0  0  0  0  0  0  0
   57.9490   28.0690   45.3640 C   0  0  0  0  0  0  0  0  0  0  0  0
   59.2810   27.6340   45.4330 C   0  0  0  0  0  0  0  0  0  0  0  0
   59.5710   26.3100   45.7740 C   0  0  0  0  0  0  0  0  0  0  0  0
   58.5340   25.4130   46.0460 C   0  0  0  0  0  0  0  0  0  0  0  0
   57.2050   25.8420   45.9830 C   0  0  0  0  0  0  0  0  0  0  0  0
   56.9100   27.1660   45.6430 C   0  0  0  0  0  0  0  0  0  0  0  0
   55.6170   27.5760   45.6090 F   0  0  0  0  0  0  0  0  0  0  0  0
   56.1760   28.0594   43.1582 H   0  0  0  0  0  0  0  0  0  0  0  0
   55.9051   29.4992   42.1187 H   0  0  0  0  0  0  0  0  0  0  0  0
   57.5034   28.6794   42.1187 H   0  0  0  0  0  0  0  0  0  0  0  0
   56.5411   31.8574   43.0615 H   0  0  0  0  0  0  0  0  0  0  0  0
   57.5342   33.7535   44.6358 H   0  0  0  0  0  0  0  0  0  0  0  0
   56.7057   33.3014   46.1720 H   0  0  0  0  0  0  0  0  0  0  0  0
   59.7997   33.9056   44.4826 H   0  0  0  0  0  0  0  0  0  0  0  0
   59.3200   35.2632   45.5511 H   0  0  0  0  0  0  0  0  0  0  0  0
   61.6575   33.3319   45.8154 H   0  0  0  0  0  0  0  0  0  0  0  0
   61.6353   35.1330   45.9354 H   0  0  0  0  0  0  0  0  0  0  0  0
   61.5713   34.9447   50.1450 H   0  0  0  0  0  0  0  0  0  0  0  0
   63.5140   34.2152   51.5292 H   0  0  0  0  0  0  0  0  0  0  0  0
   64.8169   31.6023   48.3408 H   0  0  0  0  0  0  0  0  0  0  0  0
   62.8723   32.3166   46.9500 H   0  0  0  0  0  0  0  0  0  0  0  0
   59.7468   34.2729   49.3466 H   0  0  0  0  0  0  0  0  0  0  0  0
   59.6314   35.6347   48.1639 H   0  0  0  0  0  0  0  0  0  0  0  0
   58.1705   33.0433   48.2528 H   0  0  0  0  0  0  0  0  0  0  0  0
   57.7304   34.6409   47.4938 H   0  0  0  0  0  0  0  0  0  0  0  0
   57.7286   30.5334   47.8859 H   0  0  0  0  0  0  0  0  0  0  0  0
   59.1384   29.6239   47.2441 H   0  0  0  0  0  0  0  0  0  0  0  0
   59.1529   31.4201   47.2441 H   0  0  0  0  0  0  0  0  0  0  0  0
   60.0994   28.3369   45.2181 H   0  0  0  0  0  0  0  0  0  0  0  0
   60.6168   25.9733   45.8284 H   0  0  0  0  0  0  0  0  0  0  0  0
   58.7636   24.3700   46.3095 H   0  0  0  0  0  0  0  0  0  0  0  0
   56.3896   25.1367   46.2013 H   0  0  0  0  0  0  0  0  0  0  0  0
  1  2  1  0
  2  3  2  0
  3  4  1  0
  4  5  1  0
  5  6  1  0
  6  7  1  0
  7  8  1  0
  8  9  1  0
  9 10  1  0
 10 11  2  0
 11 12  1  0
 12 13  2  0
 13 14  1  0
 13 15  1  0
 15 16  2  0
  9 17  1  0
 17 18  1  0
  4 19  2  0
 19 20  1  0
 19 21  1  0
 21 22  1  0
 22 23  2  0
 23 24  1  0
 24 25  2  0
 25 26  1  0
 26 27  2  0
 27 28  1  0
 21  2  1  0
 27 22  1  0
 18  6  1  0
 16 10  1  0
  1 29  1  0
  1 30  1  0
  1 31  1  0
  3 32  1  0
  5 33  1  0
  5 34  1  0
  7 35  1  0
  7 36  1  0
  8 37  1  0
  8 38  1  0
 11 39  1  0
 12 40  1  0
 15 41  1  0
 16 42  1  0
 17 43  1  0
 17 44  1  0
 18 45  1  0
 18 46  1  0
 20 47  1  0
 20 48  1  0
 20 49  1  0
 23 50  1  0
 24 51  1  0
 25 52  1  0
 26 53  1  0
M  END
>  <UniqueID>  (28) 
25

>  <SMILES>  (28) 
Cc1cc(CN2CCN(c3ccc(F)cc3)CC2)c(C)n1-c1ccccc1F

>  <Energy>  (28) 
96.84847023106171

>  <Genealogy>  (28) 
Cc1cc(CN2CCN(c3ccc(F)cc3)CC2)c(C)n1-c1ccccc1F (3D coordinates assigned)
Cc1cc(CN2CCN(c3ccc(F)cc3)CC2)c(C)n1-c1ccccc1F (nonaromatic ring conformer: 96.84847023106171 kcal/mol)

>  <smiles>  (28) 
Cc1cc(CN2CCN(c3ccc(F)cc3)CC2)c(C)n1-c1ccccc1F

>  <score_type>  (28) 
oracle

>  <origin>  (28) 
adg

>  <m_score__min__energy>  (28) 
-8.4900000000000002

>  <m_primary>  (28) 
energy

$$$$
28:0
     RDKit          3D

 52 55  0  0  0  0  0  0  0  0999 V2000
   62.3940   29.3390   51.2170 C   0  0  0  0  0  0  0  0  0  0  0  0
   62.9340   30.6170   50.6610 C   0  0  0  0  0  0  0  0  0  0  0  0
   62.1170   31.4620   49.9090 C   0  0  0  0  0  0  0  0  0  0  0  0
   62.6570   32.6570   49.4110 C   0  0  0  0  0  0  0  0  0  0  0  0
   61.8440   33.5510   48.6270 N   0  0  0  0  0  0  0  0  0  0  0  0
   62.1750   33.8290   47.2240 C   0  0  0  0  0  0  0  0  0  0  0  0
   60.9970   33.4650   46.3030 C   0  0  0  0  0  0  0  0  0  0  0  0
   59.6090   33.6260   46.9850 C   0  0  0  0  0  0  0  0  0  0  0  0
   58.5120   34.0140   45.9700 C   0  0  0  0  0  0  0  0  0  0  0  0
   58.1530   32.8600   45.0680 C   0  0  0  0  0  0  0  0  0  0  0  0
   57.8190   31.6070   45.6100 C   0  0  0  0  0  0  0  0  0  0  0  0
   57.4600   30.5500   44.7680 C   0  0  0  0  0  0  0  0  0  0  0  0
   57.4290   30.7350   43.3830 C   0  0  0  0  0  0  0  0  0  0  0  0
   57.7550   31.9800   42.8380 C   0  0  0  0  0  0  0  0  0  0  0  0
   58.1140   33.0400   43.6750 C   0  0  0  0  0  0  0  0  0  0  0  0
   59.6700   34.6510   48.1350 C   0  0  0  0  0  0  0  0  0  0  0  0
   60.6510   34.1740   49.2180 C   0  0  0  0  0  0  0  0  0  0  0  0
   63.9650   32.9540   49.6600 N   0  0  0  0  0  0  0  0  0  0  0  0
   64.7500   32.1170   50.3970 C   0  0  0  0  0  0  0  0  0  0  0  0
   66.1610   32.4500   50.6570 C   0  0  0  0  0  0  0  0  0  0  0  0
   67.0290   31.7350   51.4630 C   0  0  0  0  0  0  0  0  0  0  0  0
   68.2320   32.4070   51.4090 C   0  0  0  0  0  0  0  0  0  0  0  0
   68.0170   33.4890   50.5770 C   0  0  0  0  0  0  0  0  0  0  0  0
   69.0390   34.5060   50.1960 C   0  0  0  0  0  0  0  0  0  0  0  0
   66.7790   33.4880   50.1420 O   0  0  0  0  0  0  0  0  0  0  0  0
   64.2280   30.9620   50.8890 N   0  0  0  0  0  0  0  0  0  0  0  0
   62.4117   29.3809   52.3161 H   0  0  0  0  0  0  0  0  0  0  0  0
   61.3591   29.1974   50.8721 H   0  0  0  0  0  0  0  0  0  0  0  0
   63.0138   28.4982   50.8721 H   0  0  0  0  0  0  0  0  0  0  0  0
   61.0684   31.1958   49.7103 H   0  0  0  0  0  0  0  0  0  0  0  0
   62.4029   34.8993   47.1123 H   0  0  0  0  0  0  0  0  0  0  0  0
   63.0463   33.2207   46.9397 H   0  0  0  0  0  0  0  0  0  0  0  0
   61.0297   34.1195   45.4195 H   0  0  0  0  0  0  0  0  0  0  0  0
   61.1077   32.4033   46.0374 H   0  0  0  0  0  0  0  0  0  0  0  0
   59.3415   32.6461   47.4071 H   0  0  0  0  0  0  0  0  0  0  0  0
   57.6131   34.3296   46.5199 H   0  0  0  0  0  0  0  0  0  0  0  0
   58.8983   34.8315   45.3435 H   0  0  0  0  0  0  0  0  0  0  0  0
   57.8401   31.4575   46.6996 H   0  0  0  0  0  0  0  0  0  0  0  0
   57.2014   29.5705   45.1967 H   0  0  0  0  0  0  0  0  0  0  0  0
   57.1483   29.9014   42.7225 H   0  0  0  0  0  0  0  0  0  0  0  0
   57.7290   32.1258   41.7480 H   0  0  0  0  0  0  0  0  0  0  0  0
   58.3670   34.0189   43.2417 H   0  0  0  0  0  0  0  0  0  0  0  0
   60.0076   35.6207   47.7403 H   0  0  0  0  0  0  0  0  0  0  0  0
   58.6684   34.7546   48.5777 H   0  0  0  0  0  0  0  0  0  0  0  0
   60.9618   35.0376   49.8242 H   0  0  0  0  0  0  0  0  0  0  0  0
   60.1411   33.4229   49.8392 H   0  0  0  0  0  0  0  0  0  0  0  0
   64.3780   33.8260   49.2590 H   0  0  0  0  0  0  0  0  0  0  0  0
   66.8056   30.8193   52.0300 H   0  0  0  0  0  0  0  0  0  0  0  0
   69.1675   32.1378   51.9213 H   0  0  0  0  0  0  0  0  0  0  0  0
   69.4781   34.9429   51.1050 H   0  0  0  0  0  0  0  0  0  0  0  0
   69.8299   34.0260   49.6010 H   0  0  0  0  0  0  0  0  0  0  0  0
   68.5629   35.2992   49.6010 H   0  0  0  0  0  0  0  0  0  0  0  0
  1  2  1  0
  2  3  2  0
  3  4  1  0
  4  5  1  0
  5  6  1  0
  6  7  1  0
  7  8  1  0
  8  9  1  0
  9 10  1  0
 10 11  2  0
 11 12  1  0
 12 13  2  0
 13 14  1  0
 14 15  2  0
  8 16  1  0
 16 17  1  0
  4 18  2  0
 18 19  1  0
 19 20  1  0
 20 21  2  0
 21 22  1  0
 22 23  2  0
 23 24  1  0
 23 25  1  0
 19 26  2  0
 26  2  1  0
 17  5  1  0
 25 20  1  0
 15 10  1  0
  1 27  1  0
  1 28  1  0
  1 29  1  0
  3 30  1  0
  6 31  1  0
  6 32  1  0
  7 33  1  0
  7 34  1  0
  8 35  1  0
  9 36  1  0
  9 37  1  0
 11 38  1  0
 12 39  1  0
 13 40  1  0
 14 41  1  0
 15 42  1  0
 16 43  1  0
 16 44  1  0
 17 45  1  0
 17 46  1  0
 18 47  1  0
 21 48  1  0
 22 49  1  0
 24 50  1  0
 24 51  1  0
 24 52  1  0
M  CHG  1  18   1
M  END
>  <UniqueID>  (29) 
26

>  <SMILES>  (29) 
Cc1cc(N2CCC(Cc3ccccc3)CC2)[nH+]c(-c2ccc(C)o2)n1

>  <Energy>  (29) 
81.75419081962995

>  <Genealogy>  (29) 
Cc1cc(N2CCC(Cc3ccccc3)CC2)[nH+]c(-c2ccc(C)o2)n1 (protonated)
Cc1cc(N2CCC(Cc3ccccc3)CC2)[nH+]c(-c2ccc(C)o2)n1 (3D coordinates assigned)
Cc1cc(N2CCC(Cc3ccccc3)CC2)[nH+]c(-c2ccc(C)o2)n1 (nonaromatic ring conformer: 81.75419081962995 kcal/mol)

>  <smiles>  (29) 
Cc1cc(N2CCC(Cc3ccccc3)CC2)nc(-c2ccc(C)o2)n1

>  <score_type>  (29) 
oracle

>  <origin>  (29) 
adg

>  <m_score__min__energy>  (29) 
-7.54

>  <m_primary>  (29) 
energy

$$$$
29:0
     RDKit          3D

 47 51  0  0  0  0  0  0  0  0999 V2000
   61.1000   34.2210   49.1680 C   0  0  0  0  0  0  0  0  0  0  0  0
   59.6400   33.7870   49.1260 C   0  0  0  0  0  0  0  0  0  0  0  0
   59.4420   32.7670   48.0930 N   0  0  0  0  0  0  0  0  0  0  0  0
   58.9110   32.9380   46.8550 C   0  0  0  0  0  0  0  0  0  0  0  0
   58.4680   34.1270   46.2650 C   0  0  0  0  0  0  0  0  0  0  0  0
   57.9390   34.0620   44.9630 C   0  0  0  0  0  0  0  0  0  0  0  0
   57.8530   32.8280   44.2820 C   0  0  0  0  0  0  0  0  0  0  0  0
   58.2950   31.6430   44.8950 C   0  0  0  0  0  0  0  0  0  0  0  0
   58.8180   31.7350   46.1830 C   0  0  0  0  0  0  0  0  0  0  0  0
   59.2960   30.7720   47.0440 C   0  0  0  0  0  0  0  0  0  0  0  0
   59.4140   29.3910   46.9060 C   0  0  0  0  0  0  0  0  0  0  0  0
   59.9110   28.6560   48.0030 C   0  0  0  0  0  0  0  0  0  0  0  0
   60.0610   27.1930   47.8880 C   0  0  0  0  0  0  0  0  0  0  0  0
   61.2030   26.7100   47.6690 O   0  0  0  0  0  0  0  0  0  0  0  0
   58.9430   26.3020   47.9800 N   0  0  0  0  0  0  0  0  0  0  0  0
   58.3040   25.6490   46.8450 C   0  0  0  0  0  0  0  0  0  0  0  0
   57.9690   26.6770   45.8060 C   0  0  0  0  0  0  0  0  0  0  0  0
   58.8400   26.8900   44.7060 C   0  0  0  0  0  0  0  0  0  0  0  0
   58.5500   27.8770   43.7460 C   0  0  0  0  0  0  0  0  0  0  0  0
   57.3960   28.6360   43.9220 C   0  0  0  0  0  0  0  0  0  0  0  0
   56.5660   28.4460   44.9790 C   0  0  0  0  0  0  0  0  0  0  0  0
   56.8160   27.4810   45.9490 C   0  0  0  0  0  0  0  0  0  0  0  0
   55.5130   29.3370   44.9020 O   0  0  0  0  0  0  0  0  0  0  0  0
   55.6920   30.1340   43.7210 C   0  0  0  0  0  0  0  0  0  0  0  0
   56.9060   29.6530   43.1270 O   0  0  0  0  0  0  0  0  0  0  0  0
   60.2990   29.3320   49.1860 C   0  0  0  0  0  0  0  0  0  0  0  0
   60.1660   30.7280   49.2970 C   0  0  0  0  0  0  0  0  0  0  0  0
   59.6600   31.4310   48.2010 C   0  0  0  0  0  0  0  0  0  0  0  0
   61.4239   34.3173   50.2148 H   0  0  0  0  0  0  0  0  0  0  0  0
   61.7210   33.4686   48.6598 H   0  0  0  0  0  0  0  0  0  0  0  0
   61.2091   35.1904   48.6598 H   0  0  0  0  0  0  0  0  0  0  0  0
   59.3565   33.3722   50.1045 H   0  0  0  0  0  0  0  0  0  0  0  0
   59.0138   34.6603   48.8910 H   0  0  0  0  0  0  0  0  0  0  0  0
   58.5315   35.0842   46.8033 H   0  0  0  0  0  0  0  0  0  0  0  0
   57.5890   34.9813   44.4707 H   0  0  0  0  0  0  0  0  0  0  0  0
   57.4370   32.7939   43.2643 H   0  0  0  0  0  0  0  0  0  0  0  0
   58.2302   30.6756   44.3754 H   0  0  0  0  0  0  0  0  0  0  0  0
   59.1283   28.8886   45.9700 H   0  0  0  0  0  0  0  0  0  0  0  0
   58.9896   24.9032   46.4164 H   0  0  0  0  0  0  0  0  0  0  0  0
   57.3830   25.1484   47.1785 H   0  0  0  0  0  0  0  0  0  0  0  0
   59.7488   26.2788   44.6031 H   0  0  0  0  0  0  0  0  0  0  0  0
   59.2134   28.0436   42.8845 H   0  0  0  0  0  0  0  0  0  0  0  0
   56.1356   27.3476   46.8030 H   0  0  0  0  0  0  0  0  0  0  0  0
   54.8451   29.9994   43.0321 H   0  0  0  0  0  0  0  0  0  0  0  0
   55.7433   31.2082   43.9522 H   0  0  0  0  0  0  0  0  0  0  0  0
   60.7099   28.7574   50.0292 H   0  0  0  0  0  0  0  0  0  0  0  0
   60.4525   31.2515   50.2211 H   0  0  0  0  0  0  0  0  0  0  0  0
  1  2  1  0
  2  3  1  0
  3  4  1  0
  4  5  2  0
  5  6  1  0
  6  7  2  0
  7  8  1  0
  8  9  2  0
  9 10  1  0
 10 11  2  0
 11 12  1  0
 12 13  1  0
 13 14  2  0
 13 15  1  0
 15 16  1  0
 16 17  1  0
 17 18  2  0
 18 19  1  0
 19 20  2  0
 20 21  1  0
 21 22  2  0
 21 23  1  0
 23 24  1  0
 24 25  1  0
 12 26  2  0
 26 27  1  0
 27 28  2  0
 28  3  1  0
  9  4  1  0
 28 10  1  0
 22 17  1  0
 25 20  1  0
  1 29  1  0
  1 30  1  0
  1 31  1  0
  2 32  1  0
  2 33  1  0
  5 34  1  0
  6 35  1  0
  7 36  1  0
  8 37  1  0
 11 38  1  0
 16 39  1  0
 16 40  1  0
 18 41  1  0
 19 42  1  0
 22 43  1  0
 24 44  1  0
 24 45  1  0
 26 46  1  0
 27 47  1  0
M  CHG  1  15  -1
M  END
>  <UniqueID>  (30) 
27

>  <SMILES>  (30) 
CCn1c2ccccc2c2cc(C(=O)[N-]Cc3ccc4c(c3)OCO4)ccc21

>  <Energy>  (30) 
122.44622524695278

>  <Genealogy>  (30) 
CCn1c2ccccc2c2cc(C(=O)[N-]Cc3ccc4c(c3)OCO4)ccc21 (protonated)
CCn1c2ccccc2c2cc(C(=O)[N-]Cc3ccc4c(c3)OCO4)ccc21 (3D coordinates assigned)
CCn1c2ccccc2c2cc(C(=O)[N-]Cc3ccc4c(c3)OCO4)ccc21 (nonaromatic ring conformer: 122.44622524695278 kcal/mol)

>  <smiles>  (30) 
CCn1c2ccccc2c2cc(C(=O)NCc3ccc4c(c3)OCO4)ccc21

>  <score_type>  (30) 
oracle

>  <origin>  (30) 
adg

>  <m_score__min__energy>  (30) 
-10.33

>  <m_primary>  (30) 
energy

$$$$
30:0
     RDKit          3D

 36 37  0  0  0  0  0  0  0  0999 V2000
   58.7110   31.3770   47.1960 C   0  0  0  0  0  0  0  0  0  0  0  0
   58.1420   31.3990   45.8160 C   0  0  0  0  0  0  0  0  0  0  0  0
   57.3430   30.4330   45.3170 N   0  0  0  0  0  0  0  0  0  0  0  0
   57.0840   30.7390   44.0520 N   0  0  0  0  0  0  0  0  0  0  0  0
   56.2920   29.8940   43.1660 C   0  0  0  0  0  0  0  0  0  0  0  0
   57.7060   31.8920   43.7190 C   0  0  0  0  0  0  0  0  0  0  0  0
   57.7750   32.4710   42.3380 C   0  0  0  0  0  0  0  0  0  0  0  0
   58.4030   32.3240   44.8250 C   0  0  0  0  0  0  0  0  0  0  0  0
   59.2850   33.4440   44.8970 N   0  0  0  0  0  0  0  0  0  0  0  0
   59.4260   34.3430   46.3670 S   0  0  0  0  0  0  0  0  0  0  0  0
   58.1870   34.1690   47.1950 O   0  0  0  0  0  0  0  0  0  0  0  0
   59.5450   35.8040   46.0290 O   0  0  0  0  0  0  0  0  0  0  0  0
   60.9110   33.8320   47.2020 C   0  0  0  0  0  0  0  0  0  0  0  0
   62.0210   33.5760   46.3800 C   0  0  0  0  0  0  0  0  0  0  0  0
   63.2300   33.1410   46.9180 C   0  0  0  0  0  0  0  0  0  0  0  0
   63.3530   32.9540   48.2890 C   0  0  0  0  0  0  0  0  0  0  0  0
   62.2640   33.1930   49.1290 C   0  0  0  0  0  0  0  0  0  0  0  0
   61.0220   33.6200   48.6090 C   0  0  0  0  0  0  0  0  0  0  0  0
   59.8760   33.8650   49.5720 C   0  0  0  0  0  0  0  0  0  0  0  0
   59.2750   35.0750   49.2800 F   0  0  0  0  0  0  0  0  0  0  0  0
   60.3090   33.9130   50.8870 F   0  0  0  0  0  0  0  0  0  0  0  0
   58.9500   32.8440   49.4830 F   0  0  0  0  0  0  0  0  0  0  0  0
   57.8928   31.4086   47.9305 H   0  0  0  0  0  0  0  0  0  0  0  0
   59.2950   30.4556   47.3372 H   0  0  0  0  0  0  0  0  0  0  0  0
   59.3644   32.2506   47.3372 H   0  0  0  0  0  0  0  0  0  0  0  0
   55.6619   29.2218   43.7669 H   0  0  0  0  0  0  0  0  0  0  0  0
   55.6530   30.5256   42.5314 H   0  0  0  0  0  0  0  0  0  0  0  0
   56.9636   29.2972   42.5314 H   0  0  0  0  0  0  0  0  0  0  0  0
   57.9049   33.5613   42.4036 H   0  0  0  0  0  0  0  0  0  0  0  0
   58.6272   32.0320   41.7985 H   0  0  0  0  0  0  0  0  0  0  0  0
   56.8435   32.2446   41.7985 H   0  0  0  0  0  0  0  0  0  0  0  0
   60.1020   33.4640   44.2470 H   0  0  0  0  0  0  0  0  0  0  0  0
   61.9340   33.7215   45.2931 H   0  0  0  0  0  0  0  0  0  0  0  0
   64.0874   32.9455   46.2572 H   0  0  0  0  0  0  0  0  0  0  0  0
   64.3102   32.6170   48.7135 H   0  0  0  0  0  0  0  0  0  0  0  0
   62.3749   33.0464   50.2135 H   0  0  0  0  0  0  0  0  0  0  0  0
  1  2  1  0
  2  3  2  0
  3  4  1  0
  4  5  1  0
  4  6  1  0
  6  7  1  0
  6  8  2  0
  8  9  1  0
  9 10  1  0
 10 11  2  0
 10 12  2  0
 10 13  1  0
 13 14  2  0
 14 15  1  0
 15 16  2  0
 16 17  1  0
 17 18  2  0
 18 19  1  0
 19 20  1  0
 19 21  1  0
 19 22  1  0
  8  2  1  0
 18 13  1  0
  1 23  1  0
  1 24  1  0
  1 25  1  0
  5 26  1  0
  5 27  1  0
  5 28  1  0
  7 29  1  0
  7 30  1  0
  7 31  1  0
  9 32  1  0
 14 33  1  0
 15 34  1  0
 16 35  1  0
 17 36  1  0
M  END
>  <UniqueID>  (31) 
28

>  <SMILES>  (31) 
Cc1nn(C)c(C)c1NS(=O)(=O)c1ccccc1C(F)(F)F

>  <Energy>  (31) 
76.80571999830305

>  <Genealogy>  (31) 
Cc1nn(C)c(C)c1NS(=O)(=O)c1ccccc1C(F)(F)F (3D coordinates assigned)
Cc1nn(C)c(C)c1NS(=O)(=O)c1ccccc1C(F)(F)F (optimized conformer: 76.80571999830305 kcal/mol)

>  <smiles>  (31) 
Cc1nn(C)c(C)c1NS(=O)(=O)c1ccccc1C(F)(F)F

>  <score_type>  (31) 
oracle

>  <origin>  (31) 
adg

>  <m_score__min__energy>  (31) 
-6.8600000000000003

>  <m_primary>  (31) 
energy

$$$$
31:0
     RDKit          3D

 31 31  0  0  0  0  0  0  0  0999 V2000
   65.8400   32.6670   50.1170 C   0  0  0  0  0  0  0  0  0  0  0  0
   64.4030   33.0850   49.8150 C   0  0  0  0  0  0  0  0  0  0  0  0
   63.7920   32.2160   48.7020 C   0  0  0  0  0  0  0  0  0  0  0  0
   64.1430   32.7200   47.3540 N   0  0  0  0  0  0  0  0  0  0  0  0
   63.0770   33.5320   46.7380 C   0  0  0  0  0  0  0  0  0  0  0  0
   61.7030   33.2550   47.3580 C   0  0  0  0  0  0  0  0  0  0  0  0
   60.5200   34.5450   46.8450 S   0  0  0  0  0  0  0  0  0  0  0  0
   59.4470   33.3890   45.9920 C   0  0  0  0  0  0  0  0  0  0  0  0
   59.4180   32.0430   46.3770 C   0  0  0  0  0  0  0  0  0  0  0  0
   58.5820   31.1420   45.7100 C   0  0  0  0  0  0  0  0  0  0  0  0
   57.7720   31.5840   44.6580 C   0  0  0  0  0  0  0  0  0  0  0  0
   56.6330   30.3520   43.7470 Br  0  0  0  0  0  0  0  0  0  0  0  0
   57.7980   32.9300   44.2740 C   0  0  0  0  0  0  0  0  0  0  0  0
   58.6340   33.8320   44.9400 C   0  0  0  0  0  0  0  0  0  0  0  0
   65.9881   32.6239   51.2061 H   0  0  0  0  0  0  0  0  0  0  0  0
   66.0327   31.6756   49.6812 H   0  0  0  0  0  0  0  0  0  0  0  0
   66.5345   33.4004   49.6812 H   0  0  0  0  0  0  0  0  0  0  0  0
   63.7985   32.9762   50.7276 H   0  0  0  0  0  0  0  0  0  0  0  0
   64.4090   34.1313   49.4757 H   0  0  0  0  0  0  0  0  0  0  0  0
   64.1681   31.1876   48.8065 H   0  0  0  0  0  0  0  0  0  0  0  0
   62.6973   32.2495   48.8047 H   0  0  0  0  0  0  0  0  0  0  0  0
   64.9850   33.3370   47.4460 H   0  0  0  0  0  0  0  0  0  0  0  0
   64.4130   31.9440   46.7060 H   0  0  0  0  0  0  0  0  0  0  0  0
   63.3190   34.5963   46.8752 H   0  0  0  0  0  0  0  0  0  0  0  0
   63.0249   33.2661   45.6719 H   0  0  0  0  0  0  0  0  0  0  0  0
   61.3413   32.2728   47.0196 H   0  0  0  0  0  0  0  0  0  0  0  0
   61.7923   33.2604   48.4544 H   0  0  0  0  0  0  0  0  0  0  0  0
   60.0532   31.6942   47.2046 H   0  0  0  0  0  0  0  0  0  0  0  0
   58.5611   30.0847   46.0126 H   0  0  0  0  0  0  0  0  0  0  0  0
   57.1606   33.2784   43.4480 H   0  0  0  0  0  0  0  0  0  0  0  0
   58.6534   34.8895   44.6380 H   0  0  0  0  0  0  0  0  0  0  0  0
  1  2  1  0
  2  3  1  0
  3  4  1  0
  4  5  1  0
  5  6  1  0
  6  7  1  0
  7  8  1  0
  8  9  2  0
  9 10  1  0
 10 11  2  0
 11 12  1  0
 11 13  1  0
 13 14  2  0
 14  8  1  0
  1 15  1  0
  1 16  1  0
  1 17  1  0
  2 18  1  0
  2 19  1  0
  3 20  1  0
  3 21  1  0
  4 22  1  0
  4 23  1  0
  5 24  1  0
  5 25  1  0
  6 26  1  0
  6 27  1  0
  9 28  1  0
 10 29  1  0
 13 30  1  0
 14 31  1  0
M  CHG  1   4   1
M  END
>  <UniqueID>  (32) 
29

>  <SMILES>  (32) 
CCC[NH2+]CCSc1ccc(Br)cc1

>  <Energy>  (32) 
20.6846037402878

>  <Genealogy>  (32) 
CCC[NH2+]CCSc1ccc(Br)cc1 (protonated)
CCC[NH2+]CCSc1ccc(Br)cc1 (3D coordinates assigned)
CCC[NH2+]CCSc1ccc(Br)cc1 (optimized conformer: 20.6846037402878 kcal/mol)

>  <smiles>  (32) 
CCCNCCSc1ccc(Br)cc1

>  <score_type>  (32) 
oracle

>  <origin>  (32) 
adg

>  <m_score__min__energy>  (32) 
-4.6299999999999999

>  <m_primary>  (32) 
energy

$$$$
32:0
     RDKit          3D

 49 52  0  0  0  0  0  0  0  0999 V2000
   57.9360   31.9640   54.3100 C   0  0  0  0  0  0  0  0  0  0  0  0
   58.3210   32.2250   52.8780 C   0  0  0  0  0  0  0  0  0  0  0  0
   58.9050   33.4560   52.5350 C   0  0  0  0  0  0  0  0  0  0  0  0
   59.2680   33.7270   51.2150 C   0  0  0  0  0  0  0  0  0  0  0  0
   59.0380   32.7820   50.2090 C   0  0  0  0  0  0  0  0  0  0  0  0
   59.4660   33.0670   48.8230 C   0  0  0  0  0  0  0  0  0  0  0  0
   58.5120   33.0770   47.8580 N   0  0  0  0  0  0  0  0  0  0  0  0
   58.7740   33.3440   46.5770 N   0  0  0  0  0  0  0  0  0  0  0  0
   57.6670   33.2770   45.6190 C   0  0  0  0  0  0  0  0  0  0  0  0
   57.3560   31.8450   45.3010 C   0  0  0  0  0  0  0  0  0  0  0  0
   56.4210   31.5770   44.4990 O   0  0  0  0  0  0  0  0  0  0  0  0
   58.1050   30.7960   45.9310 N   0  0  0  0  0  0  0  0  0  0  0  0
   58.0920   29.4280   45.4850 C   0  0  0  0  0  0  0  0  0  0  0  0
   57.7750   29.1050   44.1550 C   0  0  0  0  0  0  0  0  0  0  0  0
   57.7990   27.7760   43.7300 C   0  0  0  0  0  0  0  0  0  0  0  0
   58.1530   26.7760   44.6350 C   0  0  0  0  0  0  0  0  0  0  0  0
   58.4740   27.0990   45.9150 N   0  0  0  0  0  0  0  0  0  0  0  0
   58.4610   28.3860   46.3580 C   0  0  0  0  0  0  0  0  0  0  0  0
   58.8810   28.7000   48.0350 Cl  0  0  0  0  0  0  0  0  0  0  0  0
   60.0520   33.6130   46.1690 C   0  0  0  0  0  0  0  0  0  0  0  0
   60.2930   33.8520   44.9520 O   0  0  0  0  0  0  0  0  0  0  0  0
   61.0990   33.6080   47.1090 C   0  0  0  0  0  0  0  0  0  0  0  0
   62.4290   33.8680   46.7230 C   0  0  0  0  0  0  0  0  0  0  0  0
   63.4590   33.8210   47.6630 C   0  0  0  0  0  0  0  0  0  0  0  0
   63.1790   33.5060   48.9920 C   0  0  0  0  0  0  0  0  0  0  0  0
   61.8670   33.2480   49.3920 C   0  0  0  0  0  0  0  0  0  0  0  0
   60.8070   33.3160   48.4630 C   0  0  0  0  0  0  0  0  0  0  0  0
   58.4730   31.5420   50.5440 C   0  0  0  0  0  0  0  0  0  0  0  0
   58.0940   31.2590   51.8670 C   0  0  0  0  0  0  0  0  0  0  0  0
   57.4830   29.9200   52.1890 C   0  0  0  0  0  0  0  0  0  0  0  0
   58.6587   32.4539   54.9791 H   0  0  0  0  0  0  0  0  0  0  0  0
   56.9300   32.3671   54.4985 H   0  0  0  0  0  0  0  0  0  0  0  0
   57.9380   30.8803   54.4985 H   0  0  0  0  0  0  0  0  0  0  0  0
   59.0777   34.2131   53.3141 H   0  0  0  0  0  0  0  0  0  0  0  0
   59.7378   34.6894   50.9639 H   0  0  0  0  0  0  0  0  0  0  0  0
   56.7776   33.7557   46.0547 H   0  0  0  0  0  0  0  0  0  0  0  0
   57.9544   33.7999   44.6949 H   0  0  0  0  0  0  0  0  0  0  0  0
   58.6730   31.0420   46.7720 H   0  0  0  0  0  0  0  0  0  0  0  0
   57.5070   29.9024   43.4462 H   0  0  0  0  0  0  0  0  0  0  0  0
   57.5413   27.5199   42.6917 H   0  0  0  0  0  0  0  0  0  0  0  0
   58.1724   25.7246   44.3122 H   0  0  0  0  0  0  0  0  0  0  0  0
   62.6566   34.1095   45.6742 H   0  0  0  0  0  0  0  0  0  0  0  0
   64.4936   34.0328   47.3551 H   0  0  0  0  0  0  0  0  0  0  0  0
   63.9952   33.4606   49.7280 H   0  0  0  0  0  0  0  0  0  0  0  0
   61.6574   32.9894   50.4404 H   0  0  0  0  0  0  0  0  0  0  0  0
   58.3251   30.7828   49.7618 H   0  0  0  0  0  0  0  0  0  0  0  0
   57.4263   29.7958   53.2805 H   0  0  0  0  0  0  0  0  0  0  0  0
   56.4712   29.8662   51.7608 H   0  0  0  0  0  0  0  0  0  0  0  0
   58.1054   29.1205   51.7608 H   0  0  0  0  0  0  0  0  0  0  0  0
  1  2  1  0
  2  3  2  0
  3  4  1  0
  4  5  2  0
  5  6  1  0
  6  7  2  0
  7  8  1  0
  8  9  1  0
  9 10  1  0
 10 11  2  0
 10 12  1  0
 12 13  1  0
 13 14  2  0
 14 15  1  0
 15 16  2  0
 16 17  1  0
 17 18  2  0
 18 19  1  0
  8 20  1  0
 20 21  2  0
 20 22  1  0
 22 23  2  0
 23 24  1  0
 24 25  2  0
 25 26  1  0
 26 27  2  0
  5 28  1  0
 28 29  2  0
 29 30  1  0
 29  2  1  0
 27  6  1  0
 18 13  1  0
 27 22  1  0
  1 31  1  0
  1 32  1  0
  1 33  1  0
  3 34  1  0
  4 35  1  0
  9 36  1  0
  9 37  1  0
 12 38  1  0
 14 39  1  0
 15 40  1  0
 16 41  1  0
 23 42  1  0
 24 43  1  0
 25 44  1  0
 26 45  1  0
 28 46  1  0
 30 47  1  0
 30 48  1  0
 30 49  1  0
M  END
>  <UniqueID>  (33) 
30

>  <SMILES>  (33) 
Cc1ccc(-c2nn(CC(=O)Nc3cccnc3Cl)c(=O)c3ccccc23)cc1C

>  <Energy>  (33) 
70.65555184762657

>  <Genealogy>  (33) 
Cc1ccc(-c2nn(CC(=O)Nc3cccnc3Cl)c(=O)c3ccccc23)cc1C (3D coordinates assigned)
Cc1ccc(-c2nn(CC(=O)Nc3cccnc3Cl)c(=O)c3ccccc23)cc1C (optimized conformer: 70.65555184762657 kcal/mol)

>  <smiles>  (33) 
Cc1ccc(-c2nn(CC(=O)Nc3cccnc3Cl)c(=O)c3ccccc23)cc1C

>  <score_type>  (33) 
oracle

>  <origin>  (33) 
adg

>  <m_score__min__energy>  (33) 
-8.6199999999999992

>  <m_primary>  (33) 
energy

$$$$
33:0
     RDKit          3D

 46 48  0  0  0  0  0  0  0  0999 V2000
   57.1080   20.9030   42.8890 C   0  0  0  0  0  0  0  0  0  0  0  0
   55.8980   21.5530   43.2620 O   0  0  0  0  0  0  0  0  0  0  0  0
   55.8350   22.7570   43.9780 C   0  0  0  0  0  0  0  0  0  0  0  0
   56.9890   23.5430   44.0640 C   0  0  0  0  0  0  0  0  0  0  0  0
   56.9710   24.7590   44.7520 C   0  0  0  0  0  0  0  0  0  0  0  0
   55.7960   25.2140   45.3610 C   0  0  0  0  0  0  0  0  0  0  0  0
   55.8260   26.4540   46.0200 O   0  0  0  0  0  0  0  0  0  0  0  0
   56.9730   27.2960   46.1370 C   0  0  0  0  0  0  0  0  0  0  0  0
   56.7200   28.6260   45.4970 C   0  0  0  0  0  0  0  0  0  0  0  0
   57.6340   29.6480   45.3690 C   0  0  0  0  0  0  0  0  0  0  0  0
   56.9330   30.6330   44.7050 C   0  0  0  0  0  0  0  0  0  0  0  0
   57.4800   31.9200   44.2510 C   0  0  0  0  0  0  0  0  0  0  0  0
   57.5740   32.1500   43.0150 O   0  0  0  0  0  0  0  0  0  0  0  0
   57.8660   32.9220   45.2040 N   0  0  0  0  0  0  0  0  0  0  0  0
   57.8610   34.3470   44.8670 C   0  0  0  0  0  0  0  0  0  0  0  0
   59.2620   34.9510   45.0370 C   0  0  0  0  0  0  0  0  0  0  0  0
   59.9100   34.5070   46.3250 C   0  0  0  0  0  0  0  0  0  0  0  0
   61.1500   33.8460   46.3030 C   0  0  0  0  0  0  0  0  0  0  0  0
   61.7180   33.3740   47.4890 C   0  0  0  0  0  0  0  0  0  0  0  0
   61.0530   33.5510   48.7030 C   0  0  0  0  0  0  0  0  0  0  0  0
   59.8170   34.2020   48.7350 C   0  0  0  0  0  0  0  0  0  0  0  0
   59.2440   34.6790   47.5500 C   0  0  0  0  0  0  0  0  0  0  0  0
   55.6750   30.2150   44.4640 N   0  0  0  0  0  0  0  0  0  0  0  0
   55.5430   28.9910   44.9530 N   0  0  0  0  0  0  0  0  0  0  0  0
   54.6360   24.4210   45.2880 C   0  0  0  0  0  0  0  0  0  0  0  0
   54.6560   23.2010   44.6040 C   0  0  0  0  0  0  0  0  0  0  0  0
   57.6592   20.6069   43.7938 H   0  0  0  0  0  0  0  0  0  0  0  0
   56.8750   20.0086   42.2925 H   0  0  0  0  0  0  0  0  0  0  0  0
   57.7250   21.5911   42.2925 H   0  0  0  0  0  0  0  0  0  0  0  0
   57.9187   23.2008   43.5858 H   0  0  0  0  0  0  0  0  0  0  0  0
   57.8878   25.3635   44.8155 H   0  0  0  0  0  0  0  0  0  0  0  0
   57.2040   27.4457   47.2020 H   0  0  0  0  0  0  0  0  0  0  0  0
   57.8199   26.8133   45.6273 H   0  0  0  0  0  0  0  0  0  0  0  0
   58.6779   29.6730   45.7150 H   0  0  0  0  0  0  0  0  0  0  0  0
   57.9210   32.6660   46.2150 H   0  0  0  0  0  0  0  0  0  0  0  0
   57.5395   34.4696   43.8222 H   0  0  0  0  0  0  0  0  0  0  0  0
   57.1676   34.8675   45.5439 H   0  0  0  0  0  0  0  0  0  0  0  0
   59.8919   34.6328   44.1932 H   0  0  0  0  0  0  0  0  0  0  0  0
   59.1617   36.0461   45.0640 H   0  0  0  0  0  0  0  0  0  0  0  0
   61.6757   33.6996   45.3479 H   0  0  0  0  0  0  0  0  0  0  0  0
   62.6912   32.8619   47.4658 H   0  0  0  0  0  0  0  0  0  0  0  0
   61.5021   33.1778   49.6353 H   0  0  0  0  0  0  0  0  0  0  0  0
   59.2935   34.3399   49.6926 H   0  0  0  0  0  0  0  0  0  0  0  0
   58.2701   35.1896   47.5781 H   0  0  0  0  0  0  0  0  0  0  0  0
   53.7086   24.7622   45.7713 H   0  0  0  0  0  0  0  0  0  0  0  0
   53.7454   22.5858   44.5554 H   0  0  0  0  0  0  0  0  0  0  0  0
  1  2  1  0
  2  3  1  0
  3  4  2  0
  4  5  1  0
  5  6  2  0
  6  7  1  0
  7  8  1  0
  8  9  1  0
  9 10  2  0
 10 11  1  0
 11 12  1  0
 12 13  2  0
 12 14  1  0
 14 15  1  0
 15 16  1  0
 16 17  1  0
 17 18  2  0
 18 19  1  0
 19 20  2  0
 20 21  1  0
 21 22  2  0
 11 23  2  0
 23 24  1  0
  6 25  1  0
 25 26  2  0
 26  3  1  0
 24  9  1  0
 22 17  1  0
  1 27  1  0
  1 28  1  0
  1 29  1  0
  4 30  1  0
  5 31  1  0
  8 32  1  0
  8 33  1  0
 10 34  1  0
 14 35  1  0
 15 36  1  0
 15 37  1  0
 16 38  1  0
 16 39  1  0
 18 40  1  0
 19 41  1  0
 20 42  1  0
 21 43  1  0
 22 44  1  0
 25 45  1  0
 26 46  1  0
M  CHG  1  24  -1
M  END
>  <UniqueID>  (34) 
31

>  <SMILES>  (34) 
COc1ccc(OCc2cc(C(=O)NCCc3ccccc3)n[n-]2)cc1

>  <Energy>  (34) 
67.79055339944244

>  <Genealogy>  (34) 
COc1ccc(OCc2cc(C(=O)NCCc3ccccc3)n[n-]2)cc1 (protonated)
COc1ccc(OCc2cc(C(=O)NCCc3ccccc3)n[n-]2)cc1 (3D coordinates assigned)
COc1ccc(OCc2cc(C(=O)NCCc3ccccc3)n[n-]2)cc1 (optimized conformer: 67.79055339944244 kcal/mol)

>  <smiles>  (34) 
COc1ccc(OCc2cc(C(=O)NCCc3ccccc3)n[nH]2)cc1

>  <score_type>  (34) 
oracle

>  <origin>  (34) 
adg

>  <m_score__min__energy>  (34) 
-11.26

>  <m_primary>  (34) 
energy

$$$$
34:0
     RDKit          3D

 54 57  0  0  0  0  0  0  0  0999 V2000
   57.9938   26.8394   44.2565 H   0  0  0  0  0  0  0  0  0  0  0  0
   57.7160   27.0280   45.3040 C   0  0  0  0  0  0  0  0  0  0  0  0
   56.3110   27.3610   45.6210 C   0  0  0  0  0  0  0  0  0  0  0  0
   55.6200   26.5830   46.3330 O   0  0  0  0  0  0  0  0  0  0  0  0
   55.7290   28.6000   45.1940 N   0  0  0  0  0  0  0  0  0  0  0  0
   56.4240   29.6790   44.5540 C   0  0  0  0  0  0  0  0  0  0  0  0
   56.2390   29.8900   43.1840 C   0  0  0  0  0  0  0  0  0  0  0  0
   55.5758   29.2247   42.6117 H   0  0  0  0  0  0  0  0  0  0  0  0
   56.8930   30.9420   42.5400 C   0  0  0  0  0  0  0  0  0  0  0  0
   56.7272   31.1153   41.4665 H   0  0  0  0  0  0  0  0  0  0  0  0
   57.7580   31.7760   43.2550 C   0  0  0  0  0  0  0  0  0  0  0  0
   58.2498   32.6189   42.7475 H   0  0  0  0  0  0  0  0  0  0  0  0
   58.0020   31.5420   44.6200 C   0  0  0  0  0  0  0  0  0  0  0  0
   58.8840   32.3830   45.3860 N   0  0  0  0  0  0  0  0  0  0  0  0
   59.7810   32.6800   44.9390 H   0  0  0  0  0  0  0  0  0  0  0  0
   58.5540   32.9510   46.6660 C   0  0  0  0  0  0  0  0  0  0  0  0
   57.3460   33.1510   46.9660 O   0  0  0  0  0  0  0  0  0  0  0  0
   59.6210   33.3550   47.6170 C   0  0  0  0  0  0  0  0  0  0  0  0
   59.3700   33.4270   49.0000 C   0  0  0  0  0  0  0  0  0  0  0  0
   58.3712   33.1768   49.3870 H   0  0  0  0  0  0  0  0  0  0  0  0
   60.3800   33.8140   49.8860 C   0  0  0  0  0  0  0  0  0  0  0  0
   60.1716   33.8636   50.9649 H   0  0  0  0  0  0  0  0  0  0  0  0
   61.6600   34.1400   49.4060 C   0  0  0  0  0  0  0  0  0  0  0  0
   62.6860   34.5600   50.2630 O   0  0  0  0  0  0  0  0  0  0  0  0
   63.8710   33.8510   50.5120 C   0  0  0  0  0  0  0  0  0  0  0  0
   64.7560   34.2260   51.5400 C   0  0  0  0  0  0  0  0  0  0  0  0
   64.5324   35.1040   52.1638 H   0  0  0  0  0  0  0  0  0  0  0  0
   65.9200   33.4840   51.7700 C   0  0  0  0  0  0  0  0  0  0  0  0
   66.6132   33.7836   52.5698 H   0  0  0  0  0  0  0  0  0  0  0  0
   66.2030   32.3630   50.9850 C   0  0  0  0  0  0  0  0  0  0  0  0
   67.1210   31.7839   51.1634 H   0  0  0  0  0  0  0  0  0  0  0  0
   65.3190   31.9780   49.9730 C   0  0  0  0  0  0  0  0  0  0  0  0
   65.5401   31.0934   49.3576 H   0  0  0  0  0  0  0  0  0  0  0  0
   64.1540   32.7160   49.7420 C   0  0  0  0  0  0  0  0  0  0  0  0
   63.4561   32.4034   48.9513 H   0  0  0  0  0  0  0  0  0  0  0  0
   61.9050   34.0940   48.0310 C   0  0  0  0  0  0  0  0  0  0  0  0
   62.8979   34.3678   47.6446 H   0  0  0  0  0  0  0  0  0  0  0  0
   60.8990   33.7030   47.1420 C   0  0  0  0  0  0  0  0  0  0  0  0
   61.1083   33.6672   46.0627 H   0  0  0  0  0  0  0  0  0  0  0  0
   57.3250   30.4940   45.2630 C   0  0  0  0  0  0  0  0  0  0  0  0
   57.5009   30.3080   46.3328 H   0  0  0  0  0  0  0  0  0  0  0  0
   58.6630   26.9480   46.2490 C   0  0  0  0  0  0  0  0  0  0  0  0
   58.9543   25.9485   46.6041 H   0  0  0  0  0  0  0  0  0  0  0  0
   59.3440   28.1260   46.8470 C   0  0  0  0  0  0  0  0  0  0  0  0
   60.1990   28.8900   46.0340 C   0  0  0  0  0  0  0  0  0  0  0  0
   60.3457   28.6071   44.9812 H   0  0  0  0  0  0  0  0  0  0  0  0
   60.8650   30.0060   46.5500 C   0  0  0  0  0  0  0  0  0  0  0  0
   61.5267   30.5993   45.9018 H   0  0  0  0  0  0  0  0  0  0  0  0
   60.6910   30.3680   47.8870 C   0  0  0  0  0  0  0  0  0  0  0  0
   61.2104   31.2497   48.2905 H   0  0  0  0  0  0  0  0  0  0  0  0
   59.8570   29.6100   48.7120 C   0  0  0  0  0  0  0  0  0  0  0  0
   59.7245   29.8935   49.7665 H   0  0  0  0  0  0  0  0  0  0  0  0
   59.1900   28.4920   48.2020 C   0  0  0  0  0  0  0  0  0  0  0  0
   58.5418   27.8944   48.8598 H   0  0  0  0  0  0  0  0  0  0  0  0
  1  2  1  0
  2  3  1  0
  3  4  2  0
  3  5  1  0
  5  6  1  0
  6  7  2  0
  7  8  1  0
  7  9  1  0
  9 10  1  0
  9 11  2  0
 11 12  1  0
 11 13  1  0
 13 14  1  0
 14 15  1  0
 14 16  1  0
 16 17  2  0
 16 18  1  0
 18 19  2  0
 19 20  1  0
 19 21  1  0
 21 22  1  0
 21 23  2  0
 23 24  1  0
 24 25  1  0
 25 26  2  0
 26 27  1  0
 26 28  1  0
 28 29  1  0
 28 30  2  0
 30 31  1  0
 30 32  1  0
 32 33  1  0
 32 34  2  0
 34 35  1  0
 23 36  1  0
 36 37  1  0
 36 38  2  0
 38 39  1  0
 13 40  2  0
 40 41  1  0
  2 42  2  0
 42 43  1  0
 42 44  1  0
 44 45  2  0
 45 46  1  0
 45 47  1  0
 47 48  1  0
 47 49  2  0
 49 50  1  0
 49 51  1  0
 51 52  1  0
 51 53  2  0
 53 54  1  0
 40  6  1  0
 53 44  1  0
 38 18  1  0
 34 25  1  0
M  CHG  1   5  -1
M  END
>  <UniqueID>  (35) 
32

>  <SMILES>  (35) 
O=C(/C=C/c1ccccc1)[N-]c1cccc(NC(=O)c2ccc(Oc3ccccc3)cc2)c1

>  <Energy>  (35) 
77.27364697772022

>  <Genealogy>  (35) 
O=C(C=Cc1ccccc1)[N-]c1cccc(NC(=O)c2ccc(Oc3ccccc3)cc2)c1 (protonated)
O=C(/C=C/c1ccccc1)[N-]c1cccc(NC(=O)c2ccc(Oc3ccccc3)cc2)c1 (cis-trans isomerization)
O=C(/C=C/c1ccccc1)[N-]c1cccc(NC(=O)c2ccc(Oc3ccccc3)cc2)c1 (3D coordinates assigned)
O=C(/C=C/c1ccccc1)[N-]c1cccc(NC(=O)c2ccc(Oc3ccccc3)cc2)c1 (optimized conformer: 77.27364697772022 kcal/mol)

>  <smiles>  (35) 
O=C(C=Cc1ccccc1)Nc1cccc(NC(=O)c2ccc(Oc3ccccc3)cc2)c1

>  <score_type>  (35) 
oracle

>  <origin>  (35) 
adg

>  <m_score__min__energy>  (35) 
-11.33

>  <m_primary>  (35) 
energy

$$$$
35:0
     RDKit          3D

 46 48  0  0  0  0  0  0  0  0999 V2000
   57.1740   33.4670   46.2930 C   0  0  0  0  0  0  0  0  0  0  0  0
   58.1850   34.1650   45.3830 C   0  0  0  0  0  0  0  0  0  0  0  0
   59.3890   34.7380   46.1520 C   0  0  0  0  0  0  0  0  0  0  0  0
   60.7010   33.9410   45.9980 C   0  0  0  0  0  0  0  0  0  0  0  0
   61.5140   33.7650   47.2950 C   0  0  0  0  0  0  0  0  0  0  0  0
   60.6800   33.2970   48.4970 C   0  0  0  0  0  0  0  0  0  0  0  0
   60.1900   31.9340   48.3010 N   0  0  0  0  0  0  0  0  0  0  0  0
   60.9270   30.8450   48.0220 C   0  0  0  0  0  0  0  0  0  0  0  0
   60.0410   29.7890   47.9660 C   0  0  0  0  0  0  0  0  0  0  0  0
   60.3770   28.3520   47.7140 C   0  0  0  0  0  0  0  0  0  0  0  0
   59.8900   27.9410   46.4390 O   0  0  0  0  0  0  0  0  0  0  0  0
   58.5380   27.9180   46.0500 C   0  0  0  0  0  0  0  0  0  0  0  0
   57.6710   26.8730   46.4150 C   0  0  0  0  0  0  0  0  0  0  0  0
   56.3390   26.9080   45.9940 C   0  0  0  0  0  0  0  0  0  0  0  0
   55.5550   25.9770   46.3130 O   0  0  0  0  0  0  0  0  0  0  0  0
   55.8910   27.9190   45.2560 O   0  0  0  0  0  0  0  0  0  0  0  0
   56.6660   28.9330   44.8860 C   0  0  0  0  0  0  0  0  0  0  0  0
   56.1300   29.9670   44.1090 C   0  0  0  0  0  0  0  0  0  0  0  0
   56.9360   31.0380   43.7150 C   0  0  0  0  0  0  0  0  0  0  0  0
   58.2820   31.0810   44.0910 C   0  0  0  0  0  0  0  0  0  0  0  0
   58.8290   30.0540   44.8670 C   0  0  0  0  0  0  0  0  0  0  0  0
   58.0270   28.9720   45.2720 C   0  0  0  0  0  0  0  0  0  0  0  0
   58.7990   30.2500   48.2230 N   0  0  0  0  0  0  0  0  0  0  0  0
   58.9280   31.5530   48.4190 N   0  0  0  0  0  0  0  0  0  0  0  0
   57.4395   33.6503   47.3446 H   0  0  0  0  0  0  0  0  0  0  0  0
   56.1673   33.8633   46.0946 H   0  0  0  0  0  0  0  0  0  0  0  0
   57.1878   32.3851   46.0946 H   0  0  0  0  0  0  0  0  0  0  0  0
   58.5540   33.4372   44.6454 H   0  0  0  0  0  0  0  0  0  0  0  0
   57.6685   35.0092   44.9029 H   0  0  0  0  0  0  0  0  0  0  0  0
   59.5677   35.7620   45.7921 H   0  0  0  0  0  0  0  0  0  0  0  0
   59.1236   34.6896   47.2184 H   0  0  0  0  0  0  0  0  0  0  0  0
   60.4495   32.9410   45.6150 H   0  0  0  0  0  0  0  0  0  0  0  0
   61.3358   34.5244   45.3149 H   0  0  0  0  0  0  0  0  0  0  0  0
   62.3026   33.0207   47.1105 H   0  0  0  0  0  0  0  0  0  0  0  0
   61.9177   34.7549   47.5541 H   0  0  0  0  0  0  0  0  0  0  0  0
   61.3055   33.3270   49.4013 H   0  0  0  0  0  0  0  0  0  0  0  0
   59.8140   33.9670   48.6024 H   0  0  0  0  0  0  0  0  0  0  0  0
   62.0156   30.8041   47.8693 H   0  0  0  0  0  0  0  0  0  0  0  0
   61.4693   28.2255   47.7421 H   0  0  0  0  0  0  0  0  0  0  0  0
   59.9033   27.7346   48.4914 H   0  0  0  0  0  0  0  0  0  0  0  0
   58.0379   26.0354   47.0265 H   0  0  0  0  0  0  0  0  0  0  0  0
   55.0724   29.9361   43.8082 H   0  0  0  0  0  0  0  0  0  0  0  0
   56.5103   31.8499   43.1071 H   0  0  0  0  0  0  0  0  0  0  0  0
   58.9127   31.9252   43.7755 H   0  0  0  0  0  0  0  0  0  0  0  0
   59.8883   30.0926   45.1610 H   0  0  0  0  0  0  0  0  0  0  0  0
   58.1310   32.1900   48.6430 H   0  0  0  0  0  0  0  0  0  0  0  0
  1  2  1  0
  2  3  1  0
  3  4  1  0
  4  5  1  0
  5  6  1  0
  6  7  1  0
  7  8  1  0
  8  9  2  0
  9 10  1  0
 10 11  1  0
 11 12  1  0
 12 13  2  0
 13 14  1  0
 14 15  2  0
 14 16  1  0
 16 17  1  0
 17 18  2  0
 18 19  1  0
 19 20  2  0
 20 21  1  0
 21 22  2  0
  9 23  1  0
 23 24  2  0
 24  7  1  0
 22 12  1  0
 22 17  1  0
  1 25  1  0
  1 26  1  0
  1 27  1  0
  2 28  1  0
  2 29  1  0
  3 30  1  0
  3 31  1  0
  4 32  1  0
  4 33  1  0
  5 34  1  0
  5 35  1  0
  6 36  1  0
  6 37  1  0
  8 38  1  0
 10 39  1  0
 10 40  1  0
 13 41  1  0
 18 42  1  0
 19 43  1  0
 20 44  1  0
 21 45  1  0
 24 46  1  0
M  CHG  1  24   1
M  END
>  <UniqueID>  (36) 
33

>  <SMILES>  (36) 
CCCCCCn1cc(COc2cc(=O)oc3ccccc23)n[nH+]1

>  <Energy>  (36) 
77.73270076881813

>  <Genealogy>  (36) 
CCCCCCn1cc(COc2cc(=O)oc3ccccc23)n[nH+]1 (protonated)
CCCCCCn1cc(COc2cc(=O)oc3ccccc23)n[nH+]1 (3D coordinates assigned)
CCCCCCn1cc(COc2cc(=O)oc3ccccc23)n[nH+]1 (optimized conformer: 77.73270076881813 kcal/mol)

>  <smiles>  (36) 
CCCCCCn1cc(COc2cc(=O)oc3ccccc23)nn1

>  <score_type>  (36) 
oracle

>  <origin>  (36) 
adg

>  <m_score__min__energy>  (36) 
-6.21

>  <m_primary>  (36) 
energy

$$$$
36:0
     RDKit          3D

 41 43  0  0  0  0  0  0  0  0999 V2000
   57.3510   31.2960   43.0560 C   0  0  0  0  0  0  0  0  0  0  0  0
   56.2840   30.3030   43.5050 C   0  0  0  0  0  0  0  0  0  0  0  0
   56.4010   30.0330   44.9010 O   0  0  0  0  0  0  0  0  0  0  0  0
   57.2670   29.0980   45.4940 C   0  0  0  0  0  0  0  0  0  0  0  0
   56.9570   27.7220   45.5500 C   0  0  0  0  0  0  0  0  0  0  0  0
   57.8110   26.8310   46.2030 C   0  0  0  0  0  0  0  0  0  0  0  0
   58.9770   27.2950   46.8110 C   0  0  0  0  0  0  0  0  0  0  0  0
   59.3040   28.6500   46.7510 C   0  0  0  0  0  0  0  0  0  0  0  0
   58.4750   29.5510   46.0700 C   0  0  0  0  0  0  0  0  0  0  0  0
   58.8520   30.9350   46.0430 N   0  0  0  0  0  0  0  0  0  0  0  0
   58.9990   31.7750   47.1940 C   0  0  0  0  0  0  0  0  0  0  0  0
   58.9560   31.2700   48.3490 O   0  0  0  0  0  0  0  0  0  0  0  0
   59.1670   33.2330   47.0330 C   0  0  0  0  0  0  0  0  0  0  0  0
   60.1420   34.0480   47.5880 C   0  0  0  0  0  0  0  0  0  0  0  0
   61.2180   33.6460   48.5130 C   0  0  0  0  0  0  0  0  0  0  0  0
   60.9210   33.3610   49.8620 C   0  0  0  0  0  0  0  0  0  0  0  0
   59.2820   33.5000   50.4920 Cl  0  0  0  0  0  0  0  0  0  0  0  0
   61.9440   32.9820   50.7380 C   0  0  0  0  0  0  0  0  0  0  0  0
   63.2590   32.8790   50.2820 C   0  0  0  0  0  0  0  0  0  0  0  0
   63.5600   33.1530   48.9460 C   0  0  0  0  0  0  0  0  0  0  0  0
   62.5480   33.5330   48.0570 C   0  0  0  0  0  0  0  0  0  0  0  0
   62.9760   33.8370   46.3780 Cl  0  0  0  0  0  0  0  0  0  0  0  0
   59.9870   35.3080   47.1400 N   0  0  0  0  0  0  0  0  0  0  0  0
   58.9590   35.3050   46.3410 O   0  0  0  0  0  0  0  0  0  0  0  0
   58.4360   34.1050   46.2400 C   0  0  0  0  0  0  0  0  0  0  0  0
   57.2540   33.7870   45.3830 C   0  0  0  0  0  0  0  0  0  0  0  0
   57.8310   31.7427   43.9392 H   0  0  0  0  0  0  0  0  0  0  0  0
   58.1076   30.7733   42.4525 H   0  0  0  0  0  0  0  0  0  0  0  0
   56.8839   32.0882   42.4525 H   0  0  0  0  0  0  0  0  0  0  0  0
   55.2890   30.7255   43.3012 H   0  0  0  0  0  0  0  0  0  0  0  0
   56.4206   29.3628   42.9506 H   0  0  0  0  0  0  0  0  0  0  0  0
   56.0369   27.3493   45.0762 H   0  0  0  0  0  0  0  0  0  0  0  0
   57.5633   25.7598   46.2379 H   0  0  0  0  0  0  0  0  0  0  0  0
   59.6392   26.5924   47.3381 H   0  0  0  0  0  0  0  0  0  0  0  0
   60.2190   29.0134   47.2417 H   0  0  0  0  0  0  0  0  0  0  0  0
   61.7108   32.7643   51.7907 H   0  0  0  0  0  0  0  0  0  0  0  0
   64.0593   32.5817   50.9756 H   0  0  0  0  0  0  0  0  0  0  0  0
   64.5977   33.0697   48.5907 H   0  0  0  0  0  0  0  0  0  0  0  0
   56.3896   33.5544   46.0223 H   0  0  0  0  0  0  0  0  0  0  0  0
   57.0178   34.6535   44.7479 H   0  0  0  0  0  0  0  0  0  0  0  0
   57.4845   32.9189   44.7479 H   0  0  0  0  0  0  0  0  0  0  0  0
  1  2  1  0
  2  3  1  0
  3  4  1  0
  4  5  2  0
  5  6  1  0
  6  7  2  0
  7  8  1  0
  8  9  2  0
  9 10  1  0
 10 11  1  0
 11 12  2  0
 11 13  1  0
 13 14  1  0
 14 15  1  0
 15 16  2  0
 16 17  1  0
 16 18  1  0
 18 19  2  0
 19 20  1  0
 20 21  2  0
 21 22  1  0
 14 23  2  0
 23 24  1  0
 24 25  1  0
 25 26  1  0
  9  4  1  0
 25 13  2  0
 21 15  1  0
  1 27  1  0
  1 28  1  0
  1 29  1  0
  2 30  1  0
  2 31  1  0
  5 32  1  0
  6 33  1  0
  7 34  1  0
  8 35  1  0
 18 36  1  0
 19 37  1  0
 20 38  1  0
 26 39  1  0
 26 40  1  0
 26 41  1  0
M  CHG  1  10  -1
M  END
>  <UniqueID>  (37) 
34

>  <SMILES>  (37) 
CCOc1ccccc1[N-]C(=O)c1c(-c2c(Cl)cccc2Cl)noc1C

>  <Energy>  (37) 
85.28637804899073

>  <Genealogy>  (37) 
CCOc1ccccc1[N-]C(=O)c1c(-c2c(Cl)cccc2Cl)noc1C (protonated)
CCOc1ccccc1[N-]C(=O)c1c(-c2c(Cl)cccc2Cl)noc1C (3D coordinates assigned)
CCOc1ccccc1[N-]C(=O)c1c(-c2c(Cl)cccc2Cl)noc1C (optimized conformer: 85.28637804899073 kcal/mol)

>  <smiles>  (37) 
CCOc1ccccc1NC(=O)c1c(-c2c(Cl)cccc2Cl)noc1C

>  <score_type>  (37) 
oracle

>  <origin>  (37) 
adg

>  <m_score__min__energy>  (37) 
-10.859999999999999

>  <m_primary>  (37) 
energy

$$$$
37:0
     RDKit          3D

 42 44  0  0  0  0  0  0  0  0999 V2000
   62.1450   33.9260   48.5670 C   0  0  0  0  0  0  0  0  0  0  0  0
   60.4710   34.1010   49.2600 S   0  0  0  0  0  0  0  0  0  0  0  0
   60.0260   32.3950   48.9280 C   0  0  0  0  0  0  0  0  0  0  0  0
   58.9190   31.8220   49.5650 C   0  0  0  0  0  0  0  0  0  0  0  0
   58.5740   30.4920   49.3120 C   0  0  0  0  0  0  0  0  0  0  0  0
   59.3350   29.7210   48.4170 C   0  0  0  0  0  0  0  0  0  0  0  0
   58.9870   28.2810   48.1570 C   0  0  0  0  0  0  0  0  0  0  0  0
   59.5550   27.8440   46.8870 N   0  0  0  0  0  0  0  0  0  0  0  0
   59.1640   26.6410   46.2160 C   0  0  0  0  0  0  0  0  0  0  0  0
   60.0320   25.9220   45.6530 O   0  0  0  0  0  0  0  0  0  0  0  0
   57.7340   26.2870   46.1540 C   0  0  0  0  0  0  0  0  0  0  0  0
   57.2850   25.0610   46.4840 N   0  0  0  0  0  0  0  0  0  0  0  0
   55.9450   25.1560   46.3810 C   0  0  0  0  0  0  0  0  0  0  0  0
   55.5180   26.3770   46.0020 N   0  0  0  0  0  0  0  0  0  0  0  0
   56.6450   27.0950   45.8500 C   0  0  0  0  0  0  0  0  0  0  0  0
   56.6380   28.4930   45.3720 C   0  0  0  0  0  0  0  0  0  0  0  0
   55.5770   28.9970   44.9170 O   0  0  0  0  0  0  0  0  0  0  0  0
   57.8170   29.3030   45.5090 N   0  0  0  0  0  0  0  0  0  0  0  0
   57.9900   30.5830   44.8760 C   0  0  0  0  0  0  0  0  0  0  0  0
   57.6980   30.7210   43.5100 C   0  0  0  0  0  0  0  0  0  0  0  0
   57.8390   31.9590   42.8790 C   0  0  0  0  0  0  0  0  0  0  0  0
   58.2570   33.0750   43.6080 C   0  0  0  0  0  0  0  0  0  0  0  0
   58.5290   32.9550   44.9740 C   0  0  0  0  0  0  0  0  0  0  0  0
   59.0300   34.3630   45.8940 Cl  0  0  0  0  0  0  0  0  0  0  0  0
   58.3910   31.7160   45.6100 C   0  0  0  0  0  0  0  0  0  0  0  0
   60.4510   30.2980   47.7880 C   0  0  0  0  0  0  0  0  0  0  0  0
   60.7940   31.6290   48.0430 C   0  0  0  0  0  0  0  0  0  0  0  0
   62.8749   33.8497   49.3864 H   0  0  0  0  0  0  0  0  0  0  0  0
   62.1925   33.0180   47.9479 H   0  0  0  0  0  0  0  0  0  0  0  0
   62.3792   34.8045   47.9479 H   0  0  0  0  0  0  0  0  0  0  0  0
   58.3192   32.4204   50.2665 H   0  0  0  0  0  0  0  0  0  0  0  0
   57.7032   30.0466   49.8154 H   0  0  0  0  0  0  0  0  0  0  0  0
   59.3908   27.6579   48.9686 H   0  0  0  0  0  0  0  0  0  0  0  0
   57.8925   28.1799   48.1130 H   0  0  0  0  0  0  0  0  0  0  0  0
   55.2641   24.3169   46.5867 H   0  0  0  0  0  0  0  0  0  0  0  0
   58.5670   28.9780   46.1610 H   0  0  0  0  0  0  0  0  0  0  0  0
   57.3561   29.8490   42.9331 H   0  0  0  0  0  0  0  0  0  0  0  0
   57.6204   32.0555   41.8053 H   0  0  0  0  0  0  0  0  0  0  0  0
   58.3721   34.0477   43.1074 H   0  0  0  0  0  0  0  0  0  0  0  0
   58.5965   31.6268   46.6870 H   0  0  0  0  0  0  0  0  0  0  0  0
   61.0574   29.6999   47.0919 H   0  0  0  0  0  0  0  0  0  0  0  0
   61.6688   32.0752   47.5474 H   0  0  0  0  0  0  0  0  0  0  0  0
  1  2  1  0
  2  3  1  0
  3  4  2  0
  4  5  1  0
  5  6  2  0
  6  7  1  0
  7  8  1  0
  8  9  1  0
  9 10  2  0
  9 11  1  0
 11 12  1  0
 12 13  1  0
 13 14  2  0
 14 15  1  0
 15 16  1  0
 16 17  2  0
 16 18  1  0
 18 19  1  0
 19 20  2  0
 20 21  1  0
 21 22  2  0
 22 23  1  0
 23 24  1  0
 23 25  2  0
  6 26  1  0
 26 27  2  0
 27  3  1  0
 15 11  2  0
 25 19  1  0
  1 28  1  0
  1 29  1  0
  1 30  1  0
  4 31  1  0
  5 32  1  0
  7 33  1  0
  7 34  1  0
 13 35  1  0
 18 36  1  0
 20 37  1  0
 21 38  1  0
 22 39  1  0
 25 40  1  0
 26 41  1  0
 27 42  1  0
M  CHG  2   8  -1  12  -1
M  END
>  <UniqueID>  (38) 
35

>  <SMILES>  (38) 
CSc1ccc(C[N-]C(=O)c2[n-]cnc2C(=O)Nc2cccc(Cl)c2)cc1

>  <Energy>  (38) 
71.9088656962556

>  <Genealogy>  (38) 
CSc1ccc(C[N-]C(=O)c2[n-]cnc2C(=O)Nc2cccc(Cl)c2)cc1 (protonated)
CSc1ccc(C[N-]C(=O)c2[n-]cnc2C(=O)Nc2cccc(Cl)c2)cc1 (3D coordinates assigned)
CSc1ccc(C[N-]C(=O)c2[n-]cnc2C(=O)Nc2cccc(Cl)c2)cc1 (optimized conformer: 71.9088656962556 kcal/mol)

>  <smiles>  (38) 
CSc1ccc(CNC(=O)c2[nH]cnc2C(=O)Nc2cccc(Cl)c2)cc1

>  <score_type>  (38) 
oracle

>  <origin>  (38) 
adg

>  <m_score__min__energy>  (38) 
-10.869999999999999

>  <m_primary>  (38) 
energy

$$$$
38:0
     RDKit          3D

 62 63  0  0  0  0  0  0  0  0999 V2000
   63.3890   33.8490   46.2140 C   0  0  0  0  0  0  0  0  0  0  0  0
   63.2360   33.1040   47.5180 C   0  0  0  0  0  0  0  0  0  0  0  0
   62.9340   31.6280   47.4980 C   0  0  0  0  0  0  0  0  0  0  0  0
   63.3720   33.7190   48.7140 C   0  0  0  0  0  0  0  0  0  0  0  0
   62.3980   33.5890   49.8600 C   0  0  0  0  0  0  0  0  0  0  0  0
   61.0280   34.2170   49.5460 C   0  0  0  0  0  0  0  0  0  0  0  0
   59.8570   33.3060   49.8930 C   0  0  0  0  0  0  0  0  0  0  0  0
   59.2400   33.4050   51.2670 C   0  0  0  0  0  0  0  0  0  0  0  0
   59.3990   32.3300   49.0730 C   0  0  0  0  0  0  0  0  0  0  0  0
   58.1840   32.4220   48.1800 C   0  0  0  0  0  0  0  0  0  0  0  0
   58.1570   33.6960   47.3100 C   0  0  0  0  0  0  0  0  0  0  0  0
   58.8200   33.6100   45.9010 C   0  0  2  0  0  0  0  0  0  0  0  0
   59.6600   34.8640   45.6050 C   0  0  0  0  0  0  0  0  0  0  0  0
   57.8000   33.3930   44.7550 C   0  0  0  0  0  0  0  0  0  0  0  0
   57.0650   32.0510   44.8850 C   0  0  0  0  0  0  0  0  0  0  0  0
   57.9980   30.9040   45.2110 C   0  0  0  0  0  0  0  0  0  0  0  0
   59.2910   31.1770   45.7080 C   0  0  0  0  0  0  0  0  0  0  0  0
   60.1700   30.1340   45.9950 C   0  0  0  0  0  0  0  0  0  0  0  0
   59.7740   28.8100   45.8160 C   0  0  0  0  0  0  0  0  0  0  0  0
   58.4840   28.5110   45.3510 C   0  0  0  0  0  0  0  0  0  0  0  0
   58.0860   27.0920   45.1830 C   0  0  0  0  0  0  0  0  0  0  0  0
   58.1210   26.4850   43.8030 C   0  0  0  0  0  0  0  0  0  0  0  0
   57.6560   26.3960   46.2540 C   0  0  0  0  0  0  0  0  0  0  0  0
   56.2600   25.9670   46.4460 C   0  0  0  0  0  0  0  0  0  0  0  0
   55.3240   26.6580   45.9640 O   0  0  0  0  0  0  0  0  0  0  0  0
   57.5820   29.5580   45.0690 C   0  0  0  0  0  0  0  0  0  0  0  0
   56.2790   29.2360   44.6760 O   0  0  0  0  0  0  0  0  0  0  0  0
   59.7150   32.4950   45.9130 O   0  0  0  0  0  0  0  0  0  0  0  0
   63.6064   34.9075   46.4198 H   0  0  0  0  0  0  0  0  0  0  0  0
   64.2158   33.4105   45.6360 H   0  0  0  0  0  0  0  0  0  0  0  0
   62.4563   33.7719   45.6360 H   0  0  0  0  0  0  0  0  0  0  0  0
   62.8577   31.2553   48.5301 H   0  0  0  0  0  0  0  0  0  0  0  0
   61.9820   31.4556   46.9746 H   0  0  0  0  0  0  0  0  0  0  0  0
   63.7418   31.0955   46.9746 H   0  0  0  0  0  0  0  0  0  0  0  0
   64.2542   34.3590   48.8626 H   0  0  0  0  0  0  0  0  0  0  0  0
   62.2539   32.5210   50.0806 H   0  0  0  0  0  0  0  0  0  0  0  0
   62.8220   34.1271   50.7206 H   0  0  0  0  0  0  0  0  0  0  0  0
   60.9296   35.1482   50.1232 H   0  0  0  0  0  0  0  0  0  0  0  0
   60.9918   34.3976   48.4615 H   0  0  0  0  0  0  0  0  0  0  0  0
   60.0222   33.2795   52.0301 H   0  0  0  0  0  0  0  0  0  0  0  0
   58.7664   34.3906   51.3861 H   0  0  0  0  0  0  0  0  0  0  0  0
   58.4818   32.6170   51.3861 H   0  0  0  0  0  0  0  0  0  0  0  0
   59.9625   31.3854   49.0558 H   0  0  0  0  0  0  0  0  0  0  0  0
   58.1729   31.5457   47.5152 H   0  0  0  0  0  0  0  0  0  0  0  0
   57.3015   32.4582   48.8357 H   0  0  0  0  0  0  0  0  0  0  0  0
   57.1030   33.9746   47.1635 H   0  0  0  0  0  0  0  0  0  0  0  0
   58.7605   34.4306   47.8634 H   0  0  0  0  0  0  0  0  0  0  0  0
   59.9713   35.3288   46.5521 H   0  0  0  0  0  0  0  0  0  0  0  0
   60.5509   34.5802   45.0256 H   0  0  0  0  0  0  0  0  0  0  0  0
   59.0585   35.5799   45.0256 H   0  0  0  0  0  0  0  0  0  0  0  0
   57.0603   34.2068   44.7792 H   0  0  0  0  0  0  0  0  0  0  0  0
   58.3535   33.3864   43.8044 H   0  0  0  0  0  0  0  0  0  0  0  0
   56.3171   32.1354   45.6872 H   0  0  0  0  0  0  0  0  0  0  0  0
   56.5964   31.8329   43.9140 H   0  0  0  0  0  0  0  0  0  0  0  0
   61.1817   30.3572   46.3648 H   0  0  0  0  0  0  0  0  0  0  0  0
   60.4768   27.9941   46.0406 H   0  0  0  0  0  0  0  0  0  0  0  0
   58.1841   25.3899   43.8856 H   0  0  0  0  0  0  0  0  0  0  0  0
   57.2055   26.7595   43.2584 H   0  0  0  0  0  0  0  0  0  0  0  0
   58.9988   26.8629   43.2584 H   0  0  0  0  0  0  0  0  0  0  0  0
   58.3902   26.1330   47.0298 H   0  0  0  0  0  0  0  0  0  0  0  0
   56.0363   25.0479   47.0074 H   0  0  0  0  0  0  0  0  0  0  0  0
   55.9570   28.2880   44.5340 H   0  0  0  0  0  0  0  0  0  0  0  0
  1  2  1  0
  2  3  1  0
  2  4  2  3
  4  5  1  0
  5  6  1  0
  6  7  1  0
  7  8  1  0
  7  9  2  3
  9 10  1  0
 10 11  1  0
 12 11  1  1
 12 13  1  0
 12 14  1  0
 14 15  1  0
 15 16  1  0
 16 17  2  0
 17 18  1  0
 18 19  2  0
 19 20  1  0
 20 21  1  0
 21 22  1  0
 21 23  2  3
 23 24  1  0
 24 25  2  0
 20 26  2  0
 26 27  1  0
 17 28  1  0
 28 12  1  0
 26 16  1  0
  1 29  1  0
  1 30  1  0
  1 31  1  0
  3 32  1  0
  3 33  1  0
  3 34  1  0
  4 35  1  0
  5 36  1  0
  5 37  1  0
  6 38  1  0
  6 39  1  0
  8 40  1  0
  8 41  1  0
  8 42  1  0
  9 43  1  0
 10 44  1  0
 10 45  1  0
 11 46  1  0
 11 47  1  0
 13 48  1  0
 13 49  1  0
 13 50  1  0
 14 51  1  0
 14 52  1  0
 15 53  1  0
 15 54  1  0
 18 55  1  0
 19 56  1  0
 22 57  1  0
 22 58  1  0
 22 59  1  0
 23 60  1  0
 24 61  1  0
 27 62  1  0
M  END
>  <UniqueID>  (39) 
36

>  <SMILES>  (39) 
CC(C)=CCCC(C)=CCC[C@]1(C)CCc2c(ccc(C(C)=CC=O)c2O)O1

>  <Energy>  (39) 
57.49563446600036

>  <Genealogy>  (39) 
CC(C)=CCCC(C)=CCC[C@]1(C)CCc2c(ccc(C(C)=CC=O)c2O)O1 (chirality)
CC(C)=CCCC(C)=CCC[C@]1(C)CCc2c(ccc(C(C)=CC=O)c2O)O1 (3D coordinates assigned)
CC(C)=CCCC(C)=CCC[C@]1(C)CCc2c(ccc(C(C)=CC=O)c2O)O1 (nonaromatic ring conformer: 57.49563446600036 kcal/mol)

>  <smiles>  (39) 
CC(C)=CCCC(C)=CCCC1(C)CCc2c(ccc(C(C)=CC=O)c2O)O1

>  <score_type>  (39) 
oracle

>  <origin>  (39) 
adg

>  <m_score__min__energy>  (39) 
-9.8200000000000003

>  <m_primary>  (39) 
energy

$$$$
39:0
     RDKit          3D

 46 49  0  0  0  0  0  0  0  0999 V2000
   56.6430   31.2290   41.8610 O   0  0  0  0  0  0  0  0  0  0  0  0
   56.8950   30.8060   43.0230 C   0  0  0  0  0  0  0  0  0  0  0  0
   56.4920   29.4840   43.3980 N   0  0  0  0  0  0  0  0  0  0  0  0
   57.3980   28.3440   43.3820 C   0  0  0  0  0  0  0  0  0  0  0  0
   58.1340   28.2790   44.6880 C   0  0  0  0  0  0  0  0  0  0  0  0
   59.5110   28.5560   44.7440 C   0  0  0  0  0  0  0  0  0  0  0  0
   60.2000   28.4630   45.9580 C   0  0  0  0  0  0  0  0  0  0  0  0
   59.5230   28.0790   47.1210 C   0  0  0  0  0  0  0  0  0  0  0  0
   60.3890   27.9630   48.6430 Cl  0  0  0  0  0  0  0  0  0  0  0  0
   58.1570   27.7850   47.0680 C   0  0  0  0  0  0  0  0  0  0  0  0
   57.4650   27.8790   45.8560 C   0  0  0  0  0  0  0  0  0  0  0  0
   57.6020   31.6720   43.9940 C   0  0  0  0  0  0  0  0  0  0  0  0
   58.1180   32.9190   43.5950 C   0  0  0  0  0  0  0  0  0  0  0  0
   58.7830   33.7410   44.5110 C   0  0  0  0  0  0  0  0  0  0  0  0
   58.9420   33.3300   45.8460 C   0  0  0  0  0  0  0  0  0  0  0  0
   59.5930   34.1240   46.8060 C   0  0  0  0  0  0  0  0  0  0  0  0
   60.0560   35.2490   46.4640 O   0  0  0  0  0  0  0  0  0  0  0  0
   59.7220   33.6850   48.1050 N   0  0  0  0  0  0  0  0  0  0  0  0
   60.3800   34.5520   49.1110 C   0  0  0  0  0  0  0  0  0  0  0  0
   61.8230   34.1530   49.3050 C   0  0  0  0  0  0  0  0  0  0  0  0
   62.4100   34.2120   50.5800 C   0  0  0  0  0  0  0  0  0  0  0  0
   63.7460   33.8380   50.7600 C   0  0  0  0  0  0  0  0  0  0  0  0
   64.5060   33.4060   49.6700 C   0  0  0  0  0  0  0  0  0  0  0  0
   65.7980   33.0380   49.8470 F   0  0  0  0  0  0  0  0  0  0  0  0
   63.9340   33.3540   48.3960 C   0  0  0  0  0  0  0  0  0  0  0  0
   62.5990   33.7280   48.2120 C   0  0  0  0  0  0  0  0  0  0  0  0
   59.2070   32.4530   48.4550 C   0  0  0  0  0  0  0  0  0  0  0  0
   59.3200   31.8520   49.9820 S   0  0  0  0  0  0  0  0  0  0  0  0
   58.5790   31.6850   47.5300 N   0  0  0  0  0  0  0  0  0  0  0  0
   58.4330   32.0860   46.2470 C   0  0  0  0  0  0  0  0  0  0  0  0
   57.7700   31.2630   45.3290 C   0  0  0  0  0  0  0  0  0  0  0  0
   56.8216   27.4182   43.2383 H   0  0  0  0  0  0  0  0  0  0  0  0
   58.1178   28.4561   42.5578 H   0  0  0  0  0  0  0  0  0  0  0  0
   60.0489   28.8470   43.8297 H   0  0  0  0  0  0  0  0  0  0  0  0
   61.2751   28.6920   45.9984 H   0  0  0  0  0  0  0  0  0  0  0  0
   57.6255   27.4792   47.9812 H   0  0  0  0  0  0  0  0  0  0  0  0
   56.3923   27.6386   45.8177 H   0  0  0  0  0  0  0  0  0  0  0  0
   57.9973   33.2505   42.5531 H   0  0  0  0  0  0  0  0  0  0  0  0
   59.1830   34.7126   44.1855 H   0  0  0  0  0  0  0  0  0  0  0  0
   60.3381   35.5966   48.7687 H   0  0  0  0  0  0  0  0  0  0  0  0
   59.8526   34.4403   50.0699 H   0  0  0  0  0  0  0  0  0  0  0  0
   61.8164   34.5538   51.4407 H   0  0  0  0  0  0  0  0  0  0  0  0
   64.1989   33.8841   51.7614 H   0  0  0  0  0  0  0  0  0  0  0  0
   64.5342   33.0187   47.5373 H   0  0  0  0  0  0  0  0  0  0  0  0
   62.1536   33.6895   47.2069 H   0  0  0  0  0  0  0  0  0  0  0  0
   57.3772   30.2884   45.6545 H   0  0  0  0  0  0  0  0  0  0  0  0
  1  2  2  0
  2  3  1  0
  3  4  1  0
  4  5  1  0
  5  6  2  0
  6  7  1  0
  7  8  2  0
  8  9  1  0
  8 10  1  0
 10 11  2  0
  2 12  1  0
 12 13  2  0
 13 14  1  0
 14 15  2  0
 15 16  1  0
 16 17  2  0
 16 18  1  0
 18 19  1  0
 19 20  1  0
 20 21  2  0
 21 22  1  0
 22 23  2  0
 23 24  1  0
 23 25  1  0
 25 26  2  0
 18 27  1  0
 27 28  2  0
 27 29  1  0
 29 30  1  0
 30 31  2  0
 11  5  1  0
 31 12  1  0
 30 15  1  0
 26 20  1  0
  4 32  1  0
  4 33  1  0
  6 34  1  0
  7 35  1  0
 10 36  1  0
 11 37  1  0
 13 38  1  0
 14 39  1  0
 19 40  1  0
 19 41  1  0
 21 42  1  0
 22 43  1  0
 25 44  1  0
 26 45  1  0
 31 46  1  0
M  CHG  2   3  -1  29  -1
M  END
>  <UniqueID>  (40) 
37

>  <SMILES>  (40) 
O=C([N-]Cc1ccc(Cl)cc1)c1ccc2c(=O)n(Cc3ccc(F)cc3)c(=S)[n-]c2c1

>  <Energy>  (40) 
59.04607425687594

>  <Genealogy>  (40) 
O=C([N-]Cc1ccc(Cl)cc1)c1ccc2c(=O)n(Cc3ccc(F)cc3)c(=S)[n-]c2c1 (protonated)
O=C([N-]Cc1ccc(Cl)cc1)c1ccc2c(=O)n(Cc3ccc(F)cc3)c(=S)[n-]c2c1 (3D coordinates assigned)
O=C([N-]Cc1ccc(Cl)cc1)c1ccc2c(=O)n(Cc3ccc(F)cc3)c(=S)[n-]c2c1 (optimized conformer: 59.04607425687594 kcal/mol)

>  <smiles>  (40) 
O=C(NCc1ccc(Cl)cc1)c1ccc2c(=O)n(Cc3ccc(F)cc3)c(=S)[nH]c2c1

>  <score_type>  (40) 
oracle

>  <origin>  (40) 
adg

>  <m_score__min__energy>  (40) 
-11.949999999999999

>  <m_primary>  (40) 
energy

$$$$
40:0
     RDKit          3D

 36 38  0  0  0  0  0  0  0  0999 V2000
   58.1830   32.3520   41.2030 C   0  0  0  0  0  0  0  0  0  0  0  0
   57.2990   32.2650   42.3160 O   0  0  0  0  0  0  0  0  0  0  0  0
   57.7020   32.3060   43.6610 C   0  0  0  0  0  0  0  0  0  0  0  0
   58.3680   33.4250   44.2000 C   0  0  0  0  0  0  0  0  0  0  0  0
   58.7380   33.4480   45.5480 C   0  0  0  0  0  0  0  0  0  0  0  0
   59.6360   34.9740   46.2660 Br  0  0  0  0  0  0  0  0  0  0  0  0
   58.4420   32.3620   46.3720 C   0  0  0  0  0  0  0  0  0  0  0  0
   57.7860   31.2470   45.8490 C   0  0  0  0  0  0  0  0  0  0  0  0
   57.4260   31.2020   44.4940 C   0  0  0  0  0  0  0  0  0  0  0  0
   56.5870   29.7780   43.8710 S   0  0  0  0  0  0  0  0  0  0  0  0
   55.9180   30.0900   42.5630 O   0  0  0  0  0  0  0  0  0  0  0  0
   55.5530   29.3600   44.8800 O   0  0  0  0  0  0  0  0  0  0  0  0
   57.7220   28.4910   43.6140 N   0  0  0  0  0  0  0  0  0  0  0  0
   58.4760   27.9060   44.6860 C   0  0  0  0  0  0  0  0  0  0  0  0
   59.8080   28.3020   44.8750 C   0  0  0  0  0  0  0  0  0  0  0  0
   60.5710   27.7620   45.9120 C   0  0  0  0  0  0  0  0  0  0  0  0
   60.0200   26.8050   46.7670 C   0  0  0  0  0  0  0  0  0  0  0  0
   58.7000   26.3740   46.5780 C   0  0  0  0  0  0  0  0  0  0  0  0
   58.1350   25.3940   47.4050 C   0  0  0  0  0  0  0  0  0  0  0  0
   56.8280   24.9620   47.1780 C   0  0  0  0  0  0  0  0  0  0  0  0
   56.0980   25.5100   46.1210 C   0  0  0  0  0  0  0  0  0  0  0  0
   56.6550   26.4640   45.3290 N   0  0  0  0  0  0  0  0  0  0  0  0
   57.9220   26.9200   45.5290 C   0  0  0  0  0  0  0  0  0  0  0  0
   59.2173   32.4538   41.5633 H   0  0  0  0  0  0  0  0  0  0  0  0
   58.0952   31.4409   40.5930 H   0  0  0  0  0  0  0  0  0  0  0  0
   57.9193   33.2285   40.5930 H   0  0  0  0  0  0  0  0  0  0  0  0
   58.5983   34.2862   43.5556 H   0  0  0  0  0  0  0  0  0  0  0  0
   58.7259   32.3846   47.4345 H   0  0  0  0  0  0  0  0  0  0  0  0
   57.5492   30.3962   46.5048 H   0  0  0  0  0  0  0  0  0  0  0  0
   58.0390   28.3230   42.6320 H   0  0  0  0  0  0  0  0  0  0  0  0
   60.2561   29.0455   44.1994 H   0  0  0  0  0  0  0  0  0  0  0  0
   61.6105   28.0917   46.0562 H   0  0  0  0  0  0  0  0  0  0  0  0
   60.6220   26.3896   47.5886 H   0  0  0  0  0  0  0  0  0  0  0  0
   58.7210   24.9660   48.2317 H   0  0  0  0  0  0  0  0  0  0  0  0
   56.3764   24.1964   47.8260 H   0  0  0  0  0  0  0  0  0  0  0  0
   55.0700   25.1688   45.9290 H   0  0  0  0  0  0  0  0  0  0  0  0
  1  2  1  0
  2  3  1  0
  3  4  2  0
  4  5  1  0
  5  6  1  0
  5  7  2  0
  7  8  1  0
  8  9  2  0
  9 10  1  0
 10 11  2  0
 10 12  2  0
 10 13  1  0
 13 14  1  0
 14 15  2  0
 15 16  1  0
 16 17  2  0
 17 18  1  0
 18 19  2  0
 19 20  1  0
 20 21  2  0
 21 22  1  0
 22 23  2  0
  9  3  1  0
 23 14  1  0
 23 18  1  0
  1 24  1  0
  1 25  1  0
  1 26  1  0
  4 27  1  0
  7 28  1  0
  8 29  1  0
 13 30  1  0
 15 31  1  0
 16 32  1  0
 17 33  1  0
 19 34  1  0
 20 35  1  0
 21 36  1  0
M  END
>  <UniqueID>  (41) 
38

>  <SMILES>  (41) 
COc1cc(Br)ccc1S(=O)(=O)Nc1cccc2cccnc12

>  <Energy>  (41) 
49.017331731530184

>  <Genealogy>  (41) 
COc1cc(Br)ccc1S(=O)(=O)Nc1cccc2cccnc12 (3D coordinates assigned)
COc1cc(Br)ccc1S(=O)(=O)Nc1cccc2cccnc12 (optimized conformer: 49.017331731530184 kcal/mol)

>  <smiles>  (41) 
COc1cc(Br)ccc1S(=O)(=O)Nc1cccc2cccnc12

>  <score_type>  (41) 
oracle

>  <origin>  (41) 
adg

>  <m_score__min__energy>  (41) 
-8.4700000000000006

>  <m_primary>  (41) 
energy

$$$$
41:0
     RDKit          3D

 44 46  0  0  0  0  0  0  0  0999 V2000
   59.4080   34.7660   46.9220 C   0  0  0  0  0  0  0  0  0  0  0  0
   58.1990   33.4900   47.3940 S   0  0  0  0  0  0  0  0  0  0  0  0
   58.1090   32.7990   45.7420 C   0  0  0  0  0  0  0  0  0  0  0  0
   58.2020   33.6360   44.6240 C   0  0  0  0  0  0  0  0  0  0  0  0
   58.1690   33.0900   43.3380 C   0  0  0  0  0  0  0  0  0  0  0  0
   58.0440   31.7100   43.1650 C   0  0  0  0  0  0  0  0  0  0  0  0
   57.9250   30.8620   44.2770 C   0  0  0  0  0  0  0  0  0  0  0  0
   57.8570   29.4390   44.0790 N   0  0  0  0  0  0  0  0  0  0  0  0
   57.0290   28.5760   44.8670 C   0  0  0  0  0  0  0  0  0  0  0  0
   55.8750   28.9470   45.2140 O   0  0  0  0  0  0  0  0  0  0  0  0
   57.5450   27.2370   45.2940 C   0  0  0  0  0  0  0  0  0  0  0  0
   58.3410   27.3740   46.4720 O   0  0  0  0  0  0  0  0  0  0  0  0
   59.1610   28.4780   46.7630 C   0  0  0  0  0  0  0  0  0  0  0  0
   58.8920   29.2220   47.9150 C   0  0  0  0  0  0  0  0  0  0  0  0
   59.7100   30.2960   48.2770 C   0  0  0  0  0  0  0  0  0  0  0  0
   60.8130   30.6530   47.4800 C   0  0  0  0  0  0  0  0  0  0  0  0
   61.7000   31.7770   47.8750 C   0  0  0  0  0  0  0  0  0  0  0  0
   62.9120   32.0070   47.1950 C   0  0  0  0  0  0  0  0  0  0  0  0
   63.7400   33.0720   47.5630 C   0  0  0  0  0  0  0  0  0  0  0  0
   63.3700   33.9180   48.6110 C   0  0  0  0  0  0  0  0  0  0  0  0
   62.1720   33.7000   49.2940 C   0  0  0  0  0  0  0  0  0  0  0  0
   61.3420   32.6360   48.9320 C   0  0  0  0  0  0  0  0  0  0  0  0
   61.0660   29.9220   46.3070 C   0  0  0  0  0  0  0  0  0  0  0  0
   60.2470   28.8480   45.9480 C   0  0  0  0  0  0  0  0  0  0  0  0
   57.9610   31.4180   45.5690 C   0  0  0  0  0  0  0  0  0  0  0  0
   59.8365   35.2183   47.8285 H   0  0  0  0  0  0  0  0  0  0  0  0
   60.2110   34.3077   46.3261 H   0  0  0  0  0  0  0  0  0  0  0  0
   58.9071   35.5432   46.3261 H   0  0  0  0  0  0  0  0  0  0  0  0
   58.3010   34.7234   44.7576 H   0  0  0  0  0  0  0  0  0  0  0  0
   58.2417   33.7488   42.4601 H   0  0  0  0  0  0  0  0  0  0  0  0
   58.0388   31.2848   42.1505 H   0  0  0  0  0  0  0  0  0  0  0  0
   58.4980   29.0020   43.3800 H   0  0  0  0  0  0  0  0  0  0  0  0
   56.6963   26.5692   45.5033 H   0  0  0  0  0  0  0  0  0  0  0  0
   58.1623   26.8137   44.4879 H   0  0  0  0  0  0  0  0  0  0  0  0
   58.0279   28.9598   48.5431 H   0  0  0  0  0  0  0  0  0  0  0  0
   59.4898   30.8662   49.1916 H   0  0  0  0  0  0  0  0  0  0  0  0
   63.2091   31.3443   46.3689 H   0  0  0  0  0  0  0  0  0  0  0  0
   64.6846   33.2439   47.0261 H   0  0  0  0  0  0  0  0  0  0  0  0
   64.0224   34.7558   48.8982 H   0  0  0  0  0  0  0  0  0  0  0  0
   61.8810   34.3672   50.1187 H   0  0  0  0  0  0  0  0  0  0  0  0
   60.4014   32.4679   49.4770 H   0  0  0  0  0  0  0  0  0  0  0  0
   61.9162   30.1975   45.6656 H   0  0  0  0  0  0  0  0  0  0  0  0
   60.4524   28.2888   45.0233 H   0  0  0  0  0  0  0  0  0  0  0  0
   57.8723   30.7633   46.4485 H   0  0  0  0  0  0  0  0  0  0  0  0
  1  2  1  0
  2  3  1  0
  3  4  2  0
  4  5  1  0
  5  6  2  0
  6  7  1  0
  7  8  1  0
  8  9  1  0
  9 10  2  0
  9 11  1  0
 11 12  1  0
 12 13  1  0
 13 14  2  0
 14 15  1  0
 15 16  2  0
 16 17  1  0
 17 18  2  0
 18 19  1  0
 19 20  2  0
 20 21  1  0
 21 22  2  0
 16 23  1  0
 23 24  2  0
  7 25  2  0
 25  3  1  0
 24 13  1  0
 22 17  1  0
  1 26  1  0
  1 27  1  0
  1 28  1  0
  4 29  1  0
  5 30  1  0
  6 31  1  0
  8 32  1  0
 11 33  1  0
 11 34  1  0
 14 35  1  0
 15 36  1  0
 18 37  1  0
 19 38  1  0
 20 39  1  0
 21 40  1  0
 22 41  1  0
 23 42  1  0
 24 43  1  0
 25 44  1  0
M  END
>  <UniqueID>  (42) 
39

>  <SMILES>  (42) 
CSc1cccc(NC(=O)COc2ccc(-c3ccccc3)cc2)c1

>  <Energy>  (42) 
47.606166831435964

>  <Genealogy>  (42) 
CSc1cccc(NC(=O)COc2ccc(-c3ccccc3)cc2)c1 (3D coordinates assigned)
CSc1cccc(NC(=O)COc2ccc(-c3ccccc3)cc2)c1 (optimized conformer: 47.606166831435964 kcal/mol)

>  <smiles>  (42) 
CSc1cccc(NC(=O)COc2ccc(-c3ccccc3)cc2)c1

>  <score_type>  (42) 
oracle

>  <origin>  (42) 
adg

>  <m_score__min__energy>  (42) 
-8.1699999999999999

>  <m_primary>  (42) 
energy

$$$$
42:0
     RDKit          3D

 44 46  0  0  1  0  0  0  0  0999 V2000
   59.5850   34.1020   48.1850 C   0  0  0  0  0  0  0  0  0  0  0  0
   59.9930   34.3420   46.7520 C   0  0  0  0  0  0  0  0  0  0  0  0
   59.1530   33.5760   45.8030 C   0  0  0  0  0  0  0  0  0  0  0  0
   59.0250   33.3900   44.6660 N   0  0  0  0  0  0  0  0  0  0  0  0
   58.2070   32.6630   43.9980 N   0  0  0  0  0  0  0  0  0  0  0  0
   57.3200   31.9780   44.7430 C   0  0  0  0  0  0  0  0  0  0  0  0
   56.3840   31.1790   44.4720 N   0  0  0  0  0  0  0  0  0  0  0  0
   56.4900   29.7600   44.6650 C   0  0  0  0  0  0  0  0  0  0  0  0
   55.5480   29.0930   45.1960 O   0  0  0  0  0  0  0  0  0  0  0  0
   57.7130   29.0330   44.2480 C   0  0  0  0  0  0  0  0  0  0  0  0
   58.4660   28.5030   45.3610 N   0  0  0  0  0  0  0  0  0  0  0  0
   58.0410   29.1410   46.5740 C   0  0  0  0  0  0  0  0  0  0  0  0
   59.1410   29.1680   47.6260 C   0  0  0  0  0  0  0  0  0  0  0  0
   60.2130   29.9980   47.0540 N   0  0  0  0  0  0  0  0  0  0  0  0
   61.1810   30.6110   47.8940 C   0  0  0  0  0  0  0  0  0  0  0  0
   62.1670   31.4440   47.4190 C   0  0  0  0  0  0  0  0  0  0  0  0
   63.0800   32.0000   48.3250 C   0  0  0  0  0  0  0  0  0  0  0  0
   63.0120   31.7300   49.6770 C   0  0  0  0  0  0  0  0  0  0  0  0
   62.0240   30.8940   50.1560 C   0  0  0  0  0  0  0  0  0  0  0  0
   61.1230   30.3490   49.2460 C   0  0  0  0  0  0  0  0  0  0  0  0
   60.1970   30.1280   45.6120 C   0  0  0  0  0  0  0  0  0  0  0  0
   59.8770   28.7170   45.0990 C   0  0  0  0  0  0  0  0  0  0  0  0
   57.7640   32.4670   46.4840 S   0  0  0  0  0  0  0  0  0  0  0  0
   60.3347   34.5430   48.8584 H   0  0  0  0  0  0  0  0  0  0  0  0
   58.6061   34.5682   48.3705 H   0  0  0  0  0  0  0  0  0  0  0  0
   59.5168   33.0199   48.3705 H   0  0  0  0  0  0  0  0  0  0  0  0
   59.8939   35.4146   46.5289 H   0  0  0  0  0  0  0  0  0  0  0  0
   61.0339   34.0068   46.6332 H   0  0  0  0  0  0  0  0  0  0  0  0
   58.2000   32.5850   42.9450 H   0  0  0  0  0  0  0  0  0  0  0  0
   57.4182   28.1978   43.5957 H   0  0  0  0  0  0  0  0  0  0  0  0
   58.3610   29.7538   43.7279 H   0  0  0  0  0  0  0  0  0  0  0  0
   57.7444   30.1752   46.3451 H   0  0  0  0  0  0  0  0  0  0  0  0
   57.1982   28.5635   46.9817 H   0  0  0  0  0  0  0  0  0  0  0  0
   58.7681   29.6124   48.5606 H   0  0  0  0  0  0  0  0  0  0  0  0
   59.4957   28.1560   47.8711 H   0  0  0  0  0  0  0  0  0  0  0  0
   62.2377   31.6702   46.3448 H   0  0  0  0  0  0  0  0  0  0  0  0
   63.8697   32.6675   47.9499 H   0  0  0  0  0  0  0  0  0  0  0  0
   63.7408   32.1784   50.3683 H   0  0  0  0  0  0  0  0  0  0  0  0
   61.9505   30.6643   51.2292 H   0  0  0  0  0  0  0  0  0  0  0  0
   60.3326   29.6822   49.6209 H   0  0  0  0  0  0  0  0  0  0  0  0
   59.4220   30.8414   45.2951 H   0  0  0  0  0  0  0  0  0  0  0  0
   61.1504   30.5090   45.2171 H   0  0  0  0  0  0  0  0  0  0  0  0
   60.0795   28.6482   44.0200 H   0  0  0  0  0  0  0  0  0  0  0  0
   60.4976   27.9581   45.5979 H   0  0  0  0  0  0  0  0  0  0  0  0
  1  2  1  0
  2  3  1  0
  3  4  2  0
  4  5  1  0
  5  6  1  0
  6  7  2  0
  7  8  1  0
  8  9  2  0
  8 10  1  0
 10 11  1  0
 11 12  1  0
 12 13  1  0
 13 14  1  0
 14 15  1  0
 15 16  2  0
 16 17  1  0
 17 18  2  0
 18 19  1  0
 19 20  2  0
 14 21  1  0
 21 22  1  0
  6 23  1  0
 23  3  1  0
 22 11  1  0
 20 15  1  0
  1 24  1  0
  1 25  1  0
  1 26  1  0
  2 27  1  0
  2 28  1  0
  5 29  1  0
 10 30  1  0
 10 31  1  0
 12 32  1  0
 12 33  1  0
 13 34  1  0
 13 35  1  0
 16 36  1  0
 17 37  1  0
 18 38  1  0
 19 39  1  0
 20 40  1  0
 21 41  1  0
 21 42  1  0
 22 43  1  0
 22 44  1  0
M  END
>  <smiles>  (43) 
CCc1n[nH]c(=NC(=O)CN2CCN(c3ccccc3)CC2)s1

>  <score_type>  (43) 
oracle

>  <origin>  (43) 
adg

>  <m_score__min__energy>  (43) 
-8.7100000000000009

>  <m_primary>  (43) 
energy

$$$$
43:0
     RDKit          3D

 31 32  0  0  0  0  0  0  0  0999 V2000
   57.7880   32.2770   41.5970 C   0  0  0  0  0  0  0  0  0  0  0  0
   57.4550   32.4400   42.9720 O   0  0  0  0  0  0  0  0  0  0  0  0
   57.7090   31.4900   43.9750 C   0  0  0  0  0  0  0  0  0  0  0  0
   57.4560   30.1220   43.7680 C   0  0  0  0  0  0  0  0  0  0  0  0
   57.7350   29.2080   44.7780 C   0  0  0  0  0  0  0  0  0  0  0  0
   58.2740   29.6310   45.9470 N   0  0  0  0  0  0  0  0  0  0  0  0
   58.5440   30.9410   46.1950 C   0  0  0  0  0  0  0  0  0  0  0  0
   59.1890   31.2690   47.4820 C   0  0  0  0  0  0  0  0  0  0  0  0
   58.5210   31.8540   48.3740 O   0  0  0  0  0  0  0  0  0  0  0  0
   60.5950   31.0700   47.6950 N   0  0  0  0  0  0  0  0  0  0  0  0
   61.5550   31.8880   47.3740 C   0  0  0  0  0  0  0  0  0  0  0  0
   61.3180   33.1460   46.9460 N   0  0  0  0  0  0  0  0  0  0  0  0
   62.4630   33.8400   46.7100 C   0  0  0  0  0  0  0  0  0  0  0  0
   63.6340   33.1340   46.9620 C   0  0  0  0  0  0  0  0  0  0  0  0
   63.2120   31.5940   47.4980 S   0  0  0  0  0  0  0  0  0  0  0  0
   58.2320   31.9180   45.2140 C   0  0  0  0  0  0  0  0  0  0  0  0
   58.4380   33.6600   45.5150 S   0  0  0  0  0  0  0  0  0  0  0  0
   57.0350   34.5440   44.8720 C   0  0  0  0  0  0  0  0  0  0  0  0
   59.6970   34.1690   44.8700 O   0  0  0  0  0  0  0  0  0  0  0  0
   58.5440   33.9160   46.9930 O   0  0  0  0  0  0  0  0  0  0  0  0
   58.7731   31.7948   41.5130 H   0  0  0  0  0  0  0  0  0  0  0  0
   57.0292   31.6485   41.1080 H   0  0  0  0  0  0  0  0  0  0  0  0
   57.8189   33.2618   41.1080 H   0  0  0  0  0  0  0  0  0  0  0  0
   57.0389   29.7765   42.8106 H   0  0  0  0  0  0  0  0  0  0  0  0
   57.5179   28.1401   44.6278 H   0  0  0  0  0  0  0  0  0  0  0  0
   60.3630   33.5490   46.8110 H   0  0  0  0  0  0  0  0  0  0  0  0
   62.4630   34.8787   46.3480 H   0  0  0  0  0  0  0  0  0  0  0  0
   64.6579   33.5149   46.8336 H   0  0  0  0  0  0  0  0  0  0  0  0
   56.4285   34.9261   45.7064 H   0  0  0  0  0  0  0  0  0  0  0  0
   57.3832   35.3862   44.2560 H   0  0  0  0  0  0  0  0  0  0  0  0
   56.4256   33.8664   44.2560 H   0  0  0  0  0  0  0  0  0  0  0  0
  1  2  1  0
  2  3  1  0
  3  4  2  0
  4  5  1  0
  5  6  2  0
  6  7  1  0
  7  8  1  0
  8  9  2  0
  8 10  1  0
 10 11  2  3
 11 12  1  0
 12 13  1  0
 13 14  2  0
 14 15  1  0
  7 16  2  0
 16 17  1  0
 17 18  1  0
 17 19  2  0
 17 20  2  0
 16  3  1  0
 15 11  1  0
  1 21  1  0
  1 22  1  0
  1 23  1  0
  4 24  1  0
  5 25  1  0
 12 26  1  0
 13 27  1  0
 14 28  1  0
 18 29  1  0
 18 30  1  0
 18 31  1  0
M  END
>  <UniqueID>  (44) 
40

>  <SMILES>  (44) 
COc1ccnc(C(=O)N=c2[nH]ccs2)c1S(C)(=O)=O

>  <Energy>  (44) 
71.70947149858955

>  <Genealogy>  (44) 
COc1ccnc(C(=O)N=c2[nH]ccs2)c1S(C)(=O)=O (3D coordinates assigned)
COc1ccnc(C(=O)N=c2[nH]ccs2)c1S(C)(=O)=O (optimized conformer: 71.70947149858955 kcal/mol)

>  <smiles>  (44) 
COc1ccnc(C(=O)N=c2[nH]ccs2)c1S(C)(=O)=O

>  <score_type>  (44) 
oracle

>  <origin>  (44) 
adg

>  <m_score__min__energy>  (44) 
-6.25

>  <m_primary>  (44) 
energy

$$$$
44:0
     RDKit          3D

 57 60  0  0  0  0  0  0  0  0999 V2000
   65.4370   34.5720   53.1800 C   0  0  0  0  0  0  0  0  0  0  0  0
   64.9320   34.1170   51.8430 C   0  0  0  0  0  0  0  0  0  0  0  0
   65.7260   33.3030   51.0220 C   0  0  0  0  0  0  0  0  0  0  0  0
   65.2630   32.9050   49.7650 C   0  0  0  0  0  0  0  0  0  0  0  0
   64.0040   33.3200   49.3120 C   0  0  0  0  0  0  0  0  0  0  0  0
   63.4150   32.7750   47.7440 S   0  0  0  0  0  0  0  0  0  0  0  0
   64.1450   33.4740   46.6310 O   0  0  0  0  0  0  0  0  0  0  0  0
   63.6540   31.2960   47.6340 O   0  0  0  0  0  0  0  0  0  0  0  0
   61.6930   33.1040   47.5910 C   0  0  0  0  0  0  0  0  0  0  0  0
   61.1260   33.6270   46.4890 N   0  0  0  0  0  0  0  0  0  0  0  0
   59.8010   33.5890   46.7390 C   0  0  0  0  0  0  0  0  0  0  0  0
   58.7570   34.1130   45.8070 C   0  0  0  0  0  0  0  0  0  0  0  0
   58.1580   32.9730   45.0330 C   0  0  0  0  0  0  0  0  0  0  0  0
   58.0060   33.0670   43.6380 C   0  0  0  0  0  0  0  0  0  0  0  0
   57.4930   31.9870   42.9110 C   0  0  0  0  0  0  0  0  0  0  0  0
   57.1350   30.8040   43.5680 C   0  0  0  0  0  0  0  0  0  0  0  0
   56.4960   29.4510   42.6530 Cl  0  0  0  0  0  0  0  0  0  0  0  0
   57.2980   30.7000   44.9540 C   0  0  0  0  0  0  0  0  0  0  0  0
   57.8130   31.7760   45.6840 C   0  0  0  0  0  0  0  0  0  0  0  0
   59.5300   33.0760   47.9190 O   0  0  0  0  0  0  0  0  0  0  0  0
   60.6800   32.7730   48.4720 C   0  0  0  0  0  0  0  0  0  0  0  0
   60.8120   32.1880   49.7760 N   0  0  0  0  0  0  0  0  0  0  0  0
   61.2970   30.8240   49.9320 C   0  0  0  0  0  0  0  0  0  0  0  0
   60.1610   29.9180   50.4440 C   0  0  2  0  0  0  0  0  0  0  0  0
   59.2450   29.4150   49.3200 C   0  0  0  0  0  0  0  0  0  0  0  0
   59.4290   30.4670   51.5390 O   0  0  0  0  0  0  0  0  0  0  0  0
   59.0220   31.8280   51.3980 C   0  0  2  0  0  0  0  0  0  0  0  0
   57.7520   31.9790   50.5470 C   0  0  0  0  0  0  0  0  0  0  0  0
   60.1520   32.7640   50.9390 C   0  0  0  0  0  0  0  0  0  0  0  0
   63.2220   34.1590   50.1170 C   0  0  0  0  0  0  0  0  0  0  0  0
   63.6830   34.5560   51.3760 C   0  0  0  0  0  0  0  0  0  0  0  0
   64.8736   34.0644   53.9769 H   0  0  0  0  0  0  0  0  0  0  0  0
   66.5051   34.3254   53.2718 H   0  0  0  0  0  0  0  0  0  0  0  0
   65.3027   35.6599   53.2718 H   0  0  0  0  0  0  0  0  0  0  0  0
   66.7174   32.9765   51.3690 H   0  0  0  0  0  0  0  0  0  0  0  0
   65.8898   32.2631   49.1285 H   0  0  0  0  0  0  0  0  0  0  0  0
   61.6030   33.9710   45.6280 H   0  0  0  0  0  0  0  0  0  0  0  0
   57.9690   34.6174   46.3855 H   0  0  0  0  0  0  0  0  0  0  0  0
   59.2151   34.8291   45.1089 H   0  0  0  0  0  0  0  0  0  0  0  0
   58.2913   33.9926   43.1167 H   0  0  0  0  0  0  0  0  0  0  0  0
   57.3708   32.0679   41.8208 H   0  0  0  0  0  0  0  0  0  0  0  0
   57.0203   29.7694   45.4707 H   0  0  0  0  0  0  0  0  0  0  0  0
   57.9486   31.6852   46.7718 H   0  0  0  0  0  0  0  0  0  0  0  0
   62.1264   30.8123   50.6545 H   0  0  0  0  0  0  0  0  0  0  0  0
   61.6465   30.4507   48.9581 H   0  0  0  0  0  0  0  0  0  0  0  0
   60.6718   29.0333   50.8518 H   0  0  0  0  0  0  0  0  0  0  0  0
   58.3604   28.9292   49.7576 H   0  0  0  0  0  0  0  0  0  0  0  0
   58.9267   30.2649   48.6984 H   0  0  0  0  0  0  0  0  0  0  0  0
   59.7913   28.6904   48.6984 H   0  0  0  0  0  0  0  0  0  0  0  0
   58.7614   32.1599   52.4138 H   0  0  0  0  0  0  0  0  0  0  0  0
   56.8784   32.0829   51.2073 H   0  0  0  0  0  0  0  0  0  0  0  0
   57.8402   32.8730   49.9122 H   0  0  0  0  0  0  0  0  0  0  0  0
   57.6281   31.0893   49.9122 H   0  0  0  0  0  0  0  0  0  0  0  0
   60.8819   32.8854   51.7530 H   0  0  0  0  0  0  0  0  0  0  0  0
   59.7325   33.7462   50.6756 H   0  0  0  0  0  0  0  0  0  0  0  0
   62.2422   34.5065   49.7573 H   0  0  0  0  0  0  0  0  0  0  0  0
   63.0645   35.2150   52.0031 H   0  0  0  0  0  0  0  0  0  0  0  0
  1  2  1  0
  2  3  2  0
  3  4  1  0
  4  5  2  0
  5  6  1  0
  6  7  2  0
  6  8  2  0
  6  9  1  0
  9 10  1  0
 10 11  2  0
 11 12  1  0
 12 13  1  0
 13 14  2  0
 14 15  1  0
 15 16  2  0
 16 17  1  0
 16 18  1  0
 18 19  2  0
 11 20  1  0
 20 21  1  0
 21 22  1  0
 22 23  1  0
 23 24  1  0
 24 25  1  0
 24 26  1  0
 26 27  1  0
 27 28  1  0
 27 29  1  0
  5 30  1  0
 30 31  2  0
 31  2  1  0
 21  9  2  0
 29 22  1  0
 19 13  1  0
  1 32  1  0
  1 33  1  0
  1 34  1  0
  3 35  1  0
  4 36  1  0
 10 37  1  0
 12 38  1  0
 12 39  1  0
 14 40  1  0
 15 41  1  0
 18 42  1  0
 19 43  1  0
 23 44  1  0
 23 45  1  0
 24 46  1  1
 25 47  1  0
 25 48  1  0
 25 49  1  0
 27 50  1  1
 28 51  1  0
 28 52  1  0
 28 53  1  0
 29 54  1  0
 29 55  1  0
 30 56  1  0
 31 57  1  0
M  CHG  1  10   1
M  END
>  <UniqueID>  (45) 
41

>  <SMILES>  (45) 
Cc1ccc(S(=O)(=O)c2[nH+]c(Cc3ccc(Cl)cc3)oc2N2C[C@@H](C)O[C@@H](C)C2)cc1

>  <Energy>  (45) 
98.6562370308676

>  <Genealogy>  (45) 
Cc1ccc(S(=O)(=O)c2[nH+]c(Cc3ccc(Cl)cc3)oc2N2CC(C)OC(C)C2)cc1 (protonated)
Cc1ccc(S(=O)(=O)c2[nH+]c(Cc3ccc(Cl)cc3)oc2N2C[C@@H](C)O[C@@H](C)C2)cc1 (chirality)
Cc1ccc(S(=O)(=O)c2[nH+]c(Cc3ccc(Cl)cc3)oc2N2C[C@@H](C)O[C@@H](C)C2)cc1 (3D coordinates assigned)
Cc1ccc(S(=O)(=O)c2[nH+]c(Cc3ccc(Cl)cc3)oc2N2C[C@@H](C)O[C@@H](C)C2)cc1 (nonaromatic ring conformer: 98.6562370308676 kcal/mol)

>  <smiles>  (45) 
Cc1ccc(S(=O)(=O)c2nc(Cc3ccc(Cl)cc3)oc2N2CC(C)OC(C)C2)cc1

>  <score_type>  (45) 
oracle

>  <origin>  (45) 
adg

>  <m_score__min__energy>  (45) 
-7.1500000000000004

>  <m_primary>  (45) 
energy

$$$$
45:0
     RDKit          3D

 44 46  0  0  0  0  0  0  0  0999 V2000
   59.7720   26.9680   47.1740 C   0  0  0  0  0  0  0  0  0  0  0  0
   58.5760   27.8000   47.4870 C   0  0  0  0  0  0  0  0  0  0  0  0
   57.3840   27.5090   46.7660 N   0  0  0  0  0  0  0  0  0  0  0  0
   57.4070   26.0430   46.5590 C   0  0  0  0  0  0  0  0  0  0  0  0
   56.1020   25.5020   46.1810 C   0  0  0  0  0  0  0  0  0  0  0  0
   55.8820   24.1690   45.9860 N   0  0  0  0  0  0  0  0  0  0  0  0
   54.6000   23.9740   45.6530 C   0  0  0  0  0  0  0  0  0  0  0  0
   53.9780   25.2020   45.6310 C   0  0  0  0  0  0  0  0  0  0  0  0
   54.9150   26.0990   45.9550 N   0  0  0  0  0  0  0  0  0  0  0  0
   57.2670   28.0500   45.4520 C   0  0  0  0  0  0  0  0  0  0  0  0
   57.2630   29.5040   45.3260 C   0  0  0  0  0  0  0  0  0  0  0  0
   56.2520   30.2220   44.8070 N   0  0  0  0  0  0  0  0  0  0  0  0
   56.6330   31.4810   44.8690 N   0  0  0  0  0  0  0  0  0  0  0  0
   57.8560   31.5010   45.4200 C   0  0  0  0  0  0  0  0  0  0  0  0
   58.6060   32.7710   45.6470 C   0  0  0  0  0  0  0  0  0  0  0  0
   58.1230   33.9120   44.8200 C   0  0  0  0  0  0  0  0  0  0  0  0
   59.1060   35.0420   44.9480 C   0  0  0  0  0  0  0  0  0  0  0  0
   59.8690   34.9880   46.2570 C   0  0  0  0  0  0  0  0  0  0  0  0
   58.9120   34.5870   47.3420 C   0  0  0  0  0  0  0  0  0  0  0  0
   58.5360   33.1430   47.1270 C   0  0  0  0  0  0  0  0  0  0  0  0
   58.2500   30.2850   45.7030 O   0  0  0  0  0  0  0  0  0  0  0  0
   60.2451   26.6389   48.1109 H   0  0  0  0  0  0  0  0  0  0  0  0
   59.4640   26.0882   46.5900 H   0  0  0  0  0  0  0  0  0  0  0  0
   60.4898   27.5628   46.5900 H   0  0  0  0  0  0  0  0  0  0  0  0
   58.3557   27.6762   48.5576 H   0  0  0  0  0  0  0  0  0  0  0  0
   58.8507   28.8221   47.1874 H   0  0  0  0  0  0  0  0  0  0  0  0
   58.1274   25.8124   45.7604 H   0  0  0  0  0  0  0  0  0  0  0  0
   57.6931   25.5788   47.5143 H   0  0  0  0  0  0  0  0  0  0  0  0
   54.1275   23.0047   45.4356 H   0  0  0  0  0  0  0  0  0  0  0  0
   52.9229   25.4044   45.3946 H   0  0  0  0  0  0  0  0  0  0  0  0
   54.7650   27.1260   46.0260 H   0  0  0  0  0  0  0  0  0  0  0  0
   58.1130   27.6692   44.8611 H   0  0  0  0  0  0  0  0  0  0  0  0
   56.2732   27.7330   45.1029 H   0  0  0  0  0  0  0  0  0  0  0  0
   59.6441   32.5825   45.3359 H   0  0  0  0  0  0  0  0  0  0  0  0
   58.0486   33.6021   43.7672 H   0  0  0  0  0  0  0  0  0  0  0  0
   57.1298   34.2348   45.1656 H   0  0  0  0  0  0  0  0  0  0  0  0
   59.8236   34.9839   44.1164 H   0  0  0  0  0  0  0  0  0  0  0  0
   58.5422   35.9862   44.9230 H   0  0  0  0  0  0  0  0  0  0  0  0
   60.6806   34.2491   46.1846 H   0  0  0  0  0  0  0  0  0  0  0  0
   60.3076   35.9714   46.4818 H   0  0  0  0  0  0  0  0  0  0  0  0
   59.3923   34.7046   48.3246 H   0  0  0  0  0  0  0  0  0  0  0  0
   58.0146   35.2224   47.3116 H   0  0  0  0  0  0  0  0  0  0  0  0
   59.2302   32.5031   47.6915 H   0  0  0  0  0  0  0  0  0  0  0  0
   57.5033   32.9952   47.4760 H   0  0  0  0  0  0  0  0  0  0  0  0
  1  2  1  0
  2  3  1  0
  3  4  1  0
  4  5  1  0
  5  6  2  0
  6  7  1  0
  7  8  2  0
  8  9  1  0
  3 10  1  0
 10 11  1  0
 11 12  2  0
 12 13  1  0
 13 14  2  0
 14 15  1  0
 15 16  1  0
 16 17  1  0
 17 18  1  0
 18 19  1  0
 19 20  1  0
 14 21  1  0
  9  5  1  0
 21 11  1  0
 20 15  1  0
  1 22  1  0
  1 23  1  0
  1 24  1  0
  2 25  1  0
  2 26  1  0
  4 27  1  0
  4 28  1  0
  7 29  1  0
  8 30  1  0
  9 31  1  0
 10 32  1  0
 10 33  1  0
 15 34  1  0
 16 35  1  0
 16 36  1  0
 17 37  1  0
 17 38  1  0
 18 39  1  0
 18 40  1  0
 19 41  1  0
 19 42  1  0
 20 43  1  0
 20 44  1  0
M  END
>  <smiles>  (46) 
CCN(Cc1ncc[nH]1)Cc1nnc(C2CCCCC2)o1

>  <score_type>  (46) 
oracle

>  <origin>  (46) 
adg

>  <m_score__min__energy>  (46) 
-7.6699999999999999

>  <m_primary>  (46) 
energy

$$$$
46:0
     RDKit          3D

 49 52  0  0  0  0  0  0  0  0999 V2000
   57.1230   21.4120   43.0140 C   0  0  0  0  0  0  0  0  0  0  0  0
   55.9620   22.2080   43.0960 O   0  0  0  0  0  0  0  0  0  0  0  0
   56.3230   23.5300   43.4330 C   0  0  0  0  0  0  0  0  0  0  0  0
   57.6360   23.5140   44.2180 C   0  0  0  0  0  0  0  0  0  0  0  0
   57.4850   24.2040   45.5130 N   0  0  0  0  0  0  0  0  0  0  0  0
   56.7620   23.5010   46.5830 C   0  0  0  0  0  0  0  0  0  0  0  0
   58.0150   25.5440   45.7390 C   0  0  0  0  0  0  0  0  0  0  0  0
   59.2340   25.7320   46.4620 C   0  0  0  0  0  0  0  0  0  0  0  0
   59.7580   27.0170   46.6910 C   0  0  0  0  0  0  0  0  0  0  0  0
   59.0580   28.1050   46.1850 C   0  0  0  0  0  0  0  0  0  0  0  0
   59.3010   29.4580   46.2510 C   0  0  0  0  0  0  0  0  0  0  0  0
   60.3640   30.1000   46.9790 C   0  0  0  0  0  0  0  0  0  0  0  0
   61.2530   30.6330   47.5930 C   0  0  0  0  0  0  0  0  0  0  0  0
   62.3040   31.2800   48.3270 C   0  0  0  0  0  0  0  0  0  0  0  0
   63.2090   32.1710   47.7360 C   0  0  0  0  0  0  0  0  0  0  0  0
   64.1410   32.6800   48.6290 C   0  0  0  0  0  0  0  0  0  0  0  0
   63.8300   32.0160   50.1430 S   0  0  0  0  0  0  0  0  0  0  0  0
   62.5130   31.0780   49.6860 C   0  0  0  0  0  0  0  0  0  0  0  0
   58.2310   30.0550   45.5770 C   0  0  0  0  0  0  0  0  0  0  0  0
   57.9860   31.5000   45.3670 C   0  0  0  0  0  0  0  0  0  0  0  0
   57.7900   32.3800   46.4490 C   0  0  0  0  0  0  0  0  0  0  0  0
   57.5730   33.7420   46.2200 C   0  0  0  0  0  0  0  0  0  0  0  0
   57.5580   34.2400   44.9150 C   0  0  0  0  0  0  0  0  0  0  0  0
   57.7690   33.3790   43.8370 C   0  0  0  0  0  0  0  0  0  0  0  0
   57.9900   32.0170   44.0600 C   0  0  0  0  0  0  0  0  0  0  0  0
   57.4040   29.1190   45.1420 O   0  0  0  0  0  0  0  0  0  0  0  0
   57.8890   27.9520   45.4970 C   0  0  0  0  0  0  0  0  0  0  0  0
   57.3390   26.6980   45.2520 C   0  0  0  0  0  0  0  0  0  0  0  0
   57.4746   21.1709   44.0280 H   0  0  0  0  0  0  0  0  0  0  0  0
   56.8922   20.4813   42.4750 H   0  0  0  0  0  0  0  0  0  0  0  0
   57.9079   21.9628   42.4750 H   0  0  0  0  0  0  0  0  0  0  0  0
   56.4520   24.1207   42.5141 H   0  0  0  0  0  0  0  0  0  0  0  0
   55.5317   23.9810   44.0498 H   0  0  0  0  0  0  0  0  0  0  0  0
   57.9346   22.4708   44.3987 H   0  0  0  0  0  0  0  0  0  0  0  0
   58.4034   24.0375   43.6289 H   0  0  0  0  0  0  0  0  0  0  0  0
   57.1228   23.8518   47.5611 H   0  0  0  0  0  0  0  0  0  0  0  0
   55.6850   23.7065   46.4942 H   0  0  0  0  0  0  0  0  0  0  0  0
   56.9373   22.4187   46.4942 H   0  0  0  0  0  0  0  0  0  0  0  0
   59.7730   24.8538   46.8470 H   0  0  0  0  0  0  0  0  0  0  0  0
   60.6931   27.1561   47.2533 H   0  0  0  0  0  0  0  0  0  0  0  0
   63.1833   32.4404   46.6698 H   0  0  0  0  0  0  0  0  0  0  0  0
   64.9432   33.3933   48.3889 H   0  0  0  0  0  0  0  0  0  0  0  0
   61.9230   30.4226   50.3435 H   0  0  0  0  0  0  0  0  0  0  0  0
   57.8077   31.9940   47.4789 H   0  0  0  0  0  0  0  0  0  0  0  0
   57.4138   34.4228   47.0692 H   0  0  0  0  0  0  0  0  0  0  0  0
   57.3799   35.3108   44.7370 H   0  0  0  0  0  0  0  0  0  0  0  0
   57.7614   33.7730   42.8100 H   0  0  0  0  0  0  0  0  0  0  0  0
   58.1682   31.3454   43.2072 H   0  0  0  0  0  0  0  0  0  0  0  0
   56.3977   26.5999   44.6914 H   0  0  0  0  0  0  0  0  0  0  0  0
  1  2  1  0
  2  3  1  0
  3  4  1  0
  4  5  1  0
  5  6  1  0
  5  7  1  0
  7  8  2  0
  8  9  1  0
  9 10  2  0
 10 11  1  0
 11 12  1  0
 12 13  3  0
 13 14  1  0
 14 15  1  0
 15 16  2  0
 16 17  1  0
 17 18  1  0
 11 19  2  0
 19 20  1  0
 20 21  2  0
 21 22  1  0
 22 23  2  0
 23 24  1  0
 24 25  2  0
 19 26  1  0
 26 27  1  0
 27 28  2  0
 28  7  1  0
 27 10  1  0
 18 14  2  0
 25 20  1  0
  1 29  1  0
  1 30  1  0
  1 31  1  0
  3 32  1  0
  3 33  1  0
  4 34  1  0
  4 35  1  0
  6 36  1  0
  6 37  1  0
  6 38  1  0
  8 39  1  0
  9 40  1  0
 15 41  1  0
 16 42  1  0
 18 43  1  0
 21 44  1  0
 22 45  1  0
 23 46  1  0
 24 47  1  0
 25 48  1  0
 28 49  1  0
M  END
>  <UniqueID>  (47) 
42

>  <SMILES>  (47) 
COCCN(C)c1ccc2c(C#Cc3ccsc3)c(-c3ccccc3)oc2c1

>  <Energy>  (47) 
113.58157397914509

>  <Genealogy>  (47) 
COCCN(C)c1ccc2c(C#Cc3ccsc3)c(-c3ccccc3)oc2c1 (3D coordinates assigned)
COCCN(C)c1ccc2c(C#Cc3ccsc3)c(-c3ccccc3)oc2c1 (optimized conformer: 113.58157397914509 kcal/mol)

>  <smiles>  (47) 
COCCN(C)c1ccc2c(C#Cc3ccsc3)c(-c3ccccc3)oc2c1

>  <score_type>  (47) 
oracle

>  <origin>  (47) 
adg

>  <m_score__min__energy>  (47) 
-7.7999999999999998

>  <m_primary>  (47) 
energy

$$$$
47:0
     RDKit          3D

 30 31  0  0  0  0  0  0  0  0999 V2000
   58.4000   27.4690   43.4040 C   0  0  0  0  0  0  0  0  0  0  0  0
   57.4080   27.7770   44.8970 S   0  0  0  0  0  0  0  0  0  0  0  0
   57.5720   29.5570   44.7740 C   0  0  0  0  0  0  0  0  0  0  0  0
   57.6480   30.3000   45.9030 N   0  0  0  0  0  0  0  0  0  0  0  0
   57.7750   31.6500   45.8530 C   0  0  0  0  0  0  0  0  0  0  0  0
   57.8130   32.2950   46.9350 O   0  0  0  0  0  0  0  0  0  0  0  0
   57.8430   32.3090   44.6060 C   0  0  0  0  0  0  0  0  0  0  0  0
   57.9860   33.7890   44.5060 C   0  0  0  0  0  0  0  0  0  0  0  0
   58.8170   34.4610   45.2580 C   0  0  0  0  0  0  0  0  0  0  0  0
   59.6440   35.1250   46.0170 C   0  0  0  0  0  0  0  0  0  0  0  0
   60.5560   34.4330   46.9370 C   0  0  0  0  0  0  0  0  0  0  0  0
   61.7580   33.8400   46.5750 C   0  0  0  0  0  0  0  0  0  0  0  0
   62.4310   33.2510   47.6530 C   0  0  0  0  0  0  0  0  0  0  0  0
   61.7620   33.3750   48.8650 C   0  0  0  0  0  0  0  0  0  0  0  0
   60.3330   34.2190   48.5950 S   0  0  0  0  0  0  0  0  0  0  0  0
   57.7500   31.5120   43.4400 C   0  0  0  0  0  0  0  0  0  0  0  0
   57.8060   32.1220   42.0640 C   0  0  0  0  0  0  0  0  0  0  0  0
   57.6140   30.1590   43.5570 N   0  0  0  0  0  0  0  0  0  0  0  0
   59.4130   27.1545   43.6953 H   0  0  0  0  0  0  0  0  0  0  0  0
   57.9272   26.6754   42.8069 H   0  0  0  0  0  0  0  0  0  0  0  0
   58.4598   28.3909   42.8069 H   0  0  0  0  0  0  0  0  0  0  0  0
   57.3713   34.3341   43.7745 H   0  0  0  0  0  0  0  0  0  0  0  0
   59.6587   36.2238   45.9672 H   0  0  0  0  0  0  0  0  0  0  0  0
   62.1433   33.8334   45.5447 H   0  0  0  0  0  0  0  0  0  0  0  0
   63.3987   32.7382   47.5500 H   0  0  0  0  0  0  0  0  0  0  0  0
   62.1081   32.9875   49.8346 H   0  0  0  0  0  0  0  0  0  0  0  0
   57.9062   33.2140   42.1508 H   0  0  0  0  0  0  0  0  0  0  0  0
   58.6707   31.7167   41.5181 H   0  0  0  0  0  0  0  0  0  0  0  0
   56.8819   31.8809   41.5181 H   0  0  0  0  0  0  0  0  0  0  0  0
   57.5470   29.5630   42.7020 H   0  0  0  0  0  0  0  0  0  0  0  0
  1  2  1  0
  2  3  1  0
  3  4  2  0
  4  5  1  0
  5  6  2  0
  5  7  1  0
  7  8  1  0
  8  9  2  0
  9 10  2  0
 10 11  1  0
 11 12  2  0
 12 13  1  0
 13 14  2  0
 14 15  1  0
  7 16  2  0
 16 17  1  0
 16 18  1  0
 18  3  1  0
 15 11  1  0
  1 19  1  0
  1 20  1  0
  1 21  1  0
  8 22  1  0
 10 23  1  0
 12 24  1  0
 13 25  1  0
 14 26  1  0
 17 27  1  0
 17 28  1  0
 17 29  1  0
 18 30  1  0
M  END
>  <UniqueID>  (48) 
43

>  <SMILES>  (48) 
CSc1nc(=O)c(C=C=Cc2cccs2)c(C)[nH]1

>  <Energy>  (48) 
52.557394737386964

>  <Genealogy>  (48) 
CSc1nc(=O)c(C=C=Cc2cccs2)c(C)[nH]1 (3D coordinates assigned)
CSc1nc(=O)c(C=C=Cc2cccs2)c(C)[nH]1 (optimized conformer: 52.557394737386964 kcal/mol)

>  <smiles>  (48) 
CSc1nc(=O)c(C=C=Cc2cccs2)c(C)[nH]1

>  <score_type>  (48) 
oracle

>  <origin>  (48) 
adg

>  <m_score__min__energy>  (48) 
-6.7199999999999998

>  <m_primary>  (48) 
energy

$$$$
48:0
     RDKit          3D

 79 80  0  0  0  0  0  0  0  0999 V2000
   57.3550   32.0180   41.5830 C   0  0  0  0  0  0  0  0  0  0  0  0
   57.8860   31.4510   42.9010 C   0  0  0  0  0  0  0  0  0  0  0  0
   56.8200   30.6740   43.7250 C   0  0  1  0  0  0  0  0  0  0  0  0
   56.0220   29.7400   42.7990 C   0  0  0  0  0  0  0  0  0  0  0  0
   57.3680   29.8920   44.9670 C   0  0  2  0  0  0  0  0  0  0  0  0
   58.1490   30.7910   45.8300 N   0  0  0  0  0  0  0  0  0  0  0  0
   57.8020   32.1750   46.0010 C   0  0  0  0  0  0  0  0  0  0  0  0
   56.7380   32.6230   45.4980 O   0  0  0  0  0  0  0  0  0  0  0  0
   58.7070   33.0890   46.7290 C   0  0  0  0  0  0  0  0  0  0  0  0
   59.5800   33.9060   45.9930 C   0  0  0  0  0  0  0  0  0  0  0  0
   60.3990   34.8360   46.6380 C   0  0  0  0  0  0  0  0  0  0  0  0
   60.3530   34.9620   48.0260 C   0  0  0  0  0  0  0  0  0  0  0  0
   59.5020   34.1470   48.7750 C   0  0  0  0  0  0  0  0  0  0  0  0
   58.6790   33.2010   48.1410 C   0  0  0  0  0  0  0  0  0  0  0  0
   57.8750   32.3320   48.9490 N   0  0  0  0  0  0  0  0  0  0  0  0
   58.1560   28.6490   44.6150 C   0  0  0  0  0  0  0  0  0  0  0  0
   58.1470   28.2110   43.4310 O   0  0  0  0  0  0  0  0  0  0  0  0
   58.8170   27.9000   45.6380 N   0  0  0  0  0  0  0  0  0  0  0  0
   58.1090   27.2050   46.7100 C   0  0  2  0  0  0  0  0  0  0  0  0
   58.6390   27.6590   48.0810 C   0  0  0  0  0  0  0  0  0  0  0  0
   60.1820   27.6900   48.1770 C   0  0  0  0  0  0  0  0  0  0  0  0
   60.7630   28.4180   49.4070 C   0  0  0  0  0  0  0  0  0  0  0  0
   60.1660   29.8180   49.6070 C   0  0  0  0  0  0  0  0  0  0  0  0
   59.9560   30.4870   48.3260 N   0  0  0  0  0  0  0  0  0  0  0  0
   61.0030   30.7030   47.3750 C   0  0  0  0  0  0  0  0  0  0  0  0
   60.7510   30.6010   46.1450 O   0  0  0  0  0  0  0  0  0  0  0  0
   62.2910   31.0360   47.8140 O   0  0  0  0  0  0  0  0  0  0  0  0
   62.9160   32.2920   47.5500 C   0  0  0  0  0  0  0  0  0  0  0  0
   63.5150   32.8430   48.8150 C   0  0  0  0  0  0  0  0  0  0  0  0
   62.8050   33.7960   49.5650 C   0  0  0  0  0  0  0  0  0  0  0  0
   63.3450   34.3080   50.7500 C   0  0  0  0  0  0  0  0  0  0  0  0
   64.5930   33.8660   51.1970 C   0  0  0  0  0  0  0  0  0  0  0  0
   65.3010   32.9100   50.4610 C   0  0  0  0  0  0  0  0  0  0  0  0
   64.7650   32.3960   49.2730 C   0  0  0  0  0  0  0  0  0  0  0  0
   58.3040   25.7250   46.5420 C   0  0  0  0  0  0  0  0  0  0  0  0
   59.4580   25.2650   46.3200 O   0  0  0  0  0  0  0  0  0  0  0  0
   57.1760   24.8440   46.6310 N   0  0  0  0  0  0  0  0  0  0  0  0
   56.2390   24.6180   45.5380 C   0  0  2  0  0  0  0  0  0  0  0  0
   56.9020   24.9270   44.1890 C   0  0  0  0  0  0  0  0  0  0  0  0
   55.0320   25.4830   45.7440 C   0  0  0  0  0  0  0  0  0  0  0  0
   55.1640   26.7110   45.9900 O   0  0  0  0  0  0  0  0  0  0  0  0
   53.7590   24.9220   45.6970 O   0  0  0  0  0  0  0  0  0  0  0  0
   56.6170   32.8060   41.7937 H   0  0  0  0  0  0  0  0  0  0  0  0
   58.1887   32.4418   41.0038 H   0  0  0  0  0  0  0  0  0  0  0  0
   56.8775   31.2139   41.0038 H   0  0  0  0  0  0  0  0  0  0  0  0
   58.7162   30.7658   42.6743 H   0  0  0  0  0  0  0  0  0  0  0  0
   58.2026   32.3078   43.5139 H   0  0  0  0  0  0  0  0  0  0  0  0
   56.1639   31.4448   44.1556 H   0  0  0  0  0  0  0  0  0  0  0  0
   55.4263   29.0428   43.4065 H   0  0  0  0  0  0  0  0  0  0  0  0
   55.3517   30.3381   42.1642 H   0  0  0  0  0  0  0  0  0  0  0  0
   56.7174   29.1713   42.1642 H   0  0  0  0  0  0  0  0  0  0  0  0
   56.4873   29.5294   45.5173 H   0  0  0  0  0  0  0  0  0  0  0  0
   58.9960   30.4350   46.3260 H   0  0  0  0  0  0  0  0  0  0  0  0
   59.6195   33.8129   44.8977 H   0  0  0  0  0  0  0  0  0  0  0  0
   61.0804   35.4691   46.0507 H   0  0  0  0  0  0  0  0  0  0  0  0
   60.9880   35.7045   48.5315 H   0  0  0  0  0  0  0  0  0  0  0  0
   59.4756   34.2463   49.8702 H   0  0  0  0  0  0  0  0  0  0  0  0
   58.1470   31.3430   49.1370 H   0  0  0  0  0  0  0  0  0  0  0  0
   57.0340   32.6940   49.4500 H   0  0  0  0  0  0  0  0  0  0  0  0
   57.0366   27.4446   46.6592 H   0  0  0  0  0  0  0  0  0  0  0  0
   58.2591   28.6717   48.2812 H   0  0  0  0  0  0  0  0  0  0  0  0
   58.2878   26.9228   48.8190 H   0  0  0  0  0  0  0  0  0  0  0  0
   60.5398   26.6501   48.2000 H   0  0  0  0  0  0  0  0  0  0  0  0
   60.5247   28.2614   47.3018 H   0  0  0  0  0  0  0  0  0  0  0  0
   60.5538   27.8155   50.3032 H   0  0  0  0  0  0  0  0  0  0  0  0
   61.8434   28.5396   49.2399 H   0  0  0  0  0  0  0  0  0  0  0  0
   59.2010   29.7263   50.1270 H   0  0  0  0  0  0  0  0  0  0  0  0
   60.8705   30.4168   50.2029 H   0  0  0  0  0  0  0  0  0  0  0  0
   63.7096   32.1540   46.8009 H   0  0  0  0  0  0  0  0  0  0  0  0
   62.1630   32.9977   47.1691 H   0  0  0  0  0  0  0  0  0  0  0  0
   61.8197   34.1413   49.2187 H   0  0  0  0  0  0  0  0  0  0  0  0
   62.7872   35.0583   51.3296 H   0  0  0  0  0  0  0  0  0  0  0  0
   65.0186   34.2698   52.1275 H   0  0  0  0  0  0  0  0  0  0  0  0
   66.2817   32.5607   50.8162 H   0  0  0  0  0  0  0  0  0  0  0  0
   65.3235   31.6421   48.6988 H   0  0  0  0  0  0  0  0  0  0  0  0
   55.9335   23.5613   45.5285 H   0  0  0  0  0  0  0  0  0  0  0  0
   57.8868   25.3860   44.3610 H   0  0  0  0  0  0  0  0  0  0  0  0
   57.0267   23.9942   43.6195 H   0  0  0  0  0  0  0  0  0  0  0  0
   56.2678   25.6223   43.6195 H   0  0  0  0  0  0  0  0  0  0  0  0
  1  2  1  0
  2  3  1  0
  3  4  1  0
  3  5  1  0
  5  6  1  0
  6  7  1  0
  7  8  2  0
  7  9  1  0
  9 10  2  0
 10 11  1  0
 11 12  2  0
 12 13  1  0
 13 14  2  0
 14 15  1  0
  5 16  1  0
 16 17  2  0
 16 18  1  0
 18 19  1  0
 19 20  1  0
 20 21  1  0
 21 22  1  0
 22 23  1  0
 23 24  1  0
 24 25  1  0
 25 26  2  0
 25 27  1  0
 27 28  1  0
 28 29  1  0
 29 30  2  0
 30 31  1  0
 31 32  2  0
 32 33  1  0
 33 34  2  0
 19 35  1  0
 35 36  2  0
 35 37  1  0
 37 38  1  0
 38 39  1  0
 38 40  1  0
 40 41  2  0
 40 42  1  0
 14  9  1  0
 34 29  1  0
  1 43  1  0
  1 44  1  0
  1 45  1  0
  2 46  1  0
  2 47  1  0
  3 48  1  1
  4 49  1  0
  4 50  1  0
  4 51  1  0
  5 52  1  1
  6 53  1  0
 10 54  1  0
 11 55  1  0
 12 56  1  0
 13 57  1  0
 15 58  1  0
 15 59  1  0
 19 60  1  1
 20 61  1  0
 20 62  1  0
 21 63  1  0
 21 64  1  0
 22 65  1  0
 22 66  1  0
 23 67  1  0
 23 68  1  0
 28 69  1  0
 28 70  1  0
 30 71  1  0
 31 72  1  0
 32 73  1  0
 33 74  1  0
 34 75  1  0
 38 76  1  6
 39 77  1  0
 39 78  1  0
 39 79  1  0
M  CHG  4  18  -1  24  -1  37  -1  42  -1
M  END
>  <UniqueID>  (49) 
44

>  <SMILES>  (49) 
CC[C@@H](C)[C@H](NC(=O)c1ccccc1N)C(=O)[N-]C(CCCC[N-]C(=O)OCc1ccccc1)C(=O)[N-]C(C)C(=O)[O-]

>  <Energy>  (49) 
61.367513647374324

>  <Genealogy>  (49) 
CCC(C)C(NC(=O)c1ccccc1N)C(=O)[N-]C(CCCC[N-]C(=O)OCc1ccccc1)C(=O)[N-]C(C)C(=O)[O-] (protonated)
CC[C@@H](C)[C@H](NC(=O)c1ccccc1N)C(=O)[N-]C(CCCC[N-]C(=O)OCc1ccccc1)C(=O)[N-]C(C)C(=O)[O-] (chirality)
CC[C@@H](C)[C@H](NC(=O)c1ccccc1N)C(=O)[N-]C(CCCC[N-]C(=O)OCc1ccccc1)C(=O)[N-]C(C)C(=O)[O-] (3D coordinates assigned)
CC[C@@H](C)[C@H](NC(=O)c1ccccc1N)C(=O)[N-]C(CCCC[N-]C(=O)OCc1ccccc1)C(=O)[N-]C(C)C(=O)[O-] (optimized conformer: 61.367513647374324 kcal/mol)

>  <smiles>  (49) 
CCC(C)C(NC(=O)c1ccccc1N)C(=O)NC(CCCCNC(=O)OCc1ccccc1)C(=O)NC(C)C(=O)O

>  <score_type>  (49) 
oracle

>  <origin>  (49) 
adg

>  <m_score__min__energy>  (49) 
-16.379999999999999

>  <m_primary>  (49) 
energy

$$$$
49:0
     RDKit          3D

 31 33  0  0  0  0  0  0  0  0999 V2000
   57.7650   32.3410   43.1750 C   0  0  0  0  0  0  0  0  0  0  0  0
   58.2060   32.7940   44.4830 C   0  0  0  0  0  0  0  0  0  0  0  0
   58.7840   34.4610   44.8610 S   0  0  0  0  0  0  0  0  0  0  0  0
   59.0820   34.1270   46.5450 C   0  0  0  0  0  0  0  0  0  0  0  0
   59.5250   34.9650   47.4890 N   0  0  0  0  0  0  0  0  0  0  0  0
   59.6730   34.5480   48.7750 C   0  0  0  0  0  0  0  0  0  0  0  0
   59.3550   33.2860   49.0230 N   0  0  0  0  0  0  0  0  0  0  0  0
   58.9050   32.4080   48.0960 C   0  0  0  0  0  0  0  0  0  0  0  0
   58.6490   31.2620   48.5120 O   0  0  0  0  0  0  0  0  0  0  0  0
   58.7440   32.8060   46.7530 C   0  0  0  0  0  0  0  0  0  0  0  0
   58.2920   32.0960   45.7080 C   0  0  0  0  0  0  0  0  0  0  0  0
   57.8410   30.6710   45.6460 C   0  0  0  0  0  0  0  0  0  0  0  0
   56.8730   30.4780   44.8710 O   0  0  0  0  0  0  0  0  0  0  0  0
   58.4250   29.6260   46.3660 N   0  0  0  0  0  0  0  0  0  0  0  0
   58.0250   28.2680   46.3560 C   0  0  0  0  0  0  0  0  0  0  0  0
   57.0300   27.7310   45.5970 C   0  0  0  0  0  0  0  0  0  0  0  0
   56.6910   26.3720   45.6410 C   0  0  0  0  0  0  0  0  0  0  0  0
   57.3720   25.5230   46.4770 C   0  0  0  0  0  0  0  0  0  0  0  0
   58.3700   26.0330   47.2460 C   0  0  0  0  0  0  0  0  0  0  0  0
   58.7000   27.3700   47.1970 C   0  0  0  0  0  0  0  0  0  0  0  0
   57.0024   31.5576   43.2962 H   0  0  0  0  0  0  0  0  0  0  0  0
   57.3358   33.1877   42.6192 H   0  0  0  0  0  0  0  0  0  0  0  0
   58.6229   31.9347   42.6192 H   0  0  0  0  0  0  0  0  0  0  0  0
   60.0366   35.2212   49.5654 H   0  0  0  0  0  0  0  0  0  0  0  0
   59.4650   32.9560   50.0180 H   0  0  0  0  0  0  0  0  0  0  0  0
   59.2760   29.8490   46.9450 H   0  0  0  0  0  0  0  0  0  0  0  0
   56.4685   28.3922   44.9206 H   0  0  0  0  0  0  0  0  0  0  0  0
   55.8799   25.9861   45.0061 H   0  0  0  0  0  0  0  0  0  0  0  0
   57.1160   24.4542   46.5237 H   0  0  0  0  0  0  0  0  0  0  0  0
   58.9253   25.3651   47.9209 H   0  0  0  0  0  0  0  0  0  0  0  0
   59.5148   27.7436   47.8346 H   0  0  0  0  0  0  0  0  0  0  0  0
  1  2  1  0
  2  3  1  0
  3  4  1  0
  4  5  1  0
  5  6  2  0
  6  7  1  0
  7  8  1  0
  8  9  2  0
  8 10  1  0
 10 11  1  0
 11 12  1  0
 12 13  2  0
 12 14  1  0
 14 15  1  0
 15 16  2  0
 16 17  1  0
 17 18  2  0
 18 19  1  0
 19 20  2  0
 11  2  2  0
 20 15  1  0
 10  4  2  0
  1 21  1  0
  1 22  1  0
  1 23  1  0
  6 24  1  0
  7 25  1  0
 14 26  1  0
 16 27  1  0
 17 28  1  0
 18 29  1  0
 19 30  1  0
 20 31  1  0
M  END
>  <smiles>  (50) 
Cc1sc2nc[nH]c(=O)c2c1C(=O)Nc1ccccc1

>  <score_type>  (50) 
oracle

>  <origin>  (50) 
adg

>  <m_score__min__energy>  (50) 
-6.6699999999999999

>  <m_primary>  (50) 
energy

$$$$
50:0
     RDKit          3D

 34 35  0  0  0  0  0  0  0  0999 V2000
   56.8620   20.7830   47.9640 H   0  0  0  0  0  0  0  0  0  0  0  0
   57.3280   21.0850   47.0790 N   0  0  0  0  0  0  0  0  0  0  0  0
   57.4000   22.3340   46.7410 C   0  0  0  0  0  0  0  0  0  0  0  0
   57.3380   23.2930   47.7030 N   0  0  0  0  0  0  0  0  0  0  0  0
   57.4230   24.6180   47.4130 C   0  0  0  0  0  0  0  0  0  0  0  0
   57.3661   25.3602   48.2229 H   0  0  0  0  0  0  0  0  0  0  0  0
   57.5830   25.0440   46.0860 C   0  0  0  0  0  0  0  0  0  0  0  0
   57.6850   26.4880   45.7570 C   0  0  0  0  0  0  0  0  0  0  0  0
   57.7390   26.9160   44.4180 C   0  0  0  0  0  0  0  0  0  0  0  0
   57.7062   26.1741   43.6066 H   0  0  0  0  0  0  0  0  0  0  0  0
   57.8340   28.2760   44.1100 C   0  0  0  0  0  0  0  0  0  0  0  0
   57.8704   28.5986   43.0590 H   0  0  0  0  0  0  0  0  0  0  0  0
   57.8830   29.2300   45.1350 C   0  0  0  0  0  0  0  0  0  0  0  0
   57.9850   30.9440   44.7450 S   0  0  0  0  0  0  0  0  0  0  0  0
   56.6210   31.5690   44.8330 O   0  0  0  0  0  0  0  0  0  0  0  0
   58.5060   31.1180   43.3460 O   0  0  0  0  0  0  0  0  0  0  0  0
   59.0810   31.7450   45.8920 C   0  0  0  0  0  0  0  0  0  0  0  0
   58.7667   31.5153   46.9208 H   0  0  0  0  0  0  0  0  0  0  0  0
   60.1073   31.3826   45.7326 H   0  0  0  0  0  0  0  0  0  0  0  0
   59.0474   32.8329   45.7326 H   0  0  0  0  0  0  0  0  0  0  0  0
   57.8230   28.8130   46.4700 C   0  0  0  0  0  0  0  0  0  0  0  0
   57.8516   29.5584   47.2784 H   0  0  0  0  0  0  0  0  0  0  0  0
   57.7270   27.4540   46.7800 C   0  0  0  0  0  0  0  0  0  0  0  0
   57.6839   27.1363   47.8322 H   0  0  0  0  0  0  0  0  0  0  0  0
   57.6490   24.0700   45.0760 C   0  0  0  0  0  0  0  0  0  0  0  0
   57.7836   24.3796   44.0291 H   0  0  0  0  0  0  0  0  0  0  0  0
   57.5450   22.7060   45.3890 C   0  0  0  0  0  0  0  0  0  0  0  0
   57.6580   21.6770   44.2870 C   0  0  0  0  0  0  0  0  0  0  0  0
   56.9273   21.9105   43.4986 H   0  0  0  0  0  0  0  0  0  0  0  0
   58.6798   21.7048   43.8806 H   0  0  0  0  0  0  0  0  0  0  0  0
   57.3940   20.3350   44.8040 N   0  0  0  0  0  0  0  0  0  0  0  0
   56.5120   20.3340   45.3670 H   0  0  0  0  0  0  0  0  0  0  0  0
   58.1940   20.0170   45.3990 H   0  0  0  0  0  0  0  0  0  0  0  0
   57.2840   19.6740   44.0020 H   0  0  0  0  0  0  0  0  0  0  0  0
  1  2  1  0
  2  3  2  0
  3  4  1  0
  4  5  1  0
  5  6  1  0
  5  7  2  0
  7  8  1  0
  8  9  2  0
  9 10  1  0
  9 11  1  0
 11 12  1  0
 11 13  2  0
 13 14  1  0
 14 15  2  0
 14 16  2  0
 14 17  1  0
 17 18  1  0
 17 19  1  0
 17 20  1  0
 13 21  1  0
 21 22  1  0
 21 23  2  0
 23 24  1  0
  7 25  1  0
 25 26  1  0
 25 27  2  0
 27 28  1  0
 28 29  1  0
 28 30  1  0
 28 31  1  0
 31 32  1  0
 31 33  1  0
 31 34  1  0
 27  3  1  0
 23  8  1  0
M  CHG  2   4  -1  31   1
M  END
>  <UniqueID>  (51) 
45

>  <SMILES>  (51) 
[H]/N=c1\[n-]cc(-c2ccc(S(C)(=O)=O)cc2)cc1C[NH3+]

>  <Energy>  (51) 
36.83845133267511

>  <Genealogy>  (51) 
CS(=O)(=O)c1ccc(-c2c[n-]c(=N)c(C[NH3+])c2)cc1 (protonated)
[H]/N=c1\[n-]cc(-c2ccc(S(C)(=O)=O)cc2)cc1C[NH3+] (cis-trans isomerization)
[H]/N=c1\[n-]cc(-c2ccc(S(C)(=O)=O)cc2)cc1C[NH3+] (3D coordinates assigned)
[H]/N=c1\[n-]cc(-c2ccc(S(C)(=O)=O)cc2)cc1C[NH3+] (optimized conformer: 36.83845133267511 kcal/mol)

>  <smiles>  (51) 
CS(=O)(=O)c1ccc(-c2c[nH]c(=N)c(CN)c2)cc1

>  <score_type>  (51) 
oracle

>  <origin>  (51) 
adg

>  <m_score__min__energy>  (51) 
-7.3300000000000001

>  <m_primary>  (51) 
energy

$$$$
51:0
     RDKit          3D

 40 42  0  0  0  0  0  0  0  0999 V2000
   57.7815   25.7346   45.6535 H   0  0  0  0  0  0  0  0  0  0  0  0
   57.7760   26.8050   45.4000 C   0  0  0  0  0  0  0  0  0  0  0  0
   57.7800   27.2070   44.0600 C   0  0  0  0  0  0  0  0  0  0  0  0
   57.7942   26.4521   43.2601 H   0  0  0  0  0  0  0  0  0  0  0  0
   57.7660   28.5680   43.7360 C   0  0  0  0  0  0  0  0  0  0  0  0
   57.7777   28.8816   42.6817 H   0  0  0  0  0  0  0  0  0  0  0  0
   57.7370   29.5340   44.7540 C   0  0  0  0  0  0  0  0  0  0  0  0
   57.7480   30.9740   44.4200 C   0  0  0  0  0  0  0  0  0  0  0  0
   57.4770   31.9090   45.4770 N   0  0  0  0  0  0  0  0  0  0  0  0
   57.0820   31.5520   46.3750 H   0  0  0  0  0  0  0  0  0  0  0  0
   58.0760   33.5370   45.4730 S   0  0  0  0  0  0  0  0  0  0  0  0
   58.5820   33.8730   44.0990 O   0  0  0  0  0  0  0  0  0  0  0  0
   56.9610   34.4800   45.8290 O   0  0  0  0  0  0  0  0  0  0  0  0
   59.3570   33.7000   46.6720 C   0  0  0  0  0  0  0  0  0  0  0  0
   59.0350   34.0740   47.9830 C   0  0  0  0  0  0  0  0  0  0  0  0
   57.9889   34.2847   48.2501 H   0  0  0  0  0  0  0  0  0  0  0  0
   60.0340   34.1810   48.9530 C   0  0  0  0  0  0  0  0  0  0  0  0
   59.7714   34.4708   49.9811 H   0  0  0  0  0  0  0  0  0  0  0  0
   61.3710   33.9200   48.6200 C   0  0  0  0  0  0  0  0  0  0  0  0
   62.3830   34.0240   49.5870 C   0  0  0  0  0  0  0  0  0  0  0  0
   62.1300   34.3129   50.6178 H   0  0  0  0  0  0  0  0  0  0  0  0
   63.7120   33.7610   49.2420 C   0  0  0  0  0  0  0  0  0  0  0  0
   64.5024   33.8440   50.0025 H   0  0  0  0  0  0  0  0  0  0  0  0
   64.0400   33.3930   47.9340 C   0  0  0  0  0  0  0  0  0  0  0  0
   65.0875   33.1870   47.6687 H   0  0  0  0  0  0  0  0  0  0  0  0
   63.0410   33.2860   46.9620 C   0  0  0  0  0  0  0  0  0  0  0  0
   63.3041   32.9959   45.9341 H   0  0  0  0  0  0  0  0  0  0  0  0
   61.7030   33.5480   47.2950 C   0  0  0  0  0  0  0  0  0  0  0  0
   60.6910   33.4420   46.3270 C   0  0  0  0  0  0  0  0  0  0  0  0
   60.9457   33.1559   45.2958 H   0  0  0  0  0  0  0  0  0  0  0  0
   57.9680   31.3900   43.1980 N   0  0  0  0  0  0  0  0  0  0  0  0
   58.8410   31.9170   42.9780 H   0  0  0  0  0  0  0  0  0  0  0  0
   57.0160   31.2320   42.0980 C   0  0  0  0  0  0  0  0  0  0  0  0
   56.0084   31.0648   42.5063 H   0  0  0  0  0  0  0  0  0  0  0  0
   57.0149   32.1423   41.4804 H   0  0  0  0  0  0  0  0  0  0  0  0
   57.3090   30.3702   41.4804 H   0  0  0  0  0  0  0  0  0  0  0  0
   57.7510   29.1260   46.0970 C   0  0  0  0  0  0  0  0  0  0  0  0
   57.7510   29.8785   46.8993 H   0  0  0  0  0  0  0  0  0  0  0  0
   57.7650   27.7650   46.4170 C   0  0  0  0  0  0  0  0  0  0  0  0
   57.7674   27.4487   47.4706 H   0  0  0  0  0  0  0  0  0  0  0  0
  1  2  1  0
  2  3  2  0
  3  4  1  0
  3  5  1  0
  5  6  1  0
  5  7  2  0
  7  8  1  0
  8  9  1  0
  9 10  1  0
  9 11  1  0
 11 12  2  0
 11 13  2  0
 11 14  1  0
 14 15  2  0
 15 16  1  0
 15 17  1  0
 17 18  1  0
 17 19  2  0
 19 20  1  0
 20 21  1  0
 20 22  2  0
 22 23  1  0
 22 24  1  0
 24 25  1  0
 24 26  2  0
 26 27  1  0
 26 28  1  0
 28 29  2  0
 29 30  1  0
  8 31  2  0
 31 32  1  0
 31 33  1  0
 33 34  1  0
 33 35  1  0
 33 36  1  0
  7 37  1  0
 37 38  1  0
 37 39  2  0
 39 40  1  0
 39  2  1  0
 29 14  1  0
 28 19  1  0
M  CHG  1  31   1
M  END
>  <UniqueID>  (52) 
46

>  <SMILES>  (52) 
C/[NH+]=C(/NS(=O)(=O)c1ccc2ccccc2c1)c1ccccc1

>  <Energy>  (52) 
53.41529885539602

>  <Genealogy>  (52) 
C[NH+]=C(NS(=O)(=O)c1ccc2ccccc2c1)c1ccccc1 (protonated)
C/[NH+]=C(/NS(=O)(=O)c1ccc2ccccc2c1)c1ccccc1 (cis-trans isomerization)
C/[NH+]=C(/NS(=O)(=O)c1ccc2ccccc2c1)c1ccccc1 (3D coordinates assigned)
C/[NH+]=C(/NS(=O)(=O)c1ccc2ccccc2c1)c1ccccc1 (optimized conformer: 53.41529885539602 kcal/mol)

>  <smiles>  (52) 
CN=C(NS(=O)(=O)c1ccc2ccccc2c1)c1ccccc1

>  <score_type>  (52) 
oracle

>  <origin>  (52) 
adg

>  <m_score__min__energy>  (52) 
-6.5300000000000002

>  <m_primary>  (52) 
energy

$$$$
52:0
     RDKit          3D

 48 50  0  0  0  0  0  0  0  0999 V2000
   55.7670   26.7110   45.9670 C   0  0  0  0  0  0  0  0  0  0  0  0
   57.2740   26.5690   45.9020 C   0  0  0  0  0  0  0  0  0  0  0  0
   58.0750   27.6940   45.5580 C   0  0  0  0  0  0  0  0  0  0  0  0
   57.4860   28.9640   45.0740 C   0  0  0  0  0  0  0  0  0  0  0  0
   56.4370   29.4100   45.6150 O   0  0  0  0  0  0  0  0  0  0  0  0
   58.0930   29.6820   43.9890 N   0  0  0  0  0  0  0  0  0  0  0  0
   57.5960   30.9780   43.5330 C   0  0  0  0  0  0  0  0  0  0  0  0
   58.0260   32.0620   44.4840 C   0  0  0  0  0  0  0  0  0  0  0  0
   57.7820   33.4090   44.1680 C   0  0  0  0  0  0  0  0  0  0  0  0
   58.2060   34.4230   45.0320 C   0  0  0  0  0  0  0  0  0  0  0  0
   58.8800   34.1000   46.2140 C   0  0  0  0  0  0  0  0  0  0  0  0
   59.2930   35.0850   47.0490 F   0  0  0  0  0  0  0  0  0  0  0  0
   59.1310   32.7630   46.5320 C   0  0  0  0  0  0  0  0  0  0  0  0
   58.7080   31.7460   45.6700 C   0  0  0  0  0  0  0  0  0  0  0  0
   59.4700   27.6060   45.6500 C   0  0  0  0  0  0  0  0  0  0  0  0
   60.0770   26.4240   46.0550 C   0  0  0  0  0  0  0  0  0  0  0  0
   59.3070   25.2980   46.3310 C   0  0  0  0  0  0  0  0  0  0  0  0
   57.9070   25.3310   46.2130 C   0  0  0  0  0  0  0  0  0  0  0  0
   56.9620   23.8400   46.5150 S   0  0  0  0  0  0  0  0  0  0  0  0
   55.6540   24.2130   47.1550 O   0  0  0  0  0  0  0  0  0  0  0  0
   57.7350   22.9800   47.4760 O   0  0  0  0  0  0  0  0  0  0  0  0
   56.5580   22.8970   45.0980 N   0  0  0  0  0  0  0  0  0  0  0  0
   57.4220   21.7130   44.9370 C   0  0  0  0  0  0  0  0  0  0  0  0
   57.4200   21.2180   43.4830 C   0  0  0  0  0  0  0  0  0  0  0  0
   56.1610   21.4690   42.8940 O   0  0  0  0  0  0  0  0  0  0  0  0
   55.9800   22.8620   42.6930 C   0  0  0  0  0  0  0  0  0  0  0  0
   56.4480   23.7250   43.8870 C   0  0  0  0  0  0  0  0  0  0  0  0
   55.4466   26.7412   47.0189 H   0  0  0  0  0  0  0  0  0  0  0  0
   55.4644   27.6416   45.4647 H   0  0  0  0  0  0  0  0  0  0  0  0
   55.2959   25.8533   45.4647 H   0  0  0  0  0  0  0  0  0  0  0  0
   58.9590   29.3030   43.5440 H   0  0  0  0  0  0  0  0  0  0  0  0
   58.0003   31.1908   42.5324 H   0  0  0  0  0  0  0  0  0  0  0  0
   56.4971   30.9484   43.4949 H   0  0  0  0  0  0  0  0  0  0  0  0
   57.2554   33.6668   43.2373 H   0  0  0  0  0  0  0  0  0  0  0  0
   58.0093   35.4760   44.7818 H   0  0  0  0  0  0  0  0  0  0  0  0
   59.6620   32.5098   47.4615 H   0  0  0  0  0  0  0  0  0  0  0  0
   58.9104   30.6946   45.9221 H   0  0  0  0  0  0  0  0  0  0  0  0
   60.0896   28.4797   45.3996 H   0  0  0  0  0  0  0  0  0  0  0  0
   61.1712   26.3778   46.1580 H   0  0  0  0  0  0  0  0  0  0  0  0
   59.8020   24.3677   46.6464 H   0  0  0  0  0  0  0  0  0  0  0  0
   58.4503   21.9773   45.2247 H   0  0  0  0  0  0  0  0  0  0  0  0
   57.0343   20.9087   45.5795 H   0  0  0  0  0  0  0  0  0  0  0  0
   58.2004   21.7468   42.9161 H   0  0  0  0  0  0  0  0  0  0  0  0
   57.6192   20.1363   43.4673 H   0  0  0  0  0  0  0  0  0  0  0  0
   56.5511   23.1620   41.8020 H   0  0  0  0  0  0  0  0  0  0  0  0
   54.8999   23.0334   42.5746 H   0  0  0  0  0  0  0  0  0  0  0  0
   57.4300   24.1636   43.6559 H   0  0  0  0  0  0  0  0  0  0  0  0
   55.7128   24.5240   44.0632 H   0  0  0  0  0  0  0  0  0  0  0  0
  1  2  1  0
  2  3  2  0
  3  4  1  0
  4  5  2  0
  4  6  1  0
  6  7  1  0
  7  8  1  0
  8  9  2  0
  9 10  1  0
 10 11  2  0
 11 12  1  0
 11 13  1  0
 13 14  2  0
  3 15  1  0
 15 16  2  0
 16 17  1  0
 17 18  2  0
 18 19  1  0
 19 20  2  0
 19 21  2  0
 19 22  1  0
 22 23  1  0
 23 24  1  0
 24 25  1  0
 25 26  1  0
 26 27  1  0
 18  2  1  0
 27 22  1  0
 14  8  1  0
  1 28  1  0
  1 29  1  0
  1 30  1  0
  6 31  1  0
  7 32  1  0
  7 33  1  0
  9 34  1  0
 10 35  1  0
 13 36  1  0
 14 37  1  0
 15 38  1  0
 16 39  1  0
 17 40  1  0
 23 41  1  0
 23 42  1  0
 24 43  1  0
 24 44  1  0
 26 45  1  0
 26 46  1  0
 27 47  1  0
 27 48  1  0
M  END
>  <UniqueID>  (53) 
47

>  <SMILES>  (53) 
Cc1c(C(=O)NCc2ccc(F)cc2)cccc1S(=O)(=O)N1CCOCC1

>  <Energy>  (53) 
68.73985977429386

>  <Genealogy>  (53) 
Cc1c(C(=O)NCc2ccc(F)cc2)cccc1S(=O)(=O)N1CCOCC1 (3D coordinates assigned)
Cc1c(C(=O)NCc2ccc(F)cc2)cccc1S(=O)(=O)N1CCOCC1 (nonaromatic ring conformer: 68.73985977429386 kcal/mol)

>  <smiles>  (53) 
Cc1c(C(=O)NCc2ccc(F)cc2)cccc1S(=O)(=O)N1CCOCC1

>  <score_type>  (53) 
oracle

>  <origin>  (53) 
adg

>  <m_score__min__energy>  (53) 
-9.1400000000000006

>  <m_primary>  (53) 
energy

$$$$
53:0
     RDKit          3D

 32 33  0  0  0  0  0  0  0  0999 V2000
   57.8445   31.7370   43.1662 H   0  0  0  0  0  0  0  0  0  0  0  0
   57.2940   31.6340   44.1130 C   0  0  0  0  0  0  0  0  0  0  0  0
   56.8110   30.2940   44.5070 C   0  0  0  0  0  0  0  0  0  0  0  0
   55.5670   30.0880   44.5160 O   0  0  0  0  0  0  0  0  0  0  0  0
   57.7190   29.1900   44.8930 C   0  0  0  0  0  0  0  0  0  0  0  0
   59.1090   29.3640   44.7750 C   0  0  0  0  0  0  0  0  0  0  0  0
   59.5110   30.3132   44.3911 H   0  0  0  0  0  0  0  0  0  0  0  0
   59.9830   28.3370   45.1430 C   0  0  0  0  0  0  0  0  0  0  0  0
   61.0690   28.4763   45.0368 H   0  0  0  0  0  0  0  0  0  0  0  0
   59.4810   27.1350   45.6450 C   0  0  0  0  0  0  0  0  0  0  0  0
   60.1707   26.3258   45.9271 H   0  0  0  0  0  0  0  0  0  0  0  0
   58.1020   26.9600   45.7890 C   0  0  0  0  0  0  0  0  0  0  0  0
   57.7086   26.0154   46.1926 H   0  0  0  0  0  0  0  0  0  0  0  0
   57.2210   27.9810   45.4220 C   0  0  0  0  0  0  0  0  0  0  0  0
   55.8890   27.8030   45.6130 F   0  0  0  0  0  0  0  0  0  0  0  0
   57.0910   32.7290   44.8580 C   0  0  0  0  0  0  0  0  0  0  0  0
   56.0949   33.1955   44.8483 H   0  0  0  0  0  0  0  0  0  0  0  0
   58.1500   33.3370   45.6930 C   0  0  0  0  0  0  0  0  0  0  0  0
   58.6630   34.5850   45.3020 C   0  0  0  0  0  0  0  0  0  0  0  0
   58.2765   35.0738   44.3955 H   0  0  0  0  0  0  0  0  0  0  0  0
   59.6590   35.2100   46.0540 C   0  0  0  0  0  0  0  0  0  0  0  0
   60.0453   36.1925   45.7451 H   0  0  0  0  0  0  0  0  0  0  0  0
   60.1650   34.5910   47.1960 C   0  0  0  0  0  0  0  0  0  0  0  0
   60.9418   35.0909   47.7932 H   0  0  0  0  0  0  0  0  0  0  0  0
   59.6870   33.3370   47.5830 C   0  0  0  0  0  0  0  0  0  0  0  0
   60.0935   32.8520   48.4827 H   0  0  0  0  0  0  0  0  0  0  0  0
   58.6880   32.6880   46.8300 C   0  0  0  0  0  0  0  0  0  0  0  0
   58.2350   31.4010   47.1670 O   0  0  0  0  0  0  0  0  0  0  0  0
   58.9170   30.5040   48.0380 C   0  0  0  0  0  0  0  0  0  0  0  0
   58.7087   30.7780   49.0828 H   0  0  0  0  0  0  0  0  0  0  0  0
   58.5696   29.4770   47.8520 H   0  0  0  0  0  0  0  0  0  0  0  0
   59.9995   30.5642   47.8520 H   0  0  0  0  0  0  0  0  0  0  0  0
  1  2  1  0
  2  3  1  0
  3  4  2  0
  3  5  1  0
  5  6  2  0
  6  7  1  0
  6  8  1  0
  8  9  1  0
  8 10  2  0
 10 11  1  0
 10 12  1  0
 12 13  1  0
 12 14  2  0
 14 15  1  0
  2 16  2  0
 16 17  1  0
 16 18  1  0
 18 19  2  0
 19 20  1  0
 19 21  1  0
 21 22  1  0
 21 23  2  0
 23 24  1  0
 23 25  1  0
 25 26  1  0
 25 27  2  0
 27 28  1  0
 28 29  1  0
 29 30  1  0
 29 31  1  0
 29 32  1  0
 14  5  1  0
 27 18  1  0
M  END
>  <UniqueID>  (54) 
48

>  <SMILES>  (54) 
COc1ccccc1/C=C/C(=O)c1ccccc1F

>  <Energy>  (54) 
42.42160517664586

>  <Genealogy>  (54) 
COc1ccccc1/C=C/C(=O)c1ccccc1F (cis-trans isomerization)
COc1ccccc1/C=C/C(=O)c1ccccc1F (3D coordinates assigned)
COc1ccccc1/C=C/C(=O)c1ccccc1F (optimized conformer: 42.42160517664586 kcal/mol)

>  <smiles>  (54) 
COc1ccccc1C=CC(=O)c1ccccc1F

>  <score_type>  (54) 
oracle

>  <origin>  (54) 
adg

>  <m_score__min__energy>  (54) 
-7.3099999999999996

>  <m_primary>  (54) 
energy

$$$$
54:0
     RDKit          3D

 46 48  0  0  0  0  0  0  0  0999 V2000
   64.9690   32.6690   49.7350 C   0  0  0  0  0  0  0  0  0  0  0  0
   63.7730   32.7720   48.8370 C   0  0  0  0  0  0  0  0  0  0  0  0
   62.6800   31.9110   49.0130 C   0  0  0  0  0  0  0  0  0  0  0  0
   61.5810   31.9810   48.1520 C   0  0  0  0  0  0  0  0  0  0  0  0
   61.5720   32.8910   47.0860 C   0  0  0  0  0  0  0  0  0  0  0  0
   60.4330   32.9390   46.2120 N   0  0  0  0  0  0  0  0  0  0  0  0
   59.8000   34.1650   45.8100 C   0  0  0  0  0  0  0  0  0  0  0  0
   60.1240   35.2620   46.3430 O   0  0  0  0  0  0  0  0  0  0  0  0
   58.7900   34.1640   44.7010 C   0  0  0  0  0  0  0  0  0  0  0  0
   57.1190   33.7280   45.3090 S   0  0  0  0  0  0  0  0  0  0  0  0
   57.3270   31.9590   45.1120 C   0  0  0  0  0  0  0  0  0  0  0  0
   58.5520   31.3960   45.2590 N   0  0  0  0  0  0  0  0  0  0  0  0
   58.7250   30.0560   45.1250 C   0  0  0  0  0  0  0  0  0  0  0  0
   59.8760   29.5620   45.2590 O   0  0  0  0  0  0  0  0  0  0  0  0
   57.6310   29.2320   44.8220 C   0  0  0  0  0  0  0  0  0  0  0  0
   57.8440   27.8240   44.6290 N   0  0  0  0  0  0  0  0  0  0  0  0
   57.1040   26.7690   45.2600 C   0  0  0  0  0  0  0  0  0  0  0  0
   56.1400   27.0740   46.0100 O   0  0  0  0  0  0  0  0  0  0  0  0
   57.4470   25.3400   45.0690 C   0  0  0  0  0  0  0  0  0  0  0  0
   56.7200   24.5600   44.1510 C   0  0  0  0  0  0  0  0  0  0  0  0
   57.0380   23.2130   43.9600 C   0  0  0  0  0  0  0  0  0  0  0  0
   58.0760   22.6270   44.6890 C   0  0  0  0  0  0  0  0  0  0  0  0
   58.7930   23.3880   45.6160 C   0  0  0  0  0  0  0  0  0  0  0  0
   58.4780   24.7360   45.8110 C   0  0  0  0  0  0  0  0  0  0  0  0
   56.3580   29.8320   44.7180 C   0  0  0  0  0  0  0  0  0  0  0  0
   55.1670   29.0600   44.5510 N   0  0  0  0  0  0  0  0  0  0  0  0
   56.2480   31.1800   44.8500 N   0  0  0  0  0  0  0  0  0  0  0  0
   62.6660   33.7550   46.9100 C   0  0  0  0  0  0  0  0  0  0  0  0
   63.7630   33.6870   47.7730 C   0  0  0  0  0  0  0  0  0  0  0  0
   64.6426   32.6971   50.7851 H   0  0  0  0  0  0  0  0  0  0  0  0
   65.4939   31.7223   49.5394 H   0  0  0  0  0  0  0  0  0  0  0  0
   65.6481   33.5120   49.5394 H   0  0  0  0  0  0  0  0  0  0  0  0
   62.6876   31.1772   49.8324 H   0  0  0  0  0  0  0  0  0  0  0  0
   60.7180   31.3179   48.3120 H   0  0  0  0  0  0  0  0  0  0  0  0
   60.1890   32.0710   45.6840 H   0  0  0  0  0  0  0  0  0  0  0  0
   58.7550   35.1665   44.2496 H   0  0  0  0  0  0  0  0  0  0  0  0
   59.0937   33.4093   43.9607 H   0  0  0  0  0  0  0  0  0  0  0  0
   55.8963   25.0135   43.5802 H   0  0  0  0  0  0  0  0  0  0  0  0
   56.4700   22.6126   43.2342 H   0  0  0  0  0  0  0  0  0  0  0  0
   58.3285   21.5677   44.5333 H   0  0  0  0  0  0  0  0  0  0  0  0
   59.6070   22.9254   46.1935 H   0  0  0  0  0  0  0  0  0  0  0  0
   59.0396   25.3277   46.5489 H   0  0  0  0  0  0  0  0  0  0  0  0
   54.3520   29.4130   44.0050 H   0  0  0  0  0  0  0  0  0  0  0  0
   55.1420   28.0670   44.8740 H   0  0  0  0  0  0  0  0  0  0  0  0
   62.6589   34.4878   46.0897 H   0  0  0  0  0  0  0  0  0  0  0  0
   64.6235   34.3544   47.6175 H   0  0  0  0  0  0  0  0  0  0  0  0
  1  2  1  0
  2  3  2  0
  3  4  1  0
  4  5  2  0
  5  6  1  0
  6  7  1  0
  7  8  2  0
  7  9  1  0
  9 10  1  0
 10 11  1  0
 11 12  2  0
 12 13  1  0
 13 14  2  0
 13 15  1  0
 15 16  1  0
 16 17  1  0
 17 18  2  0
 17 19  1  0
 19 20  2  0
 20 21  1  0
 21 22  2  0
 22 23  1  0
 23 24  2  0
 15 25  2  0
 25 26  1  0
 25 27  1  0
  5 28  1  0
 28 29  2  0
 29  2  1  0
 27 11  1  0
 24 19  1  0
  1 30  1  0
  1 31  1  0
  1 32  1  0
  3 33  1  0
  4 34  1  0
  6 35  1  0
  9 36  1  0
  9 37  1  0
 20 38  1  0
 21 39  1  0
 22 40  1  0
 23 41  1  0
 24 42  1  0
 26 43  1  0
 26 44  1  0
 28 45  1  0
 29 46  1  0
M  CHG  2  16  -1  27  -1
M  END
>  <UniqueID>  (55) 
49

>  <SMILES>  (55) 
Cc1ccc(NC(=O)CSc2nc(=O)c([N-]C(=O)c3ccccc3)c(N)[n-]2)cc1

>  <Energy>  (55) 
56.69078257365999

>  <Genealogy>  (55) 
Cc1ccc(NC(=O)CSc2nc(=O)c([N-]C(=O)c3ccccc3)c(N)[n-]2)cc1 (protonated)
Cc1ccc(NC(=O)CSc2nc(=O)c([N-]C(=O)c3ccccc3)c(N)[n-]2)cc1 (3D coordinates assigned)
Cc1ccc(NC(=O)CSc2nc(=O)c([N-]C(=O)c3ccccc3)c(N)[n-]2)cc1 (optimized conformer: 56.69078257365999 kcal/mol)

>  <smiles>  (55) 
Cc1ccc(NC(=O)CSc2nc(=O)c(NC(=O)c3ccccc3)c(N)[nH]2)cc1

>  <score_type>  (55) 
oracle

>  <origin>  (55) 
adg

>  <m_score__min__energy>  (55) 
-12.81

>  <m_primary>  (55) 
energy

$$$$
55:0
     RDKit          3D

 49 52  0  0  0  0  0  0  0  0999 V2000
   55.9170   21.8380   42.2440 N   0  0  0  0  0  0  0  0  0  0  0  0
   56.3510   22.4260   43.1410 C   0  0  0  0  0  0  0  0  0  0  0  0
   56.8890   23.1580   44.2570 C   0  0  0  0  0  0  0  0  0  0  0  0
   56.0630   24.0080   45.0050 C   0  0  0  0  0  0  0  0  0  0  0  0
   56.5850   24.7200   46.0890 C   0  0  0  0  0  0  0  0  0  0  0  0
   57.9400   24.5750   46.4450 C   0  0  0  0  0  0  0  0  0  0  0  0
   58.5210   25.3100   47.5320 N   0  0  0  0  0  0  0  0  0  0  0  0
   59.3270   26.4920   47.4230 C   0  0  0  0  0  0  0  0  0  0  0  0
   60.2510   26.7060   48.2540 O   0  0  0  0  0  0  0  0  0  0  0  0
   59.1310   27.4600   46.2770 C   0  0  1  0  0  0  0  0  0  0  0  0
   57.6770   27.9570   46.1460 C   0  0  0  0  0  0  0  0  0  0  0  0
   57.5420   29.0680   45.1370 C   0  0  0  0  0  0  0  0  0  0  0  0
   56.2590   29.4880   44.7530 C   0  0  0  0  0  0  0  0  0  0  0  0
   56.1010   30.5610   43.8710 C   0  0  0  0  0  0  0  0  0  0  0  0
   57.2210   31.2200   43.3640 C   0  0  0  0  0  0  0  0  0  0  0  0
   58.5030   30.8170   43.7440 C   0  0  0  0  0  0  0  0  0  0  0  0
   58.6740   29.7570   44.6490 C   0  0  0  0  0  0  0  0  0  0  0  0
   60.0720   29.3430   45.0510 C   0  0  0  0  0  0  0  0  0  0  0  0
   60.1020   28.5850   46.3200 N   0  0  1  0  0  0  0  0  0  0  0  0
   59.9570   29.6540   47.7200 S   0  0  0  0  0  0  0  0  0  0  0  0
   60.9110   29.1760   48.7790 O   0  0  0  0  0  0  0  0  0  0  0  0
   58.5710   29.5870   48.2970 O   0  0  0  0  0  0  0  0  0  0  0  0
   60.3440   31.3470   47.3740 C   0  0  0  0  0  0  0  0  0  0  0  0
   61.6210   31.8500   47.6690 C   0  0  0  0  0  0  0  0  0  0  0  0
   61.9540   33.1690   47.3400 C   0  0  0  0  0  0  0  0  0  0  0  0
   63.5680   33.7730   47.6650 Cl  0  0  0  0  0  0  0  0  0  0  0  0
   61.0050   33.9980   46.7350 C   0  0  0  0  0  0  0  0  0  0  0  0
   59.7170   33.5170   46.4770 C   0  0  0  0  0  0  0  0  0  0  0  0
   58.5240   34.5630   45.7300 Cl  0  0  0  0  0  0  0  0  0  0  0  0
   59.3840   32.1990   46.8080 C   0  0  0  0  0  0  0  0  0  0  0  0
   58.7640   23.7420   45.6800 C   0  0  0  0  0  0  0  0  0  0  0  0
   58.2420   23.0290   44.5950 C   0  0  0  0  0  0  0  0  0  0  0  0
   55.0012   24.1152   44.7385 H   0  0  0  0  0  0  0  0  0  0  0  0
   55.9357   25.3953   46.6655 H   0  0  0  0  0  0  0  0  0  0  0  0
   59.3400   26.8870   45.3616 H   0  0  0  0  0  0  0  0  0  0  0  0
   57.0421   27.1152   45.8325 H   0  0  0  0  0  0  0  0  0  0  0  0
   57.3663   28.3512   47.1248 H   0  0  0  0  0  0  0  0  0  0  0  0
   55.3728   28.9699   45.1483 H   0  0  0  0  0  0  0  0  0  0  0  0
   55.0922   30.8860   43.5764 H   0  0  0  0  0  0  0  0  0  0  0  0
   57.0942   32.0587   42.6636 H   0  0  0  0  0  0  0  0  0  0  0  0
   59.3832   31.3325   43.3323 H   0  0  0  0  0  0  0  0  0  0  0  0
   60.4945   28.7125   44.2548 H   0  0  0  0  0  0  0  0  0  0  0  0
   60.6597   30.2610   45.1994 H   0  0  0  0  0  0  0  0  0  0  0  0
   61.0610   28.1680   46.3820 H   0  0  0  0  0  0  0  0  0  0  0  0
   62.3634   31.2044   48.1610 H   0  0  0  0  0  0  0  0  0  0  0  0
   61.2713   35.0297   46.4615 H   0  0  0  0  0  0  0  0  0  0  0  0
   58.3646   31.8291   46.6235 H   0  0  0  0  0  0  0  0  0  0  0  0
   59.8302   23.6470   45.9335 H   0  0  0  0  0  0  0  0  0  0  0  0
   58.8947   22.3668   44.0072 H   0  0  0  0  0  0  0  0  0  0  0  0
  1  2  3  0
  2  3  1  0
  3  4  2  0
  4  5  1  0
  5  6  2  0
  6  7  1  0
  7  8  1  0
  8  9  2  0
  8 10  1  0
 10 11  1  0
 11 12  1  0
 12 13  2  0
 13 14  1  0
 14 15  2  0
 15 16  1  0
 16 17  2  0
 17 18  1  0
 18 19  1  0
 19 20  1  0
 20 21  2  0
 20 22  2  0
 20 23  1  0
 23 24  2  0
 24 25  1  0
 25 26  1  0
 25 27  2  0
 27 28  1  0
 28 29  1  0
 28 30  2  0
  6 31  1  0
 31 32  2  0
 32  3  1  0
 19 10  1  0
 30 23  1  0
 17 12  1  0
  4 33  1  0
  5 34  1  0
 10 35  1  6
 11 36  1  0
 11 37  1  0
 13 38  1  0
 14 39  1  0
 15 40  1  0
 16 41  1  0
 18 42  1  0
 18 43  1  0
 19 44  1  1
 24 45  1  0
 27 46  1  0
 30 47  1  0
 31 48  1  0
 32 49  1  0
M  CHG  2   7  -1  19   1
M  END
>  <UniqueID>  (56) 
50

>  <SMILES>  (56) 
N#Cc1ccc([N-]C(=O)[C@H]2Cc3ccccc3C[N@H+]2S(=O)(=O)c2cc(Cl)cc(Cl)c2)cc1

>  <Energy>  (56) 
61.68484489203323

>  <Genealogy>  (56) 
N#Cc1ccc([N-]C(=O)C2Cc3ccccc3C[NH+]2S(=O)(=O)c2cc(Cl)cc(Cl)c2)cc1 (protonated)
N#Cc1ccc([N-]C(=O)[C@H]2Cc3ccccc3C[N@H+]2S(=O)(=O)c2cc(Cl)cc(Cl)c2)cc1 (chirality)
N#Cc1ccc([N-]C(=O)[C@H]2Cc3ccccc3C[N@H+]2S(=O)(=O)c2cc(Cl)cc(Cl)c2)cc1 (3D coordinates assigned)
N#Cc1ccc([N-]C(=O)[C@H]2Cc3ccccc3C[N@H+]2S(=O)(=O)c2cc(Cl)cc(Cl)c2)cc1 (nonaromatic ring conformer: 61.68484489203323 kcal/mol)

>  <smiles>  (56) 
N#Cc1ccc(NC(=O)C2Cc3ccccc3CN2S(=O)(=O)c2cc(Cl)cc(Cl)c2)cc1

>  <score_type>  (56) 
oracle

>  <origin>  (56) 
adg

>  <m_score__min__energy>  (56) 
-9.7599999999999998

>  <m_primary>  (56) 
energy

$$$$
56:0
     RDKit          3D

 35 37  0  0  0  0  0  0  0  0999 V2000
   60.1360   28.5520   47.0880 C   0  0  0  0  0  0  0  0  0  0  0  0
   60.1040   27.6440   45.8650 C   0  0  0  0  0  0  0  0  0  0  0  0
   58.8670   26.7920   45.8700 C   0  0  0  0  0  0  0  0  0  0  0  0
   58.6230   25.8550   46.8090 N   0  0  0  0  0  0  0  0  0  0  0  0
   57.4580   25.2830   46.4550 C   0  0  0  0  0  0  0  0  0  0  0  0
   57.0100   25.8740   45.2930 C   0  0  0  0  0  0  0  0  0  0  0  0
   57.9040   26.8110   44.9190 N   0  0  0  0  0  0  0  0  0  0  0  0
   57.7800   27.7030   43.7670 C   0  0  0  0  0  0  0  0  0  0  0  0
   57.5200   29.1030   44.2290 C   0  0  0  0  0  0  0  0  0  0  0  0
   58.4740   30.0510   44.5310 C   0  0  0  0  0  0  0  0  0  0  0  0
   57.7290   31.1430   44.9380 C   0  0  0  0  0  0  0  0  0  0  0  0
   58.2320   32.4610   45.3860 C   0  0  0  0  0  0  0  0  0  0  0  0
   58.4410   32.6960   46.7560 C   0  0  0  0  0  0  0  0  0  0  0  0
   58.9150   33.9350   47.1980 C   0  0  0  0  0  0  0  0  0  0  0  0
   59.1860   34.9500   46.2790 C   0  0  0  0  0  0  0  0  0  0  0  0
   59.6460   36.1520   46.7100 F   0  0  0  0  0  0  0  0  0  0  0  0
   58.9830   34.7290   44.9150 C   0  0  0  0  0  0  0  0  0  0  0  0
   58.5090   33.4920   44.4670 C   0  0  0  0  0  0  0  0  0  0  0  0
   56.4550   30.8260   44.8700 O   0  0  0  0  0  0  0  0  0  0  0  0
   56.2910   29.6050   44.4500 N   0  0  0  0  0  0  0  0  0  0  0  0
   60.1144   27.9385   48.0008 H   0  0  0  0  0  0  0  0  0  0  0  0
   61.0560   29.1549   47.0731 H   0  0  0  0  0  0  0  0  0  0  0  0
   59.2608   29.2182   47.0731 H   0  0  0  0  0  0  0  0  0  0  0  0
   60.1130   28.2625   44.9554 H   0  0  0  0  0  0  0  0  0  0  0  0
   60.9863   26.9875   45.8881 H   0  0  0  0  0  0  0  0  0  0  0  0
   59.2120   25.6210   47.6380 H   0  0  0  0  0  0  0  0  0  0  0  0
   56.9473   24.4770   47.0023 H   0  0  0  0  0  0  0  0  0  0  0  0
   56.0804   25.6234   44.7610 H   0  0  0  0  0  0  0  0  0  0  0  0
   58.7134   27.6788   43.1854 H   0  0  0  0  0  0  0  0  0  0  0  0
   56.9407   27.3681   43.1397 H   0  0  0  0  0  0  0  0  0  0  0  0
   59.5682   29.9605   44.4642 H   0  0  0  0  0  0  0  0  0  0  0  0
   58.2303   31.8999   47.4853 H   0  0  0  0  0  0  0  0  0  0  0  0
   59.0746   34.1102   48.2722 H   0  0  0  0  0  0  0  0  0  0  0  0
   59.1964   35.5297   44.1916 H   0  0  0  0  0  0  0  0  0  0  0  0
   58.3517   33.3232   43.3915 H   0  0  0  0  0  0  0  0  0  0  0  0
  1  2  1  0
  2  3  1  0
  3  4  2  0
  4  5  1  0
  5  6  2  0
  6  7  1  0
  7  8  1  0
  8  9  1  0
  9 10  1  0
 10 11  2  0
 11 12  1  0
 12 13  2  0
 13 14  1  0
 14 15  2  0
 15 16  1  0
 15 17  1  0
 17 18  2  0
 11 19  1  0
 19 20  1  0
  7  3  1  0
 20  9  2  0
 18 12  1  0
  1 21  1  0
  1 22  1  0
  1 23  1  0
  2 24  1  0
  2 25  1  0
  4 26  1  0
  5 27  1  0
  6 28  1  0
  8 29  1  0
  8 30  1  0
 10 31  1  0
 13 32  1  0
 14 33  1  0
 17 34  1  0
 18 35  1  0
M  CHG  1   4   1
M  END
>  <UniqueID>  (57) 
51

>  <SMILES>  (57) 
CCc1[nH+]ccn1Cc1cc(-c2ccc(F)cc2)on1

>  <Energy>  (57) 
92.72231178118201

>  <Genealogy>  (57) 
CCc1[nH+]ccn1Cc1cc(-c2ccc(F)cc2)on1 (protonated)
CCc1[nH+]ccn1Cc1cc(-c2ccc(F)cc2)on1 (3D coordinates assigned)
CCc1[nH+]ccn1Cc1cc(-c2ccc(F)cc2)on1 (optimized conformer: 92.72231178118201 kcal/mol)

>  <smiles>  (57) 
CCc1nccn1Cc1cc(-c2ccc(F)cc2)on1

>  <score_type>  (57) 
oracle

>  <origin>  (57) 
adg

>  <m_score__min__energy>  (57) 
-5.5300000000000002

>  <m_primary>  (57) 
energy

$$$$
57:0
     RDKit          3D

 35 37  0  0  0  0  0  0  0  0999 V2000
   59.9620   29.1430   44.8770 C   0  0  0  0  0  0  0  0  0  0  0  0
   58.6520   29.8630   44.8390 C   0  0  0  0  0  0  0  0  0  0  0  0
   57.4570   29.1540   44.6760 C   0  0  0  0  0  0  0  0  0  0  0  0
   56.2570   29.8670   44.6520 C   0  0  0  0  0  0  0  0  0  0  0  0
   55.1630   29.2620   44.5040 O   0  0  0  0  0  0  0  0  0  0  0  0
   56.2700   31.2180   44.7900 N   0  0  0  0  0  0  0  0  0  0  0  0
   57.4390   31.8920   44.9550 C   0  0  0  0  0  0  0  0  0  0  0  0
   57.4240   33.6730   45.1440 S   0  0  0  0  0  0  0  0  0  0  0  0
   59.2420   33.8330   45.2270 C   0  0  0  0  0  0  0  0  0  0  0  0
   59.6780   34.4000   46.5510 C   0  0  0  0  0  0  0  0  0  0  0  0
   58.8910   35.1860   47.1450 O   0  0  0  0  0  0  0  0  0  0  0  0
   61.0010   34.0880   47.1630 C   0  0  0  0  0  0  0  0  0  0  0  0
   62.1170   33.7340   46.3740 C   0  0  0  0  0  0  0  0  0  0  0  0
   63.3480   33.4420   46.9700 C   0  0  0  0  0  0  0  0  0  0  0  0
   63.4820   33.4980   48.3570 C   0  0  0  0  0  0  0  0  0  0  0  0
   62.3930   33.8750   49.1510 C   0  0  0  0  0  0  0  0  0  0  0  0
   61.1570   34.1540   48.5630 C   0  0  0  0  0  0  0  0  0  0  0  0
   62.5630   33.9700   50.5370 O   0  0  0  0  0  0  0  0  0  0  0  0
   63.8680   33.9610   51.1230 C   0  0  0  0  0  0  0  0  0  0  0  0
   64.7750   32.9680   50.3850 C   0  0  0  0  0  0  0  0  0  0  0  0
   64.6970   33.1810   48.9730 O   0  0  0  0  0  0  0  0  0  0  0  0
   58.6160   31.2160   44.9770 N   0  0  0  0  0  0  0  0  0  0  0  0
   60.2601   28.9791   45.9231 H   0  0  0  0  0  0  0  0  0  0  0  0
   59.8622   28.1730   44.3679 H   0  0  0  0  0  0  0  0  0  0  0  0
   60.7274   29.7472   44.3679 H   0  0  0  0  0  0  0  0  0  0  0  0
   57.4628   28.0592   44.5691 H   0  0  0  0  0  0  0  0  0  0  0  0
   59.6961   32.8399   45.0949 H   0  0  0  0  0  0  0  0  0  0  0  0
   59.5684   34.5176   44.4302 H   0  0  0  0  0  0  0  0  0  0  0  0
   62.0173   33.6874   45.2795 H   0  0  0  0  0  0  0  0  0  0  0  0
   64.2106   33.1681   46.3447 H   0  0  0  0  0  0  0  0  0  0  0  0
   60.2999   34.4269   49.1961 H   0  0  0  0  0  0  0  0  0  0  0  0
   64.3031   34.9691   51.0560 H   0  0  0  0  0  0  0  0  0  0  0  0
   63.7855   33.6560   52.1767 H   0  0  0  0  0  0  0  0  0  0  0  0
   65.8142   33.1097   50.7167 H   0  0  0  0  0  0  0  0  0  0  0  0
   64.4440   31.9437   50.6117 H   0  0  0  0  0  0  0  0  0  0  0  0
  1  2  1  0
  2  3  2  0
  3  4  1  0
  4  5  2  0
  4  6  1  0
  6  7  2  0
  7  8  1  0
  8  9  1  0
  9 10  1  0
 10 11  2  0
 10 12  1  0
 12 13  2  0
 13 14  1  0
 14 15  2  0
 15 16  1  0
 16 17  2  0
 16 18  1  0
 18 19  1  0
 19 20  1  0
 20 21  1  0
  7 22  1  0
 22  2  1  0
 17 12  1  0
 21 15  1  0
  1 23  1  0
  1 24  1  0
  1 25  1  0
  3 26  1  0
  9 27  1  0
  9 28  1  0
 13 29  1  0
 14 30  1  0
 17 31  1  0
 19 32  1  0
 19 33  1  0
 20 34  1  0
 20 35  1  0
M  CHG  1  22  -1
M  END
>  <UniqueID>  (58) 
52

>  <SMILES>  (58) 
Cc1cc(=O)nc(SCC(=O)c2ccc3c(c2)OCCO3)[n-]1

>  <Energy>  (58) 
34.93723216112176

>  <Genealogy>  (58) 
Cc1cc(=O)nc(SCC(=O)c2ccc3c(c2)OCCO3)[n-]1 (protonated)
Cc1cc(=O)nc(SCC(=O)c2ccc3c(c2)OCCO3)[n-]1 (3D coordinates assigned)
Cc1cc(=O)nc(SCC(=O)c2ccc3c(c2)OCCO3)[n-]1 (nonaromatic ring conformer: 34.93723216112176 kcal/mol)

>  <smiles>  (58) 
Cc1cc(=O)nc(SCC(=O)c2ccc3c(c2)OCCO3)[nH]1

>  <score_type>  (58) 
oracle

>  <origin>  (58) 
adg

>  <m_score__min__energy>  (58) 
-9.1699999999999999

>  <m_primary>  (58) 
energy

$$$$
58:0
     RDKit          3D

 32 33  0  0  0  0  0  0  0  0999 V2000
   55.4380   29.6520   44.9110 N   0  0  0  0  0  0  0  0  0  0  0  0
   56.7090   29.8880   44.2360 C   0  0  0  0  0  0  0  0  0  0  0  0
   57.3400   31.1500   44.7550 C   0  0  0  0  0  0  0  0  0  0  0  0
   57.9080   31.1820   46.0370 C   0  0  0  0  0  0  0  0  0  0  0  0
   58.5240   32.3450   46.5080 C   0  0  0  0  0  0  0  0  0  0  0  0
   58.5820   33.4930   45.7010 C   0  0  0  0  0  0  0  0  0  0  0  0
   59.2510   34.7420   46.2130 C   0  0  0  0  0  0  0  0  0  0  0  0
   59.8680   34.5010   47.5190 N   0  0  0  0  0  0  0  0  0  0  0  0
   61.2310   34.0690   47.7100 C   0  0  0  0  0  0  0  0  0  0  0  0
   62.0760   33.7850   46.6180 C   0  0  0  0  0  0  0  0  0  0  0  0
   63.3940   33.3720   46.8330 C   0  0  0  0  0  0  0  0  0  0  0  0
   63.8830   33.2320   48.1320 C   0  0  0  0  0  0  0  0  0  0  0  0
   63.0550   33.5050   49.2220 C   0  0  0  0  0  0  0  0  0  0  0  0
   61.7340   33.9190   49.0160 C   0  0  0  0  0  0  0  0  0  0  0  0
   60.9510   34.1820   50.0920 F   0  0  0  0  0  0  0  0  0  0  0  0
   58.0370   33.4520   44.4080 C   0  0  0  0  0  0  0  0  0  0  0  0
   57.4220   32.2890   43.9370 C   0  0  0  0  0  0  0  0  0  0  0  0
   54.7810   30.4240   44.6480 H   0  0  0  0  0  0  0  0  0  0  0  0
   55.6030   29.7410   45.9400 H   0  0  0  0  0  0  0  0  0  0  0  0
   57.3838   29.0397   44.4230 H   0  0  0  0  0  0  0  0  0  0  0  0
   56.5304   29.9914   43.1555 H   0  0  0  0  0  0  0  0  0  0  0  0
   57.8685   30.2870   46.6753 H   0  0  0  0  0  0  0  0  0  0  0  0
   58.9654   32.3612   47.5154 H   0  0  0  0  0  0  0  0  0  0  0  0
   60.0274   35.0543   45.4991 H   0  0  0  0  0  0  0  0  0  0  0  0
   58.4919   35.5307   46.3209 H   0  0  0  0  0  0  0  0  0  0  0  0
   59.2810   34.6990   48.3600 H   0  0  0  0  0  0  0  0  0  0  0  0
   61.6961   33.8890   45.5909 H   0  0  0  0  0  0  0  0  0  0  0  0
   64.0478   33.1567   45.9750 H   0  0  0  0  0  0  0  0  0  0  0  0
   64.9207   32.9066   48.2972 H   0  0  0  0  0  0  0  0  0  0  0  0
   63.4418   33.3945   50.2458 H   0  0  0  0  0  0  0  0  0  0  0  0
   58.0944   34.3404   43.7619 H   0  0  0  0  0  0  0  0  0  0  0  0
   57.0003   32.2653   42.9213 H   0  0  0  0  0  0  0  0  0  0  0  0
  1  2  1  0
  2  3  1  0
  3  4  2  0
  4  5  1  0
  5  6  2  0
  6  7  1  0
  7  8  1  0
  8  9  1  0
  9 10  2  0
 10 11  1  0
 11 12  2  0
 12 13  1  0
 13 14  2  0
 14 15  1  0
  6 16  1  0
 16 17  2  0
 17  3  1  0
 14  9  1  0
  1 18  1  0
  1 19  1  0
  2 20  1  0
  2 21  1  0
  4 22  1  0
  5 23  1  0
  7 24  1  0
  7 25  1  0
  8 26  1  0
 10 27  1  0
 11 28  1  0
 12 29  1  0
 13 30  1  0
 16 31  1  0
 17 32  1  0
M  END
>  <UniqueID>  (59) 
53

>  <SMILES>  (59) 
NCc1ccc(CNc2ccccc2F)cc1

>  <Energy>  (59) 
30.112915764374893

>  <Genealogy>  (59) 
NCc1ccc(CNc2ccccc2F)cc1 (3D coordinates assigned)
NCc1ccc(CNc2ccccc2F)cc1 (optimized conformer: 30.112915764374893 kcal/mol)

>  <smiles>  (59) 
NCc1ccc(CNc2ccccc2F)cc1

>  <score_type>  (59) 
oracle

>  <origin>  (59) 
adg

>  <m_score__min__energy>  (59) 
-6.9900000000000002

>  <m_primary>  (59) 
energy

$$$$
59:0
     RDKit          3D

 37 39  0  0  0  0  0  0  0  0999 V2000
   56.7060   30.0140   42.9700 O   0  0  0  0  0  0  0  0  0  0  0  0
   56.5450   30.1430   44.4570 S   0  0  0  0  0  0  0  0  0  0  0  0
   55.3500   29.3390   44.8900 O   0  0  0  0  0  0  0  0  0  0  0  0
   56.2820   31.8090   44.8600 N   0  0  0  0  0  0  0  0  0  0  0  0
   57.3050   32.7360   45.2480 C   0  0  0  0  0  0  0  0  0  0  0  0
   57.4120   33.2240   46.5650 C   0  0  0  0  0  0  0  0  0  0  0  0
   58.4270   34.1240   46.9030 C   0  0  0  0  0  0  0  0  0  0  0  0
   59.3390   34.5470   45.9340 C   0  0  0  0  0  0  0  0  0  0  0  0
   59.2380   34.0720   44.6230 C   0  0  0  0  0  0  0  0  0  0  0  0
   58.2240   33.1700   44.2810 C   0  0  0  0  0  0  0  0  0  0  0  0
   58.1370   32.7180   43.0050 F   0  0  0  0  0  0  0  0  0  0  0  0
   58.0100   29.5610   45.2420 C   0  0  0  0  0  0  0  0  0  0  0  0
   58.9670   28.8640   44.4950 C   0  0  0  0  0  0  0  0  0  0  0  0
   60.1420   28.4160   45.1040 C   0  0  0  0  0  0  0  0  0  0  0  0
   60.3660   28.6640   46.4600 C   0  0  0  0  0  0  0  0  0  0  0  0
   59.4190   29.3590   47.2210 C   0  0  0  0  0  0  0  0  0  0  0  0
   59.6930   29.5960   48.6080 N   0  0  0  0  0  0  0  0  0  0  0  0
   59.8510   31.1590   49.3400 S   0  0  0  0  0  0  0  0  0  0  0  0
   60.2160   31.0160   50.7910 O   0  0  0  0  0  0  0  0  0  0  0  0
   58.5540   31.9070   49.2080 O   0  0  0  0  0  0  0  0  0  0  0  0
   61.1150   32.0470   48.5140 C   0  0  0  0  0  0  0  0  0  0  0  0
   61.3260   33.4150   48.5940 C   0  0  0  0  0  0  0  0  0  0  0  0
   62.4080   33.8460   47.8180 C   0  0  0  0  0  0  0  0  0  0  0  0
   63.0420   32.8200   47.1270 C   0  0  0  0  0  0  0  0  0  0  0  0
   62.2570   31.3750   47.4820 S   0  0  0  0  0  0  0  0  0  0  0  0
   58.2330   29.8040   46.6050 C   0  0  0  0  0  0  0  0  0  0  0  0
   56.6939   32.8956   47.3308 H   0  0  0  0  0  0  0  0  0  0  0  0
   58.5073   34.4994   47.9338 H   0  0  0  0  0  0  0  0  0  0  0  0
   60.1375   35.2544   46.2023 H   0  0  0  0  0  0  0  0  0  0  0  0
   59.9558   34.4074   43.8599 H   0  0  0  0  0  0  0  0  0  0  0  0
   58.7936   28.6686   43.4265 H   0  0  0  0  0  0  0  0  0  0  0  0
   60.8915   27.8673   44.5147 H   0  0  0  0  0  0  0  0  0  0  0  0
   61.2938   28.3104   46.9336 H   0  0  0  0  0  0  0  0  0  0  0  0
   60.7079   34.0907   49.2034 H   0  0  0  0  0  0  0  0  0  0  0  0
   62.7266   34.8973   47.7604 H   0  0  0  0  0  0  0  0  0  0  0  0
   63.9100   32.9336   46.4609 H   0  0  0  0  0  0  0  0  0  0  0  0
   57.4786   30.3444   47.1956 H   0  0  0  0  0  0  0  0  0  0  0  0
  1  2  2  0
  2  3  2  0
  2  4  1  0
  4  5  1  0
  5  6  2  0
  6  7  1  0
  7  8  2  0
  8  9  1  0
  9 10  2  0
 10 11  1  0
  2 12  1  0
 12 13  2  0
 13 14  1  0
 14 15  2  0
 15 16  1  0
 16 17  1  0
 17 18  1  0
 18 19  2  0
 18 20  2  0
 18 21  1  0
 21 22  2  0
 22 23  1  0
 23 24  2  0
 24 25  1  0
 16 26  2  0
 10  5  1  0
 26 12  1  0
 25 21  1  0
  6 27  1  0
  7 28  1  0
  8 29  1  0
  9 30  1  0
 13 31  1  0
 14 32  1  0
 15 33  1  0
 22 34  1  0
 23 35  1  0
 24 36  1  0
 26 37  1  0
M  CHG  2   4  -1  17  -1
M  END
>  <UniqueID>  (60) 
54

>  <SMILES>  (60) 
O=S(=O)([N-]c1ccccc1F)c1cccc([N-]S(=O)(=O)c2cccs2)c1

>  <Energy>  (60) 
72.70439868907535

>  <Genealogy>  (60) 
O=S(=O)([N-]c1ccccc1F)c1cccc([N-]S(=O)(=O)c2cccs2)c1 (protonated)
O=S(=O)([N-]c1ccccc1F)c1cccc([N-]S(=O)(=O)c2cccs2)c1 (3D coordinates assigned)
O=S(=O)([N-]c1ccccc1F)c1cccc([N-]S(=O)(=O)c2cccs2)c1 (optimized conformer: 72.70439868907535 kcal/mol)

>  <smiles>  (60) 
O=S(=O)(Nc1ccccc1F)c1cccc(NS(=O)(=O)c2cccs2)c1

>  <score_type>  (60) 
oracle

>  <origin>  (60) 
adg

>  <m_score__min__energy>  (60) 
-12.33

>  <m_primary>  (60) 
energy

$$$$
60:0
     RDKit          3D

 43 44  0  0  0  0  0  0  0  0999 V2000
   55.1360   29.3770   44.8850 O   0  0  0  0  0  0  0  0  0  0  0  0
   56.3460   29.4060   44.5330 C   0  0  0  0  0  0  0  0  0  0  0  0
   56.9710   30.7030   44.1070 C   0  0  0  0  0  0  0  0  0  0  0  0
   57.4190   31.5000   45.2590 N   0  0  0  0  0  0  0  0  0  0  0  0
   56.9970   32.9040   45.1520 C   0  0  0  0  0  0  0  0  0  0  0  0
   58.1920   33.8420   45.3560 C   0  0  0  0  0  0  0  0  0  0  0  0
   58.7220   33.7620   46.7660 C   0  0  0  0  0  0  0  0  0  0  0  0
   59.7610   34.6100   47.1830 C   0  0  0  0  0  0  0  0  0  0  0  0
   60.2270   34.5580   48.5000 C   0  0  0  0  0  0  0  0  0  0  0  0
   59.6570   33.6620   49.4100 C   0  0  0  0  0  0  0  0  0  0  0  0
   58.6180   32.8200   49.0050 C   0  0  0  0  0  0  0  0  0  0  0  0
   58.1470   32.8710   47.6890 C   0  0  0  0  0  0  0  0  0  0  0  0
   57.1210   28.2040   44.5040 N   0  0  0  0  0  0  0  0  0  0  0  0
   57.1510   27.2540   45.6070 C   0  0  0  0  0  0  0  0  0  0  0  0
   58.1810   27.6840   46.6040 C   0  0  0  0  0  0  0  0  0  0  0  0
   58.6440   26.8320   47.4150 O   0  0  0  0  0  0  0  0  0  0  0  0
   58.6850   29.0330   46.5840 N   0  0  0  0  0  0  0  0  0  0  0  0
   59.5860   29.5840   47.5600 C   0  0  0  0  0  0  0  0  0  0  0  0
   59.4450   29.3120   48.9360 C   0  0  0  0  0  0  0  0  0  0  0  0
   60.3260   29.8830   49.8610 C   0  0  0  0  0  0  0  0  0  0  0  0
   61.3400   30.7410   49.4280 C   0  0  0  0  0  0  0  0  0  0  0  0
   61.4760   31.0360   48.0670 C   0  0  0  0  0  0  0  0  0  0  0  0
   62.8690   32.2050   47.4740 Br  0  0  0  0  0  0  0  0  0  0  0  0
   60.5970   30.4660   47.1390 C   0  0  0  0  0  0  0  0  0  0  0  0
   57.8380   30.4863   43.4657 H   0  0  0  0  0  0  0  0  0  0  0  0
   56.2119   31.2852   43.5640 H   0  0  0  0  0  0  0  0  0  0  0  0
   57.0200   31.0880   46.1350 H   0  0  0  0  0  0  0  0  0  0  0  0
   56.5670   33.0775   44.1545 H   0  0  0  0  0  0  0  0  0  0  0  0
   56.2470   33.1098   45.9299 H   0  0  0  0  0  0  0  0  0  0  0  0
   58.9924   33.5589   44.6565 H   0  0  0  0  0  0  0  0  0  0  0  0
   57.8573   34.8733   45.1707 H   0  0  0  0  0  0  0  0  0  0  0  0
   60.2098   35.3178   46.4706 H   0  0  0  0  0  0  0  0  0  0  0  0
   61.0428   35.2225   48.8208 H   0  0  0  0  0  0  0  0  0  0  0  0
   60.0268   33.6201   50.4451 H   0  0  0  0  0  0  0  0  0  0  0  0
   58.1700   32.1163   49.7220 H   0  0  0  0  0  0  0  0  0  0  0  0
   57.3241   32.2119   47.3752 H   0  0  0  0  0  0  0  0  0  0  0  0
   56.1634   27.2211   46.0903 H   0  0  0  0  0  0  0  0  0  0  0  0
   57.4040   26.2541   45.2246 H   0  0  0  0  0  0  0  0  0  0  0  0
   58.4420   29.6290   45.7580 H   0  0  0  0  0  0  0  0  0  0  0  0
   58.6395   28.6485   49.2838 H   0  0  0  0  0  0  0  0  0  0  0  0
   60.2199   29.6557   50.9320 H   0  0  0  0  0  0  0  0  0  0  0  0
   62.0325   31.1853   50.1581 H   0  0  0  0  0  0  0  0  0  0  0  0
   60.6979   30.7100   46.0712 H   0  0  0  0  0  0  0  0  0  0  0  0
  1  2  2  0
  2  3  1  0
  3  4  1  0
  4  5  1  0
  5  6  1  0
  6  7  1  0
  7  8  2  0
  8  9  1  0
  9 10  2  0
 10 11  1  0
 11 12  2  0
  2 13  1  0
 13 14  1  0
 14 15  1  0
 15 16  2  0
 15 17  1  0
 17 18  1  0
 18 19  2  0
 19 20  1  0
 20 21  2  0
 21 22  1  0
 22 23  1  0
 22 24  2  0
 12  7  1  0
 24 18  1  0
  3 25  1  0
  3 26  1  0
  4 27  1  0
  5 28  1  0
  5 29  1  0
  6 30  1  0
  6 31  1  0
  8 32  1  0
  9 33  1  0
 10 34  1  0
 11 35  1  0
 12 36  1  0
 14 37  1  0
 14 38  1  0
 17 39  1  0
 19 40  1  0
 20 41  1  0
 21 42  1  0
 24 43  1  0
M  CHG  1  13  -1
M  END
>  <UniqueID>  (61) 
55

>  <SMILES>  (61) 
O=C(CNCCc1ccccc1)[N-]CC(=O)Nc1cccc(Br)c1

>  <Energy>  (61) 
39.26644367899978

>  <Genealogy>  (61) 
O=C(CNCCc1ccccc1)[N-]CC(=O)Nc1cccc(Br)c1 (protonated)
O=C(CNCCc1ccccc1)[N-]CC(=O)Nc1cccc(Br)c1 (3D coordinates assigned)
O=C(CNCCc1ccccc1)[N-]CC(=O)Nc1cccc(Br)c1 (optimized conformer: 39.26644367899978 kcal/mol)

>  <smiles>  (61) 
O=C(CNCCc1ccccc1)NCC(=O)Nc1cccc(Br)c1

>  <score_type>  (61) 
oracle

>  <origin>  (61) 
adg

>  <m_score__min__energy>  (61) 
-9.5

>  <m_primary>  (61) 
energy

$$$$
61:0
     RDKit          3D

 47 50  0  0  0  0  0  0  0  0999 V2000
   65.9450   34.2370   51.8990 C   0  0  0  0  0  0  0  0  0  0  0  0
   64.5030   33.8220   51.8280 C   0  0  0  0  0  0  0  0  0  0  0  0
   63.6150   34.0780   52.8770 C   0  0  0  0  0  0  0  0  0  0  0  0
   62.0930   33.4840   52.4610 S   0  0  0  0  0  0  0  0  0  0  0  0
   62.6190   32.9260   50.9700 C   0  0  0  0  0  0  0  0  0  0  0  0
   61.8490   32.2960   50.0480 N   0  0  0  0  0  0  0  0  0  0  0  0
   62.4030   31.8820   48.8720 C   0  0  0  0  0  0  0  0  0  0  0  0
   61.5500   31.2230   47.8290 C   0  0  0  0  0  0  0  0  0  0  0  0
   60.1820   31.3400   48.2030 O   0  0  0  0  0  0  0  0  0  0  0  0
   59.4790   32.5470   48.1390 C   0  0  0  0  0  0  0  0  0  0  0  0
   59.4460   33.3130   49.1430 O   0  0  0  0  0  0  0  0  0  0  0  0
   58.7750   32.9230   46.8940 C   0  0  0  0  0  0  0  0  0  0  0  0
   58.8730   34.2340   46.3940 C   0  0  0  0  0  0  0  0  0  0  0  0
   58.2190   34.5890   45.2120 C   0  0  0  0  0  0  0  0  0  0  0  0
   57.4540   33.6470   44.5210 C   0  0  0  0  0  0  0  0  0  0  0  0
   57.3250   32.3390   45.0180 C   0  0  0  0  0  0  0  0  0  0  0  0
   56.5680   31.3340   44.3280 N   0  0  0  0  0  0  0  0  0  0  0  0
   56.3180   29.9930   44.7730 C   0  0  0  0  0  0  0  0  0  0  0  0
   55.1330   29.5720   44.8750 O   0  0  0  0  0  0  0  0  0  0  0  0
   57.4480   29.1190   45.1650 C   0  0  0  0  0  0  0  0  0  0  0  0
   57.7790   28.9440   46.5220 C   0  0  0  0  0  0  0  0  0  0  0  0
   58.8450   28.1180   46.8910 C   0  0  0  0  0  0  0  0  0  0  0  0
   59.5920   27.4570   45.9130 C   0  0  0  0  0  0  0  0  0  0  0  0
   61.0480   26.3290   46.4210 Br  0  0  0  0  0  0  0  0  0  0  0  0
   59.2730   27.6220   44.5630 C   0  0  0  0  0  0  0  0  0  0  0  0
   58.2080   28.4470   44.1880 C   0  0  0  0  0  0  0  0  0  0  0  0
   58.0030   31.9810   46.1900 C   0  0  0  0  0  0  0  0  0  0  0  0
   63.7610   32.1380   48.6150 C   0  0  0  0  0  0  0  0  0  0  0  0
   64.5290   32.7930   49.5860 C   0  0  0  0  0  0  0  0  0  0  0  0
   65.7470   33.0180   49.3610 O   0  0  0  0  0  0  0  0  0  0  0  0
   63.9350   33.1750   50.7600 N   0  0  0  0  0  0  0  0  0  0  0  0
   66.2499   34.3247   52.9523 H   0  0  0  0  0  0  0  0  0  0  0  0
   66.5689   33.4820   51.3984 H   0  0  0  0  0  0  0  0  0  0  0  0
   66.0721   35.2082   51.3984 H   0  0  0  0  0  0  0  0  0  0  0  0
   63.8681   34.5844   53.8201 H   0  0  0  0  0  0  0  0  0  0  0  0
   60.8350   32.1330   50.2450 H   0  0  0  0  0  0  0  0  0  0  0  0
   61.7096   31.7149   46.8582 H   0  0  0  0  0  0  0  0  0  0  0  0
   61.8215   30.1603   47.7460 H   0  0  0  0  0  0  0  0  0  0  0  0
   59.4677   34.9836   46.9366 H   0  0  0  0  0  0  0  0  0  0  0  0
   58.3069   35.6145   44.8239 H   0  0  0  0  0  0  0  0  0  0  0  0
   56.9508   33.9298   43.5846 H   0  0  0  0  0  0  0  0  0  0  0  0
   57.1948   29.4608   47.2976 H   0  0  0  0  0  0  0  0  0  0  0  0
   59.0961   27.9883   47.9541 H   0  0  0  0  0  0  0  0  0  0  0  0
   59.8612   27.1015   43.7928 H   0  0  0  0  0  0  0  0  0  0  0  0
   57.9622   28.5719   43.1231 H   0  0  0  0  0  0  0  0  0  0  0  0
   57.9309   30.9494   46.5651 H   0  0  0  0  0  0  0  0  0  0  0  0
   64.2152   31.8276   47.6625 H   0  0  0  0  0  0  0  0  0  0  0  0
  1  2  1  0
  2  3  2  0
  3  4  1  0
  4  5  1  0
  5  6  2  0
  6  7  1  0
  7  8  1  0
  8  9  1  0
  9 10  1  0
 10 11  2  0
 10 12  1  0
 12 13  2  0
 13 14  1  0
 14 15  2  0
 15 16  1  0
 16 17  1  0
 17 18  1  0
 18 19  2  0
 18 20  1  0
 20 21  2  0
 21 22  1  0
 22 23  2  0
 23 24  1  0
 23 25  1  0
 25 26  2  0
 16 27  2  0
  7 28  2  0
 28 29  1  0
 29 30  2  0
 29 31  1  0
 31  2  1  0
 31  5  1  0
 27 12  1  0
 26 20  1  0
  1 32  1  0
  1 33  1  0
  1 34  1  0
  3 35  1  0
  6 36  1  0
  8 37  1  0
  8 38  1  0
 13 39  1  0
 14 40  1  0
 15 41  1  0
 21 42  1  0
 22 43  1  0
 25 44  1  0
 26 45  1  0
 27 46  1  0
 28 47  1  0
M  CHG  2   6   1  17  -1
M  END
>  <UniqueID>  (62) 
56

>  <SMILES>  (62) 
Cc1csc2[nH+]c(COC(=O)c3cccc([N-]C(=O)c4ccc(Br)cc4)c3)cc(=O)n12

>  <Energy>  (62) 
89.49868715007872

>  <Genealogy>  (62) 
Cc1csc2[nH+]c(COC(=O)c3cccc([N-]C(=O)c4ccc(Br)cc4)c3)cc(=O)n12 (protonated)
Cc1csc2[nH+]c(COC(=O)c3cccc([N-]C(=O)c4ccc(Br)cc4)c3)cc(=O)n12 (3D coordinates assigned)
Cc1csc2[nH+]c(COC(=O)c3cccc([N-]C(=O)c4ccc(Br)cc4)c3)cc(=O)n12 (optimized conformer: 89.49868715007872 kcal/mol)

>  <smiles>  (62) 
Cc1csc2nc(COC(=O)c3cccc(NC(=O)c4ccc(Br)cc4)c3)cc(=O)n12

>  <score_type>  (62) 
oracle

>  <origin>  (62) 
adg

>  <m_score__min__energy>  (62) 
-9.2400000000000002

>  <m_primary>  (62) 
energy

$$$$
62:0
     RDKit          3D

 43 46  0  0  0  0  0  0  0  0999 V2000
   59.7390   26.7290   48.1030 O   0  0  0  0  0  0  0  0  0  0  0  0
   58.8830   27.3390   47.4100 C   0  0  0  0  0  0  0  0  0  0  0  0
   58.4620   28.6440   47.8300 N   0  0  0  0  0  0  0  0  0  0  0  0
   59.2330   29.8490   47.7420 C   0  0  0  0  0  0  0  0  0  0  0  0
   60.6240   29.8550   47.9550 C   0  0  0  0  0  0  0  0  0  0  0  0
   61.3460   31.0480   47.8470 C   0  0  0  0  0  0  0  0  0  0  0  0
   60.6850   32.2410   47.5420 C   0  0  0  0  0  0  0  0  0  0  0  0
   59.3010   32.2450   47.3540 C   0  0  0  0  0  0  0  0  0  0  0  0
   58.5760   31.0540   47.4630 C   0  0  0  0  0  0  0  0  0  0  0  0
   58.3230   26.6740   46.2150 C   0  0  0  0  0  0  0  0  0  0  0  0
   58.2240   25.3050   46.0320 C   0  0  0  0  0  0  0  0  0  0  0  0
   57.7170   25.0700   44.8030 N   0  0  0  0  0  0  0  0  0  0  0  0
   57.4720   23.7770   44.2140 C   0  0  0  0  0  0  0  0  0  0  0  0
   58.2120   22.6510   44.6200 C   0  0  0  0  0  0  0  0  0  0  0  0
   57.9710   21.3990   44.0460 C   0  0  0  0  0  0  0  0  0  0  0  0
   56.9910   21.2580   43.0600 C   0  0  0  0  0  0  0  0  0  0  0  0
   56.2510   22.3680   42.6470 C   0  0  0  0  0  0  0  0  0  0  0  0
   56.4880   23.6210   43.2190 C   0  0  0  0  0  0  0  0  0  0  0  0
   57.4790   26.2280   44.2060 N   0  0  0  0  0  0  0  0  0  0  0  0
   57.8180   27.2280   45.0420 C   0  0  0  0  0  0  0  0  0  0  0  0
   57.6440   28.6560   44.7070 C   0  0  0  0  0  0  0  0  0  0  0  0
   56.3410   29.1750   44.6290 C   0  0  0  0  0  0  0  0  0  0  0  0
   56.1320   30.5100   44.2740 C   0  0  0  0  0  0  0  0  0  0  0  0
   57.2210   31.3430   44.0130 C   0  0  0  0  0  0  0  0  0  0  0  0
   58.5220   30.8480   44.1210 C   0  0  0  0  0  0  0  0  0  0  0  0
   58.7440   29.5110   44.4740 C   0  0  0  0  0  0  0  0  0  0  0  0
   60.4060   28.9680   44.6840 Cl  0  0  0  0  0  0  0  0  0  0  0  0
   61.1446   28.9194   48.2070 H   0  0  0  0  0  0  0  0  0  0  0  0
   62.4350   31.0473   48.0022 H   0  0  0  0  0  0  0  0  0  0  0  0
   61.2550   33.1773   47.4500 H   0  0  0  0  0  0  0  0  0  0  0  0
   58.7809   33.1856   47.1200 H   0  0  0  0  0  0  0  0  0  0  0  0
   57.4842   31.0637   47.3289 H   0  0  0  0  0  0  0  0  0  0  0  0
   58.5106   24.5371   46.7656 H   0  0  0  0  0  0  0  0  0  0  0  0
   58.9858   22.7566   45.3947 H   0  0  0  0  0  0  0  0  0  0  0  0
   58.5534   20.5242   44.3709 H   0  0  0  0  0  0  0  0  0  0  0  0
   56.8024   20.2726   42.6091 H   0  0  0  0  0  0  0  0  0  0  0  0
   55.4803   22.2560   41.8702 H   0  0  0  0  0  0  0  0  0  0  0  0
   55.9017   24.4914   42.8896 H   0  0  0  0  0  0  0  0  0  0  0  0
   57.0530   26.3440   43.2590 H   0  0  0  0  0  0  0  0  0  0  0  0
   55.4801   28.5265   44.8487 H   0  0  0  0  0  0  0  0  0  0  0  0
   55.1080   30.9050   44.2001 H   0  0  0  0  0  0  0  0  0  0  0  0
   57.0541   32.3906   43.7219 H   0  0  0  0  0  0  0  0  0  0  0  0
   59.3775   31.5119   43.9277 H   0  0  0  0  0  0  0  0  0  0  0  0
  1  2  2  0
  2  3  1  0
  3  4  1  0
  4  5  2  0
  5  6  1  0
  6  7  2  0
  7  8  1  0
  8  9  2  0
  2 10  1  0
 10 11  2  0
 11 12  1  0
 12 13  1  0
 13 14  2  0
 14 15  1  0
 15 16  2  0
 16 17  1  0
 17 18  2  0
 12 19  1  0
 19 20  2  0
 20 21  1  0
 21 22  2  0
 22 23  1  0
 23 24  2  0
 24 25  1  0
 25 26  2  0
 26 27  1  0
  9  4  1  0
 20 10  1  0
 26 21  1  0
 18 13  1  0
  5 28  1  0
  6 29  1  0
  7 30  1  0
  8 31  1  0
  9 32  1  0
 11 33  1  0
 14 34  1  0
 15 35  1  0
 16 36  1  0
 17 37  1  0
 18 38  1  0
 19 39  1  0
 22 40  1  0
 23 41  1  0
 24 42  1  0
 25 43  1  0
M  CHG  2   3  -1  19   1
M  END
>  <UniqueID>  (63) 
57

>  <SMILES>  (63) 
O=C([N-]c1ccccc1)c1cn(-c2ccccc2)[nH+]c1-c1ccccc1Cl

>  <Energy>  (63) 
92.14853792868115

>  <Genealogy>  (63) 
O=C([N-]c1ccccc1)c1cn(-c2ccccc2)[nH+]c1-c1ccccc1Cl (protonated)
O=C([N-]c1ccccc1)c1cn(-c2ccccc2)[nH+]c1-c1ccccc1Cl (3D coordinates assigned)
O=C([N-]c1ccccc1)c1cn(-c2ccccc2)[nH+]c1-c1ccccc1Cl (optimized conformer: 92.14853792868115 kcal/mol)

>  <smiles>  (63) 
O=C(Nc1ccccc1)c1cn(-c2ccccc2)nc1-c1ccccc1Cl

>  <score_type>  (63) 
oracle

>  <origin>  (63) 
adg

>  <m_score__min__energy>  (63) 
-8.3399999999999999

>  <m_primary>  (63) 
energy

$$$$
63:0
     RDKit          3D

 76 82  0  0  0  0  0  0  0  0999 V2000
   63.2050   32.4970   50.0680 N   0  0  0  0  0  0  0  0  0  0  0  0
   63.0000   32.9160   48.8700 C   0  0  0  0  0  0  0  0  0  0  0  0
   63.9810   32.8790   47.9400 N   0  0  0  0  0  0  0  0  0  0  0  0
   63.7730   33.2990   46.6870 C   0  0  0  0  0  0  0  0  0  0  0  0
   62.5780   33.7880   46.2660 N   0  0  0  0  0  0  0  0  0  0  0  0
   61.5940   33.8310   47.1820 C   0  0  0  0  0  0  0  0  0  0  0  0
   61.7740   33.4060   48.4820 C   0  0  0  0  0  0  0  0  0  0  0  0
   60.6090   33.5620   49.1740 C   0  0  0  0  0  0  0  0  0  0  0  0
   60.2340   33.2730   50.5400 C   0  0  0  0  0  0  0  0  0  0  0  0
   61.0220   33.4420   51.6360 C   0  0  0  0  0  0  0  0  0  0  0  0
   60.6240   33.1330   52.9340 C   0  0  0  0  0  0  0  0  0  0  0  0
   59.3340   32.6220   53.0770 C   0  0  0  0  0  0  0  0  0  0  0  0
   58.4960   32.4310   52.0060 C   0  0  0  0  0  0  0  0  0  0  0  0
   57.1520   31.8870   52.2620 C   0  0  0  0  0  0  0  0  0  0  0  0
   56.2400   32.7260   52.3840 O   0  0  0  0  0  0  0  0  0  0  0  0
   56.8790   30.5110   52.3680 N   0  0  0  0  0  0  0  0  0  0  0  0
   55.6370   29.9020   52.6090 C   0  0  0  0  0  0  0  0  0  0  0  0
   55.4160   28.8310   53.4400 C   0  0  0  0  0  0  0  0  0  0  0  0
   54.1410   28.2810   53.6250 C   0  0  0  0  0  0  0  0  0  0  0  0
   53.0380   28.7980   52.9750 C   0  0  0  0  0  0  0  0  0  0  0  0
   51.7260   28.1920   53.1990 C   0  0  0  0  0  0  0  0  0  0  0  0
   51.5610   26.8970   52.5840 N   0  0  0  0  0  0  0  0  0  0  0  0
   51.5670   25.8250   53.5860 C   0  0  0  0  0  0  0  0  0  0  0  0
   51.3920   24.5360   52.7780 C   0  0  0  0  0  0  0  0  0  0  0  0
   50.1280   24.5410   52.1600 O   0  0  0  0  0  0  0  0  0  0  0  0
   50.1310   25.5720   51.2220 C   0  0  0  0  0  0  0  0  0  0  0  0
   50.2120   26.8620   52.0110 C   0  0  0  0  0  0  0  0  0  0  0  0
   53.2590   29.8730   52.1410 C   0  0  0  0  0  0  0  0  0  0  0  0
   52.1010   30.4460   51.4340 C   0  0  0  0  0  0  0  0  0  0  0  0
   51.0090   30.6760   52.2490 F   0  0  0  0  0  0  0  0  0  0  0  0
   52.4410   31.6820   50.9150 F   0  0  0  0  0  0  0  0  0  0  0  0
   51.7390   29.6820   50.3210 F   0  0  0  0  0  0  0  0  0  0  0  0
   54.5180   30.4070   51.9650 C   0  0  0  0  0  0  0  0  0  0  0  0
   58.9550   32.7590   50.7550 C   0  0  0  0  0  0  0  0  0  0  0  0
   59.7290   34.0820   48.2740 N   0  0  0  0  0  0  0  0  0  0  0  0
   60.3160   34.2390   47.1030 N   0  0  0  0  0  0  0  0  0  0  0  0
   59.6370   34.7800   45.9200 C   0  0  0  0  0  0  0  0  0  0  0  0
   58.9140   33.6280   45.3210 C   0  0  0  0  0  0  0  0  0  0  0  0
   58.4460   33.7410   44.0280 C   0  0  0  0  0  0  0  0  0  0  0  0
   57.7630   32.7190   43.3970 C   0  0  0  0  0  0  0  0  0  0  0  0
   57.5300   31.5450   44.0550 C   0  0  0  0  0  0  0  0  0  0  0  0
   56.8450   30.5310   43.4090 C   0  0  0  0  0  0  0  0  0  0  0  0
   56.6460   29.3690   44.1380 C   0  0  0  0  0  0  0  0  0  0  0  0
   57.0960   29.2390   45.4050 N   0  0  0  0  0  0  0  0  0  0  0  0
   57.7640   30.2480   46.0120 C   0  0  0  0  0  0  0  0  0  0  0  0
   57.9960   31.4260   45.3480 C   0  0  0  0  0  0  0  0  0  0  0  0
   58.6800   32.4470   45.9850 C   0  0  0  0  0  0  0  0  0  0  0  0
   63.4110   33.2020   50.8050 H   0  0  0  0  0  0  0  0  0  0  0  0
   64.8990   32.5170   48.2160 H   0  0  0  0  0  0  0  0  0  0  0  0
   64.6040   33.2461   45.9682 H   0  0  0  0  0  0  0  0  0  0  0  0
   62.0340   33.8469   51.4879 H   0  0  0  0  0  0  0  0  0  0  0  0
   61.2889   33.2833   53.7973 H   0  0  0  0  0  0  0  0  0  0  0  0
   58.9750   32.3627   54.0839 H   0  0  0  0  0  0  0  0  0  0  0  0
   57.7110   29.8670   52.2520 H   0  0  0  0  0  0  0  0  0  0  0  0
   56.2684   28.3906   53.9780 H   0  0  0  0  0  0  0  0  0  0  0  0
   54.0163   27.4217   54.3003 H   0  0  0  0  0  0  0  0  0  0  0  0
   51.5778   28.0806   54.2833 H   0  0  0  0  0  0  0  0  0  0  0  0
   50.9854   28.8597   52.7346 H   0  0  0  0  0  0  0  0  0  0  0  0
   52.5203   25.8124   54.1347 H   0  0  0  0  0  0  0  0  0  0  0  0
   50.7755   25.9548   54.3388 H   0  0  0  0  0  0  0  0  0  0  0  0
   52.1764   24.4752   52.0092 H   0  0  0  0  0  0  0  0  0  0  0  0
   51.4700   23.6678   53.4489 H   0  0  0  0  0  0  0  0  0  0  0  0
   51.0006   25.4779   50.5550 H   0  0  0  0  0  0  0  0  0  0  0  0
   49.2293   25.5434   50.5926 H   0  0  0  0  0  0  0  0  0  0  0  0
   50.0547   27.7262   51.3489 H   0  0  0  0  0  0  0  0  0  0  0  0
   49.4393   26.9072   52.7926 H   0  0  0  0  0  0  0  0  0  0  0  0
   54.6390   31.2658   51.2883 H   0  0  0  0  0  0  0  0  0  0  0  0
   58.2906   32.6113   49.8908 H   0  0  0  0  0  0  0  0  0  0  0  0
   58.9291   35.5704   46.2100 H   0  0  0  0  0  0  0  0  0  0  0  0
   60.3464   35.2321   45.2112 H   0  0  0  0  0  0  0  0  0  0  0  0
   58.6229   34.6782   43.4799 H   0  0  0  0  0  0  0  0  0  0  0  0
   57.4069   32.8509   42.3646 H   0  0  0  0  0  0  0  0  0  0  0  0
   56.4797   30.6407   42.3772 H   0  0  0  0  0  0  0  0  0  0  0  0
   56.1074   28.5305   43.6724 H   0  0  0  0  0  0  0  0  0  0  0  0
   58.1231   30.1226   47.0442 H   0  0  0  0  0  0  0  0  0  0  0  0
   59.0347   32.3141   47.0177 H   0  0  0  0  0  0  0  0  0  0  0  0
  1  2  2  3
  2  3  1  0
  3  4  1  0
  4  5  2  0
  5  6  1  0
  6  7  2  0
  7  8  1  0
  8  9  1  0
  9 10  2  0
 10 11  1  0
 11 12  2  0
 12 13  1  0
 13 14  1  0
 14 15  2  0
 14 16  1  0
 16 17  1  0
 17 18  2  0
 18 19  1  0
 19 20  2  0
 20 21  1  0
 21 22  1  0
 22 23  1  0
 23 24  1  0
 24 25  1  0
 25 26  1  0
 26 27  1  0
 20 28  1  0
 28 29  1  0
 29 30  1  0
 29 31  1  0
 29 32  1  0
 28 33  2  0
 13 34  2  0
  8 35  2  0
 35 36  1  0
 36 37  1  0
 37 38  1  0
 38 39  2  0
 39 40  1  0
 40 41  2  0
 41 42  1  0
 42 43  2  0
 43 44  1  0
 44 45  2  0
 45 46  1  0
 46 47  2  0
  7  2  1  0
 34  9  1  0
 47 38  1  0
 36  6  1  0
 46 41  1  0
 33 17  1  0
 27 22  1  0
  1 48  1  0
  3 49  1  0
  4 50  1  0
 10 51  1  0
 11 52  1  0
 12 53  1  0
 16 54  1  0
 18 55  1  0
 19 56  1  0
 21 57  1  0
 21 58  1  0
 23 59  1  0
 23 60  1  0
 24 61  1  0
 24 62  1  0
 26 63  1  0
 26 64  1  0
 27 65  1  0
 27 66  1  0
 33 67  1  0
 34 68  1  0
 37 69  1  0
 37 70  1  0
 39 71  1  0
 40 72  1  0
 42 73  1  0
 43 74  1  0
 45 75  1  0
 47 76  1  0
M  END
>  <smiles>  (64) 
N=c1[nH]cnc2c1c(-c1cccc(C(=O)Nc3ccc(CN4CCOCC4)c(C(F)(F)F)c3)c1)nn2Cc1ccc2ccncc2c1

>  <score_type>  (64) 
oracle

>  <origin>  (64) 
adg

>  <m_score__min__energy>  (64) 
-11.06

>  <m_primary>  (64) 
energy

$$$$
64:0
     RDKit          3D

 33 34  0  0  0  0  0  0  0  0999 V2000
   58.1650   27.1170   42.9930 C   0  0  0  0  0  0  0  0  0  0  0  0
   58.0690   26.2530   44.2410 C   0  0  0  0  0  0  0  0  0  0  0  0
   58.8690   26.8190   45.2730 O   0  0  0  0  0  0  0  0  0  0  0  0
   58.3400   27.6310   46.2790 C   0  0  0  0  0  0  0  0  0  0  0  0
   57.1800   27.4260   46.7330 O   0  0  0  0  0  0  0  0  0  0  0  0
   59.1500   28.7730   46.7930 C   0  0  0  0  0  0  0  0  0  0  0  0
   59.6600   29.8180   45.3860 S   0  0  0  0  0  0  0  0  0  0  0  0
   57.9960   30.3770   45.0140 C   0  0  0  0  0  0  0  0  0  0  0  0
   56.9820   29.5630   44.6720 N   0  0  0  0  0  0  0  0  0  0  0  0
   55.9270   30.3600   44.5610 N   0  0  0  0  0  0  0  0  0  0  0  0
   56.2700   31.6120   44.8320 N   0  0  0  0  0  0  0  0  0  0  0  0
   57.5590   31.6440   45.1160 N   0  0  0  0  0  0  0  0  0  0  0  0
   58.2980   32.8160   45.4950 C   0  0  0  0  0  0  0  0  0  0  0  0
   58.5570   33.8070   44.5350 C   0  0  0  0  0  0  0  0  0  0  0  0
   59.2680   34.9580   44.8780 C   0  0  0  0  0  0  0  0  0  0  0  0
   59.7270   35.1330   46.1840 C   0  0  0  0  0  0  0  0  0  0  0  0
   59.4820   34.1540   47.1490 C   0  0  0  0  0  0  0  0  0  0  0  0
   58.7780   32.9840   46.8160 C   0  0  0  0  0  0  0  0  0  0  0  0
   58.5450   31.9380   47.8700 C   0  0  0  0  0  0  0  0  0  0  0  0
   58.2821   28.1711   43.2849 H   0  0  0  0  0  0  0  0  0  0  0  0
   59.0338   26.8032   42.3957 H   0  0  0  0  0  0  0  0  0  0  0  0
   57.2485   27.0016   42.3957 H   0  0  0  0  0  0  0  0  0  0  0  0
   57.0217   26.2048   44.5738 H   0  0  0  0  0  0  0  0  0  0  0  0
   58.4286   25.2387   44.0131 H   0  0  0  0  0  0  0  0  0  0  0  0
   58.5463   29.3675   47.4945 H   0  0  0  0  0  0  0  0  0  0  0  0
   60.0398   28.3927   47.3161 H   0  0  0  0  0  0  0  0  0  0  0  0
   58.1967   33.6753   43.5041 H   0  0  0  0  0  0  0  0  0  0  0  0
   59.4667   35.7280   44.1180 H   0  0  0  0  0  0  0  0  0  0  0  0
   60.2825   36.0433   46.4537 H   0  0  0  0  0  0  0  0  0  0  0  0
   59.8428   34.2996   48.1779 H   0  0  0  0  0  0  0  0  0  0  0  0
   58.6463   32.3927   48.8665 H   0  0  0  0  0  0  0  0  0  0  0  0
   57.5324   31.5232   47.7574 H   0  0  0  0  0  0  0  0  0  0  0  0
   59.2858   31.1326   47.7574 H   0  0  0  0  0  0  0  0  0  0  0  0
  1  2  1  0
  2  3  1  0
  3  4  1  0
  4  5  2  0
  4  6  1  0
  6  7  1  0
  7  8  1  0
  8  9  2  0
  9 10  1  0
 10 11  2  0
 11 12  1  0
 12 13  1  0
 13 14  2  0
 14 15  1  0
 15 16  2  0
 16 17  1  0
 17 18  2  0
 18 19  1  0
 12  8  1  0
 18 13  1  0
  1 20  1  0
  1 21  1  0
  1 22  1  0
  2 23  1  0
  2 24  1  0
  6 25  1  0
  6 26  1  0
 14 27  1  0
 15 28  1  0
 16 29  1  0
 17 30  1  0
 19 31  1  0
 19 32  1  0
 19 33  1  0
M  END
>  <UniqueID>  (65) 
58

>  <SMILES>  (65) 
CCOC(=O)CSc1nnnn1-c1ccccc1C

>  <Energy>  (65) 
67.48420487564016

>  <Genealogy>  (65) 
CCOC(=O)CSc1nnnn1-c1ccccc1C (3D coordinates assigned)
CCOC(=O)CSc1nnnn1-c1ccccc1C (optimized conformer: 67.48420487564016 kcal/mol)

>  <smiles>  (65) 
CCOC(=O)CSc1nnnn1-c1ccccc1C

>  <score_type>  (65) 
oracle

>  <origin>  (65) 
adg

>  <m_score__min__energy>  (65) 
-6.96

>  <m_primary>  (65) 
energy

$$$$
65:0
     RDKit          3D

 25 26  0  0  0  0  0  0  0  0999 V2000
   55.6560   29.9330   53.8830 O   0  0  0  0  0  0  0  0  0  0  0  0
   55.0840   30.0960   52.7750 C   0  0  0  0  0  0  0  0  0  0  0  0
   53.6590   29.9310   52.6950 N   0  0  0  0  0  0  0  0  0  0  0  0
   52.7790   30.8200   52.3240 C   0  0  0  0  0  0  0  0  0  0  0  0
   51.8330   31.2550   53.2600 C   0  0  0  0  0  0  0  0  0  0  0  0
   50.8800   32.2080   52.8950 C   0  0  0  0  0  0  0  0  0  0  0  0
   50.8600   32.7030   51.6290 N   0  0  0  0  0  0  0  0  0  0  0  0
   51.7510   32.2890   50.6900 C   0  0  0  0  0  0  0  0  0  0  0  0
   52.7210   31.3370   51.0120 C   0  0  0  0  0  0  0  0  0  0  0  0
   55.8700   30.4710   51.6350 N   0  0  0  0  0  0  0  0  0  0  0  0
   56.9800   31.3810   51.6340 C   0  0  0  0  0  0  0  0  0  0  0  0
   56.9680   32.5620   52.4000 C   0  0  0  0  0  0  0  0  0  0  0  0
   58.0680   33.4240   52.3800 C   0  0  0  0  0  0  0  0  0  0  0  0
   59.1910   33.1100   51.6100 C   0  0  0  0  0  0  0  0  0  0  0  0
   59.2200   31.9270   50.8680 C   0  0  0  0  0  0  0  0  0  0  0  0
   58.1200   31.0610   50.8850 C   0  0  0  0  0  0  0  0  0  0  0  0
   58.1590   29.9170   50.1560 F   0  0  0  0  0  0  0  0  0  0  0  0
   51.8405   30.8466   54.2814 H   0  0  0  0  0  0  0  0  0  0  0  0
   50.1440   32.5589   53.6333 H   0  0  0  0  0  0  0  0  0  0  0  0
   51.7081   32.7052   49.6727 H   0  0  0  0  0  0  0  0  0  0  0  0
   53.4344   30.9928   50.2487 H   0  0  0  0  0  0  0  0  0  0  0  0
   56.0903   32.8071   53.0161 H   0  0  0  0  0  0  0  0  0  0  0  0
   58.0497   34.3513   52.9715 H   0  0  0  0  0  0  0  0  0  0  0  0
   60.0520   33.7943   51.5882 H   0  0  0  0  0  0  0  0  0  0  0  0
   60.1081   31.6754   50.2696 H   0  0  0  0  0  0  0  0  0  0  0  0
  1  2  2  0
  2  3  1  0
  3  4  2  3
  4  5  1  0
  5  6  2  0
  6  7  1  0
  7  8  1  0
  8  9  2  0
  2 10  1  0
 10 11  1  0
 11 12  2  0
 12 13  1  0
 13 14  2  0
 14 15  1  0
 15 16  2  0
 16 17  1  0
  9  4  1  0
 16 11  1  0
  5 18  1  0
  6 19  1  0
  8 20  1  0
  9 21  1  0
 12 22  1  0
 13 23  1  0
 14 24  1  0
 15 25  1  0
M  CHG  2   7  -1  10  -1
M  END
>  <UniqueID>  (66) 
59

>  <SMILES>  (66) 
O=C(N=c1cc[n-]cc1)[N-]c1ccccc1F

>  <Energy>  (66) 
38.20584987844878

>  <Genealogy>  (66) 
O=C(N=c1cc[n-]cc1)[N-]c1ccccc1F (protonated)
O=C(N=c1cc[n-]cc1)[N-]c1ccccc1F (3D coordinates assigned)
O=C(N=c1cc[n-]cc1)[N-]c1ccccc1F (optimized conformer: 38.20584987844878 kcal/mol)

>  <smiles>  (66) 
O=C(N=c1cc[nH]cc1)Nc1ccccc1F

>  <score_type>  (66) 
oracle

>  <origin>  (66) 
adg

>  <m_score__min__energy>  (66) 
-9.0899999999999999

>  <m_primary>  (66) 
energy

$$$$
66:0
     RDKit          3D

 43 46  0  0  0  0  0  0  0  0999 V2000
   55.2410   26.3300   46.0110 O   0  0  0  0  0  0  0  0  0  0  0  0
   56.3830   25.8010   46.0090 C   0  0  0  0  0  0  0  0  0  0  0  0
   57.4280   26.4250   46.7700 N   0  0  0  0  0  0  0  0  0  0  0  0
   57.8120   27.8060   46.7010 C   0  0  0  0  0  0  0  0  0  0  0  0
   57.5500   28.5960   45.5710 C   0  0  0  0  0  0  0  0  0  0  0  0
   57.9520   29.9320   45.5460 C   0  0  0  0  0  0  0  0  0  0  0  0
   58.6280   30.4710   46.6500 C   0  0  0  0  0  0  0  0  0  0  0  0
   59.0630   31.8440   46.6470 N   0  0  0  0  0  0  0  0  0  0  0  0
   58.0740   32.9080   46.4320 C   0  0  0  0  0  0  0  0  0  0  0  0
   58.6300   33.9460   45.4590 C   0  0  0  0  0  0  0  0  0  0  0  0
   59.9240   34.5530   46.0060 C   0  0  0  0  0  0  0  0  0  0  0  0
   60.9010   33.4970   46.4600 C   0  0  0  0  0  0  0  0  0  0  0  0
   62.2510   33.8430   46.6270 C   0  0  0  0  0  0  0  0  0  0  0  0
   63.1630   32.9140   47.1280 C   0  0  0  0  0  0  0  0  0  0  0  0
   62.7330   31.6380   47.4900 C   0  0  0  0  0  0  0  0  0  0  0  0
   61.3910   31.2820   47.3450 C   0  0  0  0  0  0  0  0  0  0  0  0
   60.4590   32.1990   46.8140 C   0  0  0  0  0  0  0  0  0  0  0  0
   58.8970   29.6760   47.7230 N   0  0  0  0  0  0  0  0  0  0  0  0
   58.5140   28.3720   47.7690 C   0  0  0  0  0  0  0  0  0  0  0  0
   56.6230   24.5920   45.1860 C   0  0  0  0  0  0  0  0  0  0  0  0
   55.6020   24.0890   44.3590 C   0  0  0  0  0  0  0  0  0  0  0  0
   55.8230   22.9510   43.5770 C   0  0  0  0  0  0  0  0  0  0  0  0
   57.0640   22.3100   43.6060 C   0  0  0  0  0  0  0  0  0  0  0  0
   58.0890   22.8110   44.4120 C   0  0  0  0  0  0  0  0  0  0  0  0
   57.8740   23.9500   45.1950 C   0  0  0  0  0  0  0  0  0  0  0  0
   57.0280   28.1622   44.7054 H   0  0  0  0  0  0  0  0  0  0  0  0
   57.7401   30.5579   44.6666 H   0  0  0  0  0  0  0  0  0  0  0  0
   57.1545   32.4722   46.0142 H   0  0  0  0  0  0  0  0  0  0  0  0
   57.8515   33.3951   47.3929 H   0  0  0  0  0  0  0  0  0  0  0  0
   58.8369   33.4625   44.4929 H   0  0  0  0  0  0  0  0  0  0  0  0
   57.8874   34.7472   45.3302 H   0  0  0  0  0  0  0  0  0  0  0  0
   60.3951   35.1549   45.2149 H   0  0  0  0  0  0  0  0  0  0  0  0
   59.6649   35.1710   46.8784 H   0  0  0  0  0  0  0  0  0  0  0  0
   62.5923   34.8543   46.3608 H   0  0  0  0  0  0  0  0  0  0  0  0
   64.2226   33.1884   47.2376 H   0  0  0  0  0  0  0  0  0  0  0  0
   63.4533   30.9098   47.8910 H   0  0  0  0  0  0  0  0  0  0  0  0
   61.0572   30.2784   47.6472 H   0  0  0  0  0  0  0  0  0  0  0  0
   58.7576   27.7602   48.6501 H   0  0  0  0  0  0  0  0  0  0  0  0
   54.6250   24.5934   44.3274 H   0  0  0  0  0  0  0  0  0  0  0  0
   55.0180   22.5597   42.9376 H   0  0  0  0  0  0  0  0  0  0  0  0
   57.2338   21.4115   42.9946 H   0  0  0  0  0  0  0  0  0  0  0  0
   59.0674   22.3087   44.4310 H   0  0  0  0  0  0  0  0  0  0  0  0
   58.6876   24.3454   45.8209 H   0  0  0  0  0  0  0  0  0  0  0  0
  1  2  2  0
  2  3  1  0
  3  4  1  0
  4  5  2  0
  5  6  1  0
  6  7  2  0
  7  8  1  0
  8  9  1  0
  9 10  1  0
 10 11  1  0
 11 12  1  0
 12 13  2  0
 13 14  1  0
 14 15  2  0
 15 16  1  0
 16 17  2  0
  7 18  1  0
 18 19  2  0
  2 20  1  0
 20 21  2  0
 21 22  1  0
 22 23  2  0
 23 24  1  0
 24 25  2  0
 19  4  1  0
 25 20  1  0
 17  8  1  0
 17 12  1  0
  5 26  1  0
  6 27  1  0
  9 28  1  0
  9 29  1  0
 10 30  1  0
 10 31  1  0
 11 32  1  0
 11 33  1  0
 13 34  1  0
 14 35  1  0
 15 36  1  0
 16 37  1  0
 19 38  1  0
 21 39  1  0
 22 40  1  0
 23 41  1  0
 24 42  1  0
 25 43  1  0
M  CHG  1   3  -1
M  END
>  <UniqueID>  (67) 
60

>  <SMILES>  (67) 
O=C([N-]c1ccc(N2CCCc3ccccc32)nc1)c1ccccc1

>  <Energy>  (67) 
61.07613803248315

>  <Genealogy>  (67) 
O=C([N-]c1ccc(N2CCCc3ccccc32)nc1)c1ccccc1 (protonated)
O=C([N-]c1ccc(N2CCCc3ccccc32)nc1)c1ccccc1 (3D coordinates assigned)
O=C([N-]c1ccc(N2CCCc3ccccc32)nc1)c1ccccc1 (nonaromatic ring conformer: 61.07613803248315 kcal/mol)

>  <smiles>  (67) 
O=C(Nc1ccc(N2CCCc3ccccc32)nc1)c1ccccc1

>  <score_type>  (67) 
oracle

>  <origin>  (67) 
adg

>  <m_score__min__energy>  (67) 
-10.49

>  <m_primary>  (67) 
energy

$$$$
67:0
     RDKit          3D

 44 46  0  0  0  0  0  0  0  0999 V2000
   61.9120   32.4890   48.6280 O   0  0  0  0  0  0  0  0  0  0  0  0
   60.7500   32.0500   48.4150 C   0  0  0  0  0  0  0  0  0  0  0  0
   59.5800   32.9530   48.6990 C   0  0  0  0  0  0  0  0  0  0  0  0
   59.0270   33.4940   47.4090 C   0  0  0  0  0  0  0  0  0  0  0  0
   57.7870   33.0470   46.9240 C   0  0  0  0  0  0  0  0  0  0  0  0
   57.2930   33.5230   45.7060 C   0  0  0  0  0  0  0  0  0  0  0  0
   58.0370   34.4410   44.9600 C   0  0  0  0  0  0  0  0  0  0  0  0
   59.2760   34.8830   45.4280 C   0  0  0  0  0  0  0  0  0  0  0  0
   59.7750   34.4080   46.6460 C   0  0  0  0  0  0  0  0  0  0  0  0
   60.5800   30.7450   47.8300 N   0  0  0  0  0  0  0  0  0  0  0  0
   60.1230   30.6060   46.4380 C   0  0  0  0  0  0  0  0  0  0  0  0
   60.9930   29.6130   45.6570 C   0  0  0  0  0  0  0  0  0  0  0  0
   60.7280   28.1420   46.0170 C   0  0  0  0  0  0  0  0  0  0  0  0
   59.6980   28.0070   47.0610 N   0  0  0  0  0  0  0  0  0  0  0  0
   58.3740   27.5680   46.6960 C   0  0  0  0  0  0  0  0  0  0  0  0
   57.5840   28.3370   45.8260 C   0  0  0  0  0  0  0  0  0  0  0  0
   56.3010   27.9020   45.4920 C   0  0  0  0  0  0  0  0  0  0  0  0
   55.8150   26.7070   46.0230 C   0  0  0  0  0  0  0  0  0  0  0  0
   54.5380   26.2630   45.6990 O   0  0  0  0  0  0  0  0  0  0  0  0
   56.6240   25.9610   46.8820 C   0  0  0  0  0  0  0  0  0  0  0  0
   57.8740   26.4000   47.1990 N   0  0  0  0  0  0  0  0  0  0  0  0
   59.9490   28.3650   48.4710 C   0  0  0  0  0  0  0  0  0  0  0  0
   60.8890   29.5750   48.6720 C   0  0  0  0  0  0  0  0  0  0  0  0
   58.7973   32.3829   49.2209 H   0  0  0  0  0  0  0  0  0  0  0  0
   59.9130   33.7902   49.3301 H   0  0  0  0  0  0  0  0  0  0  0  0
   57.2019   32.3191   47.5052 H   0  0  0  0  0  0  0  0  0  0  0  0
   56.3180   33.1747   45.3345 H   0  0  0  0  0  0  0  0  0  0  0  0
   57.6460   34.8160   44.0027 H   0  0  0  0  0  0  0  0  0  0  0  0
   59.8603   35.6051   44.8388 H   0  0  0  0  0  0  0  0  0  0  0  0
   60.7556   34.7508   47.0077 H   0  0  0  0  0  0  0  0  0  0  0  0
   59.0831   30.2475   46.4374 H   0  0  0  0  0  0  0  0  0  0  0  0
   60.1987   31.5890   45.9502 H   0  0  0  0  0  0  0  0  0  0  0  0
   60.7960   29.7486   44.5833 H   0  0  0  0  0  0  0  0  0  0  0  0
   62.0393   29.8251   45.9221 H   0  0  0  0  0  0  0  0  0  0  0  0
   60.3911   27.6106   45.1147 H   0  0  0  0  0  0  0  0  0  0  0  0
   61.6637   27.7130   46.4050 H   0  0  0  0  0  0  0  0  0  0  0  0
   57.9747   29.2774   45.4100 H   0  0  0  0  0  0  0  0  0  0  0  0
   55.6751   28.4991   44.8125 H   0  0  0  0  0  0  0  0  0  0  0  0
   56.2511   25.0161   47.3040 H   0  0  0  0  0  0  0  0  0  0  0  0
   58.4610   25.8050   47.8240 H   0  0  0  0  0  0  0  0  0  0  0  0
   58.9831   28.5994   48.9423 H   0  0  0  0  0  0  0  0  0  0  0  0
   60.4538   27.5002   48.9262 H   0  0  0  0  0  0  0  0  0  0  0  0
   60.8265   29.8855   49.7254 H   0  0  0  0  0  0  0  0  0  0  0  0
   61.8940   29.2385   48.3774 H   0  0  0  0  0  0  0  0  0  0  0  0
  1  2  2  0
  2  3  1  0
  3  4  1  0
  4  5  2  0
  5  6  1  0
  6  7  2  0
  7  8  1  0
  8  9  2  0
  2 10  1  0
 10 11  1  0
 11 12  1  0
 12 13  1  0
 13 14  1  0
 14 15  1  0
 15 16  2  0
 16 17  1  0
 17 18  2  0
 18 19  1  0
 18 20  1  0
 20 21  2  0
 14 22  1  0
 22 23  1  0
  9  4  1  0
 23 10  1  0
 21 15  1  0
  3 24  1  0
  3 25  1  0
  5 26  1  0
  6 27  1  0
  7 28  1  0
  8 29  1  0
  9 30  1  0
 11 31  1  0
 11 32  1  0
 12 33  1  0
 12 34  1  0
 13 35  1  0
 13 36  1  0
 16 37  1  0
 17 38  1  0
 20 39  1  0
 21 40  1  0
 22 41  1  0
 22 42  1  0
 23 43  1  0
 23 44  1  0
M  CHG  2  19  -1  21   1
M  END
>  <UniqueID>  (68) 
61

>  <SMILES>  (68) 
O=C(Cc1ccccc1)N1CCCN(c2ccc([O-])c[nH+]2)CC1

>  <Energy>  (68) 
54.274478211530926

>  <Genealogy>  (68) 
O=C(Cc1ccccc1)N1CCCN(c2ccc([O-])c[nH+]2)CC1 (protonated)
O=C(Cc1ccccc1)N1CCCN(c2ccc([O-])c[nH+]2)CC1 (3D coordinates assigned)
O=C(Cc1ccccc1)N1CCCN(c2ccc([O-])c[nH+]2)CC1 (nonaromatic ring conformer: 54.274478211530926 kcal/mol)

>  <smiles>  (68) 
O=C(Cc1ccccc1)N1CCCN(c2ccc(O)cn2)CC1

>  <score_type>  (68) 
oracle

>  <origin>  (68) 
adg

>  <m_score__min__energy>  (68) 
-6.3700000000000001

>  <m_primary>  (68) 
energy

$$$$
68:0
     RDKit          3D

 66 68  0  0  1  0  0  0  0  0999 V2000
   63.7200   33.8470   46.6830 N   0  0  0  0  0  0  0  0  0  0  0  0
   62.4790   33.8660   46.9490 C   0  0  0  0  0  0  0  0  0  0  0  0
   62.1580   34.0140   48.2780 N   0  0  0  0  0  0  0  0  0  0  0  0
   60.8410   34.0340   48.6420 C   0  0  0  0  0  0  0  0  0  0  0  0
   60.6150   34.1800   49.8820 N   0  0  0  0  0  0  0  0  0  0  0  0
   59.8760   33.9060   47.6780 C   0  0  0  0  0  0  0  0  0  0  0  0
   58.5270   33.8810   47.7870 N   0  0  0  0  0  0  0  0  0  0  0  0
   58.0260   33.7220   46.5560 C   0  0  0  0  0  0  0  0  0  0  0  0
   59.0340   33.6430   45.6400 N   0  0  0  0  0  0  0  0  0  0  0  0
   58.9590   33.5760   44.2220 C   0  0  0  0  0  0  0  0  0  0  0  0
   57.7880   33.0260   43.5380 C   0  0  0  0  0  0  0  0  0  0  0  0
   57.5640   31.5860   43.4850 C   0  0  0  0  0  0  0  0  0  0  0  0
   56.4870   31.0710   44.3640 C   0  0  0  0  0  0  0  0  0  0  0  0
   56.0300   29.6410   43.9790 C   0  0  0  0  0  0  0  0  0  0  0  0
   57.0530   28.6470   44.3860 C   0  0  0  0  0  0  0  0  0  0  0  0
   58.0200   29.0110   45.3690 N   0  0  0  0  0  0  0  0  0  0  0  0
   58.9230   29.3610   46.2540 C   0  0  0  0  0  0  0  0  0  0  0  0
   58.8280   29.7960   47.5720 C   0  0  0  0  0  0  0  0  0  0  0  0
   59.8880   30.2670   48.3140 C   0  0  0  0  0  0  0  0  0  0  0  0
   61.1050   30.3050   47.7210 C   0  0  0  0  0  0  0  0  0  0  0  0
   62.2790   30.8750   48.4100 C   0  0  0  0  0  0  0  0  0  0  0  0
   63.1700   31.3780   47.6210 O   0  0  0  0  0  0  0  0  0  0  0  0
   62.4540   30.8920   49.7820 N   0  0  0  0  0  0  0  0  0  0  0  0
   63.5680   31.3990   50.5300 C   0  0  2  0  0  0  0  0  0  0  0  0
   63.4870   31.2670   52.0110 C   0  0  0  0  0  0  0  0  0  0  0  0
   62.1710   31.2870   52.6650 C   0  0  0  0  0  0  0  0  0  0  0  0
   61.1670   32.2000   52.1150 C   0  0  0  0  0  0  0  0  0  0  0  0
   60.2680   31.8460   51.2690 O   0  0  0  0  0  0  0  0  0  0  0  0
   61.0920   33.5680   52.4630 O   0  0  0  0  0  0  0  0  0  0  0  0
   63.9510   32.8050   50.1210 C   0  0  0  0  0  0  0  0  0  0  0  0
   63.3700   33.7160   50.7920 O   0  0  0  0  0  0  0  0  0  0  0  0
   64.8210   33.1660   49.1500 O   0  0  0  0  0  0  0  0  0  0  0  0
   61.3110   29.8970   46.4270 C   0  0  0  0  0  0  0  0  0  0  0  0
   60.2690   29.4410   45.7130 C   0  0  0  0  0  0  0  0  0  0  0  0
   60.4800   29.0330   44.4400 F   0  0  0  0  0  0  0  0  0  0  0  0
   60.1940   33.7550   46.3250 C   0  0  0  0  0  0  0  0  0  0  0  0
   61.5030   33.7420   46.0150 N   0  0  0  0  0  0  0  0  0  0  0  0
   64.3660   33.1020   46.9890 H   0  0  0  0  0  0  0  0  0  0  0  0
   62.9070   34.1110   48.9890 H   0  0  0  0  0  0  0  0  0  0  0  0
   61.1010   33.7360   50.6600 H   0  0  0  0  0  0  0  0  0  0  0  0
   56.9539   33.6634   46.3169 H   0  0  0  0  0  0  0  0  0  0  0  0
   59.0739   34.6074   43.8573 H   0  0  0  0  0  0  0  0  0  0  0  0
   59.7383   32.8379   43.9814 H   0  0  0  0  0  0  0  0  0  0  0  0
   56.9048   33.4634   44.0265 H   0  0  0  0  0  0  0  0  0  0  0  0
   57.9761   33.2834   42.4852 H   0  0  0  0  0  0  0  0  0  0  0  0
   57.3097   31.3213   42.4481 H   0  0  0  0  0  0  0  0  0  0  0  0
   58.4941   31.1239   43.8475 H   0  0  0  0  0  0  0  0  0  0  0  0
   56.8564   31.0549   45.4000 H   0  0  0  0  0  0  0  0  0  0  0  0
   55.6195   31.7378   44.2504 H   0  0  0  0  0  0  0  0  0  0  0  0
   55.0811   29.4141   44.4871 H   0  0  0  0  0  0  0  0  0  0  0  0
   55.8950   29.5898   42.8885 H   0  0  0  0  0  0  0  0  0  0  0  0
   56.5137   27.7703   44.7739 H   0  0  0  0  0  0  0  0  0  0  0  0
   57.6492   28.4946   43.4742 H   0  0  0  0  0  0  0  0  0  0  0  0
   58.6070   29.7490   44.3930 H   0  0  0  0  0  0  0  0  0  0  0  0
   57.8397   29.7614   48.0537 H   0  0  0  0  0  0  0  0  0  0  0  0
   59.7510   30.6010   49.3531 H   0  0  0  0  0  0  0  0  0  0  0  0
   61.6750   30.4340   50.3670 H   0  0  0  0  0  0  0  0  0  0  0  0
   64.3805   30.7146   50.2448 H   0  0  0  0  0  0  0  0  0  0  0  0
   63.9613   30.3100   52.2741 H   0  0  0  0  0  0  0  0  0  0  0  0
   63.9749   32.1810   52.3806 H   0  0  0  0  0  0  0  0  0  0  0  0
   61.7583   30.2688   52.6105 H   0  0  0  0  0  0  0  0  0  0  0  0
   62.3645   31.6563   53.6829 H   0  0  0  0  0  0  0  0  0  0  0  0
   61.5760   34.2450   51.8780 H   0  0  0  0  0  0  0  0  0  0  0  0
   64.7860   32.6840   48.2170 H   0  0  0  0  0  0  0  0  0  0  0  0
   62.3154   29.9428   45.9809 H   0  0  0  0  0  0  0  0  0  0  0  0
   61.8110   33.6240   44.9960 H   0  0  0  0  0  0  0  0  0  0  0  0
  1  2  2  3
  2  3  1  0
  3  4  1  0
  4  5  2  3
  4  6  1  0
  6  7  1  0
  7  8  2  0
  8  9  1  0
  9 10  1  0
 10 11  1  0
 11 12  1  0
 12 13  1  0
 13 14  1  0
 14 15  1  0
 15 16  1  0
 16 17  1  0
 17 18  2  0
 18 19  1  0
 19 20  2  0
 20 21  1  0
 21 22  2  0
 21 23  1  0
 23 24  1  0
 24 25  1  0
 25 26  1  0
 26 27  1  0
 27 28  2  0
 27 29  1  0
 24 30  1  0
 30 31  2  0
 30 32  1  0
 20 33  1  0
 33 34  2  0
 34 35  1  0
  9 36  1  0
 36 37  1  0
 37  2  1  0
 36  6  2  0
 34 17  1  0
  1 38  1  0
  3 39  1  0
  5 40  1  0
  8 41  1  0
 10 42  1  0
 10 43  1  0
 11 44  1  0
 11 45  1  0
 12 46  1  0
 12 47  1  0
 13 48  1  0
 13 49  1  0
 14 50  1  0
 14 51  1  0
 15 52  1  0
 15 53  1  0
 16 54  1  0
 18 55  1  0
 19 56  1  0
 23 57  1  0
 24 58  1  6
 25 59  1  0
 25 60  1  0
 26 61  1  0
 26 62  1  0
 29 63  1  0
 32 64  1  0
 33 65  1  0
 37 66  1  0
M  END
>  <smiles>  (69) 
N=c1[nH]c(=N)c2ncn(CCCCCCNc3ccc(C(=O)NC(CCC(=O)O)C(=O)O)cc3F)c2[nH]1

>  <score_type>  (69) 
oracle

>  <origin>  (69) 
adg

>  <m_score__min__energy>  (69) 
-8.7300000000000004

>  <m_primary>  (69) 
energy

$$$$
69:0
     RDKit          3D

 48 51  0  0  0  0  0  0  0  0999 V2000
   56.6540   30.7580   42.7320 C   0  0  0  0  0  0  0  0  0  0  0  0
   56.9780   29.8180   44.2080 S   0  0  0  0  0  0  0  0  0  0  0  0
   55.7410   29.0800   44.6350 O   0  0  0  0  0  0  0  0  0  0  0  0
   57.3780   30.7600   45.3090 O   0  0  0  0  0  0  0  0  0  0  0  0
   58.2740   28.6990   43.9270 N   0  0  0  0  0  0  0  0  0  0  0  0
   58.3380   27.3860   44.5110 C   0  0  0  0  0  0  0  0  0  0  0  0
   57.7540   26.2730   43.8590 C   0  0  0  0  0  0  0  0  0  0  0  0
   57.8890   25.0170   44.4430 C   0  0  0  0  0  0  0  0  0  0  0  0
   57.4160   23.8490   43.9790 N   0  0  0  0  0  0  0  0  0  0  0  0
   57.8020   22.9120   44.8770 C   0  0  0  0  0  0  0  0  0  0  0  0
   58.5270   23.4920   45.9130 C   0  0  0  0  0  0  0  0  0  0  0  0
   58.5700   24.8360   45.6130 C   0  0  0  0  0  0  0  0  0  0  0  0
   59.1620   25.8960   46.2900 C   0  0  0  0  0  0  0  0  0  0  0  0
   59.0410   27.1880   45.7370 C   0  0  0  0  0  0  0  0  0  0  0  0
   59.6150   28.2960   46.4410 N   0  0  0  0  0  0  0  0  0  0  0  0
   60.6100   29.1390   45.7640 C   0  0  0  0  0  0  0  0  0  0  0  0
   61.0620   30.2890   46.6670 C   0  0  0  0  0  0  0  0  0  0  0  0
   59.8860   30.9230   47.2800 N   0  0  0  0  0  0  0  0  0  0  0  0
   59.6680   32.3410   47.1510 C   0  0  0  0  0  0  0  0  0  0  0  0
   59.2710   32.8910   45.9200 C   0  0  0  0  0  0  0  0  0  0  0  0
   59.0720   34.2690   45.7930 C   0  0  0  0  0  0  0  0  0  0  0  0
   59.2720   35.1100   46.8920 C   0  0  0  0  0  0  0  0  0  0  0  0
   59.6740   34.5740   48.1170 C   0  0  0  0  0  0  0  0  0  0  0  0
   59.8730   33.1950   48.2490 C   0  0  0  0  0  0  0  0  0  0  0  0
   58.8750   30.0920   47.9540 C   0  0  0  0  0  0  0  0  0  0  0  0
   59.1810   28.5950   47.8110 C   0  0  0  0  0  0  0  0  0  0  0  0
   56.3070   31.7649   43.0073 H   0  0  0  0  0  0  0  0  0  0  0  0
   57.5765   30.8378   42.1382 H   0  0  0  0  0  0  0  0  0  0  0  0
   55.8783   30.2524   42.1382 H   0  0  0  0  0  0  0  0  0  0  0  0
   59.0800   29.0520   43.3630 H   0  0  0  0  0  0  0  0  0  0  0  0
   57.2065   26.3982   42.9132 H   0  0  0  0  0  0  0  0  0  0  0  0
   56.8630   23.6900   43.1080 H   0  0  0  0  0  0  0  0  0  0  0  0
   57.5735   21.8389   44.7981 H   0  0  0  0  0  0  0  0  0  0  0  0
   58.9702   22.9867   46.7837 H   0  0  0  0  0  0  0  0  0  0  0  0
   59.7092   25.7319   47.2301 H   0  0  0  0  0  0  0  0  0  0  0  0
   61.4832   28.5238   45.5011 H   0  0  0  0  0  0  0  0  0  0  0  0
   60.1509   29.5642   44.8593 H   0  0  0  0  0  0  0  0  0  0  0  0
   61.7208   29.8980   47.4564 H   0  0  0  0  0  0  0  0  0  0  0  0
   61.6083   31.0323   46.0678 H   0  0  0  0  0  0  0  0  0  0  0  0
   59.1160   32.2336   45.0517 H   0  0  0  0  0  0  0  0  0  0  0  0
   58.7577   34.6920   44.8275 H   0  0  0  0  0  0  0  0  0  0  0  0
   59.1127   36.1937   46.7915 H   0  0  0  0  0  0  0  0  0  0  0  0
   59.8346   35.2369   48.9800 H   0  0  0  0  0  0  0  0  0  0  0  0
   60.1911   32.7775   49.2157 H   0  0  0  0  0  0  0  0  0  0  0  0
   58.8560   30.3511   49.0229 H   0  0  0  0  0  0  0  0  0  0  0  0
   57.9009   30.2886   47.4824 H   0  0  0  0  0  0  0  0  0  0  0  0
   59.9805   28.3186   48.5141 H   0  0  0  0  0  0  0  0  0  0  0  0
   58.2705   28.0192   48.0333 H   0  0  0  0  0  0  0  0  0  0  0  0
  1  2  1  0
  2  3  2  0
  2  4  2  0
  2  5  1  0
  5  6  1  0
  6  7  2  0
  7  8  1  0
  8  9  1  0
  9 10  1  0
 10 11  2  0
 11 12  1  0
 12 13  1  0
 13 14  2  0
 14 15  1  0
 15 16  1  0
 16 17  1  0
 17 18  1  0
 18 19  1  0
 19 20  2  0
 20 21  1  0
 21 22  2  0
 22 23  1  0
 23 24  2  0
 18 25  1  0
 25 26  1  0
 14  6  1  0
 26 15  1  0
 12  8  2  0
 24 19  1  0
  1 27  1  0
  1 28  1  0
  1 29  1  0
  5 30  1  0
  7 31  1  0
  9 32  1  0
 10 33  1  0
 11 34  1  0
 13 35  1  0
 16 36  1  0
 16 37  1  0
 17 38  1  0
 17 39  1  0
 20 40  1  0
 21 41  1  0
 22 42  1  0
 23 43  1  0
 24 44  1  0
 25 45  1  0
 25 46  1  0
 26 47  1  0
 26 48  1  0
M  END
>  <UniqueID>  (70) 
62

>  <SMILES>  (70) 
CS(=O)(=O)Nc1cc2[nH]ccc2cc1N1CCN(c2ccccc2)CC1

>  <Energy>  (70) 
92.87161089655237

>  <Genealogy>  (70) 
CS(=O)(=O)Nc1cc2[nH]ccc2cc1N1CCN(c2ccccc2)CC1 (3D coordinates assigned)
CS(=O)(=O)Nc1cc2[nH]ccc2cc1N1CCN(c2ccccc2)CC1 (nonaromatic ring conformer: 92.87161089655237 kcal/mol)

>  <smiles>  (70) 
CS(=O)(=O)Nc1cc2[nH]ccc2cc1N1CCN(c2ccccc2)CC1

>  <score_type>  (70) 
oracle

>  <origin>  (70) 
adg

>  <m_score__min__energy>  (70) 
-8.1199999999999992

>  <m_primary>  (70) 
energy

$$$$
70:0
     RDKit          3D

 44 46  0  0  0  0  0  0  0  0999 V2000
   59.5570   35.0600   46.8660 C   0  0  0  0  0  0  0  0  0  0  0  0
   58.8850   33.9420   46.1240 C   0  0  0  0  0  0  0  0  0  0  0  0
   58.7930   32.6700   46.7080 C   0  0  0  0  0  0  0  0  0  0  0  0
   58.1940   31.6160   46.0100 C   0  0  0  0  0  0  0  0  0  0  0  0
   57.6950   31.8210   44.7170 C   0  0  0  0  0  0  0  0  0  0  0  0
   56.9550   30.4920   43.8310 S   0  0  0  0  0  0  0  0  0  0  0  0
   56.6610   30.9390   42.4270 O   0  0  0  0  0  0  0  0  0  0  0  0
   55.6730   30.0740   44.4970 O   0  0  0  0  0  0  0  0  0  0  0  0
   58.0190   29.1510   43.7820 O   0  0  0  0  0  0  0  0  0  0  0  0
   57.8040   27.9330   44.4400 C   0  0  0  0  0  0  0  0  0  0  0  0
   57.9060   26.7540   43.6960 C   0  0  0  0  0  0  0  0  0  0  0  0
   57.7140   25.5090   44.3020 C   0  0  0  0  0  0  0  0  0  0  0  0
   57.4120   25.4220   45.6730 C   0  0  0  0  0  0  0  0  0  0  0  0
   57.2110   24.1090   46.3360 C   0  0  0  0  0  0  0  0  0  0  0  0
   57.0050   24.0310   47.9660 S   0  0  0  0  0  0  0  0  0  0  0  0
   57.0990   22.9080   45.5490 N   0  0  0  0  0  0  0  0  0  0  0  0
   56.0030   21.9660   45.8030 C   0  0  0  0  0  0  0  0  0  0  0  0
   55.9500   20.9010   44.7070 C   0  0  0  0  0  0  0  0  0  0  0  0
   56.2360   21.4990   43.4610 O   0  0  0  0  0  0  0  0  0  0  0  0
   57.6170   21.8040   43.3730 C   0  0  0  0  0  0  0  0  0  0  0  0
   58.1710   22.5480   44.6110 C   0  0  0  0  0  0  0  0  0  0  0  0
   57.3070   26.6070   46.4190 C   0  0  0  0  0  0  0  0  0  0  0  0
   57.4980   27.8520   45.8110 C   0  0  0  0  0  0  0  0  0  0  0  0
   57.7910   33.0890   44.1310 C   0  0  0  0  0  0  0  0  0  0  0  0
   58.3890   34.1430   44.8260 C   0  0  0  0  0  0  0  0  0  0  0  0
   59.4570   34.8937   47.9487 H   0  0  0  0  0  0  0  0  0  0  0  0
   60.6231   35.0902   46.5966 H   0  0  0  0  0  0  0  0  0  0  0  0
   59.0835   36.0156   46.5966 H   0  0  0  0  0  0  0  0  0  0  0  0
   59.1933   32.5007   47.7185 H   0  0  0  0  0  0  0  0  0  0  0  0
   58.1146   30.6235   46.4776 H   0  0  0  0  0  0  0  0  0  0  0  0
   58.1398   26.8065   42.6224 H   0  0  0  0  0  0  0  0  0  0  0  0
   57.7997   24.5908   43.7024 H   0  0  0  0  0  0  0  0  0  0  0  0
   56.1631   21.4775   46.7755 H   0  0  0  0  0  0  0  0  0  0  0  0
   55.0520   22.5187   45.8094 H   0  0  0  0  0  0  0  0  0  0  0  0
   56.6939   20.1188   44.9185 H   0  0  0  0  0  0  0  0  0  0  0  0
   54.9464   20.4516   44.6782 H   0  0  0  0  0  0  0  0  0  0  0  0
   58.1736   20.8624   43.2562 H   0  0  0  0  0  0  0  0  0  0  0  0
   57.7429   22.4764   42.5116 H   0  0  0  0  0  0  0  0  0  0  0  0
   58.8924   21.8965   45.1260 H   0  0  0  0  0  0  0  0  0  0  0  0
   58.6544   23.4747   44.2682 H   0  0  0  0  0  0  0  0  0  0  0  0
   57.0722   26.5556   47.4924 H   0  0  0  0  0  0  0  0  0  0  0  0
   57.4086   28.7720   46.4073 H   0  0  0  0  0  0  0  0  0  0  0  0
   57.3938   33.2560   43.1189 H   0  0  0  0  0  0  0  0  0  0  0  0
   58.4715   35.1335   44.3548 H   0  0  0  0  0  0  0  0  0  0  0  0
  1  2  1  0
  2  3  2  0
  3  4  1  0
  4  5  2  0
  5  6  1  0
  6  7  2  0
  6  8  2  0
  6  9  1  0
  9 10  1  0
 10 11  2  0
 11 12  1  0
 12 13  2  0
 13 14  1  0
 14 15  2  0
 14 16  1  0
 16 17  1  0
 17 18  1  0
 18 19  1  0
 19 20  1  0
 20 21  1  0
 13 22  1  0
 22 23  2  0
  5 24  1  0
 24 25  2  0
 25  2  1  0
 23 10  1  0
 21 16  1  0
  1 26  1  0
  1 27  1  0
  1 28  1  0
  3 29  1  0
  4 30  1  0
 11 31  1  0
 12 32  1  0
 17 33  1  0
 17 34  1  0
 18 35  1  0
 18 36  1  0
 20 37  1  0
 20 38  1  0
 21 39  1  0
 21 40  1  0
 22 41  1  0
 23 42  1  0
 24 43  1  0
 25 44  1  0
M  END
>  <UniqueID>  (71) 
63

>  <SMILES>  (71) 
Cc1ccc(S(=O)(=O)Oc2ccc(C(=S)N3CCOCC3)cc2)cc1

>  <Energy>  (71) 
56.85102040999617

>  <Genealogy>  (71) 
Cc1ccc(S(=O)(=O)Oc2ccc(C(=S)N3CCOCC3)cc2)cc1 (3D coordinates assigned)
Cc1ccc(S(=O)(=O)Oc2ccc(C(=S)N3CCOCC3)cc2)cc1 (nonaromatic ring conformer: 56.85102040999617 kcal/mol)

>  <smiles>  (71) 
Cc1ccc(S(=O)(=O)Oc2ccc(C(=S)N3CCOCC3)cc2)cc1

>  <score_type>  (71) 
oracle

>  <origin>  (71) 
adg

>  <m_score__min__energy>  (71) 
-9.0299999999999994

>  <m_primary>  (71) 
energy

$$$$
71:0
     RDKit          3D

 65 69  0  0  0  0  0  0  0  0999 V2000
   55.6960   29.7750   43.5660 C   0  0  0  0  0  0  0  0  0  0  0  0
   55.8670   29.2450   44.8770 O   0  0  0  0  0  0  0  0  0  0  0  0
   57.0840   29.2240   45.5800 C   0  0  0  0  0  0  0  0  0  0  0  0
   57.7720   30.4090   45.9070 C   0  0  0  0  0  0  0  0  0  0  0  0
   59.0070   30.3670   46.5820 C   0  0  0  0  0  0  0  0  0  0  0  0
   59.8100   31.6160   46.9570 C   0  0  2  0  0  0  0  0  0  0  0  0
   59.5830   32.1290   48.3710 C   0  0  0  0  0  0  0  0  0  0  0  0
   58.5830   31.6290   49.2430 C   0  0  0  0  0  0  0  0  0  0  0  0
   58.4630   32.2170   50.4980 C   0  0  0  0  0  0  0  0  0  0  0  0
   59.2480   33.2520   50.8900 C   0  0  0  0  0  0  0  0  0  0  0  0
   60.2210   33.7970   50.0590 C   0  0  0  0  0  0  0  0  0  0  0  0
   60.3760   33.2370   48.7740 C   0  0  0  0  0  0  0  0  0  0  0  0
   61.3730   33.8030   47.7950 C   0  0  0  0  0  0  0  0  0  0  0  0
   60.7640   33.9480   46.3670 C   0  0  2  0  0  0  0  0  0  0  0  0
   60.0070   35.2680   46.2130 C   0  0  0  0  0  0  0  0  0  0  0  0
   58.5530   34.9410   46.4800 C   0  0  0  0  0  0  0  0  0  0  0  0
   58.3560   33.5250   45.9640 C   0  0  0  0  0  0  0  0  0  0  0  0
   59.7390   32.8330   45.9860 C   0  0  2  0  0  0  0  0  0  0  0  0
   58.9030   33.6320   52.1720 O   0  0  0  0  0  0  0  0  0  0  0  0
   57.8320   32.7860   52.6130 C   0  0  0  0  0  0  0  0  0  0  0  0
   57.5810   31.8990   51.5130 O   0  0  0  0  0  0  0  0  0  0  0  0
   59.5700   29.1110   46.8720 C   0  0  0  0  0  0  0  0  0  0  0  0
   58.8880   27.9200   46.5640 C   0  0  0  0  0  0  0  0  0  0  0  0
   59.4170   26.6560   46.8700 O   0  0  0  0  0  0  0  0  0  0  0  0
   60.6760   26.1750   46.4130 C   0  0  0  0  0  0  0  0  0  0  0  0
   57.6370   27.9830   45.9390 C   0  0  0  0  0  0  0  0  0  0  0  0
   56.9680   26.7870   45.6560 O   0  0  0  0  0  0  0  0  0  0  0  0
   56.6930   25.8080   46.6550 C   0  0  0  0  0  0  0  0  0  0  0  0
   56.1410   24.5430   45.9790 C   0  0  0  0  0  0  0  0  0  0  0  0
   54.7400   24.2190   46.3300 N   0  0  0  0  0  0  0  0  0  0  0  0
   54.6240   23.0390   47.1990 C   0  0  0  0  0  0  0  0  0  0  0  0
   53.8650   24.1010   45.1510 C   0  0  0  0  0  0  0  0  0  0  0  0
   55.3589   30.8199   43.6340 H   0  0  0  0  0  0  0  0  0  0  0  0
   56.6533   29.7330   43.0258 H   0  0  0  0  0  0  0  0  0  0  0  0
   54.9438   29.1814   43.0258 H   0  0  0  0  0  0  0  0  0  0  0  0
   57.3381   31.3814   45.6310 H   0  0  0  0  0  0  0  0  0  0  0  0
   60.8208   31.1907   46.8704 H   0  0  0  0  0  0  0  0  0  0  0  0
   57.9237   30.8033   48.9372 H   0  0  0  0  0  0  0  0  0  0  0  0
   60.8485   34.6365   50.3928 H   0  0  0  0  0  0  0  0  0  0  0  0
   61.6946   34.7942   48.1473 H   0  0  0  0  0  0  0  0  0  0  0  0
   62.2246   33.1094   47.7347 H   0  0  0  0  0  0  0  0  0  0  0  0
   61.6421   33.8832   45.7076 H   0  0  0  0  0  0  0  0  0  0  0  0
   60.3735   36.0073   46.9404 H   0  0  0  0  0  0  0  0  0  0  0  0
   60.1480   35.7021   45.2122 H   0  0  0  0  0  0  0  0  0  0  0  0
   58.3390   34.9910   47.5578 H   0  0  0  0  0  0  0  0  0  0  0  0
   57.8762   35.6540   45.9864 H   0  0  0  0  0  0  0  0  0  0  0  0
   57.6527   32.9821   46.6126 H   0  0  0  0  0  0  0  0  0  0  0  0
   57.9409   33.5351   44.9454 H   0  0  0  0  0  0  0  0  0  0  0  0
   59.9609   32.3940   45.0021 H   0  0  0  0  0  0  0  0  0  0  0  0
   58.1308   32.2185   53.5067 H   0  0  0  0  0  0  0  0  0  0  0  0
   56.9375   33.3631   52.8903 H   0  0  0  0  0  0  0  0  0  0  0  0
   60.5605   29.0593   47.3477 H   0  0  0  0  0  0  0  0  0  0  0  0
   61.3115   25.9322   47.2774 H   0  0  0  0  0  0  0  0  0  0  0  0
   60.5243   25.2715   45.8042 H   0  0  0  0  0  0  0  0  0  0  0  0
   61.1654   26.9495   45.8042 H   0  0  0  0  0  0  0  0  0  0  0  0
   57.6191   25.5628   47.1956 H   0  0  0  0  0  0  0  0  0  0  0  0
   55.9524   26.2018   47.3666 H   0  0  0  0  0  0  0  0  0  0  0  0
   56.1982   24.6833   44.8895 H   0  0  0  0  0  0  0  0  0  0  0  0
   56.7548   23.7039   46.3385 H   0  0  0  0  0  0  0  0  0  0  0  0
   54.6550   23.3548   48.2522 H   0  0  0  0  0  0  0  0  0  0  0  0
   53.6712   22.5275   46.9975 H   0  0  0  0  0  0  0  0  0  0  0  0
   55.4589   22.3517   46.9975 H   0  0  0  0  0  0  0  0  0  0  0  0
   52.8245   23.9607   45.4792 H   0  0  0  0  0  0  0  0  0  0  0  0
   53.9385   25.0172   44.5467 H   0  0  0  0  0  0  0  0  0  0  0  0
   54.1786   23.2370   44.5467 H   0  0  0  0  0  0  0  0  0  0  0  0
  1  2  1  0
  2  3  1  0
  3  4  2  0
  4  5  1  0
  5  6  1  0
  6  7  1  0
  7  8  2  0
  8  9  1  0
  9 10  2  0
 10 11  1  0
 11 12  2  0
 12 13  1  0
 13 14  1  0
 14 15  1  0
 15 16  1  0
 16 17  1  0
 17 18  1  0
 10 19  1  0
 19 20  1  0
 20 21  1  0
  5 22  2  0
 22 23  1  0
 23 24  1  0
 24 25  1  0
 23 26  2  0
 26 27  1  0
 27 28  1  0
 28 29  1  0
 29 30  1  0
 30 31  1  0
 30 32  1  0
 26  3  1  0
 18  6  1  0
 12  7  1  0
 18 14  1  0
 21  9  1  0
  1 33  1  0
  1 34  1  0
  1 35  1  0
  4 36  1  0
  6 37  1  1
  8 38  1  0
 11 39  1  0
 13 40  1  0
 13 41  1  0
 14 42  1  6
 15 43  1  0
 15 44  1  0
 16 45  1  0
 16 46  1  0
 17 47  1  0
 17 48  1  0
 18 49  1  6
 20 50  1  0
 20 51  1  0
 22 52  1  0
 25 53  1  0
 25 54  1  0
 25 55  1  0
 28 56  1  0
 28 57  1  0
 29 58  1  0
 29 59  1  0
 31 60  1  0
 31 61  1  0
 31 62  1  0
 32 63  1  0
 32 64  1  0
 32 65  1  0
M  END
>  <UniqueID>  (72) 
64

>  <SMILES>  (72) 
COc1cc([C@@H]2c3cc4c(cc3C[C@@H]3CCCC32)OCO4)cc(OC)c1OCCN(C)C

>  <Energy>  (72) 
117.82117808830932

>  <Genealogy>  (72) 
COc1cc([C@@H]2c3cc4c(cc3C[C@@H]3CCCC32)OCO4)cc(OC)c1OCCN(C)C (chirality)
COc1cc([C@@H]2c3cc4c(cc3C[C@@H]3CCCC32)OCO4)cc(OC)c1OCCN(C)C (3D coordinates assigned)
COc1cc([C@@H]2c3cc4c(cc3C[C@@H]3CCCC32)OCO4)cc(OC)c1OCCN(C)C (nonaromatic ring conformer: 117.82117808830932 kcal/mol)

>  <smiles>  (72) 
COc1cc(C2c3cc4c(cc3CC3CCCC32)OCO4)cc(OC)c1OCCN(C)C

>  <score_type>  (72) 
oracle

>  <origin>  (72) 
adg

>  <m_score__min__energy>  (72) 
-8.5199999999999996

>  <m_primary>  (72) 
energy

$$$$
72:0
     RDKit          3D

 44 46  0  0  0  0  0  0  0  0999 V2000
   56.7011   34.1132   44.6936 H   0  0  0  0  0  0  0  0  0  0  0  0
   57.6080   33.5010   44.8060 C   0  0  0  0  0  0  0  0  0  0  0  0
   57.9690   32.7310   43.7670 C   0  0  0  0  0  0  0  0  0  0  0  0
   58.5155   33.2108   42.9417 H   0  0  0  0  0  0  0  0  0  0  0  0
   57.6840   31.2800   43.6520 C   0  0  0  0  0  0  0  0  0  0  0  0
   56.7250   30.8420   42.7260 C   0  0  0  0  0  0  0  0  0  0  0  0
   56.2165   31.5696   42.0764 H   0  0  0  0  0  0  0  0  0  0  0  0
   56.4160   29.4880   42.6280 C   0  0  0  0  0  0  0  0  0  0  0  0
   55.6712   29.1493   41.8928 H   0  0  0  0  0  0  0  0  0  0  0  0
   57.0280   28.5830   43.4340 N   0  0  0  0  0  0  0  0  0  0  0  0
   56.7690   27.5750   43.3320 H   0  0  0  0  0  0  0  0  0  0  0  0
   57.9570   28.9630   44.3590 C   0  0  0  0  0  0  0  0  0  0  0  0
   58.5680   28.0010   45.1750 C   0  0  0  0  0  0  0  0  0  0  0  0
   58.2912   26.9414   45.0720 H   0  0  0  0  0  0  0  0  0  0  0  0
   59.5250   28.3790   46.1170 C   0  0  0  0  0  0  0  0  0  0  0  0
   59.9931   27.6145   46.7545 H   0  0  0  0  0  0  0  0  0  0  0  0
   59.8950   29.7190   46.2590 C   0  0  0  0  0  0  0  0  0  0  0  0
   60.8670   30.0380   47.2180 O   0  0  0  0  0  0  0  0  0  0  0  0
   61.6890   31.2010   47.1770 C   0  0  0  0  0  0  0  0  0  0  0  0
   61.9178   31.5247   48.2031 H   0  0  0  0  0  0  0  0  0  0  0  0
   62.6254   30.9697   46.6481 H   0  0  0  0  0  0  0  0  0  0  0  0
   61.1585   32.0065   46.6481 H   0  0  0  0  0  0  0  0  0  0  0  0
   59.2870   30.6940   45.4450 C   0  0  0  0  0  0  0  0  0  0  0  0
   59.5772   31.7497   45.5507 H   0  0  0  0  0  0  0  0  0  0  0  0
   58.3090   30.3300   44.4950 C   0  0  0  0  0  0  0  0  0  0  0  0
   58.3370   33.5890   46.0910 C   0  0  0  0  0  0  0  0  0  0  0  0
   57.8980   32.9050   47.2360 C   0  0  0  0  0  0  0  0  0  0  0  0
   56.9985   32.2739   47.1837 H   0  0  0  0  0  0  0  0  0  0  0  0
   58.5950   33.0200   48.4410 C   0  0  0  0  0  0  0  0  0  0  0  0
   58.2486   32.4639   49.3246 H   0  0  0  0  0  0  0  0  0  0  0  0
   59.7380   33.8410   48.5380 C   0  0  0  0  0  0  0  0  0  0  0  0
   60.4660   33.9580   49.7890 N   0  0  0  0  0  0  0  0  0  0  0  0
   59.7700   33.8150   51.0740 C   0  0  0  0  0  0  0  0  0  0  0  0
   60.4852   33.9619   51.8967 H   0  0  0  0  0  0  0  0  0  0  0  0
   58.9709   34.5677   51.1440 H   0  0  0  0  0  0  0  0  0  0  0  0
   59.3325   32.8082   51.1440 H   0  0  0  0  0  0  0  0  0  0  0  0
   61.9110   34.2190   49.7910 C   0  0  0  0  0  0  0  0  0  0  0  0
   62.2704   34.2839   50.8286 H   0  0  0  0  0  0  0  0  0  0  0  0
   62.4322   33.4005   49.2730 H   0  0  0  0  0  0  0  0  0  0  0  0
   62.1129   35.1681   49.2730 H   0  0  0  0  0  0  0  0  0  0  0  0
   60.1500   34.5500   47.3910 C   0  0  0  0  0  0  0  0  0  0  0  0
   61.0322   35.2048   47.4449 H   0  0  0  0  0  0  0  0  0  0  0  0
   59.4510   34.4310   46.1860 C   0  0  0  0  0  0  0  0  0  0  0  0
   59.7791   35.0035   45.3059 H   0  0  0  0  0  0  0  0  0  0  0  0
  1  2  1  0
  2  3  2  0
  3  4  1  0
  3  5  1  0
  5  6  2  0
  6  7  1  0
  6  8  1  0
  8  9  1  0
  8 10  2  0
 10 11  1  0
 10 12  1  0
 12 13  2  0
 13 14  1  0
 13 15  1  0
 15 16  1  0
 15 17  2  0
 17 18  1  0
 18 19  1  0
 19 20  1  0
 19 21  1  0
 19 22  1  0
 17 23  1  0
 23 24  1  0
 23 25  2  0
  2 26  1  0
 26 27  2  0
 27 28  1  0
 27 29  1  0
 29 30  1  0
 29 31  2  0
 31 32  1  0
 32 33  1  0
 33 34  1  0
 33 35  1  0
 33 36  1  0
 32 37  1  0
 37 38  1  0
 37 39  1  0
 37 40  1  0
 31 41  1  0
 41 42  1  0
 41 43  2  0
 43 44  1  0
 25  5  1  0
 43 26  1  0
 25 12  1  0
M  CHG  1  10   1
M  END
>  <UniqueID>  (73) 
65

>  <SMILES>  (73) 
COc1ccc2[nH+]ccc(/C=C\c3ccc(N(C)C)cc3)c2c1

>  <Energy>  (73) 
61.696294468997195

>  <Genealogy>  (73) 
COc1ccc2[nH+]ccc(C=Cc3ccc(N(C)C)cc3)c2c1 (protonated)
COc1ccc2[nH+]ccc(/C=C\c3ccc(N(C)C)cc3)c2c1 (cis-trans isomerization)
COc1ccc2[nH+]ccc(/C=C\c3ccc(N(C)C)cc3)c2c1 (3D coordinates assigned)
COc1ccc2[nH+]ccc(/C=C\c3ccc(N(C)C)cc3)c2c1 (optimized conformer: 61.696294468997195 kcal/mol)

>  <smiles>  (73) 
COc1ccc2nccc(C=Cc3ccc(N(C)C)cc3)c2c1

>  <score_type>  (73) 
oracle

>  <origin>  (73) 
adg

>  <m_score__min__energy>  (73) 
-6.4500000000000002

>  <m_primary>  (73) 
energy

$$$$
73:0
     RDKit          3D

 42 44  0  0  0  0  0  0  0  0999 V2000
   59.3410   29.8630   47.9780 H   0  0  0  0  0  0  0  0  0  0  0  0
   58.7730   30.5990   48.3790 O   0  0  0  0  0  0  0  0  0  0  0  0
   59.2120   31.9210   48.4930 C   0  0  0  0  0  0  0  0  0  0  0  0
   59.2190   32.5180   49.7630 C   0  0  0  0  0  0  0  0  0  0  0  0
   58.7840   31.7590   50.8610 O   0  0  0  0  0  0  0  0  0  0  0  0
   57.5820   32.0010   51.5850 C   0  0  0  0  0  0  0  0  0  0  0  0
   57.7894   31.9592   52.6645 H   0  0  0  0  0  0  0  0  0  0  0  0
   57.1913   32.9958   51.3249 H   0  0  0  0  0  0  0  0  0  0  0  0
   56.8367   31.2349   51.3249 H   0  0  0  0  0  0  0  0  0  0  0  0
   59.6590   33.8480   49.9030 C   0  0  0  0  0  0  0  0  0  0  0  0
   59.6733   34.3183   50.8973 H   0  0  0  0  0  0  0  0  0  0  0  0
   60.0770   34.5720   48.7860 C   0  0  0  0  0  0  0  0  0  0  0  0
   60.4157   35.6121   48.9023 H   0  0  0  0  0  0  0  0  0  0  0  0
   60.0670   33.9820   47.5230 C   0  0  0  0  0  0  0  0  0  0  0  0
   60.3844   34.5638   46.6451 H   0  0  0  0  0  0  0  0  0  0  0  0
   59.6540   32.6490   47.3650 C   0  0  0  0  0  0  0  0  0  0  0  0
   59.5940   32.0630   46.0100 C   0  0  0  0  0  0  0  0  0  0  0  0
   60.4540   32.2328   45.3455 H   0  0  0  0  0  0  0  0  0  0  0  0
   58.5640   31.3340   45.5230 C   0  0  0  0  0  0  0  0  0  0  0  0
   57.3640   31.9370   44.8830 C   0  0  0  0  0  0  0  0  0  0  0  0
   57.3240   33.1560   44.5760 O   0  0  0  0  0  0  0  0  0  0  0  0
   56.2460   31.1130   44.5590 N   0  0  0  0  0  0  0  0  0  0  0  0
   56.2710   29.7020   44.7550 C   0  0  0  0  0  0  0  0  0  0  0  0
   55.2340   29.0300   44.5080 O   0  0  0  0  0  0  0  0  0  0  0  0
   57.4660   29.0570   45.2340 N   0  0  0  0  0  0  0  0  0  0  0  0
   57.5060   27.6220   45.3670 C   0  0  0  0  0  0  0  0  0  0  0  0
   57.7790   26.8150   44.2540 C   0  0  0  0  0  0  0  0  0  0  0  0
   57.9635   27.2790   43.2739 H   0  0  0  0  0  0  0  0  0  0  0  0
   57.8180   25.4230   44.3830 C   0  0  0  0  0  0  0  0  0  0  0  0
   58.0335   24.7991   43.5031 H   0  0  0  0  0  0  0  0  0  0  0  0
   57.5850   24.8180   45.6230 C   0  0  0  0  0  0  0  0  0  0  0  0
   57.6340   23.4180   45.7010 O   0  0  0  0  0  0  0  0  0  0  0  0
   58.0620   22.5690   44.6430 C   0  0  0  0  0  0  0  0  0  0  0  0
   58.5196   21.6614   45.0635 H   0  0  0  0  0  0  0  0  0  0  0  0
   57.1967   22.2902   44.0237 H   0  0  0  0  0  0  0  0  0  0  0  0
   58.8007   23.0989   44.0237 H   0  0  0  0  0  0  0  0  0  0  0  0
   57.3110   25.6280   46.7420 C   0  0  0  0  0  0  0  0  0  0  0  0
   57.1270   25.1640   47.7222 H   0  0  0  0  0  0  0  0  0  0  0  0
   57.2720   27.0190   46.6120 C   0  0  0  0  0  0  0  0  0  0  0  0
   57.0566   27.6446   47.4908 H   0  0  0  0  0  0  0  0  0  0  0  0
   58.6180   29.8500   45.5870 C   0  0  0  0  0  0  0  0  0  0  0  0
   59.6840   29.2750   45.9450 O   0  0  0  0  0  0  0  0  0  0  0  0
  1  2  1  0
  2  3  1  0
  3  4  2  0
  4  5  1  0
  5  6  1  0
  6  7  1  0
  6  8  1  0
  6  9  1  0
  4 10  1  0
 10 11  1  0
 10 12  2  0
 12 13  1  0
 12 14  1  0
 14 15  1  0
 14 16  2  0
 16 17  1  0
 17 18  1  0
 17 19  2  0
 19 20  1  0
 20 21  2  0
 20 22  1  0
 22 23  1  0
 23 24  2  0
 23 25  1  0
 25 26  1  0
 26 27  2  0
 27 28  1  0
 27 29  1  0
 29 30  1  0
 29 31  2  0
 31 32  1  0
 32 33  1  0
 33 34  1  0
 33 35  1  0
 33 36  1  0
 31 37  1  0
 37 38  1  0
 37 39  2  0
 39 40  1  0
 25 41  1  0
 41 42  2  0
 16  3  1  0
 41 19  1  0
 39 26  1  0
M  CHG  1  22  -1
M  END
>  <UniqueID>  (74) 
66

>  <SMILES>  (74) 
COc1ccc(N2C(=O)[N-]C(=O)/C(=C\c3cccc(OC)c3O)C2=O)cc1

>  <Energy>  (74) 
60.6092361496514

>  <Genealogy>  (74) 
COc1ccc(N2C(=O)[N-]C(=O)C(=Cc3cccc(OC)c3O)C2=O)cc1 (protonated)
COc1ccc(N2C(=O)[N-]C(=O)/C(=C\c3cccc(OC)c3O)C2=O)cc1 (cis-trans isomerization)
COc1ccc(N2C(=O)[N-]C(=O)/C(=C\c3cccc(OC)c3O)C2=O)cc1 (3D coordinates assigned)
COc1ccc(N2C(=O)[N-]C(=O)/C(=C\c3cccc(OC)c3O)C2=O)cc1 (nonaromatic ring conformer: 60.6092361496514 kcal/mol)

>  <smiles>  (74) 
COc1ccc(N2C(=O)NC(=O)C(=Cc3cccc(OC)c3O)C2=O)cc1

>  <score_type>  (74) 
oracle

>  <origin>  (74) 
adg

>  <m_score__min__energy>  (74) 
-10.69

>  <m_primary>  (74) 
energy

$$$$
74:0
     RDKit          3D

 31 33  0  0  0  0  0  0  0  0999 V2000
   55.8540   24.2150   47.0680 C   0  0  0  0  0  0  0  0  0  0  0  0
   56.4490   25.1930   46.1070 C   0  0  0  0  0  0  0  0  0  0  0  0
   56.5130   26.5190   46.3500 N   0  0  0  0  0  0  0  0  0  0  0  0
   57.1000   27.1000   45.3140 N   0  0  0  0  0  0  0  0  0  0  0  0
   57.3560   28.5160   45.2420 C   0  0  0  0  0  0  0  0  0  0  0  0
   56.6210   29.3160   44.3490 C   0  0  0  0  0  0  0  0  0  0  0  0
   56.8660   30.6890   44.2610 C   0  0  0  0  0  0  0  0  0  0  0  0
   57.8530   31.2770   45.0560 C   0  0  0  0  0  0  0  0  0  0  0  0
   58.6000   30.4910   45.9360 C   0  0  0  0  0  0  0  0  0  0  0  0
   58.3580   29.1170   46.0280 C   0  0  0  0  0  0  0  0  0  0  0  0
   57.4330   26.1490   44.4150 C   0  0  0  0  0  0  0  0  0  0  0  0
   58.0840   26.3660   43.3580 O   0  0  0  0  0  0  0  0  0  0  0  0
   57.0250   24.9080   44.8730 C   0  0  0  0  0  0  0  0  0  0  0  0
   57.2090   23.5820   44.2370 C   0  0  0  0  0  0  0  0  0  0  0  0
   56.3820   23.1420   43.1940 C   0  0  0  0  0  0  0  0  0  0  0  0
   56.5990   21.8860   42.6330 C   0  0  0  0  0  0  0  0  0  0  0  0
   57.6330   21.0920   43.1220 C   0  0  0  0  0  0  0  0  0  0  0  0
   58.4070   21.5520   44.1390 N   0  0  0  0  0  0  0  0  0  0  0  0
   58.1990   22.7560   44.6760 N   0  0  0  0  0  0  0  0  0  0  0  0
   56.0546   24.5447   48.0981 H   0  0  0  0  0  0  0  0  0  0  0  0
   54.7674   24.1571   46.9066 H   0  0  0  0  0  0  0  0  0  0  0  0
   56.3020   23.2234   46.9066 H   0  0  0  0  0  0  0  0  0  0  0  0
   55.8476   28.8577   43.7151 H   0  0  0  0  0  0  0  0  0  0  0  0
   56.2809   31.3077   43.5647 H   0  0  0  0  0  0  0  0  0  0  0  0
   58.0416   32.3586   44.9888 H   0  0  0  0  0  0  0  0  0  0  0  0
   59.3803   30.9538   46.5580 H   0  0  0  0  0  0  0  0  0  0  0  0
   58.9538   28.5019   46.7184 H   0  0  0  0  0  0  0  0  0  0  0  0
   55.5691   23.7830   42.8221 H   0  0  0  0  0  0  0  0  0  0  0  0
   55.9608   21.5253   41.8129 H   0  0  0  0  0  0  0  0  0  0  0  0
   57.8217   20.0991   42.6877 H   0  0  0  0  0  0  0  0  0  0  0  0
   59.1790   20.9560   44.5090 H   0  0  0  0  0  0  0  0  0  0  0  0
  1  2  1  0
  2  3  1  0
  3  4  1  0
  4  5  1  0
  5  6  2  0
  6  7  1  0
  7  8  2  0
  8  9  1  0
  9 10  2  0
  4 11  1  0
 11 12  2  0
 11 13  1  0
 13 14  1  0
 14 15  2  0
 15 16  1  0
 16 17  2  0
 17 18  1  0
 18 19  2  0
 13  2  2  0
 19 14  1  0
 10  5  1  0
  1 20  1  0
  1 21  1  0
  1 22  1  0
  6 23  1  0
  7 24  1  0
  8 25  1  0
  9 26  1  0
 10 27  1  0
 15 28  1  0
 16 29  1  0
 17 30  1  0
 18 31  1  0
M  CHG  2   3  -1  18   1
M  END
>  <UniqueID>  (75) 
67

>  <SMILES>  (75) 
Cc1[n-]n(-c2ccccc2)c(=O)c1-c1ccc[nH+]n1

>  <Energy>  (75) 
72.62600211163648

>  <Genealogy>  (75) 
Cc1[n-]n(-c2ccccc2)c(=O)c1-c1ccc[nH+]n1 (protonated)
Cc1[n-]n(-c2ccccc2)c(=O)c1-c1ccc[nH+]n1 (3D coordinates assigned)
Cc1[n-]n(-c2ccccc2)c(=O)c1-c1ccc[nH+]n1 (optimized conformer: 72.62600211163648 kcal/mol)

>  <smiles>  (75) 
Cc1[nH]n(-c2ccccc2)c(=O)c1-c1cccnn1

>  <score_type>  (75) 
oracle

>  <origin>  (75) 
adg

>  <m_score__min__energy>  (75) 
-7.3799999999999999

>  <m_primary>  (75) 
energy

$$$$
75:0
     RDKit          3D

 44 46  0  0  0  0  0  0  0  0999 V2000
   56.7250   30.3010   43.4630 C   0  0  0  0  0  0  0  0  0  0  0  0
   56.4440   31.1790   44.5460 O   0  0  0  0  0  0  0  0  0  0  0  0
   57.3800   32.0400   45.1370 C   0  0  0  0  0  0  0  0  0  0  0  0
   57.4120   33.4160   44.8320 C   0  0  0  0  0  0  0  0  0  0  0  0
   58.3570   34.2520   45.4280 C   0  0  0  0  0  0  0  0  0  0  0  0
   59.2750   33.7310   46.3380 C   0  0  0  0  0  0  0  0  0  0  0  0
   59.2570   32.3700   46.6520 C   0  0  0  0  0  0  0  0  0  0  0  0
   58.3110   31.5100   46.0580 C   0  0  0  0  0  0  0  0  0  0  0  0
   58.2800   30.1020   46.3810 N   0  0  0  0  0  0  0  0  0  0  0  0
   59.1980   29.4730   47.3320 C   0  0  0  0  0  0  0  0  0  0  0  0
   59.3160   28.0470   47.0470 N   0  0  0  0  0  0  0  0  0  0  0  0
   60.2420   27.2040   47.5350 C   0  0  0  0  0  0  0  0  0  0  0  0
   60.1100   25.9730   47.0010 N   0  0  0  0  0  0  0  0  0  0  0  0
   59.0580   26.1370   46.1640 C   0  0  0  0  0  0  0  0  0  0  0  0
   58.5290   25.0830   45.3410 N   0  0  0  0  0  0  0  0  0  0  0  0
   57.7330   25.3870   44.1470 C   0  0  0  0  0  0  0  0  0  0  0  0
   56.5820   24.3780   44.0180 C   0  0  0  0  0  0  0  0  0  0  0  0
   56.9970   22.9550   44.1760 N   0  0  0  0  0  0  0  0  0  0  0  0
   56.6440   22.1620   42.9860 C   0  0  0  0  0  0  0  0  0  0  0  0
   58.4260   22.7650   44.5020 C   0  0  0  0  0  0  0  0  0  0  0  0
   58.8580   23.6870   45.6460 C   0  0  0  0  0  0  0  0  0  0  0  0
   58.5730   27.3960   46.1740 N   0  0  0  0  0  0  0  0  0  0  0  0
   57.0382   29.3225   43.8560 H   0  0  0  0  0  0  0  0  0  0  0  0
   55.8217   30.1769   42.8477 H   0  0  0  0  0  0  0  0  0  0  0  0
   57.5325   30.7245   42.8477 H   0  0  0  0  0  0  0  0  0  0  0  0
   56.6864   33.8339   44.1187 H   0  0  0  0  0  0  0  0  0  0  0  0
   58.3774   35.3233   45.1793 H   0  0  0  0  0  0  0  0  0  0  0  0
   60.0156   34.3932   46.8102 H   0  0  0  0  0  0  0  0  0  0  0  0
   59.9871   31.9659   47.3687 H   0  0  0  0  0  0  0  0  0  0  0  0
   57.5670   29.4930   45.9180 H   0  0  0  0  0  0  0  0  0  0  0  0
   60.1884   29.9441   47.2474 H   0  0  0  0  0  0  0  0  0  0  0  0
   58.8064   29.6051   48.3514 H   0  0  0  0  0  0  0  0  0  0  0  0
   61.0079   27.4821   48.2739 H   0  0  0  0  0  0  0  0  0  0  0  0
   57.3201   26.4030   44.2323 H   0  0  0  0  0  0  0  0  0  0  0  0
   58.3750   25.3214   43.2562 H   0  0  0  0  0  0  0  0  0  0  0  0
   55.8339   24.6072   44.7912 H   0  0  0  0  0  0  0  0  0  0  0  0
   56.1846   24.4802   42.9974 H   0  0  0  0  0  0  0  0  0  0  0  0
   56.2154   21.1991   43.3009 H   0  0  0  0  0  0  0  0  0  0  0  0
   55.9060   22.7126   42.3842 H   0  0  0  0  0  0  0  0  0  0  0  0
   57.5470   21.9821   42.3842 H   0  0  0  0  0  0  0  0  0  0  0  0
   58.5901   21.7194   44.8018 H   0  0  0  0  0  0  0  0  0  0  0  0
   59.0231   23.0102   43.6113 H   0  0  0  0  0  0  0  0  0  0  0  0
   58.3377   23.3867   46.5675 H   0  0  0  0  0  0  0  0  0  0  0  0
   59.9469   23.6013   45.7764 H   0  0  0  0  0  0  0  0  0  0  0  0
  1  2  1  0
  2  3  1  0
  3  4  2  0
  4  5  1  0
  5  6  2  0
  6  7  1  0
  7  8  2  0
  8  9  1  0
  9 10  1  0
 10 11  1  0
 11 12  1  0
 12 13  2  0
 13 14  1  0
 14 15  1  0
 15 16  1  0
 16 17  1  0
 17 18  1  0
 18 19  1  0
 18 20  1  0
 20 21  1  0
 14 22  2  0
  8  3  1  0
 22 11  1  0
 21 15  1  0
  1 23  1  0
  1 24  1  0
  1 25  1  0
  4 26  1  0
  5 27  1  0
  6 28  1  0
  7 29  1  0
  9 30  1  0
 10 31  1  0
 10 32  1  0
 12 33  1  0
 16 34  1  0
 16 35  1  0
 17 36  1  0
 17 37  1  0
 19 38  1  0
 19 39  1  0
 19 40  1  0
 20 41  1  0
 20 42  1  0
 21 43  1  0
 21 44  1  0
M  END
>  <UniqueID>  (76) 
68

>  <SMILES>  (76) 
COc1ccccc1NCn1cnc(N2CCN(C)CC2)n1

>  <Energy>  (76) 
82.46653695118881

>  <Genealogy>  (76) 
COc1ccccc1NCn1cnc(N2CCN(C)CC2)n1 (3D coordinates assigned)
COc1ccccc1NCn1cnc(N2CCN(C)CC2)n1 (nonaromatic ring conformer: 82.46653695118881 kcal/mol)

>  <smiles>  (76) 
COc1ccccc1NCn1cnc(N2CCN(C)CC2)n1

>  <score_type>  (76) 
oracle

>  <origin>  (76) 
adg

>  <m_score__min__energy>  (76) 
-8.3800000000000008

>  <m_primary>  (76) 
energy

$$$$
76:0
     RDKit          3D

 54 57  0  0  0  0  0  0  0  0999 V2000
   54.9010   24.9650   45.6270 C   0  0  0  0  0  0  0  0  0  0  0  0
   55.1470   26.3430   45.8890 O   0  0  0  0  0  0  0  0  0  0  0  0
   56.4230   26.9090   46.0390 C   0  0  0  0  0  0  0  0  0  0  0  0
   57.4730   26.2230   46.6790 C   0  0  0  0  0  0  0  0  0  0  0  0
   58.7290   26.8170   46.8090 C   0  0  0  0  0  0  0  0  0  0  0  0
   58.9630   28.0990   46.2940 C   0  0  0  0  0  0  0  0  0  0  0  0
   60.3070   28.7540   46.4670 C   0  0  0  0  0  0  0  0  0  0  0  0
   60.5730   29.0580   47.9440 C   0  0  0  0  0  0  0  0  0  0  0  0
   59.6440   30.0800   48.4450 N   0  0  0  0  0  0  0  0  0  0  0  0
   58.9350   29.8690   49.7180 C   0  0  0  0  0  0  0  0  0  0  0  0
   58.7820   31.1550   50.4970 C   0  0  0  0  0  0  0  0  0  0  0  0
   59.8180   32.1050   50.5310 C   0  0  0  0  0  0  0  0  0  0  0  0
   59.6740   33.2810   51.2720 C   0  0  0  0  0  0  0  0  0  0  0  0
   58.5020   33.5160   51.9940 C   0  0  0  0  0  0  0  0  0  0  0  0
   57.4730   32.5710   51.9820 C   0  0  0  0  0  0  0  0  0  0  0  0
   57.6140   31.3910   51.2420 C   0  0  0  0  0  0  0  0  0  0  0  0
   59.3250   31.1990   47.5940 C   0  0  0  0  0  0  0  0  0  0  0  0
   60.1760   32.2240   47.3250 N   0  0  0  0  0  0  0  0  0  0  0  0
   59.4590   33.0130   46.5130 C   0  0  0  0  0  0  0  0  0  0  0  0
   59.8310   34.2180   45.9210 C   0  0  0  0  0  0  0  0  0  0  0  0
   58.8810   34.8600   45.1040 C   0  0  0  0  0  0  0  0  0  0  0  0
   57.6020   34.2870   44.9050 C   0  0  0  0  0  0  0  0  0  0  0  0
   57.2620   33.0670   45.5220 C   0  0  0  0  0  0  0  0  0  0  0  0
   58.2260   32.4620   46.3220 C   0  0  0  0  0  0  0  0  0  0  0  0
   58.1500   31.3430   46.9960 O   0  0  0  0  0  0  0  0  0  0  0  0
   57.9150   28.7920   45.6690 C   0  0  0  0  0  0  0  0  0  0  0  0
   56.6440   28.2000   45.5350 C   0  0  0  0  0  0  0  0  0  0  0  0
   55.5770   28.8630   44.9090 O   0  0  0  0  0  0  0  0  0  0  0  0
   55.7170   29.7660   43.8180 C   0  0  0  0  0  0  0  0  0  0  0  0
   54.8041   24.4224   46.5789 H   0  0  0  0  0  0  0  0  0  0  0  0
   53.9703   24.8620   45.0498 H   0  0  0  0  0  0  0  0  0  0  0  0
   55.7386   24.5463   45.0498 H   0  0  0  0  0  0  0  0  0  0  0  0
   57.3021   25.2126   47.0790 H   0  0  0  0  0  0  0  0  0  0  0  0
   59.5399   26.2759   47.3186 H   0  0  0  0  0  0  0  0  0  0  0  0
   61.0893   28.0786   46.0905 H   0  0  0  0  0  0  0  0  0  0  0  0
   60.3159   29.6987   45.9036 H   0  0  0  0  0  0  0  0  0  0  0  0
   60.4444   28.1361   48.5302 H   0  0  0  0  0  0  0  0  0  0  0  0
   61.6005   29.4376   48.0450 H   0  0  0  0  0  0  0  0  0  0  0  0
   57.9359   29.4609   49.5053 H   0  0  0  0  0  0  0  0  0  0  0  0
   59.5273   29.1699   50.3266 H   0  0  0  0  0  0  0  0  0  0  0  0
   60.7470   31.9215   49.9712 H   0  0  0  0  0  0  0  0  0  0  0  0
   60.4857   34.0233   51.2866 H   0  0  0  0  0  0  0  0  0  0  0  0
   58.3890   34.4450   52.5721 H   0  0  0  0  0  0  0  0  0  0  0  0
   56.5516   32.7542   52.5543 H   0  0  0  0  0  0  0  0  0  0  0  0
   56.8061   30.6445   51.2437 H   0  0  0  0  0  0  0  0  0  0  0  0
   61.1470   32.3850   47.6750 H   0  0  0  0  0  0  0  0  0  0  0  0
   60.8286   34.6512   46.0856 H   0  0  0  0  0  0  0  0  0  0  0  0
   59.1343   35.8133   44.6170 H   0  0  0  0  0  0  0  0  0  0  0  0
   56.8684   34.7979   44.2641 H   0  0  0  0  0  0  0  0  0  0  0  0
   56.2720   32.6102   45.3767 H   0  0  0  0  0  0  0  0  0  0  0  0
   58.0876   29.8065   45.2803 H   0  0  0  0  0  0  0  0  0  0  0  0
   55.8749   30.7843   44.2028 H   0  0  0  0  0  0  0  0  0  0  0  0
   56.5797   29.4682   43.2039 H   0  0  0  0  0  0  0  0  0  0  0  0
   54.8046   29.7434   43.2039 H   0  0  0  0  0  0  0  0  0  0  0  0
  1  2  1  0
  2  3  1  0
  3  4  2  0
  4  5  1  0
  5  6  2  0
  6  7  1  0
  7  8  1  0
  8  9  1  0
  9 10  1  0
 10 11  1  0
 11 12  2  0
 12 13  1  0
 13 14  2  0
 14 15  1  0
 15 16  2  0
  9 17  1  0
 17 18  2  0
 18 19  1  0
 19 20  2  0
 20 21  1  0
 21 22  2  0
 22 23  1  0
 23 24  2  0
 24 25  1  0
  6 26  1  0
 26 27  2  0
 27 28  1  0
 28 29  1  0
 27  3  1  0
 16 11  1  0
 25 17  1  0
 24 19  1  0
  1 30  1  0
  1 31  1  0
  1 32  1  0
  4 33  1  0
  5 34  1  0
  7 35  1  0
  7 36  1  0
  8 37  1  0
  8 38  1  0
 10 39  1  0
 10 40  1  0
 12 41  1  0
 13 42  1  0
 14 43  1  0
 15 44  1  0
 16 45  1  0
 18 46  1  0
 20 47  1  0
 21 48  1  0
 22 49  1  0
 23 50  1  0
 26 51  1  0
 29 52  1  0
 29 53  1  0
 29 54  1  0
M  CHG  1  18   1
M  END
>  <UniqueID>  (77) 
69

>  <SMILES>  (77) 
COc1ccc(CCN(Cc2ccccc2)c2[nH+]c3ccccc3o2)cc1OC

>  <Energy>  (77) 
91.53729565628895

>  <Genealogy>  (77) 
COc1ccc(CCN(Cc2ccccc2)c2[nH+]c3ccccc3o2)cc1OC (protonated)
COc1ccc(CCN(Cc2ccccc2)c2[nH+]c3ccccc3o2)cc1OC (3D coordinates assigned)
COc1ccc(CCN(Cc2ccccc2)c2[nH+]c3ccccc3o2)cc1OC (optimized conformer: 91.53729565628895 kcal/mol)

>  <smiles>  (77) 
COc1ccc(CCN(Cc2ccccc2)c2nc3ccccc3o2)cc1OC

>  <score_type>  (77) 
oracle

>  <origin>  (77) 
adg

>  <m_score__min__energy>  (77) 
-7.8799999999999999

>  <m_primary>  (77) 
energy

$$$$
77:0
     RDKit          3D

 51 53  0  0  0  0  0  0  0  0999 V2000
   59.0889   34.0479   43.3866 H   0  0  0  0  0  0  0  0  0  0  0  0
   58.3520   33.3460   43.8040 C   0  0  0  0  0  0  0  0  0  0  0  0
   58.1270   32.0760   43.0780 C   0  0  0  0  0  0  0  0  0  0  0  0
   58.4950   31.9890   41.8740 O   0  0  0  0  0  0  0  0  0  0  0  0
   57.4450   30.9200   43.7190 C   0  0  0  0  0  0  0  0  0  0  0  0
   56.1080   30.5930   43.4100 C   0  0  0  0  0  0  0  0  0  0  0  0
   55.5571   31.1905   42.6687 H   0  0  0  0  0  0  0  0  0  0  0  0
   55.4780   29.5150   44.0390 C   0  0  0  0  0  0  0  0  0  0  0  0
   54.4373   29.2645   43.7858 H   0  0  0  0  0  0  0  0  0  0  0  0
   56.1660   28.7550   44.9880 C   0  0  0  0  0  0  0  0  0  0  0  0
   55.5340   27.6890   45.6160 O   0  0  0  0  0  0  0  0  0  0  0  0
   57.4880   29.0730   45.3110 C   0  0  0  0  0  0  0  0  0  0  0  0
   58.0287   28.4773   46.0612 H   0  0  0  0  0  0  0  0  0  0  0  0
   58.1240   30.1470   44.6820 C   0  0  0  0  0  0  0  0  0  0  0  0
   59.1647   30.3913   44.9412 H   0  0  0  0  0  0  0  0  0  0  0  0
   57.7230   33.7040   44.9340 C   0  0  0  0  0  0  0  0  0  0  0  0
   56.6592   33.9731   44.8571 H   0  0  0  0  0  0  0  0  0  0  0  0
   58.3450   33.7660   46.2750 C   0  0  0  0  0  0  0  0  0  0  0  0
   59.1650   34.8400   46.6550 C   0  0  0  0  0  0  0  0  0  0  0  0
   59.3621   35.6554   45.9435 H   0  0  0  0  0  0  0  0  0  0  0  0
   59.7320   34.8800   47.9300 C   0  0  0  0  0  0  0  0  0  0  0  0
   60.3485   35.7414   48.2263 H   0  0  0  0  0  0  0  0  0  0  0  0
   59.5210   33.8270   48.8390 C   0  0  0  0  0  0  0  0  0  0  0  0
   60.0240   33.8650   50.1520 O   0  0  0  0  0  0  0  0  0  0  0  0
   61.3160   33.4140   50.5560 C   0  0  0  0  0  0  0  0  0  0  0  0
   61.8011   34.1983   51.1557 H   0  0  0  0  0  0  0  0  0  0  0  0
   61.2003   32.4958   51.1506 H   0  0  0  0  0  0  0  0  0  0  0  0
   62.1720   33.1090   49.3560 C   0  0  0  0  0  0  0  0  0  0  0  0
   62.2220   31.8090   48.8230 C   0  0  0  0  0  0  0  0  0  0  0  0
   61.6420   31.0010   49.2929 H   0  0  0  0  0  0  0  0  0  0  0  0
   63.0070   31.5400   47.6970 C   0  0  0  0  0  0  0  0  0  0  0  0
   63.0393   30.5225   47.2804 H   0  0  0  0  0  0  0  0  0  0  0  0
   63.7510   32.5630   47.1000 C   0  0  0  0  0  0  0  0  0  0  0  0
   64.3631   32.3507   46.2110 H   0  0  0  0  0  0  0  0  0  0  0  0
   63.7170   33.8560   47.6330 C   0  0  0  0  0  0  0  0  0  0  0  0
   64.3068   34.6588   47.1664 H   0  0  0  0  0  0  0  0  0  0  0  0
   62.9340   34.1280   48.7580 C   0  0  0  0  0  0  0  0  0  0  0  0
   62.9137   35.1445   49.1778 H   0  0  0  0  0  0  0  0  0  0  0  0
   58.7800   32.7010   48.4240 C   0  0  0  0  0  0  0  0  0  0  0  0
   58.5400   31.5610   49.3310 C   0  0  0  0  0  0  0  0  0  0  0  0
   57.7211   31.6566   50.0592 H   0  0  0  0  0  0  0  0  0  0  0  0
   59.2430   30.4160   49.3370 C   0  0  0  0  0  0  0  0  0  0  0  0
   59.7939   30.1711   50.2571 H   0  0  0  0  0  0  0  0  0  0  0  0
   59.3420   29.4560   48.2170 C   0  0  0  0  0  0  0  0  0  0  0  0
   58.5230   28.4990   48.1730 O   0  0  0  0  0  0  0  0  0  0  0  0
   60.3370   29.6010   47.1050 C   0  0  0  0  0  0  0  0  0  0  0  0
   61.3416   29.7474   47.5286 H   0  0  0  0  0  0  0  0  0  0  0  0
   60.3293   28.6922   46.4852 H   0  0  0  0  0  0  0  0  0  0  0  0
   60.0702   30.4698   46.4852 H   0  0  0  0  0  0  0  0  0  0  0  0
   58.1790   32.6900   47.1580 C   0  0  0  0  0  0  0  0  0  0  0  0
   57.5695   31.8264   46.8535 H   0  0  0  0  0  0  0  0  0  0  0  0
  1  2  1  0
  2  3  1  0
  3  4  2  0
  3  5  1  0
  5  6  2  0
  6  7  1  0
  6  8  1  0
  8  9  1  0
  8 10  2  0
 10 11  1  0
 10 12  1  0
 12 13  1  0
 12 14  2  0
 14 15  1  0
  2 16  2  3
 16 17  1  0
 16 18  1  0
 18 19  2  0
 19 20  1  0
 19 21  1  0
 21 22  1  0
 21 23  2  0
 23 24  1  0
 24 25  1  0
 25 26  1  0
 25 27  1  0
 25 28  1  0
 28 29  2  0
 29 30  1  0
 29 31  1  0
 31 32  1  0
 31 33  2  0
 33 34  1  0
 33 35  1  0
 35 36  1  0
 35 37  2  0
 37 38  1  0
 23 39  1  0
 39 40  1  0
 40 41  1  0
 40 42  2  0
 42 43  1  0
 42 44  1  0
 44 45  2  0
 44 46  1  0
 46 47  1  0
 46 48  1  0
 46 49  1  0
 39 50  2  0
 50 51  1  0
 14  5  1  0
 50 18  1  0
 37 28  1  0
M  CHG  1  11  -1
M  END
>  <UniqueID>  (78) 
70

>  <SMILES>  (78) 
CC(=O)/C=C\c1cc(C=CC(=O)c2ccc([O-])cc2)ccc1OCc1ccccc1

>  <Energy>  (78) 
71.64469892640948

>  <Genealogy>  (78) 
CC(=O)C=Cc1cc(C=CC(=O)c2ccc([O-])cc2)ccc1OCc1ccccc1 (protonated)
CC(=O)/C=C\c1cc(C=CC(=O)c2ccc([O-])cc2)ccc1OCc1ccccc1 (cis-trans isomerization)
CC(=O)/C=C\c1cc(C=CC(=O)c2ccc([O-])cc2)ccc1OCc1ccccc1 (3D coordinates assigned)
CC(=O)/C=C\c1cc(C=CC(=O)c2ccc([O-])cc2)ccc1OCc1ccccc1 (optimized conformer: 71.64469892640948 kcal/mol)

>  <smiles>  (78) 
CC(=O)C=Cc1cc(C=CC(=O)c2ccc(O)cc2)ccc1OCc1ccccc1

>  <score_type>  (78) 
oracle

>  <origin>  (78) 
adg

>  <m_score__min__energy>  (78) 
-13.17

>  <m_primary>  (78) 
energy

$$$$
78:0
     RDKit          3D

 53 57  0  0  0  0  0  0  0  0999 V2000
   56.7480   27.4960   43.0350 H   0  0  0  0  0  0  0  0  0  0  0  0
   57.6890   27.8970   43.2420 N   0  0  0  0  0  0  0  0  0  0  0  0
   57.8550   28.9680   43.9500 C   0  0  0  0  0  0  0  0  0  0  0  0
   58.9840   29.2120   44.6460 N   0  0  0  0  0  0  0  0  0  0  0  0
   59.8310   28.6070   44.6770 H   0  0  0  0  0  0  0  0  0  0  0  0
   58.7900   30.4160   45.2220 C   0  0  0  0  0  0  0  0  0  0  0  0
   57.5610   30.9010   44.8070 C   0  0  0  0  0  0  0  0  0  0  0  0
   56.9480   29.9700   44.0440 N   0  0  0  0  0  0  0  0  0  0  0  0
   55.6550   30.0820   43.3700 C   0  0  0  0  0  0  0  0  0  0  0  0
   54.8546   30.1513   44.1214 H   0  0  0  0  0  0  0  0  0  0  0  0
   55.6464   30.9843   42.7408 H   0  0  0  0  0  0  0  0  0  0  0  0
   55.4914   29.1947   42.7408 H   0  0  0  0  0  0  0  0  0  0  0  0
   57.0270   32.2580   45.1600 C   0  0  0  0  0  0  0  0  0  0  0  0
   56.5452   32.6995   44.2751 H   0  0  0  0  0  0  0  0  0  0  0  0
   56.2960   32.1530   45.9752 H   0  0  0  0  0  0  0  0  0  0  0  0
   58.1660   33.1760   45.6270 C   0  0  0  0  0  0  0  0  0  0  0  0
   58.7628   33.4795   44.7543 H   0  0  0  0  0  0  0  0  0  0  0  0
   57.7249   34.0548   46.1201 H   0  0  0  0  0  0  0  0  0  0  0  0
   59.0800   32.4600   46.6350 C   0  0  0  0  0  0  0  0  0  0  0  0
   59.8360   33.1727   46.9964 H   0  0  0  0  0  0  0  0  0  0  0  0
   58.4514   32.0917   47.4591 H   0  0  0  0  0  0  0  0  0  0  0  0
   59.8060   31.2360   46.0030 C   0  0  1  0  0  0  0  0  0  0  0  0
   60.5802   31.5965   45.3097 H   0  0  0  0  0  0  0  0  0  0  0  0
   60.5930   30.3830   47.0650 C   0  0  1  0  0  0  0  0  0  0  0  0
   61.3626   29.8268   46.5097 H   0  0  0  0  0  0  0  0  0  0  0  0
   61.2130   31.2860   48.1090 C   0  0  0  0  0  0  0  0  0  0  0  0
   62.4620   31.4490   48.1620 O   0  0  0  0  0  0  0  0  0  0  0  0
   60.3250   31.8640   49.1350 C   0  0  0  0  0  0  0  0  0  0  0  0
   59.1980   31.0940   49.4640 C   0  0  0  0  0  0  0  0  0  0  0  0
   58.3090   31.5350   50.4490 C   0  0  0  0  0  0  0  0  0  0  0  0
   57.4338   30.9234   50.7136 H   0  0  0  0  0  0  0  0  0  0  0  0
   58.5320   32.7520   51.0970 C   0  0  0  0  0  0  0  0  0  0  0  0
   57.8290   33.0994   51.8685 H   0  0  0  0  0  0  0  0  0  0  0  0
   59.6460   33.5300   50.7680 C   0  0  0  0  0  0  0  0  0  0  0  0
   59.8186   34.4828   51.2898 H   0  0  0  0  0  0  0  0  0  0  0  0
   60.5470   33.1060   49.7770 C   0  0  0  0  0  0  0  0  0  0  0  0
   61.7240   33.9800   49.4320 C   0  0  0  0  0  0  0  0  0  0  0  0
   62.2013   34.3344   50.3575 H   0  0  0  0  0  0  0  0  0  0  0  0
   62.4506   33.4009   48.8432 H   0  0  0  0  0  0  0  0  0  0  0  0
   61.3797   34.8430   48.8432 H   0  0  0  0  0  0  0  0  0  0  0  0
   59.0070   29.8100   48.8500 N   0  0  0  0  0  0  0  0  0  0  0  0
   59.6750   29.3950   47.8050 C   0  0  0  0  0  0  0  0  0  0  0  0
   59.4320   27.9950   47.3220 C   0  0  0  0  0  0  0  0  0  0  0  0
   58.1290   27.4500   47.3850 C   0  0  0  0  0  0  0  0  0  0  0  0
   57.3044   28.0604   47.7818 H   0  0  0  0  0  0  0  0  0  0  0  0
   57.8740   26.1460   46.9500 C   0  0  0  0  0  0  0  0  0  0  0  0
   56.8535   25.7390   47.0042 H   0  0  0  0  0  0  0  0  0  0  0  0
   58.9100   25.3610   46.4480 C   0  0  0  0  0  0  0  0  0  0  0  0
   58.7074   24.3355   46.1056 H   0  0  0  0  0  0  0  0  0  0  0  0
   60.2050   25.8770   46.3800 C   0  0  0  0  0  0  0  0  0  0  0  0
   61.0218   25.2557   45.9839 H   0  0  0  0  0  0  0  0  0  0  0  0
   60.4690   27.1800   46.8130 C   0  0  0  0  0  0  0  0  0  0  0  0
   61.4941   27.5750   46.7570 H   0  0  0  0  0  0  0  0  0  0  0  0
  1  2  1  0
  2  3  2  0
  3  4  1  0
  4  5  1  0
  4  6  1  0
  6  7  2  0
  7  8  1  0
  8  9  1  0
  9 10  1  0
  9 11  1  0
  9 12  1  0
  7 13  1  0
 13 14  1  0
 13 15  1  0
 13 16  1  0
 16 17  1  0
 16 18  1  0
 16 19  1  0
 19 20  1  0
 19 21  1  0
 19 22  1  0
 22 23  1  6
 22 24  1  0
 24 25  1  6
 24 26  1  0
 26 27  2  0
 26 28  1  0
 28 29  2  0
 29 30  1  0
 30 31  1  0
 30 32  2  0
 32 33  1  0
 32 34  1  0
 34 35  1  0
 34 36  2  0
 36 37  1  0
 37 38  1  0
 37 39  1  0
 37 40  1  0
 29 41  1  0
 41 42  2  0
 42 43  1  0
 43 44  2  0
 44 45  1  0
 44 46  1  0
 46 47  1  0
 46 48  2  0
 48 49  1  0
 48 50  1  0
 50 51  1  0
 50 52  2  0
 52 53  1  0
  8  3  1  0
 42 24  1  0
 52 43  1  0
 22  6  1  0
 36 28  1  0
M  END
>  <UniqueID>  (79) 
71

>  <SMILES>  (79) 
[H]/N=c1/[nH]c2c(n1C)CCC[C@H]2[C@H]1C(=O)c2c(C)cccc2N=C1c1ccccc1

>  <Energy>  (79) 
106.41918344829976

>  <Genealogy>  (79) 
Cc1cccc2c1C(=O)[C@H]([C@@H]1CCCc3c1[nH]c(=N)n3C)C(c1ccccc1)=N2 (chirality)
[H]/N=c1/[nH]c2c(n1C)CCC[C@H]2[C@H]1C(=O)c2c(C)cccc2N=C1c1ccccc1 (cis-trans isomerization)
[H]/N=c1/[nH]c2c(n1C)CCC[C@H]2[C@H]1C(=O)c2c(C)cccc2N=C1c1ccccc1 (3D coordinates assigned)
[H]/N=c1/[nH]c2c(n1C)CCC[C@H]2[C@H]1C(=O)c2c(C)cccc2N=C1c1ccccc1 (nonaromatic ring conformer: 106.41918344829976 kcal/mol)

>  <smiles>  (79) 
Cc1cccc2c1C(=O)C(C1CCCc3c1[nH]c(=N)n3C)C(c1ccccc1)=N2

>  <score_type>  (79) 
oracle

>  <origin>  (79) 
adg

>  <m_score__min__energy>  (79) 
-8.3200000000000003

>  <m_primary>  (79) 
energy

$$$$
79:0
     RDKit          3D

 47 48  0  0  0  0  0  0  0  0999 V2000
   57.3740   25.1310   44.4350 C   0  0  0  0  0  0  0  0  0  0  0  0
   57.8460   26.4150   45.1300 C   0  0  0  0  0  0  0  0  0  0  0  0
   59.1020   26.1510   45.9710 C   0  0  0  0  0  0  0  0  0  0  0  0
   56.7250   27.0450   45.9780 C   0  0  0  0  0  0  0  0  0  0  0  0
   56.0590   28.1150   45.2450 N   0  0  0  0  0  0  0  0  0  0  0  0
   56.6170   29.4240   45.0910 C   0  0  0  0  0  0  0  0  0  0  0  0
   55.9540   30.3260   44.5080 O   0  0  0  0  0  0  0  0  0  0  0  0
   57.9730   29.7180   45.6100 C   0  0  0  0  0  0  0  0  0  0  0  0
   58.1490   30.2520   46.8950 C   0  0  0  0  0  0  0  0  0  0  0  0
   59.4320   30.5220   47.3750 C   0  0  0  0  0  0  0  0  0  0  0  0
   60.5470   30.2440   46.5660 C   0  0  0  0  0  0  0  0  0  0  0  0
   61.8600   30.4770   47.0020 O   0  0  0  0  0  0  0  0  0  0  0  0
   62.2980   31.6540   47.6750 C   0  0  0  0  0  0  0  0  0  0  0  0
   62.0230   32.8850   46.8040 C   0  0  0  0  0  0  0  0  0  0  0  0
   60.9790   33.8370   47.4130 C   0  0  0  0  0  0  0  0  0  0  0  0
   59.6680   33.8070   46.6690 C   0  0  0  0  0  0  0  0  0  0  0  0
   59.6380   33.9950   45.2740 C   0  0  0  0  0  0  0  0  0  0  0  0
   58.4260   33.9270   44.5800 C   0  0  0  0  0  0  0  0  0  0  0  0
   57.2360   33.6780   45.2710 C   0  0  0  0  0  0  0  0  0  0  0  0
   57.2580   33.4760   46.6540 C   0  0  0  0  0  0  0  0  0  0  0  0
   58.4690   33.5380   47.3520 C   0  0  0  0  0  0  0  0  0  0  0  0
   60.3570   29.7250   45.3220 N   0  0  0  0  0  0  0  0  0  0  0  0
   59.1140   29.4630   44.8310 C   0  0  0  0  0  0  0  0  0  0  0  0
   57.0991   24.3833   45.1935 H   0  0  0  0  0  0  0  0  0  0  0  0
   56.4993   25.3545   43.8066 H   0  0  0  0  0  0  0  0  0  0  0  0
   58.1852   24.7347   43.8066 H   0  0  0  0  0  0  0  0  0  0  0  0
   58.1088   27.1420   44.3474 H   0  0  0  0  0  0  0  0  0  0  0  0
   58.8459   26.2048   47.0394 H   0  0  0  0  0  0  0  0  0  0  0  0
   59.4955   25.1505   45.7382 H   0  0  0  0  0  0  0  0  0  0  0  0
   59.8650   26.9084   45.7382 H   0  0  0  0  0  0  0  0  0  0  0  0
   55.9875   26.2699   46.2336 H   0  0  0  0  0  0  0  0  0  0  0  0
   57.1694   27.4674   46.8913 H   0  0  0  0  0  0  0  0  0  0  0  0
   57.2728   30.4589   47.5270 H   0  0  0  0  0  0  0  0  0  0  0  0
   59.5691   30.9493   48.3793 H   0  0  0  0  0  0  0  0  0  0  0  0
   61.7566   31.7526   48.6274 H   0  0  0  0  0  0  0  0  0  0  0  0
   63.3785   31.5805   47.8678 H   0  0  0  0  0  0  0  0  0  0  0  0
   62.9650   33.4374   46.6720 H   0  0  0  0  0  0  0  0  0  0  0  0
   61.6179   32.5245   45.8469 H   0  0  0  0  0  0  0  0  0  0  0  0
   60.7990   33.5419   48.4573 H   0  0  0  0  0  0  0  0  0  0  0  0
   61.3788   34.8595   47.3453 H   0  0  0  0  0  0  0  0  0  0  0  0
   60.5715   34.1961   44.7280 H   0  0  0  0  0  0  0  0  0  0  0  0
   58.4086   34.0695   43.4894 H   0  0  0  0  0  0  0  0  0  0  0  0
   56.2815   33.6411   44.7256 H   0  0  0  0  0  0  0  0  0  0  0  0
   56.3225   33.2681   47.1940 H   0  0  0  0  0  0  0  0  0  0  0  0
   58.4830   33.3756   48.4399 H   0  0  0  0  0  0  0  0  0  0  0  0
   61.1890   29.5140   44.7270 H   0  0  0  0  0  0  0  0  0  0  0  0
   59.0027   29.0491   43.8180 H   0  0  0  0  0  0  0  0  0  0  0  0
  1  2  1  0
  2  3  1  0
  2  4  1  0
  4  5  1  0
  5  6  1  0
  6  7  2  0
  6  8  1  0
  8  9  2  0
  9 10  1  0
 10 11  2  0
 11 12  1  0
 12 13  1  0
 13 14  1  0
 14 15  1  0
 15 16  1  0
 16 17  2  0
 17 18  1  0
 18 19  2  0
 19 20  1  0
 20 21  2  0
 11 22  1  0
 22 23  2  0
 23  8  1  0
 21 16  1  0
  1 24  1  0
  1 25  1  0
  1 26  1  0
  2 27  1  0
  3 28  1  0
  3 29  1  0
  3 30  1  0
  4 31  1  0
  4 32  1  0
  9 33  1  0
 10 34  1  0
 13 35  1  0
 13 36  1  0
 14 37  1  0
 14 38  1  0
 15 39  1  0
 15 40  1  0
 17 41  1  0
 18 42  1  0
 19 43  1  0
 20 44  1  0
 21 45  1  0
 22 46  1  0
 23 47  1  0
M  CHG  2   5  -1  22   1
M  END
>  <UniqueID>  (80) 
72

>  <SMILES>  (80) 
CC(C)C[N-]C(=O)c1ccc(OCCCc2ccccc2)[nH+]c1

>  <Energy>  (80) 
34.1905252031734

>  <Genealogy>  (80) 
CC(C)C[N-]C(=O)c1ccc(OCCCc2ccccc2)[nH+]c1 (protonated)
CC(C)C[N-]C(=O)c1ccc(OCCCc2ccccc2)[nH+]c1 (3D coordinates assigned)
CC(C)C[N-]C(=O)c1ccc(OCCCc2ccccc2)[nH+]c1 (optimized conformer: 34.1905252031734 kcal/mol)

>  <smiles>  (80) 
CC(C)CNC(=O)c1ccc(OCCCc2ccccc2)nc1

>  <score_type>  (80) 
oracle

>  <origin>  (80) 
adg

>  <m_score__min__energy>  (80) 
-7.3099999999999996

>  <m_primary>  (80) 
energy

$$$$
80:0
     RDKit          3D

 31 33  0  0  1  0  0  0  0  0999 V2000
   59.6510   34.4970   47.6280 C   0  0  0  0  0  0  0  0  0  0  0  0
   58.7970   33.4380   47.8600 C   0  0  0  0  0  0  0  0  0  0  0  0
   58.0330   32.8490   46.8750 C   0  0  0  0  0  0  0  0  0  0  0  0
   58.1220   33.3400   45.5840 C   0  0  0  0  0  0  0  0  0  0  0  0
   57.3900   32.8200   44.4960 N   0  0  0  0  0  0  0  0  0  0  0  0
   57.1440   31.5440   44.4920 C   0  0  0  0  0  0  0  0  0  0  0  0
   58.2500   30.7170   44.5560 C   0  0  0  0  0  0  0  0  0  0  0  0
   58.0160   29.3580   44.5540 C   0  0  0  0  0  0  0  0  0  0  0  0
   59.1630   28.5460   44.6200 O   0  0  0  0  0  0  0  0  0  0  0  0
   59.6020   28.0380   45.8440 C   0  0  0  0  0  0  0  0  0  0  0  0
   59.9530   26.7170   46.0030 C   0  0  0  0  0  0  0  0  0  0  0  0
   60.3640   26.3320   47.2310 N   0  0  0  0  0  0  0  0  0  0  0  0
   60.4230   27.2010   48.2390 C   0  0  0  0  0  0  0  0  0  0  0  0
   60.0750   28.5140   48.0890 N   0  0  0  0  0  0  0  0  0  0  0  0
   59.6570   28.9590   46.8860 C   0  0  0  0  0  0  0  0  0  0  0  0
   56.7770   28.8370   44.4930 N   0  0  0  0  0  0  0  0  0  0  0  0
   55.7350   29.7030   44.4320 C   0  0  0  0  0  0  0  0  0  0  0  0
   55.9160   31.0390   44.4320 N   0  0  0  0  0  0  0  0  0  0  0  0
   58.9710   34.3970   45.3430 C   0  0  0  0  0  0  0  0  0  0  0  0
   59.7350   34.9850   46.3300 C   0  0  0  0  0  0  0  0  0  0  0  0
   60.2442   34.9391   48.4421 H   0  0  0  0  0  0  0  0  0  0  0  0
   58.7220   33.0433   48.8840 H   0  0  0  0  0  0  0  0  0  0  0  0
   57.3664   32.0062   47.1103 H   0  0  0  0  0  0  0  0  0  0  0  0
   59.2705   31.1246   44.6062 H   0  0  0  0  0  0  0  0  0  0  0  0
   59.9012   26.0050   45.1661 H   0  0  0  0  0  0  0  0  0  0  0  0
   60.7630   26.8501   49.2245 H   0  0  0  0  0  0  0  0  0  0  0  0
   59.3704   30.0101   46.7344 H   0  0  0  0  0  0  0  0  0  0  0  0
   56.6380   27.7920   44.4940 H   0  0  0  0  0  0  0  0  0  0  0  0
   54.7115   29.3033   44.3810 H   0  0  0  0  0  0  0  0  0  0  0  0
   59.0433   34.7900   44.3181 H   0  0  0  0  0  0  0  0  0  0  0  0
   60.4008   35.8278   46.0926 H   0  0  0  0  0  0  0  0  0  0  0  0
  1  2  2  0
  2  3  1  0
  3  4  2  0
  4  5  1  0
  5  6  2  0
  6  7  1  0
  7  8  2  0
  8  9  1  0
  9 10  1  0
 10 11  2  0
 11 12  1  0
 12 13  2  0
 13 14  1  0
 14 15  2  0
  8 16  1  0
 16 17  1  0
 17 18  2  0
  4 19  1  0
 19 20  2  0
 20  1  1  0
 18  6  1  0
 15 10  1  0
  1 21  1  0
  2 22  1  0
  3 23  1  0
  7 24  1  0
 11 25  1  0
 13 26  1  0
 15 27  1  0
 16 28  1  0
 17 29  1  0
 19 30  1  0
 20 31  1  0
M  END
>  <smiles>  (81) 
c1ccc(N=c2cc(Oc3cncnc3)[nH]cn2)cc1

>  <score_type>  (81) 
oracle

>  <origin>  (81) 
adg

>  <m_score__min__energy>  (81) 
-6.7400000000000002

>  <m_primary>  (81) 
energy

$$$$
81:0
     RDKit          3D

 50 53  0  0  0  0  0  0  0  0999 V2000
   60.6150   28.6850   45.7330 H   0  0  0  0  0  0  0  0  0  0  0  0
   60.6970   29.6720   45.9320 O   0  0  0  0  0  0  0  0  0  0  0  0
   59.6130   30.5600   45.9210 C   0  0  0  0  0  0  0  0  0  0  0  0
   58.3980   30.2280   45.2740 C   0  0  0  0  0  0  0  0  0  0  0  0
   58.1370   28.8910   44.6930 C   0  0  0  0  0  0  0  0  0  0  0  0
   57.5041   28.7999   43.7980 H   0  0  0  0  0  0  0  0  0  0  0  0
   58.6490   27.8240   45.2310 N   0  0  0  0  0  0  0  0  0  0  0  0
   58.3270   26.4640   44.8940 C   0  0  0  0  0  0  0  0  0  0  0  0
   58.7010   25.4540   45.7910 C   0  0  0  0  0  0  0  0  0  0  0  0
   59.2183   25.7180   46.7252 H   0  0  0  0  0  0  0  0  0  0  0  0
   58.4220   24.1150   45.5080 C   0  0  0  0  0  0  0  0  0  0  0  0
   58.7107   23.3322   46.2248 H   0  0  0  0  0  0  0  0  0  0  0  0
   57.7770   23.7650   44.3170 C   0  0  0  0  0  0  0  0  0  0  0  0
   57.4110   22.0740   43.9880 S   0  0  0  0  0  0  0  0  0  0  0  0
   58.5890   21.4420   43.3020 O   0  0  0  0  0  0  0  0  0  0  0  0
   56.2100   21.9510   43.0910 O   0  0  0  0  0  0  0  0  0  0  0  0
   57.1040   21.2420   45.4800 N   0  0  0  0  0  0  0  0  0  0  0  0
   56.4710   21.7690   46.4830 C   0  0  0  0  0  0  0  0  0  0  0  0
   57.0220   21.7100   47.7240 N   0  0  0  0  0  0  0  0  0  0  0  0
   56.3950   22.2550   48.8000 C   0  0  0  0  0  0  0  0  0  0  0  0
   57.0190   22.1610   50.1550 C   0  0  0  0  0  0  0  0  0  0  0  0
   56.2424   22.2780   50.9252 H   0  0  0  0  0  0  0  0  0  0  0  0
   57.5031   21.1798   50.2685 H   0  0  0  0  0  0  0  0  0  0  0  0
   57.7707   22.9560   50.2685 H   0  0  0  0  0  0  0  0  0  0  0  0
   55.1550   22.8810   48.6340 C   0  0  0  0  0  0  0  0  0  0  0  0
   54.6278   23.3220   49.4928 H   0  0  0  0  0  0  0  0  0  0  0  0
   54.6030   22.9330   47.3550 C   0  0  0  0  0  0  0  0  0  0  0  0
   53.6306   23.4215   47.1943 H   0  0  0  0  0  0  0  0  0  0  0  0
   55.2670   22.3800   46.3080 N   0  0  0  0  0  0  0  0  0  0  0  0
   57.4120   24.7670   43.4080 C   0  0  0  0  0  0  0  0  0  0  0  0
   56.9055   24.4972   42.4696 H   0  0  0  0  0  0  0  0  0  0  0  0
   57.6890   26.1080   43.6890 C   0  0  0  0  0  0  0  0  0  0  0  0
   57.4078   26.8885   42.9666 H   0  0  0  0  0  0  0  0  0  0  0  0
   57.3990   31.2100   45.2120 C   0  0  0  0  0  0  0  0  0  0  0  0
   56.3060   30.9840   44.6290 O   0  0  0  0  0  0  0  0  0  0  0  0
   57.5950   32.4130   45.8010 N   0  0  0  0  0  0  0  0  0  0  0  0
   58.7410   32.7090   46.4600 C   0  0  0  0  0  0  0  0  0  0  0  0
   58.8810   34.2010   47.1350 S   0  0  0  0  0  0  0  0  0  0  0  0
   59.7540   31.7820   46.5250 N   0  0  0  0  0  0  0  0  0  0  0  0
   60.9890   32.0820   47.2030 C   0  0  0  0  0  0  0  0  0  0  0  0
   61.8110   33.1230   46.7450 C   0  0  0  0  0  0  0  0  0  0  0  0
   61.5144   33.7088   45.8625 H   0  0  0  0  0  0  0  0  0  0  0  0
   63.0060   33.4170   47.4080 C   0  0  0  0  0  0  0  0  0  0  0  0
   63.6484   34.2337   47.0470 H   0  0  0  0  0  0  0  0  0  0  0  0
   63.3850   32.6740   48.5290 C   0  0  0  0  0  0  0  0  0  0  0  0
   64.3269   32.9044   49.0483 H   0  0  0  0  0  0  0  0  0  0  0  0
   62.5680   31.6380   48.9910 C   0  0  0  0  0  0  0  0  0  0  0  0
   62.8671   31.0550   49.8746 H   0  0  0  0  0  0  0  0  0  0  0  0
   61.3720   31.3420   48.3320 C   0  0  0  0  0  0  0  0  0  0  0  0
   60.7298   30.5277   48.6988 H   0  0  0  0  0  0  0  0  0  0  0  0
  1  2  1  0
  2  3  1  0
  3  4  2  0
  4  5  1  0
  5  6  1  0
  5  7  2  0
  7  8  1  0
  8  9  2  0
  9 10  1  0
  9 11  1  0
 11 12  1  0
 11 13  2  0
 13 14  1  0
 14 15  2  0
 14 16  2  0
 14 17  1  0
 17 18  2  3
 18 19  1  0
 19 20  2  0
 20 21  1  0
 21 22  1  0
 21 23  1  0
 21 24  1  0
 20 25  1  0
 25 26  1  0
 25 27  2  0
 27 28  1  0
 27 29  1  0
 13 30  1  0
 30 31  1  0
 30 32  2  0
 32 33  1  0
  4 34  1  0
 34 35  2  0
 34 36  1  0
 36 37  1  0
 37 38  2  0
 37 39  1  0
 39 40  1  0
 40 41  2  0
 41 42  1  0
 41 43  1  0
 43 44  1  0
 43 45  2  0
 45 46  1  0
 45 47  1  0
 47 48  1  0
 47 49  2  0
 49 50  1  0
 39  3  1  0
 49 40  1  0
 32  8  1  0
 29 18  1  0
M  CHG  2  29  -1  36  -1
M  END
>  <UniqueID>  (82) 
73

>  <SMILES>  (82) 
Cc1cc[n-]c(=NS(=O)(=O)c2ccc(/N=C/c3c(O)n(-c4ccccc4)c(=S)[n-]c3=O)cc2)n1

>  <Energy>  (82) 
78.65798061755844

>  <Genealogy>  (82) 
Cc1cc[n-]c(=NS(=O)(=O)c2ccc(N=Cc3c(O)n(-c4ccccc4)c(=S)[n-]c3=O)cc2)n1 (protonated)
Cc1cc[n-]c(=NS(=O)(=O)c2ccc(/N=C/c3c(O)n(-c4ccccc4)c(=S)[n-]c3=O)cc2)n1 (cis-trans isomerization)
Cc1cc[n-]c(=NS(=O)(=O)c2ccc(/N=C/c3c(O)n(-c4ccccc4)c(=S)[n-]c3=O)cc2)n1 (3D coordinates assigned)
Cc1cc[n-]c(=NS(=O)(=O)c2ccc(/N=C/c3c(O)n(-c4ccccc4)c(=S)[n-]c3=O)cc2)n1 (optimized conformer: 78.65798061755844 kcal/mol)

>  <smiles>  (82) 
Cc1cc[nH]c(=NS(=O)(=O)c2ccc(N=Cc3c(O)n(-c4ccccc4)c(=S)[nH]c3=O)cc2)n1

>  <score_type>  (82) 
oracle

>  <origin>  (82) 
adg

>  <m_score__min__energy>  (82) 
-12.56

>  <m_primary>  (82) 
energy

$$$$
82:0
     RDKit          3D

 42 45  0  0  0  0  0  0  0  0999 V2000
   59.2070   25.6340   45.9980 C   0  0  0  0  0  0  0  0  0  0  0  0
   58.5970   26.8300   45.3520 C   0  0  0  0  0  0  0  0  0  0  0  0
   57.4590   27.4890   45.7640 C   0  0  0  0  0  0  0  0  0  0  0  0
   57.3430   28.5250   44.8580 C   0  0  0  0  0  0  0  0  0  0  0  0
   56.3360   29.5990   44.8680 C   0  0  0  0  0  0  0  0  0  0  0  0
   55.1540   29.3230   44.5370 O   0  0  0  0  0  0  0  0  0  0  0  0
   56.6470   30.9480   45.2460 N   0  0  0  0  0  0  0  0  0  0  0  0
   57.8810   31.6720   44.9370 C   0  0  1  0  0  0  0  0  0  0  0  0
   57.5730   33.1820   44.8760 C   0  0  0  0  0  0  0  0  0  0  0  0
   58.8620   34.0290   44.8460 C   0  0  0  0  0  0  0  0  0  0  0  0
   59.7080   33.8210   46.1170 C   0  0  0  0  0  0  0  0  0  0  0  0
   59.8290   32.3560   46.4330 C   0  0  0  0  0  0  0  0  0  0  0  0
   58.9330   31.4110   45.9820 C   0  0  0  0  0  0  0  0  0  0  0  0
   59.2840   30.2360   46.6230 C   0  0  0  0  0  0  0  0  0  0  0  0
   60.3110   30.5000   47.4550 N   0  0  0  0  0  0  0  0  0  0  0  0
   60.6430   31.7790   47.3450 N   0  0  0  0  0  0  0  0  0  0  0  0
   61.6670   32.4090   48.1290 C   0  0  0  0  0  0  0  0  0  0  0  0
   63.0220   32.2480   47.7970 C   0  0  0  0  0  0  0  0  0  0  0  0
   64.0140   32.8520   48.5780 C   0  0  0  0  0  0  0  0  0  0  0  0
   63.6590   33.6090   49.6980 C   0  0  0  0  0  0  0  0  0  0  0  0
   64.6210   34.1920   50.4540 F   0  0  0  0  0  0  0  0  0  0  0  0
   62.3130   33.7570   50.0440 C   0  0  0  0  0  0  0  0  0  0  0  0
   61.3190   33.1530   49.2660 C   0  0  0  0  0  0  0  0  0  0  0  0
   58.3750   28.4850   43.9910 N   0  0  0  0  0  0  0  0  0  0  0  0
   59.1000   27.4540   44.3120 O   0  0  0  0  0  0  0  0  0  0  0  0
   59.1528   25.7402   47.0915 H   0  0  0  0  0  0  0  0  0  0  0  0
   58.6592   24.7313   45.6897 H   0  0  0  0  0  0  0  0  0  0  0  0
   60.2594   25.5475   45.6897 H   0  0  0  0  0  0  0  0  0  0  0  0
   56.8006   27.2477   46.6115 H   0  0  0  0  0  0  0  0  0  0  0  0
   58.2664   31.3236   43.9674 H   0  0  0  0  0  0  0  0  0  0  0  0
   56.9892   33.3898   43.9672 H   0  0  0  0  0  0  0  0  0  0  0  0
   57.0073   33.4523   45.7798 H   0  0  0  0  0  0  0  0  0  0  0  0
   59.4590   33.7394   43.9686 H   0  0  0  0  0  0  0  0  0  0  0  0
   58.5752   35.0897   44.7937 H   0  0  0  0  0  0  0  0  0  0  0  0
   60.7119   34.2412   45.9568 H   0  0  0  0  0  0  0  0  0  0  0  0
   59.2157   34.3281   46.9599 H   0  0  0  0  0  0  0  0  0  0  0  0
   58.8070   29.2554   46.4784 H   0  0  0  0  0  0  0  0  0  0  0  0
   60.7800   29.8120   48.0860 H   0  0  0  0  0  0  0  0  0  0  0  0
   63.3044   31.6457   46.9209 H   0  0  0  0  0  0  0  0  0  0  0  0
   65.0740   32.7308   48.3101 H   0  0  0  0  0  0  0  0  0  0  0  0
   62.0348   34.3487   50.9286 H   0  0  0  0  0  0  0  0  0  0  0  0
   60.2611   33.2620   49.5471 H   0  0  0  0  0  0  0  0  0  0  0  0
  1  2  1  0
  2  3  2  0
  3  4  1  0
  4  5  1  0
  5  6  2  0
  5  7  1  0
  7  8  1  0
  8  9  1  0
  9 10  1  0
 10 11  1  0
 11 12  1  0
 12 13  2  0
 13 14  1  0
 14 15  2  0
 15 16  1  0
 16 17  1  0
 17 18  2  0
 18 19  1  0
 19 20  2  0
 20 21  1  0
 20 22  1  0
 22 23  2  0
  4 24  2  0
 24 25  1  0
 25  2  1  0
 13  8  1  0
 23 17  1  0
 16 12  1  0
  1 26  1  0
  1 27  1  0
  1 28  1  0
  3 29  1  0
  8 30  1  6
  9 31  1  0
  9 32  1  0
 10 33  1  0
 10 34  1  0
 11 35  1  0
 11 36  1  0
 14 37  1  0
 15 38  1  0
 18 39  1  0
 19 40  1  0
 22 41  1  0
 23 42  1  0
M  CHG  2   7  -1  15   1
M  END
>  <UniqueID>  (83) 
74

>  <SMILES>  (83) 
Cc1cc(C(=O)[N-][C@H]2CCCc3c2c[nH+]n3-c2ccc(F)cc2)no1

>  <Energy>  (83) 
114.904350237346

>  <Genealogy>  (83) 
Cc1cc(C(=O)[N-]C2CCCc3c2c[nH+]n3-c2ccc(F)cc2)no1 (protonated)
Cc1cc(C(=O)[N-][C@H]2CCCc3c2c[nH+]n3-c2ccc(F)cc2)no1 (chirality)
Cc1cc(C(=O)[N-][C@H]2CCCc3c2c[nH+]n3-c2ccc(F)cc2)no1 (3D coordinates assigned)
Cc1cc(C(=O)[N-][C@H]2CCCc3c2c[nH+]n3-c2ccc(F)cc2)no1 (nonaromatic ring conformer: 114.904350237346 kcal/mol)

>  <smiles>  (83) 
Cc1cc(C(=O)NC2CCCc3c2cnn3-c2ccc(F)cc2)no1

>  <score_type>  (83) 
oracle

>  <origin>  (83) 
adg

>  <m_score__min__energy>  (83) 
-8.9600000000000009

>  <m_primary>  (83) 
energy

$$$$
83:0
     RDKit          3D

 41 42  0  0  0  0  0  0  0  0999 V2000
   56.0610   24.1690   44.7210 C   0  0  0  0  0  0  0  0  0  0  0  0
   55.1280   24.8890   45.6360 C   0  0  0  0  0  0  0  0  0  0  0  0
   54.0300   24.3510   45.9420 O   0  0  0  0  0  0  0  0  0  0  0  0
   55.5160   26.1630   46.1730 N   0  0  0  0  0  0  0  0  0  0  0  0
   56.3350   27.0290   45.6500 C   0  0  0  0  0  0  0  0  0  0  0  0
   55.9160   28.2400   45.2290 N   0  0  0  0  0  0  0  0  0  0  0  0
   56.9250   28.9660   44.6740 C   0  0  0  0  0  0  0  0  0  0  0  0
   56.6860   30.3240   44.1580 C   0  0  0  0  0  0  0  0  0  0  0  0
   56.2960   30.4560   42.9690 O   0  0  0  0  0  0  0  0  0  0  0  0
   56.8910   31.5050   44.9470 N   0  0  0  0  0  0  0  0  0  0  0  0
   57.8880   31.6950   46.0000 C   0  0  0  0  0  0  0  0  0  0  0  0
   58.7220   32.9610   45.7650 C   0  0  0  0  0  0  0  0  0  0  0  0
   60.0980   32.8620   46.3720 C   0  0  0  0  0  0  0  0  0  0  0  0
   60.4820   31.7050   47.0640 C   0  0  0  0  0  0  0  0  0  0  0  0
   61.7640   31.5990   47.6090 C   0  0  0  0  0  0  0  0  0  0  0  0
   62.6880   32.6470   47.4740 C   0  0  0  0  0  0  0  0  0  0  0  0
   64.0070   32.4880   48.0280 N   0  0  0  0  0  0  0  0  0  0  0  0
   64.3760   32.5160   49.7240 S   0  0  0  0  0  0  0  0  0  0  0  0
   66.1370   32.6150   49.9670 C   0  0  0  0  0  0  0  0  0  0  0  0
   63.7420   33.7310   50.3400 O   0  0  0  0  0  0  0  0  0  0  0  0
   63.8200   31.2920   50.3940 O   0  0  0  0  0  0  0  0  0  0  0  0
   62.2970   33.8120   46.7860 C   0  0  0  0  0  0  0  0  0  0  0  0
   61.0150   33.9170   46.2410 C   0  0  0  0  0  0  0  0  0  0  0  0
   58.1730   28.3440   44.6890 C   0  0  0  0  0  0  0  0  0  0  0  0
   57.9860   26.8200   45.3770 S   0  0  0  0  0  0  0  0  0  0  0  0
   56.7938   23.6035   45.3153 H   0  0  0  0  0  0  0  0  0  0  0  0
   55.4898   23.4753   44.0865 H   0  0  0  0  0  0  0  0  0  0  0  0
   56.5872   24.8974   44.0865 H   0  0  0  0  0  0  0  0  0  0  0  0
   57.3729   31.7812   46.9681 H   0  0  0  0  0  0  0  0  0  0  0  0
   58.5665   30.8292   45.9922 H   0  0  0  0  0  0  0  0  0  0  0  0
   58.8243   33.1208   44.6815 H   0  0  0  0  0  0  0  0  0  0  0  0
   58.2013   33.8008   46.2483 H   0  0  0  0  0  0  0  0  0  0  0  0
   59.7692   30.8751   47.1787 H   0  0  0  0  0  0  0  0  0  0  0  0
   62.0522   30.6852   48.1493 H   0  0  0  0  0  0  0  0  0  0  0  0
   64.8150   32.3580   47.3780 H   0  0  0  0  0  0  0  0  0  0  0  0
   66.3583   32.6274   51.0444 H   0  0  0  0  0  0  0  0  0  0  0  0
   66.6207   31.7426   49.5033 H   0  0  0  0  0  0  0  0  0  0  0  0
   66.5199   33.5361   49.5033 H   0  0  0  0  0  0  0  0  0  0  0  0
   63.0064   34.6456   46.6769 H   0  0  0  0  0  0  0  0  0  0  0  0
   60.7221   34.8323   45.7057 H   0  0  0  0  0  0  0  0  0  0  0  0
   59.1144   28.7742   44.3165 H   0  0  0  0  0  0  0  0  0  0  0  0
  1  2  1  0
  2  3  2  0
  2  4  1  0
  4  5  2  3
  5  6  1  0
  6  7  1  0
  7  8  1  0
  8  9  2  0
  8 10  1  0
 10 11  1  0
 11 12  1  0
 12 13  1  0
 13 14  2  0
 14 15  1  0
 15 16  2  0
 16 17  1  0
 17 18  1  0
 18 19  1  0
 18 20  2  0
 18 21  2  0
 16 22  1  0
 22 23  2  0
  7 24  2  0
 24 25  1  0
 25  5  1  0
 23 13  1  0
  1 26  1  0
  1 27  1  0
  1 28  1  0
 11 29  1  0
 11 30  1  0
 12 31  1  0
 12 32  1  0
 14 33  1  0
 15 34  1  0
 17 35  1  0
 19 36  1  0
 19 37  1  0
 19 38  1  0
 22 39  1  0
 23 40  1  0
 24 41  1  0
M  CHG  2   6  -1  10  -1
M  END
>  <UniqueID>  (84) 
75

>  <SMILES>  (84) 
CC(=O)N=c1[n-]c(C(=O)[N-]CCc2ccc(NS(C)(=O)=O)cc2)cs1

>  <Energy>  (84) 
66.93178617489858

>  <Genealogy>  (84) 
CC(=O)N=c1[n-]c(C(=O)[N-]CCc2ccc(NS(C)(=O)=O)cc2)cs1 (protonated)
CC(=O)N=c1[n-]c(C(=O)[N-]CCc2ccc(NS(C)(=O)=O)cc2)cs1 (3D coordinates assigned)
CC(=O)N=c1[n-]c(C(=O)[N-]CCc2ccc(NS(C)(=O)=O)cc2)cs1 (optimized conformer: 66.93178617489858 kcal/mol)

>  <smiles>  (84) 
CC(=O)N=c1[nH]c(C(=O)NCCc2ccc(NS(C)(=O)=O)cc2)cs1

>  <score_type>  (84) 
oracle

>  <origin>  (84) 
adg

>  <m_score__min__energy>  (84) 
-11.73

>  <m_primary>  (84) 
energy

$$$$
84:0
     RDKit          3D

 45 47  0  0  0  0  0  0  0  0999 V2000
   58.1750   27.9390   44.1850 C   0  0  0  0  0  0  0  0  0  0  0  0
   57.7230   29.3540   44.3030 C   0  0  0  0  0  0  0  0  0  0  0  0
   58.4430   30.4140   43.8800 N   0  0  0  0  0  0  0  0  0  0  0  0
   57.6450   31.4410   44.2450 C   0  0  0  0  0  0  0  0  0  0  0  0
   57.9870   32.8910   44.0270 C   0  0  0  0  0  0  0  0  0  0  0  0
   58.0740   33.6610   45.2850 N   0  0  0  0  0  0  0  0  0  0  0  0
   59.1330   34.7040   45.2890 C   0  0  0  0  0  0  0  0  0  0  0  0
   60.3360   34.3450   46.1750 C   0  0  0  0  0  0  0  0  0  0  0  0
   59.9030   33.9330   47.5190 N   0  0  0  0  0  0  0  0  0  0  0  0
   60.8050   33.9900   48.6390 C   0  0  0  0  0  0  0  0  0  0  0  0
   60.3520   34.2540   49.7880 O   0  0  0  0  0  0  0  0  0  0  0  0
   62.2760   33.7170   48.4880 C   0  0  0  0  0  0  0  0  0  0  0  0
   62.4900   32.3990   47.7950 C   0  0  0  0  0  0  0  0  0  0  0  0
   63.5740   32.2220   47.1760 O   0  0  0  0  0  0  0  0  0  0  0  0
   61.5030   31.2850   47.8670 C   0  0  0  0  0  0  0  0  0  0  0  0
   60.8520   30.7990   46.7120 C   0  0  0  0  0  0  0  0  0  0  0  0
   59.9310   29.7510   46.8040 C   0  0  0  0  0  0  0  0  0  0  0  0
   59.6420   29.1790   48.0440 C   0  0  0  0  0  0  0  0  0  0  0  0
   58.7410   28.1670   48.1300 F   0  0  0  0  0  0  0  0  0  0  0  0
   60.2750   29.6530   49.1950 C   0  0  0  0  0  0  0  0  0  0  0  0
   61.2030   30.6960   49.1090 C   0  0  0  0  0  0  0  0  0  0  0  0
   58.5100   33.5370   47.7330 C   0  0  0  0  0  0  0  0  0  0  0  0
   58.0020   32.8040   46.4920 C   0  0  0  0  0  0  0  0  0  0  0  0
   56.5220   31.0130   44.8480 N   0  0  0  0  0  0  0  0  0  0  0  0
   56.6000   29.7190   44.8730 O   0  0  0  0  0  0  0  0  0  0  0  0
   58.3112   27.5126   45.1898 H   0  0  0  0  0  0  0  0  0  0  0  0
   57.4182   27.3566   43.6390 H   0  0  0  0  0  0  0  0  0  0  0  0
   59.1293   27.9032   43.6390 H   0  0  0  0  0  0  0  0  0  0  0  0
   58.9581   32.9484   43.5135 H   0  0  0  0  0  0  0  0  0  0  0  0
   57.1775   33.3326   43.4273 H   0  0  0  0  0  0  0  0  0  0  0  0
   59.4886   34.8446   44.2576 H   0  0  0  0  0  0  0  0  0  0  0  0
   58.6862   35.6205   45.7018 H   0  0  0  0  0  0  0  0  0  0  0  0
   60.8915   33.5184   45.7080 H   0  0  0  0  0  0  0  0  0  0  0  0
   60.9746   35.2354   46.2726 H   0  0  0  0  0  0  0  0  0  0  0  0
   62.7355   34.5197   47.8926 H   0  0  0  0  0  0  0  0  0  0  0  0
   62.7386   33.6781   49.4852 H   0  0  0  0  0  0  0  0  0  0  0  0
   61.0712   31.2484   45.7322 H   0  0  0  0  0  0  0  0  0  0  0  0
   59.4332   29.3766   45.8974 H   0  0  0  0  0  0  0  0  0  0  0  0
   60.0431   29.2047   50.1724 H   0  0  0  0  0  0  0  0  0  0  0  0
   61.7022   31.0586   50.0196 H   0  0  0  0  0  0  0  0  0  0  0  0
   58.4464   32.8708   48.6060 H   0  0  0  0  0  0  0  0  0  0  0  0
   57.8944   34.4305   47.9135 H   0  0  0  0  0  0  0  0  0  0  0  0
   58.6176   31.9069   46.3302 H   0  0  0  0  0  0  0  0  0  0  0  0
   56.9492   32.5328   46.6593 H   0  0  0  0  0  0  0  0  0  0  0  0
   55.7380   31.5830   45.2380 H   0  0  0  0  0  0  0  0  0  0  0  0
  1  2  1  0
  2  3  2  0
  3  4  1  0
  4  5  1  0
  5  6  1  0
  6  7  1  0
  7  8  1  0
  8  9  1  0
  9 10  1  0
 10 11  2  0
 10 12  1  0
 12 13  1  0
 13 14  2  0
 13 15  1  0
 15 16  2  0
 16 17  1  0
 17 18  2  0
 18 19  1  0
 18 20  1  0
 20 21  2  0
  9 22  1  0
 22 23  1  0
  4 24  2  0
 24 25  1  0
 25  2  1  0
 23  6  1  0
 21 15  1  0
  1 26  1  0
  1 27  1  0
  1 28  1  0
  5 29  1  0
  5 30  1  0
  7 31  1  0
  7 32  1  0
  8 33  1  0
  8 34  1  0
 12 35  1  0
 12 36  1  0
 16 37  1  0
 17 38  1  0
 20 39  1  0
 21 40  1  0
 22 41  1  0
 22 42  1  0
 23 43  1  0
 23 44  1  0
 24 45  1  0
M  CHG  1  24   1
M  END
>  <UniqueID>  (85) 
76

>  <SMILES>  (85) 
Cc1nc(CN2CCN(C(=O)CC(=O)c3ccc(F)cc3)CC2)[nH+]o1

>  <Energy>  (85) 
86.01985353670577

>  <Genealogy>  (85) 
Cc1nc(CN2CCN(C(=O)CC(=O)c3ccc(F)cc3)CC2)[nH+]o1 (protonated)
Cc1nc(CN2CCN(C(=O)CC(=O)c3ccc(F)cc3)CC2)[nH+]o1 (3D coordinates assigned)
Cc1nc(CN2CCN(C(=O)CC(=O)c3ccc(F)cc3)CC2)[nH+]o1 (nonaromatic ring conformer: 86.01985353670577 kcal/mol)

>  <smiles>  (85) 
Cc1nc(CN2CCN(C(=O)CC(=O)c3ccc(F)cc3)CC2)no1

>  <score_type>  (85) 
oracle

>  <origin>  (85) 
adg

>  <m_score__min__energy>  (85) 
-7.3499999999999996

>  <m_primary>  (85) 
energy

$$$$
85:0
     RDKit          3D

 41 43  0  0  0  0  0  0  0  0999 V2000
   59.7000   34.3650   45.9560 C   0  0  0  0  0  0  0  0  0  0  0  0
   58.8970   33.2050   45.4470 C   0  0  0  0  0  0  0  0  0  0  0  0
   58.5460   32.1550   46.3100 C   0  0  0  0  0  0  0  0  0  0  0  0
   57.7720   31.0890   45.8430 C   0  0  0  0  0  0  0  0  0  0  0  0
   57.3290   31.0680   44.5150 C   0  0  0  0  0  0  0  0  0  0  0  0
   56.3660   29.7150   43.9310 S   0  0  0  0  0  0  0  0  0  0  0  0
   55.8890   29.9640   42.5270 O   0  0  0  0  0  0  0  0  0  0  0  0
   55.1710   29.5500   44.8280 O   0  0  0  0  0  0  0  0  0  0  0  0
   57.3080   28.2570   43.9630 N   0  0  0  0  0  0  0  0  0  0  0  0
   58.3680   27.9960   44.9090 C   0  0  0  0  0  0  0  0  0  0  0  0
   59.6510   28.5580   44.7370 C   0  0  0  0  0  0  0  0  0  0  0  0
   60.6610   28.3320   45.6740 C   0  0  0  0  0  0  0  0  0  0  0  0
   60.4140   27.5410   46.7950 C   0  0  0  0  0  0  0  0  0  0  0  0
   59.1570   26.9660   46.9780 C   0  0  0  0  0  0  0  0  0  0  0  0
   58.1360   27.1750   46.0400 C   0  0  0  0  0  0  0  0  0  0  0  0
   56.5480   26.3800   46.3330 S   0  0  0  0  0  0  0  0  0  0  0  0
   57.0230   24.8820   45.4660 C   0  0  0  0  0  0  0  0  0  0  0  0
   56.2920   24.4490   44.3510 C   0  0  0  0  0  0  0  0  0  0  0  0
   56.6690   23.2840   43.6750 C   0  0  0  0  0  0  0  0  0  0  0  0
   57.7700   22.5440   44.1170 C   0  0  0  0  0  0  0  0  0  0  0  0
   58.4980   22.9710   45.2320 C   0  0  0  0  0  0  0  0  0  0  0  0
   58.1240   24.1380   45.9070 C   0  0  0  0  0  0  0  0  0  0  0  0
   57.6600   32.1240   43.6560 C   0  0  0  0  0  0  0  0  0  0  0  0
   58.4380   33.1900   44.1210 C   0  0  0  0  0  0  0  0  0  0  0  0
   59.6960   34.3592   47.0560 H   0  0  0  0  0  0  0  0  0  0  0  0
   60.7349   34.2821   45.5927 H   0  0  0  0  0  0  0  0  0  0  0  0
   59.2580   35.3045   45.5927 H   0  0  0  0  0  0  0  0  0  0  0  0
   58.8813   32.1712   47.3575 H   0  0  0  0  0  0  0  0  0  0  0  0
   57.5100   30.2636   46.5212 H   0  0  0  0  0  0  0  0  0  0  0  0
   57.0150   27.5200   43.2860 H   0  0  0  0  0  0  0  0  0  0  0  0
   59.8577   29.1813   43.8545 H   0  0  0  0  0  0  0  0  0  0  0  0
   61.6550   28.7796   45.5272 H   0  0  0  0  0  0  0  0  0  0  0  0
   61.2102   27.3706   47.5346 H   0  0  0  0  0  0  0  0  0  0  0  0
   58.9650   26.3439   47.8646 H   0  0  0  0  0  0  0  0  0  0  0  0
   55.4209   25.0261   44.0073 H   0  0  0  0  0  0  0  0  0  0  0  0
   56.0992   22.9498   42.7954 H   0  0  0  0  0  0  0  0  0  0  0  0
   58.0636   21.6256   43.5875 H   0  0  0  0  0  0  0  0  0  0  0  0
   59.3649   22.3892   45.5784 H   0  0  0  0  0  0  0  0  0  0  0  0
   58.6958   24.4715   46.7855 H   0  0  0  0  0  0  0  0  0  0  0  0
   57.3076   32.1151   42.6140 H   0  0  0  0  0  0  0  0  0  0  0  0
   58.6908   34.0196   43.4444 H   0  0  0  0  0  0  0  0  0  0  0  0
  1  2  1  0
  2  3  2  0
  3  4  1  0
  4  5  2  0
  5  6  1  0
  6  7  2  0
  6  8  2  0
  6  9  1  0
  9 10  1  0
 10 11  2  0
 11 12  1  0
 12 13  2  0
 13 14  1  0
 14 15  2  0
 15 16  1  0
 16 17  1  0
 17 18  2  0
 18 19  1  0
 19 20  2  0
 20 21  1  0
 21 22  2  0
  5 23  1  0
 23 24  2  0
 24  2  1  0
 15 10  1  0
 22 17  1  0
  1 25  1  0
  1 26  1  0
  1 27  1  0
  3 28  1  0
  4 29  1  0
  9 30  1  0
 11 31  1  0
 12 32  1  0
 13 33  1  0
 14 34  1  0
 18 35  1  0
 19 36  1  0
 20 37  1  0
 21 38  1  0
 22 39  1  0
 23 40  1  0
 24 41  1  0
M  END
>  <UniqueID>  (86) 
77

>  <SMILES>  (86) 
Cc1ccc(S(=O)(=O)Nc2ccccc2Sc2ccccc2)cc1

>  <Energy>  (86) 
42.39091849728456

>  <Genealogy>  (86) 
Cc1ccc(S(=O)(=O)Nc2ccccc2Sc2ccccc2)cc1 (3D coordinates assigned)
Cc1ccc(S(=O)(=O)Nc2ccccc2Sc2ccccc2)cc1 (optimized conformer: 42.39091849728456 kcal/mol)

>  <smiles>  (86) 
Cc1ccc(S(=O)(=O)Nc2ccccc2Sc2ccccc2)cc1

>  <score_type>  (86) 
oracle

>  <origin>  (86) 
adg

>  <m_score__min__energy>  (86) 
-9.25

>  <m_primary>  (86) 
energy

$$$$
86:0
     RDKit          3D

 49 51  0  0  0  0  0  0  0  0999 V2000
   63.5320   33.0240   47.5620 C   0  0  0  0  0  0  0  0  0  0  0  0
   62.1780   32.4560   47.8170 C   0  0  0  0  0  0  0  0  0  0  0  0
   61.3450   32.3940   46.8740 O   0  0  0  0  0  0  0  0  0  0  0  0
   61.8810   31.8920   49.1010 N   0  0  0  0  0  0  0  0  0  0  0  0
   60.5770   31.7380   49.6820 C   0  0  0  0  0  0  0  0  0  0  0  0
   59.8040   32.8530   50.0570 C   0  0  0  0  0  0  0  0  0  0  0  0
   58.5430   32.6750   50.6330 C   0  0  0  0  0  0  0  0  0  0  0  0
   58.0480   31.3880   50.8530 C   0  0  0  0  0  0  0  0  0  0  0  0
   58.8160   30.2750   50.5040 C   0  0  0  0  0  0  0  0  0  0  0  0
   60.0800   30.4430   49.9240 C   0  0  0  0  0  0  0  0  0  0  0  0
   61.0430   28.9890   49.4910 S   0  0  0  0  0  0  0  0  0  0  0  0
   60.1580   28.7370   47.9510 C   0  0  0  0  0  0  0  0  0  0  0  0
   59.8390   27.4410   47.5330 C   0  0  0  0  0  0  0  0  0  0  0  0
   59.1210   27.2410   46.3520 C   0  0  0  0  0  0  0  0  0  0  0  0
   58.7050   28.3390   45.5820 C   0  0  0  0  0  0  0  0  0  0  0  0
   57.9660   28.1440   44.3170 C   0  0  0  0  0  0  0  0  0  0  0  0
   57.1950   29.0740   43.7360 C   0  0  0  0  0  0  0  0  0  0  0  0
   56.1880   29.8850   44.4440 C   0  0  0  0  0  0  0  0  0  0  0  0
   55.1400   29.3300   44.8680 O   0  0  0  0  0  0  0  0  0  0  0  0
   56.3590   31.3020   44.5740 N   0  0  0  0  0  0  0  0  0  0  0  0
   57.4860   32.0420   44.0180 C   0  0  0  0  0  0  0  0  0  0  0  0
   58.0460   32.9780   45.0530 C   0  0  0  0  0  0  0  0  0  0  0  0
   57.7700   32.7770   46.4160 C   0  0  0  0  0  0  0  0  0  0  0  0
   58.3220   33.6280   47.3790 C   0  0  0  0  0  0  0  0  0  0  0  0
   59.1520   34.6820   46.9890 C   0  0  0  0  0  0  0  0  0  0  0  0
   59.4390   34.8840   45.6360 C   0  0  0  0  0  0  0  0  0  0  0  0
   58.8950   34.0310   44.6700 C   0  0  0  0  0  0  0  0  0  0  0  0
   59.0620   29.6350   45.9840 C   0  0  0  0  0  0  0  0  0  0  0  0
   59.7730   29.8340   47.1710 C   0  0  0  0  0  0  0  0  0  0  0  0
   64.0288   33.2324   48.5211 H   0  0  0  0  0  0  0  0  0  0  0  0
   64.1308   32.3012   46.9884 H   0  0  0  0  0  0  0  0  0  0  0  0
   63.4359   33.9576   46.9884 H   0  0  0  0  0  0  0  0  0  0  0  0
   60.1940   33.8689   49.8960 H   0  0  0  0  0  0  0  0  0  0  0  0
   57.9392   33.5506   50.9136 H   0  0  0  0  0  0  0  0  0  0  0  0
   57.0529   31.2508   51.3013 H   0  0  0  0  0  0  0  0  0  0  0  0
   58.4268   29.2623   50.6853 H   0  0  0  0  0  0  0  0  0  0  0  0
   60.1545   26.5769   48.1361 H   0  0  0  0  0  0  0  0  0  0  0  0
   58.8804   26.2191   46.0236 H   0  0  0  0  0  0  0  0  0  0  0  0
   58.0548   27.1679   43.8176 H   0  0  0  0  0  0  0  0  0  0  0  0
   57.3225   29.2437   42.6567 H   0  0  0  0  0  0  0  0  0  0  0  0
   58.2680   31.3344   43.7053 H   0  0  0  0  0  0  0  0  0  0  0  0
   57.1430   32.6253   43.1508 H   0  0  0  0  0  0  0  0  0  0  0  0
   57.1176   31.9476   46.7267 H   0  0  0  0  0  0  0  0  0  0  0  0
   58.1024   33.4672   48.4448 H   0  0  0  0  0  0  0  0  0  0  0  0
   59.5802   35.3537   47.7476 H   0  0  0  0  0  0  0  0  0  0  0  0
   60.0930   35.7141   45.3307 H   0  0  0  0  0  0  0  0  0  0  0  0
   59.1324   34.1847   43.6070 H   0  0  0  0  0  0  0  0  0  0  0  0
   58.7812   30.4981   45.3625 H   0  0  0  0  0  0  0  0  0  0  0  0
   60.0303   30.8540   47.4927 H   0  0  0  0  0  0  0  0  0  0  0  0
  1  2  1  0
  2  3  2  0
  2  4  1  0
  4  5  1  0
  5  6  2  0
  6  7  1  0
  7  8  2  0
  8  9  1  0
  9 10  2  0
 10 11  1  0
 11 12  1  0
 12 13  2  0
 13 14  1  0
 14 15  2  0
 15 16  1  0
 16 17  2  3
 17 18  1  0
 18 19  2  0
 18 20  1  0
 20 21  1  0
 21 22  1  0
 22 23  2  0
 23 24  1  0
 24 25  2  0
 25 26  1  0
 26 27  2  0
 15 28  1  0
 28 29  2  0
 10  5  1  0
 29 12  1  0
 27 22  1  0
  1 30  1  0
  1 31  1  0
  1 32  1  0
  6 33  1  0
  7 34  1  0
  8 35  1  0
  9 36  1  0
 13 37  1  0
 14 38  1  0
 16 39  1  0
 17 40  1  0
 21 41  1  0
 21 42  1  0
 23 43  1  0
 24 44  1  0
 25 45  1  0
 26 46  1  0
 27 47  1  0
 28 48  1  0
 29 49  1  0
M  CHG  2   4  -1  20  -1
M  END
>  <UniqueID>  (87) 
78

>  <SMILES>  (87) 
CC(=O)[N-]c1ccccc1Sc1ccc(C=CC(=O)[N-]Cc2ccccc2)cc1

>  <Energy>  (87) 
49.71675231655544

>  <Genealogy>  (87) 
CC(=O)[N-]c1ccccc1Sc1ccc(C=CC(=O)[N-]Cc2ccccc2)cc1 (protonated)
CC(=O)[N-]c1ccccc1Sc1ccc(C=CC(=O)[N-]Cc2ccccc2)cc1 (3D coordinates assigned)
CC(=O)[N-]c1ccccc1Sc1ccc(C=CC(=O)[N-]Cc2ccccc2)cc1 (optimized conformer: 49.71675231655544 kcal/mol)

>  <smiles>  (87) 
CC(=O)Nc1ccccc1Sc1ccc(C=CC(=O)NCc2ccccc2)cc1

>  <score_type>  (87) 
oracle

>  <origin>  (87) 
adg

>  <m_score__min__energy>  (87) 
-11.91

>  <m_primary>  (87) 
energy

$$$$
87:0
     RDKit          3D

 50 52  0  0  0  0  0  0  0  0999 V2000
   59.6810   28.8130   45.9100 C   0  0  0  0  0  0  0  0  0  0  0  0
   59.2280   28.6220   44.4550 C   0  0  0  0  0  0  0  0  0  0  0  0
   57.8020   28.2520   44.2910 N   0  0  0  0  0  0  0  0  0  0  0  0
   57.1090   27.8470   45.5270 C   0  0  0  0  0  0  0  0  0  0  0  0
   57.0110   29.1530   43.4250 C   0  0  0  0  0  0  0  0  0  0  0  0
   57.2260   30.6070   43.7250 C   0  0  0  0  0  0  0  0  0  0  0  0
   57.7640   31.5410   42.8590 C   0  0  0  0  0  0  0  0  0  0  0  0
   57.7910   32.7300   43.5600 C   0  0  0  0  0  0  0  0  0  0  0  0
   57.2670   32.4420   44.8050 C   0  0  0  0  0  0  0  0  0  0  0  0
   57.1080   33.4090   45.9380 C   0  0  0  0  0  0  0  0  0  0  0  0
   58.3510   33.4760   46.7380 N   0  0  0  0  0  0  0  0  0  0  0  0
   58.9460   32.1260   46.9410 C   0  0  0  0  0  0  0  0  0  0  0  0
   60.4860   32.1270   47.0690 C   0  0  0  0  0  0  0  0  0  0  0  0
   60.9820   33.3930   47.6230 N   0  0  0  0  0  0  0  0  0  0  0  0
   62.1640   33.4090   48.4500 C   0  0  0  0  0  0  0  0  0  0  0  0
   63.3160   32.6930   48.0700 C   0  0  0  0  0  0  0  0  0  0  0  0
   64.4620   32.7120   48.8730 C   0  0  0  0  0  0  0  0  0  0  0  0
   64.4720   33.4470   50.0640 C   0  0  0  0  0  0  0  0  0  0  0  0
   65.9100   33.4690   51.0730 Cl  0  0  0  0  0  0  0  0  0  0  0  0
   63.3340   34.1620   50.4500 C   0  0  0  0  0  0  0  0  0  0  0  0
   62.1870   34.1470   49.6490 C   0  0  0  0  0  0  0  0  0  0  0  0
   60.4510   34.6640   47.1110 C   0  0  0  0  0  0  0  0  0  0  0  0
   59.3030   34.4230   46.1320 C   0  0  0  0  0  0  0  0  0  0  0  0
   56.9350   31.1740   44.8750 O   0  0  0  0  0  0  0  0  0  0  0  0
   58.8838   28.4769   46.5893 H   0  0  0  0  0  0  0  0  0  0  0  0
   60.5908   28.2219   46.0914 H   0  0  0  0  0  0  0  0  0  0  0  0
   59.8929   29.8771   46.0914 H   0  0  0  0  0  0  0  0  0  0  0  0
   59.4008   29.5653   43.9162 H   0  0  0  0  0  0  0  0  0  0  0  0
   59.8138   27.7806   44.0564 H   0  0  0  0  0  0  0  0  0  0  0  0
   57.6875   28.1851   46.3993 H   0  0  0  0  0  0  0  0  0  0  0  0
   56.1079   28.3022   45.5521 H   0  0  0  0  0  0  0  0  0  0  0  0
   57.0143   26.7514   45.5521 H   0  0  0  0  0  0  0  0  0  0  0  0
   57.2934   28.9674   42.3782 H   0  0  0  0  0  0  0  0  0  0  0  0
   55.9493   28.9357   43.6136 H   0  0  0  0  0  0  0  0  0  0  0  0
   58.1007   31.3717   41.8256 H   0  0  0  0  0  0  0  0  0  0  0  0
   58.1544   33.7044   43.2015 H   0  0  0  0  0  0  0  0  0  0  0  0
   56.8830   34.4070   45.5337 H   0  0  0  0  0  0  0  0  0  0  0  0
   56.2857   33.0686   46.5846 H   0  0  0  0  0  0  0  0  0  0  0  0
   58.5233   31.6973   47.8616 H   0  0  0  0  0  0  0  0  0  0  0  0
   58.7029   31.5348   46.0458 H   0  0  0  0  0  0  0  0  0  0  0  0
   60.7895   31.3038   47.7326 H   0  0  0  0  0  0  0  0  0  0  0  0
   60.9146   32.0002   46.0639 H   0  0  0  0  0  0  0  0  0  0  0  0
   63.3148   32.1143   47.1345 H   0  0  0  0  0  0  0  0  0  0  0  0
   65.3560   32.1485   48.5677 H   0  0  0  0  0  0  0  0  0  0  0  0
   63.3406   34.7384   51.3869 H   0  0  0  0  0  0  0  0  0  0  0  0
   61.2974   34.7154   49.9579 H   0  0  0  0  0  0  0  0  0  0  0  0
   60.0836   35.2664   47.9549 H   0  0  0  0  0  0  0  0  0  0  0  0
   61.2574   35.1931   46.5821 H   0  0  0  0  0  0  0  0  0  0  0  0
   58.7931   35.3742   45.9193 H   0  0  0  0  0  0  0  0  0  0  0  0
   59.6953   34.0075   45.1921 H   0  0  0  0  0  0  0  0  0  0  0  0
  1  2  1  0
  2  3  1  0
  3  4  1  0
  3  5  1  0
  5  6  1  0
  6  7  2  0
  7  8  1  0
  8  9  2  0
  9 10  1  0
 10 11  1  0
 11 12  1  0
 12 13  1  0
 13 14  1  0
 14 15  1  0
 15 16  2  0
 16 17  1  0
 17 18  2  0
 18 19  1  0
 18 20  1  0
 20 21  2  0
 14 22  1  0
 22 23  1  0
  9 24  1  0
 24  6  1  0
 23 11  1  0
 21 15  1  0
  1 25  1  0
  1 26  1  0
  1 27  1  0
  2 28  1  0
  2 29  1  0
  4 30  1  0
  4 31  1  0
  4 32  1  0
  5 33  1  0
  5 34  1  0
  7 35  1  0
  8 36  1  0
 10 37  1  0
 10 38  1  0
 12 39  1  0
 12 40  1  0
 13 41  1  0
 13 42  1  0
 16 43  1  0
 17 44  1  0
 20 45  1  0
 21 46  1  0
 22 47  1  0
 22 48  1  0
 23 49  1  0
 23 50  1  0
M  END
>  <UniqueID>  (88) 
79

>  <SMILES>  (88) 
CCN(C)Cc1ccc(CN2CCN(c3ccc(Cl)cc3)CC2)o1

>  <Energy>  (88) 
89.09083095200394

>  <Genealogy>  (88) 
CCN(C)Cc1ccc(CN2CCN(c3ccc(Cl)cc3)CC2)o1 (3D coordinates assigned)
CCN(C)Cc1ccc(CN2CCN(c3ccc(Cl)cc3)CC2)o1 (nonaromatic ring conformer: 89.09083095200394 kcal/mol)

>  <smiles>  (88) 
CCN(C)Cc1ccc(CN2CCN(c3ccc(Cl)cc3)CC2)o1

>  <score_type>  (88) 
oracle

>  <origin>  (88) 
adg

>  <m_score__min__energy>  (88) 
-7.8499999999999996

>  <m_primary>  (88) 
energy

$$$$
88:0
     RDKit          3D

 51 54  0  0  0  0  0  0  0  0999 V2000
   58.4790   34.5970   52.7590 C   0  0  0  0  0  0  0  0  0  0  0  0
   58.7440   33.4060   51.8860 C   0  0  0  0  0  0  0  0  0  0  0  0
   57.9560   32.2550   52.0110 C   0  0  0  0  0  0  0  0  0  0  0  0
   58.1720   31.1580   51.1720 C   0  0  0  0  0  0  0  0  0  0  0  0
   59.1640   31.2090   50.1840 C   0  0  0  0  0  0  0  0  0  0  0  0
   59.3290   30.1480   49.3560 N   0  0  0  0  0  0  0  0  0  0  0  0
   60.2640   30.1290   48.3740 C   0  0  0  0  0  0  0  0  0  0  0  0
   60.3150   28.6840   47.3040 S   0  0  0  0  0  0  0  0  0  0  0  0
   58.5280   28.3390   47.4320 C   0  0  0  0  0  0  0  0  0  0  0  0
   57.8800   28.4770   46.0500 C   0  0  0  0  0  0  0  0  0  0  0  0
   57.5700   29.9070   45.7040 C   0  0  0  0  0  0  0  0  0  0  0  0
   56.7290   30.1750   44.8020 O   0  0  0  0  0  0  0  0  0  0  0  0
   58.1520   30.9560   46.4890 N   0  0  0  0  0  0  0  0  0  0  0  0
   58.2720   32.3250   46.0600 C   0  0  0  0  0  0  0  0  0  0  0  0
   59.5340   32.9460   46.0840 C   0  0  0  0  0  0  0  0  0  0  0  0
   59.6950   34.2600   45.6210 C   0  0  0  0  0  0  0  0  0  0  0  0
   58.5970   34.9570   45.1150 C   0  0  0  0  0  0  0  0  0  0  0  0
   57.3370   34.3430   45.0760 C   0  0  0  0  0  0  0  0  0  0  0  0
   56.2850   35.0090   44.5380 F   0  0  0  0  0  0  0  0  0  0  0  0
   57.1720   33.0330   45.5440 C   0  0  0  0  0  0  0  0  0  0  0  0
   61.1370   31.2250   48.2050 C   0  0  0  0  0  0  0  0  0  0  0  0
   60.9800   32.3670   49.0340 C   0  0  0  0  0  0  0  0  0  0  0  0
   59.9730   32.3590   50.0370 C   0  0  0  0  0  0  0  0  0  0  0  0
   59.7440   33.4580   50.8950 C   0  0  0  0  0  0  0  0  0  0  0  0
   61.8790   33.5910   48.8590 C   0  0  0  0  0  0  0  0  0  0  0  0
   63.0500   33.4410   47.8630 C   0  0  0  0  0  0  0  0  0  0  0  0
   63.4270   31.9850   47.5970 C   0  0  0  0  0  0  0  0  0  0  0  0
   62.1970   31.2180   47.1240 C   0  0  0  0  0  0  0  0  0  0  0  0
   58.5453   34.2990   53.8158 H   0  0  0  0  0  0  0  0  0  0  0  0
   59.2254   35.3777   52.5506 H   0  0  0  0  0  0  0  0  0  0  0  0
   57.4720   34.9875   52.5506 H   0  0  0  0  0  0  0  0  0  0  0  0
   57.1636   32.2140   52.7728 H   0  0  0  0  0  0  0  0  0  0  0  0
   57.5606   30.2510   51.2880 H   0  0  0  0  0  0  0  0  0  0  0  0
   58.3782   27.3156   47.8065 H   0  0  0  0  0  0  0  0  0  0  0  0
   58.0654   29.0555   48.1267 H   0  0  0  0  0  0  0  0  0  0  0  0
   58.5691   28.0719   45.2944 H   0  0  0  0  0  0  0  0  0  0  0  0
   56.9304   27.9220   46.0672 H   0  0  0  0  0  0  0  0  0  0  0  0
   58.5300   30.7060   47.4330 H   0  0  0  0  0  0  0  0  0  0  0  0
   60.4042   32.3949   46.4702 H   0  0  0  0  0  0  0  0  0  0  0  0
   60.6841   34.7399   45.6566 H   0  0  0  0  0  0  0  0  0  0  0  0
   58.7198   35.9864   44.7473 H   0  0  0  0  0  0  0  0  0  0  0  0
   56.1807   32.5575   45.5078 H   0  0  0  0  0  0  0  0  0  0  0  0
   60.3548   34.3665   50.7877 H   0  0  0  0  0  0  0  0  0  0  0  0
   61.2487   34.4234   48.5129 H   0  0  0  0  0  0  0  0  0  0  0  0
   62.3472   33.7548   49.8408 H   0  0  0  0  0  0  0  0  0  0  0  0
   62.7609   33.9076   46.9098 H   0  0  0  0  0  0  0  0  0  0  0  0
   63.9271   33.9304   48.3115 H   0  0  0  0  0  0  0  0  0  0  0  0
   64.2052   31.9440   46.8207 H   0  0  0  0  0  0  0  0  0  0  0  0
   63.8078   31.5305   48.5235 H   0  0  0  0  0  0  0  0  0  0  0  0
   61.7963   31.6950   46.2174 H   0  0  0  0  0  0  0  0  0  0  0  0
   62.4816   30.1787   46.9031 H   0  0  0  0  0  0  0  0  0  0  0  0
  1  2  1  0
  2  3  2  0
  3  4  1  0
  4  5  2  0
  5  6  1  0
  6  7  2  0
  7  8  1  0
  8  9  1  0
  9 10  1  0
 10 11  1  0
 11 12  2  0
 11 13  1  0
 13 14  1  0
 14 15  2  0
 15 16  1  0
 16 17  2  0
 17 18  1  0
 18 19  1  0
 18 20  2  0
  7 21  1  0
 21 22  2  0
 22 23  1  0
 23 24  2  0
 22 25  1  0
 25 26  1  0
 26 27  1  0
 27 28  1  0
 24  2  1  0
 23  5  1  0
 20 14  1  0
 28 21  1  0
  1 29  1  0
  1 30  1  0
  1 31  1  0
  3 32  1  0
  4 33  1  0
  9 34  1  0
  9 35  1  0
 10 36  1  0
 10 37  1  0
 13 38  1  0
 15 39  1  0
 16 40  1  0
 17 41  1  0
 20 42  1  0
 24 43  1  0
 25 44  1  0
 25 45  1  0
 26 46  1  0
 26 47  1  0
 27 48  1  0
 27 49  1  0
 28 50  1  0
 28 51  1  0
M  END
>  <UniqueID>  (89) 
80

>  <SMILES>  (89) 
Cc1ccc2nc(SCCC(=O)Nc3cccc(F)c3)c3c(c2c1)CCCC3

>  <Energy>  (89) 
61.105366359857825

>  <Genealogy>  (89) 
Cc1ccc2nc(SCCC(=O)Nc3cccc(F)c3)c3c(c2c1)CCCC3 (3D coordinates assigned)
Cc1ccc2nc(SCCC(=O)Nc3cccc(F)c3)c3c(c2c1)CCCC3 (nonaromatic ring conformer: 61.105366359857825 kcal/mol)

>  <smiles>  (89) 
Cc1ccc2nc(SCCC(=O)Nc3cccc(F)c3)c3c(c2c1)CCCC3

>  <score_type>  (89) 
oracle

>  <origin>  (89) 
adg

>  <m_score__min__energy>  (89) 
-9.5600000000000005

>  <m_primary>  (89) 
energy

$$$$
89:0
     RDKit          3D

 33 34  0  0  0  0  0  0  0  0999 V2000
   58.1281   34.4926   45.1842 H   0  0  0  0  0  0  0  0  0  0  0  0
   58.4380   33.9250   46.0740 C   0  0  0  0  0  0  0  0  0  0  0  0
   59.2060   34.5460   47.0640 C   0  0  0  0  0  0  0  0  0  0  0  0
   59.4797   35.6060   46.9573 H   0  0  0  0  0  0  0  0  0  0  0  0
   59.6290   33.8300   48.1890 C   0  0  0  0  0  0  0  0  0  0  0  0
   60.3950   34.4980   49.1560 O   0  0  0  0  0  0  0  0  0  0  0  0
   61.7740   34.2440   49.4060 C   0  0  0  0  0  0  0  0  0  0  0  0
   61.9500   34.2116   50.4913 H   0  0  0  0  0  0  0  0  0  0  0  0
   62.0558   33.2788   48.9599 H   0  0  0  0  0  0  0  0  0  0  0  0
   62.3812   35.0454   48.9599 H   0  0  0  0  0  0  0  0  0  0  0  0
   59.2780   32.4710   48.3100 C   0  0  0  0  0  0  0  0  0  0  0  0
   59.6091   31.8954   49.1870 H   0  0  0  0  0  0  0  0  0  0  0  0
   58.5100   31.8510   47.3190 C   0  0  0  0  0  0  0  0  0  0  0  0
   58.2575   30.7843   47.4106 H   0  0  0  0  0  0  0  0  0  0  0  0
   58.0610   32.5790   46.2120 C   0  0  0  0  0  0  0  0  0  0  0  0
   57.3230   31.9010   45.1850 N   0  0  0  0  0  0  0  0  0  0  0  0
   57.7710   31.5110   44.0230 C   0  0  0  0  0  0  0  0  0  0  0  0
   58.1480   32.4560   43.0130 N   0  0  0  0  0  0  0  0  0  0  0  0
   58.5660   32.1190   42.1180 H   0  0  0  0  0  0  0  0  0  0  0  0
   57.9180   33.4700   43.0880 H   0  0  0  0  0  0  0  0  0  0  0  0
   57.7660   30.1130   43.6920 N   0  0  0  0  0  0  0  0  0  0  0  0
   57.7770   29.8560   42.6800 H   0  0  0  0  0  0  0  0  0  0  0  0
   57.6570   29.0510   44.6550 C   0  0  0  0  0  0  0  0  0  0  0  0
   58.7640   28.7170   45.4450 C   0  0  0  0  0  0  0  0  0  0  0  0
   59.7142   29.2553   45.3134 H   0  0  0  0  0  0  0  0  0  0  0  0
   58.6650   27.7040   46.3980 C   0  0  0  0  0  0  0  0  0  0  0  0
   59.5361   27.4319   47.0121 H   0  0  0  0  0  0  0  0  0  0  0  0
   57.4480   27.0380   46.5650 C   0  0  0  0  0  0  0  0  0  0  0  0
   57.3615   26.2323   47.3089 H   0  0  0  0  0  0  0  0  0  0  0  0
   56.3690   27.3830   45.8100 N   0  0  0  0  0  0  0  0  0  0  0  0
   55.1750   26.7280   46.0030 O   0  0  0  0  0  0  0  0  0  0  0  0
   56.4460   28.3700   44.8740 C   0  0  0  0  0  0  0  0  0  0  0  0
   55.5554   28.6360   44.2858 H   0  0  0  0  0  0  0  0  0  0  0  0
  1  2  1  0
  2  3  2  0
  3  4  1  0
  3  5  1  0
  5  6  1  0
  6  7  1  0
  7  8  1  0
  7  9  1  0
  7 10  1  0
  5 11  2  0
 11 12  1  0
 11 13  1  0
 13 14  1  0
 13 15  2  0
 15 16  1  0
 16 17  2  0
 17 18  1  0
 18 19  1  0
 18 20  1  0
 17 21  1  0
 21 22  1  0
 21 23  1  0
 23 24  2  0
 24 25  1  0
 24 26  1  0
 26 27  1  0
 26 28  2  0
 28 29  1  0
 28 30  1  0
 30 31  1  0
 30 32  2  0
 32 33  1  0
 15  2  1  0
 32 23  1  0
M  CHG  2  30   1  31  -1
M  END
>  <UniqueID>  (90) 
81

>  <SMILES>  (90) 
COc1ccc(/N=C(\N)Nc2ccc[n+]([O-])c2)cc1

>  <Energy>  (90) 
42.71653750114535

>  <Genealogy>  (90) 
COc1ccc(/N=C(\N)Nc2ccc[n+]([O-])c2)cc1 (cis-trans isomerization)
COc1ccc(/N=C(\N)Nc2ccc[n+]([O-])c2)cc1 (3D coordinates assigned)
COc1ccc(/N=C(\N)Nc2ccc[n+]([O-])c2)cc1 (optimized conformer: 42.71653750114535 kcal/mol)

>  <smiles>  (90) 
COc1ccc(N=C(N)Nc2ccc[n+]([O-])c2)cc1

>  <score_type>  (90) 
oracle

>  <origin>  (90) 
adg

>  <m_score__min__energy>  (90) 
-6.9100000000000001

>  <m_primary>  (90) 
energy

$$$$
90:0
     RDKit          3D

 15 15  0  0  0  0  0  0  0  0999 V2000
   49.9950   32.8000   48.6200 N   0  0  0  0  0  0  0  0  0  0  0  0
   50.6540   31.6080   49.0420 C   0  0  0  0  0  0  0  0  0  0  0  0
   50.6740   30.6020   48.2840 O   0  0  0  0  0  0  0  0  0  0  0  0
   51.3060   31.5580   50.3550 C   0  0  0  0  0  0  0  0  0  0  0  0
   51.9480   30.4670   50.9040 C   0  0  0  0  0  0  0  0  0  0  0  0
   52.3840   30.9260   52.1330 C   0  0  0  0  0  0  0  0  0  0  0  0
   53.1360   30.1670   53.1470 C   0  0  0  0  0  0  0  0  0  0  0  0
   53.6270   28.8510   52.8810 N   0  0  0  0  0  0  0  0  0  0  0  0
   53.3520   30.6880   54.2730 O   0  0  0  0  0  0  0  0  0  0  0  0
   52.0170   32.2140   52.2910 N   0  0  0  0  0  0  0  0  0  0  0  0
   51.3600   32.5990   51.2070 N   0  0  0  0  0  0  0  0  0  0  0  0
   50.2820   33.7320   48.9920 H   0  0  0  0  0  0  0  0  0  0  0  0
   52.0816   29.4667   50.4664 H   0  0  0  0  0  0  0  0  0  0  0  0
   54.1560   28.3330   53.6170 H   0  0  0  0  0  0  0  0  0  0  0  0
   53.4700   28.3810   51.9630 H   0  0  0  0  0  0  0  0  0  0  0  0
  1  2  1  0
  2  3  2  0
  2  4  1  0
  4  5  2  0
  5  6  1  0
  6  7  1  0
  7  8  1  0
  7  9  2  0
  6 10  2  0
 10 11  1  0
 11  4  1  0
  1 12  1  0
  5 13  1  0
  8 14  1  0
  8 15  1  0
M  CHG  2   1  -1  11  -1
M  END
>  <UniqueID>  (91) 
82

>  <SMILES>  (91) 
[NH-]C(=O)c1cc(C(N)=O)n[n-]1

>  <Energy>  (91) 
39.34552206671922

>  <Genealogy>  (91) 
[NH-]C(=O)c1cc(C(N)=O)n[n-]1 (protonated)
[NH-]C(=O)c1cc(C(N)=O)n[n-]1 (3D coordinates assigned)
[NH-]C(=O)c1cc(C(N)=O)n[n-]1 (optimized conformer: 39.34552206671922 kcal/mol)

>  <smiles>  (91) 
NC(=O)c1cc(C(N)=O)[nH]n1

>  <score_type>  (91) 
oracle

>  <origin>  (91) 
adg

>  <m_score__min__energy>  (91) 
-10.84

>  <m_primary>  (91) 
energy

$$$$
91:0
     RDKit          3D

 40 41  0  0  0  0  0  0  0  0999 V2000
   57.6460   21.1040   43.0290 C   0  0  0  0  0  0  0  0  0  0  0  0
   58.1090   21.1930   44.4250 N   0  0  0  0  0  0  0  0  0  0  0  0
   59.3150   22.0390   44.4910 C   0  0  0  0  0  0  0  0  0  0  0  0
   57.0170   21.7260   45.2800 C   0  0  0  0  0  0  0  0  0  0  0  0
   56.0640   22.6900   44.5420 C   0  0  0  0  0  0  0  0  0  0  0  0
   56.4020   24.1360   44.8020 C   0  0  0  0  0  0  0  0  0  0  0  0
   55.7390   24.8460   45.8160 C   0  0  0  0  0  0  0  0  0  0  0  0
   56.0840   26.1720   46.0910 C   0  0  0  0  0  0  0  0  0  0  0  0
   57.1060   26.8010   45.3720 C   0  0  0  0  0  0  0  0  0  0  0  0
   57.4470   28.1570   45.6890 N   0  0  0  0  0  0  0  0  0  0  0  0
   56.7600   29.3290   45.2240 C   0  0  0  0  0  0  0  0  0  0  0  0
   55.5660   29.2140   44.8390 O   0  0  0  0  0  0  0  0  0  0  0  0
   57.3950   30.6670   45.2330 C   0  0  0  0  0  0  0  0  0  0  0  0
   58.1870   31.0850   46.3190 C   0  0  0  0  0  0  0  0  0  0  0  0
   58.7870   32.3470   46.3130 C   0  0  0  0  0  0  0  0  0  0  0  0
   58.5940   33.2110   45.2320 C   0  0  0  0  0  0  0  0  0  0  0  0
   59.3490   34.7950   45.2270 Cl  0  0  0  0  0  0  0  0  0  0  0  0
   57.7930   32.8140   44.1570 C   0  0  0  0  0  0  0  0  0  0  0  0
   57.1930   31.5510   44.1580 C   0  0  0  0  0  0  0  0  0  0  0  0
   57.7500   26.1020   44.3350 C   0  0  0  0  0  0  0  0  0  0  0  0
   57.4060   24.7770   44.0590 C   0  0  0  0  0  0  0  0  0  0  0  0
   56.5659   20.8964   43.0135 H   0  0  0  0  0  0  0  0  0  0  0  0
   57.8437   22.0566   42.5157 H   0  0  0  0  0  0  0  0  0  0  0  0
   58.1828   20.2926   42.5157 H   0  0  0  0  0  0  0  0  0  0  0  0
   58.3620   20.2240   44.7310 H   0  0  0  0  0  0  0  0  0  0  0  0
   59.5769   22.2227   45.5435 H   0  0  0  0  0  0  0  0  0  0  0  0
   60.1497   21.5274   43.9894 H   0  0  0  0  0  0  0  0  0  0  0  0
   59.1181   22.9980   43.9894 H   0  0  0  0  0  0  0  0  0  0  0  0
   56.4277   20.8780   45.6591 H   0  0  0  0  0  0  0  0  0  0  0  0
   57.4934   22.3013   46.0876 H   0  0  0  0  0  0  0  0  0  0  0  0
   56.1342   22.4988   43.4610 H   0  0  0  0  0  0  0  0  0  0  0  0
   55.0453   22.5092   44.9156 H   0  0  0  0  0  0  0  0  0  0  0  0
   54.9439   24.3558   46.3969 H   0  0  0  0  0  0  0  0  0  0  0  0
   55.5488   26.7244   46.8774 H   0  0  0  0  0  0  0  0  0  0  0  0
   58.3346   30.4139   47.1780 H   0  0  0  0  0  0  0  0  0  0  0  0
   59.4128   32.6610   47.1614 H   0  0  0  0  0  0  0  0  0  0  0  0
   57.6345   33.4964   43.3090 H   0  0  0  0  0  0  0  0  0  0  0  0
   56.5588   31.2468   43.3123 H   0  0  0  0  0  0  0  0  0  0  0  0
   58.5280   26.6013   43.7388 H   0  0  0  0  0  0  0  0  0  0  0  0
   57.9242   24.2329   43.2556 H   0  0  0  0  0  0  0  0  0  0  0  0
  1  2  1  0
  2  3  1  0
  2  4  1  0
  4  5  1  0
  5  6  1  0
  6  7  2  0
  7  8  1  0
  8  9  2  0
  9 10  1  0
 10 11  1  0
 11 12  2  0
 11 13  1  0
 13 14  2  0
 14 15  1  0
 15 16  2  0
 16 17  1  0
 16 18  1  0
 18 19  2  0
  9 20  1  0
 20 21  2  0
 21  6  1  0
 19 13  1  0
  1 22  1  0
  1 23  1  0
  1 24  1  0
  2 25  1  0
  3 26  1  0
  3 27  1  0
  3 28  1  0
  4 29  1  0
  4 30  1  0
  5 31  1  0
  5 32  1  0
  7 33  1  0
  8 34  1  0
 14 35  1  0
 15 36  1  0
 18 37  1  0
 19 38  1  0
 20 39  1  0
 21 40  1  0
M  CHG  2   2   1  10  -1
M  END
>  <UniqueID>  (92) 
83

>  <SMILES>  (92) 
C[NH+](C)CCc1ccc([N-]C(=O)c2ccc(Cl)cc2)cc1

>  <Energy>  (92) 
45.60688951263709

>  <Genealogy>  (92) 
C[NH+](C)CCc1ccc([N-]C(=O)c2ccc(Cl)cc2)cc1 (protonated)
C[NH+](C)CCc1ccc([N-]C(=O)c2ccc(Cl)cc2)cc1 (3D coordinates assigned)
C[NH+](C)CCc1ccc([N-]C(=O)c2ccc(Cl)cc2)cc1 (optimized conformer: 45.60688951263709 kcal/mol)

>  <smiles>  (92) 
CN(C)CCc1ccc(NC(=O)c2ccc(Cl)cc2)cc1

>  <score_type>  (92) 
oracle

>  <origin>  (92) 
adg

>  <m_score__min__energy>  (92) 
-7.54

>  <m_primary>  (92) 
energy

$$$$
92:0
     RDKit          3D

 48 51  0  0  0  0  0  0  0  0999 V2000
   54.5750   30.3790   44.9340 H   0  0  0  0  0  0  0  0  0  0  0  0
   55.5320   30.4920   44.5300 N   0  0  0  0  0  0  0  0  0  0  0  0
   56.5200   29.7550   44.9170 C   0  0  0  0  0  0  0  0  0  0  0  0
   56.4160   28.3900   44.8760 N   0  0  0  0  0  0  0  0  0  0  0  0
   57.4760   27.6580   45.2930 C   0  0  0  0  0  0  0  0  0  0  0  0
   58.6240   28.2210   45.7330 C   0  0  0  0  0  0  0  0  0  0  0  0
   59.5280   27.2730   46.0450 N   0  0  0  0  0  0  0  0  0  0  0  0
   58.8570   26.1190   45.7730 C   0  0  0  0  0  0  0  0  0  0  0  0
   59.2962   25.1194   45.9068 H   0  0  0  0  0  0  0  0  0  0  0  0
   57.5940   26.3230   45.3210 N   0  0  0  0  0  0  0  0  0  0  0  0
   56.6420   25.3090   44.8640 C   0  0  1  0  0  0  0  0  0  0  0  0
   56.1445   25.6947   43.9619 H   0  0  0  0  0  0  0  0  0  0  0  0
   57.3190   24.1070   44.5520 O   0  0  0  0  0  0  0  0  0  0  0  0
   56.7120   23.0670   45.2870 C   0  0  2  0  0  0  0  0  0  0  0  0
   57.3017   22.8093   46.1791 H   0  0  0  0  0  0  0  0  0  0  0  0
   56.6650   21.7840   44.4490 C   0  0  0  0  0  0  0  0  0  0  0  0
   57.6911   21.4656   44.2129 H   0  0  0  0  0  0  0  0  0  0  0  0
   56.1522   20.9976   45.0222 H   0  0  0  0  0  0  0  0  0  0  0  0
   55.9650   22.0140   43.2570 O   0  0  0  0  0  0  0  0  0  0  0  0
   55.7760   22.9870   43.2320 H   0  0  0  0  0  0  0  0  0  0  0  0
   55.3440   23.5500   45.7790 C   0  0  2  0  0  0  0  0  0  0  0  0
   55.0096   23.0532   46.7017 H   0  0  0  0  0  0  0  0  0  0  0  0
   54.3060   23.2690   44.8650 O   0  0  0  0  0  0  0  0  0  0  0  0
   54.6020   23.5500   43.9580 H   0  0  0  0  0  0  0  0  0  0  0  0
   55.5820   25.0340   45.9290 C   0  0  2  0  0  0  0  0  0  0  0  0
   55.8890   25.3139   46.9475 H   0  0  0  0  0  0  0  0  0  0  0  0
   54.4220   25.7890   45.6960 O   0  0  0  0  0  0  0  0  0  0  0  0
   53.9060   25.3040   45.0000 H   0  0  0  0  0  0  0  0  0  0  0  0
   58.7410   29.6040   45.7860 C   0  0  0  0  0  0  0  0  0  0  0  0
   60.2400   30.4060   46.3600 S   0  0  0  0  0  0  0  0  0  0  0  0
   59.6580   30.6250   48.0800 C   0  0  0  0  0  0  0  0  0  0  0  0
   59.3125   29.6557   48.4687 H   0  0  0  0  0  0  0  0  0  0  0  0
   60.4924   31.0085   48.6855 H   0  0  0  0  0  0  0  0  0  0  0  0
   58.5060   31.6300   48.1470 C   0  0  0  0  0  0  0  0  0  0  0  0
   57.5741   31.1333   47.8392 H   0  0  0  0  0  0  0  0  0  0  0  0
   58.4161   31.9994   49.1792 H   0  0  0  0  0  0  0  0  0  0  0  0
   58.7700   32.7970   47.2340 C   0  0  0  0  0  0  0  0  0  0  0  0
   59.9710   33.5200   47.3340 C   0  0  0  0  0  0  0  0  0  0  0  0
   60.7120   33.2477   48.1000 H   0  0  0  0  0  0  0  0  0  0  0  0
   60.2280   34.5840   46.4640 C   0  0  0  0  0  0  0  0  0  0  0  0
   61.1663   35.1514   46.5515 H   0  0  0  0  0  0  0  0  0  0  0  0
   59.2930   34.9270   45.4830 C   0  0  0  0  0  0  0  0  0  0  0  0
   59.4949   35.7660   44.8009 H   0  0  0  0  0  0  0  0  0  0  0  0
   58.1020   34.2050   45.3680 C   0  0  0  0  0  0  0  0  0  0  0  0
   57.3684   34.4747   44.5940 H   0  0  0  0  0  0  0  0  0  0  0  0
   57.8420   33.1400   46.2360 C   0  0  0  0  0  0  0  0  0  0  0  0
   56.9074   32.5684   46.1372 H   0  0  0  0  0  0  0  0  0  0  0  0
   57.6740   30.3460   45.3660 N   0  0  0  0  0  0  0  0  0  0  0  0
  1  2  1  0
  2  3  2  0
  3  4  1  0
  4  5  2  0
  5  6  1  0
  6  7  1  0
  7  8  2  0
  8  9  1  0
  8 10  1  0
 10 11  1  0
 11 12  1  6
 11 13  1  0
 13 14  1  0
 14 15  1  1
 14 16  1  0
 16 17  1  0
 16 18  1  0
 16 19  1  0
 19 20  1  0
 14 21  1  0
 21 22  1  1
 21 23  1  0
 23 24  1  0
 21 25  1  0
 25 26  1  1
 25 27  1  0
 27 28  1  0
  6 29  2  0
 29 30  1  0
 30 31  1  0
 31 32  1  0
 31 33  1  0
 31 34  1  0
 34 35  1  0
 34 36  1  0
 34 37  1  0
 37 38  2  0
 38 39  1  0
 38 40  1  0
 40 41  1  0
 40 42  2  0
 42 43  1  0
 42 44  1  0
 44 45  1  0
 44 46  2  0
 46 47  1  0
 29 48  1  0
 48  3  1  0
 10  5  1  0
 25 11  1  0
 46 37  1  0
M  CHG  1  48  -1
M  END
>  <UniqueID>  (93) 
84

>  <SMILES>  (93) 
[H]/N=c1\nc2c(ncn2[C@H]2O[C@H](CO)C(O)C2O)c(SCCc2ccccc2)[n-]1

>  <Energy>  (93) 
87.3159576449997

>  <Genealogy>  (93) 
N=c1nc2c(ncn2C2OC(CO)C(O)C2O)c(SCCc2ccccc2)[n-]1 (protonated)
N=c1nc2c(ncn2[C@H]2O[C@H](CO)C(O)C2O)c(SCCc2ccccc2)[n-]1 (chirality)
[H]/N=c1\nc2c(ncn2[C@H]2O[C@H](CO)C(O)C2O)c(SCCc2ccccc2)[n-]1 (cis-trans isomerization)
[H]/N=c1\nc2c(ncn2[C@H]2O[C@H](CO)C(O)C2O)c(SCCc2ccccc2)[n-]1 (3D coordinates assigned)
[H]/N=c1\nc2c(ncn2[C@H]2O[C@H](CO)C(O)C2O)c(SCCc2ccccc2)[n-]1 (nonaromatic ring conformer: 87.3159576449997 kcal/mol)

>  <smiles>  (93) 
N=c1nc2c(ncn2C2OC(CO)C(O)C2O)c(SCCc2ccccc2)[nH]1

>  <score_type>  (93) 
oracle

>  <origin>  (93) 
adg

>  <m_score__min__energy>  (93) 
-10.01

>  <m_primary>  (93) 
energy

$$$$
93:0
     RDKit          3D

 27 29  0  0  0  0  0  0  0  0999 V2000
   59.8880   34.0050   49.6520 C   0  0  0  0  0  0  0  0  0  0  0  0
   60.1910   34.5920   48.3900 O   0  0  0  0  0  0  0  0  0  0  0  0
   59.6510   34.1650   47.1680 C   0  0  0  0  0  0  0  0  0  0  0  0
   59.7560   34.9270   45.9900 C   0  0  0  0  0  0  0  0  0  0  0  0
   59.2030   34.4610   44.7960 C   0  0  0  0  0  0  0  0  0  0  0  0
   58.5360   33.2310   44.7550 C   0  0  0  0  0  0  0  0  0  0  0  0
   58.4230   32.4520   45.9410 C   0  0  0  0  0  0  0  0  0  0  0  0
   58.9850   32.9340   47.1320 C   0  0  0  0  0  0  0  0  0  0  0  0
   57.7110   31.1050   45.9640 C   0  0  0  0  0  0  0  0  0  0  0  0
   57.1690   30.7370   44.6170 C   0  0  0  0  0  0  0  0  0  0  0  0
   57.3000   31.5130   43.5070 C   0  0  0  0  0  0  0  0  0  0  0  0
   56.6860   30.8650   42.4580 C   0  0  0  0  0  0  0  0  0  0  0  0
   56.1940   29.7270   42.9090 O   0  0  0  0  0  0  0  0  0  0  0  0
   56.4690   29.6270   44.1950 C   0  0  0  0  0  0  0  0  0  0  0  0
   56.0950   28.5450   44.9850 O   0  0  0  0  0  0  0  0  0  0  0  0
   57.9710   32.7670   43.5150 N   0  0  0  0  0  0  0  0  0  0  0  0
   60.2315   34.6704   50.4578 H   0  0  0  0  0  0  0  0  0  0  0  0
   58.8012   33.8576   49.7364 H   0  0  0  0  0  0  0  0  0  0  0  0
   60.3974   33.0337   49.7364 H   0  0  0  0  0  0  0  0  0  0  0  0
   60.2769   35.8956   46.0100 H   0  0  0  0  0  0  0  0  0  0  0  0
   59.2920   35.0647   43.8808 H   0  0  0  0  0  0  0  0  0  0  0  0
   58.9013   32.3361   48.0515 H   0  0  0  0  0  0  0  0  0  0  0  0
   58.4242   30.3311   46.2840 H   0  0  0  0  0  0  0  0  0  0  0  0
   56.8653   31.1782   46.6635 H   0  0  0  0  0  0  0  0  0  0  0  0
   56.6177   31.2326   41.4235 H   0  0  0  0  0  0  0  0  0  0  0  0
   55.1450   28.1950   44.9750 H   0  0  0  0  0  0  0  0  0  0  0  0
   58.0480   33.3300   42.6380 H   0  0  0  0  0  0  0  0  0  0  0  0
  1  2  1  0
  2  3  1  0
  3  4  2  0
  4  5  1  0
  5  6  2  0
  6  7  1  0
  7  8  2  0
  7  9  1  0
  9 10  1  0
 10 11  1  0
 11 12  2  0
 12 13  1  0
 13 14  1  0
 14 15  1  0
 11 16  1  0
  8  3  1  0
 14 10  2  0
 16  6  1  0
  1 17  1  0
  1 18  1  0
  1 19  1  0
  4 20  1  0
  5 21  1  0
  8 22  1  0
  9 23  1  0
  9 24  1  0
 12 25  1  0
 15 26  1  0
 16 27  1  0
M  END
>  <UniqueID>  (94) 
85

>  <SMILES>  (94) 
COc1ccc2c(c1)Cc1c(coc1O)N2

>  <Energy>  (94) 
61.64216019671949

>  <Genealogy>  (94) 
COc1ccc2c(c1)Cc1c(coc1O)N2 (3D coordinates assigned)
COc1ccc2c(c1)Cc1c(coc1O)N2 (nonaromatic ring conformer: 61.64216019671949 kcal/mol)

>  <smiles>  (94) 
COc1ccc2c(c1)Cc1c(coc1O)N2

>  <score_type>  (94) 
oracle

>  <origin>  (94) 
adg

>  <m_score__min__energy>  (94) 
-6.0300000000000002

>  <m_primary>  (94) 
energy

$$$$
94:0
     RDKit          3D

 51 53  0  0  0  0  0  0  0  0999 V2000
   67.7920   33.5000   50.4380 C   0  0  0  0  0  0  0  0  0  0  0  0
   67.1250   32.1870   50.8260 C   0  0  0  0  0  0  0  0  0  0  0  0
   65.7320   32.3790   51.0680 O   0  0  0  0  0  0  0  0  0  0  0  0
   64.7110   32.2870   50.1050 C   0  0  0  0  0  0  0  0  0  0  0  0
   64.6960   33.0850   48.9450 C   0  0  0  0  0  0  0  0  0  0  0  0
   63.6570   32.9670   48.0200 C   0  0  0  0  0  0  0  0  0  0  0  0
   62.6080   32.0590   48.2340 C   0  0  0  0  0  0  0  0  0  0  0  0
   61.5040   31.9530   47.2490 C   0  0  0  0  0  0  0  0  0  0  0  0
   61.2380   30.8320   46.7390 O   0  0  0  0  0  0  0  0  0  0  0  0
   60.7780   33.1210   46.8260 N   0  0  0  0  0  0  0  0  0  0  0  0
   59.5100   33.0690   46.1480 C   0  0  0  0  0  0  0  0  0  0  0  0
   58.7530   34.2430   46.0130 C   0  0  0  0  0  0  0  0  0  0  0  0
   57.5180   34.2170   45.3600 C   0  0  0  0  0  0  0  0  0  0  0  0
   57.0220   33.0180   44.8430 C   0  0  0  0  0  0  0  0  0  0  0  0
   57.7540   31.8320   44.9950 C   0  0  0  0  0  0  0  0  0  0  0  0
   57.1360   30.3050   44.3710 S   0  0  0  0  0  0  0  0  0  0  0  0
   56.7750   30.4830   42.9250 O   0  0  0  0  0  0  0  0  0  0  0  0
   55.9040   29.8740   45.1150 O   0  0  0  0  0  0  0  0  0  0  0  0
   58.3530   29.0780   44.5010 N   0  0  0  0  0  0  0  0  0  0  0  0
   58.9330   28.6060   45.7250 C   0  0  0  0  0  0  0  0  0  0  0  0
   59.7840   27.4870   45.7680 C   0  0  0  0  0  0  0  0  0  0  0  0
   60.3390   27.0690   46.9800 C   0  0  0  0  0  0  0  0  0  0  0  0
   60.0530   27.7580   48.1620 C   0  0  0  0  0  0  0  0  0  0  0  0
   60.7720   27.2010   49.6680 Cl  0  0  0  0  0  0  0  0  0  0  0  0
   59.2010   28.8750   48.1290 C   0  0  0  0  0  0  0  0  0  0  0  0
   58.8140   29.7680   49.5920 Cl  0  0  0  0  0  0  0  0  0  0  0  0
   58.6480   29.2920   46.9120 C   0  0  0  0  0  0  0  0  0  0  0  0
   58.9890   31.8570   45.6570 C   0  0  0  0  0  0  0  0  0  0  0  0
   62.6290   31.2550   49.3860 C   0  0  0  0  0  0  0  0  0  0  0  0
   63.6740   31.3680   50.3260 C   0  0  0  0  0  0  0  0  0  0  0  0
   63.7210   30.5820   51.4880 O   0  0  0  0  0  0  0  0  0  0  0  0
   64.6960   29.5770   51.7450 C   0  0  0  0  0  0  0  0  0  0  0  0
   68.0723   34.0517   51.3475 H   0  0  0  0  0  0  0  0  0  0  0  0
   68.6935   33.2916   49.8431 H   0  0  0  0  0  0  0  0  0  0  0  0
   67.0920   34.1051   49.8431 H   0  0  0  0  0  0  0  0  0  0  0  0
   67.2526   31.4622   50.0084 H   0  0  0  0  0  0  0  0  0  0  0  0
   67.5946   31.8114   51.7471 H   0  0  0  0  0  0  0  0  0  0  0  0
   65.5077   33.8056   48.7666 H   0  0  0  0  0  0  0  0  0  0  0  0
   63.6604   33.5917   47.1146 H   0  0  0  0  0  0  0  0  0  0  0  0
   61.2610   34.0440   46.8860 H   0  0  0  0  0  0  0  0  0  0  0  0
   59.1343   35.1895   46.4238 H   0  0  0  0  0  0  0  0  0  0  0  0
   56.9347   35.1434   45.2528 H   0  0  0  0  0  0  0  0  0  0  0  0
   56.0564   33.0043   44.3162 H   0  0  0  0  0  0  0  0  0  0  0  0
   60.0137   26.9382   44.8427 H   0  0  0  0  0  0  0  0  0  0  0  0
   61.0043   26.1934   47.0042 H   0  0  0  0  0  0  0  0  0  0  0  0
   57.9827   30.1677   46.8882 H   0  0  0  0  0  0  0  0  0  0  0  0
   59.5548   30.9236   45.7938 H   0  0  0  0  0  0  0  0  0  0  0  0
   61.8207   30.5287   49.5567 H   0  0  0  0  0  0  0  0  0  0  0  0
   64.8168   29.4525   52.8312 H   0  0  0  0  0  0  0  0  0  0  0  0
   64.3677   28.6256   51.3012 H   0  0  0  0  0  0  0  0  0  0  0  0
   65.6569   29.8764   51.3012 H   0  0  0  0  0  0  0  0  0  0  0  0
  1  2  1  0
  2  3  1  0
  3  4  1  0
  4  5  2  0
  5  6  1  0
  6  7  2  0
  7  8  1  0
  8  9  2  0
  8 10  1  0
 10 11  1  0
 11 12  2  0
 12 13  1  0
 13 14  2  0
 14 15  1  0
 15 16  1  0
 16 17  2  0
 16 18  2  0
 16 19  1  0
 19 20  1  0
 20 21  2  0
 21 22  1  0
 22 23  2  0
 23 24  1  0
 23 25  1  0
 25 26  1  0
 25 27  2  0
 15 28  2  0
  7 29  1  0
 29 30  2  0
 30 31  1  0
 31 32  1  0
 30  4  1  0
 28 11  1  0
 27 20  1  0
  1 33  1  0
  1 34  1  0
  1 35  1  0
  2 36  1  0
  2 37  1  0
  5 38  1  0
  6 39  1  0
 10 40  1  0
 12 41  1  0
 13 42  1  0
 14 43  1  0
 21 44  1  0
 22 45  1  0
 27 46  1  0
 28 47  1  0
 29 48  1  0
 32 49  1  0
 32 50  1  0
 32 51  1  0
M  CHG  1  19  -1
M  END
>  <UniqueID>  (95) 
86

>  <SMILES>  (95) 
CCOc1ccc(C(=O)Nc2cccc(S(=O)(=O)[N-]c3ccc(Cl)c(Cl)c3)c2)cc1OC

>  <Energy>  (95) 
60.84013647999715

>  <Genealogy>  (95) 
CCOc1ccc(C(=O)Nc2cccc(S(=O)(=O)[N-]c3ccc(Cl)c(Cl)c3)c2)cc1OC (protonated)
CCOc1ccc(C(=O)Nc2cccc(S(=O)(=O)[N-]c3ccc(Cl)c(Cl)c3)c2)cc1OC (3D coordinates assigned)
CCOc1ccc(C(=O)Nc2cccc(S(=O)(=O)[N-]c3ccc(Cl)c(Cl)c3)c2)cc1OC (optimized conformer: 60.84013647999715 kcal/mol)

>  <smiles>  (95) 
CCOc1ccc(C(=O)Nc2cccc(S(=O)(=O)Nc3ccc(Cl)c(Cl)c3)c2)cc1OC

>  <score_type>  (95) 
oracle

>  <origin>  (95) 
adg

>  <m_score__min__energy>  (95) 
-10.199999999999999

>  <m_primary>  (95) 
energy

$$$$
95:0
     RDKit          3D

 41 43  0  0  0  0  0  0  0  0999 V2000
   66.8860   32.9270   50.1240 C   0  0  0  0  0  0  0  0  0  0  0  0
   65.5640   32.6320   50.5600 O   0  0  0  0  0  0  0  0  0  0  0  0
   64.4040   32.9260   49.8280 C   0  0  0  0  0  0  0  0  0  0  0  0
   63.4930   33.8420   50.3640 C   0  0  0  0  0  0  0  0  0  0  0  0
   62.3230   34.1710   49.6730 C   0  0  0  0  0  0  0  0  0  0  0  0
   62.0440   33.5830   48.4280 C   0  0  0  0  0  0  0  0  0  0  0  0
   60.8070   33.9260   47.6960 C   0  0  0  0  0  0  0  0  0  0  0  0
   59.5690   33.8440   48.2280 N   0  0  0  0  0  0  0  0  0  0  0  0
   58.7700   34.2180   47.2770 O   0  0  0  0  0  0  0  0  0  0  0  0
   59.4670   34.5200   46.2100 C   0  0  0  0  0  0  0  0  0  0  0  0
   58.8730   34.9740   44.9060 C   0  0  0  0  0  0  0  0  0  0  0  0
   57.7350   34.1390   44.4500 N   0  0  0  0  0  0  0  0  0  0  0  0
   56.7190   33.9870   45.5030 C   0  0  0  0  0  0  0  0  0  0  0  0
   58.1430   32.8170   43.9270 C   0  0  0  0  0  0  0  0  0  0  0  0
   58.0690   31.7680   44.9940 C   0  0  0  0  0  0  0  0  0  0  0  0
   58.8290   31.7510   46.1020 N   0  0  0  0  0  0  0  0  0  0  0  0
   58.4070   30.6370   46.7270 C   0  0  0  0  0  0  0  0  0  0  0  0
   58.9920   30.1180   47.9970 C   0  0  0  0  0  0  0  0  0  0  0  0
   57.4480   30.0000   46.0240 N   0  0  0  0  0  0  0  0  0  0  0  0
   57.2630   30.7340   44.9650 O   0  0  0  0  0  0  0  0  0  0  0  0
   60.7870   34.3530   46.4150 N   0  0  0  0  0  0  0  0  0  0  0  0
   62.9580   32.6620   47.8890 C   0  0  0  0  0  0  0  0  0  0  0  0
   64.1280   32.3350   48.5810 C   0  0  0  0  0  0  0  0  0  0  0  0
   67.5368   33.0722   50.9989 H   0  0  0  0  0  0  0  0  0  0  0  0
   67.2672   32.0918   49.5180 H   0  0  0  0  0  0  0  0  0  0  0  0
   66.8760   33.8450   49.5180 H   0  0  0  0  0  0  0  0  0  0  0  0
   63.6991   34.3081   51.3388 H   0  0  0  0  0  0  0  0  0  0  0  0
   61.6169   34.8944   50.1066 H   0  0  0  0  0  0  0  0  0  0  0  0
   58.5191   36.0085   45.0264 H   0  0  0  0  0  0  0  0  0  0  0  0
   59.6621   34.8881   44.1444 H   0  0  0  0  0  0  0  0  0  0  0  0
   57.1999   34.0590   46.4897 H   0  0  0  0  0  0  0  0  0  0  0  0
   55.9658   34.7825   45.4033 H   0  0  0  0  0  0  0  0  0  0  0  0
   56.2316   33.0059   45.4033 H   0  0  0  0  0  0  0  0  0  0  0  0
   57.4743   32.5360   43.1000 H   0  0  0  0  0  0  0  0  0  0  0  0
   59.1835   32.8860   43.5768 H   0  0  0  0  0  0  0  0  0  0  0  0
   59.5680   32.4260   46.3980 H   0  0  0  0  0  0  0  0  0  0  0  0
   58.4752   30.5765   48.8530 H   0  0  0  0  0  0  0  0  0  0  0  0
   58.8701   29.0255   48.0373 H   0  0  0  0  0  0  0  0  0  0  0  0
   60.0622   30.3692   48.0373 H   0  0  0  0  0  0  0  0  0  0  0  0
   62.7514   32.1946   46.9149 H   0  0  0  0  0  0  0  0  0  0  0  0
   64.8360   31.6125   48.1488 H   0  0  0  0  0  0  0  0  0  0  0  0
  1  2  1  0
  2  3  1  0
  3  4  2  0
  4  5  1  0
  5  6  2  0
  6  7  1  0
  7  8  2  0
  8  9  1  0
  9 10  1  0
 10 11  1  0
 11 12  1  0
 12 13  1  0
 12 14  1  0
 14 15  1  0
 15 16  2  0
 16 17  1  0
 17 18  1  0
 17 19  2  0
 19 20  1  0
 10 21  2  0
  6 22  1  0
 22 23  2  0
 23  3  1  0
 21  7  1  0
 20 15  1  0
  1 24  1  0
  1 25  1  0
  1 26  1  0
  4 27  1  0
  5 28  1  0
 11 29  1  0
 11 30  1  0
 13 31  1  0
 13 32  1  0
 13 33  1  0
 14 34  1  0
 14 35  1  0
 16 36  1  0
 18 37  1  0
 18 38  1  0
 18 39  1  0
 22 40  1  0
 23 41  1  0
M  CHG  1  16   1
M  END
>  <UniqueID>  (96) 
87

>  <SMILES>  (96) 
COc1ccc(-c2noc(CN(C)Cc3[nH+]c(C)no3)n2)cc1

>  <Energy>  (96) 
109.61390433136089

>  <Genealogy>  (96) 
COc1ccc(-c2noc(CN(C)Cc3[nH+]c(C)no3)n2)cc1 (protonated)
COc1ccc(-c2noc(CN(C)Cc3[nH+]c(C)no3)n2)cc1 (3D coordinates assigned)
COc1ccc(-c2noc(CN(C)Cc3[nH+]c(C)no3)n2)cc1 (optimized conformer: 109.61390433136089 kcal/mol)

>  <smiles>  (96) 
COc1ccc(-c2noc(CN(C)Cc3nc(C)no3)n2)cc1

>  <score_type>  (96) 
oracle

>  <origin>  (96) 
adg

>  <m_score__min__energy>  (96) 
-5.04

>  <m_primary>  (96) 
energy

$$$$
