0:0
     RDKit          3D

 47 49  0  0  0  0  0  0  0  0999 V2000
   57.2150   32.7400   40.3360 N   0  0  0  0  0  0  0  0  0  0  0  0
   57.3490   32.2800   41.3890 C   0  0  0  0  0  0  0  0  0  0  0  0
   57.5160   31.7080   42.6990 C   0  0  0  0  0  0  0  0  0  0  0  0
   57.0210   30.4270   42.9760 C   0  0  0  0  0  0  0  0  0  0  0  0
   57.1830   29.8720   44.2490 C   0  0  0  0  0  0  0  0  0  0  0  0
   57.8330   30.6000   45.2620 C   0  0  0  0  0  0  0  0  0  0  0  0
   58.0320   30.0700   46.5450 O   0  0  0  0  0  0  0  0  0  0  0  0
   59.1220   30.3530   47.3820 C   0  0  0  0  0  0  0  0  0  0  0  0
   58.8830   30.5960   48.7390 C   0  0  0  0  0  0  0  0  0  0  0  0
   59.9440   30.8660   49.6070 C   0  0  0  0  0  0  0  0  0  0  0  0
   61.2630   30.8880   49.1290 C   0  0  0  0  0  0  0  0  0  0  0  0
   62.4170   31.1380   50.0710 C   0  0  0  0  0  0  0  0  0  0  0  0
   63.4060   32.0800   49.4920 N   0  0  1  0  0  0  0  0  0  0  0  0
   62.9540   33.4870   49.6060 C   0  0  0  0  0  0  0  0  0  0  0  0
   61.8820   33.8200   48.5890 C   0  0  0  0  0  0  0  0  0  0  0  0
   60.6110   34.2280   49.0270 C   0  0  0  0  0  0  0  0  0  0  0  0
   59.6170   34.5590   48.1020 C   0  0  0  0  0  0  0  0  0  0  0  0
   59.8830   34.4880   46.7330 C   0  0  0  0  0  0  0  0  0  0  0  0
   58.9180   34.8110   45.8370 F   0  0  0  0  0  0  0  0  0  0  0  0
   61.1440   34.0850   46.2860 C   0  0  0  0  0  0  0  0  0  0  0  0
   62.1440   33.7510   47.2060 C   0  0  0  0  0  0  0  0  0  0  0  0
   63.3630   33.3720   46.7480 F   0  0  0  0  0  0  0  0  0  0  0  0
   64.6980   31.9310   50.1350 C   0  0  0  0  0  0  0  0  0  0  0  0
   64.9800   30.8070   50.9770 N   0  0  0  0  0  0  0  0  0  0  0  0
   65.8720   33.0520   49.8890 S   0  0  0  0  0  0  0  0  0  0  0  0
   61.5080   30.6170   47.7740 C   0  0  0  0  0  0  0  0  0  0  0  0
   60.4450   30.3490   46.9050 C   0  0  0  0  0  0  0  0  0  0  0  0
   58.3430   31.8720   44.9730 C   0  0  0  0  0  0  0  0  0  0  0  0
   58.1800   32.4280   43.7020 C   0  0  0  0  0  0  0  0  0  0  0  0
   56.5038   29.8567   42.1903 H   0  0  0  0  0  0  0  0  0  0  0  0
   56.8007   28.8622   44.4592 H   0  0  0  0  0  0  0  0  0  0  0  0
   57.8532   30.5743   49.1249 H   0  0  0  0  0  0  0  0  0  0  0  0
   59.7442   31.0624   50.6707 H   0  0  0  0  0  0  0  0  0  0  0  0
   62.0266   31.5627   51.0076 H   0  0  0  0  0  0  0  0  0  0  0  0
   62.9239   30.1789   50.2531 H   0  0  0  0  0  0  0  0  0  0  0  0
   63.5100   31.8550   48.4730 H   0  0  0  0  0  0  0  0  0  0  0  0
   62.5491   33.6498   50.6157 H   0  0  0  0  0  0  0  0  0  0  0  0
   63.8189   34.1394   49.4157 H   0  0  0  0  0  0  0  0  0  0  0  0
   60.3969   34.2873   50.1043 H   0  0  0  0  0  0  0  0  0  0  0  0
   58.6238   34.8759   48.4528 H   0  0  0  0  0  0  0  0  0  0  0  0
   61.3513   34.0301   45.2071 H   0  0  0  0  0  0  0  0  0  0  0  0
   64.2650   30.0700   51.1570 H   0  0  0  0  0  0  0  0  0  0  0  0
   65.9170   30.7030   51.4250 H   0  0  0  0  0  0  0  0  0  0  0  0
   62.5402   30.6153   47.3937 H   0  0  0  0  0  0  0  0  0  0  0  0
   60.6446   30.1344   45.8448 H   0  0  0  0  0  0  0  0  0  0  0  0
   58.8755   32.4370   45.7522 H   0  0  0  0  0  0  0  0  0  0  0  0
   58.5734   33.4327   43.4877 H   0  0  0  0  0  0  0  0  0  0  0  0
  1  2  3  0
  2  3  1  0
  3  4  2  0
  4  5  1  0
  5  6  2  0
  6  7  1  0
  7  8  1  0
  8  9  2  0
  9 10  1  0
 10 11  2  0
 11 12  1  0
 12 13  1  0
 13 14  1  0
 14 15  1  0
 15 16  2  0
 16 17  1  0
 17 18  2  0
 18 19  1  0
 18 20  1  0
 20 21  2  0
 21 22  1  0
 13 23  1  0
 23 24  1  0
 23 25  2  0
 11 26  1  0
 26 27  2  0
  6 28  1  0
 28 29  2  0
 29  3  1  0
 27  8  1  0
 21 15  1  0
  4 30  1  0
  5 31  1  0
  9 32  1  0
 10 33  1  0
 12 34  1  0
 12 35  1  0
 13 36  1  6
 14 37  1  0
 14 38  1  0
 16 39  1  0
 17 40  1  0
 20 41  1  0
 24 42  1  0
 24 43  1  0
 26 44  1  0
 27 45  1  0
 28 46  1  0
 29 47  1  0
M  CHG  1  13   1
M  END
>  <UniqueID>  (1) 
1

>  <SMILES>  (1) 
N#Cc1ccc(Oc2ccc(C[N@@H+](Cc3ccc(F)cc3F)C(N)=S)cc2)cc1

>  <Energy>  (1) 
57.16687705388658

>  <Genealogy>  (1) 
N#Cc1ccc(Oc2ccc(C[NH+](Cc3ccc(F)cc3F)C(N)=S)cc2)cc1 (protonated)
N#Cc1ccc(Oc2ccc(C[N@@H+](Cc3ccc(F)cc3F)C(N)=S)cc2)cc1 (chirality)
N#Cc1ccc(Oc2ccc(C[N@@H+](Cc3ccc(F)cc3F)C(N)=S)cc2)cc1 (3D coordinates assigned)
N#Cc1ccc(Oc2ccc(C[N@@H+](Cc3ccc(F)cc3F)C(N)=S)cc2)cc1 (optimized conformer: 57.16687705388658 kcal/mol)

>  <smiles>  (1) 
N#Cc1ccc(Oc2ccc(CN(Cc3ccc(F)cc3F)C(N)=S)cc2)cc1

>  <score_type>  (1) 
oracle

>  <origin>  (1) 
adg

>  <m_score__min__energy>  (1) 
-6.9400000000000004

>  <m_primary>  (1) 
energy

$$$$
1:0
     RDKit          3D

 28 29  0  0  0  0  0  0  0  0999 V2000
   55.1470   28.1750   44.9680 H   0  0  0  0  0  0  0  0  0  0  0  0
   55.4300   29.1450   44.8890 O   0  0  0  0  0  0  0  0  0  0  0  0
   56.5070   29.6630   45.5810 N   0  0  0  0  0  0  0  0  0  0  0  0
   57.6130   30.0680   45.0260 C   0  0  0  0  0  0  0  0  0  0  0  0
   58.1240   31.4380   45.2380 C   0  0  0  0  0  0  0  0  0  0  0  0
   58.5160   31.8320   46.5270 C   0  0  0  0  0  0  0  0  0  0  0  0
   58.4472   31.1190   47.3618 H   0  0  0  0  0  0  0  0  0  0  0  0
   58.9930   33.1250   46.7550 C   0  0  0  0  0  0  0  0  0  0  0  0
   59.3053   33.4249   47.7662 H   0  0  0  0  0  0  0  0  0  0  0  0
   59.0740   34.0380   45.7000 C   0  0  0  0  0  0  0  0  0  0  0  0
   59.6730   35.6610   45.9890 Cl  0  0  0  0  0  0  0  0  0  0  0  0
   58.6720   33.6590   44.4150 C   0  0  0  0  0  0  0  0  0  0  0  0
   58.7325   34.3811   43.5874 H   0  0  0  0  0  0  0  0  0  0  0  0
   58.1930   32.3650   44.1770 C   0  0  0  0  0  0  0  0  0  0  0  0
   57.6590   31.9450   42.5540 Cl  0  0  0  0  0  0  0  0  0  0  0  0
   58.3220   29.2030   44.1220 N   0  0  0  0  0  0  0  0  0  0  0  0
   58.9900   29.6430   43.4490 H   0  0  0  0  0  0  0  0  0  0  0  0
   58.1170   27.7830   44.0320 C   0  0  0  0  0  0  0  0  0  0  0  0
   57.9910   27.1370   42.7880 C   0  0  0  0  0  0  0  0  0  0  0  0
   58.0707   27.7192   41.8581 H   0  0  0  0  0  0  0  0  0  0  0  0
   57.7650   25.7590   42.7290 C   0  0  0  0  0  0  0  0  0  0  0  0
   57.6791   25.2584   41.7533 H   0  0  0  0  0  0  0  0  0  0  0  0
   57.6480   25.0160   43.9060 C   0  0  0  0  0  0  0  0  0  0  0  0
   57.4773   23.9304   43.8568 H   0  0  0  0  0  0  0  0  0  0  0  0
   57.7480   25.6530   45.1470 C   0  0  0  0  0  0  0  0  0  0  0  0
   57.5870   24.7220   46.6260 Cl  0  0  0  0  0  0  0  0  0  0  0  0
   57.9730   27.0320   45.2090 C   0  0  0  0  0  0  0  0  0  0  0  0
   58.0376   27.5315   46.1869 H   0  0  0  0  0  0  0  0  0  0  0  0
  1  2  1  0
  2  3  1  0
  3  4  2  0
  4  5  1  0
  5  6  2  0
  6  7  1  0
  6  8  1  0
  8  9  1  0
  8 10  2  0
 10 11  1  0
 10 12  1  0
 12 13  1  0
 12 14  2  0
 14 15  1  0
  4 16  1  0
 16 17  1  0
 16 18  1  0
 18 19  2  0
 19 20  1  0
 19 21  1  0
 21 22  1  0
 21 23  2  0
 23 24  1  0
 23 25  1  0
 25 26  1  0
 25 27  2  0
 27 28  1  0
 14  5  1  0
 27 18  1  0
M  END
>  <UniqueID>  (2) 
2

>  <SMILES>  (2) 
O/N=C(/Nc1cccc(Cl)c1)c1ccc(Cl)cc1Cl

>  <Energy>  (2) 
41.23680586127101

>  <Genealogy>  (2) 
O/N=C(/Nc1cccc(Cl)c1)c1ccc(Cl)cc1Cl (cis-trans isomerization)
O/N=C(/Nc1cccc(Cl)c1)c1ccc(Cl)cc1Cl (3D coordinates assigned)
O/N=C(/Nc1cccc(Cl)c1)c1ccc(Cl)cc1Cl (optimized conformer: 41.23680586127101 kcal/mol)

>  <smiles>  (2) 
ON=C(Nc1cccc(Cl)c1)c1ccc(Cl)cc1Cl

>  <score_type>  (2) 
oracle

>  <origin>  (2) 
adg

>  <m_score__min__energy>  (2) 
-8.8599999999999994

>  <m_primary>  (2) 
energy

$$$$
2:0
     RDKit          3D

 49 51  0  0  0  0  0  0  0  0999 V2000
   60.1710   21.7570   44.3740 N   0  0  0  0  0  0  0  0  0  0  0  0
   58.7640   21.8210   44.6410 C   0  0  0  0  0  0  0  0  0  0  0  0
   58.0600   20.7280   44.6220 N   0  0  0  0  0  0  0  0  0  0  0  0
   58.1260   23.1320   44.9280 C   0  0  0  0  0  0  0  0  0  0  0  0
   56.7930   23.3670   44.5500 C   0  0  0  0  0  0  0  0  0  0  0  0
   56.1830   24.5960   44.8230 C   0  0  0  0  0  0  0  0  0  0  0  0
   56.9010   25.6130   45.4680 C   0  0  0  0  0  0  0  0  0  0  0  0
   56.2170   26.8920   45.8690 C   0  0  0  0  0  0  0  0  0  0  0  0
   57.0070   28.0190   45.3930 N   0  0  0  0  0  0  0  0  0  0  0  0
   56.4110   29.2380   44.9460 C   0  0  0  0  0  0  0  0  0  0  0  0
   55.1570   29.3490   44.8840 O   0  0  0  0  0  0  0  0  0  0  0  0
   57.2850   30.4160   44.6560 C   0  0  0  0  0  0  0  0  0  0  0  0
   58.6450   30.2340   45.3440 C   0  0  0  0  0  0  0  0  0  0  0  0
   58.7030   30.8810   46.7350 C   0  0  0  0  0  0  0  0  0  0  0  0
   59.3660   32.1980   46.6810 N   0  0  0  0  0  0  0  0  0  0  0  0
   58.5670   33.3590   46.3650 C   0  0  0  0  0  0  0  0  0  0  0  0
   57.3620   33.2370   46.0160 O   0  0  0  0  0  0  0  0  0  0  0  0
   59.1450   34.7320   46.5150 C   0  0  0  0  0  0  0  0  0  0  0  0
   60.5470   34.7200   46.2690 O   0  0  0  0  0  0  0  0  0  0  0  0
   61.3600   33.6500   46.6530 C   0  0  0  0  0  0  0  0  0  0  0  0
   62.7390   33.8490   46.7740 C   0  0  0  0  0  0  0  0  0  0  0  0
   63.5640   32.8040   47.1890 C   0  0  0  0  0  0  0  0  0  0  0  0
   63.0140   31.5570   47.4860 C   0  0  0  0  0  0  0  0  0  0  0  0
   61.6390   31.3420   47.3470 C   0  0  0  0  0  0  0  0  0  0  0  0
   60.7910   32.3830   46.9070 C   0  0  0  0  0  0  0  0  0  0  0  0
   58.2300   25.3810   45.8500 C   0  0  0  0  0  0  0  0  0  0  0  0
   58.8400   24.1540   45.5770 C   0  0  0  0  0  0  0  0  0  0  0  0
   60.6260   20.8510   44.1260 H   0  0  0  0  0  0  0  0  0  0  0  0
   60.7780   22.6010   44.4740 H   0  0  0  0  0  0  0  0  0  0  0  0
   58.1480   20.0230   45.3870 H   0  0  0  0  0  0  0  0  0  0  0  0
   57.4080   20.5070   43.8370 H   0  0  0  0  0  0  0  0  0  0  0  0
   56.2247   22.5782   44.0353 H   0  0  0  0  0  0  0  0  0  0  0  0
   55.1362   24.7651   44.5305 H   0  0  0  0  0  0  0  0  0  0  0  0
   55.2129   26.9297   45.4214 H   0  0  0  0  0  0  0  0  0  0  0  0
   56.1248   26.9377   46.9642 H   0  0  0  0  0  0  0  0  0  0  0  0
   57.4337   30.5022   43.5695 H   0  0  0  0  0  0  0  0  0  0  0  0
   56.8037   31.3288   45.0369 H   0  0  0  0  0  0  0  0  0  0  0  0
   58.8436   29.1572   45.4494 H   0  0  0  0  0  0  0  0  0  0  0  0
   59.4006   30.7306   44.7175 H   0  0  0  0  0  0  0  0  0  0  0  0
   57.6785   31.0098   47.1143 H   0  0  0  0  0  0  0  0  0  0  0  0
   59.2824   30.2252   47.4015 H   0  0  0  0  0  0  0  0  0  0  0  0
   58.6586   35.4085   45.7968 H   0  0  0  0  0  0  0  0  0  0  0  0
   58.9707   35.0773   47.5447 H   0  0  0  0  0  0  0  0  0  0  0  0
   63.1740   34.8322   46.5413 H   0  0  0  0  0  0  0  0  0  0  0  0
   64.6484   32.9631   47.2821 H   0  0  0  0  0  0  0  0  0  0  0  0
   63.6642   30.7395   47.8309 H   0  0  0  0  0  0  0  0  0  0  0  0
   61.2145   30.3548   47.5820 H   0  0  0  0  0  0  0  0  0  0  0  0
   58.7957   26.1697   46.3677 H   0  0  0  0  0  0  0  0  0  0  0  0
   59.8864   23.9867   45.8721 H   0  0  0  0  0  0  0  0  0  0  0  0
  1  2  1  0
  2  3  2  0
  2  4  1  0
  4  5  2  0
  5  6  1  0
  6  7  2  0
  7  8  1  0
  8  9  1  0
  9 10  1  0
 10 11  2  0
 10 12  1  0
 12 13  1  0
 13 14  1  0
 14 15  1  0
 15 16  1  0
 16 17  2  0
 16 18  1  0
 18 19  1  0
 19 20  1  0
 20 21  2  0
 21 22  1  0
 22 23  2  0
 23 24  1  0
 24 25  2  0
  7 26  1  0
 26 27  2  0
 27  4  1  0
 25 15  1  0
 25 20  1  0
  1 28  1  0
  1 29  1  0
  3 30  1  0
  3 31  1  0
  5 32  1  0
  6 33  1  0
  8 34  1  0
  8 35  1  0
 12 36  1  0
 12 37  1  0
 13 38  1  0
 13 39  1  0
 14 40  1  0
 14 41  1  0
 18 42  1  0
 18 43  1  0
 21 44  1  0
 22 45  1  0
 23 46  1  0
 24 47  1  0
 26 48  1  0
 27 49  1  0
M  CHG  2   3   1   9  -1
M  END
>  <UniqueID>  (3) 
3

>  <SMILES>  (3) 
NC(=[NH2+])c1ccc(C[N-]C(=O)CCCN2C(=O)COc3ccccc32)cc1

>  <Energy>  (3) 
51.451780166214185

>  <Genealogy>  (3) 
NC(=[NH2+])c1ccc(C[N-]C(=O)CCCN2C(=O)COc3ccccc32)cc1 (protonated)
NC(=[NH2+])c1ccc(C[N-]C(=O)CCCN2C(=O)COc3ccccc32)cc1 (3D coordinates assigned)
NC(=[NH2+])c1ccc(C[N-]C(=O)CCCN2C(=O)COc3ccccc32)cc1 (nonaromatic ring conformer: 51.451780166214185 kcal/mol)

>  <smiles>  (3) 
N=C(N)c1ccc(CNC(=O)CCCN2C(=O)COc3ccccc32)cc1

>  <score_type>  (3) 
oracle

>  <origin>  (3) 
adg

>  <m_score__min__energy>  (3) 
-9.6300000000000008

>  <m_primary>  (3) 
energy

$$$$
3:0
     RDKit          3D

 54 57  0  0  0  0  0  0  0  0999 V2000
   56.1430   31.1140   44.6200 O   0  0  0  0  0  0  0  0  0  0  0  0
   57.5060   31.4650   44.0900 S   0  0  0  0  0  0  0  0  0  0  0  0
   57.3980   31.9750   42.6800 O   0  0  0  0  0  0  0  0  0  0  0  0
   58.5080   30.0470   44.1300 N   0  0  0  0  0  0  0  0  0  0  0  0
   58.4480   29.0120   45.1230 C   0  0  0  0  0  0  0  0  0  0  0  0
   57.3140   28.1900   45.2590 C   0  0  0  0  0  0  0  0  0  0  0  0
   57.2860   27.1780   46.2190 C   0  0  0  0  0  0  0  0  0  0  0  0
   58.3860   26.9700   47.0520 C   0  0  0  0  0  0  0  0  0  0  0  0
   59.5150   27.7800   46.9330 C   0  0  0  0  0  0  0  0  0  0  0  0
   59.5540   28.8110   45.9780 C   0  0  0  0  0  0  0  0  0  0  0  0
   60.7580   29.7220   45.9030 C   0  0  0  0  0  0  0  0  0  0  0  0
   60.6090   30.8110   46.8180 O   0  0  0  0  0  0  0  0  0  0  0  0
   61.6180   31.2940   47.6680 C   0  0  0  0  0  0  0  0  0  0  0  0
   62.6390   32.1530   47.2180 C   0  0  0  0  0  0  0  0  0  0  0  0
   63.6390   32.5830   48.0960 C   0  0  0  0  0  0  0  0  0  0  0  0
   63.6370   32.1700   49.4430 C   0  0  0  0  0  0  0  0  0  0  0  0
   64.6930   32.5820   50.3380 N   0  0  0  0  0  0  0  0  0  0  0  0
   65.8330   31.7020   50.6310 C   0  0  0  0  0  0  0  0  0  0  0  0
   67.1640   32.4770   50.5240 C   0  0  0  0  0  0  0  0  0  0  0  0
   66.9870   33.9400   50.6130 N   0  0  0  0  0  0  0  0  0  0  0  0
   65.9580   34.2990   51.5930 C   0  0  0  0  0  0  0  0  0  0  0  0
   64.5850   33.8500   51.0770 C   0  0  0  0  0  0  0  0  0  0  0  0
   62.6100   31.3160   49.8890 C   0  0  0  0  0  0  0  0  0  0  0  0
   61.6050   30.8940   49.0090 C   0  0  0  0  0  0  0  0  0  0  0  0
   58.2220   32.7300   45.0890 C   0  0  0  0  0  0  0  0  0  0  0  0
   58.7170   33.9020   44.4910 C   0  0  0  0  0  0  0  0  0  0  0  0
   59.2650   34.9260   45.2820 C   0  0  0  0  0  0  0  0  0  0  0  0
   59.3110   34.7860   46.6730 C   0  0  0  0  0  0  0  0  0  0  0  0
   58.8130   33.6230   47.2750 C   0  0  0  0  0  0  0  0  0  0  0  0
   58.2720   32.5970   46.4890 C   0  0  0  0  0  0  0  0  0  0  0  0
   57.7970   31.4880   47.0980 F   0  0  0  0  0  0  0  0  0  0  0  0
   56.4440   28.3463   44.6042 H   0  0  0  0  0  0  0  0  0  0  0  0
   56.3941   26.5421   46.3195 H   0  0  0  0  0  0  0  0  0  0  0  0
   58.3626   26.1666   47.8030 H   0  0  0  0  0  0  0  0  0  0  0  0
   60.3805   27.6111   47.5905 H   0  0  0  0  0  0  0  0  0  0  0  0
   61.6624   29.1514   46.1609 H   0  0  0  0  0  0  0  0  0  0  0  0
   60.8448   30.1200   44.8812 H   0  0  0  0  0  0  0  0  0  0  0  0
   62.6501   32.4876   46.1702 H   0  0  0  0  0  0  0  0  0  0  0  0
   64.4344   33.2498   47.7316 H   0  0  0  0  0  0  0  0  0  0  0  0
   65.7285   31.3035   51.6509 H   0  0  0  0  0  0  0  0  0  0  0  0
   65.8426   30.8810   49.8989 H   0  0  0  0  0  0  0  0  0  0  0  0
   67.8251   32.1533   51.3414 H   0  0  0  0  0  0  0  0  0  0  0  0
   67.5952   32.2567   49.5363 H   0  0  0  0  0  0  0  0  0  0  0  0
   67.8970   34.3620   50.9210 H   0  0  0  0  0  0  0  0  0  0  0  0
   66.1719   33.7997   52.5495 H   0  0  0  0  0  0  0  0  0  0  0  0
   65.9564   35.3889   51.7419 H   0  0  0  0  0  0  0  0  0  0  0  0
   63.9060   33.7126   51.9315 H   0  0  0  0  0  0  0  0  0  0  0  0
   64.1944   34.6217   50.3974 H   0  0  0  0  0  0  0  0  0  0  0  0
   62.5968   30.9779   50.9357 H   0  0  0  0  0  0  0  0  0  0  0  0
   60.7982   30.2422   49.3754 H   0  0  0  0  0  0  0  0  0  0  0  0
   58.6751   34.0181   43.3979 H   0  0  0  0  0  0  0  0  0  0  0  0
   59.6577   35.8374   44.8075 H   0  0  0  0  0  0  0  0  0  0  0  0
   59.7376   35.5879   47.2934 H   0  0  0  0  0  0  0  0  0  0  0  0
   58.8469   33.5150   48.3692 H   0  0  0  0  0  0  0  0  0  0  0  0
  1  2  2  0
  2  3  2  0
  2  4  1  0
  4  5  1  0
  5  6  2  0
  6  7  1  0
  7  8  2  0
  8  9  1  0
  9 10  2  0
 10 11  1  0
 11 12  1  0
 12 13  1  0
 13 14  2  0
 14 15  1  0
 15 16  2  0
 16 17  1  0
 17 18  1  0
 18 19  1  0
 19 20  1  0
 20 21  1  0
 21 22  1  0
 16 23  1  0
 23 24  2  0
  2 25  1  0
 25 26  2  0
 26 27  1  0
 27 28  2  0
 28 29  1  0
 29 30  2  0
 30 31  1  0
 10  5  1  0
 24 13  1  0
 30 25  1  0
 22 17  1  0
  6 32  1  0
  7 33  1  0
  8 34  1  0
  9 35  1  0
 11 36  1  0
 11 37  1  0
 14 38  1  0
 15 39  1  0
 18 40  1  0
 18 41  1  0
 19 42  1  0
 19 43  1  0
 20 44  1  0
 21 45  1  0
 21 46  1  0
 22 47  1  0
 22 48  1  0
 23 49  1  0
 24 50  1  0
 26 51  1  0
 27 52  1  0
 28 53  1  0
 29 54  1  0
M  CHG  1   4  -1
M  END
>  <UniqueID>  (4) 
4

>  <SMILES>  (4) 
O=S(=O)([N-]c1ccccc1COc1ccc(N2CCNCC2)cc1)c1ccccc1F

>  <Energy>  (4) 
70.96848307621863

>  <Genealogy>  (4) 
O=S(=O)([N-]c1ccccc1COc1ccc(N2CCNCC2)cc1)c1ccccc1F (protonated)
O=S(=O)([N-]c1ccccc1COc1ccc(N2CCNCC2)cc1)c1ccccc1F (3D coordinates assigned)
O=S(=O)([N-]c1ccccc1COc1ccc(N2CCNCC2)cc1)c1ccccc1F (nonaromatic ring conformer: 70.96848307621863 kcal/mol)

>  <smiles>  (4) 
O=S(=O)(Nc1ccccc1COc1ccc(N2CCNCC2)cc1)c1ccccc1F

>  <score_type>  (4) 
oracle

>  <origin>  (4) 
adg

>  <m_score__min__energy>  (4) 
-11.09

>  <m_primary>  (4) 
energy

$$$$
4:0
     RDKit          3D

 28 30  0  0  0  0  0  0  0  0999 V2000
   61.6260   34.2710   50.6070 O   0  0  0  0  0  0  0  0  0  0  0  0
   61.8440   34.0210   49.3940 C   0  0  0  0  0  0  0  0  0  0  0  0
   63.1130   33.9490   48.8230 O   0  0  0  0  0  0  0  0  0  0  0  0
   62.9180   33.6570   47.4750 C   0  0  0  0  0  0  0  0  0  0  0  0
   63.8470   33.5180   46.6380 O   0  0  0  0  0  0  0  0  0  0  0  0
   61.4910   33.5430   47.1950 C   0  0  0  0  0  0  0  0  0  0  0  0
   60.8070   33.2740   46.0110 C   0  0  0  0  0  0  0  0  0  0  0  0
   59.3960   33.2280   46.0540 C   0  0  0  0  0  0  0  0  0  0  0  0
   58.6130   32.9820   44.7940 C   0  0  0  0  0  0  0  0  0  0  0  0
   57.7820   31.7360   44.9350 C   0  0  0  0  0  0  0  0  0  0  0  0
   56.6600   31.5350   44.1140 C   0  0  0  0  0  0  0  0  0  0  0  0
   55.9090   30.3590   44.2220 C   0  0  0  0  0  0  0  0  0  0  0  0
   56.2790   29.3740   45.1420 C   0  0  0  0  0  0  0  0  0  0  0  0
   55.5320   28.2070   45.2470 O   0  0  0  0  0  0  0  0  0  0  0  0
   57.4010   29.5620   45.9550 C   0  0  0  0  0  0  0  0  0  0  0  0
   58.1540   30.7360   45.8490 C   0  0  0  0  0  0  0  0  0  0  0  0
   58.7200   33.4710   47.2770 C   0  0  0  0  0  0  0  0  0  0  0  0
   59.4400   33.7400   48.4540 C   0  0  0  0  0  0  0  0  0  0  0  0
   60.8290   33.7670   48.3780 C   0  0  0  0  0  0  0  0  0  0  0  0
   61.3503   33.1024   45.0701 H   0  0  0  0  0  0  0  0  0  0  0  0
   57.9519   33.8403   44.6034 H   0  0  0  0  0  0  0  0  0  0  0  0
   59.3129   32.8542   43.9551 H   0  0  0  0  0  0  0  0  0  0  0  0
   56.3706   32.3048   43.3835 H   0  0  0  0  0  0  0  0  0  0  0  0
   55.0267   30.2098   43.5822 H   0  0  0  0  0  0  0  0  0  0  0  0
   57.6917   28.7861   46.6785 H   0  0  0  0  0  0  0  0  0  0  0  0
   59.0411   30.8769   46.4839 H   0  0  0  0  0  0  0  0  0  0  0  0
   57.6206   33.4487   47.3048 H   0  0  0  0  0  0  0  0  0  0  0  0
   58.9209   33.9236   49.4063 H   0  0  0  0  0  0  0  0  0  0  0  0
  1  2  2  0
  2  3  1  0
  3  4  1  0
  4  5  2  0
  4  6  1  0
  6  7  2  0
  7  8  1  0
  8  9  1  0
  9 10  1  0
 10 11  2  0
 11 12  1  0
 12 13  2  0
 13 14  1  0
 13 15  1  0
 15 16  2  0
  8 17  2  0
 17 18  1  0
 18 19  2  0
 19  2  1  0
 19  6  1  0
 16 10  1  0
  7 20  1  0
  9 21  1  0
  9 22  1  0
 11 23  1  0
 12 24  1  0
 15 25  1  0
 16 26  1  0
 17 27  1  0
 18 28  1  0
M  CHG  1  14  -1
M  END
>  <UniqueID>  (5) 
5

>  <SMILES>  (5) 
O=C1OC(=O)c2cc(Cc3ccc([O-])cc3)ccc21

>  <Energy>  (5) 
62.04286109838704

>  <Genealogy>  (5) 
O=C1OC(=O)c2cc(Cc3ccc([O-])cc3)ccc21 (protonated)
O=C1OC(=O)c2cc(Cc3ccc([O-])cc3)ccc21 (3D coordinates assigned)
O=C1OC(=O)c2cc(Cc3ccc([O-])cc3)ccc21 (nonaromatic ring conformer: 62.04286109838704 kcal/mol)

>  <smiles>  (5) 
O=C1OC(=O)c2cc(Cc3ccc(O)cc3)ccc21

>  <score_type>  (5) 
oracle

>  <origin>  (5) 
adg

>  <m_score__min__energy>  (5) 
-10.06

>  <m_primary>  (5) 
energy

$$$$
5:0
     RDKit          3D

 43 47  0  0  0  0  0  0  0  0999 V2000
   56.8480   30.9670   42.3030 O   0  0  0  0  0  0  0  0  0  0  0  0
   57.2600   30.4610   43.3830 C   0  0  0  0  0  0  0  0  0  0  0  0
   57.0610   29.1010   43.6220 C   0  0  0  0  0  0  0  0  0  0  0  0
   57.5230   28.5410   44.8240 C   0  0  0  0  0  0  0  0  0  0  0  0
   57.3450   27.1020   45.1440 C   0  0  0  0  0  0  0  0  0  0  0  0
   56.7300   26.6780   46.3400 C   0  0  0  0  0  0  0  0  0  0  0  0
   56.5670   25.3140   46.6070 C   0  0  0  0  0  0  0  0  0  0  0  0
   57.0060   24.3610   45.6860 C   0  0  0  0  0  0  0  0  0  0  0  0
   57.6050   24.7680   44.4920 C   0  0  0  0  0  0  0  0  0  0  0  0
   57.7710   26.1290   44.2200 C   0  0  0  0  0  0  0  0  0  0  0  0
   58.1280   29.3200   45.7180 O   0  0  0  0  0  0  0  0  0  0  0  0
   58.3360   30.6230   45.5400 C   0  0  0  0  0  0  0  0  0  0  0  0
   58.9890   31.3670   46.5430 C   0  0  0  0  0  0  0  0  0  0  0  0
   59.4430   30.6640   47.7660 C   0  0  0  0  0  0  0  0  0  0  0  0
   60.3600   29.6040   47.6750 C   0  0  0  0  0  0  0  0  0  0  0  0
   60.7620   28.9220   48.8280 C   0  0  0  0  0  0  0  0  0  0  0  0
   60.2460   29.2890   50.0750 C   0  0  0  0  0  0  0  0  0  0  0  0
   59.3270   30.3380   50.1700 C   0  0  0  0  0  0  0  0  0  0  0  0
   58.9230   31.0230   49.0210 C   0  0  0  0  0  0  0  0  0  0  0  0
   59.2080   32.7560   46.3540 C   0  0  0  0  0  0  0  0  0  0  0  0
   59.8180   33.5580   47.3450 C   0  0  0  0  0  0  0  0  0  0  0  0
   60.0220   34.9220   47.1290 C   0  0  0  0  0  0  0  0  0  0  0  0
   59.6180   35.5130   45.9340 C   0  0  0  0  0  0  0  0  0  0  0  0
   58.9980   34.7460   44.9470 C   0  0  0  0  0  0  0  0  0  0  0  0
   58.7840   33.3720   45.1470 C   0  0  0  0  0  0  0  0  0  0  0  0
   58.1420   32.6160   44.1580 C   0  0  0  0  0  0  0  0  0  0  0  0
   57.9110   31.2470   44.3480 C   0  0  0  0  0  0  0  0  0  0  0  0
   56.5481   28.4745   42.8774 H   0  0  0  0  0  0  0  0  0  0  0  0
   56.3764   27.4237   47.0673 H   0  0  0  0  0  0  0  0  0  0  0  0
   56.0916   24.9918   47.5452 H   0  0  0  0  0  0  0  0  0  0  0  0
   56.8801   23.2896   45.9009 H   0  0  0  0  0  0  0  0  0  0  0  0
   57.9466   24.0167   43.7647 H   0  0  0  0  0  0  0  0  0  0  0  0
   58.2389   26.4427   43.2752 H   0  0  0  0  0  0  0  0  0  0  0  0
   60.7629   29.3096   46.6947 H   0  0  0  0  0  0  0  0  0  0  0  0
   61.4848   28.0961   48.7539 H   0  0  0  0  0  0  0  0  0  0  0  0
   60.5634   28.7521   50.9811 H   0  0  0  0  0  0  0  0  0  0  0  0
   58.9210   30.6248   51.1513 H   0  0  0  0  0  0  0  0  0  0  0  0
   58.1963   31.8451   49.0992 H   0  0  0  0  0  0  0  0  0  0  0  0
   60.1349   33.1033   48.2952 H   0  0  0  0  0  0  0  0  0  0  0  0
   60.5041   35.5331   47.9062 H   0  0  0  0  0  0  0  0  0  0  0  0
   59.7882   36.5870   45.7681 H   0  0  0  0  0  0  0  0  0  0  0  0
   58.6753   35.2193   44.0080 H   0  0  0  0  0  0  0  0  0  0  0  0
   57.8168   33.1004   43.2255 H   0  0  0  0  0  0  0  0  0  0  0  0
  1  2  2  0
  2  3  1  0
  3  4  2  0
  4  5  1  0
  5  6  2  0
  6  7  1  0
  7  8  2  0
  8  9  1  0
  9 10  2  0
  4 11  1  0
 11 12  1  0
 12 13  2  0
 13 14  1  0
 14 15  2  0
 15 16  1  0
 16 17  2  0
 17 18  1  0
 18 19  2  0
 13 20  1  0
 20 21  2  0
 21 22  1  0
 22 23  2  0
 23 24  1  0
 24 25  2  0
 25 26  1  0
 26 27  2  0
 27  2  1  0
 10  5  1  0
 27 12  1  0
 19 14  1  0
 25 20  1  0
  3 28  1  0
  6 29  1  0
  7 30  1  0
  8 31  1  0
  9 32  1  0
 10 33  1  0
 15 34  1  0
 16 35  1  0
 17 36  1  0
 18 37  1  0
 19 38  1  0
 21 39  1  0
 22 40  1  0
 23 41  1  0
 24 42  1  0
 26 43  1  0
M  END
>  <UniqueID>  (6) 
6

>  <SMILES>  (6) 
O=c1cc(-c2ccccc2)oc2c(-c3ccccc3)c3ccccc3cc12

>  <Energy>  (6) 
70.51689151552584

>  <Genealogy>  (6) 
O=c1cc(-c2ccccc2)oc2c(-c3ccccc3)c3ccccc3cc12 (3D coordinates assigned)
O=c1cc(-c2ccccc2)oc2c(-c3ccccc3)c3ccccc3cc12 (optimized conformer: 70.51689151552584 kcal/mol)

>  <smiles>  (6) 
O=c1cc(-c2ccccc2)oc2c(-c3ccccc3)c3ccccc3cc12

>  <score_type>  (6) 
oracle

>  <origin>  (6) 
adg

>  <m_score__min__energy>  (6) 
-8.7300000000000004

>  <m_primary>  (6) 
energy

$$$$
6:0
     RDKit          3D

 52 55  0  0  0  0  0  0  0  0999 V2000
   59.1490   35.1860   44.8980 C   0  0  0  0  0  0  0  0  0  0  0  0
   59.3130   34.1230   43.9660 O   0  0  0  0  0  0  0  0  0  0  0  0
   58.5020   32.9790   43.9170 C   0  0  0  0  0  0  0  0  0  0  0  0
   58.1050   32.3930   45.1240 C   0  0  0  0  0  0  0  0  0  0  0  0
   57.3080   31.2470   45.1300 C   0  0  0  0  0  0  0  0  0  0  0  0
   56.9030   30.6620   43.9210 C   0  0  0  0  0  0  0  0  0  0  0  0
   56.0310   29.4400   43.9270 C   0  0  0  0  0  0  0  0  0  0  0  0
   56.6120   28.4140   44.7890 N   0  0  0  0  0  0  0  0  0  0  0  0
   55.8980   27.6660   45.6210 N   0  0  0  0  0  0  0  0  0  0  0  0
   56.7420   26.8300   46.2670 C   0  0  0  0  0  0  0  0  0  0  0  0
   58.0240   27.0400   45.8020 C   0  0  0  0  0  0  0  0  0  0  0  0
   59.2050   26.3940   46.2880 N   0  0  0  0  0  0  0  0  0  0  0  0
   60.1620   26.9910   47.1710 C   0  0  0  0  0  0  0  0  0  0  0  0
   61.1800   26.3370   47.5230 O   0  0  0  0  0  0  0  0  0  0  0  0
   59.9310   28.3520   47.7080 C   0  0  0  0  0  0  0  0  0  0  0  0
   59.4040   28.5340   48.9980 C   0  0  0  0  0  0  0  0  0  0  0  0
   59.1930   29.8200   49.5030 C   0  0  0  0  0  0  0  0  0  0  0  0
   59.5110   30.9520   48.7380 C   0  0  0  0  0  0  0  0  0  0  0  0
   59.2830   32.2600   49.2930 N   0  0  0  0  0  0  0  0  0  0  0  0
   60.1010   33.7040   48.7820 S   0  0  0  0  0  0  0  0  0  0  0  0
   59.6370   34.1190   47.4130 O   0  0  0  0  0  0  0  0  0  0  0  0
   59.7710   34.8130   49.7410 O   0  0  0  0  0  0  0  0  0  0  0  0
   61.8390   33.4490   48.7920 C   0  0  0  0  0  0  0  0  0  0  0  0
   62.6570   33.4210   47.6700 C   0  0  0  0  0  0  0  0  0  0  0  0
   64.0030   33.1960   47.9800 C   0  0  0  0  0  0  0  0  0  0  0  0
   64.2320   33.0530   49.3410 C   0  0  0  0  0  0  0  0  0  0  0  0
   65.9270   32.7450   50.1610 Br  0  0  0  0  0  0  0  0  0  0  0  0
   62.7760   33.1990   50.1650 S   0  0  0  0  0  0  0  0  0  0  0  0
   60.0290   30.7700   47.4420 C   0  0  0  0  0  0  0  0  0  0  0  0
   60.2390   29.4850   46.9360 C   0  0  0  0  0  0  0  0  0  0  0  0
   57.9110   28.0650   44.8820 C   0  0  0  0  0  0  0  0  0  0  0  0
   58.8740   28.6840   44.2750 N   0  0  0  0  0  0  0  0  0  0  0  0
   57.2790   31.2570   42.7060 C   0  0  0  0  0  0  0  0  0  0  0  0
   58.0790   32.4030   42.7010 C   0  0  0  0  0  0  0  0  0  0  0  0
   59.2103   34.7887   45.9219 H   0  0  0  0  0  0  0  0  0  0  0  0
   59.9426   35.9324   44.7462 H   0  0  0  0  0  0  0  0  0  0  0  0
   58.1673   35.6585   44.7462 H   0  0  0  0  0  0  0  0  0  0  0  0
   58.4240   32.8397   46.0773 H   0  0  0  0  0  0  0  0  0  0  0  0
   56.9964   30.8011   46.0861 H   0  0  0  0  0  0  0  0  0  0  0  0
   55.0321   29.7075   44.3020 H   0  0  0  0  0  0  0  0  0  0  0  0
   55.9530   29.0479   42.9022 H   0  0  0  0  0  0  0  0  0  0  0  0
   56.4533   26.1007   47.0382 H   0  0  0  0  0  0  0  0  0  0  0  0
   59.1557   27.6578   49.6149 H   0  0  0  0  0  0  0  0  0  0  0  0
   58.7728   29.9459   50.5118 H   0  0  0  0  0  0  0  0  0  0  0  0
   58.6730   32.3460   50.1350 H   0  0  0  0  0  0  0  0  0  0  0  0
   62.2855   33.5611   46.6442 H   0  0  0  0  0  0  0  0  0  0  0  0
   64.7982   33.1384   47.2221 H   0  0  0  0  0  0  0  0  0  0  0  0
   60.2704   31.6465   46.8227 H   0  0  0  0  0  0  0  0  0  0  0  0
   60.6495   29.3588   45.9233 H   0  0  0  0  0  0  0  0  0  0  0  0
   58.7460   29.1740   43.3620 H   0  0  0  0  0  0  0  0  0  0  0  0
   56.9426   30.8195   41.7545 H   0  0  0  0  0  0  0  0  0  0  0  0
   58.3798   32.8573   41.7454 H   0  0  0  0  0  0  0  0  0  0  0  0
  1  2  1  0
  2  3  1  0
  3  4  2  0
  4  5  1  0
  5  6  2  0
  6  7  1  0
  7  8  1  0
  8  9  1  0
  9 10  1  0
 10 11  2  0
 11 12  1  0
 12 13  1  0
 13 14  2  0
 13 15  1  0
 15 16  2  0
 16 17  1  0
 17 18  2  0
 18 19  1  0
 19 20  1  0
 20 21  2  0
 20 22  2  0
 20 23  1  0
 23 24  2  0
 24 25  1  0
 25 26  2  0
 26 27  1  0
 26 28  1  0
 18 29  1  0
 29 30  2  0
 11 31  1  0
 31 32  2  3
  6 33  1  0
 33 34  2  0
 34  3  1  0
 31  8  1  0
 30 15  1  0
 28 23  1  0
  1 35  1  0
  1 36  1  0
  1 37  1  0
  4 38  1  0
  5 39  1  0
  7 40  1  0
  7 41  1  0
 10 42  1  0
 16 43  1  0
 17 44  1  0
 19 45  1  0
 24 46  1  0
 25 47  1  0
 29 48  1  0
 30 49  1  0
 32 50  1  0
 33 51  1  0
 34 52  1  0
M  CHG  2   9  -1  12  -1
M  END
>  <UniqueID>  (7) 
7

>  <SMILES>  (7) 
COc1ccc(Cn2[n-]cc([N-]C(=O)c3ccc(NS(=O)(=O)c4ccc(Br)s4)cc3)c2=N)cc1

>  <Energy>  (7) 
124.56060109041779

>  <Genealogy>  (7) 
COc1ccc(Cn2[n-]cc([N-]C(=O)c3ccc(NS(=O)(=O)c4ccc(Br)s4)cc3)c2=N)cc1 (protonated)
COc1ccc(Cn2[n-]cc([N-]C(=O)c3ccc(NS(=O)(=O)c4ccc(Br)s4)cc3)c2=N)cc1 (3D coordinates assigned)
COc1ccc(Cn2[n-]cc([N-]C(=O)c3ccc(NS(=O)(=O)c4ccc(Br)s4)cc3)c2=N)cc1 (optimized conformer: 124.56060109041779 kcal/mol)

>  <smiles>  (7) 
COc1ccc(Cn2[nH]cc(NC(=O)c3ccc(NS(=O)(=O)c4ccc(Br)s4)cc3)c2=N)cc1

>  <score_type>  (7) 
oracle

>  <origin>  (7) 
adg

>  <m_score__min__energy>  (7) 
-13

>  <m_primary>  (7) 
energy

$$$$
7:0
     RDKit          3D

 40 42  0  0  0  0  0  0  0  0999 V2000
   59.6390   28.2120   48.4740 C   0  0  0  0  0  0  0  0  0  0  0  0
   59.2530   29.3740   49.1990 O   0  0  0  0  0  0  0  0  0  0  0  0
   59.1000   30.6480   48.6320 C   0  0  0  0  0  0  0  0  0  0  0  0
   59.1300   31.8230   49.4010 C   0  0  0  0  0  0  0  0  0  0  0  0
   58.9710   33.0680   48.7910 C   0  0  0  0  0  0  0  0  0  0  0  0
   58.7870   33.1660   47.3990 C   0  0  0  0  0  0  0  0  0  0  0  0
   58.6360   34.4070   46.7590 O   0  0  0  0  0  0  0  0  0  0  0  0
   59.6360   35.0330   45.9620 C   0  0  0  0  0  0  0  0  0  0  0  0
   58.7650   31.9910   46.6190 C   0  0  0  0  0  0  0  0  0  0  0  0
   58.5910   32.0830   45.1930 N   0  0  0  0  0  0  0  0  0  0  0  0
   57.4680   31.1010   44.3060 S   0  0  0  0  0  0  0  0  0  0  0  0
   56.0700   31.5780   44.5860 O   0  0  0  0  0  0  0  0  0  0  0  0
   57.7460   31.2310   42.8350 O   0  0  0  0  0  0  0  0  0  0  0  0
   57.6540   29.4120   44.7680 C   0  0  0  0  0  0  0  0  0  0  0  0
   58.8790   28.7540   44.5870 C   0  0  0  0  0  0  0  0  0  0  0  0
   59.0090   27.4060   44.9290 C   0  0  0  0  0  0  0  0  0  0  0  0
   57.9190   26.7050   45.4550 C   0  0  0  0  0  0  0  0  0  0  0  0
   56.6770   27.3500   45.6030 C   0  0  0  0  0  0  0  0  0  0  0  0
   56.5570   28.7060   45.2820 C   0  0  0  0  0  0  0  0  0  0  0  0
   55.5090   26.6120   45.9820 N   0  0  0  0  0  0  0  0  0  0  0  0
   55.4430   25.1860   45.8850 C   0  0  0  0  0  0  0  0  0  0  0  0
   54.4040   24.5850   46.2660 O   0  0  0  0  0  0  0  0  0  0  0  0
   56.5790   24.4190   45.2840 C   0  0  0  0  0  0  0  0  0  0  0  0
   58.1400   25.0060   46.0110 S   0  0  0  0  0  0  0  0  0  0  0  0
   58.9110   30.7420   47.2500 C   0  0  0  0  0  0  0  0  0  0  0  0
   59.9050   27.4111   49.1796 H   0  0  0  0  0  0  0  0  0  0  0  0
   58.8028   27.8802   47.8410 H   0  0  0  0  0  0  0  0  0  0  0  0
   60.5075   28.4464   47.8410 H   0  0  0  0  0  0  0  0  0  0  0  0
   59.2795   31.7615   50.4891 H   0  0  0  0  0  0  0  0  0  0  0  0
   58.9896   33.9813   49.4038 H   0  0  0  0  0  0  0  0  0  0  0  0
   60.3856   35.5023   46.6161 H   0  0  0  0  0  0  0  0  0  0  0  0
   60.1241   34.2789   45.3271 H   0  0  0  0  0  0  0  0  0  0  0  0
   59.1709   35.8015   45.3271 H   0  0  0  0  0  0  0  0  0  0  0  0
   59.2470   32.6670   44.6290 H   0  0  0  0  0  0  0  0  0  0  0  0
   59.7398   29.3008   44.1746 H   0  0  0  0  0  0  0  0  0  0  0  0
   59.9718   26.8941   44.7842 H   0  0  0  0  0  0  0  0  0  0  0  0
   55.5970   29.2213   45.4336 H   0  0  0  0  0  0  0  0  0  0  0  0
   56.4534   23.3470   45.4962 H   0  0  0  0  0  0  0  0  0  0  0  0
   56.5956   24.5718   44.1948 H   0  0  0  0  0  0  0  0  0  0  0  0
   58.8758   29.8236   46.6455 H   0  0  0  0  0  0  0  0  0  0  0  0
  1  2  1  0
  2  3  1  0
  3  4  2  0
  4  5  1  0
  5  6  2  0
  6  7  1  0
  7  8  1  0
  6  9  1  0
  9 10  1  0
 10 11  1  0
 11 12  2  0
 11 13  2  0
 11 14  1  0
 14 15  2  0
 15 16  1  0
 16 17  2  0
 17 18  1  0
 18 19  2  0
 18 20  1  0
 20 21  1  0
 21 22  2  0
 21 23  1  0
 23 24  1  0
  9 25  2  0
 25  3  1  0
 19 14  1  0
 24 17  1  0
  1 26  1  0
  1 27  1  0
  1 28  1  0
  4 29  1  0
  5 30  1  0
  8 31  1  0
  8 32  1  0
  8 33  1  0
 10 34  1  0
 15 35  1  0
 16 36  1  0
 19 37  1  0
 23 38  1  0
 23 39  1  0
 25 40  1  0
M  CHG  1  20  -1
M  END
>  <UniqueID>  (8) 
8

>  <SMILES>  (8) 
COc1ccc(OC)c(NS(=O)(=O)c2ccc3c(c2)[N-]C(=O)CS3)c1

>  <Energy>  (8) 
47.89562474110837

>  <Genealogy>  (8) 
COc1ccc(OC)c(NS(=O)(=O)c2ccc3c(c2)[N-]C(=O)CS3)c1 (protonated)
COc1ccc(OC)c(NS(=O)(=O)c2ccc3c(c2)[N-]C(=O)CS3)c1 (3D coordinates assigned)
COc1ccc(OC)c(NS(=O)(=O)c2ccc3c(c2)[N-]C(=O)CS3)c1 (nonaromatic ring conformer: 47.89562474110837 kcal/mol)

>  <smiles>  (8) 
COc1ccc(OC)c(NS(=O)(=O)c2ccc3c(c2)NC(=O)CS3)c1

>  <score_type>  (8) 
oracle

>  <origin>  (8) 
adg

>  <m_score__min__energy>  (8) 
-9.9199999999999999

>  <m_primary>  (8) 
energy

$$$$
8:0
     RDKit          3D

 25 26  0  0  0  0  0  0  0  0999 V2000
   60.5820   27.3230   46.1010 C   0  0  0  0  0  0  0  0  0  0  0  0
   59.6910   26.0200   47.0070 S   0  0  0  0  0  0  0  0  0  0  0  0
   58.0850   26.5840   46.4600 C   0  0  0  0  0  0  0  0  0  0  0  0
   57.8920   27.7870   45.8770 N   0  0  0  0  0  0  0  0  0  0  0  0
   56.5720   27.8010   45.6210 C   0  0  0  0  0  0  0  0  0  0  0  0
   55.8680   28.9130   45.0480 N   0  0  0  0  0  0  0  0  0  0  0  0
   56.5110   29.9710   44.3190 C   0  0  0  0  0  0  0  0  0  0  0  0
   56.3300   30.1230   42.9310 C   0  0  0  0  0  0  0  0  0  0  0  0
   56.9500   31.1750   42.2500 C   0  0  0  0  0  0  0  0  0  0  0  0
   57.7440   32.0900   42.9460 C   0  0  0  0  0  0  0  0  0  0  0  0
   57.9120   31.9590   44.3270 C   0  0  0  0  0  0  0  0  0  0  0  0
   57.2930   30.9100   45.0120 C   0  0  0  0  0  0  0  0  0  0  0  0
   56.0100   26.6280   46.0680 C   0  0  0  0  0  0  0  0  0  0  0  0
   54.6690   26.2630   45.9960 O   0  0  0  0  0  0  0  0  0  0  0  0
   56.9620   25.8440   46.5990 N   0  0  0  0  0  0  0  0  0  0  0  0
   61.0529   28.0117   46.8179 H   0  0  0  0  0  0  0  0  0  0  0  0
   61.3572   26.8655   45.4687 H   0  0  0  0  0  0  0  0  0  0  0  0
   59.8744   27.8794   45.4687 H   0  0  0  0  0  0  0  0  0  0  0  0
   54.8490   29.0100   45.2540 H   0  0  0  0  0  0  0  0  0  0  0  0
   55.6980   29.4110   42.3800 H   0  0  0  0  0  0  0  0  0  0  0  0
   56.8124   31.2825   41.1640 H   0  0  0  0  0  0  0  0  0  0  0  0
   58.2365   32.9129   42.4072 H   0  0  0  0  0  0  0  0  0  0  0  0
   58.5325   32.6828   44.8758 H   0  0  0  0  0  0  0  0  0  0  0  0
   57.4189   30.8189   46.1010 H   0  0  0  0  0  0  0  0  0  0  0  0
   54.0150   26.4870   46.7350 H   0  0  0  0  0  0  0  0  0  0  0  0
  1  2  1  0
  2  3  1  0
  3  4  2  0
  4  5  1  0
  5  6  1  0
  6  7  1  0
  7  8  2  0
  8  9  1  0
  9 10  2  0
 10 11  1  0
 11 12  2  0
  5 13  2  0
 13 14  1  0
 13 15  1  0
 15  3  1  0
 12  7  1  0
  1 16  1  0
  1 17  1  0
  1 18  1  0
  6 19  1  0
  8 20  1  0
  9 21  1  0
 10 22  1  0
 11 23  1  0
 12 24  1  0
 14 25  1  0
M  CHG  1  15  -1
M  END
>  <UniqueID>  (9) 
9

>  <SMILES>  (9) 
CSc1nc(Nc2ccccc2)c(O)[n-]1

>  <Energy>  (9) 
53.55821953518922

>  <Genealogy>  (9) 
CSc1nc(Nc2ccccc2)c(O)[n-]1 (protonated)
CSc1nc(Nc2ccccc2)c(O)[n-]1 (3D coordinates assigned)
CSc1nc(Nc2ccccc2)c(O)[n-]1 (optimized conformer: 53.55821953518922 kcal/mol)

>  <smiles>  (9) 
CSc1nc(Nc2ccccc2)c(O)[nH]1

>  <score_type>  (9) 
oracle

>  <origin>  (9) 
adg

>  <m_score__min__energy>  (9) 
-8.5399999999999991

>  <m_primary>  (9) 
energy

$$$$
9:0
     RDKit          3D

 43 45  0  0  0  0  0  0  0  0999 V2000
   56.1680   24.4690   44.8460 C   0  0  0  0  0  0  0  0  0  0  0  0
   55.1980   25.3110   45.6170 C   0  0  0  0  0  0  0  0  0  0  0  0
   54.0760   24.8260   45.9190 O   0  0  0  0  0  0  0  0  0  0  0  0
   55.4910   26.6650   45.9900 N   0  0  0  0  0  0  0  0  0  0  0  0
   56.7630   27.3220   45.9030 C   0  0  0  0  0  0  0  0  0  0  0  0
   57.9600   26.6580   46.2190 C   0  0  0  0  0  0  0  0  0  0  0  0
   59.1790   27.3340   46.1490 C   0  0  0  0  0  0  0  0  0  0  0  0
   59.2140   28.6820   45.7830 C   0  0  0  0  0  0  0  0  0  0  0  0
   58.0240   29.3720   45.4930 C   0  0  0  0  0  0  0  0  0  0  0  0
   58.0580   30.8100   45.1220 C   0  0  0  0  0  0  0  0  0  0  0  0
   57.8600   31.2060   43.7880 C   0  0  0  0  0  0  0  0  0  0  0  0
   57.8910   32.5580   43.4410 C   0  0  0  0  0  0  0  0  0  0  0  0
   58.1160   33.5300   44.4180 C   0  0  0  0  0  0  0  0  0  0  0  0
   58.3070   33.1580   45.7590 C   0  0  0  0  0  0  0  0  0  0  0  0
   58.5350   34.1340   46.7920 N   0  0  0  0  0  0  0  0  0  0  0  0
   59.4080   33.8010   48.2550 S   0  0  0  0  0  0  0  0  0  0  0  0
   59.2720   34.9680   49.1910 O   0  0  0  0  0  0  0  0  0  0  0  0
   58.8260   32.5790   48.9090 O   0  0  0  0  0  0  0  0  0  0  0  0
   61.1160   33.5640   47.8940 C   0  0  0  0  0  0  0  0  0  0  0  0
   61.6380   33.9340   46.6470 C   0  0  0  0  0  0  0  0  0  0  0  0
   62.9980   33.7590   46.3760 C   0  0  0  0  0  0  0  0  0  0  0  0
   63.8410   33.2120   47.3470 C   0  0  0  0  0  0  0  0  0  0  0  0
   63.3240   32.8360   48.5910 C   0  0  0  0  0  0  0  0  0  0  0  0
   64.3830   32.1510   49.8120 Cl  0  0  0  0  0  0  0  0  0  0  0  0
   61.9630   33.0100   48.8650 C   0  0  0  0  0  0  0  0  0  0  0  0
   58.2850   31.7960   46.0990 C   0  0  0  0  0  0  0  0  0  0  0  0
   56.8000   28.6810   45.5670 C   0  0  0  0  0  0  0  0  0  0  0  0
   56.8085   23.9130   45.5465 H   0  0  0  0  0  0  0  0  0  0  0  0
   55.6151   23.7596   44.2127 H   0  0  0  0  0  0  0  0  0  0  0  0
   56.7926   25.1161   44.2127 H   0  0  0  0  0  0  0  0  0  0  0  0
   57.9364   25.6011   46.5228 H   0  0  0  0  0  0  0  0  0  0  0  0
   60.1144   26.8043   46.3825 H   0  0  0  0  0  0  0  0  0  0  0  0
   60.1788   29.2067   45.7214 H   0  0  0  0  0  0  0  0  0  0  0  0
   57.6796   30.4465   43.0130 H   0  0  0  0  0  0  0  0  0  0  0  0
   57.7376   32.8586   42.3941 H   0  0  0  0  0  0  0  0  0  0  0  0
   58.1438   34.5929   44.1359 H   0  0  0  0  0  0  0  0  0  0  0  0
   58.2600   35.1270   46.6230 H   0  0  0  0  0  0  0  0  0  0  0  0
   60.9762   34.3629   45.8802 H   0  0  0  0  0  0  0  0  0  0  0  0
   63.4052   34.0522   45.3971 H   0  0  0  0  0  0  0  0  0  0  0  0
   64.9115   33.0771   47.1329 H   0  0  0  0  0  0  0  0  0  0  0  0
   61.5569   32.7120   49.8429 H   0  0  0  0  0  0  0  0  0  0  0  0
   58.4477   31.4957   47.1446 H   0  0  0  0  0  0  0  0  0  0  0  0
   55.8612   29.2149   45.3584 H   0  0  0  0  0  0  0  0  0  0  0  0
  1  2  1  0
  2  3  2  0
  2  4  1  0
  4  5  1  0
  5  6  2  0
  6  7  1  0
  7  8  2  0
  8  9  1  0
  9 10  1  0
 10 11  2  0
 11 12  1  0
 12 13  2  0
 13 14  1  0
 14 15  1  0
 15 16  1  0
 16 17  2  0
 16 18  2  0
 16 19  1  0
 19 20  2  0
 20 21  1  0
 21 22  2  0
 22 23  1  0
 23 24  1  0
 23 25  2  0
 14 26  2  0
  9 27  2  0
 27  5  1  0
 26 10  1  0
 25 19  1  0
  1 28  1  0
  1 29  1  0
  1 30  1  0
  6 31  1  0
  7 32  1  0
  8 33  1  0
 11 34  1  0
 12 35  1  0
 13 36  1  0
 15 37  1  0
 20 38  1  0
 21 39  1  0
 22 40  1  0
 25 41  1  0
 26 42  1  0
 27 43  1  0
M  CHG  1   4  -1
M  END
>  <UniqueID>  (10) 
10

>  <SMILES>  (10) 
CC(=O)[N-]c1cccc(-c2cccc(NS(=O)(=O)c3cccc(Cl)c3)c2)c1

>  <Energy>  (10) 
56.59514653634161

>  <Genealogy>  (10) 
CC(=O)[N-]c1cccc(-c2cccc(NS(=O)(=O)c3cccc(Cl)c3)c2)c1 (protonated)
CC(=O)[N-]c1cccc(-c2cccc(NS(=O)(=O)c3cccc(Cl)c3)c2)c1 (3D coordinates assigned)
CC(=O)[N-]c1cccc(-c2cccc(NS(=O)(=O)c3cccc(Cl)c3)c2)c1 (optimized conformer: 56.59514653634161 kcal/mol)

>  <smiles>  (10) 
CC(=O)Nc1cccc(-c2cccc(NS(=O)(=O)c3cccc(Cl)c3)c2)c1

>  <score_type>  (10) 
oracle

>  <origin>  (10) 
adg

>  <m_score__min__energy>  (10) 
-12.029999999999999

>  <m_primary>  (10) 
energy

$$$$
10:0
     RDKit          3D

 75 79  0  0  0  0  0  0  0  0999 V2000
   57.5960   28.3400   43.4430 C   0  0  0  0  0  0  0  0  0  0  0  0
   56.8640   29.4460   44.2260 C   0  0  0  0  0  0  0  0  0  0  0  0
   55.4820   29.7260   43.6070 C   0  0  0  0  0  0  0  0  0  0  0  0
   57.7050   30.7300   44.1720 C   0  0  0  0  0  0  0  0  0  0  0  0
   56.7290   29.0860   45.6090 O   0  0  0  0  0  0  0  0  0  0  0  0
   57.6270   28.3150   46.3630 C   0  0  0  0  0  0  0  0  0  0  0  0
   57.4740   27.0660   46.4590 O   0  0  0  0  0  0  0  0  0  0  0  0
   58.7260   28.9520   47.0400 N   0  0  0  0  0  0  0  0  0  0  0  0
   59.6570   28.1360   47.8390 C   0  0  0  0  0  0  0  0  0  0  0  0
   60.5890   29.0140   48.6860 C   0  0  0  0  0  0  0  0  0  0  0  0
   59.7630   30.1270   49.3620 C   0  0  0  0  0  0  0  0  0  0  0  0
   60.5330   30.9330   50.3980 C   0  0  0  0  0  0  0  0  0  0  0  0
   60.5590   30.6730   51.7630 C   0  0  0  0  0  0  0  0  0  0  0  0
   59.8050   29.6510   52.5160 C   0  0  0  0  0  0  0  0  0  0  0  0
   60.3780   28.5700   52.8190 O   0  0  0  0  0  0  0  0  0  0  0  0
   58.4230   29.8470   52.8770 N   0  0  0  0  0  0  0  0  0  0  0  0
   57.5530   28.6670   53.0200 C   0  0  0  0  0  0  0  0  0  0  0  0
   56.1760   29.0410   53.5750 C   0  0  0  0  0  0  0  0  0  0  0  0
   55.6680   30.2370   52.8910 N   0  0  0  0  0  0  0  0  0  0  0  0
   54.3330   30.2490   52.3590 C   0  0  0  0  0  0  0  0  0  0  0  0
   53.3970   29.2860   52.7660 C   0  0  0  0  0  0  0  0  0  0  0  0
   52.1110   29.3060   52.2280 C   0  0  0  0  0  0  0  0  0  0  0  0
   51.7650   30.2800   51.2910 C   0  0  0  0  0  0  0  0  0  0  0  0
   52.7150   31.2280   50.9110 C   0  0  0  0  0  0  0  0  0  0  0  0
   53.9680   31.1950   51.4430 N   0  0  0  0  0  0  0  0  0  0  0  0
   56.5300   31.4190   52.7420 C   0  0  0  0  0  0  0  0  0  0  0  0
   57.9330   31.1670   53.3080 C   0  0  0  0  0  0  0  0  0  0  0  0
   61.4020   31.6250   52.3010 C   0  0  0  0  0  0  0  0  0  0  0  0
   61.8550   32.4240   51.3180 N   0  0  0  0  0  0  0  0  0  0  0  0
   61.3220   32.0150   50.1760 N   0  0  0  0  0  0  0  0  0  0  0  0
   61.6250   32.6470   48.9280 C   0  0  0  0  0  0  0  0  0  0  0  0
   62.8790   32.4470   48.3330 C   0  0  0  0  0  0  0  0  0  0  0  0
   63.1760   33.0490   47.1060 C   0  0  0  0  0  0  0  0  0  0  0  0
   62.2290   33.8610   46.4760 C   0  0  0  0  0  0  0  0  0  0  0  0
   60.9840   34.0820   47.0790 C   0  0  0  0  0  0  0  0  0  0  0  0
   59.7990   35.1110   46.2930 Cl  0  0  0  0  0  0  0  0  0  0  0  0
   60.6860   33.4820   48.3070 C   0  0  0  0  0  0  0  0  0  0  0  0
   59.0520   31.0400   48.3330 C   0  0  0  0  0  0  0  0  0  0  0  0
   58.9370   30.4060   46.9370 C   0  0  0  0  0  0  0  0  0  0  0  0
   58.0613   27.6370   44.1497 H   0  0  0  0  0  0  0  0  0  0  0  0
   56.8758   27.8008   42.8101 H   0  0  0  0  0  0  0  0  0  0  0  0
   58.3737   28.7922   42.8101 H   0  0  0  0  0  0  0  0  0  0  0  0
   54.7444   29.8754   44.4092 H   0  0  0  0  0  0  0  0  0  0  0  0
   55.5356   30.6315   42.9848 H   0  0  0  0  0  0  0  0  0  0  0  0
   55.1789   28.8710   42.9848 H   0  0  0  0  0  0  0  0  0  0  0  0
   57.9258   31.0670   45.1956 H   0  0  0  0  0  0  0  0  0  0  0  0
   58.6471   30.5292   43.6409 H   0  0  0  0  0  0  0  0  0  0  0  0
   57.1445   31.5134   43.6409 H   0  0  0  0  0  0  0  0  0  0  0  0
   59.0768   27.4824   48.5069 H   0  0  0  0  0  0  0  0  0  0  0  0
   60.2745   27.5417   47.1495 H   0  0  0  0  0  0  0  0  0  0  0  0
   61.0754   28.3976   49.4564 H   0  0  0  0  0  0  0  0  0  0  0  0
   61.3581   29.4647   48.0416 H   0  0  0  0  0  0  0  0  0  0  0  0
   58.9834   29.5950   49.9269 H   0  0  0  0  0  0  0  0  0  0  0  0
   57.4240   28.1978   52.0335 H   0  0  0  0  0  0  0  0  0  0  0  0
   58.0305   27.9734   53.7277 H   0  0  0  0  0  0  0  0  0  0  0  0
   55.4789   28.2054   53.4141 H   0  0  0  0  0  0  0  0  0  0  0  0
   56.2646   29.2502   54.6513 H   0  0  0  0  0  0  0  0  0  0  0  0
   53.6761   28.5203   53.5048 H   0  0  0  0  0  0  0  0  0  0  0  0
   51.3706   28.5553   52.5417 H   0  0  0  0  0  0  0  0  0  0  0  0
   50.7545   30.3001   50.8568 H   0  0  0  0  0  0  0  0  0  0  0  0
   52.4510   32.0052   50.1788 H   0  0  0  0  0  0  0  0  0  0  0  0
   54.6520   31.9290   51.1520 H   0  0  0  0  0  0  0  0  0  0  0  0
   56.6149   31.6670   51.6737 H   0  0  0  0  0  0  0  0  0  0  0  0
   56.0761   32.2497   53.3022 H   0  0  0  0  0  0  0  0  0  0  0  0
   58.6180   31.9464   52.9428 H   0  0  0  0  0  0  0  0  0  0  0  0
   57.8880   31.1931   54.4068 H   0  0  0  0  0  0  0  0  0  0  0  0
   61.6623   31.7159   53.3659 H   0  0  0  0  0  0  0  0  0  0  0  0
   63.6296   31.8162   48.8317 H   0  0  0  0  0  0  0  0  0  0  0  0
   64.1566   32.8831   46.6361 H   0  0  0  0  0  0  0  0  0  0  0  0
   62.4612   34.3265   45.5068 H   0  0  0  0  0  0  0  0  0  0  0  0
   59.7130   33.6658   48.7861 H   0  0  0  0  0  0  0  0  0  0  0  0
   58.0391   31.2594   48.7017 H   0  0  0  0  0  0  0  0  0  0  0  0
   59.6606   31.9504   48.2290 H   0  0  0  0  0  0  0  0  0  0  0  0
   58.0867   30.8572   46.4047 H   0  0  0  0  0  0  0  0  0  0  0  0
   59.8724   30.5890   46.3879 H   0  0  0  0  0  0  0  0  0  0  0  0
  1  2  1  0
  2  3  1  0
  2  4  1  0
  2  5  1  0
  5  6  1  0
  6  7  2  0
  6  8  1  0
  8  9  1  0
  9 10  1  0
 10 11  1  0
 11 12  1  0
 12 13  2  0
 13 14  1  0
 14 15  2  0
 14 16  1  0
 16 17  1  0
 17 18  1  0
 18 19  1  0
 19 20  1  0
 20 21  2  0
 21 22  1  0
 22 23  2  0
 23 24  1  0
 24 25  2  0
 19 26  1  0
 26 27  1  0
 13 28  1  0
 28 29  2  0
 29 30  1  0
 30 31  1  0
 31 32  2  0
 32 33  1  0
 33 34  2  0
 34 35  1  0
 35 36  1  0
 35 37  2  0
 11 38  1  0
 38 39  1  0
 39  8  1  0
 30 12  1  0
 37 31  1  0
 27 16  1  0
 25 20  1  0
  1 40  1  0
  1 41  1  0
  1 42  1  0
  3 43  1  0
  3 44  1  0
  3 45  1  0
  4 46  1  0
  4 47  1  0
  4 48  1  0
  9 49  1  0
  9 50  1  0
 10 51  1  0
 10 52  1  0
 11 53  1  0
 17 54  1  0
 17 55  1  0
 18 56  1  0
 18 57  1  0
 21 58  1  0
 22 59  1  0
 23 60  1  0
 24 61  1  0
 25 62  1  0
 26 63  1  0
 26 64  1  0
 27 65  1  0
 27 66  1  0
 28 67  1  0
 32 68  1  0
 33 69  1  0
 34 70  1  0
 37 71  1  0
 38 72  1  0
 38 73  1  0
 39 74  1  0
 39 75  1  0
M  CHG  1  25   1
M  END
>  <UniqueID>  (11) 
11

>  <SMILES>  (11) 
CC(C)(C)OC(=O)N1CCC(c2c(C(=O)N3CCN(c4cccc[nH+]4)CC3)cnn2-c2cccc(Cl)c2)CC1

>  <Energy>  (11) 
123.76247000930667

>  <Genealogy>  (11) 
CC(C)(C)OC(=O)N1CCC(c2c(C(=O)N3CCN(c4cccc[nH+]4)CC3)cnn2-c2cccc(Cl)c2)CC1 (protonated)
CC(C)(C)OC(=O)N1CCC(c2c(C(=O)N3CCN(c4cccc[nH+]4)CC3)cnn2-c2cccc(Cl)c2)CC1 (3D coordinates assigned)
CC(C)(C)OC(=O)N1CCC(c2c(C(=O)N3CCN(c4cccc[nH+]4)CC3)cnn2-c2cccc(Cl)c2)CC1 (nonaromatic ring conformer: 123.76247000930667 kcal/mol)

>  <smiles>  (11) 
CC(C)(C)OC(=O)N1CCC(c2c(C(=O)N3CCN(c4ccccn4)CC3)cnn2-c2cccc(Cl)c2)CC1

>  <score_type>  (11) 
oracle

>  <origin>  (11) 
adg

>  <m_score__min__energy>  (11) 
-8.4000000000000004

>  <m_primary>  (11) 
energy

$$$$
11:0
     RDKit          3D

 31 33  0  0  0  0  0  0  0  0999 V2000
   55.9240   27.4610   45.6250 F   0  0  0  0  0  0  0  0  0  0  0  0
   56.5630   26.2690   45.9250 C   0  0  0  0  0  0  0  0  0  0  0  0
   56.4500   25.4290   44.8350 F   0  0  0  0  0  0  0  0  0  0  0  0
   55.9090   25.7100   47.0080 F   0  0  0  0  0  0  0  0  0  0  0  0
   58.0280   26.4970   46.2360 C   0  0  0  0  0  0  0  0  0  0  0  0
   58.5120   26.2080   47.5270 C   0  0  0  0  0  0  0  0  0  0  0  0
   59.8570   26.3940   47.8370 C   0  0  0  0  0  0  0  0  0  0  0  0
   60.7220   26.8740   46.8590 C   0  0  0  0  0  0  0  0  0  0  0  0
   60.2530   27.1790   45.6220 N   0  0  0  0  0  0  0  0  0  0  0  0
   58.9370   27.0370   45.2900 C   0  0  0  0  0  0  0  0  0  0  0  0
   58.4260   27.5290   43.6300 S   0  0  0  0  0  0  0  0  0  0  0  0
   57.9170   29.1760   44.1310 C   0  0  0  0  0  0  0  0  0  0  0  0
   56.6490   29.6600   43.7920 C   0  0  0  0  0  0  0  0  0  0  0  0
   56.2690   30.9110   44.1680 N   0  0  0  0  0  0  0  0  0  0  0  0
   57.0980   31.7290   44.8710 C   0  0  0  0  0  0  0  0  0  0  0  0
   56.6710   33.0080   45.2460 C   0  0  0  0  0  0  0  0  0  0  0  0
   57.5290   33.8500   45.9610 C   0  0  0  0  0  0  0  0  0  0  0  0
   58.8160   33.4180   46.3040 C   0  0  0  0  0  0  0  0  0  0  0  0
   59.9810   34.5750   47.2810 Br  0  0  0  0  0  0  0  0  0  0  0  0
   59.2510   32.1400   45.9320 C   0  0  0  0  0  0  0  0  0  0  0  0
   58.3950   31.2900   45.2150 C   0  0  0  0  0  0  0  0  0  0  0  0
   58.8010   30.0060   44.8300 C   0  0  0  0  0  0  0  0  0  0  0  0
   57.8218   25.8323   48.2967 H   0  0  0  0  0  0  0  0  0  0  0  0
   60.2316   26.1636   48.8453 H   0  0  0  0  0  0  0  0  0  0  0  0
   61.7895   27.0069   47.0887 H   0  0  0  0  0  0  0  0  0  0  0  0
   60.9280   27.5410   44.9110 H   0  0  0  0  0  0  0  0  0  0  0  0
   55.9562   29.0263   43.2189 H   0  0  0  0  0  0  0  0  0  0  0  0
   55.6607   33.3510   44.9784 H   0  0  0  0  0  0  0  0  0  0  0  0
   57.1916   34.8549   46.2548 H   0  0  0  0  0  0  0  0  0  0  0  0
   60.2627   31.8027   46.2015 H   0  0  0  0  0  0  0  0  0  0  0  0
   59.8124   29.6507   45.0765 H   0  0  0  0  0  0  0  0  0  0  0  0
  1  2  1  0
  2  3  1  0
  2  4  1  0
  2  5  1  0
  5  6  2  0
  6  7  1  0
  7  8  2  0
  8  9  1  0
  9 10  2  0
 10 11  1  0
 11 12  1  0
 12 13  2  0
 13 14  1  0
 14 15  2  0
 15 16  1  0
 16 17  2  0
 17 18  1  0
 18 19  1  0
 18 20  2  0
 20 21  1  0
 21 22  2  0
 10  5  1  0
 22 12  1  0
 21 15  1  0
  6 23  1  0
  7 24  1  0
  8 25  1  0
  9 26  1  0
 13 27  1  0
 16 28  1  0
 17 29  1  0
 20 30  1  0
 22 31  1  0
M  CHG  1   9   1
M  END
>  <UniqueID>  (12) 
12

>  <SMILES>  (12) 
FC(F)(F)c1ccc[nH+]c1Sc1cnc2ccc(Br)cc2c1

>  <Energy>  (12) 
36.315546947909716

>  <Genealogy>  (12) 
FC(F)(F)c1ccc[nH+]c1Sc1cnc2ccc(Br)cc2c1 (protonated)
FC(F)(F)c1ccc[nH+]c1Sc1cnc2ccc(Br)cc2c1 (3D coordinates assigned)
FC(F)(F)c1ccc[nH+]c1Sc1cnc2ccc(Br)cc2c1 (optimized conformer: 36.315546947909716 kcal/mol)

>  <smiles>  (12) 
FC(F)(F)c1cccnc1Sc1cnc2ccc(Br)cc2c1

>  <score_type>  (12) 
oracle

>  <origin>  (12) 
adg

>  <m_score__min__energy>  (12) 
-6.0999999999999996

>  <m_primary>  (12) 
energy

$$$$
12:0
     RDKit          3D

 57 60  0  0  0  0  0  0  0  0999 V2000
   56.5180   23.3320   43.1000 C   0  0  0  0  0  0  0  0  0  0  0  0
   56.6260   23.5330   44.6090 C   0  0  0  0  0  0  0  0  0  0  0  0
   57.1220   24.8360   44.9090 O   0  0  0  0  0  0  0  0  0  0  0  0
   56.4080   25.7800   45.6580 C   0  0  0  0  0  0  0  0  0  0  0  0
   55.2310   25.5350   46.0360 O   0  0  0  0  0  0  0  0  0  0  0  0
   57.0560   27.0560   46.0060 C   0  0  0  0  0  0  0  0  0  0  0  0
   56.6450   28.5360   45.3190 S   0  0  0  0  0  0  0  0  0  0  0  0
   57.7910   29.3950   46.2070 C   0  0  0  0  0  0  0  0  0  0  0  0
   57.9880   30.8210   46.1640 N   0  0  0  0  0  0  0  0  0  0  0  0
   57.4650   31.6510   45.2380 C   0  0  0  0  0  0  0  0  0  0  0  0
   56.6340   31.2460   44.2000 O   0  0  0  0  0  0  0  0  0  0  0  0
   57.8860   32.9420   45.4530 C   0  0  0  0  0  0  0  0  0  0  0  0
   57.5550   34.0580   44.6900 O   0  0  0  0  0  0  0  0  0  0  0  0
   58.6950   32.9290   46.5720 C   0  0  0  0  0  0  0  0  0  0  0  0
   59.3710   34.1050   47.1630 C   0  0  0  0  0  0  0  0  0  0  0  0
   58.8290   35.2380   47.0610 O   0  0  0  0  0  0  0  0  0  0  0  0
   60.6660   33.9910   47.8630 C   0  0  0  0  0  0  0  0  0  0  0  0
   60.7270   34.0440   49.2640 C   0  0  0  0  0  0  0  0  0  0  0  0
   61.9480   33.8800   49.9240 C   0  0  0  0  0  0  0  0  0  0  0  0
   63.1270   33.6890   49.1900 C   0  0  0  0  0  0  0  0  0  0  0  0
   64.4260   33.4470   49.9010 C   0  0  0  0  0  0  0  0  0  0  0  0
   63.0700   33.6540   47.7890 C   0  0  0  0  0  0  0  0  0  0  0  0
   61.8490   33.8200   47.1290 C   0  0  0  0  0  0  0  0  0  0  0  0
   58.7470   31.5940   46.9850 C   0  0  0  0  0  0  0  0  0  0  0  0
   59.4990   31.0920   48.1570 C   0  0  0  0  0  0  0  0  0  0  0  0
   58.8720   31.1020   49.4130 C   0  0  0  0  0  0  0  0  0  0  0  0
   59.5740   30.7160   50.5570 C   0  0  0  0  0  0  0  0  0  0  0  0
   60.9060   30.3140   50.4570 C   0  0  0  0  0  0  0  0  0  0  0  0
   61.5350   30.2750   49.2090 C   0  0  0  0  0  0  0  0  0  0  0  0
   60.8360   30.6390   48.0460 C   0  0  0  0  0  0  0  0  0  0  0  0
   61.5380   30.5660   46.7160 C   0  0  0  0  0  0  0  0  0  0  0  0
   58.4760   28.5810   47.0390 N   0  0  0  0  0  0  0  0  0  0  0  0
   58.0830   27.2830   46.9340 C   0  0  0  0  0  0  0  0  0  0  0  0
   58.7190   26.2170   47.7690 C   0  0  0  0  0  0  0  0  0  0  0  0
   56.0067   22.3804   42.8925 H   0  0  0  0  0  0  0  0  0  0  0  0
   55.9436   24.1605   42.6599 H   0  0  0  0  0  0  0  0  0  0  0  0
   57.5259   23.3103   42.6599 H   0  0  0  0  0  0  0  0  0  0  0  0
   55.6307   23.4123   45.0617 H   0  0  0  0  0  0  0  0  0  0  0  0
   57.3233   22.7863   45.0166 H   0  0  0  0  0  0  0  0  0  0  0  0
   57.7650   34.9940   45.0160 H   0  0  0  0  0  0  0  0  0  0  0  0
   59.8092   34.2155   49.8456 H   0  0  0  0  0  0  0  0  0  0  0  0
   61.9840   33.9009   51.0232 H   0  0  0  0  0  0  0  0  0  0  0  0
   64.2603   33.4779   50.9880 H   0  0  0  0  0  0  0  0  0  0  0  0
   64.8205   32.4599   49.6181 H   0  0  0  0  0  0  0  0  0  0  0  0
   65.1495   34.2258   49.6181 H   0  0  0  0  0  0  0  0  0  0  0  0
   63.9900   33.4953   47.2072 H   0  0  0  0  0  0  0  0  0  0  0  0
   61.8158   33.8165   46.0295 H   0  0  0  0  0  0  0  0  0  0  0  0
   57.8211   31.4159   49.4967 H   0  0  0  0  0  0  0  0  0  0  0  0
   59.0761   30.7290   51.5378 H   0  0  0  0  0  0  0  0  0  0  0  0
   61.4624   30.0272   51.3615 H   0  0  0  0  0  0  0  0  0  0  0  0
   62.5855   29.9568   49.1371 H   0  0  0  0  0  0  0  0  0  0  0  0
   62.6201   30.4535   46.8783 H   0  0  0  0  0  0  0  0  0  0  0  0
   61.1605   29.7023   46.1490 H   0  0  0  0  0  0  0  0  0  0  0  0
   61.3463   31.4889   46.1490 H   0  0  0  0  0  0  0  0  0  0  0  0
   58.5783   26.4528   48.8342 H   0  0  0  0  0  0  0  0  0  0  0  0
   58.2519   25.2470   47.5434 H   0  0  0  0  0  0  0  0  0  0  0  0
   59.7945   26.1674   47.5434 H   0  0  0  0  0  0  0  0  0  0  0  0
  1  2  1  0
  2  3  1  0
  3  4  1  0
  4  5  2  0
  4  6  1  0
  6  7  1  0
  7  8  1  0
  8  9  1  0
  9 10  1  0
 10 11  1  0
 10 12  2  0
 12 13  1  0
 12 14  1  0
 14 15  1  0
 15 16  2  0
 15 17  1  0
 17 18  2  0
 18 19  1  0
 19 20  2  0
 20 21  1  0
 20 22  1  0
 22 23  2  0
 14 24  2  0
 24 25  1  0
 25 26  2  0
 26 27  1  0
 27 28  2  0
 28 29  1  0
 29 30  2  0
 30 31  1  0
  8 32  2  0
 32 33  1  0
 33 34  1  0
 33  6  2  0
 24  9  1  0
 30 25  1  0
 23 17  1  0
  1 35  1  0
  1 36  1  0
  1 37  1  0
  2 38  1  0
  2 39  1  0
 13 40  1  0
 18 41  1  0
 19 42  1  0
 21 43  1  0
 21 44  1  0
 21 45  1  0
 22 46  1  0
 23 47  1  0
 26 48  1  0
 27 49  1  0
 28 50  1  0
 29 51  1  0
 31 52  1  0
 31 53  1  0
 31 54  1  0
 34 55  1  0
 34 56  1  0
 34 57  1  0
M  CHG  1  11  -1
M  END
>  <UniqueID>  (13) 
13

>  <SMILES>  (13) 
CCOC(=O)c1sc(-n2c([O-])c(O)c(C(=O)c3ccc(C)cc3)c2-c2ccccc2C)nc1C

>  <Energy>  (13) 
126.32479747205996

>  <Genealogy>  (13) 
CCOC(=O)c1sc(-n2c([O-])c(O)c(C(=O)c3ccc(C)cc3)c2-c2ccccc2C)nc1C (protonated)
CCOC(=O)c1sc(-n2c([O-])c(O)c(C(=O)c3ccc(C)cc3)c2-c2ccccc2C)nc1C (3D coordinates assigned)
CCOC(=O)c1sc(-n2c([O-])c(O)c(C(=O)c3ccc(C)cc3)c2-c2ccccc2C)nc1C (optimized conformer: 126.32479747205996 kcal/mol)

>  <smiles>  (13) 
CCOC(=O)c1sc(-n2c(O)c(O)c(C(=O)c3ccc(C)cc3)c2-c2ccccc2C)nc1C

>  <score_type>  (13) 
oracle

>  <origin>  (13) 
adg

>  <m_score__min__energy>  (13) 
-9.4600000000000009

>  <m_primary>  (13) 
energy

$$$$
13:0
     RDKit          3D

 31 33  0  0  0  0  0  0  0  0999 V2000
   57.8170   32.0380   50.4530 C   0  0  0  0  0  0  0  0  0  0  0  0
   58.2490   32.1730   51.8900 C   0  0  0  0  0  0  0  0  0  0  0  0
   59.4560   32.8360   52.1720 C   0  0  0  0  0  0  0  0  0  0  0  0
   59.9180   32.9460   53.4850 C   0  0  0  0  0  0  0  0  0  0  0  0
   59.1800   32.3990   54.5330 C   0  0  0  0  0  0  0  0  0  0  0  0
   57.9690   31.7550   54.2760 C   0  0  0  0  0  0  0  0  0  0  0  0
   57.4760   31.6550   52.9630 C   0  0  0  0  0  0  0  0  0  0  0  0
   56.1740   30.9850   52.7590 C   0  0  0  0  0  0  0  0  0  0  0  0
   56.0250   29.6130   52.9790 C   0  0  0  0  0  0  0  0  0  0  0  0
   54.7820   29.0140   52.7660 C   0  0  0  0  0  0  0  0  0  0  0  0
   54.6890   27.7690   52.9160 O   0  0  0  0  0  0  0  0  0  0  0  0
   53.6820   29.8060   52.3560 C   0  0  0  0  0  0  0  0  0  0  0  0
   52.3590   29.3130   52.1470 C   0  0  0  0  0  0  0  0  0  0  0  0
   51.9530   28.0100   52.4520 O   0  0  0  0  0  0  0  0  0  0  0  0
   51.3780   30.1680   51.6280 C   0  0  0  0  0  0  0  0  0  0  0  0
   51.6570   31.5080   51.3700 C   0  0  0  0  0  0  0  0  0  0  0  0
   50.6640   32.3410   50.8700 O   0  0  0  0  0  0  0  0  0  0  0  0
   52.9300   32.0160   51.6200 C   0  0  0  0  0  0  0  0  0  0  0  0
   53.9410   31.1820   52.1050 C   0  0  0  0  0  0  0  0  0  0  0  0
   55.1460   31.6990   52.3180 O   0  0  0  0  0  0  0  0  0  0  0  0
   56.7677   31.7101   50.4148 H   0  0  0  0  0  0  0  0  0  0  0  0
   57.9160   33.0099   49.9475 H   0  0  0  0  0  0  0  0  0  0  0  0
   58.4518   31.2954   49.9475 H   0  0  0  0  0  0  0  0  0  0  0  0
   60.0424   33.2725   51.3501 H   0  0  0  0  0  0  0  0  0  0  0  0
   60.8655   33.4649   53.6924 H   0  0  0  0  0  0  0  0  0  0  0  0
   59.5529   32.4751   55.5651 H   0  0  0  0  0  0  0  0  0  0  0  0
   57.3949   31.3216   55.1082 H   0  0  0  0  0  0  0  0  0  0  0  0
   56.8803   29.0097   53.3173 H   0  0  0  0  0  0  0  0  0  0  0  0
   52.5480   27.1970   52.4100 H   0  0  0  0  0  0  0  0  0  0  0  0
   50.3717   29.7749   51.4210 H   0  0  0  0  0  0  0  0  0  0  0  0
   53.1405   33.0796   51.4346 H   0  0  0  0  0  0  0  0  0  0  0  0
  1  2  1  0
  2  3  2  0
  3  4  1  0
  4  5  2  0
  5  6  1  0
  6  7  2  0
  7  8  1  0
  8  9  2  0
  9 10  1  0
 10 11  2  0
 10 12  1  0
 12 13  2  0
 13 14  1  0
 13 15  1  0
 15 16  2  0
 16 17  1  0
 16 18  1  0
 18 19  2  0
 19 20  1  0
  7  2  1  0
 20  8  1  0
 19 12  1  0
  1 21  1  0
  1 22  1  0
  1 23  1  0
  3 24  1  0
  4 25  1  0
  5 26  1  0
  6 27  1  0
  9 28  1  0
 14 29  1  0
 15 30  1  0
 18 31  1  0
M  CHG  1  17  -1
M  END
>  <UniqueID>  (14) 
14

>  <SMILES>  (14) 
Cc1ccccc1-c1cc(=O)c2c(O)cc([O-])cc2o1

>  <Energy>  (14) 
51.91286382832202

>  <Genealogy>  (14) 
Cc1ccccc1-c1cc(=O)c2c(O)cc([O-])cc2o1 (protonated)
Cc1ccccc1-c1cc(=O)c2c(O)cc([O-])cc2o1 (3D coordinates assigned)
Cc1ccccc1-c1cc(=O)c2c(O)cc([O-])cc2o1 (optimized conformer: 51.91286382832202 kcal/mol)

>  <smiles>  (14) 
Cc1ccccc1-c1cc(=O)c2c(O)cc(O)cc2o1

>  <score_type>  (14) 
oracle

>  <origin>  (14) 
adg

>  <m_score__min__energy>  (14) 
-9.4100000000000001

>  <m_primary>  (14) 
energy

$$$$
14:0
     RDKit          3D

 50 53  0  0  1  0  0  0  0  0999 V2000
   63.4120   32.4080   47.4220 C   0  0  0  0  0  0  0  0  0  0  0  0
   62.3860   32.5320   48.3850 O   0  0  0  0  0  0  0  0  0  0  0  0
   61.8600   31.4490   49.0750 C   0  0  0  0  0  0  0  0  0  0  0  0
   61.8370   31.3660   50.4520 C   0  0  0  0  0  0  0  0  0  0  0  0
   61.2950   30.2490   51.0830 C   0  0  0  0  0  0  0  0  0  0  0  0
   60.7660   29.1960   50.3550 C   0  0  0  0  0  0  0  0  0  0  0  0
   60.7920   29.2850   48.9770 C   0  0  0  0  0  0  0  0  0  0  0  0
   60.2780   28.2670   48.1250 N   0  0  0  0  0  0  0  0  0  0  0  0
   59.4420   28.4620   47.1740 C   0  0  0  0  0  0  0  0  0  0  0  0
   58.8480   27.3660   46.5880 C   0  0  0  0  0  0  0  0  0  0  0  0
   57.9530   27.6140   45.5660 C   0  0  0  0  0  0  0  0  0  0  0  0
   57.2870   26.5520   44.8960 N   0  0  0  0  0  0  0  0  0  0  0  0
   57.2350   25.2730   45.5960 C   0  0  0  0  0  0  0  0  0  0  0  0
   55.8380   25.0960   46.1290 C   0  0  0  0  0  0  0  0  0  0  0  0
   55.0830   26.3360   45.9730 N   0  0  0  0  0  0  0  0  0  0  0  0
   57.6720   28.8760   45.1610 N   0  0  0  0  0  0  0  0  0  0  0  0
   56.8580   29.3600   44.2150 N   0  0  0  0  0  0  0  0  0  0  0  0
   56.9260   30.7050   44.1950 C   0  0  0  0  0  0  0  0  0  0  0  0
   57.8220   31.0890   45.1710 C   0  0  0  0  0  0  0  0  0  0  0  0
   58.2620   32.4120   45.5700 C   0  0  0  0  0  0  0  0  0  0  0  0
   58.5310   33.3200   44.5420 C   0  0  0  0  0  0  0  0  0  0  0  0
   58.9560   34.6060   44.7950 C   0  0  0  0  0  0  0  0  0  0  0  0
   59.1050   34.9570   46.1330 C   0  0  0  0  0  0  0  0  0  0  0  0
   58.8400   34.0630   47.1580 C   0  0  0  0  0  0  0  0  0  0  0  0
   58.4140   32.7730   46.8870 C   0  0  0  0  0  0  0  0  0  0  0  0
   58.2650   29.9300   45.7500 C   0  0  0  0  0  0  0  0  0  0  0  0
   59.1380   29.6960   46.7450 N   0  0  0  0  0  0  0  0  0  0  0  0
   61.3370   30.4070   48.3500 C   0  0  0  0  0  0  0  0  0  0  0  0
   64.3802   32.2910   47.9308 H   0  0  0  0  0  0  0  0  0  0  0  0
   63.2196   31.5266   46.7927 H   0  0  0  0  0  0  0  0  0  0  0  0
   63.4351   33.3099   46.7927 H   0  0  0  0  0  0  0  0  0  0  0  0
   62.2496   32.1878   51.0557 H   0  0  0  0  0  0  0  0  0  0  0  0
   61.2868   30.2020   52.1820 H   0  0  0  0  0  0  0  0  0  0  0  0
   60.3386   28.3164   50.8586 H   0  0  0  0  0  0  0  0  0  0  0  0
   59.0758   26.3418   46.9184 H   0  0  0  0  0  0  0  0  0  0  0  0
   56.8770   26.7140   43.9670 H   0  0  0  0  0  0  0  0  0  0  0  0
   57.4764   24.4557   44.9004 H   0  0  0  0  0  0  0  0  0  0  0  0
   57.9650   25.2555   46.4187 H   0  0  0  0  0  0  0  0  0  0  0  0
   55.3352   24.2910   45.5729 H   0  0  0  0  0  0  0  0  0  0  0  0
   55.8892   24.8364   47.1967 H   0  0  0  0  0  0  0  0  0  0  0  0
   55.5750   27.1470   46.4100 H   0  0  0  0  0  0  0  0  0  0  0  0
   54.1260   26.2640   46.3620 H   0  0  0  0  0  0  0  0  0  0  0  0
   56.2430   28.8260   43.5640 H   0  0  0  0  0  0  0  0  0  0  0  0
   56.3690   31.3747   43.5233 H   0  0  0  0  0  0  0  0  0  0  0  0
   58.3993   32.9979   43.4985 H   0  0  0  0  0  0  0  0  0  0  0  0
   59.1663   35.3171   43.9825 H   0  0  0  0  0  0  0  0  0  0  0  0
   59.4428   35.9732   46.3844 H   0  0  0  0  0  0  0  0  0  0  0  0
   58.9699   34.3824   48.2026 H   0  0  0  0  0  0  0  0  0  0  0  0
   58.2044   32.0613   47.6992 H   0  0  0  0  0  0  0  0  0  0  0  0
   61.3476   30.4573   47.2512 H   0  0  0  0  0  0  0  0  0  0  0  0
  1  2  1  0
  2  3  1  0
  3  4  2  0
  4  5  1  0
  5  6  2  0
  6  7  1  0
  7  8  1  0
  8  9  2  0
  9 10  1  0
 10 11  2  0
 11 12  1  0
 12 13  1  0
 13 14  1  0
 14 15  1  0
 11 16  1  0
 16 17  1  0
 17 18  1  0
 18 19  2  0
 19 20  1  0
 20 21  2  0
 21 22  1  0
 22 23  2  0
 23 24  1  0
 24 25  2  0
 19 26  1  0
 26 27  2  0
  7 28  2  0
 28  3  1  0
 27  9  1  0
 26 16  1  0
 25 20  1  0
  1 29  1  0
  1 30  1  0
  1 31  1  0
  4 32  1  0
  5 33  1  0
  6 34  1  0
 10 35  1  0
 12 36  1  0
 13 37  1  0
 13 38  1  0
 14 39  1  0
 14 40  1  0
 15 41  1  0
 15 42  1  0
 17 43  1  0
 18 44  1  0
 21 45  1  0
 22 46  1  0
 23 47  1  0
 24 48  1  0
 25 49  1  0
 28 50  1  0
M  END
>  <smiles>  (15) 
COc1cccc(N=c2cc(NCCN)n3[nH]cc(-c4ccccc4)c3n2)c1

>  <score_type>  (15) 
oracle

>  <origin>  (15) 
adg

>  <m_score__min__energy>  (15) 
-8.9900000000000002

>  <m_primary>  (15) 
energy

$$$$
15:0
     RDKit          3D

 33 34  0  0  0  0  0  0  0  0999 V2000
   56.2960   29.8140   42.7320 C   0  0  0  0  0  0  0  0  0  0  0  0
   56.8530   30.8910   43.2850 C   0  0  0  0  0  0  0  0  0  0  0  0
   56.6430   31.2650   44.6220 O   0  0  0  0  0  0  0  0  0  0  0  0
   57.2710   32.3340   45.2780 C   0  0  0  0  0  0  0  0  0  0  0  0
   56.6450   33.4100   45.4870 O   0  0  0  0  0  0  0  0  0  0  0  0
   58.6260   32.1860   45.7450 N   0  0  0  0  0  0  0  0  0  0  0  0
   59.4710   33.3760   45.8790 C   0  0  0  0  0  0  0  0  0  0  0  0
   59.1040   30.9140   46.2250 C   0  0  0  0  0  0  0  0  0  0  0  0
   60.0400   30.8520   47.2710 C   0  0  0  0  0  0  0  0  0  0  0  0
   60.5110   29.6180   47.7250 C   0  0  0  0  0  0  0  0  0  0  0  0
   60.0530   28.4350   47.1420 C   0  0  0  0  0  0  0  0  0  0  0  0
   59.1090   28.4780   46.1000 C   0  0  0  0  0  0  0  0  0  0  0  0
   58.6380   27.3140   45.4780 O   0  0  0  0  0  0  0  0  0  0  0  0
   57.4070   26.7060   45.7480 C   0  0  0  0  0  0  0  0  0  0  0  0
   57.2430   25.3950   46.1240 C   0  0  0  0  0  0  0  0  0  0  0  0
   55.8810   25.2170   46.2830 C   0  0  0  0  0  0  0  0  0  0  0  0
   55.2020   26.3500   46.0020 N   0  0  0  0  0  0  0  0  0  0  0  0
   56.1390   27.2550   45.6630 C   0  0  0  0  0  0  0  0  0  0  0  0
   55.8240   28.5440   45.2410 O   0  0  0  0  0  0  0  0  0  0  0  0
   58.6530   29.7180   45.6390 C   0  0  0  0  0  0  0  0  0  0  0  0
   56.4972   29.5704   41.6783 H   0  0  0  0  0  0  0  0  0  0  0  0
   55.6351   29.1686   43.3292 H   0  0  0  0  0  0  0  0  0  0  0  0
   57.5095   31.5177   42.6635 H   0  0  0  0  0  0  0  0  0  0  0  0
   59.6275   33.5964   46.9453 H   0  0  0  0  0  0  0  0  0  0  0  0
   60.4422   33.1924   45.3962 H   0  0  0  0  0  0  0  0  0  0  0  0
   58.9775   34.2324   45.3962 H   0  0  0  0  0  0  0  0  0  0  0  0
   60.4039   31.7806   47.7350 H   0  0  0  0  0  0  0  0  0  0  0  0
   61.2445   29.5781   48.5438 H   0  0  0  0  0  0  0  0  0  0  0  0
   60.4317   27.4658   47.4988 H   0  0  0  0  0  0  0  0  0  0  0  0
   58.0321   24.6424   46.2687 H   0  0  0  0  0  0  0  0  0  0  0  0
   55.4110   24.2737   46.5979 H   0  0  0  0  0  0  0  0  0  0  0  0
   56.3270   29.3550   45.5780 H   0  0  0  0  0  0  0  0  0  0  0  0
   57.9331   29.7576   44.8082 H   0  0  0  0  0  0  0  0  0  0  0  0
  1  2  2  0
  2  3  1  0
  3  4  1  0
  4  5  2  0
  4  6  1  0
  6  7  1  0
  6  8  1  0
  8  9  2  0
  9 10  1  0
 10 11  2  0
 11 12  1  0
 12 13  1  0
 13 14  1  0
 14 15  1  0
 15 16  2  0
 16 17  1  0
 17 18  1  0
 18 19  1  0
 12 20  2  0
 20  8  1  0
 18 14  2  0
  1 21  1  0
  1 22  1  0
  2 23  1  0
  7 24  1  0
  7 25  1  0
  7 26  1  0
  9 27  1  0
 10 28  1  0
 11 29  1  0
 15 30  1  0
 16 31  1  0
 19 32  1  0
 20 33  1  0
M  CHG  1  17  -1
M  END
>  <UniqueID>  (16) 
15

>  <SMILES>  (16) 
C=COC(=O)N(C)c1cccc(Oc2cc[n-]c2O)c1

>  <Energy>  (16) 
74.16848443952782

>  <Genealogy>  (16) 
C=COC(=O)N(C)c1cccc(Oc2cc[n-]c2O)c1 (protonated)
C=COC(=O)N(C)c1cccc(Oc2cc[n-]c2O)c1 (3D coordinates assigned)
C=COC(=O)N(C)c1cccc(Oc2cc[n-]c2O)c1 (optimized conformer: 74.16848443952782 kcal/mol)

>  <smiles>  (16) 
C=COC(=O)N(C)c1cccc(Oc2cc[nH]c2O)c1

>  <score_type>  (16) 
oracle

>  <origin>  (16) 
adg

>  <m_score__min__energy>  (16) 
-8.9900000000000002

>  <m_primary>  (16) 
energy

$$$$
16:0
     RDKit          3D

 33 35  0  0  0  0  0  0  0  0999 V2000
   53.9630   26.7230   46.3800 H   0  0  0  0  0  0  0  0  0  0  0  0
   54.7120   26.2850   45.8010 N   0  0  0  0  0  0  0  0  0  0  0  0
   55.9860   25.9740   46.3610 C   0  0  0  0  0  0  0  0  0  0  0  0
   56.1350   24.8870   46.9830 O   0  0  0  0  0  0  0  0  0  0  0  0
   57.1220   26.9160   46.2170 C   0  0  0  0  0  0  0  0  0  0  0  0
   57.0040   28.0580   45.4060 C   0  0  0  0  0  0  0  0  0  0  0  0
   56.0624   28.2527   44.8717 H   0  0  0  0  0  0  0  0  0  0  0  0
   58.0730   28.9480   45.2730 C   0  0  0  0  0  0  0  0  0  0  0  0
   57.9711   29.8304   44.6241 H   0  0  0  0  0  0  0  0  0  0  0  0
   59.2740   28.7250   45.9600 C   0  0  0  0  0  0  0  0  0  0  0  0
   60.3870   29.6850   45.7900 C   0  0  0  0  0  0  0  0  0  0  0  0
   60.8786   29.7379   44.8074 H   0  0  0  0  0  0  0  0  0  0  0  0
   60.8200   30.4720   46.7350 N   0  0  0  0  0  0  0  0  0  0  0  0
   60.0360   30.9360   47.8120 N   0  0  0  0  0  0  0  0  0  0  0  0
   59.4090   32.1580   47.7620 C   0  0  0  0  0  0  0  0  0  0  0  0
   59.5780   33.1630   46.4760 S   0  0  0  0  0  0  0  0  0  0  0  0
   58.6640   32.5850   48.8130 N   0  0  0  0  0  0  0  0  0  0  0  0
   58.5320   31.8390   49.9380 C   0  0  0  0  0  0  0  0  0  0  0  0
   57.7480   32.3060   51.0000 C   0  0  0  0  0  0  0  0  0  0  0  0
   57.2297   33.2727   50.9174 H   0  0  0  0  0  0  0  0  0  0  0  0
   57.6240   31.5440   52.1650 C   0  0  0  0  0  0  0  0  0  0  0  0
   57.0065   31.9113   52.9979 H   0  0  0  0  0  0  0  0  0  0  0  0
   58.2830   30.3160   52.2740 C   0  0  0  0  0  0  0  0  0  0  0  0
   58.1831   29.7194   53.1928 H   0  0  0  0  0  0  0  0  0  0  0  0
   59.0690   29.8440   51.2180 C   0  0  0  0  0  0  0  0  0  0  0  0
   59.5878   28.8783   51.3083 H   0  0  0  0  0  0  0  0  0  0  0  0
   59.1970   30.6030   50.0400 C   0  0  0  0  0  0  0  0  0  0  0  0
   59.9690   30.1750   48.9470 C   0  0  0  0  0  0  0  0  0  0  0  0
   60.5900   29.0760   49.0020 O   0  0  0  0  0  0  0  0  0  0  0  0
   59.4080   27.5670   46.7450 C   0  0  0  0  0  0  0  0  0  0  0  0
   60.3598   27.3593   47.2558 H   0  0  0  0  0  0  0  0  0  0  0  0
   58.3380   26.6780   46.8800 C   0  0  0  0  0  0  0  0  0  0  0  0
   58.4487   25.7838   47.5110 H   0  0  0  0  0  0  0  0  0  0  0  0
  1  2  1  0
  2  3  1  0
  3  4  2  0
  3  5  1  0
  5  6  2  0
  6  7  1  0
  6  8  1  0
  8  9  1  0
  8 10  2  0
 10 11  1  0
 11 12  1  0
 11 13  2  0
 13 14  1  0
 14 15  1  0
 15 16  2  0
 15 17  1  0
 17 18  1  0
 18 19  2  0
 19 20  1  0
 19 21  1  0
 21 22  1  0
 21 23  2  0
 23 24  1  0
 23 25  1  0
 25 26  1  0
 25 27  2  0
 27 28  1  0
 28 29  2  0
 10 30  1  0
 30 31  1  0
 30 32  2  0
 32 33  1  0
 32  5  1  0
 28 14  1  0
 27 18  1  0
M  CHG  2   2  -1  17  -1
M  END
>  <UniqueID>  (17) 
16

>  <SMILES>  (17) 
[NH-]C(=O)c1ccc(/C=N\n2c(=S)[n-]c3ccccc3c2=O)cc1

>  <Energy>  (17) 
55.64088000044364

>  <Genealogy>  (17) 
[NH-]C(=O)c1ccc(C=Nn2c(=S)[n-]c3ccccc3c2=O)cc1 (protonated)
[NH-]C(=O)c1ccc(/C=N\n2c(=S)[n-]c3ccccc3c2=O)cc1 (cis-trans isomerization)
[NH-]C(=O)c1ccc(/C=N\n2c(=S)[n-]c3ccccc3c2=O)cc1 (3D coordinates assigned)
[NH-]C(=O)c1ccc(/C=N\n2c(=S)[n-]c3ccccc3c2=O)cc1 (optimized conformer: 55.64088000044364 kcal/mol)

>  <smiles>  (17) 
NC(=O)c1ccc(C=Nn2c(=S)[nH]c3ccccc3c2=O)cc1

>  <score_type>  (17) 
oracle

>  <origin>  (17) 
adg

>  <m_score__min__energy>  (17) 
-11.31

>  <m_primary>  (17) 
energy

$$$$
17:0
     RDKit          3D

 55 57  0  0  0  0  0  0  0  0999 V2000
   54.8643   24.7039   46.7380 H   0  0  0  0  0  0  0  0  0  0  0  0
   55.6760   25.2890   46.2810 C   0  0  0  0  0  0  0  0  0  0  0  0
   55.4990   26.6090   46.0230 N   0  0  0  0  0  0  0  0  0  0  0  0
   56.4560   27.3980   45.4600 C   0  0  0  0  0  0  0  0  0  0  0  0
   56.1220   28.6440   45.2440 N   0  0  0  0  0  0  0  0  0  0  0  0
   55.5830   29.3460   44.0790 C   0  0  0  0  0  0  0  0  0  0  0  0
   56.0313   28.9273   43.1659 H   0  0  0  0  0  0  0  0  0  0  0  0
   54.4908   29.2163   44.0622 H   0  0  0  0  0  0  0  0  0  0  0  0
   55.9000   30.8430   44.1540 C   0  0  0  0  0  0  0  0  0  0  0  0
   55.0630   31.4003   43.7080 H   0  0  0  0  0  0  0  0  0  0  0  0
   56.0447   31.0935   45.2153 H   0  0  0  0  0  0  0  0  0  0  0  0
   57.1920   31.2270   43.4140 C   0  0  0  0  0  0  0  0  0  0  0  0
   57.5889   30.3393   42.8997 H   0  0  0  0  0  0  0  0  0  0  0  0
   56.9571   32.0206   42.6895 H   0  0  0  0  0  0  0  0  0  0  0  0
   58.2150   31.7380   44.3570 N   0  0  0  0  0  0  0  0  0  0  0  0
   58.4760   30.8030   45.4900 C   0  0  0  0  0  0  0  0  0  0  0  0
   57.6520   30.0755   45.5320 H   0  0  0  0  0  0  0  0  0  0  0  0
   59.4520   30.3359   45.2921 H   0  0  0  0  0  0  0  0  0  0  0  0
   58.5870   31.4840   46.8660 C   0  0  0  0  0  0  0  0  0  0  0  0
   57.5775   31.6999   47.2458 H   0  0  0  0  0  0  0  0  0  0  0  0
   59.1148   30.8092   47.5560 H   0  0  0  0  0  0  0  0  0  0  0  0
   59.3410   32.7380   46.7580 N   0  0  0  0  0  0  0  0  0  0  0  0
   60.2310   33.1540   47.8150 C   0  0  0  0  0  0  0  0  0  0  0  0
   59.7220   33.7200   48.9990 C   0  0  0  0  0  0  0  0  0  0  0  0
   58.6360   33.8446   49.1218 H   0  0  0  0  0  0  0  0  0  0  0  0
   60.5870   34.1250   50.0200 C   0  0  0  0  0  0  0  0  0  0  0  0
   60.1797   34.5659   50.9418 H   0  0  0  0  0  0  0  0  0  0  0  0
   61.9670   33.9710   49.8720 C   0  0  0  0  0  0  0  0  0  0  0  0
   62.6455   34.2887   50.6774 H   0  0  0  0  0  0  0  0  0  0  0  0
   62.4860   33.4130   48.7000 C   0  0  0  0  0  0  0  0  0  0  0  0
   64.2210   33.2230   48.5130 Cl  0  0  0  0  0  0  0  0  0  0  0  0
   61.6240   33.0050   47.6750 C   0  0  0  0  0  0  0  0  0  0  0  0
   62.0374   32.5656   46.7552 H   0  0  0  0  0  0  0  0  0  0  0  0
   59.0340   33.6640   45.6600 C   0  0  0  0  0  0  0  0  0  0  0  0
   58.7258   34.6323   46.0813 H   0  0  0  0  0  0  0  0  0  0  0  0
   59.9344   33.7834   45.0395 H   0  0  0  0  0  0  0  0  0  0  0  0
   57.9060   33.1180   44.7830 C   0  0  0  0  0  0  0  0  0  0  0  0
   56.9668   33.1200   45.3557 H   0  0  0  0  0  0  0  0  0  0  0  0
   57.8033   33.7547   43.8919 H   0  0  0  0  0  0  0  0  0  0  0  0
   57.7190   26.8060   45.1390 C   0  0  0  0  0  0  0  0  0  0  0  0
   58.9090   27.5340   44.6540 C   0  0  0  0  0  0  0  0  0  0  0  0
   58.9910   27.7940   43.4220 O   0  0  0  0  0  0  0  0  0  0  0  0
   59.8960   28.0650   45.5680 N   0  0  0  0  0  0  0  0  0  0  0  0
   59.7620   27.8790   47.0180 C   0  0  0  0  0  0  0  0  0  0  0  0
   60.3273   28.6637   47.5421 H   0  0  0  0  0  0  0  0  0  0  0  0
   58.7004   27.9420   47.2992 H   0  0  0  0  0  0  0  0  0  0  0  0
   60.1579   26.8920   47.2992 H   0  0  0  0  0  0  0  0  0  0  0  0
   61.0230   28.8350   45.0310 C   0  0  0  0  0  0  0  0  0  0  0  0
   61.6182   29.2417   45.8618 H   0  0  0  0  0  0  0  0  0  0  0  0
   61.6547   28.1788   44.4142 H   0  0  0  0  0  0  0  0  0  0  0  0
   60.6413   29.6620   44.4142 H   0  0  0  0  0  0  0  0  0  0  0  0
   57.9030   25.4380   45.4080 C   0  0  0  0  0  0  0  0  0  0  0  0
   58.8670   24.9634   45.1725 H   0  0  0  0  0  0  0  0  0  0  0  0
   56.8820   24.6770   45.9680 C   0  0  0  0  0  0  0  0  0  0  0  0
   57.0285   23.6039   46.1603 H   0  0  0  0  0  0  0  0  0  0  0  0
  1  2  1  0
  2  3  1  0
  3  4  1  0
  4  5  2  0
  5  6  1  0
  6  7  1  0
  6  8  1  0
  6  9  1  0
  9 10  1  0
  9 11  1  0
  9 12  1  0
 12 13  1  0
 12 14  1  0
 12 15  1  0
 15 16  1  0
 16 17  1  0
 16 18  1  0
 16 19  1  0
 19 20  1  0
 19 21  1  0
 19 22  1  0
 22 23  1  0
 23 24  2  0
 24 25  1  0
 24 26  1  0
 26 27  1  0
 26 28  2  0
 28 29  1  0
 28 30  1  0
 30 31  1  0
 30 32  2  0
 32 33  1  0
 22 34  1  0
 34 35  1  0
 34 36  1  0
 34 37  1  0
 37 38  1  0
 37 39  1  0
  4 40  1  0
 40 41  1  0
 41 42  2  0
 41 43  1  0
 43 44  1  0
 44 45  1  0
 44 46  1  0
 44 47  1  0
 43 48  1  0
 48 49  1  0
 48 50  1  0
 48 51  1  0
 40 52  2  0
 52 53  1  0
 52 54  1  0
 54 55  1  0
 54  2  2  0
 37 15  1  0
 32 23  1  0
M  CHG  1   3  -1
M  END
>  <UniqueID>  (18) 
17

>  <SMILES>  (18) 
CN(C)C(=O)c1ccc[n-]/c1=N/CCCN1CCN(c2cccc(Cl)c2)CC1

>  <Energy>  (18) 
79.13210543097833

>  <Genealogy>  (18) 
CN(C)C(=O)c1ccc[n-]c1=NCCCN1CCN(c2cccc(Cl)c2)CC1 (protonated)
CN(C)C(=O)c1ccc[n-]/c1=N/CCCN1CCN(c2cccc(Cl)c2)CC1 (cis-trans isomerization)
CN(C)C(=O)c1ccc[n-]/c1=N/CCCN1CCN(c2cccc(Cl)c2)CC1 (3D coordinates assigned)
CN(C)C(=O)c1ccc[n-]/c1=N/CCCN1CCN(c2cccc(Cl)c2)CC1 (nonaromatic ring conformer: 79.13210543097833 kcal/mol)

>  <smiles>  (18) 
CN(C)C(=O)c1ccc[nH]c1=NCCCN1CCN(c2cccc(Cl)c2)CC1

>  <score_type>  (18) 
oracle

>  <origin>  (18) 
adg

>  <m_score__min__energy>  (18) 
-10.5

>  <m_primary>  (18) 
energy

$$$$
18:0
     RDKit          3D

 29 30  0  0  0  0  0  0  0  0999 V2000
   64.5470   31.9640   47.0880 H   0  0  0  0  0  0  0  0  0  0  0  0
   64.1460   32.8620   46.8400 O   0  0  0  0  0  0  0  0  0  0  0  0
   62.9210   33.2770   47.3590 C   0  0  0  0  0  0  0  0  0  0  0  0
   62.6390   33.1390   48.7250 C   0  0  0  0  0  0  0  0  0  0  0  0
   63.3906   32.7032   49.3996 H   0  0  0  0  0  0  0  0  0  0  0  0
   61.4050   33.5540   49.2310 C   0  0  0  0  0  0  0  0  0  0  0  0
   61.1864   33.4431   50.3033 H   0  0  0  0  0  0  0  0  0  0  0  0
   60.4470   34.1100   48.3780 C   0  0  0  0  0  0  0  0  0  0  0  0
   59.4735   34.4283   48.7792 H   0  0  0  0  0  0  0  0  0  0  0  0
   60.7250   34.2630   47.0100 C   0  0  0  0  0  0  0  0  0  0  0  0
   59.6790   34.8300   46.0880 C   0  0  0  0  0  0  0  0  0  0  0  0
   60.1407   35.0656   45.1178 H   0  0  0  0  0  0  0  0  0  0  0  0
   59.2620   35.7419   46.5403 H   0  0  0  0  0  0  0  0  0  0  0  0
   58.6010   33.8670   45.8860 N   0  0  0  0  0  0  0  0  0  0  0  0
   58.6030   32.9970   44.9220 C   0  0  0  0  0  0  0  0  0  0  0  0
   59.1947   33.1952   44.0161 H   0  0  0  0  0  0  0  0  0  0  0  0
   57.8250   31.7470   45.0210 C   0  0  0  0  0  0  0  0  0  0  0  0
   56.7150   31.5580   44.1810 C   0  0  0  0  0  0  0  0  0  0  0  0
   56.4354   32.3400   43.4597 H   0  0  0  0  0  0  0  0  0  0  0  0
   55.9630   30.3800   44.2570 C   0  0  0  0  0  0  0  0  0  0  0  0
   55.0940   30.2395   43.5974 H   0  0  0  0  0  0  0  0  0  0  0  0
   56.3150   29.3820   45.1700 C   0  0  0  0  0  0  0  0  0  0  0  0
   55.5680   28.2130   45.2430 O   0  0  0  0  0  0  0  0  0  0  0  0
   57.4180   29.5600   46.0090 C   0  0  0  0  0  0  0  0  0  0  0  0
   57.6940   28.7736   46.7269 H   0  0  0  0  0  0  0  0  0  0  0  0
   58.1720   30.7360   45.9380 C   0  0  0  0  0  0  0  0  0  0  0  0
   59.0393   30.8717   46.6009 H   0  0  0  0  0  0  0  0  0  0  0  0
   61.9630   33.8340   46.5040 C   0  0  0  0  0  0  0  0  0  0  0  0
   62.1807   33.9363   45.4306 H   0  0  0  0  0  0  0  0  0  0  0  0
  1  2  1  0
  2  3  1  0
  3  4  2  0
  4  5  1  0
  4  6  1  0
  6  7  1  0
  6  8  2  0
  8  9  1  0
  8 10  1  0
 10 11  1  0
 11 12  1  0
 11 13  1  0
 11 14  1  0
 14 15  2  0
 15 16  1  0
 15 17  1  0
 17 18  2  0
 18 19  1  0
 18 20  1  0
 20 21  1  0
 20 22  2  0
 22 23  1  0
 22 24  1  0
 24 25  1  0
 24 26  2  0
 26 27  1  0
 10 28  2  0
 28 29  1  0
 28  3  1  0
 26 17  1  0
M  CHG  1  23  -1
M  END
>  <UniqueID>  (19) 
18

>  <SMILES>  (19) 
[O-]c1ccc(/C=N/Cc2cccc(O)c2)cc1

>  <Energy>  (19) 
26.996382449298185

>  <Genealogy>  (19) 
[O-]c1ccc(C=NCc2cccc(O)c2)cc1 (protonated)
[O-]c1ccc(/C=N/Cc2cccc(O)c2)cc1 (cis-trans isomerization)
[O-]c1ccc(/C=N/Cc2cccc(O)c2)cc1 (3D coordinates assigned)
[O-]c1ccc(/C=N/Cc2cccc(O)c2)cc1 (optimized conformer: 26.996382449298185 kcal/mol)

>  <smiles>  (19) 
Oc1ccc(C=NCc2cccc(O)c2)cc1

>  <score_type>  (19) 
oracle

>  <origin>  (19) 
adg

>  <m_score__min__energy>  (19) 
-9.7200000000000006

>  <m_primary>  (19) 
energy

$$$$
19:0
     RDKit          3D

 28 30  0  0  0  0  0  0  0  0999 V2000
   55.6880   26.6380   45.9580 N   0  0  0  0  0  0  0  0  0  0  0  0
   56.7370   27.3760   45.7110 C   0  0  0  0  0  0  0  0  0  0  0  0
   57.9880   26.9400   46.0370 N   0  0  0  0  0  0  0  0  0  0  0  0
   59.0660   27.7160   45.7740 C   0  0  0  0  0  0  0  0  0  0  0  0
   58.9610   28.9290   45.1930 N   0  0  0  0  0  0  0  0  0  0  0  0
   57.7490   29.4050   44.8520 C   0  0  0  0  0  0  0  0  0  0  0  0
   56.6370   28.6180   45.1160 C   0  0  0  0  0  0  0  0  0  0  0  0
   55.5380   29.2890   44.6950 N   0  0  0  0  0  0  0  0  0  0  0  0
   55.9770   30.4630   44.1830 C   0  0  0  0  0  0  0  0  0  0  0  0
   57.3130   30.5430   44.2740 N   0  0  0  0  0  0  0  0  0  0  0  0
   58.1120   31.6490   43.8300 C   0  0  0  0  0  0  0  0  0  0  0  0
   58.3570   32.6570   44.8890 C   0  0  0  0  0  0  0  0  0  0  0  0
   58.0250   32.3540   46.2080 C   0  0  0  0  0  0  0  0  0  0  0  0
   58.2510   33.2960   47.2140 C   0  0  0  0  0  0  0  0  0  0  0  0
   58.8010   34.5080   46.8600 C   0  0  0  0  0  0  0  0  0  0  0  0
   59.1170   34.7840   45.5690 C   0  0  0  0  0  0  0  0  0  0  0  0
   58.9110   33.8750   44.5340 C   0  0  0  0  0  0  0  0  0  0  0  0
   54.7560   27.1060   46.0110 H   0  0  0  0  0  0  0  0  0  0  0  0
   58.0770   26.0030   46.4870 H   0  0  0  0  0  0  0  0  0  0  0  0
   60.0650   27.3433   46.0443 H   0  0  0  0  0  0  0  0  0  0  0  0
   55.3295   31.2414   43.7531 H   0  0  0  0  0  0  0  0  0  0  0  0
   59.0822   31.2625   43.4845 H   0  0  0  0  0  0  0  0  0  0  0  0
   57.5555   32.1508   43.0247 H   0  0  0  0  0  0  0  0  0  0  0  0
   57.5864   31.3762   46.4560 H   0  0  0  0  0  0  0  0  0  0  0  0
   57.9965   33.0758   48.2612 H   0  0  0  0  0  0  0  0  0  0  0  0
   58.9873   35.2649   47.6362 H   0  0  0  0  0  0  0  0  0  0  0  0
   59.5534   35.7652   45.3306 H   0  0  0  0  0  0  0  0  0  0  0  0
   59.1739   34.1117   43.4924 H   0  0  0  0  0  0  0  0  0  0  0  0
  1  2  2  3
  2  3  1  0
  3  4  1  0
  4  5  2  0
  5  6  1  0
  6  7  2  0
  7  8  1  0
  8  9  2  0
  9 10  1  0
 10 11  1  0
 11 12  1  0
 12 13  2  0
 13 14  1  0
 14 15  2  0
 15 16  1  0
 16 17  2  0
  7  2  1  0
 17 12  1  0
 10  6  1  0
  1 18  1  0
  3 19  1  0
  4 20  1  0
  9 21  1  0
 11 22  1  0
 11 23  1  0
 13 24  1  0
 14 25  1  0
 15 26  1  0
 16 27  1  0
 17 28  1  0
M  END
>  <smiles>  (20) 
N=c1[nH]cnc2c1ncn2Cc1ccccc1

>  <score_type>  (20) 
oracle

>  <origin>  (20) 
adg

>  <m_score__min__energy>  (20) 
-6.6799999999999997

>  <m_primary>  (20) 
energy

$$$$
20:0
     RDKit          3D

 29 31  0  0  1  0  0  0  0  0999 V2000
   55.5900   25.9650   45.9590 O   0  0  0  0  0  0  0  0  0  0  0  0
   56.8000   26.3300   45.7770 C   0  0  0  0  0  0  0  0  0  0  0  0
   57.2730   27.6070   46.1780 N   0  0  0  0  0  0  0  0  0  0  0  0
   56.9380   28.7220   45.6500 C   0  0  0  0  0  0  0  0  0  0  0  0
   55.7720   28.8690   44.9700 N   0  0  0  0  0  0  0  0  0  0  0  0
   55.5260   30.0840   44.4590 C   0  0  0  0  0  0  0  0  0  0  0  0
   56.3130   31.1450   44.5580 N   0  0  0  0  0  0  0  0  0  0  0  0
   57.5150   31.0550   45.2390 C   0  0  0  0  0  0  0  0  0  0  0  0
   58.4240   32.0090   45.4370 C   0  0  0  0  0  0  0  0  0  0  0  0
   59.5570   31.7290   46.1390 C   0  0  0  0  0  0  0  0  0  0  0  0
   59.3990   29.9530   46.6040 S   0  0  0  0  0  0  0  0  0  0  0  0
   57.7460   29.8040   45.7520 C   0  0  0  0  0  0  0  0  0  0  0  0
   57.7540   25.4650   45.1530 N   0  0  0  0  0  0  0  0  0  0  0  0
   57.4340   24.1610   44.6950 C   0  0  0  0  0  0  0  0  0  0  0  0
   56.4580   24.0500   43.7290 C   0  0  0  0  0  0  0  0  0  0  0  0
   56.0750   22.8340   43.2160 C   0  0  0  0  0  0  0  0  0  0  0  0
   56.6920   21.6960   43.6880 C   0  0  0  0  0  0  0  0  0  0  0  0
   57.6760   21.7700   44.6560 C   0  0  0  0  0  0  0  0  0  0  0  0
   58.0400   23.0150   45.1540 C   0  0  0  0  0  0  0  0  0  0  0  0
   55.1500   28.0530   44.8860 H   0  0  0  0  0  0  0  0  0  0  0  0
   54.5835   30.2116   43.9064 H   0  0  0  0  0  0  0  0  0  0  0  0
   58.2598   33.0195   45.0347 H   0  0  0  0  0  0  0  0  0  0  0  0
   60.3850   32.4132   46.3764 H   0  0  0  0  0  0  0  0  0  0  0  0
   58.7550   25.7810   45.0090 H   0  0  0  0  0  0  0  0  0  0  0  0
   55.9702   24.9630   43.3568 H   0  0  0  0  0  0  0  0  0  0  0  0
   55.2928   22.7705   42.4452 H   0  0  0  0  0  0  0  0  0  0  0  0
   56.3972   20.7143   43.2887 H   0  0  0  0  0  0  0  0  0  0  0  0
   58.1638   20.8564   45.0267 H   0  0  0  0  0  0  0  0  0  0  0  0
   58.8220   23.0848   45.9244 H   0  0  0  0  0  0  0  0  0  0  0  0
  1  2  2  0
  2  3  1  0
  3  4  2  0
  4  5  1  0
  5  6  1  0
  6  7  2  0
  7  8  1  0
  8  9  1  0
  9 10  2  0
 10 11  1  0
 11 12  1  0
  2 13  1  0
 13 14  1  0
 14 15  2  0
 15 16  1  0
 16 17  2  0
 17 18  1  0
 18 19  2  0
 12  4  1  0
 19 14  1  0
 12  8  2  0
  5 20  1  0
  6 21  1  0
  9 22  1  0
 10 23  1  0
 13 24  1  0
 15 25  1  0
 16 26  1  0
 17 27  1  0
 18 28  1  0
 19 29  1  0
M  END
>  <smiles>  (21) 
O=C(N=c1[nH]cnc2ccsc12)Nc1ccccc1

>  <score_type>  (21) 
oracle

>  <origin>  (21) 
adg

>  <m_score__min__energy>  (21) 
-7.1399999999999997

>  <m_primary>  (21) 
energy

$$$$
21:0
     RDKit          3D

 41 44  0  0  0  0  0  0  0  0999 V2000
   57.7710   30.0910   42.5110 H   0  0  0  0  0  0  0  0  0  0  0  0
   57.3910   30.5910   43.3420 N   0  0  0  0  0  0  0  0  0  0  0  0
   57.7670   30.4330   44.5790 C   0  0  0  0  0  0  0  0  0  0  0  0
   57.7840   29.1560   45.2130 C   0  0  0  0  0  0  0  0  0  0  0  0
   57.3990   27.9590   44.5660 C   0  0  0  0  0  0  0  0  0  0  0  0
   57.0658   27.9903   43.5181 H   0  0  0  0  0  0  0  0  0  0  0  0
   57.4370   26.7360   45.2430 C   0  0  0  0  0  0  0  0  0  0  0  0
   57.1342   25.8155   44.7225 H   0  0  0  0  0  0  0  0  0  0  0  0
   57.8580   26.6720   46.5810 C   0  0  0  0  0  0  0  0  0  0  0  0
   57.9110   25.4670   47.2970 O   0  0  0  0  0  0  0  0  0  0  0  0
   56.9060   24.4580   47.2510 C   0  0  0  0  0  0  0  0  0  0  0  0
   56.6238   24.1746   48.2757 H   0  0  0  0  0  0  0  0  0  0  0  0
   56.0228   24.8440   46.7209 H   0  0  0  0  0  0  0  0  0  0  0  0
   57.2955   23.5764   46.7209 H   0  0  0  0  0  0  0  0  0  0  0  0
   58.2400   27.8460   47.2300 C   0  0  0  0  0  0  0  0  0  0  0  0
   58.5706   27.8041   48.2783 H   0  0  0  0  0  0  0  0  0  0  0  0
   58.2080   29.0770   46.5640 C   0  0  0  0  0  0  0  0  0  0  0  0
   58.5870   30.1940   47.2320 N   0  0  0  0  0  0  0  0  0  0  0  0
   58.5830   31.4210   46.6570 C   0  0  0  0  0  0  0  0  0  0  0  0
   58.9870   32.5320   47.4060 C   0  0  0  0  0  0  0  0  0  0  0  0
   59.2977   32.4004   48.4530 H   0  0  0  0  0  0  0  0  0  0  0  0
   58.9990   33.8130   46.8320 C   0  0  0  0  0  0  0  0  0  0  0  0
   59.3880   34.9590   47.6160 N   0  0  0  0  0  0  0  0  0  0  0  0
   59.9490   35.6180   47.0260 H   0  0  0  0  0  0  0  0  0  0  0  0
   58.5330   35.4690   47.9460 H   0  0  0  0  0  0  0  0  0  0  0  0
   60.1850   34.5290   48.7730 C   0  0  0  0  0  0  0  0  0  0  0  0
   60.2640   35.3614   49.4877 H   0  0  0  0  0  0  0  0  0  0  0  0
   59.6895   33.6686   49.2464 H   0  0  0  0  0  0  0  0  0  0  0  0
   61.5590   34.1190   48.3400 C   0  0  0  0  0  0  0  0  0  0  0  0
   62.0340   33.8450   46.7510 S   0  0  0  0  0  0  0  0  0  0  0  0
   63.5970   33.3440   47.1130 C   0  0  0  0  0  0  0  0  0  0  0  0
   64.3628   33.0456   46.3819 H   0  0  0  0  0  0  0  0  0  0  0  0
   63.7570   33.3710   48.4930 C   0  0  0  0  0  0  0  0  0  0  0  0
   64.6924   33.0857   48.9965 H   0  0  0  0  0  0  0  0  0  0  0  0
   62.6140   33.7960   49.1820 C   0  0  0  0  0  0  0  0  0  0  0  0
   62.5582   33.8666   50.2783 H   0  0  0  0  0  0  0  0  0  0  0  0
   58.5800   33.9710   45.5030 C   0  0  0  0  0  0  0  0  0  0  0  0
   58.5709   34.9734   45.0500 H   0  0  0  0  0  0  0  0  0  0  0  0
   58.1740   32.8670   44.7490 C   0  0  0  0  0  0  0  0  0  0  0  0
   57.8534   33.0066   43.7061 H   0  0  0  0  0  0  0  0  0  0  0  0
   58.1720   31.5740   45.3150 C   0  0  0  0  0  0  0  0  0  0  0  0
  1  2  1  0
  2  3  2  0
  3  4  1  0
  4  5  2  0
  5  6  1  0
  5  7  1  0
  7  8  1  0
  7  9  2  0
  9 10  1  0
 10 11  1  0
 11 12  1  0
 11 13  1  0
 11 14  1  0
  9 15  1  0
 15 16  1  0
 15 17  2  0
 17 18  1  0
 18 19  1  0
 19 20  2  0
 20 21  1  0
 20 22  1  0
 22 23  1  0
 23 24  1  0
 23 25  1  0
 23 26  1  0
 26 27  1  0
 26 28  1  0
 26 29  1  0
 29 30  1  0
 30 31  1  0
 31 32  1  0
 31 33  2  0
 33 34  1  0
 33 35  1  0
 35 36  1  0
 22 37  2  0
 37 38  1  0
 37 39  1  0
 39 40  1  0
 39 41  2  0
 41  3  1  0
 17  4  1  0
 41 19  1  0
 35 29  2  0
M  CHG  2  18  -1  23   1
M  END
>  <UniqueID>  (22) 
19

>  <SMILES>  (22) 
[H]/N=c1/c2ccc([NH2+]Cc3cccs3)cc2[n-]c2cc(OC)ccc12

>  <Energy>  (22) 
82.7293908782433

>  <Genealogy>  (22) 
COc1ccc2c(=N)c3ccc([NH2+]Cc4cccs4)cc3[n-]c2c1 (protonated)
[H]/N=c1/c2ccc([NH2+]Cc3cccs3)cc2[n-]c2cc(OC)ccc12 (cis-trans isomerization)
[H]/N=c1/c2ccc([NH2+]Cc3cccs3)cc2[n-]c2cc(OC)ccc12 (3D coordinates assigned)
[H]/N=c1/c2ccc([NH2+]Cc3cccs3)cc2[n-]c2cc(OC)ccc12 (optimized conformer: 82.7293908782433 kcal/mol)

>  <smiles>  (22) 
COc1ccc2c(=N)c3ccc(NCc4cccs4)cc3[nH]c2c1

>  <score_type>  (22) 
oracle

>  <origin>  (22) 
adg

>  <m_score__min__energy>  (22) 
-7.3099999999999996

>  <m_primary>  (22) 
energy

$$$$
22:0
     RDKit          3D

 26 27  0  0  0  0  0  0  0  0999 V2000
   51.7220   29.8000   50.3920 N   0  0  0  0  0  0  0  0  0  0  0  0
   52.2890   31.0140   50.9850 C   0  0  2  0  0  0  0  0  0  0  0  0
   52.5370   30.8170   52.4900 C   0  0  0  0  0  0  0  0  0  0  0  0
   53.7660   29.9900   52.7360 C   0  0  0  0  0  0  0  0  0  0  0  0
   53.8040   28.6470   53.0990 C   0  0  0  0  0  0  0  0  0  0  0  0
   55.0830   28.2140   53.1660 N   0  0  0  0  0  0  0  0  0  0  0  0
   55.8510   29.2670   52.8380 C   0  0  0  0  0  0  0  0  0  0  0  0
   57.2420   29.3040   52.7500 C   0  0  0  0  0  0  0  0  0  0  0  0
   57.8450   30.5170   52.3670 C   0  0  0  0  0  0  0  0  0  0  0  0
   57.0530   31.6510   52.0810 C   0  0  0  0  0  0  0  0  0  0  0  0
   57.6470   32.8120   51.7090 F   0  0  0  0  0  0  0  0  0  0  0  0
   55.6500   31.5840   52.1760 C   0  0  0  0  0  0  0  0  0  0  0  0
   55.0830   30.3690   52.5620 C   0  0  0  0  0  0  0  0  0  0  0  0
   51.3850   32.1960   50.7510 C   0  0  0  0  0  0  0  0  0  0  0  0
   51.2560   33.0880   51.6310 O   0  0  0  0  0  0  0  0  0  0  0  0
   50.6920   32.3100   49.5520 O   0  0  0  0  0  0  0  0  0  0  0  0
   52.4980   29.2360   49.9730 H   0  0  0  0  0  0  0  0  0  0  0  0
   51.0690   30.0600   49.6170 H   0  0  0  0  0  0  0  0  0  0  0  0
   53.2537   31.2149   50.4961 H   0  0  0  0  0  0  0  0  0  0  0  0
   52.6665   31.8012   52.9638 H   0  0  0  0  0  0  0  0  0  0  0  0
   51.6719   30.2899   52.9187 H   0  0  0  0  0  0  0  0  0  0  0  0
   52.9191   28.0260   53.3025 H   0  0  0  0  0  0  0  0  0  0  0  0
   55.4050   27.2500   53.4100 H   0  0  0  0  0  0  0  0  0  0  0  0
   57.8488   28.4139   52.9727 H   0  0  0  0  0  0  0  0  0  0  0  0
   58.9404   30.5821   52.2899 H   0  0  0  0  0  0  0  0  0  0  0  0
   55.0223   32.4595   51.9535 H   0  0  0  0  0  0  0  0  0  0  0  0
  1  2  1  0
  2  3  1  0
  3  4  1  0
  4  5  2  0
  5  6  1  0
  6  7  1  0
  7  8  2  0
  8  9  1  0
  9 10  2  0
 10 11  1  0
 10 12  1  0
 12 13  2  0
  2 14  1  0
 14 15  2  0
 14 16  1  0
 13  4  1  0
 13  7  1  0
  1 17  1  0
  1 18  1  0
  2 19  1  6
  3 20  1  0
  3 21  1  0
  5 22  1  0
  6 23  1  0
  8 24  1  0
  9 25  1  0
 12 26  1  0
M  CHG  1  16  -1
M  END
>  <UniqueID>  (23) 
20

>  <SMILES>  (23) 
N[C@H](Cc1c[nH]c2ccc(F)cc12)C(=O)[O-]

>  <Energy>  (23) 
55.812621445025904

>  <Genealogy>  (23) 
NC(Cc1c[nH]c2ccc(F)cc12)C(=O)[O-] (protonated)
N[C@H](Cc1c[nH]c2ccc(F)cc12)C(=O)[O-] (chirality)
N[C@H](Cc1c[nH]c2ccc(F)cc12)C(=O)[O-] (3D coordinates assigned)
N[C@H](Cc1c[nH]c2ccc(F)cc12)C(=O)[O-] (optimized conformer: 55.812621445025904 kcal/mol)

>  <smiles>  (23) 
NC(Cc1c[nH]c2ccc(F)cc12)C(=O)O

>  <score_type>  (23) 
oracle

>  <origin>  (23) 
adg

>  <m_score__min__energy>  (23) 
-9.3000000000000007

>  <m_primary>  (23) 
energy

$$$$
23:0
     RDKit          3D

 35 37  0  0  0  0  0  0  0  0999 V2000
   57.0830   26.5810   45.4020 C   0  0  0  0  0  0  0  0  0  0  0  0
   57.5850   27.9470   45.4020 N   0  0  0  0  0  0  0  0  0  0  0  0
   56.7460   28.9650   45.1330 C   0  0  0  0  0  0  0  0  0  0  0  0
   55.5250   28.7680   44.8760 O   0  0  0  0  0  0  0  0  0  0  0  0
   57.2200   30.2580   45.1360 C   0  0  0  0  0  0  0  0  0  0  0  0
   56.6720   31.4820   44.9160 N   0  0  0  0  0  0  0  0  0  0  0  0
   57.6480   32.3940   45.0620 C   0  0  0  0  0  0  0  0  0  0  0  0
   57.5510   34.1790   44.9030 S   0  0  0  0  0  0  0  0  0  0  0  0
   59.2830   34.7850   44.9500 C   0  0  0  0  0  0  0  0  0  0  0  0
   59.9090   34.3890   46.2510 C   0  0  0  0  0  0  0  0  0  0  0  0
   59.1390   34.5390   47.3870 C   0  0  0  0  0  0  0  0  0  0  0  0
   59.6490   34.1920   48.6250 C   0  0  0  0  0  0  0  0  0  0  0  0
   60.9460   33.6980   48.6680 C   0  0  0  0  0  0  0  0  0  0  0  0
   61.7160   33.5500   47.5220 C   0  0  0  0  0  0  0  0  0  0  0  0
   62.9770   33.0580   47.6580 F   0  0  0  0  0  0  0  0  0  0  0  0
   61.1950   33.8990   46.2950 C   0  0  0  0  0  0  0  0  0  0  0  0
   58.8220   31.7750   45.3740 N   0  0  0  0  0  0  0  0  0  0  0  0
   58.5520   30.4470   45.4190 C   0  0  0  0  0  0  0  0  0  0  0  0
   59.3630   29.4050   45.6830 N   0  0  0  0  0  0  0  0  0  0  0  0
   60.7670   29.6100   45.9790 C   0  0  0  0  0  0  0  0  0  0  0  0
   58.8940   28.1400   45.6790 C   0  0  0  0  0  0  0  0  0  0  0  0
   59.6560   27.1450   45.9300 O   0  0  0  0  0  0  0  0  0  0  0  0
   56.9565   26.2368   46.4391 H   0  0  0  0  0  0  0  0  0  0  0  0
   56.1135   26.5466   44.8835 H   0  0  0  0  0  0  0  0  0  0  0  0
   57.7995   25.9270   44.8835 H   0  0  0  0  0  0  0  0  0  0  0  0
   59.8505   34.3413   44.1187 H   0  0  0  0  0  0  0  0  0  0  0  0
   59.2934   35.8807   44.8537 H   0  0  0  0  0  0  0  0  0  0  0  0
   58.1162   34.9359   47.3073 H   0  0  0  0  0  0  0  0  0  0  0  0
   59.0498   34.3032   49.5408 H   0  0  0  0  0  0  0  0  0  0  0  0
   61.3768   33.4152   49.6398 H   0  0  0  0  0  0  0  0  0  0  0  0
   61.7899   33.7892   45.3763 H   0  0  0  0  0  0  0  0  0  0  0  0
   59.7560   32.2030   45.5490 H   0  0  0  0  0  0  0  0  0  0  0  0
   60.9126   29.6313   47.0691 H   0  0  0  0  0  0  0  0  0  0  0  0
   61.3567   28.7884   45.5463 H   0  0  0  0  0  0  0  0  0  0  0  0
   61.0972   30.5659   45.5463 H   0  0  0  0  0  0  0  0  0  0  0  0
  1  2  1  0
  2  3  1  0
  3  4  2  0
  3  5  1  0
  5  6  1  0
  6  7  2  0
  7  8  1  0
  8  9  1  0
  9 10  1  0
 10 11  2  0
 11 12  1  0
 12 13  2  0
 13 14  1  0
 14 15  1  0
 14 16  2  0
  7 17  1  0
 17 18  1  0
 18 19  1  0
 19 20  1  0
 19 21  1  0
 21 22  2  0
 21  2  1  0
 18  5  2  0
 16 10  1  0
  1 23  1  0
  1 24  1  0
  1 25  1  0
  9 26  1  0
  9 27  1  0
 11 28  1  0
 12 29  1  0
 13 30  1  0
 16 31  1  0
 17 32  1  0
 20 33  1  0
 20 34  1  0
 20 35  1  0
M  END
>  <smiles>  (24) 
Cn1c(=O)c2nc(SCc3cccc(F)c3)[nH]c2n(C)c1=O

>  <score_type>  (24) 
oracle

>  <origin>  (24) 
adg

>  <m_score__min__energy>  (24) 
-7.2400000000000002

>  <m_primary>  (24) 
energy

$$$$
24:0
     RDKit          3D

 33 34  0  0  0  0  0  0  0  0999 V2000
   55.8570   30.5090   44.4370 O   0  0  0  0  0  0  0  0  0  0  0  0
   56.8390   29.9730   45.0200 C   0  0  0  0  0  0  0  0  0  0  0  0
   57.6000   30.7240   45.9740 N   0  0  0  0  0  0  0  0  0  0  0  0
   58.7430   31.5760   45.6440 C   0  0  2  0  0  0  0  0  0  0  0  0
   59.9340   31.0380   46.3070 N   0  0  0  0  0  0  0  0  0  0  0  0
   60.0780   29.6250   46.5080 C   0  0  0  0  0  0  0  0  0  0  0  0
   60.5660   28.8320   45.4590 C   0  0  0  0  0  0  0  0  0  0  0  0
   60.7290   27.4550   45.6290 C   0  0  0  0  0  0  0  0  0  0  0  0
   60.3930   26.8570   46.8460 C   0  0  0  0  0  0  0  0  0  0  0  0
   59.8860   27.6350   47.8910 C   0  0  0  0  0  0  0  0  0  0  0  0
   59.7210   29.0170   47.7280 C   0  0  0  0  0  0  0  0  0  0  0  0
   59.0030   29.9380   49.0430 Cl  0  0  0  0  0  0  0  0  0  0  0  0
   58.4800   33.0330   46.0840 C   0  0  0  0  0  0  0  0  0  0  0  0
   58.2190   33.1150   47.8480 Cl  0  0  0  0  0  0  0  0  0  0  0  0
   57.0450   33.7170   45.2680 Cl  0  0  0  0  0  0  0  0  0  0  0  0
   59.8810   34.0680   45.7020 Cl  0  0  0  0  0  0  0  0  0  0  0  0
   57.2110   28.5730   44.7110 C   0  0  0  0  0  0  0  0  0  0  0  0
   57.7640   28.2380   43.4600 C   0  0  0  0  0  0  0  0  0  0  0  0
   58.1140   26.9150   43.1720 C   0  0  0  0  0  0  0  0  0  0  0  0
   57.9180   25.9150   44.1260 C   0  0  0  0  0  0  0  0  0  0  0  0
   57.3710   26.2340   45.3710 C   0  0  0  0  0  0  0  0  0  0  0  0
   57.0190   27.5540   45.6640 C   0  0  0  0  0  0  0  0  0  0  0  0
   58.8998   31.5828   44.5553 H   0  0  0  0  0  0  0  0  0  0  0  0
   60.4160   31.6550   46.9980 H   0  0  0  0  0  0  0  0  0  0  0  0
   60.8221   29.2976   44.4959 H   0  0  0  0  0  0  0  0  0  0  0  0
   61.1219   26.8417   44.8047 H   0  0  0  0  0  0  0  0  0  0  0  0
   60.5274   25.7738   46.9820 H   0  0  0  0  0  0  0  0  0  0  0  0
   59.6153   27.1602   48.8456 H   0  0  0  0  0  0  0  0  0  0  0  0
   57.9217   29.0219   42.7046 H   0  0  0  0  0  0  0  0  0  0  0  0
   58.5445   26.6619   42.1919 H   0  0  0  0  0  0  0  0  0  0  0  0
   58.1945   24.8752   43.8972 H   0  0  0  0  0  0  0  0  0  0  0  0
   57.2171   25.4449   46.1218 H   0  0  0  0  0  0  0  0  0  0  0  0
   56.5888   27.7991   46.6462 H   0  0  0  0  0  0  0  0  0  0  0  0
  1  2  2  0
  2  3  1  0
  3  4  1  0
  4  5  1  0
  5  6  1  0
  6  7  2  0
  7  8  1  0
  8  9  2  0
  9 10  1  0
 10 11  2  0
 11 12  1  0
  4 13  1  0
 13 14  1  0
 13 15  1  0
 13 16  1  0
  2 17  1  0
 17 18  2  0
 18 19  1  0
 19 20  2  0
 20 21  1  0
 21 22  2  0
 11  6  1  0
 22 17  1  0
  4 23  1  6
  5 24  1  0
  7 25  1  0
  8 26  1  0
  9 27  1  0
 10 28  1  0
 18 29  1  0
 19 30  1  0
 20 31  1  0
 21 32  1  0
 22 33  1  0
M  CHG  1   3  -1
M  END
>  <UniqueID>  (25) 
21

>  <SMILES>  (25) 
O=C([N-][C@H](Nc1ccccc1Cl)C(Cl)(Cl)Cl)c1ccccc1

>  <Energy>  (25) 
37.94312274114861

>  <Genealogy>  (25) 
O=C([N-]C(Nc1ccccc1Cl)C(Cl)(Cl)Cl)c1ccccc1 (protonated)
O=C([N-][C@H](Nc1ccccc1Cl)C(Cl)(Cl)Cl)c1ccccc1 (chirality)
O=C([N-][C@H](Nc1ccccc1Cl)C(Cl)(Cl)Cl)c1ccccc1 (3D coordinates assigned)
O=C([N-][C@H](Nc1ccccc1Cl)C(Cl)(Cl)Cl)c1ccccc1 (optimized conformer: 37.94312274114861 kcal/mol)

>  <smiles>  (25) 
O=C(NC(Nc1ccccc1Cl)C(Cl)(Cl)Cl)c1ccccc1

>  <score_type>  (25) 
oracle

>  <origin>  (25) 
adg

>  <m_score__min__energy>  (25) 
-9.1500000000000004

>  <m_primary>  (25) 
energy

$$$$
25:0
     RDKit          3D

 19 20  0  0  0  0  0  0  0  0999 V2000
   60.7960   29.3390   45.7220 C   0  0  0  0  0  0  0  0  0  0  0  0
   59.7390   30.2220   46.3760 C   0  0  0  0  0  0  0  0  0  0  0  0
   58.4280   30.0040   45.7460 N   0  0  0  0  0  0  0  0  0  0  0  0
   57.7830   31.0050   45.0470 C   0  0  0  0  0  0  0  0  0  0  0  0
   58.3190   32.1370   44.9060 O   0  0  0  0  0  0  0  0  0  0  0  0
   56.5470   30.7810   44.4960 N   0  0  0  0  0  0  0  0  0  0  0  0
   55.9130   29.5820   44.6280 C   0  0  0  0  0  0  0  0  0  0  0  0
   54.7780   29.3950   44.1170 O   0  0  0  0  0  0  0  0  0  0  0  0
   56.5570   28.5860   45.3420 C   0  0  0  0  0  0  0  0  0  0  0  0
   56.1400   27.3430   45.6230 N   0  0  0  0  0  0  0  0  0  0  0  0
   57.1790   26.8540   46.3530 C   0  0  0  0  0  0  0  0  0  0  0  0
   57.1890   25.2300   47.0060 Cl  0  0  0  0  0  0  0  0  0  0  0  0
   58.2070   27.7240   46.5380 N   0  0  0  0  0  0  0  0  0  0  0  0
   57.7760   28.8120   45.8810 C   0  0  0  0  0  0  0  0  0  0  0  0
   61.3916   28.8415   46.5016 H   0  0  0  0  0  0  0  0  0  0  0  0
   60.3037   28.5800   45.0963 H   0  0  0  0  0  0  0  0  0  0  0  0
   61.4553   29.9585   45.0963 H   0  0  0  0  0  0  0  0  0  0  0  0
   59.6724   29.9758   47.4460 H   0  0  0  0  0  0  0  0  0  0  0  0
   60.0256   31.2763   46.2480 H   0  0  0  0  0  0  0  0  0  0  0  0
  1  2  1  0
  2  3  1  0
  3  4  1  0
  4  5  2  0
  4  6  1  0
  6  7  1  0
  7  8  2  0
  7  9  1  0
  9 10  1  0
 10 11  1  0
 11 12  1  0
 11 13  2  0
 13 14  1  0
 14  3  1  0
 14  9  2  0
  1 15  1  0
  1 16  1  0
  1 17  1  0
  2 18  1  0
  2 19  1  0
M  CHG  2   6  -1  10  -1
M  END
>  <UniqueID>  (26) 
22

>  <SMILES>  (26) 
CCn1c(=O)[n-]c(=O)c2[n-]c(Cl)nc21

>  <Energy>  (26) 
56.149274101147086

>  <Genealogy>  (26) 
CCn1c(=O)[n-]c(=O)c2[n-]c(Cl)nc21 (protonated)
CCn1c(=O)[n-]c(=O)c2[n-]c(Cl)nc21 (3D coordinates assigned)
CCn1c(=O)[n-]c(=O)c2[n-]c(Cl)nc21 (optimized conformer: 56.149274101147086 kcal/mol)

>  <smiles>  (26) 
CCn1c(=O)[nH]c(=O)c2[nH]c(Cl)nc21

>  <score_type>  (26) 
oracle

>  <origin>  (26) 
adg

>  <m_score__min__energy>  (26) 
-8.3200000000000003

>  <m_primary>  (26) 
energy

$$$$
26:0
     RDKit          3D

 64 67  0  0  1  0  0  0  0  0999 V2000
   64.7690   34.0560   51.9890 C   0  0  0  0  0  0  0  0  0  0  0  0
   64.2600   33.8920   50.8930 C   0  0  0  0  0  0  0  0  0  0  0  0
   63.6360   33.6970   49.5930 C   0  0  0  0  0  0  0  0  0  0  0  0
   64.3450   33.1200   48.5460 C   0  0  0  0  0  0  0  0  0  0  0  0
   63.6880   32.9590   47.3210 C   0  0  0  0  0  0  0  0  0  0  0  0
   62.3940   33.3510   47.1420 C   0  0  0  0  0  0  0  0  0  0  0  0
   61.7270   33.9180   48.2050 C   0  0  0  0  0  0  0  0  0  0  0  0
   60.3680   34.3610   48.1210 N   0  0  0  0  0  0  0  0  0  0  0  0
   59.7810   34.4430   46.9520 C   0  0  0  0  0  0  0  0  0  0  0  0
   59.8490   35.5810   46.2280 N   0  0  0  0  0  0  0  0  0  0  0  0
   59.2650   35.7160   45.0210 C   0  0  0  0  0  0  0  0  0  0  0  0
   58.5710   34.6650   44.4930 N   0  0  0  0  0  0  0  0  0  0  0  0
   58.4880   33.5080   45.2040 C   0  0  0  0  0  0  0  0  0  0  0  0
   57.7700   32.4760   44.6150 C   0  0  0  0  0  0  0  0  0  0  0  0
   57.6890   31.3030   45.3390 C   0  0  0  0  0  0  0  0  0  0  0  0
   56.9770   30.2570   44.7710 O   0  0  0  0  0  0  0  0  0  0  0  0
   56.5960   30.2730   43.3960 C   0  0  0  0  0  0  0  0  0  0  0  0
   58.2740   31.1330   46.5750 C   0  0  0  0  0  0  0  0  0  0  0  0
   58.1380   29.9120   47.2300 O   0  0  0  0  0  0  0  0  0  0  0  0
   58.9010   29.6910   48.3950 C   0  0  0  0  0  0  0  0  0  0  0  0
   60.2820   29.1070   48.0850 C   0  0  0  0  0  0  0  0  0  0  0  0
   60.4000   27.7030   48.5900 C   0  0  0  0  0  0  0  0  0  0  0  0
   60.7160   26.7230   47.5080 C   0  0  0  0  0  0  0  0  0  0  0  0
   60.0730   26.9240   46.1910 C   0  0  0  0  0  0  0  0  0  0  0  0
   59.2090   25.8840   45.7360 N   0  0  0  0  0  0  0  0  0  0  0  0
   58.1340   25.6090   46.6880 C   0  0  0  0  0  0  0  0  0  0  0  0
   57.4120   26.8760   46.9920 C   0  0  0  0  0  0  0  0  0  0  0  0
   56.9390   27.6080   45.8620 N   0  0  0  0  0  0  0  0  0  0  0  0
   57.7580   27.5630   44.6950 C   0  0  0  0  0  0  0  0  0  0  0  0
   58.5110   26.2620   44.5050 C   0  0  0  0  0  0  0  0  0  0  0  0
   58.9900   32.1850   47.1460 C   0  0  0  0  0  0  0  0  0  0  0  0
   59.0840   33.3650   46.4410 C   0  0  0  0  0  0  0  0  0  0  0  0
   62.3320   34.1030   49.4510 C   0  0  0  0  0  0  0  0  0  0  0  0
   65.2281   34.2039   52.9776 H   0  0  0  0  0  0  0  0  0  0  0  0
   65.3894   32.8001   48.6762 H   0  0  0  0  0  0  0  0  0  0  0  0
   64.2302   32.5037   46.4791 H   0  0  0  0  0  0  0  0  0  0  0  0
   61.8947   33.2173   46.1710 H   0  0  0  0  0  0  0  0  0  0  0  0
   60.3660   36.4110   46.5840 H   0  0  0  0  0  0  0  0  0  0  0  0
   59.3465   36.6628   44.4669 H   0  0  0  0  0  0  0  0  0  0  0  0
   57.2937   32.5863   43.6296 H   0  0  0  0  0  0  0  0  0  0  0  0
   55.4996   30.3190   43.3198 H   0  0  0  0  0  0  0  0  0  0  0  0
   57.0350   31.1535   42.9041 H   0  0  0  0  0  0  0  0  0  0  0  0
   56.9597   29.3588   42.9041 H   0  0  0  0  0  0  0  0  0  0  0  0
   59.0320   30.6494   48.9188 H   0  0  0  0  0  0  0  0  0  0  0  0
   58.3604   28.9627   49.0174 H   0  0  0  0  0  0  0  0  0  0  0  0
   60.4375   29.1112   46.9960 H   0  0  0  0  0  0  0  0  0  0  0  0
   61.0423   29.7235   48.5869 H   0  0  0  0  0  0  0  0  0  0  0  0
   61.2016   27.6664   49.3424 H   0  0  0  0  0  0  0  0  0  0  0  0
   59.4261   27.4219   49.0172 H   0  0  0  0  0  0  0  0  0  0  0  0
   61.8043   26.7474   47.3498 H   0  0  0  0  0  0  0  0  0  0  0  0
   60.3129   25.7664   47.8719 H   0  0  0  0  0  0  0  0  0  0  0  0
   59.4808   27.8493   46.2467 H   0  0  0  0  0  0  0  0  0  0  0  0
   60.8999   26.9517   45.4661 H   0  0  0  0  0  0  0  0  0  0  0  0
   57.4333   24.8820   46.2516 H   0  0  0  0  0  0  0  0  0  0  0  0
   58.5582   25.1943   47.6143 H   0  0  0  0  0  0  0  0  0  0  0  0
   56.5441   26.6274   47.6204 H   0  0  0  0  0  0  0  0  0  0  0  0
   58.1483   27.5287   47.4838 H   0  0  0  0  0  0  0  0  0  0  0  0
   56.8120   28.6060   46.1450 H   0  0  0  0  0  0  0  0  0  0  0  0
   57.1137   27.7183   43.8170 H   0  0  0  0  0  0  0  0  0  0  0  0
   58.5178   28.3492   44.8158 H   0  0  0  0  0  0  0  0  0  0  0  0
   57.7986   25.4684   44.2354 H   0  0  0  0  0  0  0  0  0  0  0  0
   59.2532   26.3963   43.7043 H   0  0  0  0  0  0  0  0  0  0  0  0
   59.4663   32.0756   48.1315 H   0  0  0  0  0  0  0  0  0  0  0  0
   61.7829   34.5579   50.2886 H   0  0  0  0  0  0  0  0  0  0  0  0
  1  2  3  0
  2  3  1  0
  3  4  2  0
  4  5  1  0
  5  6  2  0
  6  7  1  0
  7  8  1  0
  8  9  2  0
  9 10  1  0
 10 11  1  0
 11 12  2  0
 12 13  1  0
 13 14  2  0
 14 15  1  0
 15 16  1  0
 16 17  1  0
 15 18  2  0
 18 19  1  0
 19 20  1  0
 20 21  1  0
 21 22  1  0
 22 23  1  0
 23 24  1  0
 24 25  1  0
 25 26  1  0
 26 27  1  0
 27 28  1  0
 28 29  1  0
 29 30  1  0
 18 31  1  0
 31 32  2  0
  7 33  2  0
 33  3  1  0
 32  9  1  0
 32 13  1  0
 30 25  1  0
  1 34  1  0
  4 35  1  0
  5 36  1  0
  6 37  1  0
 10 38  1  0
 11 39  1  0
 14 40  1  0
 17 41  1  0
 17 42  1  0
 17 43  1  0
 20 44  1  0
 20 45  1  0
 21 46  1  0
 21 47  1  0
 22 48  1  0
 22 49  1  0
 23 50  1  0
 23 51  1  0
 24 52  1  0
 24 53  1  0
 26 54  1  0
 26 55  1  0
 27 56  1  0
 27 57  1  0
 28 58  1  0
 29 59  1  0
 29 60  1  0
 30 61  1  0
 30 62  1  0
 31 63  1  0
 33 64  1  0
M  END
>  <smiles>  (27) 
C#Cc1cccc(N=c2[nH]cnc3cc(OC)c(OCCCCCN4CCNCC4)cc23)c1

>  <score_type>  (27) 
oracle

>  <origin>  (27) 
adg

>  <m_score__min__energy>  (27) 
-8.9499999999999993

>  <m_primary>  (27) 
energy

$$$$
27:0
     RDKit          3D

 30 32  0  0  1  0  0  0  0  0999 V2000
   57.2690   23.7010   47.8020 C   0  0  0  0  0  0  0  0  0  0  0  0
   56.7680   24.8400   47.0550 N   0  0  0  0  0  0  0  0  0  0  0  0
   55.5250   24.9810   46.6390 N   0  0  0  0  0  0  0  0  0  0  0  0
   55.3970   26.1380   45.9830 N   0  0  0  0  0  0  0  0  0  0  0  0
   56.6220   26.7340   45.9990 C   0  0  0  0  0  0  0  0  0  0  0  0
   57.1250   27.9190   45.5010 C   0  0  0  0  0  0  0  0  0  0  0  0
   56.3270   28.6940   44.8660 N   0  0  0  0  0  0  0  0  0  0  0  0
   56.5950   29.3440   43.6080 C   0  0  0  0  0  0  0  0  0  0  0  0
   57.1860   30.6980   43.7880 C   0  0  0  0  0  0  0  0  0  0  0  0
   57.5930   31.4760   42.6950 C   0  0  0  0  0  0  0  0  0  0  0  0
   58.1360   32.7200   42.8330 C   0  0  0  0  0  0  0  0  0  0  0  0
   58.3110   33.2720   44.0760 C   0  0  0  0  0  0  0  0  0  0  0  0
   57.9260   32.5440   45.1810 C   0  0  0  0  0  0  0  0  0  0  0  0
   58.1340   33.2190   46.7990 Cl  0  0  0  0  0  0  0  0  0  0  0  0
   57.3740   31.2810   45.0250 C   0  0  0  0  0  0  0  0  0  0  0  0
   58.4030   28.3010   45.6460 N   0  0  0  0  0  0  0  0  0  0  0  0
   59.2250   27.4860   46.3090 C   0  0  0  0  0  0  0  0  0  0  0  0
   58.7780   26.3020   46.8210 N   0  0  0  0  0  0  0  0  0  0  0  0
   57.5000   25.9060   46.6840 C   0  0  0  0  0  0  0  0  0  0  0  0
   57.1807   23.9019   48.8799 H   0  0  0  0  0  0  0  0  0  0  0  0
   56.6809   22.8073   47.5461 H   0  0  0  0  0  0  0  0  0  0  0  0
   58.3252   23.5306   47.5461 H   0  0  0  0  0  0  0  0  0  0  0  0
   57.2983   28.7245   43.0322 H   0  0  0  0  0  0  0  0  0  0  0  0
   55.6379   29.4616   43.0787 H   0  0  0  0  0  0  0  0  0  0  0  0
   57.4691   31.0655   41.6820 H   0  0  0  0  0  0  0  0  0  0  0  0
   58.4363   33.2856   41.9386 H   0  0  0  0  0  0  0  0  0  0  0  0
   58.7494   34.2746   44.1887 H   0  0  0  0  0  0  0  0  0  0  0  0
   57.0740   30.7215   45.9233 H   0  0  0  0  0  0  0  0  0  0  0  0
   58.7540   29.2020   45.2600 H   0  0  0  0  0  0  0  0  0  0  0  0
   60.2784   27.7721   46.4452 H   0  0  0  0  0  0  0  0  0  0  0  0
  1  2  1  0
  2  3  1  0
  3  4  2  0
  4  5  1  0
  5  6  1  0
  6  7  2  0
  7  8  1  0
  8  9  1  0
  9 10  2  0
 10 11  1  0
 11 12  2  0
 12 13  1  0
 13 14  1  0
 13 15  2  0
  6 16  1  0
 16 17  1  0
 17 18  2  0
 18 19  1  0
 19  2  1  0
 19  5  2  0
 15  9  1  0
  1 20  1  0
  1 21  1  0
  1 22  1  0
  8 23  1  0
  8 24  1  0
 10 25  1  0
 11 26  1  0
 12 27  1  0
 15 28  1  0
 16 29  1  0
 17 30  1  0
M  END
>  <smiles>  (28) 
Cn1nnc2c(=NCc3cccc(Cl)c3)[nH]cnc21

>  <score_type>  (28) 
oracle

>  <origin>  (28) 
adg

>  <m_score__min__energy>  (28) 
-7.0700000000000003

>  <m_primary>  (28) 
energy

$$$$
28:0
     RDKit          3D

 33 35  0  0  1  0  0  0  0  0999 V2000
   63.7700   31.9540   48.8880 C   0  0  0  0  0  0  0  0  0  0  0  0
   63.6060   32.1180   47.4560 N   0  0  0  0  0  0  0  0  0  0  0  0
   62.8400   33.6400   47.1620 S   0  0  0  0  0  0  0  0  0  0  0  0
   63.0830   34.4840   48.3800 O   0  0  0  0  0  0  0  0  0  0  0  0
   63.4580   34.3270   45.9920 O   0  0  0  0  0  0  0  0  0  0  0  0
   61.1380   33.4400   46.8570 C   0  0  0  0  0  0  0  0  0  0  0  0
   60.4320   34.5370   46.3530 C   0  0  0  0  0  0  0  0  0  0  0  0
   59.0820   34.4760   46.0810 C   0  0  0  0  0  0  0  0  0  0  0  0
   58.4180   33.2690   46.3230 C   0  0  0  0  0  0  0  0  0  0  0  0
   59.1090   32.1750   46.8230 C   0  0  0  0  0  0  0  0  0  0  0  0
   58.3740   30.9640   47.0520 N   0  0  0  0  0  0  0  0  0  0  0  0
   58.5090   30.0650   46.1210 C   0  0  0  0  0  0  0  0  0  0  0  0
   59.5880   29.2560   46.0990 N   0  0  0  0  0  0  0  0  0  0  0  0
   59.7480   28.3110   45.1370 C   0  0  0  0  0  0  0  0  0  0  0  0
   58.8210   28.1550   44.1660 N   0  0  0  0  0  0  0  0  0  0  0  0
   57.7320   28.9370   44.1470 C   0  0  0  0  0  0  0  0  0  0  0  0
   56.6880   28.9700   43.2970 N   0  0  0  0  0  0  0  0  0  0  0  0
   55.8670   29.9580   43.7460 C   0  0  0  0  0  0  0  0  0  0  0  0
   56.4050   30.5170   44.8550 N   0  0  0  0  0  0  0  0  0  0  0  0
   57.5670   29.9010   45.1280 C   0  0  0  0  0  0  0  0  0  0  0  0
   60.4690   32.2530   47.0930 C   0  0  0  0  0  0  0  0  0  0  0  0
   63.0875   32.6364   49.4158 H   0  0  0  0  0  0  0  0  0  0  0  0
   63.5383   30.9155   49.1670 H   0  0  0  0  0  0  0  0  0  0  0  0
   64.8085   32.1857   49.1670 H   0  0  0  0  0  0  0  0  0  0  0  0
   64.5200   32.0600   46.9970 H   0  0  0  0  0  0  0  0  0  0  0  0
   60.9708   35.4779   46.1678 H   0  0  0  0  0  0  0  0  0  0  0  0
   58.5434   35.3499   45.6857 H   0  0  0  0  0  0  0  0  0  0  0  0
   57.3409   33.1867   46.1155 H   0  0  0  0  0  0  0  0  0  0  0  0
   60.3370   29.3260   46.8190 H   0  0  0  0  0  0  0  0  0  0  0  0
   60.6397   27.6670   45.1482 H   0  0  0  0  0  0  0  0  0  0  0  0
   56.5250   28.3580   42.4450 H   0  0  0  0  0  0  0  0  0  0  0  0
   54.9157   30.2555   43.2808 H   0  0  0  0  0  0  0  0  0  0  0  0
   61.0081   31.3803   47.4902 H   0  0  0  0  0  0  0  0  0  0  0  0
  1  2  1  0
  2  3  1  0
  3  4  2  0
  3  5  2  0
  3  6  1  0
  6  7  2  0
  7  8  1  0
  8  9  2  0
  9 10  1  0
 10 11  1  0
 11 12  2  0
 12 13  1  0
 13 14  1  0
 14 15  2  0
 15 16  1  0
 16 17  1  0
 17 18  1  0
 18 19  2  0
 19 20  1  0
 10 21  2  0
 21  6  1  0
 20 12  1  0
 20 16  2  0
  1 22  1  0
  1 23  1  0
  1 24  1  0
  2 25  1  0
  7 26  1  0
  8 27  1  0
  9 28  1  0
 13 29  1  0
 14 30  1  0
 17 31  1  0
 18 32  1  0
 21 33  1  0
M  END
>  <smiles>  (29) 
CNS(=O)(=O)c1cccc(N=c2[nH]cnc3[nH]cnc23)c1

>  <score_type>  (29) 
oracle

>  <origin>  (29) 
adg

>  <m_score__min__energy>  (29) 
-7.7699999999999996

>  <m_primary>  (29) 
energy

$$$$
29:0
     RDKit          3D

 42 44  0  0  0  0  0  0  0  0999 V2000
   55.2800   29.6540   44.8660 O   0  0  0  0  0  0  0  0  0  0  0  0
   56.5680   29.8820   44.1270 S   0  0  0  0  0  0  0  0  0  0  0  0
   56.2560   30.4170   42.7570 O   0  0  0  0  0  0  0  0  0  0  0  0
   57.4120   28.3750   43.9730 N   0  0  0  0  0  0  0  0  0  0  0  0
   58.4430   27.9070   44.8570 C   0  0  0  0  0  0  0  0  0  0  0  0
   59.7730   28.3570   44.7490 C   0  0  0  0  0  0  0  0  0  0  0  0
   60.7520   27.8850   45.6280 C   0  0  0  0  0  0  0  0  0  0  0  0
   60.4180   26.9620   46.6200 C   0  0  0  0  0  0  0  0  0  0  0  0
   59.1020   26.5060   46.7340 C   0  0  0  0  0  0  0  0  0  0  0  0
   58.1160   26.9710   45.8560 C   0  0  0  0  0  0  0  0  0  0  0  0
   56.4720   26.3700   46.0210 Cl  0  0  0  0  0  0  0  0  0  0  0  0
   57.5510   31.0210   45.0410 C   0  0  0  0  0  0  0  0  0  0  0  0
   58.0430   30.6560   46.3010 C   0  0  0  0  0  0  0  0  0  0  0  0
   58.8500   31.5380   47.0240 C   0  0  0  0  0  0  0  0  0  0  0  0
   59.1770   32.7930   46.4900 C   0  0  0  0  0  0  0  0  0  0  0  0
   60.2360   33.8940   47.3710 S   0  0  0  0  0  0  0  0  0  0  0  0
   61.0000   34.7220   46.3740 O   0  0  0  0  0  0  0  0  0  0  0  0
   59.4120   34.8170   48.2270 O   0  0  0  0  0  0  0  0  0  0  0  0
   61.3520   32.9780   48.3600 N   0  0  0  0  0  0  0  0  0  0  0  0
   62.0990   32.0060   47.5520 C   0  0  0  0  0  0  0  0  0  0  0  0
   63.3960   32.6720   47.1170 C   0  0  0  0  0  0  0  0  0  0  0  0
   63.5910   33.8440   48.0640 C   0  0  0  0  0  0  0  0  0  0  0  0
   62.3650   33.8510   48.9690 C   0  0  0  0  0  0  0  0  0  0  0  0
   58.6850   33.1570   45.2300 C   0  0  0  0  0  0  0  0  0  0  0  0
   57.8720   32.2790   44.5100 C   0  0  0  0  0  0  0  0  0  0  0  0
   60.0429   29.0839   43.9687 H   0  0  0  0  0  0  0  0  0  0  0  0
   61.7885   28.2421   45.5376 H   0  0  0  0  0  0  0  0  0  0  0  0
   61.1900   26.5937   47.3116 H   0  0  0  0  0  0  0  0  0  0  0  0
   58.8399   25.7789   47.5167 H   0  0  0  0  0  0  0  0  0  0  0  0
   57.7930   29.6713   46.7226 H   0  0  0  0  0  0  0  0  0  0  0  0
   59.2299   31.2474   48.0146 H   0  0  0  0  0  0  0  0  0  0  0  0
   60.8040   32.4840   49.1040 H   0  0  0  0  0  0  0  0  0  0  0  0
   62.3195   31.1103   48.1513 H   0  0  0  0  0  0  0  0  0  0  0  0
   61.5099   31.6969   46.6760 H   0  0  0  0  0  0  0  0  0  0  0  0
   64.2363   31.9671   47.2003 H   0  0  0  0  0  0  0  0  0  0  0  0
   63.3535   32.9993   46.0677 H   0  0  0  0  0  0  0  0  0  0  0  0
   64.5062   33.7082   48.6590 H   0  0  0  0  0  0  0  0  0  0  0  0
   63.6986   34.7932   47.5186 H   0  0  0  0  0  0  0  0  0  0  0  0
   62.6340   33.4729   49.9664 H   0  0  0  0  0  0  0  0  0  0  0  0
   61.9748   34.8735   49.0793 H   0  0  0  0  0  0  0  0  0  0  0  0
   58.9403   34.1392   44.8056 H   0  0  0  0  0  0  0  0  0  0  0  0
   57.4826   32.5745   43.5246 H   0  0  0  0  0  0  0  0  0  0  0  0
  1  2  2  0
  2  3  2  0
  2  4  1  0
  4  5  1  0
  5  6  2  0
  6  7  1  0
  7  8  2  0
  8  9  1  0
  9 10  2  0
 10 11  1  0
  2 12  1  0
 12 13  2  0
 13 14  1  0
 14 15  2  0
 15 16  1  0
 16 17  2  0
 16 18  2  0
 16 19  1  0
 19 20  1  0
 20 21  1  0
 21 22  1  0
 22 23  1  0
 15 24  1  0
 24 25  2  0
 10  5  1  0
 25 12  1  0
 23 19  1  0
  6 26  1  0
  7 27  1  0
  8 28  1  0
  9 29  1  0
 13 30  1  0
 14 31  1  0
 19 32  1  0
 20 33  1  0
 20 34  1  0
 21 35  1  0
 21 36  1  0
 22 37  1  0
 22 38  1  0
 23 39  1  0
 23 40  1  0
 24 41  1  0
 25 42  1  0
M  CHG  2   4  -1  19   1
M  END
>  <UniqueID>  (30) 
23

>  <SMILES>  (30) 
O=S(=O)([N-]c1ccccc1Cl)c1ccc(S(=O)(=O)[NH+]2CCCC2)cc1

>  <Energy>  (30) 
47.96887463054725

>  <Genealogy>  (30) 
O=S(=O)([N-]c1ccccc1Cl)c1ccc(S(=O)(=O)[NH+]2CCCC2)cc1 (protonated)
O=S(=O)([N-]c1ccccc1Cl)c1ccc(S(=O)(=O)[NH+]2CCCC2)cc1 (3D coordinates assigned)
O=S(=O)([N-]c1ccccc1Cl)c1ccc(S(=O)(=O)[NH+]2CCCC2)cc1 (nonaromatic ring conformer: 47.96887463054725 kcal/mol)

>  <smiles>  (30) 
O=S(=O)(Nc1ccccc1Cl)c1ccc(S(=O)(=O)N2CCCC2)cc1

>  <score_type>  (30) 
oracle

>  <origin>  (30) 
adg

>  <m_score__min__energy>  (30) 
-8.9199999999999999

>  <m_primary>  (30) 
energy

$$$$
30:0
     RDKit          3D

 25 26  0  0  0  0  0  0  0  0999 V2000
   58.7602   24.9295   47.1004 H   0  0  0  0  0  0  0  0  0  0  0  0
   57.9550   25.5560   46.6890 C   0  0  0  0  0  0  0  0  0  0  0  0
   56.7180   25.0340   46.5020 N   0  0  0  0  0  0  0  0  0  0  0  0
   55.7040   25.7880   45.9960 C   0  0  0  0  0  0  0  0  0  0  0  0
   54.5220   25.2760   45.8170 N   0  0  0  0  0  0  0  0  0  0  0  0
   54.2820   23.9430   45.2730 C   0  0  0  0  0  0  0  0  0  0  0  0
   54.1532   23.2277   46.0987 H   0  0  0  0  0  0  0  0  0  0  0  0
   53.3720   23.9575   44.6552 H   0  0  0  0  0  0  0  0  0  0  0  0
   55.1399   23.6392   44.6552 H   0  0  0  0  0  0  0  0  0  0  0  0
   55.9300   27.0920   45.6690 N   0  0  0  0  0  0  0  0  0  0  0  0
   55.1470   27.6530   45.2620 H   0  0  0  0  0  0  0  0  0  0  0  0
   57.1600   27.6620   45.8390 C   0  0  0  0  0  0  0  0  0  0  0  0
   57.3840   29.0860   45.4850 C   0  0  0  0  0  0  0  0  0  0  0  0
   56.6690   29.6760   44.4260 C   0  0  0  0  0  0  0  0  0  0  0  0
   55.9402   29.0783   43.8589 H   0  0  0  0  0  0  0  0  0  0  0  0
   56.8790   31.0170   44.0900 C   0  0  0  0  0  0  0  0  0  0  0  0
   56.3147   31.4702   43.2617 H   0  0  0  0  0  0  0  0  0  0  0  0
   57.8050   31.7830   44.8050 C   0  0  0  0  0  0  0  0  0  0  0  0
   58.0670   33.4650   44.3810 Cl  0  0  0  0  0  0  0  0  0  0  0  0
   58.5210   31.2070   45.8580 C   0  0  0  0  0  0  0  0  0  0  0  0
   59.2502   31.8089   46.4202 H   0  0  0  0  0  0  0  0  0  0  0  0
   58.3120   29.8670   46.1980 C   0  0  0  0  0  0  0  0  0  0  0  0
   58.8773   29.4201   47.0291 H   0  0  0  0  0  0  0  0  0  0  0  0
   58.2060   26.8860   46.3600 C   0  0  0  0  0  0  0  0  0  0  0  0
   59.2062   27.3199   46.5061 H   0  0  0  0  0  0  0  0  0  0  0  0
  1  2  1  0
  2  3  2  0
  3  4  1  0
  4  5  2  0
  5  6  1  0
  6  7  1  0
  6  8  1  0
  6  9  1  0
  4 10  1  0
 10 11  1  0
 10 12  1  0
 12 13  1  0
 13 14  2  0
 14 15  1  0
 14 16  1  0
 16 17  1  0
 16 18  2  0
 18 19  1  0
 18 20  1  0
 20 21  1  0
 20 22  2  0
 22 23  1  0
 12 24  2  0
 24 25  1  0
 24  2  1  0
 22 13  1  0
M  END
>  <UniqueID>  (31) 
24

>  <SMILES>  (31) 
C/N=c1\nccc(-c2ccc(Cl)cc2)[nH]1

>  <Energy>  (31) 
30.030442029214715

>  <Genealogy>  (31) 
C/N=c1\nccc(-c2ccc(Cl)cc2)[nH]1 (cis-trans isomerization)
C/N=c1\nccc(-c2ccc(Cl)cc2)[nH]1 (3D coordinates assigned)
C/N=c1\nccc(-c2ccc(Cl)cc2)[nH]1 (optimized conformer: 30.030442029214715 kcal/mol)

>  <smiles>  (31) 
CN=c1nccc(-c2ccc(Cl)cc2)[nH]1

>  <score_type>  (31) 
oracle

>  <origin>  (31) 
adg

>  <m_score__min__energy>  (31) 
-6.3399999999999999

>  <m_primary>  (31) 
energy

$$$$
31:0
     RDKit          3D

 91 94  0  0  0  0  0  0  0  0999 V2000
   61.1480   26.6180   50.6830 N   0  0  0  0  0  0  0  0  0  0  0  0
   61.8890   27.3950   51.6220 C   0  0  0  0  0  0  0  0  0  0  0  0
   62.5080   26.8210   52.5560 O   0  0  0  0  0  0  0  0  0  0  0  0
   61.9110   28.8900   51.5200 C   0  0  0  0  0  0  0  0  0  0  0  0
   60.5080   29.4670   51.7340 C   0  0  0  0  0  0  0  0  0  0  0  0
   59.8700   29.8320   50.4180 C   0  0  0  0  0  0  0  0  0  0  0  0
   59.6370   31.2910   50.0830 C   0  0  0  0  0  0  0  0  0  0  0  0
   58.1480   31.6630   50.1150 C   0  0  0  0  0  0  0  0  0  0  0  0
   57.5170   31.2930   51.4230 C   0  0  0  0  0  0  0  0  0  0  0  0
   57.0650   30.1280   51.5990 O   0  0  0  0  0  0  0  0  0  0  0  0
   57.4380   32.2500   52.4370 O   0  0  0  0  0  0  0  0  0  0  0  0
   58.0930   33.5100   52.3720 C   0  0  0  0  0  0  0  0  0  0  0  0
   59.5610   33.2990   52.6010 C   0  0  0  0  0  0  0  0  0  0  0  0
   59.9960   32.5160   53.6860 C   0  0  0  0  0  0  0  0  0  0  0  0
   61.3600   32.2620   53.8660 C   0  0  0  0  0  0  0  0  0  0  0  0
   62.2950   32.7740   52.9620 C   0  0  0  0  0  0  0  0  0  0  0  0
   61.8660   33.5370   51.8710 C   0  0  0  0  0  0  0  0  0  0  0  0
   60.5030   33.7950   51.6850 C   0  0  0  0  0  0  0  0  0  0  0  0
   59.6100   28.8680   49.5800 N   0  0  0  0  0  0  0  0  0  0  0  0
   60.0680   28.7410   48.2260 C   0  0  0  0  0  0  0  0  0  0  0  0
   60.8230   27.7880   47.8910 O   0  0  0  0  0  0  0  0  0  0  0  0
   59.6750   29.8070   47.2370 C   0  0  1  0  0  0  0  0  0  0  0  0
   60.8750   30.3670   46.4420 C   0  0  0  0  0  0  0  0  0  0  0  0
   61.6070   31.4480   47.2010 C   0  0  0  0  0  0  0  0  0  0  0  0
   61.5660   32.7800   46.7530 C   0  0  0  0  0  0  0  0  0  0  0  0
   62.2550   33.7780   47.4490 C   0  0  0  0  0  0  0  0  0  0  0  0
   62.9740   33.4590   48.6050 C   0  0  0  0  0  0  0  0  0  0  0  0
   63.0110   32.1380   49.0630 C   0  0  0  0  0  0  0  0  0  0  0  0
   62.3330   31.1350   48.3640 C   0  0  0  0  0  0  0  0  0  0  0  0
   58.6320   29.2810   46.3530 N   0  0  0  0  0  0  0  0  0  0  0  0
   57.7850   28.1580   46.6350 C   0  0  0  0  0  0  0  0  0  0  0  0
   57.8020   27.6200   47.7760 O   0  0  0  0  0  0  0  0  0  0  0  0
   56.8470   27.6500   45.5640 C   0  0  1  0  0  0  0  0  0  0  0  0
   56.1430   26.3520   45.9970 C   0  0  0  0  0  0  0  0  0  0  0  0
   56.8450   25.1210   45.4770 C   0  0  0  0  0  0  0  0  0  0  0  0
   56.3020   24.3880   44.4080 C   0  0  0  0  0  0  0  0  0  0  0  0
   56.9340   23.2260   43.9550 C   0  0  0  0  0  0  0  0  0  0  0  0
   58.1170   22.7900   44.5600 C   0  0  0  0  0  0  0  0  0  0  0  0
   58.6690   23.5200   45.6170 C   0  0  0  0  0  0  0  0  0  0  0  0
   58.0390   24.6810   46.0750 C   0  0  0  0  0  0  0  0  0  0  0  0
   55.8320   28.6550   45.2400 N   0  0  0  0  0  0  0  0  0  0  0  0
   56.0580   29.7500   44.3480 C   0  0  0  0  0  0  0  0  0  0  0  0
   55.8190   29.6230   43.1170 O   0  0  0  0  0  0  0  0  0  0  0  0
   56.5300   30.9640   44.8590 O   0  0  0  0  0  0  0  0  0  0  0  0
   57.5800   31.7140   44.2510 C   0  0  0  0  0  0  0  0  0  0  0  0
   58.0580   32.7850   45.1930 C   0  0  0  0  0  0  0  0  0  0  0  0
   58.7800   33.8890   44.7110 C   0  0  0  0  0  0  0  0  0  0  0  0
   59.2590   34.8600   45.5970 C   0  0  0  0  0  0  0  0  0  0  0  0
   59.0240   34.7370   46.9690 C   0  0  0  0  0  0  0  0  0  0  0  0
   58.3150   33.6340   47.4590 C   0  0  0  0  0  0  0  0  0  0  0  0
   57.8380   32.6570   46.5760 C   0  0  0  0  0  0  0  0  0  0  0  0
   61.1280   25.5770   50.7600 H   0  0  0  0  0  0  0  0  0  0  0  0
   60.6180   27.0800   49.9100 H   0  0  0  0  0  0  0  0  0  0  0  0
   62.5887   29.2945   52.2862 H   0  0  0  0  0  0  0  0  0  0  0  0
   62.2602   29.1713   50.5155 H   0  0  0  0  0  0  0  0  0  0  0  0
   59.8836   28.7168   52.2412 H   0  0  0  0  0  0  0  0  0  0  0  0
   60.5917   30.3758   52.3480 H   0  0  0  0  0  0  0  0  0  0  0  0
   60.1732   31.9125   50.8153 H   0  0  0  0  0  0  0  0  0  0  0  0
   60.0068   31.4661   49.0619 H   0  0  0  0  0  0  0  0  0  0  0  0
   58.0474   32.7479   49.9639 H   0  0  0  0  0  0  0  0  0  0  0  0
   57.6363   31.1070   49.3156 H   0  0  0  0  0  0  0  0  0  0  0  0
   57.9335   33.9599   51.3810 H   0  0  0  0  0  0  0  0  0  0  0  0
   57.6862   34.1850   53.1394 H   0  0  0  0  0  0  0  0  0  0  0  0
   59.2624   32.1028   54.3939 H   0  0  0  0  0  0  0  0  0  0  0  0
   61.6974   31.6579   54.7211 H   0  0  0  0  0  0  0  0  0  0  0  0
   63.3673   32.5771   53.1084 H   0  0  0  0  0  0  0  0  0  0  0  0
   62.6020   33.9354   51.1571 H   0  0  0  0  0  0  0  0  0  0  0  0
   60.1691   34.3871   50.8202 H   0  0  0  0  0  0  0  0  0  0  0  0
   59.2780   30.6650   47.7994 H   0  0  0  0  0  0  0  0  0  0  0  0
   61.5754   29.5452   46.2319 H   0  0  0  0  0  0  0  0  0  0  0  0
   60.4875   30.8099   45.5126 H   0  0  0  0  0  0  0  0  0  0  0  0
   60.9900   33.0379   45.8520 H   0  0  0  0  0  0  0  0  0  0  0  0
   62.2313   34.8162   47.0864 H   0  0  0  0  0  0  0  0  0  0  0  0
   63.5104   34.2468   49.1541 H   0  0  0  0  0  0  0  0  0  0  0  0
   63.5742   31.8880   49.9742 H   0  0  0  0  0  0  0  0  0  0  0  0
   62.3675   30.0966   48.7252 H   0  0  0  0  0  0  0  0  0  0  0  0
   57.4602   27.4432   44.6745 H   0  0  0  0  0  0  0  0  0  0  0  0
   56.1222   26.3101   47.0960 H   0  0  0  0  0  0  0  0  0  0  0  0
   55.1264   26.3633   45.5771 H   0  0  0  0  0  0  0  0  0  0  0  0
   55.3748   24.7303   43.9251 H   0  0  0  0  0  0  0  0  0  0  0  0
   56.5001   22.6540   43.1216 H   0  0  0  0  0  0  0  0  0  0  0  0
   58.6124   21.8743   44.2049 H   0  0  0  0  0  0  0  0  0  0  0  0
   59.6021   23.1797   46.0898 H   0  0  0  0  0  0  0  0  0  0  0  0
   58.4789   25.2521   46.9059 H   0  0  0  0  0  0  0  0  0  0  0  0
   58.4161   31.0411   44.0098 H   0  0  0  0  0  0  0  0  0  0  0  0
   57.2026   32.1840   43.3308 H   0  0  0  0  0  0  0  0  0  0  0  0
   58.9697   33.9907   43.6323 H   0  0  0  0  0  0  0  0  0  0  0  0
   59.8224   35.7230   45.2124 H   0  0  0  0  0  0  0  0  0  0  0  0
   59.3955   35.5056   47.6627 H   0  0  0  0  0  0  0  0  0  0  0  0
   58.1322   33.5344   48.5391 H   0  0  0  0  0  0  0  0  0  0  0  0
   57.2895   31.7867   46.9656 H   0  0  0  0  0  0  0  0  0  0  0  0
  1  2  1  0
  2  3  2  0
  2  4  1  0
  4  5  1  0
  5  6  1  0
  6  7  1  0
  7  8  1  0
  8  9  1  0
  9 10  2  0
  9 11  1  0
 11 12  1  0
 12 13  1  0
 13 14  2  0
 14 15  1  0
 15 16  2  0
 16 17  1  0
 17 18  2  0
  6 19  2  3
 19 20  1  0
 20 21  2  0
 20 22  1  0
 22 23  1  0
 23 24  1  0
 24 25  2  0
 25 26  1  0
 26 27  2  0
 27 28  1  0
 28 29  2  0
 22 30  1  0
 30 31  1  0
 31 32  2  0
 31 33  1  0
 33 34  1  0
 34 35  1  0
 35 36  2  0
 36 37  1  0
 37 38  2  0
 38 39  1  0
 39 40  2  0
 33 41  1  0
 41 42  1  0
 42 43  2  0
 42 44  1  0
 44 45  1  0
 45 46  1  0
 46 47  2  0
 47 48  1  0
 48 49  2  0
 49 50  1  0
 50 51  2  0
 18 13  1  0
 29 24  1  0
 40 35  1  0
 51 46  1  0
  1 52  1  0
  1 53  1  0
  4 54  1  0
  4 55  1  0
  5 56  1  0
  5 57  1  0
  7 58  1  0
  7 59  1  0
  8 60  1  0
  8 61  1  0
 12 62  1  0
 12 63  1  0
 14 64  1  0
 15 65  1  0
 16 66  1  0
 17 67  1  0
 18 68  1  0
 22 69  1  1
 23 70  1  0
 23 71  1  0
 25 72  1  0
 26 73  1  0
 27 74  1  0
 28 75  1  0
 29 76  1  0
 33 77  1  6
 34 78  1  0
 34 79  1  0
 36 80  1  0
 37 81  1  0
 38 82  1  0
 39 83  1  0
 40 84  1  0
 45 85  1  0
 45 86  1  0
 47 87  1  0
 48 88  1  0
 49 89  1  0
 50 90  1  0
 51 91  1  0
M  CHG  2  30  -1  41  -1
M  END
>  <UniqueID>  (32) 
25

>  <SMILES>  (32) 
NC(=O)CCC(CCC(=O)OCc1ccccc1)=NC(=O)[C@@H](Cc1ccccc1)[N-]C(=O)[C@@H](Cc1ccccc1)[N-]C(=O)OCc1ccccc1

>  <Energy>  (32) 
73.32640810118926

>  <Genealogy>  (32) 
NC(=O)CCC(CCC(=O)OCc1ccccc1)=NC(=O)C(Cc1ccccc1)[N-]C(=O)C(Cc1ccccc1)[N-]C(=O)OCc1ccccc1 (protonated)
NC(=O)CCC(CCC(=O)OCc1ccccc1)=NC(=O)[C@@H](Cc1ccccc1)[N-]C(=O)[C@@H](Cc1ccccc1)[N-]C(=O)OCc1ccccc1 (chirality)
NC(=O)CCC(CCC(=O)OCc1ccccc1)=NC(=O)[C@@H](Cc1ccccc1)[N-]C(=O)[C@@H](Cc1ccccc1)[N-]C(=O)OCc1ccccc1 (3D coordinates assigned)
NC(=O)CCC(CCC(=O)OCc1ccccc1)=NC(=O)[C@@H](Cc1ccccc1)[N-]C(=O)[C@@H](Cc1ccccc1)[N-]C(=O)OCc1ccccc1 (optimized conformer: 73.32640810118926 kcal/mol)

>  <smiles>  (32) 
NC(=O)CCC(CCC(=O)OCc1ccccc1)=NC(=O)C(Cc1ccccc1)NC(=O)C(Cc1ccccc1)NC(=O)OCc1ccccc1

>  <score_type>  (32) 
oracle

>  <origin>  (32) 
adg

>  <m_score__min__energy>  (32) 
-15.23

>  <m_primary>  (32) 
energy

$$$$
32:0
     RDKit          3D

 34 35  0  0  0  0  0  0  0  0999 V2000
   58.6947   35.6814   46.2486 H   0  0  0  0  0  0  0  0  0  0  0  0
   58.9520   34.6950   46.6620 C   0  0  0  0  0  0  0  0  0  0  0  0
   59.4710   34.6120   47.8510 N   0  0  0  0  0  0  0  0  0  0  0  0
   60.8110   34.2010   48.1760 C   0  0  0  0  0  0  0  0  0  0  0  0
   61.1840   34.1730   49.5260 C   0  0  0  0  0  0  0  0  0  0  0  0
   60.4576   34.4680   50.2976 H   0  0  0  0  0  0  0  0  0  0  0  0
   62.4700   33.7740   49.9030 C   0  0  0  0  0  0  0  0  0  0  0  0
   62.7542   33.7725   50.9656 H   0  0  0  0  0  0  0  0  0  0  0  0
   63.3980   33.3760   48.9310 C   0  0  0  0  0  0  0  0  0  0  0  0
   64.7910   32.9850   49.3320 C   0  0  0  0  0  0  0  0  0  0  0  0
   64.8645   32.9644   50.4293 H   0  0  0  0  0  0  0  0  0  0  0  0
   65.0218   31.9874   48.9302 H   0  0  0  0  0  0  0  0  0  0  0  0
   65.5073   33.7168   48.9302 H   0  0  0  0  0  0  0  0  0  0  0  0
   63.0340   33.4060   47.5780 C   0  0  0  0  0  0  0  0  0  0  0  0
   63.7641   33.1140   46.8088 H   0  0  0  0  0  0  0  0  0  0  0  0
   61.7480   33.8050   47.2000 C   0  0  0  0  0  0  0  0  0  0  0  0
   61.4665   33.8099   46.1367 H   0  0  0  0  0  0  0  0  0  0  0  0
   58.7040   33.4800   45.8600 C   0  0  0  0  0  0  0  0  0  0  0  0
   58.2470   33.6070   44.5390 C   0  0  0  0  0  0  0  0  0  0  0  0
   58.0771   34.6073   44.1141 H   0  0  0  0  0  0  0  0  0  0  0  0
   58.0060   32.4720   43.7590 C   0  0  0  0  0  0  0  0  0  0  0  0
   57.6507   32.5843   42.7241 H   0  0  0  0  0  0  0  0  0  0  0  0
   58.2160   31.1860   44.2920 C   0  0  0  0  0  0  0  0  0  0  0  0
   57.9890   30.0120   43.5540 O   0  0  0  0  0  0  0  0  0  0  0  0
   56.7060   29.4760   43.2330 C   0  0  0  0  0  0  0  0  0  0  0  0
   56.3051   30.0009   42.3534 H   0  0  0  0  0  0  0  0  0  0  0  0
   56.8144   28.4023   43.0200 H   0  0  0  0  0  0  0  0  0  0  0  0
   55.7600   29.6460   44.3800 C   0  0  0  0  0  0  0  0  0  0  0  0
   55.1510   30.7350   44.5420 O   0  0  0  0  0  0  0  0  0  0  0  0
   55.5240   28.5890   45.2480 O   0  0  0  0  0  0  0  0  0  0  0  0
   58.6740   31.0610   45.6080 C   0  0  0  0  0  0  0  0  0  0  0  0
   58.8454   30.0607   46.0324 H   0  0  0  0  0  0  0  0  0  0  0  0
   58.9160   32.1950   46.3890 C   0  0  0  0  0  0  0  0  0  0  0  0
   59.2742   32.0811   47.4228 H   0  0  0  0  0  0  0  0  0  0  0  0
  1  2  1  0
  2  3  2  0
  3  4  1  0
  4  5  2  0
  5  6  1  0
  5  7  1  0
  7  8  1  0
  7  9  2  0
  9 10  1  0
 10 11  1  0
 10 12  1  0
 10 13  1  0
  9 14  1  0
 14 15  1  0
 14 16  2  0
 16 17  1  0
  2 18  1  0
 18 19  2  0
 19 20  1  0
 19 21  1  0
 21 22  1  0
 21 23  2  0
 23 24  1  0
 24 25  1  0
 25 26  1  0
 25 27  1  0
 25 28  1  0
 28 29  2  0
 28 30  1  0
 23 31  1  0
 31 32  1  0
 31 33  2  0
 33 34  1  0
 16  4  1  0
 33 18  1  0
M  CHG  1  30  -1
M  END
>  <UniqueID>  (33) 
26

>  <SMILES>  (33) 
Cc1ccc(/N=C/c2ccc(OCC(=O)[O-])cc2)cc1

>  <Energy>  (33) 
35.892641652182576

>  <Genealogy>  (33) 
Cc1ccc(N=Cc2ccc(OCC(=O)[O-])cc2)cc1 (protonated)
Cc1ccc(/N=C/c2ccc(OCC(=O)[O-])cc2)cc1 (cis-trans isomerization)
Cc1ccc(/N=C/c2ccc(OCC(=O)[O-])cc2)cc1 (3D coordinates assigned)
Cc1ccc(/N=C/c2ccc(OCC(=O)[O-])cc2)cc1 (optimized conformer: 35.892641652182576 kcal/mol)

>  <smiles>  (33) 
Cc1ccc(N=Cc2ccc(OCC(=O)O)cc2)cc1

>  <score_type>  (33) 
oracle

>  <origin>  (33) 
adg

>  <m_score__min__energy>  (33) 
-10.210000000000001

>  <m_primary>  (33) 
energy

$$$$
33:0
     RDKit          3D

 36 38  0  0  0  0  0  0  0  0999 V2000
   58.5220   34.2600   44.6470 C   0  0  0  0  0  0  0  0  0  0  0  0
   58.2700   32.8060   44.9480 C   0  0  0  0  0  0  0  0  0  0  0  0
   58.4040   32.3440   46.2660 C   0  0  0  0  0  0  0  0  0  0  0  0
   58.1810   31.0020   46.5770 C   0  0  0  0  0  0  0  0  0  0  0  0
   57.8200   30.0870   45.5760 C   0  0  0  0  0  0  0  0  0  0  0  0
   57.5850   28.6640   45.9310 C   0  0  0  0  0  0  0  0  0  0  0  0
   58.2910   27.8980   46.8390 C   0  0  0  0  0  0  0  0  0  0  0  0
   57.7680   26.6600   46.8710 N   0  0  0  0  0  0  0  0  0  0  0  0
   56.7500   26.7080   45.9860 C   0  0  0  0  0  0  0  0  0  0  0  0
   55.9090   25.5380   45.6740 C   0  0  0  0  0  0  0  0  0  0  0  0
   54.6900   25.5690   45.9950 O   0  0  0  0  0  0  0  0  0  0  0  0
   56.4510   24.3230   45.0220 C   0  0  0  0  0  0  0  0  0  0  0  0
   57.6520   23.7310   45.4600 C   0  0  0  0  0  0  0  0  0  0  0  0
   58.1510   22.5910   44.8240 C   0  0  0  0  0  0  0  0  0  0  0  0
   57.4680   22.0360   43.7400 C   0  0  0  0  0  0  0  0  0  0  0  0
   56.2860   22.6240   43.2850 C   0  0  0  0  0  0  0  0  0  0  0  0
   55.7820   23.7650   43.9180 C   0  0  0  0  0  0  0  0  0  0  0  0
   56.6130   27.9100   45.3860 N   0  0  0  0  0  0  0  0  0  0  0  0
   57.6900   30.5440   44.2520 C   0  0  0  0  0  0  0  0  0  0  0  0
   57.9170   31.8930   43.9270 C   0  0  0  0  0  0  0  0  0  0  0  0
   57.7630   32.3450   42.4970 C   0  0  0  0  0  0  0  0  0  0  0  0
   58.6187   34.8182   45.5899 H   0  0  0  0  0  0  0  0  0  0  0  0
   59.4506   34.3585   44.0656 H   0  0  0  0  0  0  0  0  0  0  0  0
   57.6807   34.6653   44.0656 H   0  0  0  0  0  0  0  0  0  0  0  0
   58.6879   33.0472   47.0628 H   0  0  0  0  0  0  0  0  0  0  0  0
   58.2892   30.6582   47.6163 H   0  0  0  0  0  0  0  0  0  0  0  0
   59.1445   28.2457   47.4396 H   0  0  0  0  0  0  0  0  0  0  0  0
   58.2001   24.1686   46.3074 H   0  0  0  0  0  0  0  0  0  0  0  0
   59.0845   22.1296   45.1784 H   0  0  0  0  0  0  0  0  0  0  0  0
   57.8609   21.1359   43.2446 H   0  0  0  0  0  0  0  0  0  0  0  0
   55.7507   22.1895   42.4279 H   0  0  0  0  0  0  0  0  0  0  0  0
   54.8554   24.2293   43.5495 H   0  0  0  0  0  0  0  0  0  0  0  0
   57.4067   29.8358   43.4595 H   0  0  0  0  0  0  0  0  0  0  0  0
   57.4083   33.3861   42.4777 H   0  0  0  0  0  0  0  0  0  0  0  0
   58.7343   32.2790   41.9850 H   0  0  0  0  0  0  0  0  0  0  0  0
   57.0340   31.6997   41.9850 H   0  0  0  0  0  0  0  0  0  0  0  0
  1  2  1  0
  2  3  2  0
  3  4  1  0
  4  5  2  0
  5  6  1  0
  6  7  2  0
  7  8  1  0
  8  9  1  0
  9 10  1  0
 10 11  2  0
 10 12  1  0
 12 13  2  0
 13 14  1  0
 14 15  2  0
 15 16  1  0
 16 17  2  0
  9 18  2  0
  5 19  1  0
 19 20  2  0
 20 21  1  0
 20  2  1  0
 18  6  1  0
 17 12  1  0
  1 22  1  0
  1 23  1  0
  1 24  1  0
  3 25  1  0
  4 26  1  0
  7 27  1  0
 13 28  1  0
 14 29  1  0
 15 30  1  0
 16 31  1  0
 17 32  1  0
 19 33  1  0
 21 34  1  0
 21 35  1  0
 21 36  1  0
M  CHG  1   8  -1
M  END
>  <UniqueID>  (34) 
27

>  <SMILES>  (34) 
Cc1ccc(-c2c[n-]c(C(=O)c3ccccc3)n2)cc1C

>  <Energy>  (34) 
71.00595038506106

>  <Genealogy>  (34) 
Cc1ccc(-c2c[n-]c(C(=O)c3ccccc3)n2)cc1C (protonated)
Cc1ccc(-c2c[n-]c(C(=O)c3ccccc3)n2)cc1C (3D coordinates assigned)
Cc1ccc(-c2c[n-]c(C(=O)c3ccccc3)n2)cc1C (optimized conformer: 71.00595038506106 kcal/mol)

>  <smiles>  (34) 
Cc1ccc(-c2c[nH]c(C(=O)c3ccccc3)n2)cc1C

>  <score_type>  (34) 
oracle

>  <origin>  (34) 
adg

>  <m_score__min__energy>  (34) 
-9.2899999999999991

>  <m_primary>  (34) 
energy

$$$$
34:0
     RDKit          3D

 38 40  0  0  0  0  0  0  0  0999 V2000
   58.6238   33.4428   42.2119 H   0  0  0  0  0  0  0  0  0  0  0  0
   58.0810   32.6510   42.7490 C   0  0  0  0  0  0  0  0  0  0  0  0
   57.3940   31.6670   42.0340 C   0  0  0  0  0  0  0  0  0  0  0  0
   57.4030   31.6798   40.9341 H   0  0  0  0  0  0  0  0  0  0  0  0
   56.6950   30.6660   42.7150 C   0  0  0  0  0  0  0  0  0  0  0  0
   56.1688   29.8832   42.1490 H   0  0  0  0  0  0  0  0  0  0  0  0
   56.6620   30.6560   44.1230 C   0  0  0  0  0  0  0  0  0  0  0  0
   55.9860   29.6250   44.8640 N   0  0  0  0  0  0  0  0  0  0  0  0
   56.5350   28.6590   45.5390 C   0  0  0  0  0  0  0  0  0  0  0  0
   55.9060   27.4580   45.6070 N   0  0  0  0  0  0  0  0  0  0  0  0
   56.4640   26.4240   46.2870 C   0  0  0  0  0  0  0  0  0  0  0  0
   55.7980   25.1930   46.3270 O   0  0  0  0  0  0  0  0  0  0  0  0
   56.1010   24.0830   45.5250 C   0  0  0  0  0  0  0  0  0  0  0  0
   55.8900   24.0820   44.1320 C   0  0  0  0  0  0  0  0  0  0  0  0
   55.4680   24.9709   43.6402 H   0  0  0  0  0  0  0  0  0  0  0  0
   56.2160   22.9530   43.3730 C   0  0  0  0  0  0  0  0  0  0  0  0
   56.0409   22.9530   42.2870 H   0  0  0  0  0  0  0  0  0  0  0  0
   56.7630   21.8260   43.9900 C   0  0  0  0  0  0  0  0  0  0  0  0
   57.0111   20.9368   43.3919 H   0  0  0  0  0  0  0  0  0  0  0  0
   56.9950   21.8290   45.3690 C   0  0  0  0  0  0  0  0  0  0  0  0
   57.4335   20.9447   45.8545 H   0  0  0  0  0  0  0  0  0  0  0  0
   56.6700   22.9550   46.1310 C   0  0  0  0  0  0  0  0  0  0  0  0
   56.8623   22.9555   47.2141 H   0  0  0  0  0  0  0  0  0  0  0  0
   57.6730   26.5890   46.8830 N   0  0  0  0  0  0  0  0  0  0  0  0
   58.3160   27.7850   46.8160 C   0  0  0  0  0  0  0  0  0  0  0  0
   59.4680   27.9570   47.3890 N   0  0  0  0  0  0  0  0  0  0  0  0
   60.4170   29.0020   47.0140 C   0  0  0  0  0  0  0  0  0  0  0  0
   61.3607   28.8513   47.5587 H   0  0  0  0  0  0  0  0  0  0  0  0
   59.9954   29.9853   47.2697 H   0  0  0  0  0  0  0  0  0  0  0  0
   60.6820   28.9420   45.5180 C   0  0  0  0  0  0  0  0  0  0  0  0
   61.7411   28.7022   45.3426 H   0  0  0  0  0  0  0  0  0  0  0  0
   60.0500   28.1642   45.0646 H   0  0  0  0  0  0  0  0  0  0  0  0
   60.4466   29.9162   45.0646 H   0  0  0  0  0  0  0  0  0  0  0  0
   57.7460   28.8130   46.1410 N   0  0  0  0  0  0  0  0  0  0  0  0
   57.3810   31.6290   44.8300 C   0  0  0  0  0  0  0  0  0  0  0  0
   57.3967   31.6056   45.9296 H   0  0  0  0  0  0  0  0  0  0  0  0
   58.0790   32.6300   44.1460 C   0  0  0  0  0  0  0  0  0  0  0  0
   58.6265   33.4008   44.7082 H   0  0  0  0  0  0  0  0  0  0  0  0
  1  2  1  0
  2  3  2  0
  3  4  1  0
  3  5  1  0
  5  6  1  0
  5  7  2  0
  7  8  1  0
  8  9  2  0
  9 10  1  0
 10 11  1  0
 11 12  1  0
 12 13  1  0
 13 14  2  0
 14 15  1  0
 14 16  1  0
 16 17  1  0
 16 18  2  0
 18 19  1  0
 18 20  1  0
 20 21  1  0
 20 22  2  0
 22 23  1  0
 11 24  2  0
 24 25  1  0
 25 26  2  0
 26 27  1  0
 27 28  1  0
 27 29  1  0
 27 30  1  0
 30 31  1  0
 30 32  1  0
 30 33  1  0
 25 34  1  0
  7 35  1  0
 35 36  1  0
 35 37  2  0
 37 38  1  0
 37  2  1  0
 34  9  1  0
 22 13  1  0
M  CHG  2  10  -1  34  -1
M  END
>  <UniqueID>  (35) 
28

>  <SMILES>  (35) 
CC/N=c1\nc(Oc2ccccc2)[n-]/c(=N/c2ccccc2)[n-]1

>  <Energy>  (35) 
48.0351700527878

>  <Genealogy>  (35) 
CCN=c1nc(Oc2ccccc2)[n-]c(=Nc2ccccc2)[n-]1 (protonated)
CC/N=c1\nc(Oc2ccccc2)[n-]/c(=N/c2ccccc2)[n-]1 (cis-trans isomerization)
CC/N=c1\nc(Oc2ccccc2)[n-]/c(=N/c2ccccc2)[n-]1 (3D coordinates assigned)
CC/N=c1\nc(Oc2ccccc2)[n-]/c(=N/c2ccccc2)[n-]1 (optimized conformer: 48.0351700527878 kcal/mol)

>  <smiles>  (35) 
CCN=c1nc(Oc2ccccc2)[nH]c(=Nc2ccccc2)[nH]1

>  <score_type>  (35) 
oracle

>  <origin>  (35) 
adg

>  <m_score__min__energy>  (35) 
-10.23

>  <m_primary>  (35) 
energy

$$$$
35:0
     RDKit          3D

 32 34  0  0  0  0  0  0  0  0999 V2000
   59.8480   34.5430   45.2290 O   0  0  0  0  0  0  0  0  0  0  0  0
   59.5910   34.1850   46.6670 S   0  0  0  0  0  0  0  0  0  0  0  0
   58.9260   35.3460   47.3500 O   0  0  0  0  0  0  0  0  0  0  0  0
   58.5390   32.8050   46.7280 N   0  0  0  0  0  0  0  0  0  0  0  0
   58.9400   31.4790   46.3250 C   0  0  0  0  0  0  0  0  0  0  0  0
   60.1080   30.8860   46.8400 C   0  0  0  0  0  0  0  0  0  0  0  0
   60.4880   29.6000   46.4480 C   0  0  0  0  0  0  0  0  0  0  0  0
   59.7160   28.8850   45.5330 C   0  0  0  0  0  0  0  0  0  0  0  0
   58.5550   29.4570   45.0000 C   0  0  0  0  0  0  0  0  0  0  0  0
   57.7640   28.7570   44.0780 C   0  0  0  0  0  0  0  0  0  0  0  0
   56.6080   29.3480   43.5640 C   0  0  0  0  0  0  0  0  0  0  0  0
   56.2520   30.6320   43.9780 C   0  0  0  0  0  0  0  0  0  0  0  0
   57.0260   31.3010   44.8720 N   0  0  0  0  0  0  0  0  0  0  0  0
   58.1640   30.7590   45.3920 C   0  0  0  0  0  0  0  0  0  0  0  0
   61.0990   33.8270   47.5020 C   0  0  0  0  0  0  0  0  0  0  0  0
   62.2610   33.5270   46.7770 C   0  0  0  0  0  0  0  0  0  0  0  0
   63.4510   33.2300   47.4490 C   0  0  0  0  0  0  0  0  0  0  0  0
   63.4850   33.2320   48.8480 C   0  0  0  0  0  0  0  0  0  0  0  0
   65.1100   32.8220   49.7650 Br  0  0  0  0  0  0  0  0  0  0  0  0
   62.3290   33.5340   49.5730 C   0  0  0  0  0  0  0  0  0  0  0  0
   61.1390   33.8330   48.9040 C   0  0  0  0  0  0  0  0  0  0  0  0
   57.6080   32.9490   47.1790 H   0  0  0  0  0  0  0  0  0  0  0  0
   60.7284   31.4412   47.5590 H   0  0  0  0  0  0  0  0  0  0  0  0
   61.4012   29.1490   46.8635 H   0  0  0  0  0  0  0  0  0  0  0  0
   60.0193   27.8719   45.2302 H   0  0  0  0  0  0  0  0  0  0  0  0
   58.0534   27.7445   43.7602 H   0  0  0  0  0  0  0  0  0  0  0  0
   55.9833   28.8059   42.8388 H   0  0  0  0  0  0  0  0  0  0  0  0
   55.3419   31.1041   43.5794 H   0  0  0  0  0  0  0  0  0  0  0  0
   62.2366   33.5252   45.6773 H   0  0  0  0  0  0  0  0  0  0  0  0
   64.3609   32.9947   46.8775 H   0  0  0  0  0  0  0  0  0  0  0  0
   62.3558   33.5364   50.6727 H   0  0  0  0  0  0  0  0  0  0  0  0
   60.2320   34.0735   49.4780 H   0  0  0  0  0  0  0  0  0  0  0  0
  1  2  2  0
  2  3  2  0
  2  4  1  0
  4  5  1  0
  5  6  2  0
  6  7  1  0
  7  8  2  0
  8  9  1  0
  9 10  2  0
 10 11  1  0
 11 12  2  0
 12 13  1  0
 13 14  2  0
  2 15  1  0
 15 16  2  0
 16 17  1  0
 17 18  2  0
 18 19  1  0
 18 20  1  0
 20 21  2  0
 14  5  1  0
 21 15  1  0
 14  9  1  0
  4 22  1  0
  6 23  1  0
  7 24  1  0
  8 25  1  0
 10 26  1  0
 11 27  1  0
 12 28  1  0
 16 29  1  0
 17 30  1  0
 20 31  1  0
 21 32  1  0
M  END
>  <UniqueID>  (36) 
29

>  <SMILES>  (36) 
O=S(=O)(Nc1cccc2cccnc12)c1ccc(Br)cc1

>  <Energy>  (36) 
41.57519174410351

>  <Genealogy>  (36) 
O=S(=O)(Nc1cccc2cccnc12)c1ccc(Br)cc1 (3D coordinates assigned)
O=S(=O)(Nc1cccc2cccnc12)c1ccc(Br)cc1 (optimized conformer: 41.57519174410351 kcal/mol)

>  <smiles>  (36) 
O=S(=O)(Nc1cccc2cccnc12)c1ccc(Br)cc1

>  <score_type>  (36) 
oracle

>  <origin>  (36) 
adg

>  <m_score__min__energy>  (36) 
-8.6099999999999994

>  <m_primary>  (36) 
energy

$$$$
36:0
     RDKit          3D

 42 44  0  0  0  0  0  0  0  0999 V2000
   62.6210   33.5960   47.0260 C   0  0  0  0  0  0  0  0  0  0  0  0
   61.3320   34.1990   47.0560 O   0  0  0  0  0  0  0  0  0  0  0  0
   60.1850   33.6470   46.4670 C   0  0  0  0  0  0  0  0  0  0  0  0
   59.6100   34.1740   45.2940 C   0  0  0  0  0  0  0  0  0  0  0  0
   58.4570   33.5950   44.7540 C   0  0  0  0  0  0  0  0  0  0  0  0
   57.8570   32.4880   45.3800 C   0  0  0  0  0  0  0  0  0  0  0  0
   56.6440   31.9000   44.8930 N   0  0  0  0  0  0  0  0  0  0  0  0
   56.5120   30.3430   44.1340 S   0  0  0  0  0  0  0  0  0  0  0  0
   55.1370   29.7900   44.3840 O   0  0  0  0  0  0  0  0  0  0  0  0
   56.7130   30.5150   42.6560 O   0  0  0  0  0  0  0  0  0  0  0  0
   57.7350   29.2300   44.7440 C   0  0  0  0  0  0  0  0  0  0  0  0
   59.0920   29.5100   44.5390 C   0  0  0  0  0  0  0  0  0  0  0  0
   60.0690   28.6390   45.0260 C   0  0  0  0  0  0  0  0  0  0  0  0
   59.6990   27.4770   45.7070 C   0  0  0  0  0  0  0  0  0  0  0  0
   58.3430   27.1750   45.9140 C   0  0  0  0  0  0  0  0  0  0  0  0
   57.9880   25.9680   46.6110 N   0  0  0  0  0  0  0  0  0  0  0  0
   56.4920   25.1190   46.3640 S   0  0  0  0  0  0  0  0  0  0  0  0
   55.4200   26.1040   45.9960 O   0  0  0  0  0  0  0  0  0  0  0  0
   56.1020   24.4240   47.6390 O   0  0  0  0  0  0  0  0  0  0  0  0
   56.6620   23.9500   45.0700 C   0  0  0  0  0  0  0  0  0  0  0  0
   56.0130   23.9970   43.8450 C   0  0  0  0  0  0  0  0  0  0  0  0
   56.3830   22.9490   42.9940 C   0  0  0  0  0  0  0  0  0  0  0  0
   57.3210   22.0850   43.5470 C   0  0  0  0  0  0  0  0  0  0  0  0
   57.6920   22.6230   45.0970 S   0  0  0  0  0  0  0  0  0  0  0  0
   57.3660   28.0720   45.4430 C   0  0  0  0  0  0  0  0  0  0  0  0
   58.4400   31.9590   46.5380 C   0  0  0  0  0  0  0  0  0  0  0  0
   59.5940   32.5350   47.0770 C   0  0  0  0  0  0  0  0  0  0  0  0
   62.9728   33.4314   48.0551 H   0  0  0  0  0  0  0  0  0  0  0  0
   62.5626   32.6318   46.4998 H   0  0  0  0  0  0  0  0  0  0  0  0
   63.3237   34.2588   46.4998 H   0  0  0  0  0  0  0  0  0  0  0  0
   60.0692   35.0436   44.8012 H   0  0  0  0  0  0  0  0  0  0  0  0
   58.0170   34.0080   43.8343 H   0  0  0  0  0  0  0  0  0  0  0  0
   59.3888   30.4178   43.9933 H   0  0  0  0  0  0  0  0  0  0  0  0
   61.1337   28.8689   44.8727 H   0  0  0  0  0  0  0  0  0  0  0  0
   60.4746   26.7940   46.0836 H   0  0  0  0  0  0  0  0  0  0  0  0
   58.7010   25.5030   47.2180 H   0  0  0  0  0  0  0  0  0  0  0  0
   55.2851   24.7750   43.5714 H   0  0  0  0  0  0  0  0  0  0  0  0
   55.9702   22.8212   41.9825 H   0  0  0  0  0  0  0  0  0  0  0  0
   57.7484   21.1992   43.0543 H   0  0  0  0  0  0  0  0  0  0  0  0
   56.3017   27.8623   45.6252 H   0  0  0  0  0  0  0  0  0  0  0  0
   57.9867   31.0841   47.0269 H   0  0  0  0  0  0  0  0  0  0  0  0
   60.0411   32.1107   47.9881 H   0  0  0  0  0  0  0  0  0  0  0  0
  1  2  1  0
  2  3  1  0
  3  4  2  0
  4  5  1  0
  5  6  2  0
  6  7  1  0
  7  8  1  0
  8  9  2  0
  8 10  2  0
  8 11  1  0
 11 12  2  0
 12 13  1  0
 13 14  2  0
 14 15  1  0
 15 16  1  0
 16 17  1  0
 17 18  2  0
 17 19  2  0
 17 20  1  0
 20 21  2  0
 21 22  1  0
 22 23  2  0
 23 24  1  0
 15 25  2  0
  6 26  1  0
 26 27  2  0
 27  3  1  0
 25 11  1  0
 24 20  1  0
  1 28  1  0
  1 29  1  0
  1 30  1  0
  4 31  1  0
  5 32  1  0
 12 33  1  0
 13 34  1  0
 14 35  1  0
 16 36  1  0
 21 37  1  0
 22 38  1  0
 23 39  1  0
 25 40  1  0
 26 41  1  0
 27 42  1  0
M  CHG  1   7  -1
M  END
>  <UniqueID>  (37) 
30

>  <SMILES>  (37) 
COc1ccc([N-]S(=O)(=O)c2cccc(NS(=O)(=O)c3cccs3)c2)cc1

>  <Energy>  (37) 
72.88597592241675

>  <Genealogy>  (37) 
COc1ccc([N-]S(=O)(=O)c2cccc(NS(=O)(=O)c3cccs3)c2)cc1 (protonated)
COc1ccc([N-]S(=O)(=O)c2cccc(NS(=O)(=O)c3cccs3)c2)cc1 (3D coordinates assigned)
COc1ccc([N-]S(=O)(=O)c2cccc(NS(=O)(=O)c3cccs3)c2)cc1 (optimized conformer: 72.88597592241675 kcal/mol)

>  <smiles>  (37) 
COc1ccc(NS(=O)(=O)c2cccc(NS(=O)(=O)c3cccs3)c2)cc1

>  <score_type>  (37) 
oracle

>  <origin>  (37) 
adg

>  <m_score__min__energy>  (37) 
-10.859999999999999

>  <m_primary>  (37) 
energy

$$$$
37:0
     RDKit          3D

 37 39  0  0  0  0  0  0  0  0999 V2000
   58.7820   32.4800   54.9700 H   0  0  0  0  0  0  0  0  0  0  0  0
   58.3300   31.5490   54.8260 N   0  0  0  0  0  0  0  0  0  0  0  0
   57.8710   31.1800   53.6720 C   0  0  0  0  0  0  0  0  0  0  0  0
   56.6190   30.6640   53.5870 N   0  0  0  0  0  0  0  0  0  0  0  0
   58.1360   30.9180   51.3430 C   0  0  0  0  0  0  0  0  0  0  0  0
   58.8800   31.0100   50.2780 N   0  0  0  0  0  0  0  0  0  0  0  0
   59.0030   32.1550   49.4130 C   0  0  0  0  0  0  0  0  0  0  0  0
   58.5500   32.1250   48.0790 C   0  0  0  0  0  0  0  0  0  0  0  0
   58.0936   31.2084   47.6771 H   0  0  0  0  0  0  0  0  0  0  0  0
   51.7120   31.4780   53.2820 C   0  0  0  0  0  0  0  0  0  0  0  0
   51.0969   31.6140   54.1837 H   0  0  0  0  0  0  0  0  0  0  0  0
   51.3080   32.0450   52.0690 C   0  0  0  0  0  0  0  0  0  0  0  0
   50.1340   32.7840   52.0030 O   0  0  0  0  0  0  0  0  0  0  0  0
   52.0850   31.8620   50.9210 C   0  0  0  0  0  0  0  0  0  0  0  0
   51.7645   32.3020   49.9651 H   0  0  0  0  0  0  0  0  0  0  0  0
   52.8960   30.7390   53.3500 C   0  0  0  0  0  0  0  0  0  0  0  0
   53.2001   30.2817   54.3031 H   0  0  0  0  0  0  0  0  0  0  0  0
   56.8840   30.3980   51.2750 N   0  0  0  0  0  0  0  0  0  0  0  0
   56.1210   30.2640   52.3910 C   0  0  0  0  0  0  0  0  0  0  0  0
   54.9070   29.8010   52.3260 N   0  0  0  0  0  0  0  0  0  0  0  0
   53.6990   30.5760   52.2130 C   0  0  0  0  0  0  0  0  0  0  0  0
   53.2680   31.1210   50.9860 C   0  0  0  0  0  0  0  0  0  0  0  0
   53.8655   30.9622   50.0762 H   0  0  0  0  0  0  0  0  0  0  0  0
   58.6770   33.2510   47.2650 C   0  0  0  0  0  0  0  0  0  0  0  0
   58.3387   33.2133   46.2190 H   0  0  0  0  0  0  0  0  0  0  0  0
   59.2320   34.4240   47.7750 C   0  0  0  0  0  0  0  0  0  0  0  0
   59.3385   35.3075   47.1284 H   0  0  0  0  0  0  0  0  0  0  0  0
   59.6530   34.4790   49.1060 C   0  0  0  0  0  0  0  0  0  0  0  0
   60.0787   35.4106   49.5072 H   0  0  0  0  0  0  0  0  0  0  0  0
   59.5350   33.3460   49.9380 C   0  0  0  0  0  0  0  0  0  0  0  0
   59.9420   33.3640   51.2810 O   0  0  0  0  0  0  0  0  0  0  0  0
   59.3110   34.1280   52.3040 C   0  0  0  0  0  0  0  0  0  0  0  0
   59.6229   33.7503   53.2889 H   0  0  0  0  0  0  0  0  0  0  0  0
   59.6039   35.1838   52.2066 H   0  0  0  0  0  0  0  0  0  0  0  0
   58.2189   34.0399   52.2066 H   0  0  0  0  0  0  0  0  0  0  0  0
   58.6340   31.3030   52.5490 N   0  0  0  0  0  0  0  0  0  0  0  0
   59.6030   31.6950   52.6080 H   0  0  0  0  0  0  0  0  0  0  0  0
  1  2  1  0
  2  3  2  3
  3  4  1  0
  4  5  1  0
  5  6  2  0
  6  7  1  0
  7  8  2  0
  8  9  1  0
  8 10  1  0
 10 11  1  0
 10 12  2  0
 12 13  1  0
 12 14  1  0
 14 15  1  0
 14 16  2  0
 16 17  1  0
  5 18  1  0
 18 19  1  0
 19 20  2  0
 20 21  1  0
 21 22  2  0
 22 23  1  0
 22 24  1  0
 24 25  1  0
 24 26  2  0
 26 27  1  0
 26 28  1  0
 28 29  1  0
 28 30  2  0
 30 31  1  0
 31 32  1  0
 32 33  1  0
 32 34  1  0
 32 35  1  0
 19 36  1  0
 36 37  1  0
 36  3  1  0
 16  7  1  0
 30 21  1  0
M  CHG  3   4  -1  13  -1  18  -1
M  END
>  <UniqueID>  (38) 
31

>  <SMILES>  (38) 
COc1ccccc1/N=c1\[n-]/c(=N\c2ccc([O-])cc2)[n-]c(=N)[nH]1

>  <Energy>  (38) 
51.05158613090125

>  <Genealogy>  (38) 
COc1ccccc1N=c1[n-]c(=Nc2ccc([O-])cc2)[n-]c(=N)[nH]1 (protonated)
COc1ccccc1/N=c1\[n-]/c(=N\c2ccc([O-])cc2)[n-]c(=N)[nH]1 (cis-trans isomerization)
COc1ccccc1/N=c1\[n-]/c(=N\c2ccc([O-])cc2)[n-]c(=N)[nH]1 (3D coordinates assigned)
COc1ccccc1/N=c1\[n-]/c(=N\c2ccc([O-])cc2)[n-]c(=N)[nH]1 (optimized conformer: 51.05158613090125 kcal/mol)

>  <smiles>  (38) 
COc1ccccc1N=c1[nH]c(=N)[nH]c(=Nc2ccc(O)cc2)[nH]1

>  <score_type>  (38) 
oracle

>  <origin>  (38) 
adg

>  <m_score__min__energy>  (38) 
-12.199999999999999

>  <m_primary>  (38) 
energy

$$$$
38:0
     RDKit          3D

 39 40  0  0  0  0  0  0  0  0999 V2000
   60.4100   27.0760   48.5950 C   0  0  0  0  0  0  0  0  0  0  0  0
   59.7590   26.4490   47.4940 O   0  0  0  0  0  0  0  0  0  0  0  0
   58.7510   27.0450   46.7170 C   0  0  0  0  0  0  0  0  0  0  0  0
   58.9950   28.1900   45.9400 C   0  0  0  0  0  0  0  0  0  0  0  0
   57.9770   28.7560   45.1620 C   0  0  0  0  0  0  0  0  0  0  0  0
   58.2110   29.9380   44.3740 N   0  0  0  0  0  0  0  0  0  0  0  0
   58.0740   31.2800   44.8760 C   0  0  0  0  0  0  0  0  0  0  0  0
   58.1920   31.5340   46.2540 C   0  0  0  0  0  0  0  0  0  0  0  0
   58.0990   32.8370   46.7460 C   0  0  0  0  0  0  0  0  0  0  0  0
   57.9020   33.9030   45.8690 C   0  0  0  0  0  0  0  0  0  0  0  0
   57.7990   33.6700   44.4960 C   0  0  0  0  0  0  0  0  0  0  0  0
   57.8780   32.3630   43.9870 C   0  0  0  0  0  0  0  0  0  0  0  0
   57.7670   32.1370   42.5030 C   0  0  0  0  0  0  0  0  0  0  0  0
   56.6980   28.1940   45.1960 C   0  0  0  0  0  0  0  0  0  0  0  0
   56.4270   27.0480   45.9700 C   0  0  0  0  0  0  0  0  0  0  0  0
   55.1420   26.4820   45.9910 O   0  0  0  0  0  0  0  0  0  0  0  0
   54.8300   25.1470   45.6040 C   0  0  0  0  0  0  0  0  0  0  0  0
   57.4720   26.4670   46.7340 C   0  0  0  0  0  0  0  0  0  0  0  0
   57.3070   25.3200   47.5360 O   0  0  0  0  0  0  0  0  0  0  0  0
   57.3730   23.9660   47.1040 C   0  0  0  0  0  0  0  0  0  0  0  0
   60.0002   26.6813   49.5364 H   0  0  0  0  0  0  0  0  0  0  0  0
   61.4893   26.8685   48.5494 H   0  0  0  0  0  0  0  0  0  0  0  0
   60.2432   28.1623   48.5494 H   0  0  0  0  0  0  0  0  0  0  0  0
   59.9958   28.6466   45.9427 H   0  0  0  0  0  0  0  0  0  0  0  0
   58.5270   29.8120   43.3850 H   0  0  0  0  0  0  0  0  0  0  0  0
   58.3590   30.6988   46.9501 H   0  0  0  0  0  0  0  0  0  0  0  0
   58.1812   33.0231   47.8270 H   0  0  0  0  0  0  0  0  0  0  0  0
   57.8276   34.9288   46.2592 H   0  0  0  0  0  0  0  0  0  0  0  0
   57.6549   34.5161   43.8079 H   0  0  0  0  0  0  0  0  0  0  0  0
   57.2892   31.1642   42.3150 H   0  0  0  0  0  0  0  0  0  0  0  0
   57.1592   32.9368   42.0548 H   0  0  0  0  0  0  0  0  0  0  0  0
   58.7715   32.1449   42.0548 H   0  0  0  0  0  0  0  0  0  0  0  0
   55.8894   28.6538   44.6089 H   0  0  0  0  0  0  0  0  0  0  0  0
   54.6856   24.5290   46.5025 H   0  0  0  0  0  0  0  0  0  0  0  0
   53.9072   25.1449   45.0053 H   0  0  0  0  0  0  0  0  0  0  0  0
   55.6563   24.7362   45.0053 H   0  0  0  0  0  0  0  0  0  0  0  0
   57.4053   23.3025   47.9808 H   0  0  0  0  0  0  0  0  0  0  0  0
   56.4853   23.7306   46.4986 H   0  0  0  0  0  0  0  0  0  0  0  0
   58.2794   23.8180   46.4986 H   0  0  0  0  0  0  0  0  0  0  0  0
  1  2  1  0
  2  3  1  0
  3  4  2  0
  4  5  1  0
  5  6  1  0
  6  7  1  0
  7  8  2  0
  8  9  1  0
  9 10  2  0
 10 11  1  0
 11 12  2  0
 12 13  1  0
  5 14  2  0
 14 15  1  0
 15 16  1  0
 16 17  1  0
 15 18  2  0
 18 19  1  0
 19 20  1  0
 18  3  1  0
 12  7  1  0
  1 21  1  0
  1 22  1  0
  1 23  1  0
  4 24  1  0
  6 25  1  0
  8 26  1  0
  9 27  1  0
 10 28  1  0
 11 29  1  0
 13 30  1  0
 13 31  1  0
 13 32  1  0
 14 33  1  0
 17 34  1  0
 17 35  1  0
 17 36  1  0
 20 37  1  0
 20 38  1  0
 20 39  1  0
M  END
>  <UniqueID>  (39) 
32

>  <SMILES>  (39) 
COc1cc(Nc2ccccc2C)cc(OC)c1OC

>  <Energy>  (39) 
46.23754541092587

>  <Genealogy>  (39) 
COc1cc(Nc2ccccc2C)cc(OC)c1OC (3D coordinates assigned)
COc1cc(Nc2ccccc2C)cc(OC)c1OC (optimized conformer: 46.23754541092587 kcal/mol)

>  <smiles>  (39) 
COc1cc(Nc2ccccc2C)cc(OC)c1OC

>  <score_type>  (39) 
oracle

>  <origin>  (39) 
adg

>  <m_score__min__energy>  (39) 
-6.5199999999999996

>  <m_primary>  (39) 
energy

$$$$
39:0
     RDKit          3D

 61 64  0  0  0  0  0  0  0  0999 V2000
   62.0270   26.9650   51.6750 C   0  0  0  0  0  0  0  0  0  0  0  0
   60.9610   26.6310   50.7250 N   0  0  0  0  0  0  0  0  0  0  0  0
   60.4500   27.8350   50.0890 C   0  0  0  0  0  0  0  0  0  0  0  0
   60.1070   28.8840   50.9560 C   0  0  0  0  0  0  0  0  0  0  0  0
   59.6250   30.1540   50.6880 C   0  0  0  0  0  0  0  0  0  0  0  0
   59.3560   30.7540   49.4700 C   0  0  0  0  0  0  0  0  0  0  0  0
   58.8830   32.1030   49.5150 N   0  0  0  0  0  0  0  0  0  0  0  0
   59.7040   33.3730   48.6710 S   0  0  0  0  0  0  0  0  0  0  0  0
   59.6710   34.6260   49.5010 O   0  0  0  0  0  0  0  0  0  0  0  0
   61.1390   32.9770   48.4560 O   0  0  0  0  0  0  0  0  0  0  0  0
   58.9450   33.6710   47.1080 C   0  0  0  0  0  0  0  0  0  0  0  0
   59.6400   34.3680   46.1080 C   0  0  0  0  0  0  0  0  0  0  0  0
   59.0340   34.6190   44.8730 C   0  0  0  0  0  0  0  0  0  0  0  0
   57.7290   34.1860   44.6360 C   0  0  0  0  0  0  0  0  0  0  0  0
   57.0250   33.5060   45.6340 C   0  0  0  0  0  0  0  0  0  0  0  0
   57.6300   33.2470   46.8670 C   0  0  0  0  0  0  0  0  0  0  0  0
   59.4900   30.1790   48.2130 C   0  0  0  0  0  0  0  0  0  0  0  0
   59.8360   28.8730   47.8500 C   0  0  0  0  0  0  0  0  0  0  0  0
   59.7220   28.5950   46.3920 C   0  0  0  0  0  0  0  0  0  0  0  0
   60.6390   27.9240   45.8460 O   0  0  0  0  0  0  0  0  0  0  0  0
   58.5840   29.1250   45.5800 C   0  0  0  0  0  0  0  0  0  0  0  0
   58.7640   30.2920   44.8060 C   0  0  0  0  0  0  0  0  0  0  0  0
   57.7290   30.7920   44.0130 C   0  0  0  0  0  0  0  0  0  0  0  0
   56.4960   30.1440   43.9790 C   0  0  0  0  0  0  0  0  0  0  0  0
   56.2920   28.9950   44.7420 C   0  0  0  0  0  0  0  0  0  0  0  0
   57.3220   28.4770   45.5390 C   0  0  0  0  0  0  0  0  0  0  0  0
   57.0610   27.2990   46.3100 N   0  0  0  0  0  0  0  0  0  0  0  0
   57.4020   25.9740   45.8600 C   0  0  0  0  0  0  0  0  0  0  0  0
   58.6910   25.4770   46.1050 C   0  0  0  0  0  0  0  0  0  0  0  0
   59.0590   24.2070   45.6510 C   0  0  0  0  0  0  0  0  0  0  0  0
   58.1450   23.4180   44.9490 C   0  0  0  0  0  0  0  0  0  0  0  0
   56.8410   23.8880   44.7070 C   0  0  0  0  0  0  0  0  0  0  0  0
   55.8510   23.0670   43.9170 C   0  0  0  0  0  0  0  0  0  0  0  0
   55.7340   21.8060   44.4750 F   0  0  0  0  0  0  0  0  0  0  0  0
   54.6190   23.6920   43.9470 F   0  0  0  0  0  0  0  0  0  0  0  0
   56.2470   22.9260   42.5990 F   0  0  0  0  0  0  0  0  0  0  0  0
   56.4810   25.1730   45.1540 C   0  0  0  0  0  0  0  0  0  0  0  0
   60.2820   27.8210   48.6820 C   0  0  0  0  0  0  0  0  0  0  0  0
   60.5760   26.7390   48.0990 O   0  0  0  0  0  0  0  0  0  0  0  0
   61.6524   26.8476   52.7026 H   0  0  0  0  0  0  0  0  0  0  0  0
   62.8826   26.2919   51.5175 H   0  0  0  0  0  0  0  0  0  0  0  0
   62.3456   28.0060   51.5175 H   0  0  0  0  0  0  0  0  0  0  0  0
   60.2030   26.1100   51.2250 H   0  0  0  0  0  0  0  0  0  0  0  0
   61.3420   25.9630   50.0140 H   0  0  0  0  0  0  0  0  0  0  0  0
   60.2436   28.6604   52.0243 H   0  0  0  0  0  0  0  0  0  0  0  0
   59.4269   30.7773   51.5724 H   0  0  0  0  0  0  0  0  0  0  0  0
   60.6656   34.7183   46.2963 H   0  0  0  0  0  0  0  0  0  0  0  0
   59.5860   35.1576   44.0886 H   0  0  0  0  0  0  0  0  0  0  0  0
   57.2538   34.3799   43.6631 H   0  0  0  0  0  0  0  0  0  0  0  0
   55.9928   33.1741   45.4485 H   0  0  0  0  0  0  0  0  0  0  0  0
   57.0740   32.7098   47.6495 H   0  0  0  0  0  0  0  0  0  0  0  0
   59.2930   30.8574   47.3698 H   0  0  0  0  0  0  0  0  0  0  0  0
   59.7320   30.8141   44.8279 H   0  0  0  0  0  0  0  0  0  0  0  0
   57.8877   31.7004   43.4133 H   0  0  0  0  0  0  0  0  0  0  0  0
   55.6840   30.5387   43.3506 H   0  0  0  0  0  0  0  0  0  0  0  0
   55.3146   28.4909   44.7183 H   0  0  0  0  0  0  0  0  0  0  0  0
   56.5180   27.4150   47.1970 H   0  0  0  0  0  0  0  0  0  0  0  0
   59.4171   26.0909   46.6581 H   0  0  0  0  0  0  0  0  0  0  0  0
   60.0726   23.8275   45.8475 H   0  0  0  0  0  0  0  0  0  0  0  0
   58.4458   22.4250   44.5838 H   0  0  0  0  0  0  0  0  0  0  0  0
   55.4703   25.5566   44.9504 H   0  0  0  0  0  0  0  0  0  0  0  0
  1  2  1  0
  2  3  1  0
  3  4  2  0
  4  5  1  0
  5  6  2  0
  6  7  1  0
  7  8  1  0
  8  9  2  0
  8 10  2  0
  8 11  1  0
 11 12  2  0
 12 13  1  0
 13 14  2  0
 14 15  1  0
 15 16  2  0
  6 17  1  0
 17 18  2  0
 18 19  1  0
 19 20  2  0
 19 21  1  0
 21 22  2  0
 22 23  1  0
 23 24  2  0
 24 25  1  0
 25 26  2  0
 26 27  1  0
 27 28  1  0
 28 29  2  0
 29 30  1  0
 30 31  2  0
 31 32  1  0
 32 33  1  0
 33 34  1  0
 33 35  1  0
 33 36  1  0
 32 37  2  0
 18 38  1  0
 38 39  2  0
 38  3  1  0
 16 11  1  0
 26 21  1  0
 37 28  1  0
  1 40  1  0
  1 41  1  0
  1 42  1  0
  2 43  1  0
  2 44  1  0
  4 45  1  0
  5 46  1  0
 12 47  1  0
 13 48  1  0
 14 49  1  0
 15 50  1  0
 16 51  1  0
 17 52  1  0
 22 53  1  0
 23 54  1  0
 24 55  1  0
 25 56  1  0
 27 57  1  0
 29 58  1  0
 30 59  1  0
 31 60  1  0
 37 61  1  0
M  CHG  2   2   1   7  -1
M  END
>  <UniqueID>  (40) 
33

>  <SMILES>  (40) 
C[NH2+]c1ccc([N-]S(=O)(=O)c2ccccc2)cc(C(=O)c2ccccc2Nc2cccc(C(F)(F)F)c2)c1=O

>  <Energy>  (40) 
114.28701113418944

>  <Genealogy>  (40) 
C[NH2+]c1ccc([N-]S(=O)(=O)c2ccccc2)cc(C(=O)c2ccccc2Nc2cccc(C(F)(F)F)c2)c1=O (protonated)
C[NH2+]c1ccc([N-]S(=O)(=O)c2ccccc2)cc(C(=O)c2ccccc2Nc2cccc(C(F)(F)F)c2)c1=O (3D coordinates assigned)
C[NH2+]c1ccc([N-]S(=O)(=O)c2ccccc2)cc(C(=O)c2ccccc2Nc2cccc(C(F)(F)F)c2)c1=O (optimized conformer: 114.28701113418944 kcal/mol)

>  <smiles>  (40) 
CNc1ccc(NS(=O)(=O)c2ccccc2)cc(C(=O)c2ccccc2Nc2cccc(C(F)(F)F)c2)c1=O

>  <score_type>  (40) 
oracle

>  <origin>  (40) 
adg

>  <m_score__min__energy>  (40) 
-9.7200000000000006

>  <m_primary>  (40) 
energy

$$$$
40:0
     RDKit          3D

 38 40  0  0  0  0  0  0  0  0999 V2000
   56.0150   29.9420   43.2780 C   0  0  0  0  0  0  0  0  0  0  0  0
   57.3800   30.4530   43.3770 N   0  0  0  0  0  0  0  0  0  0  0  0
   57.8100   31.3960   44.3870 C   0  0  0  0  0  0  0  0  0  0  0  0
   57.7700   32.7790   44.1230 C   0  0  0  0  0  0  0  0  0  0  0  0
   58.1780   33.7060   45.0800 C   0  0  0  0  0  0  0  0  0  0  0  0
   58.6410   33.2840   46.3270 C   0  0  0  0  0  0  0  0  0  0  0  0
   59.0570   34.2680   47.2930 N   0  0  0  0  0  0  0  0  0  0  0  0
   60.0420   34.0240   48.3090 C   0  0  0  0  0  0  0  0  0  0  0  0
   59.6360   34.0330   49.6500 C   0  0  0  0  0  0  0  0  0  0  0  0
   60.5480   33.7660   50.6710 C   0  0  0  0  0  0  0  0  0  0  0  0
   61.8830   33.4970   50.3690 C   0  0  0  0  0  0  0  0  0  0  0  0
   62.3220   33.5120   49.0380 C   0  0  0  0  0  0  0  0  0  0  0  0
   63.6710   33.2630   48.7370 C   0  0  0  0  0  0  0  0  0  0  0  0
   64.1150   33.3020   47.4140 C   0  0  0  0  0  0  0  0  0  0  0  0
   63.2220   33.5990   46.3840 C   0  0  0  0  0  0  0  0  0  0  0  0
   61.8770   33.8480   46.6650 C   0  0  0  0  0  0  0  0  0  0  0  0
   61.4030   33.7900   47.9920 C   0  0  0  0  0  0  0  0  0  0  0  0
   58.6730   31.9090   46.6140 C   0  0  0  0  0  0  0  0  0  0  0  0
   58.2710   30.9530   45.6590 C   0  0  0  0  0  0  0  0  0  0  0  0
   58.3380   29.4770   46.0090 C   0  0  0  0  0  0  0  0  0  0  0  0
   58.7680   29.2700   47.3080 F   0  0  0  0  0  0  0  0  0  0  0  0
   59.2260   28.8370   45.1620 F   0  0  0  0  0  0  0  0  0  0  0  0
   57.0840   28.9100   45.8790 F   0  0  0  0  0  0  0  0  0  0  0  0
   55.6066   29.7891   44.2879 H   0  0  0  0  0  0  0  0  0  0  0  0
   55.3904   30.6672   42.7358 H   0  0  0  0  0  0  0  0  0  0  0  0
   56.0202   28.9849   42.7358 H   0  0  0  0  0  0  0  0  0  0  0  0
   58.0490   30.0960   42.6620 H   0  0  0  0  0  0  0  0  0  0  0  0
   57.4108   33.1330   43.1454 H   0  0  0  0  0  0  0  0  0  0  0  0
   58.1347   34.7809   44.8503 H   0  0  0  0  0  0  0  0  0  0  0  0
   58.5220   35.1650   47.3500 H   0  0  0  0  0  0  0  0  0  0  0  0
   58.5876   34.2528   49.9001 H   0  0  0  0  0  0  0  0  0  0  0  0
   60.2131   33.7676   51.7188 H   0  0  0  0  0  0  0  0  0  0  0  0
   62.5936   33.2724   51.1781 H   0  0  0  0  0  0  0  0  0  0  0  0
   64.3803   33.0364   49.5466 H   0  0  0  0  0  0  0  0  0  0  0  0
   65.1710   33.0982   47.1832 H   0  0  0  0  0  0  0  0  0  0  0  0
   63.5795   33.6372   45.3444 H   0  0  0  0  0  0  0  0  0  0  0  0
   61.1832   34.0908   45.8466 H   0  0  0  0  0  0  0  0  0  0  0  0
   59.0183   31.5720   47.6026 H   0  0  0  0  0  0  0  0  0  0  0  0
  1  2  1  0
  2  3  1  0
  3  4  2  0
  4  5  1  0
  5  6  2  0
  6  7  1  0
  7  8  1  0
  8  9  2  0
  9 10  1  0
 10 11  2  0
 11 12  1  0
 12 13  2  0
 13 14  1  0
 14 15  2  0
 15 16  1  0
 16 17  2  0
  6 18  1  0
 18 19  2  0
 19 20  1  0
 20 21  1  0
 20 22  1  0
 20 23  1  0
 19  3  1  0
 17  8  1  0
 17 12  1  0
  1 24  1  0
  1 25  1  0
  1 26  1  0
  2 27  1  0
  4 28  1  0
  5 29  1  0
  7 30  1  0
  9 31  1  0
 10 32  1  0
 11 33  1  0
 13 34  1  0
 14 35  1  0
 15 36  1  0
 16 37  1  0
 18 38  1  0
M  END
>  <UniqueID>  (41) 
34

>  <SMILES>  (41) 
CNc1ccc(Nc2cccc3ccccc23)cc1C(F)(F)F

>  <Energy>  (41) 
54.174835974880565

>  <Genealogy>  (41) 
CNc1ccc(Nc2cccc3ccccc23)cc1C(F)(F)F (3D coordinates assigned)
CNc1ccc(Nc2cccc3ccccc23)cc1C(F)(F)F (optimized conformer: 54.174835974880565 kcal/mol)

>  <smiles>  (41) 
CNc1ccc(Nc2cccc3ccccc23)cc1C(F)(F)F

>  <score_type>  (41) 
oracle

>  <origin>  (41) 
adg

>  <m_score__min__energy>  (41) 
-7.1200000000000001

>  <m_primary>  (41) 
energy

$$$$
41:0
     RDKit          3D

 40 42  0  0  1  0  0  0  0  0999 V2000
   59.6820   35.2510   46.3310 C   0  0  0  0  0  0  0  0  0  0  0  0
   58.9760   33.9420   46.0980 C   0  0  0  0  0  0  0  0  0  0  0  0
   58.9650   32.8260   46.3920 N   0  0  0  0  0  0  0  0  0  0  0  0
   58.2070   31.8520   46.0240 N   0  0  0  0  0  0  0  0  0  0  0  0
   57.2620   32.1680   45.1510 C   0  0  0  0  0  0  0  0  0  0  0  0
   56.3250   31.4830   44.5570 N   0  0  0  0  0  0  0  0  0  0  0  0
   56.3810   30.0710   44.4470 C   0  0  0  0  0  0  0  0  0  0  0  0
   55.7850   29.2810   45.2230 O   0  0  0  0  0  0  0  0  0  0  0  0
   57.1950   29.5020   43.3450 C   0  0  0  0  0  0  0  0  0  0  0  0
   57.7640   27.8370   43.6880 S   0  0  0  0  0  0  0  0  0  0  0  0
   58.5390   27.7050   45.2790 C   0  0  0  0  0  0  0  0  0  0  0  0
   58.7260   26.5460   45.9280 N   0  0  0  0  0  0  0  0  0  0  0  0
   59.3210   26.5170   47.1320 C   0  0  0  0  0  0  0  0  0  0  0  0
   59.7590   27.6830   47.7360 C   0  0  0  0  0  0  0  0  0  0  0  0
   60.5410   27.6490   49.3190 Cl  0  0  0  0  0  0  0  0  0  0  0  0
   59.5540   28.8530   47.0490 C   0  0  0  0  0  0  0  0  0  0  0  0
   60.0060   30.0910   47.6630 C   0  0  0  0  0  0  0  0  0  0  0  0
   59.2300   30.7930   48.3650 O   0  0  0  0  0  0  0  0  0  0  0  0
   61.3400   30.5770   47.5080 N   0  0  0  0  0  0  0  0  0  0  0  0
   61.7840   31.7930   48.1110 C   0  0  0  0  0  0  0  0  0  0  0  0
   62.5360   32.7330   47.4430 C   0  0  0  0  0  0  0  0  0  0  0  0
   62.9320   33.8870   48.0880 C   0  0  0  0  0  0  0  0  0  0  0  0
   62.6150   34.1590   49.3910 C   0  0  0  0  0  0  0  0  0  0  0  0
   63.0210   35.3100   50.0020 F   0  0  0  0  0  0  0  0  0  0  0  0
   61.8560   33.2160   50.0760 C   0  0  0  0  0  0  0  0  0  0  0  0
   61.4610   32.0690   49.4370 C   0  0  0  0  0  0  0  0  0  0  0  0
   58.9630   28.8510   45.8620 N   0  0  0  0  0  0  0  0  0  0  0  0
   57.5010   33.9730   44.8600 S   0  0  0  0  0  0  0  0  0  0  0  0
   59.7778   35.4285   47.4123 H   0  0  0  0  0  0  0  0  0  0  0  0
   60.6826   35.2141   45.8755 H   0  0  0  0  0  0  0  0  0  0  0  0
   59.1016   36.0668   45.8755 H   0  0  0  0  0  0  0  0  0  0  0  0
   58.3210   30.8580   46.3890 H   0  0  0  0  0  0  0  0  0  0  0  0
   56.5839   29.4829   42.4306 H   0  0  0  0  0  0  0  0  0  0  0  0
   58.0848   30.1382   43.2286 H   0  0  0  0  0  0  0  0  0  0  0  0
   59.4620   25.5541   47.6447 H   0  0  0  0  0  0  0  0  0  0  0  0
   61.9890   30.0150   46.9370 H   0  0  0  0  0  0  0  0  0  0  0  0
   62.8215   32.5641   46.3942 H   0  0  0  0  0  0  0  0  0  0  0  0
   63.5299   34.6219   47.5290 H   0  0  0  0  0  0  0  0  0  0  0  0
   61.5741   33.3895   51.1250 H   0  0  0  0  0  0  0  0  0  0  0  0
   60.8627   31.3347   49.9964 H   0  0  0  0  0  0  0  0  0  0  0  0
  1  2  1  0
  2  3  2  0
  3  4  1  0
  4  5  1  0
  5  6  2  0
  6  7  1  0
  7  8  2  0
  7  9  1  0
  9 10  1  0
 10 11  1  0
 11 12  2  0
 12 13  1  0
 13 14  2  0
 14 15  1  0
 14 16  1  0
 16 17  1  0
 17 18  2  0
 17 19  1  0
 19 20  1  0
 20 21  2  0
 21 22  1  0
 22 23  2  0
 23 24  1  0
 23 25  1  0
 25 26  2  0
 16 27  2  0
  5 28  1  0
 28  2  1  0
 27 11  1  0
 26 20  1  0
  1 29  1  0
  1 30  1  0
  1 31  1  0
  4 32  1  0
  9 33  1  0
  9 34  1  0
 13 35  1  0
 19 36  1  0
 21 37  1  0
 22 38  1  0
 25 39  1  0
 26 40  1  0
M  END
>  <smiles>  (42) 
Cc1n[nH]c(=NC(=O)CSc2ncc(Cl)c(C(=O)Nc3ccc(F)cc3)n2)s1

>  <score_type>  (42) 
oracle

>  <origin>  (42) 
adg

>  <m_score__min__energy>  (42) 
-7.6699999999999999

>  <m_primary>  (42) 
energy

$$$$
42:0
     RDKit          3D

 60 63  0  0  0  0  0  0  0  0999 V2000
   57.0740   21.2330   43.3700 C   0  0  0  0  0  0  0  0  0  0  0  0
   55.9180   22.0520   42.9990 N   0  0  0  0  0  0  0  0  0  0  0  0
   56.2270   23.4890   43.0860 C   0  0  0  0  0  0  0  0  0  0  0  0
   55.9130   24.0440   44.4790 C   0  0  0  0  0  0  0  0  0  0  0  0
   56.7760   25.1840   44.7900 N   0  0  0  0  0  0  0  0  0  0  0  0
   56.3670   26.2550   45.6560 C   0  0  0  0  0  0  0  0  0  0  0  0
   55.1560   26.3620   45.9930 O   0  0  0  0  0  0  0  0  0  0  0  0
   57.3460   27.2630   46.1290 C   0  0  0  0  0  0  0  0  0  0  0  0
   58.4070   26.8570   46.9470 C   0  0  0  0  0  0  0  0  0  0  0  0
   59.3300   27.7500   47.4200 N   0  0  0  0  0  0  0  0  0  0  0  0
   60.4100   27.2390   48.2810 C   0  0  0  0  0  0  0  0  0  0  0  0
   59.2370   29.0880   47.0990 C   0  0  0  0  0  0  0  0  0  0  0  0
   60.1590   30.0400   47.5980 C   0  0  0  0  0  0  0  0  0  0  0  0
   60.0670   31.3960   47.2450 C   0  0  0  0  0  0  0  0  0  0  0  0
   61.0040   32.3530   47.7790 N   0  0  0  0  0  0  0  0  0  0  0  0
   62.0390   32.9550   46.9250 C   0  0  0  0  0  0  0  0  0  0  0  0
   63.4230   32.6910   47.5280 C   0  0  0  0  0  0  0  0  0  0  0  0
   63.4150   32.8790   48.9890 N   0  0  0  0  0  0  0  0  0  0  0  0
   64.5310   32.4170   49.7720 C   0  0  0  0  0  0  0  0  0  0  0  0
   64.4120   31.2670   50.5710 C   0  0  0  0  0  0  0  0  0  0  0  0
   65.4960   30.8250   51.3390 C   0  0  0  0  0  0  0  0  0  0  0  0
   66.7010   31.5330   51.3260 C   0  0  0  0  0  0  0  0  0  0  0  0
   66.8260   32.6860   50.5410 C   0  0  0  0  0  0  0  0  0  0  0  0
   68.3320   33.5830   50.5330 Cl  0  0  0  0  0  0  0  0  0  0  0  0
   65.7470   33.1260   49.7670 C   0  0  0  0  0  0  0  0  0  0  0  0
   62.2270   33.4510   49.6390 C   0  0  0  0  0  0  0  0  0  0  0  0
   60.9810   32.6620   49.2190 C   0  0  0  0  0  0  0  0  0  0  0  0
   59.0360   31.8160   46.3990 C   0  0  0  0  0  0  0  0  0  0  0  0
   58.1080   30.9010   45.9060 C   0  0  0  0  0  0  0  0  0  0  0  0
   58.1920   29.5390   46.2500 C   0  0  0  0  0  0  0  0  0  0  0  0
   57.2540   28.6130   45.7600 C   0  0  0  0  0  0  0  0  0  0  0  0
   56.3440   28.9910   44.9700 O   0  0  0  0  0  0  0  0  0  0  0  0
   57.1491   21.1798   44.4661 H   0  0  0  0  0  0  0  0  0  0  0  0
   56.9514   20.2191   42.9613 H   0  0  0  0  0  0  0  0  0  0  0  0
   57.9898   21.6849   42.9613 H   0  0  0  0  0  0  0  0  0  0  0  0
   55.1610   21.8470   43.6920 H   0  0  0  0  0  0  0  0  0  0  0  0
   57.2958   23.6389   42.8734 H   0  0  0  0  0  0  0  0  0  0  0  0
   55.6049   24.0223   42.3521 H   0  0  0  0  0  0  0  0  0  0  0  0
   54.8622   24.3680   44.5098 H   0  0  0  0  0  0  0  0  0  0  0  0
   56.0914   23.2531   45.2224 H   0  0  0  0  0  0  0  0  0  0  0  0
   57.6990   25.2460   44.3040 H   0  0  0  0  0  0  0  0  0  0  0  0
   58.5011   25.7946   47.2161 H   0  0  0  0  0  0  0  0  0  0  0  0
   60.1308   27.3711   49.3367 H   0  0  0  0  0  0  0  0  0  0  0  0
   60.5688   26.1703   48.0747 H   0  0  0  0  0  0  0  0  0  0  0  0
   61.3371   27.7940   48.0747 H   0  0  0  0  0  0  0  0  0  0  0  0
   60.9618   29.7113   48.2744 H   0  0  0  0  0  0  0  0  0  0  0  0
   61.9873   32.5114   45.9197 H   0  0  0  0  0  0  0  0  0  0  0  0
   61.8712   34.0401   46.8586 H   0  0  0  0  0  0  0  0  0  0  0  0
   63.7212   31.6567   47.3014 H   0  0  0  0  0  0  0  0  0  0  0  0
   64.1348   33.4061   47.0898 H   0  0  0  0  0  0  0  0  0  0  0  0
   63.4628   30.7116   50.5931 H   0  0  0  0  0  0  0  0  0  0  0  0
   65.3991   29.9183   51.9542 H   0  0  0  0  0  0  0  0  0  0  0  0
   67.5505   31.1849   51.9319 H   0  0  0  0  0  0  0  0  0  0  0  0
   65.8494   34.0314   49.1508 H   0  0  0  0  0  0  0  0  0  0  0  0
   62.3447   33.3952   50.7313 H   0  0  0  0  0  0  0  0  0  0  0  0
   62.1140   34.5018   49.3341 H   0  0  0  0  0  0  0  0  0  0  0  0
   60.9445   31.7207   49.7870 H   0  0  0  0  0  0  0  0  0  0  0  0
   60.0934   33.2772   49.4282 H   0  0  0  0  0  0  0  0  0  0  0  0
   58.9569   32.8772   46.1204 H   0  0  0  0  0  0  0  0  0  0  0  0
   57.3022   31.2465   45.2417 H   0  0  0  0  0  0  0  0  0  0  0  0
  1  2  1  0
  2  3  1  0
  3  4  1  0
  4  5  1  0
  5  6  1  0
  6  7  2  0
  6  8  1  0
  8  9  2  0
  9 10  1  0
 10 11  1  0
 10 12  1  0
 12 13  2  0
 13 14  1  0
 14 15  1  0
 15 16  1  0
 16 17  1  0
 17 18  1  0
 18 19  1  0
 19 20  2  0
 20 21  1  0
 21 22  2  0
 22 23  1  0
 23 24  1  0
 23 25  2  0
 18 26  1  0
 26 27  1  0
 14 28  2  0
 28 29  1  0
 29 30  2  0
 30 31  1  0
 31 32  2  0
 31  8  1  0
 30 12  1  0
 27 15  1  0
 25 19  1  0
  1 33  1  0
  1 34  1  0
  1 35  1  0
  2 36  1  0
  3 37  1  0
  3 38  1  0
  4 39  1  0
  4 40  1  0
  5 41  1  0
  9 42  1  0
 11 43  1  0
 11 44  1  0
 11 45  1  0
 13 46  1  0
 16 47  1  0
 16 48  1  0
 17 49  1  0
 17 50  1  0
 20 51  1  0
 21 52  1  0
 22 53  1  0
 25 54  1  0
 26 55  1  0
 26 56  1  0
 27 57  1  0
 27 58  1  0
 28 59  1  0
 29 60  1  0
M  END
>  <UniqueID>  (43) 
35

>  <SMILES>  (43) 
CNCCNC(=O)c1cn(C)c2cc(N3CCN(c4cccc(Cl)c4)CC3)ccc2c1=O

>  <Energy>  (43) 
80.77213481132938

>  <Genealogy>  (43) 
CNCCNC(=O)c1cn(C)c2cc(N3CCN(c4cccc(Cl)c4)CC3)ccc2c1=O (3D coordinates assigned)
CNCCNC(=O)c1cn(C)c2cc(N3CCN(c4cccc(Cl)c4)CC3)ccc2c1=O (nonaromatic ring conformer: 80.77213481132938 kcal/mol)

>  <smiles>  (43) 
CNCCNC(=O)c1cn(C)c2cc(N3CCN(c4cccc(Cl)c4)CC3)ccc2c1=O

>  <score_type>  (43) 
oracle

>  <origin>  (43) 
adg

>  <m_score__min__energy>  (43) 
-9.4199999999999999

>  <m_primary>  (43) 
energy

$$$$
43:0
     RDKit          3D

 37 38  0  0  0  0  0  0  0  0999 V2000
   63.0620   31.6160   47.5340 O   0  0  0  0  0  0  0  0  0  0  0  0
   61.9890   32.2290   47.2810 C   0  0  0  0  0  0  0  0  0  0  0  0
   62.0600   33.5150   46.7570 C   0  0  0  0  0  0  0  0  0  0  0  0
   60.8830   34.1790   46.4490 C   0  0  0  0  0  0  0  0  0  0  0  0
   59.6750   33.5880   46.6740 N   0  0  0  0  0  0  0  0  0  0  0  0
   58.4450   34.2970   46.2780 C   0  0  0  0  0  0  0  0  0  0  0  0
   57.9490   33.8590   44.8870 C   0  0  0  0  0  0  0  0  0  0  0  0
   57.1000   32.5730   44.9090 C   0  0  0  0  0  0  0  0  0  0  0  0
   57.5980   31.5250   43.9090 C   0  0  0  0  0  0  0  0  0  0  0  0
   56.3100   30.0860   43.7540 Br  0  0  0  0  0  0  0  0  0  0  0  0
   59.6170   32.3330   47.2270 C   0  0  0  0  0  0  0  0  0  0  0  0
   58.4920   31.8090   47.4670 O   0  0  0  0  0  0  0  0  0  0  0  0
   60.7710   31.6410   47.5100 N   0  0  0  0  0  0  0  0  0  0  0  0
   60.7090   30.2380   47.9680 C   0  0  0  0  0  0  0  0  0  0  0  0
   60.0770   29.3770   46.9050 C   0  0  0  0  0  0  0  0  0  0  0  0
   60.6050   29.3520   45.6020 C   0  0  0  0  0  0  0  0  0  0  0  0
   59.9850   28.5910   44.6050 C   0  0  0  0  0  0  0  0  0  0  0  0
   58.8330   27.8570   44.8970 C   0  0  0  0  0  0  0  0  0  0  0  0
   58.2990   27.8810   46.1890 C   0  0  0  0  0  0  0  0  0  0  0  0
   58.9170   28.6370   47.1890 C   0  0  0  0  0  0  0  0  0  0  0  0
   63.0343   33.9975   46.5896 H   0  0  0  0  0  0  0  0  0  0  0  0
   60.9238   35.1909   46.0196 H   0  0  0  0  0  0  0  0  0  0  0  0
   57.6592   34.0854   47.0181 H   0  0  0  0  0  0  0  0  0  0  0  0
   58.6717   35.3725   46.2348 H   0  0  0  0  0  0  0  0  0  0  0  0
   57.3389   34.6708   44.4643 H   0  0  0  0  0  0  0  0  0  0  0  0
   58.8411   33.6450   44.2801 H   0  0  0  0  0  0  0  0  0  0  0  0
   57.1384   32.1420   45.9203 H   0  0  0  0  0  0  0  0  0  0  0  0
   56.0729   32.8453   44.6246 H   0  0  0  0  0  0  0  0  0  0  0  0
   57.7355   31.9975   42.9252 H   0  0  0  0  0  0  0  0  0  0  0  0
   58.5546   31.1146   44.2646 H   0  0  0  0  0  0  0  0  0  0  0  0
   61.7275   29.8760   48.1722 H   0  0  0  0  0  0  0  0  0  0  0  0
   60.1032   30.1835   48.8846 H   0  0  0  0  0  0  0  0  0  0  0  0
   61.5088   29.9328   45.3657 H   0  0  0  0  0  0  0  0  0  0  0  0
   60.4057   28.5707   43.5888 H   0  0  0  0  0  0  0  0  0  0  0  0
   58.3463   27.2606   44.1112 H   0  0  0  0  0  0  0  0  0  0  0  0
   57.3911   27.3040   46.4188 H   0  0  0  0  0  0  0  0  0  0  0  0
   58.4929   28.6527   48.2038 H   0  0  0  0  0  0  0  0  0  0  0  0
  1  2  2  0
  2  3  1  0
  3  4  2  0
  4  5  1  0
  5  6  1  0
  6  7  1  0
  7  8  1  0
  8  9  1  0
  9 10  1  0
  5 11  1  0
 11 12  2  0
 11 13  1  0
 13 14  1  0
 14 15  1  0
 15 16  2  0
 16 17  1  0
 17 18  2  0
 18 19  1  0
 19 20  2  0
 13  2  1  0
 20 15  1  0
  3 21  1  0
  4 22  1  0
  6 23  1  0
  6 24  1  0
  7 25  1  0
  7 26  1  0
  8 27  1  0
  8 28  1  0
  9 29  1  0
  9 30  1  0
 14 31  1  0
 14 32  1  0
 16 33  1  0
 17 34  1  0
 18 35  1  0
 19 36  1  0
 20 37  1  0
M  END
>  <UniqueID>  (44) 
36

>  <SMILES>  (44) 
O=c1ccn(CCCCBr)c(=O)n1Cc1ccccc1

>  <Energy>  (44) 
36.504253832604256

>  <Genealogy>  (44) 
O=c1ccn(CCCCBr)c(=O)n1Cc1ccccc1 (3D coordinates assigned)
O=c1ccn(CCCCBr)c(=O)n1Cc1ccccc1 (optimized conformer: 36.504253832604256 kcal/mol)

>  <smiles>  (44) 
O=c1ccn(CCCCBr)c(=O)n1Cc1ccccc1

>  <score_type>  (44) 
oracle

>  <origin>  (44) 
adg

>  <m_score__min__energy>  (44) 
-6.7199999999999998

>  <m_primary>  (44) 
energy

$$$$
44:0
     RDKit          3D

 50 51  0  0  0  0  0  0  0  0999 V2000
   58.1480   32.3250   41.9730 C   0  0  0  0  0  0  0  0  0  0  0  0
   57.5440   33.0730   43.0230 O   0  0  0  0  0  0  0  0  0  0  0  0
   58.1100   33.2580   44.2960 C   0  0  0  0  0  0  0  0  0  0  0  0
   59.0750   34.2550   44.5380 C   0  0  0  0  0  0  0  0  0  0  0  0
   59.5730   34.4630   45.8260 C   0  0  0  0  0  0  0  0  0  0  0  0
   59.1230   33.6770   46.8950 C   0  0  0  0  0  0  0  0  0  0  0  0
   59.6200   33.9370   48.2870 C   0  0  0  0  0  0  0  0  0  0  0  0
   58.1560   32.6890   46.6630 C   0  0  0  0  0  0  0  0  0  0  0  0
   57.6770   32.4490   45.3690 C   0  0  0  0  0  0  0  0  0  0  0  0
   56.6960   31.4180   45.1850 N   0  0  0  0  0  0  0  0  0  0  0  0
   56.9390   30.1610   44.5450 C   0  0  0  0  0  0  0  0  0  0  0  0
   57.9270   30.0150   43.7750 O   0  0  0  0  0  0  0  0  0  0  0  0
   56.0420   28.9980   44.8330 C   0  0  0  0  0  0  0  0  0  0  0  0
   56.6560   28.1200   45.8220 N   0  0  0  0  0  0  0  0  0  0  0  0
   56.2990   26.7430   45.9870 C   0  0  0  0  0  0  0  0  0  0  0  0
   55.0870   26.3930   45.9850 O   0  0  0  0  0  0  0  0  0  0  0  0
   57.3790   25.7160   46.1780 C   0  0  1  0  0  0  0  0  0  0  0  0
   58.3530   26.1840   47.2690 C   0  0  0  0  0  0  0  0  0  0  0  0
   59.1200   27.4060   46.8320 C   0  0  0  0  0  0  0  0  0  0  0  0
   59.1840   28.5350   47.6650 C   0  0  0  0  0  0  0  0  0  0  0  0
   59.8680   29.6810   47.2470 C   0  0  0  0  0  0  0  0  0  0  0  0
   60.4860   29.7090   45.9940 C   0  0  0  0  0  0  0  0  0  0  0  0
   60.4180   28.5930   45.1550 C   0  0  0  0  0  0  0  0  0  0  0  0
   59.7350   27.4460   45.5690 C   0  0  0  0  0  0  0  0  0  0  0  0
   56.7880   24.4330   46.5580 N   0  0  0  0  0  0  0  0  0  0  0  0
   57.4490   23.1650   46.4730 C   0  0  0  0  0  0  0  0  0  0  0  0
   58.2370   22.7650   45.2640 C   0  0  0  0  0  0  0  0  0  0  0  0
   57.3550   22.3640   47.4400 O   0  0  0  0  0  0  0  0  0  0  0  0
   58.7841   31.5373   42.4029 H   0  0  0  0  0  0  0  0  0  0  0  0
   57.3645   31.8656   41.3524 H   0  0  0  0  0  0  0  0  0  0  0  0
   58.7621   32.9942   41.3524 H   0  0  0  0  0  0  0  0  0  0  0  0
   59.4394   34.8749   43.7056 H   0  0  0  0  0  0  0  0  0  0  0  0
   60.3228   35.2483   46.0023 H   0  0  0  0  0  0  0  0  0  0  0  0
   58.8891   33.5546   49.0147 H   0  0  0  0  0  0  0  0  0  0  0  0
   60.5839   33.4277   48.4333 H   0  0  0  0  0  0  0  0  0  0  0  0
   59.7513   35.0193   48.4333 H   0  0  0  0  0  0  0  0  0  0  0  0
   57.7697   32.0965   47.5054 H   0  0  0  0  0  0  0  0  0  0  0  0
   55.0817   29.3676   45.2219 H   0  0  0  0  0  0  0  0  0  0  0  0
   55.8788   28.4324   43.9038 H   0  0  0  0  0  0  0  0  0  0  0  0
   57.9269   25.5913   45.2324 H   0  0  0  0  0  0  0  0  0  0  0  0
   57.7831   26.4250   48.1785 H   0  0  0  0  0  0  0  0  0  0  0  0
   59.0718   25.3742   47.4629 H   0  0  0  0  0  0  0  0  0  0  0  0
   58.6943   28.5178   48.6498 H   0  0  0  0  0  0  0  0  0  0  0  0
   59.9196   30.5610   47.9050 H   0  0  0  0  0  0  0  0  0  0  0  0
   61.0264   30.6098   45.6677 H   0  0  0  0  0  0  0  0  0  0  0  0
   60.9026   28.6175   44.1678 H   0  0  0  0  0  0  0  0  0  0  0  0
   59.6787   26.5716   44.9040 H   0  0  0  0  0  0  0  0  0  0  0  0
   59.1765   22.2881   45.5800 H   0  0  0  0  0  0  0  0  0  0  0  0
   57.6501   22.0557   44.6620 H   0  0  0  0  0  0  0  0  0  0  0  0
   58.4632   23.6574   44.6620 H   0  0  0  0  0  0  0  0  0  0  0  0
  1  2  1  0
  2  3  1  0
  3  4  2  0
  4  5  1  0
  5  6  2  0
  6  7  1  0
  6  8  1  0
  8  9  2  0
  9 10  1  0
 10 11  1  0
 11 12  2  0
 11 13  1  0
 13 14  1  0
 14 15  1  0
 15 16  2  0
 15 17  1  0
 17 18  1  0
 18 19  1  0
 19 20  2  0
 20 21  1  0
 21 22  2  0
 22 23  1  0
 23 24  2  0
 17 25  1  0
 25 26  1  0
 26 27  1  0
 26 28  2  0
  9  3  1  0
 24 19  1  0
  1 29  1  0
  1 30  1  0
  1 31  1  0
  4 32  1  0
  5 33  1  0
  7 34  1  0
  7 35  1  0
  7 36  1  0
  8 37  1  0
 13 38  1  0
 13 39  1  0
 17 40  1  6
 18 41  1  0
 18 42  1  0
 20 43  1  0
 21 44  1  0
 22 45  1  0
 23 46  1  0
 24 47  1  0
 27 48  1  0
 27 49  1  0
 27 50  1  0
M  CHG  3  10  -1  14  -1  25  -1
M  END
>  <UniqueID>  (45) 
37

>  <SMILES>  (45) 
COc1ccc(C)cc1[N-]C(=O)C[N-]C(=O)[C@@H](Cc1ccccc1)[N-]C(C)=O

>  <Energy>  (45) 
44.33554172537227

>  <Genealogy>  (45) 
COc1ccc(C)cc1[N-]C(=O)C[N-]C(=O)C(Cc1ccccc1)[N-]C(C)=O (protonated)
COc1ccc(C)cc1[N-]C(=O)C[N-]C(=O)[C@@H](Cc1ccccc1)[N-]C(C)=O (chirality)
COc1ccc(C)cc1[N-]C(=O)C[N-]C(=O)[C@@H](Cc1ccccc1)[N-]C(C)=O (3D coordinates assigned)
COc1ccc(C)cc1[N-]C(=O)C[N-]C(=O)[C@@H](Cc1ccccc1)[N-]C(C)=O (optimized conformer: 44.33554172537227 kcal/mol)

>  <smiles>  (45) 
COc1ccc(C)cc1NC(=O)CNC(=O)C(Cc1ccccc1)NC(C)=O

>  <score_type>  (45) 
oracle

>  <origin>  (45) 
adg

>  <m_score__min__energy>  (45) 
-13.050000000000001

>  <m_primary>  (45) 
energy

$$$$
45:0
     RDKit          3D

 44 47  0  0  1  0  0  0  0  0999 V2000
   57.5050   28.2130   43.3460 N   0  0  0  0  0  0  0  0  0  0  0  0
   57.0210   28.6150   44.9550 S   0  0  0  0  0  0  0  0  0  0  0  0
   56.3880   27.4310   45.6120 O   0  0  0  0  0  0  0  0  0  0  0  0
   55.9980   29.7010   44.8770 O   0  0  0  0  0  0  0  0  0  0  0  0
   58.4320   29.1660   45.8180 C   0  0  0  0  0  0  0  0  0  0  0  0
   59.6860   29.2410   45.2540 C   0  0  0  0  0  0  0  0  0  0  0  0
   60.7750   29.6930   46.0070 C   0  0  0  0  0  0  0  0  0  0  0  0
   60.5570   30.0560   47.3210 C   0  0  0  0  0  0  0  0  0  0  0  0
   61.6330   30.5310   48.1570 N   0  0  0  0  0  0  0  0  0  0  0  0
   61.7800   31.7880   48.3980 C   0  0  0  0  0  0  0  0  0  0  0  0
   60.9100   32.7060   47.9280 N   0  0  0  0  0  0  0  0  0  0  0  0
   61.0840   34.0260   48.1940 C   0  0  0  0  0  0  0  0  0  0  0  0
   60.2860   34.8600   47.7610 N   0  0  0  0  0  0  0  0  0  0  0  0
   59.0730   34.8730   47.1050 C   0  0  0  0  0  0  0  0  0  0  0  0
   58.6080   33.9530   46.0960 C   0  0  0  0  0  0  0  0  0  0  0  0
   58.9960   33.9920   44.7420 C   0  0  0  0  0  0  0  0  0  0  0  0
   58.4900   33.0980   43.8250 C   0  0  0  0  0  0  0  0  0  0  0  0
   57.5890   32.1340   44.1910 C   0  0  0  0  0  0  0  0  0  0  0  0
   57.2180   32.0940   45.4830 N   0  0  0  0  0  0  0  0  0  0  0  0
   57.6930   32.9530   46.4020 C   0  0  0  0  0  0  0  0  0  0  0  0
   62.1220   34.4280   48.9270 N   0  0  0  0  0  0  0  0  0  0  0  0
   62.9840   33.5390   49.3970 C   0  0  0  0  0  0  0  0  0  0  0  0
   64.0970   33.7590   50.1580 N   0  0  0  0  0  0  0  0  0  0  0  0
   64.6560   32.5580   50.3920 C   0  0  0  0  0  0  0  0  0  0  0  0
   63.8930   31.6050   49.7770 N   0  0  0  0  0  0  0  0  0  0  0  0
   62.8550   32.1920   49.1570 C   0  0  0  0  0  0  0  0  0  0  0  0
   59.3080   29.9910   47.9160 C   0  0  0  0  0  0  0  0  0  0  0  0
   58.2710   29.5410   47.1320 C   0  0  0  0  0  0  0  0  0  0  0  0
   57.7790   29.0990   42.8600 H   0  0  0  0  0  0  0  0  0  0  0  0
   56.6710   27.8160   42.8670 H   0  0  0  0  0  0  0  0  0  0  0  0
   59.8323   28.9437   44.2051 H   0  0  0  0  0  0  0  0  0  0  0  0
   61.7795   29.7575   45.5633 H   0  0  0  0  0  0  0  0  0  0  0  0
   60.1240   32.3680   47.3690 H   0  0  0  0  0  0  0  0  0  0  0  0
   58.3207   34.8149   47.9055 H   0  0  0  0  0  0  0  0  0  0  0  0
   59.2328   35.7563   46.4692 H   0  0  0  0  0  0  0  0  0  0  0  0
   59.7183   34.7526   44.4105 H   0  0  0  0  0  0  0  0  0  0  0  0
   58.8165   33.1595   42.7764 H   0  0  0  0  0  0  0  0  0  0  0  0
   57.1848   31.4208   43.4575 H   0  0  0  0  0  0  0  0  0  0  0  0
   57.3423   32.8601   47.4404 H   0  0  0  0  0  0  0  0  0  0  0  0
   62.2440   35.4120   49.1200 H   0  0  0  0  0  0  0  0  0  0  0  0
   65.5692   32.3745   50.9771 H   0  0  0  0  0  0  0  0  0  0  0  0
   64.0730   30.5770   49.7790 H   0  0  0  0  0  0  0  0  0  0  0  0
   59.1527   30.2849   48.9646 H   0  0  0  0  0  0  0  0  0  0  0  0
   57.2666   29.4781   47.5762 H   0  0  0  0  0  0  0  0  0  0  0  0
  1  2  1  0
  2  3  2  0
  2  4  2  0
  2  5  1  0
  5  6  2  0
  6  7  1  0
  7  8  2  0
  8  9  1  0
  9 10  2  0
 10 11  1  0
 11 12  1  0
 12 13  2  0
 13 14  1  0
 14 15  1  0
 15 16  2  0
 16 17  1  0
 17 18  2  0
 18 19  1  0
 19 20  2  0
 12 21  1  0
 21 22  1  0
 22 23  1  0
 23 24  2  0
 24 25  1  0
 25 26  1  0
  8 27  1  0
 27 28  2  0
 28  5  1  0
 26 10  1  0
 20 15  1  0
 26 22  2  0
  1 29  1  0
  1 30  1  0
  6 31  1  0
  7 32  1  0
 11 33  1  0
 14 34  1  0
 14 35  1  0
 16 36  1  0
 17 37  1  0
 18 38  1  0
 20 39  1  0
 21 40  1  0
 24 41  1  0
 25 42  1  0
 27 43  1  0
 28 44  1  0
M  END
>  <smiles>  (46) 
NS(=O)(=O)c1ccc(N=c2[nH]c(=NCc3cccnc3)[nH]c3nc[nH]c23)cc1

>  <score_type>  (46) 
oracle

>  <origin>  (46) 
adg

>  <m_score__min__energy>  (46) 
-9.1400000000000006

>  <m_primary>  (46) 
energy

$$$$
46:0
     RDKit          3D

 40 41  0  0  0  0  0  0  0  0999 V2000
   56.3762   29.0250   45.1813 H   0  0  0  0  0  0  0  0  0  0  0  0
   56.6600   28.0440   45.5900 C   0  0  0  0  0  0  0  0  0  0  0  0
   55.7520   27.0340   45.6220 N   0  0  0  0  0  0  0  0  0  0  0  0
   56.0500   25.7990   46.1130 C   0  0  0  0  0  0  0  0  0  0  0  0
   55.1160   24.8900   46.1100 N   0  0  0  0  0  0  0  0  0  0  0  0
   55.1230   23.6070   45.4040 C   0  0  0  0  0  0  0  0  0  0  0  0
   54.0860   23.3014   45.2011 H   0  0  0  0  0  0  0  0  0  0  0  0
   55.6257   22.8597   46.0355 H   0  0  0  0  0  0  0  0  0  0  0  0
   55.8820   23.7200   44.0780 C   0  0  0  0  0  0  0  0  0  0  0  0
   56.9441   23.9202   44.2824 H   0  0  0  0  0  0  0  0  0  0  0  0
   55.4538   24.5426   43.4864 H   0  0  0  0  0  0  0  0  0  0  0  0
   55.7650   22.5140   43.3480 O   0  0  0  0  0  0  0  0  0  0  0  0
   57.0180   21.8710   43.2530 C   0  0  0  0  0  0  0  0  0  0  0  0
   57.4056   21.6721   44.2631 H   0  0  0  0  0  0  0  0  0  0  0  0
   56.9024   20.9208   42.7110 H   0  0  0  0  0  0  0  0  0  0  0  0
   57.7225   22.5190   42.7110 H   0  0  0  0  0  0  0  0  0  0  0  0
   57.3480   25.5570   46.6090 C   0  0  0  0  0  0  0  0  0  0  0  0
   57.6115   24.5685   47.0132 H   0  0  0  0  0  0  0  0  0  0  0  0
   58.2950   26.5810   46.5830 C   0  0  0  0  0  0  0  0  0  0  0  0
   59.3113   26.3986   46.9623 H   0  0  0  0  0  0  0  0  0  0  0  0
   57.9550   27.8380   46.0760 C   0  0  0  0  0  0  0  0  0  0  0  0
   59.1390   29.1420   46.0540 S   0  0  0  0  0  0  0  0  0  0  0  0
   60.3650   28.6970   46.7980 O   0  0  0  0  0  0  0  0  0  0  0  0
   59.5190   29.4870   44.6410 O   0  0  0  0  0  0  0  0  0  0  0  0
   58.4890   30.5530   46.8250 N   0  0  0  0  0  0  0  0  0  0  0  0
   58.4500   31.8690   46.2540 C   0  0  0  0  0  0  0  0  0  0  0  0
   59.3250   32.8860   46.6800 C   0  0  0  0  0  0  0  0  0  0  0  0
   60.0571   32.6807   47.4749 H   0  0  0  0  0  0  0  0  0  0  0  0
   59.2680   34.1550   46.0980 C   0  0  0  0  0  0  0  0  0  0  0  0
   59.9553   34.9449   46.4352 H   0  0  0  0  0  0  0  0  0  0  0  0
   58.3420   34.4220   45.0910 C   0  0  0  0  0  0  0  0  0  0  0  0
   58.3011   35.4214   44.6332 H   0  0  0  0  0  0  0  0  0  0  0  0
   57.4650   33.4210   44.6620 C   0  0  0  0  0  0  0  0  0  0  0  0
   56.7349   33.6363   43.8679 H   0  0  0  0  0  0  0  0  0  0  0  0
   57.5120   32.1380   45.2420 C   0  0  0  0  0  0  0  0  0  0  0  0
   56.6480   31.1080   44.8380 O   0  0  0  0  0  0  0  0  0  0  0  0
   56.6470   30.5170   43.5430 C   0  0  0  0  0  0  0  0  0  0  0  0
   56.6451   29.4213   43.6400 H   0  0  0  0  0  0  0  0  0  0  0  0
   55.7494   30.8380   42.9941 H   0  0  0  0  0  0  0  0  0  0  0  0
   57.5457   30.8350   42.9941 H   0  0  0  0  0  0  0  0  0  0  0  0
  1  2  1  0
  2  3  1  0
  3  4  1  0
  4  5  2  0
  5  6  1  0
  6  7  1  0
  6  8  1  0
  6  9  1  0
  9 10  1  0
  9 11  1  0
  9 12  1  0
 12 13  1  0
 13 14  1  0
 13 15  1  0
 13 16  1  0
  4 17  1  0
 17 18  1  0
 17 19  2  0
 19 20  1  0
 19 21  1  0
 21 22  1  0
 22 23  2  0
 22 24  2  0
 22 25  1  0
 25 26  1  0
 26 27  2  0
 27 28  1  0
 27 29  1  0
 29 30  1  0
 29 31  2  0
 31 32  1  0
 31 33  1  0
 33 34  1  0
 33 35  2  0
 35 36  1  0
 36 37  1  0
 37 38  1  0
 37 39  1  0
 37 40  1  0
 21  2  2  0
 35 26  1  0
M  CHG  2   3  -1  25  -1
M  END
>  <UniqueID>  (47) 
38

>  <SMILES>  (47) 
COCC/N=c1\ccc(S(=O)(=O)[N-]c2ccccc2OC)c[n-]1

>  <Energy>  (47) 
46.07091708182243

>  <Genealogy>  (47) 
COCCN=c1ccc(S(=O)(=O)[N-]c2ccccc2OC)c[n-]1 (protonated)
COCC/N=c1\ccc(S(=O)(=O)[N-]c2ccccc2OC)c[n-]1 (cis-trans isomerization)
COCC/N=c1\ccc(S(=O)(=O)[N-]c2ccccc2OC)c[n-]1 (3D coordinates assigned)
COCC/N=c1\ccc(S(=O)(=O)[N-]c2ccccc2OC)c[n-]1 (optimized conformer: 46.07091708182243 kcal/mol)

>  <smiles>  (47) 
COCCN=c1ccc(S(=O)(=O)Nc2ccccc2OC)c[nH]1

>  <score_type>  (47) 
oracle

>  <origin>  (47) 
adg

>  <m_score__min__energy>  (47) 
-10.34

>  <m_primary>  (47) 
energy

$$$$
47:0
     RDKit          3D

 35 37  0  0  1  0  0  0  0  0999 V2000
   56.6480   30.4560   42.6820 C   0  0  0  0  0  0  0  0  0  0  0  0
   55.8630   30.1900   43.9580 C   0  0  0  0  0  0  0  0  0  0  0  0
   56.7970   29.5320   44.9410 C   0  0  0  0  0  0  0  0  0  0  0  0
   57.5680   30.3730   45.6490 N   0  0  0  0  0  0  0  0  0  0  0  0
   58.4380   29.9110   46.5530 C   0  0  0  0  0  0  0  0  0  0  0  0
   59.1620   30.7830   47.2110 N   0  0  0  0  0  0  0  0  0  0  0  0
   58.4910   31.9900   47.6370 C   0  0  0  0  0  0  0  0  0  0  0  0
   58.6190   33.0810   46.6690 C   0  0  0  0  0  0  0  0  0  0  0  0
   57.2520   33.6510   45.5730 S   0  0  0  0  0  0  0  0  0  0  0  0
   58.4080   34.9540   44.8300 N   0  0  0  0  0  0  0  0  0  0  0  0
   59.3300   34.7700   45.3800 N   0  0  0  0  0  0  0  0  0  0  0  0
   59.6640   33.9040   46.3280 C   0  0  0  0  0  0  0  0  0  0  0  0
   61.0250   33.8190   46.9450 C   0  0  0  0  0  0  0  0  0  0  0  0
   58.5380   28.5560   46.7530 C   0  0  0  0  0  0  0  0  0  0  0  0
   59.3090   27.7700   47.5830 C   0  0  0  0  0  0  0  0  0  0  0  0
   58.9440   26.5020   47.3130 N   0  0  0  0  0  0  0  0  0  0  0  0
   58.0210   26.4730   46.3940 N   0  0  0  0  0  0  0  0  0  0  0  0
   57.3630   25.3050   45.8240 C   0  0  0  0  0  0  0  0  0  0  0  0
   57.7240   27.7210   46.0030 C   0  0  0  0  0  0  0  0  0  0  0  0
   56.8460   28.1990   45.0900 N   0  0  0  0  0  0  0  0  0  0  0  0
   57.6609   30.7992   42.9394 H   0  0  0  0  0  0  0  0  0  0  0  0
   56.7136   29.5299   42.0920 H   0  0  0  0  0  0  0  0  0  0  0  0
   56.1371   31.2312   42.0920 H   0  0  0  0  0  0  0  0  0  0  0  0
   55.4895   31.1379   44.3727 H   0  0  0  0  0  0  0  0  0  0  0  0
   55.0002   29.5397   43.7514 H   0  0  0  0  0  0  0  0  0  0  0  0
   57.4228   31.7678   47.7771 H   0  0  0  0  0  0  0  0  0  0  0  0
   58.9649   32.3200   48.5732 H   0  0  0  0  0  0  0  0  0  0  0  0
   60.9317   33.8248   48.0410 H   0  0  0  0  0  0  0  0  0  0  0  0
   61.5158   32.8885   46.6237 H   0  0  0  0  0  0  0  0  0  0  0  0
   61.6277   34.6813   46.6237 H   0  0  0  0  0  0  0  0  0  0  0  0
   60.0619   28.1069   48.3108 H   0  0  0  0  0  0  0  0  0  0  0  0
   56.9982   24.6575   46.6349 H   0  0  0  0  0  0  0  0  0  0  0  0
   56.5145   25.6286   45.2033 H   0  0  0  0  0  0  0  0  0  0  0  0
   58.0795   24.7470   45.2033 H   0  0  0  0  0  0  0  0  0  0  0  0
   56.2270   27.5790   44.5220 H   0  0  0  0  0  0  0  0  0  0  0  0
  1  2  1  0
  2  3  1  0
  3  4  2  0
  4  5  1  0
  5  6  2  0
  6  7  1  0
  7  8  1  0
  8  9  1  0
  9 10  1  0
 10 11  2  0
 11 12  1  0
 12 13  1  0
  5 14  1  0
 14 15  1  0
 15 16  2  0
 16 17  1  0
 17 18  1  0
 17 19  1  0
 19 20  1  0
 20  3  1  0
 12  8  2  0
 19 14  2  0
  1 21  1  0
  1 22  1  0
  1 23  1  0
  2 24  1  0
  2 25  1  0
  7 26  1  0
  7 27  1  0
 13 28  1  0
 13 29  1  0
 13 30  1  0
 15 31  1  0
 18 32  1  0
 18 33  1  0
 18 34  1  0
 20 35  1  0
M  END
>  <smiles>  (48) 
CCc1nc(=NCc2snnc2C)c2cnn(C)c2[nH]1

>  <score_type>  (48) 
oracle

>  <origin>  (48) 
adg

>  <m_score__min__energy>  (48) 
-7.1500000000000004

>  <m_primary>  (48) 
energy

$$$$
48:0
     RDKit          3D

 58 61  0  0  1  0  0  0  0  0999 V2000
   57.2360   21.4140   43.3390 C   0  0  0  0  0  0  0  0  0  0  0  0
   56.9730   22.6720   44.1090 C   0  0  0  0  0  0  0  0  0  0  0  0
   56.7400   22.6110   45.4840 C   0  0  0  0  0  0  0  0  0  0  0  0
   56.4940   23.7480   46.2230 C   0  0  0  0  0  0  0  0  0  0  0  0
   56.4900   24.9620   45.5390 C   0  0  0  0  0  0  0  0  0  0  0  0
   56.2570   26.0330   46.2480 N   0  0  0  0  0  0  0  0  0  0  0  0
   56.8870   27.2370   45.8230 C   0  0  0  0  0  0  0  0  0  0  0  0
   58.2390   27.4680   45.9740 C   0  0  0  0  0  0  0  0  0  0  0  0
   58.8360   28.6610   45.5470 C   0  0  0  0  0  0  0  0  0  0  0  0
   60.0930   28.7590   45.7520 N   0  0  0  0  0  0  0  0  0  0  0  0
   60.5480   29.3520   46.9560 C   0  0  0  0  0  0  0  0  0  0  0  0
   60.2840   28.8500   48.2100 C   0  0  0  0  0  0  0  0  0  0  0  0
   60.7930   29.5620   49.2830 C   0  0  0  0  0  0  0  0  0  0  0  0
   61.5320   30.7170   49.1380 C   0  0  0  0  0  0  0  0  0  0  0  0
   61.7890   31.2120   47.8760 C   0  0  0  0  0  0  0  0  0  0  0  0
   62.5900   32.4610   47.7780 C   0  0  0  0  0  0  0  0  0  0  0  0
   61.2980   30.5260   46.8100 C   0  0  0  0  0  0  0  0  0  0  0  0
   58.0470   29.6110   44.9650 C   0  0  0  0  0  0  0  0  0  0  0  0
   58.5780   30.7060   44.5540 N   0  0  0  0  0  0  0  0  0  0  0  0
   57.9850   32.2170   45.0730 S   0  0  0  0  0  0  0  0  0  0  0  0
   56.4660   32.1060   45.0800 O   0  0  0  0  0  0  0  0  0  0  0  0
   58.2870   33.3230   44.1010 O   0  0  0  0  0  0  0  0  0  0  0  0
   58.4770   32.6700   46.6850 C   0  0  0  0  0  0  0  0  0  0  0  0
   58.1830   31.8720   47.8000 C   0  0  0  0  0  0  0  0  0  0  0  0
   58.5700   32.2200   49.0710 C   0  0  0  0  0  0  0  0  0  0  0  0
   58.2130   31.3050   50.2140 C   0  0  0  0  0  0  0  0  0  0  0  0
   59.2670   33.3740   49.3180 C   0  0  0  0  0  0  0  0  0  0  0  0
   59.7630   33.8230   50.9290 Cl  0  0  0  0  0  0  0  0  0  0  0  0
   59.5720   34.1780   48.2450 C   0  0  0  0  0  0  0  0  0  0  0  0
   59.1780   33.8240   46.9600 C   0  0  0  0  0  0  0  0  0  0  0  0
   59.6290   34.9330   45.6440 S   0  0  0  0  0  0  0  0  0  0  0  0
   56.7370   29.3410   44.8400 N   0  0  0  0  0  0  0  0  0  0  0  0
   56.1720   28.2200   45.2420 N   0  0  0  0  0  0  0  0  0  0  0  0
   56.7160   25.0210   44.2110 N   0  0  0  0  0  0  0  0  0  0  0  0
   56.9560   23.9070   43.4840 C   0  0  0  0  0  0  0  0  0  0  0  0
   57.4094   20.5844   44.0402 H   0  0  0  0  0  0  0  0  0  0  0  0
   56.3667   21.1832   42.7057 H   0  0  0  0  0  0  0  0  0  0  0  0
   58.1250   21.5508   42.7057 H   0  0  0  0  0  0  0  0  0  0  0  0
   56.7530   21.6338   45.9889 H   0  0  0  0  0  0  0  0  0  0  0  0
   56.3088   23.6992   47.3062 H   0  0  0  0  0  0  0  0  0  0  0  0
   58.8650   26.6942   46.4424 H   0  0  0  0  0  0  0  0  0  0  0  0
   59.6984   27.9298   48.3526 H   0  0  0  0  0  0  0  0  0  0  0  0
   60.5986   29.1885   50.2992 H   0  0  0  0  0  0  0  0  0  0  0  0
   61.9153   31.2420   50.0254 H   0  0  0  0  0  0  0  0  0  0  0  0
   62.8244   32.8265   48.7887 H   0  0  0  0  0  0  0  0  0  0  0  0
   63.5251   32.2554   47.2364 H   0  0  0  0  0  0  0  0  0  0  0  0
   62.0130   33.2251   47.2364 H   0  0  0  0  0  0  0  0  0  0  0  0
   61.4967   30.9062   45.7971 H   0  0  0  0  0  0  0  0  0  0  0  0
   57.6239   30.9363   47.6518 H   0  0  0  0  0  0  0  0  0  0  0  0
   58.4120   31.8152   51.1680 H   0  0  0  0  0  0  0  0  0  0  0  0
   57.1465   31.0424   50.1541 H   0  0  0  0  0  0  0  0  0  0  0  0
   58.8199   30.3895   50.1541 H   0  0  0  0  0  0  0  0  0  0  0  0
   60.1333   35.1104   48.4052 H   0  0  0  0  0  0  0  0  0  0  0  0
   58.7140   34.8400   44.5770 H   0  0  0  0  0  0  0  0  0  0  0  0
   56.1260   30.0620   44.4010 H   0  0  0  0  0  0  0  0  0  0  0  0
   55.1450   28.0850   45.1080 H   0  0  0  0  0  0  0  0  0  0  0  0
   56.7080   25.9440   43.7110 H   0  0  0  0  0  0  0  0  0  0  0  0
   57.1368   23.9814   42.4015 H   0  0  0  0  0  0  0  0  0  0  0  0
  1  2  1  0
  2  3  1  0
  3  4  2  0
  4  5  1  0
  5  6  2  0
  6  7  1  0
  7  8  2  0
  8  9  1  0
  9 10  2  0
 10 11  1  0
 11 12  2  0
 12 13  1  0
 13 14  2  0
 14 15  1  0
 15 16  1  0
 15 17  2  0
  9 18  1  0
 18 19  2  0
 19 20  1  0
 20 21  2  0
 20 22  2  0
 20 23  1  0
 23 24  2  0
 24 25  1  0
 25 26  1  0
 25 27  2  0
 27 28  1  0
 27 29  1  0
 29 30  2  0
 30 31  1  0
 18 32  1  0
 32 33  1  0
  5 34  1  0
 34 35  1  0
 35  2  2  0
 33  7  1  0
 17 11  1  0
 30 23  1  0
  1 36  1  0
  1 37  1  0
  1 38  1  0
  3 39  1  0
  4 40  1  0
  8 41  1  0
 12 42  1  0
 13 43  1  0
 14 44  1  0
 16 45  1  0
 16 46  1  0
 16 47  1  0
 17 48  1  0
 24 49  1  0
 26 50  1  0
 26 51  1  0
 26 52  1  0
 29 53  1  0
 31 54  1  0
 32 55  1  0
 33 56  1  0
 34 57  1  0
 35 58  1  0
M  END
>  <smiles>  (49) 
Cc1ccc(=Nc2cc(=Nc3cccc(C)c3)c(=NS(=O)(=O)c3cc(C)c(Cl)cc3S)[nH][nH]2)[nH]c1

>  <score_type>  (49) 
oracle

>  <origin>  (49) 
adg

>  <m_score__min__energy>  (49) 
-10.390000000000001

>  <m_primary>  (49) 
energy

$$$$
49:0
     RDKit          3D

 42 44  0  0  0  0  0  0  0  0999 V2000
   58.5482   35.2044   46.9775 H   0  0  0  0  0  0  0  0  0  0  0  0
   58.9490   34.1830   46.8990 C   0  0  0  0  0  0  0  0  0  0  0  0
   58.1780   33.2480   46.3200 C   0  0  0  0  0  0  0  0  0  0  0  0
   57.1690   33.4780   45.3060 C   0  0  0  0  0  0  0  0  0  0  0  0
   56.7840   34.5900   44.8580 O   0  0  0  0  0  0  0  0  0  0  0  0
   56.7130   32.2520   44.8650 O   0  0  0  0  0  0  0  0  0  0  0  0
   57.3440   31.2510   45.5720 N   0  0  0  0  0  0  0  0  0  0  0  0
   58.1810   31.7720   46.4170 C   0  0  0  0  0  0  0  0  0  0  0  0
   58.8900   30.9460   47.4120 C   0  0  0  0  0  0  0  0  0  0  0  0
   59.5130   29.7550   47.0270 C   0  0  0  0  0  0  0  0  0  0  0  0
   59.5097   29.4547   45.9688 H   0  0  0  0  0  0  0  0  0  0  0  0
   60.1430   28.9390   47.9810 C   0  0  0  0  0  0  0  0  0  0  0  0
   60.7540   27.7240   47.6280 O   0  0  0  0  0  0  0  0  0  0  0  0
   60.3970   26.9370   46.4970 C   0  0  0  0  0  0  0  0  0  0  0  0
   59.9646   25.9838   46.8353 H   0  0  0  0  0  0  0  0  0  0  0  0
   59.6573   27.4805   45.8908 H   0  0  0  0  0  0  0  0  0  0  0  0
   61.2932   26.7385   45.8908 H   0  0  0  0  0  0  0  0  0  0  0  0
   60.1700   29.3280   49.3310 C   0  0  0  0  0  0  0  0  0  0  0  0
   60.8070   28.4480   50.2270 O   0  0  0  0  0  0  0  0  0  0  0  0
   61.7490   28.7980   51.2360 C   0  0  0  0  0  0  0  0  0  0  0  0
   61.3027   28.6322   52.2276 H   0  0  0  0  0  0  0  0  0  0  0  0
   62.6488   28.1742   51.1299 H   0  0  0  0  0  0  0  0  0  0  0  0
   62.0231   29.8580   51.1299 H   0  0  0  0  0  0  0  0  0  0  0  0
   59.5730   30.5550   49.7220 C   0  0  0  0  0  0  0  0  0  0  0  0
   59.6100   30.9560   51.0670 O   0  0  0  0  0  0  0  0  0  0  0  0
   59.1230   32.2000   51.5620 C   0  0  0  0  0  0  0  0  0  0  0  0
   59.1290   32.1846   52.6619 H   0  0  0  0  0  0  0  0  0  0  0  0
   59.7683   33.0153   51.2032 H   0  0  0  0  0  0  0  0  0  0  0  0
   58.0956   32.3605   51.2032 H   0  0  0  0  0  0  0  0  0  0  0  0
   58.9450   31.3540   48.7470 C   0  0  0  0  0  0  0  0  0  0  0  0
   58.4917   32.3123   49.0406 H   0  0  0  0  0  0  0  0  0  0  0  0
   60.2980   33.9280   47.4360 C   0  0  0  0  0  0  0  0  0  0  0  0
   60.5690   34.1950   48.7850 C   0  0  0  0  0  0  0  0  0  0  0  0
   59.7815   34.6113   49.4304 H   0  0  0  0  0  0  0  0  0  0  0  0
   61.8370   33.9340   49.3130 C   0  0  0  0  0  0  0  0  0  0  0  0
   62.0394   34.1293   50.3764 H   0  0  0  0  0  0  0  0  0  0  0  0
   62.8490   33.4250   48.4920 C   0  0  0  0  0  0  0  0  0  0  0  0
   64.4300   33.0740   49.1610 Cl  0  0  0  0  0  0  0  0  0  0  0  0
   62.5970   33.1980   47.1350 C   0  0  0  0  0  0  0  0  0  0  0  0
   63.3955   32.8107   46.4851 H   0  0  0  0  0  0  0  0  0  0  0  0
   61.3310   33.4630   46.6040 C   0  0  0  0  0  0  0  0  0  0  0  0
   61.1428   33.3070   45.5315 H   0  0  0  0  0  0  0  0  0  0  0  0
  1  2  1  0
  2  3  2  0
  3  4  1  0
  4  5  2  0
  4  6  1  0
  6  7  1  0
  7  8  2  0
  8  9  1  0
  9 10  2  0
 10 11  1  0
 10 12  1  0
 12 13  1  0
 13 14  1  0
 14 15  1  0
 14 16  1  0
 14 17  1  0
 12 18  2  0
 18 19  1  0
 19 20  1  0
 20 21  1  0
 20 22  1  0
 20 23  1  0
 18 24  1  0
 24 25  1  0
 25 26  1  0
 26 27  1  0
 26 28  1  0
 26 29  1  0
 24 30  2  0
 30 31  1  0
  2 32  1  0
 32 33  2  0
 33 34  1  0
 33 35  1  0
 35 36  1  0
 35 37  2  0
 37 38  1  0
 37 39  1  0
 39 40  1  0
 39 41  2  0
 41 42  1  0
  8  3  1  0
 30  9  1  0
 41 32  1  0
M  END
>  <UniqueID>  (50) 
39

>  <SMILES>  (50) 
COc1cc(C2=NOC(=O)/C2=C/c2ccc(Cl)cc2)cc(OC)c1OC

>  <Energy>  (50) 
85.15001185736467

>  <Genealogy>  (50) 
COc1cc(C2=NOC(=O)/C2=C/c2ccc(Cl)cc2)cc(OC)c1OC (cis-trans isomerization)
COc1cc(C2=NOC(=O)/C2=C/c2ccc(Cl)cc2)cc(OC)c1OC (3D coordinates assigned)
COc1cc(C2=NOC(=O)/C2=C/c2ccc(Cl)cc2)cc(OC)c1OC (nonaromatic ring conformer: 85.15001185736467 kcal/mol)

>  <smiles>  (50) 
COc1cc(C2=NOC(=O)C2=Cc2ccc(Cl)cc2)cc(OC)c1OC

>  <score_type>  (50) 
oracle

>  <origin>  (50) 
adg

>  <m_score__min__energy>  (50) 
-7.5499999999999998

>  <m_primary>  (50) 
energy

$$$$
50:0
     RDKit          3D

 50 53  0  0  1  0  0  0  0  0999 V2000
   58.2090   32.6470   41.3270 C   0  0  0  0  0  0  0  0  0  0  0  0
   58.3100   32.3870   42.7030 O   0  0  0  0  0  0  0  0  0  0  0  0
   57.6440   31.3780   43.3660 C   0  0  0  0  0  0  0  0  0  0  0  0
   56.6260   30.7440   42.6950 C   0  0  0  0  0  0  0  0  0  0  0  0
   55.8960   29.7270   43.2680 C   0  0  0  0  0  0  0  0  0  0  0  0
   56.1990   29.3480   44.5340 C   0  0  0  0  0  0  0  0  0  0  0  0
   57.2020   29.9470   45.2450 C   0  0  0  0  0  0  0  0  0  0  0  0
   57.9890   31.0080   44.6910 C   0  0  0  0  0  0  0  0  0  0  0  0
   58.8120   31.6490   45.4250 N   0  0  0  0  0  0  0  0  0  0  0  0
   59.2850   32.7340   45.7940 C   0  0  0  0  0  0  0  0  0  0  0  0
   59.2260   33.7100   44.8550 N   0  0  0  0  0  0  0  0  0  0  0  0
   59.2050   35.0010   45.3240 C   0  0  0  0  0  0  0  0  0  0  0  0
   59.2430   35.2410   46.6690 N   0  0  0  0  0  0  0  0  0  0  0  0
   59.3130   34.2280   47.5730 C   0  0  0  0  0  0  0  0  0  0  0  0
   59.3730   34.5280   48.8560 N   0  0  0  0  0  0  0  0  0  0  0  0
   59.4890   33.4800   49.7170 C   0  0  0  0  0  0  0  0  0  0  0  0
   59.5210   33.8530   51.4410 S   0  0  0  0  0  0  0  0  0  0  0  0
   58.0380   33.1100   52.2140 C   0  0  0  0  0  0  0  0  0  0  0  0
   59.5520   32.2150   49.3370 N   0  0  0  0  0  0  0  0  0  0  0  0
   59.4920   31.8750   47.9920 C   0  0  0  0  0  0  0  0  0  0  0  0
   59.9930   30.5650   47.8500 N   0  0  0  0  0  0  0  0  0  0  0  0
   59.4170   29.5070   47.2650 O   0  0  0  0  0  0  0  0  0  0  0  0
   61.2280   30.2820   48.6220 C   0  0  0  0  0  0  0  0  0  0  0  0
   62.2080   31.3830   48.4660 C   0  0  0  0  0  0  0  0  0  0  0  0
   62.7730   32.0460   49.5510 C   0  0  0  0  0  0  0  0  0  0  0  0
   63.6860   33.0680   49.3910 C   0  0  0  0  0  0  0  0  0  0  0  0
   64.0590   33.4590   48.1140 C   0  0  0  0  0  0  0  0  0  0  0  0
   63.5140   32.8200   47.0060 C   0  0  0  0  0  0  0  0  0  0  0  0
   62.6130   31.8110   47.2200 C   0  0  0  0  0  0  0  0  0  0  0  0
   59.3500   32.8880   47.1380 C   0  0  0  0  0  0  0  0  0  0  0  0
   57.8146   33.6623   41.1737 H   0  0  0  0  0  0  0  0  0  0  0  0
   59.2038   32.5664   40.8646 H   0  0  0  0  0  0  0  0  0  0  0  0
   57.5295   31.9160   40.8646 H   0  0  0  0  0  0  0  0  0  0  0  0
   56.3870   31.0588   41.6684 H   0  0  0  0  0  0  0  0  0  0  0  0
   55.0857   29.2334   42.7115 H   0  0  0  0  0  0  0  0  0  0  0  0
   55.6224   28.5366   45.0020 H   0  0  0  0  0  0  0  0  0  0  0  0
   57.4099   29.6049   46.2696 H   0  0  0  0  0  0  0  0  0  0  0  0
   59.2030   33.5900   43.8530 H   0  0  0  0  0  0  0  0  0  0  0  0
   59.1576   35.8421   44.6167 H   0  0  0  0  0  0  0  0  0  0  0  0
   58.1325   33.1574   53.3089 H   0  0  0  0  0  0  0  0  0  0  0  0
   57.1427   33.6660   51.8989 H   0  0  0  0  0  0  0  0  0  0  0  0
   57.9473   32.0600   51.8989 H   0  0  0  0  0  0  0  0  0  0  0  0
   59.2020   29.6990   46.3300 H   0  0  0  0  0  0  0  0  0  0  0  0
   60.9718   30.1749   49.6864 H   0  0  0  0  0  0  0  0  0  0  0  0
   61.6772   29.3526   48.2419 H   0  0  0  0  0  0  0  0  0  0  0  0
   62.4826   31.7458   50.5686 H   0  0  0  0  0  0  0  0  0  0  0  0
   64.1153   33.5695   50.2709 H   0  0  0  0  0  0  0  0  0  0  0  0
   64.7853   34.2738   47.9777 H   0  0  0  0  0  0  0  0  0  0  0  0
   63.7986   33.1166   45.9857 H   0  0  0  0  0  0  0  0  0  0  0  0
   62.1845   31.3093   46.3398 H   0  0  0  0  0  0  0  0  0  0  0  0
  1  2  1  0
  2  3  1  0
  3  4  2  0
  4  5  1  0
  5  6  2  0
  6  7  1  0
  7  8  2  0
  8  9  1  0
  9 10  2  0
 10 11  1  0
 11 12  1  0
 12 13  2  0
 13 14  1  0
 14 15  2  0
 15 16  1  0
 16 17  1  0
 17 18  1  0
 16 19  2  0
 19 20  1  0
 20 21  1  0
 21 22  1  0
 21 23  1  0
 23 24  1  0
 24 25  2  0
 25 26  1  0
 26 27  2  0
 27 28  1  0
 28 29  2  0
 20 30  2  0
  8  3  1  0
 30 10  1  0
 30 14  1  0
 29 24  1  0
  1 31  1  0
  1 32  1  0
  1 33  1  0
  4 34  1  0
  5 35  1  0
  6 36  1  0
  7 37  1  0
 11 38  1  0
 12 39  1  0
 18 40  1  0
 18 41  1  0
 18 42  1  0
 22 43  1  0
 23 44  1  0
 23 45  1  0
 25 46  1  0
 26 47  1  0
 27 48  1  0
 28 49  1  0
 29 50  1  0
M  END
>  <smiles>  (51) 
COc1ccccc1N=c1[nH]cnc2nc(SC)nc(N(O)Cc3ccccc3)c12

>  <score_type>  (51) 
oracle

>  <origin>  (51) 
adg

>  <m_score__min__energy>  (51) 
-7.4400000000000004

>  <m_primary>  (51) 
energy

$$$$
51:0
     RDKit          3D

 63 65  0  0  0  0  0  0  0  0999 V2000
   57.3570   29.8540   44.3240 C   0  0  0  0  0  0  0  0  0  0  0  0
   57.2090   29.4850   45.7280 N   0  0  0  0  0  0  0  0  0  0  0  0
   58.3230   29.1590   46.5790 C   0  0  0  0  0  0  0  0  0  0  0  0
   59.1870   30.1920   46.9720 C   0  0  0  0  0  0  0  0  0  0  0  0
   60.2620   29.9530   47.8320 C   0  0  0  0  0  0  0  0  0  0  0  0
   61.0540   31.0460   48.2150 O   0  0  0  0  0  0  0  0  0  0  0  0
   61.0820   32.3350   47.5900 C   0  0  0  0  0  0  0  0  0  0  0  0
   61.0890   33.4890   48.6390 C   0  0  1  0  0  0  0  0  0  0  0  0
   60.0160   34.5420   48.2000 C   0  0  0  0  0  0  0  0  0  0  0  0
   59.2980   34.1870   46.9160 C   0  0  0  0  0  0  0  0  0  0  0  0
   58.1260   33.4100   46.9440 C   0  0  0  0  0  0  0  0  0  0  0  0
   57.4820   33.0590   45.7540 C   0  0  0  0  0  0  0  0  0  0  0  0
   58.0150   33.4580   44.5240 C   0  0  0  0  0  0  0  0  0  0  0  0
   57.3930   33.1110   43.3700 F   0  0  0  0  0  0  0  0  0  0  0  0
   59.1950   34.2020   44.4840 C   0  0  0  0  0  0  0  0  0  0  0  0
   59.8410   34.5580   45.6720 C   0  0  0  0  0  0  0  0  0  0  0  0
   60.9030   32.9840   50.0400 N   0  0  0  0  0  0  0  0  0  0  0  0
   61.9860   33.4570   50.9320 C   0  0  0  0  0  0  0  0  0  0  0  0
   59.6160   33.4020   50.6370 C   0  0  0  0  0  0  0  0  0  0  0  0
   60.5140   28.6410   48.2640 C   0  0  0  0  0  0  0  0  0  0  0  0
   59.6780   27.5970   47.8660 C   0  0  0  0  0  0  0  0  0  0  0  0
   59.9650   26.3340   48.2700 F   0  0  0  0  0  0  0  0  0  0  0  0
   58.5770   27.8400   47.0290 C   0  0  0  0  0  0  0  0  0  0  0  0
   57.7750   26.7340   46.5890 N   0  0  0  0  0  0  0  0  0  0  0  0
   57.4830   26.6140   45.1550 C   0  0  0  0  0  0  0  0  0  0  0  0
   56.6880   25.3430   44.8620 C   0  0  0  0  0  0  0  0  0  0  0  0
   55.6660   25.1700   45.9040 N   0  0  0  0  0  0  0  0  0  0  0  0
   54.6950   24.1390   45.5100 C   0  0  0  0  0  0  0  0  0  0  0  0
   56.2750   24.8320   47.2100 C   0  0  0  0  0  0  0  0  0  0  0  0
   57.6000   25.5820   47.4820 C   0  0  0  0  0  0  0  0  0  0  0  0
   57.7656   30.8729   44.2538 H   0  0  0  0  0  0  0  0  0  0  0  0
   58.0421   29.1493   43.8299 H   0  0  0  0  0  0  0  0  0  0  0  0
   56.3749   29.8180   43.8299 H   0  0  0  0  0  0  0  0  0  0  0  0
   56.2540   29.1910   46.0370 H   0  0  0  0  0  0  0  0  0  0  0  0
   59.0146   31.2110   46.5954 H   0  0  0  0  0  0  0  0  0  0  0  0
   61.9885   32.4109   46.9715 H   0  0  0  0  0  0  0  0  0  0  0  0
   60.1744   32.4367   46.9768 H   0  0  0  0  0  0  0  0  0  0  0  0
   62.0739   33.9782   48.6625 H   0  0  0  0  0  0  0  0  0  0  0  0
   59.2683   34.6297   49.0021 H   0  0  0  0  0  0  0  0  0  0  0  0
   60.5509   35.4855   48.0164 H   0  0  0  0  0  0  0  0  0  0  0  0
   57.7138   33.0766   47.9078 H   0  0  0  0  0  0  0  0  0  0  0  0
   56.5547   32.4681   45.7850 H   0  0  0  0  0  0  0  0  0  0  0  0
   59.6178   34.5090   43.5160 H   0  0  0  0  0  0  0  0  0  0  0  0
   60.7790   35.1313   45.6338 H   0  0  0  0  0  0  0  0  0  0  0  0
   60.9130   31.9390   50.0410 H   0  0  0  0  0  0  0  0  0  0  0  0
   61.6816   33.3241   51.9807 H   0  0  0  0  0  0  0  0  0  0  0  0
   62.9000   32.8761   50.7390 H   0  0  0  0  0  0  0  0  0  0  0  0
   62.1810   34.5222   50.7390 H   0  0  0  0  0  0  0  0  0  0  0  0
   59.6951   33.3763   51.7339 H   0  0  0  0  0  0  0  0  0  0  0  0
   59.3753   34.4245   50.3106 H   0  0  0  0  0  0  0  0  0  0  0  0
   58.8204   32.7161   50.3106 H   0  0  0  0  0  0  0  0  0  0  0  0
   61.3737   28.4353   48.9187 H   0  0  0  0  0  0  0  0  0  0  0  0
   56.8965   27.4872   44.8332 H   0  0  0  0  0  0  0  0  0  0  0  0
   58.4353   26.5656   44.6066 H   0  0  0  0  0  0  0  0  0  0  0  0
   56.2021   25.4298   43.8790 H   0  0  0  0  0  0  0  0  0  0  0  0
   57.3631   24.4746   44.8542 H   0  0  0  0  0  0  0  0  0  0  0  0
   54.2622   23.6795   46.4109 H   0  0  0  0  0  0  0  0  0  0  0  0
   53.8943   24.5988   44.9122 H   0  0  0  0  0  0  0  0  0  0  0  0
   55.2019   23.3672   44.9122 H   0  0  0  0  0  0  0  0  0  0  0  0
   55.5595   25.0884   48.0052 H   0  0  0  0  0  0  0  0  0  0  0  0
   56.5080   23.7571   47.1913 H   0  0  0  0  0  0  0  0  0  0  0  0
   57.5995   25.9370   48.5232 H   0  0  0  0  0  0  0  0  0  0  0  0
   58.4291   24.8825   47.2996 H   0  0  0  0  0  0  0  0  0  0  0  0
  1  2  1  0
  2  3  1  0
  3  4  2  0
  4  5  1  0
  5  6  1  0
  6  7  1  0
  7  8  1  0
  8  9  1  0
  9 10  1  0
 10 11  2  0
 11 12  1  0
 12 13  2  0
 13 14  1  0
 13 15  1  0
 15 16  2  0
  8 17  1  0
 17 18  1  0
 17 19  1  0
  5 20  2  0
 20 21  1  0
 21 22  1  0
 21 23  2  0
 23 24  1  0
 24 25  1  0
 25 26  1  0
 26 27  1  0
 27 28  1  0
 27 29  1  0
 29 30  1  0
 23  3  1  0
 30 24  1  0
 16 10  1  0
  1 31  1  0
  1 32  1  0
  1 33  1  0
  2 34  1  0
  4 35  1  0
  7 36  1  0
  7 37  1  0
  8 38  1  1
  9 39  1  0
  9 40  1  0
 11 41  1  0
 12 42  1  0
 15 43  1  0
 16 44  1  0
 17 45  1  0
 18 46  1  0
 18 47  1  0
 18 48  1  0
 19 49  1  0
 19 50  1  0
 19 51  1  0
 20 52  1  0
 25 53  1  0
 25 54  1  0
 26 55  1  0
 26 56  1  0
 28 57  1  0
 28 58  1  0
 28 59  1  0
 29 60  1  0
 29 61  1  0
 30 62  1  0
 30 63  1  0
M  CHG  1  17   1
M  END
>  <UniqueID>  (52) 
40

>  <SMILES>  (52) 
CNc1cc(OC[C@@H](Cc2ccc(F)cc2)[NH+](C)C)cc(F)c1N1CCN(C)CC1

>  <Energy>  (52) 
85.69167790168711

>  <Genealogy>  (52) 
CNc1cc(OCC(Cc2ccc(F)cc2)[NH+](C)C)cc(F)c1N1CCN(C)CC1 (protonated)
CNc1cc(OC[C@@H](Cc2ccc(F)cc2)[NH+](C)C)cc(F)c1N1CCN(C)CC1 (chirality)
CNc1cc(OC[C@@H](Cc2ccc(F)cc2)[NH+](C)C)cc(F)c1N1CCN(C)CC1 (3D coordinates assigned)
CNc1cc(OC[C@@H](Cc2ccc(F)cc2)[NH+](C)C)cc(F)c1N1CCN(C)CC1 (nonaromatic ring conformer: 85.69167790168711 kcal/mol)

>  <smiles>  (52) 
CNc1cc(OCC(Cc2ccc(F)cc2)N(C)C)cc(F)c1N1CCN(C)CC1

>  <score_type>  (52) 
oracle

>  <origin>  (52) 
adg

>  <m_score__min__energy>  (52) 
-5.8499999999999996

>  <m_primary>  (52) 
energy

$$$$
52:0
     RDKit          3D

 68 72  0  0  0  0  0  0  0  0999 V2000
   56.2830   30.0440   43.5150 C   0  0  0  0  0  0  0  0  0  0  0  0
   56.5680   30.2830   44.8890 O   0  0  0  0  0  0  0  0  0  0  0  0
   57.6990   30.9680   45.3550 C   0  0  0  0  0  0  0  0  0  0  0  0
   58.8890   30.3030   45.7140 C   0  0  0  0  0  0  0  0  0  0  0  0
   59.9890   31.0280   46.1830 C   0  0  0  0  0  0  0  0  0  0  0  0
   59.9020   32.4190   46.3230 C   0  0  0  0  0  0  0  0  0  0  0  0
   58.7220   33.0840   45.9750 C   0  0  0  0  0  0  0  0  0  0  0  0
   57.6320   32.3620   45.4730 C   0  0  0  0  0  0  0  0  0  0  0  0
   58.6820   34.5720   46.1460 C   0  0  0  0  0  0  0  0  0  0  0  0
   59.3200   34.9460   47.4940 C   0  0  0  0  0  0  0  0  0  0  0  0
   60.6540   34.3190   47.7220 N   0  0  0  0  0  0  0  0  0  0  0  0
   60.9420   34.0230   49.1450 C   0  0  0  0  0  0  0  0  0  0  0  0
   59.9160   33.1170   49.7980 C   0  0  0  0  0  0  0  0  0  0  0  0
   59.6770   31.8290   49.2880 C   0  0  0  0  0  0  0  0  0  0  0  0
   58.7450   30.9850   49.8970 C   0  0  0  0  0  0  0  0  0  0  0  0
   58.0280   31.4140   51.0240 C   0  0  0  0  0  0  0  0  0  0  0  0
   57.0850   30.4620   51.7350 C   0  0  1  0  0  0  0  0  0  0  0  0
   57.6070   30.1360   53.1500 C   0  0  0  0  0  0  0  0  0  0  0  0
   58.4910   28.9140   53.1460 C   0  0  0  0  0  0  0  0  0  0  0  0
   58.1330   27.7760   53.8880 C   0  0  0  0  0  0  0  0  0  0  0  0
   58.9820   26.6670   53.9310 C   0  0  0  0  0  0  0  0  0  0  0  0
   60.1930   26.6840   53.2340 C   0  0  0  0  0  0  0  0  0  0  0  0
   60.5600   27.8140   52.4990 C   0  0  0  0  0  0  0  0  0  0  0  0
   59.7160   28.9290   52.4600 C   0  0  0  0  0  0  0  0  0  0  0  0
   55.7400   31.0430   51.8070 N   0  0  0  0  0  0  0  0  0  0  0  0
   54.7310   30.5140   52.6850 C   0  0  0  0  0  0  0  0  0  0  0  0
   55.0580   29.6870   53.5810 O   0  0  0  0  0  0  0  0  0  0  0  0
   53.3150   30.9290   52.5590 C   0  0  0  0  0  0  0  0  0  0  0  0
   52.3870   30.6620   53.5830 C   0  0  0  0  0  0  0  0  0  0  0  0
   51.0540   31.0670   53.4540 C   0  0  0  0  0  0  0  0  0  0  0  0
   50.6360   31.7490   52.3100 C   0  0  0  0  0  0  0  0  0  0  0  0
   51.5510   32.0320   51.2920 C   0  0  0  0  0  0  0  0  0  0  0  0
   51.1350   32.7150   50.1560 O   0  0  0  0  0  0  0  0  0  0  0  0
   52.8840   31.6290   51.4160 C   0  0  0  0  0  0  0  0  0  0  0  0
   58.2520   32.7080   51.5240 C   0  0  0  0  0  0  0  0  0  0  0  0
   59.1690   33.5590   50.9030 C   0  0  0  0  0  0  0  0  0  0  0  0
   61.0700   33.2510   46.7790 C   0  0  0  0  0  0  0  0  0  0  0  0
   55.4425   29.3392   43.4321 H   0  0  0  0  0  0  0  0  0  0  0  0
   56.0160   30.9922   43.0256 H   0  0  0  0  0  0  0  0  0  0  0  0
   57.1702   29.6159   43.0256 H   0  0  0  0  0  0  0  0  0  0  0  0
   58.9526   29.2085   45.6248 H   0  0  0  0  0  0  0  0  0  0  0  0
   60.9221   30.5062   46.4418 H   0  0  0  0  0  0  0  0  0  0  0  0
   56.7177   32.8930   45.1695 H   0  0  0  0  0  0  0  0  0  0  0  0
   59.2418   35.0509   45.3291 H   0  0  0  0  0  0  0  0  0  0  0  0
   57.6379   34.9175   46.1241 H   0  0  0  0  0  0  0  0  0  0  0  0
   59.4395   36.0389   47.5300 H   0  0  0  0  0  0  0  0  0  0  0  0
   58.6500   34.5702   48.2813 H   0  0  0  0  0  0  0  0  0  0  0  0
   61.9257   33.5346   49.2061 H   0  0  0  0  0  0  0  0  0  0  0  0
   60.9154   34.9811   49.6848 H   0  0  0  0  0  0  0  0  0  0  0  0
   60.2287   31.4826   48.4016 H   0  0  0  0  0  0  0  0  0  0  0  0
   58.5723   29.9777   49.4903 H   0  0  0  0  0  0  0  0  0  0  0  0
   57.0354   29.5248   51.1612 H   0  0  0  0  0  0  0  0  0  0  0  0
   58.1850   30.9939   53.5240 H   0  0  0  0  0  0  0  0  0  0  0  0
   56.7419   29.9336   53.7985 H   0  0  0  0  0  0  0  0  0  0  0  0
   57.1802   27.7579   54.4375 H   0  0  0  0  0  0  0  0  0  0  0  0
   58.6966   25.7792   54.5144 H   0  0  0  0  0  0  0  0  0  0  0  0
   60.8573   25.8077   53.2640 H   0  0  0  0  0  0  0  0  0  0  0  0
   61.5134   27.8270   51.9505 H   0  0  0  0  0  0  0  0  0  0  0  0
   60.0133   29.8213   51.8895 H   0  0  0  0  0  0  0  0  0  0  0  0
   55.5150   31.8800   51.2240 H   0  0  0  0  0  0  0  0  0  0  0  0
   52.7118   30.1316   54.4903 H   0  0  0  0  0  0  0  0  0  0  0  0
   50.3337   30.8475   54.2559 H   0  0  0  0  0  0  0  0  0  0  0  0
   49.5867   32.0636   52.2097 H   0  0  0  0  0  0  0  0  0  0  0  0
   53.6012   31.8605   50.6148 H   0  0  0  0  0  0  0  0  0  0  0  0
   57.7010   33.0533   52.4112 H   0  0  0  0  0  0  0  0  0  0  0  0
   59.3074   34.5825   51.2816 H   0  0  0  0  0  0  0  0  0  0  0  0
   61.5401   33.7160   45.8999 H   0  0  0  0  0  0  0  0  0  0  0  0
   61.7759   32.5896   47.3028 H   0  0  0  0  0  0  0  0  0  0  0  0
  1  2  1  0
  2  3  1  0
  3  4  2  0
  4  5  1  0
  5  6  2  0
  6  7  1  0
  7  8  2  0
  7  9  1  0
  9 10  1  0
 10 11  1  0
 11 12  1  0
 12 13  1  0
 13 14  2  0
 14 15  1  0
 15 16  2  0
 16 17  1  0
 17 18  1  0
 18 19  1  0
 19 20  2  0
 20 21  1  0
 21 22  2  0
 22 23  1  0
 23 24  2  0
 17 25  1  0
 25 26  1  0
 26 27  2  0
 26 28  1  0
 28 29  2  0
 29 30  1  0
 30 31  2  0
 31 32  1  0
 32 33  1  0
 32 34  2  0
 16 35  1  0
 35 36  2  0
 11 37  1  0
  8  3  1  0
 36 13  1  0
 37  6  1  0
 24 19  1  0
 34 28  1  0
  1 38  1  0
  1 39  1  0
  1 40  1  0
  4 41  1  0
  5 42  1  0
  8 43  1  0
  9 44  1  0
  9 45  1  0
 10 46  1  0
 10 47  1  0
 12 48  1  0
 12 49  1  0
 14 50  1  0
 15 51  1  0
 17 52  1  6
 18 53  1  0
 18 54  1  0
 20 55  1  0
 21 56  1  0
 22 57  1  0
 23 58  1  0
 24 59  1  0
 25 60  1  0
 29 61  1  0
 30 62  1  0
 31 63  1  0
 34 64  1  0
 35 65  1  0
 36 66  1  0
 37 67  1  0
 37 68  1  0
M  CHG  1  33  -1
M  END
>  <UniqueID>  (53) 
41

>  <SMILES>  (53) 
COc1ccc2c(c1)CCN(Cc1ccc([C@@H](Cc3ccccc3)NC(=O)c3cccc([O-])c3)cc1)C2

>  <Energy>  (53) 
80.04918615881664

>  <Genealogy>  (53) 
COc1ccc2c(c1)CCN(Cc1ccc(C(Cc3ccccc3)NC(=O)c3cccc([O-])c3)cc1)C2 (protonated)
COc1ccc2c(c1)CCN(Cc1ccc([C@@H](Cc3ccccc3)NC(=O)c3cccc([O-])c3)cc1)C2 (chirality)
COc1ccc2c(c1)CCN(Cc1ccc([C@@H](Cc3ccccc3)NC(=O)c3cccc([O-])c3)cc1)C2 (3D coordinates assigned)
COc1ccc2c(c1)CCN(Cc1ccc([C@@H](Cc3ccccc3)NC(=O)c3cccc([O-])c3)cc1)C2 (nonaromatic ring conformer: 80.04918615881664 kcal/mol)

>  <smiles>  (53) 
COc1ccc2c(c1)CCN(Cc1ccc(C(Cc3ccccc3)NC(=O)c3cccc(O)c3)cc1)C2

>  <score_type>  (53) 
oracle

>  <origin>  (53) 
adg

>  <m_score__min__energy>  (53) 
-14.539999999999999

>  <m_primary>  (53) 
energy

$$$$
53:0
     RDKit          3D

 56 59  0  0  0  0  0  0  0  0999 V2000
   58.9300   34.2730   53.4610 C   0  0  0  0  0  0  0  0  0  0  0  0
   59.3540   33.1980   52.5500 N   0  0  0  0  0  0  0  0  0  0  0  0
   60.7500   33.4220   52.1360 C   0  0  0  0  0  0  0  0  0  0  0  0
   58.4590   33.1420   51.3760 C   0  0  0  0  0  0  0  0  0  0  0  0
   58.3540   31.7330   50.8520 C   0  0  0  0  0  0  0  0  0  0  0  0
   57.5240   30.7020   51.2870 C   0  0  0  0  0  0  0  0  0  0  0  0
   56.4730   30.7570   52.3160 C   0  0  0  0  0  0  0  0  0  0  0  0
   56.5970   31.5720   53.2690 O   0  0  0  0  0  0  0  0  0  0  0  0
   55.3580   29.8550   52.2820 N   0  0  0  0  0  0  0  0  0  0  0  0
   54.2810   29.9010   53.2660 C   0  0  0  0  0  0  0  0  0  0  0  0
   53.1520   30.7470   52.7480 C   0  0  0  0  0  0  0  0  0  0  0  0
   53.1530   31.1850   51.4160 C   0  0  0  0  0  0  0  0  0  0  0  0
   52.0810   31.9400   50.9380 C   0  0  0  0  0  0  0  0  0  0  0  0
   51.0360   32.2370   51.7580 N   0  0  0  0  0  0  0  0  0  0  0  0
   51.0030   31.8150   53.0510 C   0  0  0  0  0  0  0  0  0  0  0  0
   52.0570   31.0580   53.5690 C   0  0  0  0  0  0  0  0  0  0  0  0
   57.8200   29.5700   50.6180 N   0  0  0  0  0  0  0  0  0  0  0  0
   58.7910   29.8430   49.7620 N   0  0  0  0  0  0  0  0  0  0  0  0
   59.3920   28.8510   48.9140 C   0  0  0  0  0  0  0  0  0  0  0  0
   60.1630   27.8200   49.4790 C   0  0  0  0  0  0  0  0  0  0  0  0
   60.7460   26.8450   48.6650 C   0  0  0  0  0  0  0  0  0  0  0  0
   60.5620   26.8870   47.2830 C   0  0  0  0  0  0  0  0  0  0  0  0
   59.7950   27.9040   46.7090 C   0  0  0  0  0  0  0  0  0  0  0  0
   59.2070   28.8860   47.5160 C   0  0  0  0  0  0  0  0  0  0  0  0
   58.2940   30.1760   46.7440 Cl  0  0  0  0  0  0  0  0  0  0  0  0
   59.1530   31.1410   49.8830 C   0  0  0  0  0  0  0  0  0  0  0  0
   60.1700   31.8170   49.0520 C   0  0  0  0  0  0  0  0  0  0  0  0
   59.8240   32.9610   48.3150 C   0  0  0  0  0  0  0  0  0  0  0  0
   60.7810   33.6100   47.5300 C   0  0  0  0  0  0  0  0  0  0  0  0
   62.0890   33.1190   47.4710 C   0  0  0  0  0  0  0  0  0  0  0  0
   63.3960   34.0060   46.3980 Br  0  0  0  0  0  0  0  0  0  0  0  0
   62.4390   31.9760   48.1980 C   0  0  0  0  0  0  0  0  0  0  0  0
   61.4840   31.3260   48.9840 C   0  0  0  0  0  0  0  0  0  0  0  0
   59.0599   33.9436   54.5024 H   0  0  0  0  0  0  0  0  0  0  0  0
   59.5421   35.1690   53.2808 H   0  0  0  0  0  0  0  0  0  0  0  0
   57.8711   34.5100   53.2808 H   0  0  0  0  0  0  0  0  0  0  0  0
   61.3852   33.5239   53.0283 H   0  0  0  0  0  0  0  0  0  0  0  0
   61.0959   32.5679   51.5353 H   0  0  0  0  0  0  0  0  0  0  0  0
   60.8113   34.3415   51.5353 H   0  0  0  0  0  0  0  0  0  0  0  0
   57.4585   33.4941   51.6677 H   0  0  0  0  0  0  0  0  0  0  0  0
   58.8740   33.7833   50.5845 H   0  0  0  0  0  0  0  0  0  0  0  0
   55.4000   29.0250   51.6490 H   0  0  0  0  0  0  0  0  0  0  0  0
   53.9156   28.8808   53.4550 H   0  0  0  0  0  0  0  0  0  0  0  0
   54.6623   30.3380   54.2007 H   0  0  0  0  0  0  0  0  0  0  0  0
   53.9935   30.9351   50.7519 H   0  0  0  0  0  0  0  0  0  0  0  0
   52.0806   32.2956   49.8971 H   0  0  0  0  0  0  0  0  0  0  0  0
   50.1448   32.0703   53.6899 H   0  0  0  0  0  0  0  0  0  0  0  0
   52.0288   30.7087   54.6117 H   0  0  0  0  0  0  0  0  0  0  0  0
   60.3083   27.7805   50.5686 H   0  0  0  0  0  0  0  0  0  0  0  0
   61.3506   26.0436   49.1147 H   0  0  0  0  0  0  0  0  0  0  0  0
   61.0214   26.1184   46.6441 H   0  0  0  0  0  0  0  0  0  0  0  0
   59.6524   27.9335   45.6187 H   0  0  0  0  0  0  0  0  0  0  0  0
   58.7952   33.3481   48.3557 H   0  0  0  0  0  0  0  0  0  0  0  0
   60.5050   34.5081   46.9579 H   0  0  0  0  0  0  0  0  0  0  0  0
   63.4674   31.5885   48.1507 H   0  0  0  0  0  0  0  0  0  0  0  0
   61.7625   30.4260   49.5519 H   0  0  0  0  0  0  0  0  0  0  0  0
  1  2  1  0
  2  3  1  0
  2  4  1  0
  4  5  1  0
  5  6  1  0
  6  7  1  0
  7  8  2  0
  7  9  1  0
  9 10  1  0
 10 11  1  0
 11 12  2  0
 12 13  1  0
 13 14  2  0
 14 15  1  0
 15 16  2  0
  6 17  2  0
 17 18  1  0
 18 19  1  0
 19 20  2  0
 20 21  1  0
 21 22  2  0
 22 23  1  0
 23 24  2  0
 24 25  1  0
 18 26  1  0
 26 27  1  0
 27 28  2  0
 28 29  1  0
 29 30  2  0
 30 31  1  0
 30 32  1  0
 32 33  2  0
 26  5  2  0
 33 27  1  0
 16 11  1  0
 24 19  1  0
  1 34  1  0
  1 35  1  0
  1 36  1  0
  3 37  1  0
  3 38  1  0
  3 39  1  0
  4 40  1  0
  4 41  1  0
  9 42  1  0
 10 43  1  0
 10 44  1  0
 12 45  1  0
 13 46  1  0
 15 47  1  0
 16 48  1  0
 20 49  1  0
 21 50  1  0
 22 51  1  0
 23 52  1  0
 28 53  1  0
 29 54  1  0
 32 55  1  0
 33 56  1  0
M  END
>  <UniqueID>  (54) 
42

>  <SMILES>  (54) 
CN(C)Cc1c(C(=O)NCc2ccncc2)nn(-c2ccccc2Cl)c1-c1ccc(Br)cc1

>  <Energy>  (54) 
101.77029151435175

>  <Genealogy>  (54) 
CN(C)Cc1c(C(=O)NCc2ccncc2)nn(-c2ccccc2Cl)c1-c1ccc(Br)cc1 (3D coordinates assigned)
CN(C)Cc1c(C(=O)NCc2ccncc2)nn(-c2ccccc2Cl)c1-c1ccc(Br)cc1 (optimized conformer: 101.77029151435175 kcal/mol)

>  <smiles>  (54) 
CN(C)Cc1c(C(=O)NCc2ccncc2)nn(-c2ccccc2Cl)c1-c1ccc(Br)cc1

>  <score_type>  (54) 
oracle

>  <origin>  (54) 
adg

>  <m_score__min__energy>  (54) 
-9.3699999999999992

>  <m_primary>  (54) 
energy

$$$$
54:0
     RDKit          3D

 47 49  0  0  0  0  0  0  0  0999 V2000
   58.0740   22.0749   44.2706 H   0  0  0  0  0  0  0  0  0  0  0  0
   57.9120   22.8330   45.0510 C   0  0  0  0  0  0  0  0  0  0  0  0
   58.0670   24.1850   44.7450 C   0  0  0  0  0  0  0  0  0  0  0  0
   58.3508   24.4842   43.7252 H   0  0  0  0  0  0  0  0  0  0  0  0
   57.8640   25.1670   45.7270 C   0  0  0  0  0  0  0  0  0  0  0  0
   58.0320   26.6060   45.3990 C   0  0  0  0  0  0  0  0  0  0  0  0
   56.9160   27.4460   45.2600 C   0  0  0  0  0  0  0  0  0  0  0  0
   55.9029   27.0393   45.3952 H   0  0  0  0  0  0  0  0  0  0  0  0
   57.0890   28.7990   44.9500 C   0  0  0  0  0  0  0  0  0  0  0  0
   55.9980   29.6620   44.8040 C   0  0  0  0  0  0  0  0  0  0  0  0
   54.9740   29.2814   44.9327 H   0  0  0  0  0  0  0  0  0  0  0  0
   56.2040   30.9710   44.5030 N   0  0  0  0  0  0  0  0  0  0  0  0
   57.4520   31.4930   44.3440 C   0  0  0  0  0  0  0  0  0  0  0  0
   57.6270   32.7460   44.0320 N   0  0  0  0  0  0  0  0  0  0  0  0
   57.7970   33.8540   44.9290 C   0  0  0  0  0  0  0  0  0  0  0  0
   56.9700   34.8040   44.8730 O   0  0  0  0  0  0  0  0  0  0  0  0
   58.9720   33.9580   45.8780 C   0  0  0  0  0  0  0  0  0  0  0  0
   59.7157   33.1983   45.5956 H   0  0  0  0  0  0  0  0  0  0  0  0
   58.5220   33.6860   47.3180 C   0  0  0  0  0  0  0  0  0  0  0  0
   59.2481   34.1249   48.0181 H   0  0  0  0  0  0  0  0  0  0  0  0
   57.5329   34.1376   47.4846 H   0  0  0  0  0  0  0  0  0  0  0  0
   58.4621   32.6003   47.4846 H   0  0  0  0  0  0  0  0  0  0  0  0
   59.6290   35.3380   45.7720 C   0  0  0  0  0  0  0  0  0  0  0  0
   59.8171   35.7331   46.7812 H   0  0  0  0  0  0  0  0  0  0  0  0
   60.5817   35.2498   45.2293 H   0  0  0  0  0  0  0  0  0  0  0  0
   58.9599   36.0220   45.2293 H   0  0  0  0  0  0  0  0  0  0  0  0
   58.5710   30.6600   44.4720 C   0  0  0  0  0  0  0  0  0  0  0  0
   59.5831   31.0669   44.3299 H   0  0  0  0  0  0  0  0  0  0  0  0
   58.3930   29.3060   44.7820 C   0  0  0  0  0  0  0  0  0  0  0  0
   59.4680   28.4760   44.9200 N   0  0  0  0  0  0  0  0  0  0  0  0
   60.4360   28.8460   44.7920 H   0  0  0  0  0  0  0  0  0  0  0  0
   59.3130   27.1570   45.2220 C   0  0  0  0  0  0  0  0  0  0  0  0
   60.2003   26.5156   45.3286 H   0  0  0  0  0  0  0  0  0  0  0  0
   57.5010   24.7670   47.0240 C   0  0  0  0  0  0  0  0  0  0  0  0
   57.3382   25.5276   47.8018 H   0  0  0  0  0  0  0  0  0  0  0  0
   57.3430   23.4030   47.3400 C   0  0  0  0  0  0  0  0  0  0  0  0
   56.9800   22.9740   48.6280 O   0  0  0  0  0  0  0  0  0  0  0  0
   55.7850   22.2650   48.9370 C   0  0  0  0  0  0  0  0  0  0  0  0
   55.6708   22.1972   50.0290 H   0  0  0  0  0  0  0  0  0  0  0  0
   54.9221   22.7974   48.5104 H   0  0  0  0  0  0  0  0  0  0  0  0
   55.8387   21.2525   48.5104 H   0  0  0  0  0  0  0  0  0  0  0  0
   57.5500   22.4310   46.3500 C   0  0  0  0  0  0  0  0  0  0  0  0
   57.3850   21.0810   46.6950 O   0  0  0  0  0  0  0  0  0  0  0  0
   57.1100   20.0390   45.7640 C   0  0  0  0  0  0  0  0  0  0  0  0
   56.8662   19.1152   46.3091 H   0  0  0  0  0  0  0  0  0  0  0  0
   56.2573   20.3277   45.1319 H   0  0  0  0  0  0  0  0  0  0  0  0
   57.9941   19.8693   45.1319 H   0  0  0  0  0  0  0  0  0  0  0  0
  1  2  1  0
  2  3  2  0
  3  4  1  0
  3  5  1  0
  5  6  1  0
  6  7  2  0
  7  8  1  0
  7  9  1  0
  9 10  2  0
 10 11  1  0
 10 12  1  0
 12 13  1  0
 13 14  2  0
 14 15  1  0
 15 16  2  0
 15 17  1  0
 17 18  1  0
 17 19  1  0
 19 20  1  0
 19 21  1  0
 19 22  1  0
 17 23  1  0
 23 24  1  0
 23 25  1  0
 23 26  1  0
 13 27  1  0
 27 28  1  0
 27 29  2  0
 29 30  1  0
 30 31  1  0
 30 32  2  0
 32 33  1  0
  5 34  2  0
 34 35  1  0
 34 36  1  0
 36 37  1  0
 37 38  1  0
 38 39  1  0
 38 40  1  0
 38 41  1  0
 36 42  2  0
 42 43  1  0
 43 44  1  0
 44 45  1  0
 44 46  1  0
 44 47  1  0
 42  2  1  0
 32  6  1  0
 29  9  1  0
M  CHG  2  12  -1  30   1
M  END
>  <UniqueID>  (55) 
43

>  <SMILES>  (55) 
COc1ccc(-c2c[nH+]c3c/c(=N/C(=O)C(C)C)[n-]cc3c2)cc1OC

>  <Energy>  (55) 
58.183621228736705

>  <Genealogy>  (55) 
COc1ccc(-c2c[nH+]c3cc(=NC(=O)C(C)C)[n-]cc3c2)cc1OC (protonated)
COc1ccc(-c2c[nH+]c3c/c(=N/C(=O)C(C)C)[n-]cc3c2)cc1OC (cis-trans isomerization)
COc1ccc(-c2c[nH+]c3c/c(=N/C(=O)C(C)C)[n-]cc3c2)cc1OC (3D coordinates assigned)
COc1ccc(-c2c[nH+]c3c/c(=N/C(=O)C(C)C)[n-]cc3c2)cc1OC (optimized conformer: 58.183621228736705 kcal/mol)

>  <smiles>  (55) 
COc1ccc(-c2cnc3cc(=NC(=O)C(C)C)[nH]cc3c2)cc1OC

>  <score_type>  (55) 
oracle

>  <origin>  (55) 
adg

>  <m_score__min__energy>  (55) 
-7.1399999999999997

>  <m_primary>  (55) 
energy

$$$$
55:0
     RDKit          3D

 52 55  0  0  0  0  0  0  0  0999 V2000
   59.3000   22.1770   44.9230 C   0  0  0  0  0  0  0  0  0  0  0  0
   58.9760   23.0180   46.0250 O   0  0  0  0  0  0  0  0  0  0  0  0
   58.2280   24.2010   45.9230 C   0  0  0  0  0  0  0  0  0  0  0  0
   56.9700   24.2570   46.5710 C   0  0  0  0  0  0  0  0  0  0  0  0
   56.1760   25.4150   46.5100 C   0  0  0  0  0  0  0  0  0  0  0  0
   56.6660   26.5030   45.7930 C   0  0  0  0  0  0  0  0  0  0  0  0
   56.0760   27.6970   45.6160 N   0  0  0  0  0  0  0  0  0  0  0  0
   56.9420   28.4220   44.8710 C   0  0  0  0  0  0  0  0  0  0  0  0
   56.6520   29.7700   44.3730 C   0  0  0  0  0  0  0  0  0  0  0  0
   56.2820   29.9000   43.1760 O   0  0  0  0  0  0  0  0  0  0  0  0
   56.7440   30.9410   45.1980 N   0  0  0  0  0  0  0  0  0  0  0  0
   57.9350   31.6860   45.6210 C   0  0  1  0  0  0  0  0  0  0  0  0
   57.7920   33.2120   45.4160 C   0  0  0  0  0  0  0  0  0  0  0  0
   57.9040   33.9970   46.7360 C   0  0  0  0  0  0  0  0  0  0  0  0
   59.1400   33.6770   47.5030 N   0  0  2  0  0  0  0  0  0  0  0  0
   60.2700   34.5300   47.0570 C   0  0  0  0  0  0  0  0  0  0  0  0
   61.5980   34.0320   47.5830 C   0  0  0  0  0  0  0  0  0  0  0  0
   61.8760   34.0840   48.9580 C   0  0  0  0  0  0  0  0  0  0  0  0
   63.0990   33.6170   49.4480 C   0  0  0  0  0  0  0  0  0  0  0  0
   64.0500   33.0900   48.5710 C   0  0  0  0  0  0  0  0  0  0  0  0
   63.7790   33.0290   47.2010 C   0  0  0  0  0  0  0  0  0  0  0  0
   62.5590   33.4990   46.7070 C   0  0  0  0  0  0  0  0  0  0  0  0
   59.5080   32.2280   47.4890 C   0  0  0  0  0  0  0  0  0  0  0  0
   58.3600   31.3120   47.0490 C   0  0  0  0  0  0  0  0  0  0  0  0
   58.0710   27.6750   44.5410 C   0  0  0  0  0  0  0  0  0  0  0  0
   57.8800   26.4580   45.1580 C   0  0  0  0  0  0  0  0  0  0  0  0
   58.6910   25.3270   45.1970 C   0  0  0  0  0  0  0  0  0  0  0  0
   59.6721   21.2113   45.2957 H   0  0  0  0  0  0  0  0  0  0  0  0
   58.4010   22.0121   44.3109 H   0  0  0  0  0  0  0  0  0  0  0  0
   60.0772   22.6578   44.3109 H   0  0  0  0  0  0  0  0  0  0  0  0
   56.6090   23.3813   47.1303 H   0  0  0  0  0  0  0  0  0  0  0  0
   55.1986   25.4602   47.0127 H   0  0  0  0  0  0  0  0  0  0  0  0
   55.1390   27.9970   45.9690 H   0  0  0  0  0  0  0  0  0  0  0  0
   58.7554   31.3781   44.9560 H   0  0  0  0  0  0  0  0  0  0  0  0
   56.8095   33.4170   44.9659 H   0  0  0  0  0  0  0  0  0  0  0  0
   58.6129   33.5398   44.7613 H   0  0  0  0  0  0  0  0  0  0  0  0
   57.0317   33.7564   47.3615 H   0  0  0  0  0  0  0  0  0  0  0  0
   57.9447   35.0659   46.4795 H   0  0  0  0  0  0  0  0  0  0  0  0
   58.9320   33.9370   48.4990 H   0  0  0  0  0  0  0  0  0  0  0  0
   60.3015   34.5313   45.9575 H   0  0  0  0  0  0  0  0  0  0  0  0
   60.1068   35.5437   47.4517 H   0  0  0  0  0  0  0  0  0  0  0  0
   61.1282   34.4940   49.6528 H   0  0  0  0  0  0  0  0  0  0  0  0
   63.3129   33.6646   50.5260 H   0  0  0  0  0  0  0  0  0  0  0  0
   65.0119   32.7231   48.9584 H   0  0  0  0  0  0  0  0  0  0  0  0
   64.5267   32.6107   46.5111 H   0  0  0  0  0  0  0  0  0  0  0  0
   62.3501   33.4515   45.6281 H   0  0  0  0  0  0  0  0  0  0  0  0
   59.8168   31.9369   48.5038 H   0  0  0  0  0  0  0  0  0  0  0  0
   60.3194   32.1063   46.7563 H   0  0  0  0  0  0  0  0  0  0  0  0
   57.5067   31.4376   47.7317 H   0  0  0  0  0  0  0  0  0  0  0  0
   58.6932   30.2640   47.0731 H   0  0  0  0  0  0  0  0  0  0  0  0
   58.9262   27.9879   43.9240 H   0  0  0  0  0  0  0  0  0  0  0  0
   59.6618   25.3078   44.6800 H   0  0  0  0  0  0  0  0  0  0  0  0
  1  2  1  0
  2  3  1  0
  3  4  2  0
  4  5  1  0
  5  6  2  0
  6  7  1  0
  7  8  1  0
  8  9  1  0
  9 10  2  0
  9 11  1  0
 11 12  1  0
 12 13  1  0
 13 14  1  0
 14 15  1  0
 15 16  1  0
 16 17  1  0
 17 18  2  0
 18 19  1  0
 19 20  2  0
 20 21  1  0
 21 22  2  0
 15 23  1  0
 23 24  1  0
  8 25  2  0
 25 26  1  0
 26 27  2  0
 27  3  1  0
 26  6  1  0
 24 12  1  0
 22 17  1  0
  1 28  1  0
  1 29  1  0
  1 30  1  0
  4 31  1  0
  5 32  1  0
  7 33  1  0
 12 34  1  6
 13 35  1  0
 13 36  1  0
 14 37  1  0
 14 38  1  0
 15 39  1  1
 16 40  1  0
 16 41  1  0
 18 42  1  0
 19 43  1  0
 20 44  1  0
 21 45  1  0
 22 46  1  0
 23 47  1  0
 23 48  1  0
 24 49  1  0
 24 50  1  0
 25 51  1  0
 27 52  1  0
M  CHG  2  11  -1  15   1
M  END
>  <UniqueID>  (56) 
44

>  <SMILES>  (56) 
COc1ccc2[nH]c(C(=O)[N-]C3CC[NH+](Cc4ccccc4)CC3)cc2c1

>  <Energy>  (56) 
104.35510663610359

>  <Genealogy>  (56) 
COc1ccc2[nH]c(C(=O)[N-]C3CC[NH+](Cc4ccccc4)CC3)cc2c1 (protonated)
COc1ccc2[nH]c(C(=O)[N-]C3CC[NH+](Cc4ccccc4)CC3)cc2c1 (3D coordinates assigned)
COc1ccc2[nH]c(C(=O)[N-]C3CC[NH+](Cc4ccccc4)CC3)cc2c1 (nonaromatic ring conformer: 104.35510663610359 kcal/mol)

>  <smiles>  (56) 
COc1ccc2[nH]c(C(=O)NC3CCN(Cc4ccccc4)CC3)cc2c1

>  <score_type>  (56) 
oracle

>  <origin>  (56) 
adg

>  <m_score__min__energy>  (56) 
-9.0800000000000001

>  <m_primary>  (56) 
energy

$$$$
56:0
     RDKit          3D

 54 57  0  0  0  0  0  0  0  0999 V2000
   63.1810   33.5070   47.0300 C   0  0  0  0  0  0  0  0  0  0  0  0
   61.7250   33.5460   47.2270 N   0  0  0  0  0  0  0  0  0  0  0  0
   61.3900   34.1700   48.5170 C   0  0  0  0  0  0  0  0  0  0  0  0
   59.8650   34.3800   48.6310 C   0  0  0  0  0  0  0  0  0  0  0  0
   59.0810   33.4520   47.7780 N   0  0  0  0  0  0  0  0  0  0  0  0
   58.8110   34.0090   46.4320 C   0  0  0  0  0  0  0  0  0  0  0  0
   57.4170   33.5890   45.9540 C   0  0  0  0  0  0  0  0  0  0  0  0
   57.4420   32.8860   44.5890 C   0  0  0  0  0  0  0  0  0  0  0  0
   58.4150   31.8390   44.5570 O   0  0  0  0  0  0  0  0  0  0  0  0
   58.1840   30.4810   44.8340 C   0  0  0  0  0  0  0  0  0  0  0  0
   56.8800   29.9950   44.6960 C   0  0  0  0  0  0  0  0  0  0  0  0
   56.5940   28.6450   44.9150 C   0  0  0  0  0  0  0  0  0  0  0  0
   57.6170   27.7530   45.2820 C   0  0  0  0  0  0  0  0  0  0  0  0
   57.3150   26.3170   45.4990 C   0  0  0  0  0  0  0  0  0  0  0  0
   58.2970   25.3480   45.2500 C   0  0  0  0  0  0  0  0  0  0  0  0
   58.0070   23.9960   45.4480 C   0  0  0  0  0  0  0  0  0  0  0  0
   58.9580   22.9960   45.2020 C   0  0  0  0  0  0  0  0  0  0  0  0
   58.6280   21.6530   45.4100 C   0  0  0  0  0  0  0  0  0  0  0  0
   57.3510   21.3050   45.8600 C   0  0  0  0  0  0  0  0  0  0  0  0
   56.3970   22.2970   46.1070 C   0  0  0  0  0  0  0  0  0  0  0  0
   56.7180   23.6430   45.9020 C   0  0  0  0  0  0  0  0  0  0  0  0
   55.8100   24.5850   46.1380 O   0  0  0  0  0  0  0  0  0  0  0  0
   56.0540   25.8820   45.9610 C   0  0  0  0  0  0  0  0  0  0  0  0
   55.1480   26.7140   46.2320 O   0  0  0  0  0  0  0  0  0  0  0  0
   58.9200   28.2460   45.4540 C   0  0  0  0  0  0  0  0  0  0  0  0
   59.2040   29.5970   45.2380 C   0  0  0  0  0  0  0  0  0  0  0  0
   59.7190   32.1210   47.7130 C   0  0  0  0  0  0  0  0  0  0  0  0
   61.1530   32.1860   47.1380 C   0  0  0  0  0  0  0  0  0  0  0  0
   63.6832   33.4935   48.0086 H   0  0  0  0  0  0  0  0  0  0  0  0
   63.4507   32.6013   46.4670 H   0  0  0  0  0  0  0  0  0  0  0  0
   63.4988   34.3970   46.4670 H   0  0  0  0  0  0  0  0  0  0  0  0
   61.7284   33.5167   49.3348 H   0  0  0  0  0  0  0  0  0  0  0  0
   61.8914   35.1469   48.5827 H   0  0  0  0  0  0  0  0  0  0  0  0
   59.5684   34.2263   49.6790 H   0  0  0  0  0  0  0  0  0  0  0  0
   59.6493   35.4019   48.2859 H   0  0  0  0  0  0  0  0  0  0  0  0
   58.8643   35.1068   46.4759 H   0  0  0  0  0  0  0  0  0  0  0  0
   59.5627   33.6238   45.7273 H   0  0  0  0  0  0  0  0  0  0  0  0
   56.9837   32.9015   46.6954 H   0  0  0  0  0  0  0  0  0  0  0  0
   56.8154   34.5034   45.8443 H   0  0  0  0  0  0  0  0  0  0  0  0
   56.4488   32.4573   44.3894 H   0  0  0  0  0  0  0  0  0  0  0  0
   57.7088   33.6289   43.8229 H   0  0  0  0  0  0  0  0  0  0  0  0
   56.0703   30.6833   44.4118 H   0  0  0  0  0  0  0  0  0  0  0  0
   55.5634   28.2782   44.7997 H   0  0  0  0  0  0  0  0  0  0  0  0
   59.2943   25.6519   44.8993 H   0  0  0  0  0  0  0  0  0  0  0  0
   59.9627   23.2673   44.8457 H   0  0  0  0  0  0  0  0  0  0  0  0
   59.3751   20.8685   45.2190 H   0  0  0  0  0  0  0  0  0  0  0  0
   57.0958   20.2471   46.0203 H   0  0  0  0  0  0  0  0  0  0  0  0
   55.3939   22.0189   46.4626 H   0  0  0  0  0  0  0  0  0  0  0  0
   59.7250   27.5624   45.7617 H   0  0  0  0  0  0  0  0  0  0  0  0
   60.2278   29.9718   45.3839 H   0  0  0  0  0  0  0  0  0  0  0  0
   59.7635   31.6999   48.7282 H   0  0  0  0  0  0  0  0  0  0  0  0
   59.1157   31.4906   47.0432 H   0  0  0  0  0  0  0  0  0  0  0  0
   61.7939   31.4936   47.7035 H   0  0  0  0  0  0  0  0  0  0  0  0
   61.1055   31.9067   46.0751 H   0  0  0  0  0  0  0  0  0  0  0  0
  1  2  1  0
  2  3  1  0
  3  4  1  0
  4  5  1  0
  5  6  1  0
  6  7  1  0
  7  8  1  0
  8  9  1  0
  9 10  1  0
 10 11  2  0
 11 12  1  0
 12 13  2  0
 13 14  1  0
 14 15  2  0
 15 16  1  0
 16 17  2  0
 17 18  1  0
 18 19  2  0
 19 20  1  0
 20 21  2  0
 21 22  1  0
 22 23  1  0
 23 24  2  0
 13 25  1  0
 25 26  2  0
  5 27  1  0
 27 28  1  0
 28  2  1  0
 26 10  1  0
 23 14  1  0
 21 16  1  0
  1 29  1  0
  1 30  1  0
  1 31  1  0
  3 32  1  0
  3 33  1  0
  4 34  1  0
  4 35  1  0
  6 36  1  0
  6 37  1  0
  7 38  1  0
  7 39  1  0
  8 40  1  0
  8 41  1  0
 11 42  1  0
 12 43  1  0
 15 44  1  0
 17 45  1  0
 18 46  1  0
 19 47  1  0
 20 48  1  0
 25 49  1  0
 26 50  1  0
 27 51  1  0
 27 52  1  0
 28 53  1  0
 28 54  1  0
M  END
>  <UniqueID>  (57) 
45

>  <SMILES>  (57) 
CN1CCN(CCCOc2ccc(-c3cc4ccccc4oc3=O)cc2)CC1

>  <Energy>  (57) 
76.1101412766576

>  <Genealogy>  (57) 
CN1CCN(CCCOc2ccc(-c3cc4ccccc4oc3=O)cc2)CC1 (3D coordinates assigned)
CN1CCN(CCCOc2ccc(-c3cc4ccccc4oc3=O)cc2)CC1 (nonaromatic ring conformer: 76.1101412766576 kcal/mol)

>  <smiles>  (57) 
CN1CCN(CCCOc2ccc(-c3cc4ccccc4oc3=O)cc2)CC1

>  <score_type>  (57) 
oracle

>  <origin>  (57) 
adg

>  <m_score__min__energy>  (57) 
-8.1099999999999994

>  <m_primary>  (57) 
energy

$$$$
57:0
     RDKit          3D

 49 51  0  0  0  0  0  0  0  0999 V2000
   59.0589   33.5978   44.1617 H   0  0  0  0  0  0  0  0  0  0  0  0
   59.0450   33.1820   45.1800 C   0  0  0  0  0  0  0  0  0  0  0  0
   58.3450   31.9050   45.4170 C   0  0  0  0  0  0  0  0  0  0  0  0
   57.0880   31.8430   45.3240 O   0  0  0  0  0  0  0  0  0  0  0  0
   59.1020   30.7440   45.7910 N   0  0  0  0  0  0  0  0  0  0  0  0
   60.0790   30.8880   46.1340 H   0  0  0  0  0  0  0  0  0  0  0  0
   58.5630   29.4110   45.8350 C   0  0  0  0  0  0  0  0  0  0  0  0
   58.0490   28.7880   44.6850 C   0  0  0  0  0  0  0  0  0  0  0  0
   58.0393   29.3295   43.7276 H   0  0  0  0  0  0  0  0  0  0  0  0
   57.5500   27.4840   44.7510 C   0  0  0  0  0  0  0  0  0  0  0  0
   57.1448   27.0070   43.8464 H   0  0  0  0  0  0  0  0  0  0  0  0
   57.5630   26.7810   45.9630 C   0  0  0  0  0  0  0  0  0  0  0  0
   56.9100   25.1430   46.0510 S   0  0  0  0  0  0  0  0  0  0  0  0
   57.3470   24.5040   47.3400 O   0  0  0  0  0  0  0  0  0  0  0  0
   55.4080   25.2070   46.0490 O   0  0  0  0  0  0  0  0  0  0  0  0
   57.4520   24.1620   44.7080 N   0  0  0  0  0  0  0  0  0  0  0  0
   56.6780   24.4420   43.4790 C   0  0  0  0  0  0  0  0  0  0  0  0
   56.1300   25.3864   43.6121 H   0  0  0  0  0  0  0  0  0  0  0  0
   57.3858   24.5071   42.6395 H   0  0  0  0  0  0  0  0  0  0  0  0
   55.6690   23.3220   43.1640 C   0  0  0  0  0  0  0  0  0  0  0  0
   54.9459   23.2606   43.9906 H   0  0  0  0  0  0  0  0  0  0  0  0
   55.1857   23.5772   42.2094 H   0  0  0  0  0  0  0  0  0  0  0  0
   56.2780   22.0470   43.0010 O   0  0  0  0  0  0  0  0  0  0  0  0
   57.4200   21.8470   43.8250 C   0  0  0  0  0  0  0  0  0  0  0  0
   57.4348   20.7948   44.1453 H   0  0  0  0  0  0  0  0  0  0  0  0
   58.2982   22.1200   43.2214 H   0  0  0  0  0  0  0  0  0  0  0  0
   57.4520   22.7340   45.0800 C   0  0  0  0  0  0  0  0  0  0  0  0
   56.5657   22.5210   45.6957 H   0  0  0  0  0  0  0  0  0  0  0  0
   58.3700   22.5152   45.6451 H   0  0  0  0  0  0  0  0  0  0  0  0
   58.1050   27.3890   47.1040 C   0  0  0  0  0  0  0  0  0  0  0  0
   58.1358   26.8377   48.0554 H   0  0  0  0  0  0  0  0  0  0  0  0
   58.6060   28.6910   47.0390 C   0  0  0  0  0  0  0  0  0  0  0  0
   59.0374   29.1556   47.9379 H   0  0  0  0  0  0  0  0  0  0  0  0
   59.6630   33.8520   46.1580 C   0  0  0  0  0  0  0  0  0  0  0  0
   59.5814   34.9488   46.1775 H   0  0  0  0  0  0  0  0  0  0  0  0
   60.4510   33.1830   47.2140 C   0  0  0  0  0  0  0  0  0  0  0  0
   59.9390   32.5630   48.3450 C   0  0  0  0  0  0  0  0  0  0  0  0
   58.4960   32.4300   48.7070 C   0  0  0  0  0  0  0  0  0  0  0  0
   58.3921   32.4204   49.8020 H   0  0  0  0  0  0  0  0  0  0  0  0
   57.9342   33.2802   48.2928 H   0  0  0  0  0  0  0  0  0  0  0  0
   58.0991   31.4915   48.2928 H   0  0  0  0  0  0  0  0  0  0  0  0
   60.9470   32.1310   49.1270 N   0  0  0  0  0  0  0  0  0  0  0  0
   62.0830   32.4450   48.5230 N   0  0  0  0  0  0  0  0  0  0  0  0
   63.3970   32.2060   49.1070 C   0  0  0  0  0  0  0  0  0  0  0  0
   63.3187   32.2202   50.2041 H   0  0  0  0  0  0  0  0  0  0  0  0
   63.7712   31.2251   48.7788 H   0  0  0  0  0  0  0  0  0  0  0  0
   64.0927   32.9924   48.7788 H   0  0  0  0  0  0  0  0  0  0  0  0
   61.8280   33.0960   47.3700 C   0  0  0  0  0  0  0  0  0  0  0  0
   63.0660   33.8430   46.3670 Cl  0  0  0  0  0  0  0  0  0  0  0  0
  1  2  1  0
  2  3  1  0
  3  4  2  0
  3  5  1  0
  5  6  1  0
  5  7  1  0
  7  8  2  0
  8  9  1  0
  8 10  1  0
 10 11  1  0
 10 12  2  0
 12 13  1  0
 13 14  2  0
 13 15  2  0
 13 16  1  0
 16 17  1  0
 17 18  1  0
 17 19  1  0
 17 20  1  0
 20 21  1  0
 20 22  1  0
 20 23  1  0
 23 24  1  0
 24 25  1  0
 24 26  1  0
 24 27  1  0
 27 28  1  0
 27 29  1  0
 12 30  1  0
 30 31  1  0
 30 32  2  0
 32 33  1  0
  2 34  2  0
 34 35  1  0
 34 36  1  0
 36 37  1  0
 37 38  1  0
 38 39  1  0
 38 40  1  0
 38 41  1  0
 37 42  2  0
 42 43  1  0
 43 44  1  0
 44 45  1  0
 44 46  1  0
 44 47  1  0
 43 48  1  0
 48 49  1  0
 32  7  1  0
 48 36  2  0
 27 16  1  0
M  END
>  <UniqueID>  (58) 
46

>  <SMILES>  (58) 
Cc1nn(C)c(Cl)c1/C=C/C(=O)Nc1ccc(S(=O)(=O)N2CCOCC2)cc1

>  <Energy>  (58) 
95.44892628420959

>  <Genealogy>  (58) 
Cc1nn(C)c(Cl)c1/C=C/C(=O)Nc1ccc(S(=O)(=O)N2CCOCC2)cc1 (cis-trans isomerization)
Cc1nn(C)c(Cl)c1/C=C/C(=O)Nc1ccc(S(=O)(=O)N2CCOCC2)cc1 (3D coordinates assigned)
Cc1nn(C)c(Cl)c1/C=C/C(=O)Nc1ccc(S(=O)(=O)N2CCOCC2)cc1 (nonaromatic ring conformer: 95.44892628420959 kcal/mol)

>  <smiles>  (58) 
Cc1nn(C)c(Cl)c1C=CC(=O)Nc1ccc(S(=O)(=O)N2CCOCC2)cc1

>  <score_type>  (58) 
oracle

>  <origin>  (58) 
adg

>  <m_score__min__energy>  (58) 
-9.0299999999999994

>  <m_primary>  (58) 
energy

$$$$
58:0
     RDKit          3D

 60 64  0  0  0  0  0  0  0  0999 V2000
   55.0867   22.5940   42.3097 H   0  0  0  0  0  0  0  0  0  0  0  0
   55.6350   23.0410   43.1520 C   0  0  0  0  0  0  0  0  0  0  0  0
   55.0890   23.7270   44.1280 O   0  0  0  0  0  0  0  0  0  0  0  0
   56.0370   24.1070   44.9520 C   0  0  0  0  0  0  0  0  0  0  0  0
   55.7880   24.8720   46.1840 C   0  0  0  0  0  0  0  0  0  0  0  0
   55.8600   24.2840   47.2940 O   0  0  0  0  0  0  0  0  0  0  0  0
   55.5370   26.2830   46.1560 N   0  0  0  0  0  0  0  0  0  0  0  0
   56.3450   27.1760   45.6640 C   0  0  0  0  0  0  0  0  0  0  0  0
   55.9040   28.3610   45.1970 N   0  0  0  0  0  0  0  0  0  0  0  0
   56.9160   29.1070   44.6740 C   0  0  0  0  0  0  0  0  0  0  0  0
   56.6750   30.4320   44.0660 C   0  0  0  0  0  0  0  0  0  0  0  0
   56.6190   30.5370   42.8130 O   0  0  0  0  0  0  0  0  0  0  0  0
   56.5440   31.6150   44.8660 N   0  0  0  0  0  0  0  0  0  0  0  0
   57.6130   32.5130   45.2030 C   0  0  0  0  0  0  0  0  0  0  0  0
   58.1170   33.3770   44.2240 C   0  0  0  0  0  0  0  0  0  0  0  0
   57.6669   33.3905   43.2204 H   0  0  0  0  0  0  0  0  0  0  0  0
   59.1920   34.2240   44.5180 C   0  0  0  0  0  0  0  0  0  0  0  0
   59.5831   34.9024   43.7454 H   0  0  0  0  0  0  0  0  0  0  0  0
   59.7700   34.2100   45.7910 C   0  0  0  0  0  0  0  0  0  0  0  0
   60.6318   34.8575   46.0103 H   0  0  0  0  0  0  0  0  0  0  0  0
   59.2520   33.3710   46.7890 C   0  0  0  0  0  0  0  0  0  0  0  0
   59.8750   33.3020   48.1260 C   0  0  0  0  0  0  0  0  0  0  0  0
   59.2360   33.7590   49.1150 O   0  0  0  0  0  0  0  0  0  0  0  0
   61.1000   32.5540   48.3310 N   0  0  1  0  0  0  0  0  0  0  0  0
   60.9310   31.5630   48.0330 H   0  0  0  0  0  0  0  0  0  0  0  0
   62.2060   33.0730   47.4770 C   0  0  0  0  0  0  0  0  0  0  0  0
   62.2072   32.5206   46.5258 H   0  0  0  0  0  0  0  0  0  0  0  0
   62.0320   34.1474   47.3180 H   0  0  0  0  0  0  0  0  0  0  0  0
   63.5790   32.9140   48.1410 C   0  0  0  0  0  0  0  0  0  0  0  0
   63.7489   31.8537   48.3795 H   0  0  0  0  0  0  0  0  0  0  0  0
   64.3595   33.2680   47.4515 H   0  0  0  0  0  0  0  0  0  0  0  0
   63.6300   33.7450   49.4380 C   0  0  2  0  0  0  0  0  0  0  0  0
   63.7365   34.8012   49.1499 H   0  0  0  0  0  0  0  0  0  0  0  0
   64.8440   33.3740   50.2710 C   0  0  0  0  0  0  0  0  0  0  0  0
   65.8470   32.5280   49.7620 C   0  0  0  0  0  0  0  0  0  0  0  0
   65.7557   32.1268   48.7418 H   0  0  0  0  0  0  0  0  0  0  0  0
   66.9580   32.1930   50.5410 C   0  0  0  0  0  0  0  0  0  0  0  0
   67.7324   31.5253   50.1354 H   0  0  0  0  0  0  0  0  0  0  0  0
   67.0860   32.7060   51.8360 C   0  0  0  0  0  0  0  0  0  0  0  0
   68.2240   32.3490   52.6420 C   0  0  0  0  0  0  0  0  0  0  0  0
   69.1400   32.0640   53.2890 N   0  0  0  0  0  0  0  0  0  0  0  0
   66.1020   33.5600   52.3480 C   0  0  0  0  0  0  0  0  0  0  0  0
   66.2038   33.9685   53.3642 H   0  0  0  0  0  0  0  0  0  0  0  0
   64.9910   33.8940   51.5700 C   0  0  0  0  0  0  0  0  0  0  0  0
   64.2241   34.5697   51.9766 H   0  0  0  0  0  0  0  0  0  0  0  0
   62.3090   33.6580   50.2480 C   0  0  0  0  0  0  0  0  0  0  0  0
   62.5547   33.5115   51.3102 H   0  0  0  0  0  0  0  0  0  0  0  0
   61.7549   34.5948   50.0885 H   0  0  0  0  0  0  0  0  0  0  0  0
   61.4140   32.4990   49.7840 C   0  0  0  0  0  0  0  0  0  0  0  0
   61.9301   31.5509   49.9956 H   0  0  0  0  0  0  0  0  0  0  0  0
   60.4624   32.5787   50.3299 H   0  0  0  0  0  0  0  0  0  0  0  0
   58.1530   32.5510   46.5000 C   0  0  0  0  0  0  0  0  0  0  0  0
   57.7096   31.9324   47.2942 H   0  0  0  0  0  0  0  0  0  0  0  0
   58.1780   28.5140   44.7350 C   0  0  0  0  0  0  0  0  0  0  0  0
   59.1193   28.9610   44.3826 H   0  0  0  0  0  0  0  0  0  0  0  0
   58.0090   26.9970   45.4410 S   0  0  0  0  0  0  0  0  0  0  0  0
   57.2620   23.6520   44.5020 C   0  0  0  0  0  0  0  0  0  0  0  0
   58.2429   23.8077   44.9749 H   0  0  0  0  0  0  0  0  0  0  0  0
   57.0000   22.9640   43.3400 C   0  0  0  0  0  0  0  0  0  0  0  0
   57.7298   22.4559   42.6925 H   0  0  0  0  0  0  0  0  0  0  0  0
  1  2  1  0
  2  3  1  0
  3  4  1  0
  4  5  1  0
  5  6  2  0
  5  7  1  0
  7  8  2  0
  8  9  1  0
  9 10  1  0
 10 11  1  0
 11 12  2  0
 11 13  1  0
 13 14  1  0
 14 15  2  0
 15 16  1  0
 15 17  1  0
 17 18  1  0
 17 19  2  0
 19 20  1  0
 19 21  1  0
 21 22  1  0
 22 23  2  0
 22 24  1  0
 24 25  1  1
 24 26  1  0
 26 27  1  0
 26 28  1  0
 26 29  1  0
 29 30  1  0
 29 31  1  0
 29 32  1  0
 32 33  1  1
 32 34  1  0
 34 35  2  0
 35 36  1  0
 35 37  1  0
 37 38  1  0
 37 39  2  0
 39 40  1  0
 40 41  3  0
 39 42  1  0
 42 43  1  0
 42 44  2  0
 44 45  1  0
 32 46  1  0
 46 47  1  0
 46 48  1  0
 46 49  1  0
 49 50  1  0
 49 51  1  0
 21 52  2  0
 52 53  1  0
 10 54  2  0
 54 55  1  0
 54 56  1  0
  4 57  2  0
 57 58  1  0
 57 59  1  0
 59 60  1  0
 59  2  2  0
 56  8  1  0
 52 14  1  0
 49 24  1  0
 44 34  1  0
M  CHG  3   9  -1  13  -1  24   1
M  END
>  <UniqueID>  (59) 
47

>  <SMILES>  (59) 
N#Cc1ccc(C2CC[NH+](C(=O)c3cccc([N-]C(=O)c4cs/c(=N\C(=O)c5ccco5)[n-]4)c3)CC2)cc1

>  <Energy>  (59) 
146.74400648401976

>  <Genealogy>  (59) 
N#Cc1ccc(C2CC[NH+](C(=O)c3cccc([N-]C(=O)c4csc(=NC(=O)c5ccco5)[n-]4)c3)CC2)cc1 (protonated)
N#Cc1ccc(C2CC[NH+](C(=O)c3cccc([N-]C(=O)c4cs/c(=N\C(=O)c5ccco5)[n-]4)c3)CC2)cc1 (cis-trans isomerization)
N#Cc1ccc(C2CC[NH+](C(=O)c3cccc([N-]C(=O)c4cs/c(=N\C(=O)c5ccco5)[n-]4)c3)CC2)cc1 (3D coordinates assigned)
N#Cc1ccc(C2CC[NH+](C(=O)c3cccc([N-]C(=O)c4cs/c(=N\C(=O)c5ccco5)[n-]4)c3)CC2)cc1 (nonaromatic ring conformer: 146.74400648401976 kcal/mol)

>  <smiles>  (59) 
N#Cc1ccc(C2CCN(C(=O)c3cccc(NC(=O)c4csc(=NC(=O)c5ccco5)[nH]4)c3)CC2)cc1

>  <score_type>  (59) 
oracle

>  <origin>  (59) 
adg

>  <m_score__min__energy>  (59) 
-12.789999999999999

>  <m_primary>  (59) 
energy

$$$$
59:0
     RDKit          3D

 49 53  0  0  0  0  0  0  0  0999 V2000
   59.6360   34.5790   49.5320 O   0  0  0  0  0  0  0  0  0  0  0  0
   60.0700   34.3790   48.3640 C   0  0  0  0  0  0  0  0  0  0  0  0
   59.2380   34.6020   47.2580 O   0  0  0  0  0  0  0  0  0  0  0  0
   58.6630   33.5920   46.4770 C   0  0  0  0  0  0  0  0  0  0  0  0
   58.0000   33.9240   45.3300 N   0  0  0  0  0  0  0  0  0  0  0  0
   57.4520   32.9680   44.5130 C   0  0  0  0  0  0  0  0  0  0  0  0
   57.5700   31.6430   44.8210 N   0  0  0  0  0  0  0  0  0  0  0  0
   58.2190   31.3080   45.9630 C   0  0  0  0  0  0  0  0  0  0  0  0
   58.7740   32.2340   46.7810 C   0  0  0  0  0  0  0  0  0  0  0  0
   59.4660   31.6320   47.7650 N   0  0  0  0  0  0  0  0  0  0  0  0
   59.2820   30.3070   47.5080 C   0  0  0  0  0  0  0  0  0  0  0  0
   59.8410   29.2580   48.3890 C   0  0  0  0  0  0  0  0  0  0  0  0
   60.2580   28.0210   47.8670 C   0  0  0  0  0  0  0  0  0  0  0  0
   60.7710   27.0340   48.7150 C   0  0  0  0  0  0  0  0  0  0  0  0
   60.8610   27.2700   50.0890 C   0  0  0  0  0  0  0  0  0  0  0  0
   60.4280   28.4870   50.6200 C   0  0  0  0  0  0  0  0  0  0  0  0
   59.9140   29.4770   49.7750 C   0  0  0  0  0  0  0  0  0  0  0  0
   58.5230   30.0760   46.3960 N   0  0  0  0  0  0  0  0  0  0  0  0
   58.2610   28.8370   45.7120 C   0  0  0  0  0  0  0  0  0  0  0  0
   58.7840   28.6160   44.4280 C   0  0  0  0  0  0  0  0  0  0  0  0
   58.5340   27.4110   43.7640 C   0  0  0  0  0  0  0  0  0  0  0  0
   57.7680   26.4170   44.3800 C   0  0  0  0  0  0  0  0  0  0  0  0
   57.5280   25.2490   43.7350 F   0  0  0  0  0  0  0  0  0  0  0  0
   57.2550   26.6250   45.6630 C   0  0  0  0  0  0  0  0  0  0  0  0
   57.5030   27.8280   46.3300 C   0  0  0  0  0  0  0  0  0  0  0  0
   61.4350   33.9680   48.1630 N   0  0  0  0  0  0  0  0  0  0  0  0
   61.9680   33.8540   46.8010 C   0  0  0  0  0  0  0  0  0  0  0  0
   63.1190   32.8440   46.7680 C   0  0  0  0  0  0  0  0  0  0  0  0
   64.0810   33.1500   47.7580 O   0  0  0  0  0  0  0  0  0  0  0  0
   63.5110   32.9820   49.0420 C   0  0  0  0  0  0  0  0  0  0  0  0
   62.3890   33.9950   49.2800 C   0  0  0  0  0  0  0  0  0  0  0  0
   56.9135   33.2711   43.6030 H   0  0  0  0  0  0  0  0  0  0  0  0
   60.1805   27.8285   46.7868 H   0  0  0  0  0  0  0  0  0  0  0  0
   61.1038   26.0713   48.2997 H   0  0  0  0  0  0  0  0  0  0  0  0
   61.2734   26.4964   50.7534 H   0  0  0  0  0  0  0  0  0  0  0  0
   60.4910   28.6675   51.7033 H   0  0  0  0  0  0  0  0  0  0  0  0
   59.5656   30.4309   50.1977 H   0  0  0  0  0  0  0  0  0  0  0  0
   59.3925   29.3933   43.9427 H   0  0  0  0  0  0  0  0  0  0  0  0
   58.9407   27.2450   42.7555 H   0  0  0  0  0  0  0  0  0  0  0  0
   56.6553   25.8411   46.1486 H   0  0  0  0  0  0  0  0  0  0  0  0
   57.1033   27.9855   47.3426 H   0  0  0  0  0  0  0  0  0  0  0  0
   61.1687   33.5167   46.1248 H   0  0  0  0  0  0  0  0  0  0  0  0
   62.3424   34.8366   46.4779 H   0  0  0  0  0  0  0  0  0  0  0  0
   62.7199   31.8356   46.9518 H   0  0  0  0  0  0  0  0  0  0  0  0
   63.6012   32.8895   45.7804 H   0  0  0  0  0  0  0  0  0  0  0  0
   63.1005   31.9647   49.1232 H   0  0  0  0  0  0  0  0  0  0  0  0
   64.2945   33.1425   49.7973 H   0  0  0  0  0  0  0  0  0  0  0  0
   61.8634   33.7425   50.2128 H   0  0  0  0  0  0  0  0  0  0  0  0
   62.8250   35.0021   49.3551 H   0  0  0  0  0  0  0  0  0  0  0  0
  1  2  2  0
  2  3  1  0
  3  4  1  0
  4  5  2  0
  5  6  1  0
  6  7  2  0
  7  8  1  0
  8  9  2  0
  9 10  1  0
 10 11  2  0
 11 12  1  0
 12 13  2  0
 13 14  1  0
 14 15  2  0
 15 16  1  0
 16 17  2  0
 11 18  1  0
 18 19  1  0
 19 20  2  0
 20 21  1  0
 21 22  2  0
 22 23  1  0
 22 24  1  0
 24 25  2  0
  2 26  1  0
 26 27  1  0
 27 28  1  0
 28 29  1  0
 29 30  1  0
 30 31  1  0
  9  4  1  0
 17 12  1  0
 25 19  1  0
 31 26  1  0
 18  8  1  0
  6 32  1  0
 13 33  1  0
 14 34  1  0
 15 35  1  0
 16 36  1  0
 17 37  1  0
 20 38  1  0
 21 39  1  0
 24 40  1  0
 25 41  1  0
 27 42  1  0
 27 43  1  0
 28 44  1  0
 28 45  1  0
 30 46  1  0
 30 47  1  0
 31 48  1  0
 31 49  1  0
M  END
>  <UniqueID>  (60) 
48

>  <SMILES>  (60) 
O=C(Oc1ncnc2c1nc(-c1ccccc1)n2-c1ccc(F)cc1)N1CCOCC1

>  <Energy>  (60) 
110.93968415370801

>  <Genealogy>  (60) 
O=C(Oc1ncnc2c1nc(-c1ccccc1)n2-c1ccc(F)cc1)N1CCOCC1 (3D coordinates assigned)
O=C(Oc1ncnc2c1nc(-c1ccccc1)n2-c1ccc(F)cc1)N1CCOCC1 (nonaromatic ring conformer: 110.93968415370801 kcal/mol)

>  <smiles>  (60) 
O=C(Oc1ncnc2c1nc(-c1ccccc1)n2-c1ccc(F)cc1)N1CCOCC1

>  <score_type>  (60) 
oracle

>  <origin>  (60) 
adg

>  <m_score__min__energy>  (60) 
-8.3699999999999992

>  <m_primary>  (60) 
energy

$$$$
60:0
     RDKit          3D

 37 39  0  0  0  0  0  0  0  0999 V2000
   55.5400   25.4280   45.6680 C   0  0  0  0  0  0  0  0  0  0  0  0
   56.0940   26.6880   46.0310 O   0  0  0  0  0  0  0  0  0  0  0  0
   57.4690   26.9590   46.1260 C   0  0  0  0  0  0  0  0  0  0  0  0
   58.2430   26.4820   47.2050 C   0  0  0  0  0  0  0  0  0  0  0  0
   59.6050   26.7710   47.2800 C   0  0  0  0  0  0  0  0  0  0  0  0
   60.2140   27.5320   46.2830 C   0  0  0  0  0  0  0  0  0  0  0  0
   59.4630   28.0090   45.2080 C   0  0  0  0  0  0  0  0  0  0  0  0
   58.0830   27.7340   45.1210 C   0  0  0  0  0  0  0  0  0  0  0  0
   57.2970   28.2250   44.0180 N   0  0  0  0  0  0  0  0  0  0  0  0
   56.3990   29.7090   44.0650 S   0  0  0  0  0  0  0  0  0  0  0  0
   56.0190   30.1010   42.6630 O   0  0  0  0  0  0  0  0  0  0  0  0
   55.1480   29.5090   44.8720 O   0  0  0  0  0  0  0  0  0  0  0  0
   57.3640   30.9710   44.8250 C   0  0  0  0  0  0  0  0  0  0  0  0
   58.0680   30.6870   46.0220 C   0  0  0  0  0  0  0  0  0  0  0  0
   58.8600   31.6730   46.6390 C   0  0  0  0  0  0  0  0  0  0  0  0
   58.9210   32.9260   46.0290 C   0  0  0  0  0  0  0  0  0  0  0  0
   58.2350   33.2050   44.8810 C   0  0  0  0  0  0  0  0  0  0  0  0
   57.4430   32.2540   44.2430 C   0  0  0  0  0  0  0  0  0  0  0  0
   58.4500   34.4540   44.5390 O   0  0  0  0  0  0  0  0  0  0  0  0
   59.2600   34.9400   45.4640 C   0  0  0  0  0  0  0  0  0  0  0  0
   59.6690   36.1310   45.4670 O   0  0  0  0  0  0  0  0  0  0  0  0
   59.5950   34.0260   46.4100 N   0  0  0  0  0  0  0  0  0  0  0  0
   60.3990   34.2220   47.6120 C   0  0  0  0  0  0  0  0  0  0  0  0
   55.2909   24.8613   46.5773 H   0  0  0  0  0  0  0  0  0  0  0  0
   54.6283   25.5860   45.0731 H   0  0  0  0  0  0  0  0  0  0  0  0
   56.2727   24.8630   45.0731 H   0  0  0  0  0  0  0  0  0  0  0  0
   57.7686   25.8780   47.9925 H   0  0  0  0  0  0  0  0  0  0  0  0
   60.1998   26.3981   48.1269 H   0  0  0  0  0  0  0  0  0  0  0  0
   61.2890   27.7569   46.3440 H   0  0  0  0  0  0  0  0  0  0  0  0
   59.9515   28.6042   44.4224 H   0  0  0  0  0  0  0  0  0  0  0  0
   57.1620   27.6270   43.1730 H   0  0  0  0  0  0  0  0  0  0  0  0
   57.9945   29.6864   46.4729 H   0  0  0  0  0  0  0  0  0  0  0  0
   59.4106   31.4634   47.5679 H   0  0  0  0  0  0  0  0  0  0  0  0
   56.8982   32.4943   43.3181 H   0  0  0  0  0  0  0  0  0  0  0  0
   59.7711   34.0689   48.5021 H   0  0  0  0  0  0  0  0  0  0  0  0
   61.2287   33.4998   47.6200 H   0  0  0  0  0  0  0  0  0  0  0  0
   60.8032   35.2450   47.6200 H   0  0  0  0  0  0  0  0  0  0  0  0
  1  2  1  0
  2  3  1  0
  3  4  2  0
  4  5  1  0
  5  6  2  0
  6  7  1  0
  7  8  2  0
  8  9  1  0
  9 10  1  0
 10 11  2  0
 10 12  2  0
 10 13  1  0
 13 14  2  0
 14 15  1  0
 15 16  2  0
 16 17  1  0
 17 18  2  0
 17 19  1  0
 19 20  1  0
 20 21  2  0
 20 22  1  0
 22 23  1  0
  8  3  1  0
 18 13  1  0
 22 16  1  0
  1 24  1  0
  1 25  1  0
  1 26  1  0
  4 27  1  0
  5 28  1  0
  6 29  1  0
  7 30  1  0
  9 31  1  0
 14 32  1  0
 15 33  1  0
 18 34  1  0
 23 35  1  0
 23 36  1  0
 23 37  1  0
M  END
>  <UniqueID>  (61) 
49

>  <SMILES>  (61) 
COc1ccccc1NS(=O)(=O)c1ccc2c(c1)oc(=O)n2C

>  <Energy>  (61) 
83.13709340759767

>  <Genealogy>  (61) 
COc1ccccc1NS(=O)(=O)c1ccc2c(c1)oc(=O)n2C (3D coordinates assigned)
COc1ccccc1NS(=O)(=O)c1ccc2c(c1)oc(=O)n2C (optimized conformer: 83.13709340759767 kcal/mol)

>  <smiles>  (61) 
COc1ccccc1NS(=O)(=O)c1ccc2c(c1)oc(=O)n2C

>  <score_type>  (61) 
oracle

>  <origin>  (61) 
adg

>  <m_score__min__energy>  (61) 
-8.4199999999999999

>  <m_primary>  (61) 
energy

$$$$
61:0
     RDKit          3D

 62 66  0  0  0  0  0  0  0  0999 V2000
   59.4538   35.5289   45.0310 H   0  0  0  0  0  0  0  0  0  0  0  0
   59.6110   34.7230   45.7630 C   0  0  0  0  0  0  0  0  0  0  0  0
   60.8500   34.5820   46.3910 C   0  0  0  0  0  0  0  0  0  0  0  0
   61.6619   35.2885   46.1636 H   0  0  0  0  0  0  0  0  0  0  0  0
   61.0650   33.5460   47.3090 C   0  0  0  0  0  0  0  0  0  0  0  0
   62.6340   33.4820   48.1060 Cl  0  0  0  0  0  0  0  0  0  0  0  0
   60.0310   32.6210   47.5900 C   0  0  0  0  0  0  0  0  0  0  0  0
   60.2820   31.2910   48.7490 S   0  0  0  0  0  0  0  0  0  0  0  0
   59.6950   31.6950   50.0730 O   0  0  0  0  0  0  0  0  0  0  0  0
   61.7590   31.0750   48.9310 O   0  0  0  0  0  0  0  0  0  0  0  0
   59.6000   29.7550   48.2640 N   0  0  0  0  0  0  0  0  0  0  0  0
   60.5230   28.6380   48.5240 C   0  0  0  0  0  0  0  0  0  0  0  0
   60.8785   28.6881   49.5638 H   0  0  0  0  0  0  0  0  0  0  0  0
   61.3849   28.7028   47.8436 H   0  0  0  0  0  0  0  0  0  0  0  0
   59.7860   27.3190   48.2980 C   0  0  0  0  0  0  0  0  0  0  0  0
   59.0515   27.1753   49.1041 H   0  0  0  0  0  0  0  0  0  0  0  0
   60.5234   26.5028   48.2965 H   0  0  0  0  0  0  0  0  0  0  0  0
   59.0850   27.3180   47.0030 N   0  0  0  0  0  0  0  0  0  0  0  0
   57.9030   26.5090   46.8970 C   0  0  0  0  0  0  0  0  0  0  0  0
   56.7580   26.8880   46.1310 C   0  0  0  0  0  0  0  0  0  0  0  0
   56.5440   28.0740   45.6290 N   0  0  0  0  0  0  0  0  0  0  0  0
   56.9280   28.6820   44.3560 C   0  0  0  0  0  0  0  0  0  0  0  0
   58.0038   28.5146   44.1987 H   0  0  0  0  0  0  0  0  0  0  0  0
   56.3182   28.2110   43.5709 H   0  0  0  0  0  0  0  0  0  0  0  0
   56.6550   30.1960   44.3020 C   0  0  0  0  0  0  0  0  0  0  0  0
   55.9526   30.1857   45.1485 H   0  0  0  0  0  0  0  0  0  0  0  0
   57.7950   31.1260   43.8940 C   0  0  0  0  0  0  0  0  0  0  0  0
   57.8567   32.1387   44.3190 H   0  0  0  0  0  0  0  0  0  0  0  0
   58.8928   31.0566   43.8977 H   0  0  0  0  0  0  0  0  0  0  0  0
   56.7050   30.7890   42.8960 C   0  0  0  0  0  0  0  0  0  0  0  0
   55.9766   31.5574   42.5977 H   0  0  0  0  0  0  0  0  0  0  0  0
   56.6862   30.3743   41.8773 H   0  0  0  0  0  0  0  0  0  0  0  0
   55.7810   25.9610   45.9410 N   0  0  0  0  0  0  0  0  0  0  0  0
   55.8400   24.7190   46.4780 C   0  0  0  0  0  0  0  0  0  0  0  0
   54.8270   23.7880   46.2550 C   0  0  0  0  0  0  0  0  0  0  0  0
   53.9603   24.0527   45.6315 H   0  0  0  0  0  0  0  0  0  0  0  0
   54.9180   22.5180   46.8270 C   0  0  0  0  0  0  0  0  0  0  0  0
   54.1270   21.7746   46.6488 H   0  0  0  0  0  0  0  0  0  0  0  0
   56.0270   22.1910   47.6340 C   0  0  0  0  0  0  0  0  0  0  0  0
   56.1590   20.8890   48.2510 N   0  0  0  0  0  0  0  0  0  0  0  0
   56.7170   19.7820   47.4660 C   0  0  0  0  0  0  0  0  0  0  0  0
   57.1062   19.0099   48.1460 H   0  0  0  0  0  0  0  0  0  0  0  0
   55.9296   19.3488   46.8317 H   0  0  0  0  0  0  0  0  0  0  0  0
   57.5336   20.1574   46.8317 H   0  0  0  0  0  0  0  0  0  0  0  0
   55.6860   20.6510   49.6210 C   0  0  0  0  0  0  0  0  0  0  0  0
   56.4320   21.0264   50.3369 H   0  0  0  0  0  0  0  0  0  0  0  0
   54.7322   21.1765   49.7761 H   0  0  0  0  0  0  0  0  0  0  0  0
   55.5396   19.5719   49.7761 H   0  0  0  0  0  0  0  0  0  0  0  0
   56.9990   23.1290   47.8310 N   0  0  0  0  0  0  0  0  0  0  0  0
   56.9330   24.3680   47.2740 C   0  0  0  0  0  0  0  0  0  0  0  0
   57.9350   25.2650   47.4620 N   0  0  0  0  0  0  0  0  0  0  0  0
   58.7680   24.9800   48.0270 H   0  0  0  0  0  0  0  0  0  0  0  0
   59.2250   28.4830   46.1200 C   0  0  0  0  0  0  0  0  0  0  0  0
   58.4777   28.4185   45.3154 H   0  0  0  0  0  0  0  0  0  0  0  0
   60.2405   28.4872   45.6972 H   0  0  0  0  0  0  0  0  0  0  0  0
   59.0100   29.7880   46.9060 C   0  0  0  0  0  0  0  0  0  0  0  0
   57.9285   29.9660   46.9989 H   0  0  0  0  0  0  0  0  0  0  0  0
   59.5147   30.5916   46.3497 H   0  0  0  0  0  0  0  0  0  0  0  0
   58.7780   32.8060   46.9790 C   0  0  0  0  0  0  0  0  0  0  0  0
   57.9486   32.1264   47.2245 H   0  0  0  0  0  0  0  0  0  0  0  0
   58.5730   33.8420   46.0640 C   0  0  0  0  0  0  0  0  0  0  0  0
   57.0060   34.0400   45.2990 Cl  0  0  0  0  0  0  0  0  0  0  0  0
  1  2  1  0
  2  3  2  0
  3  4  1  0
  3  5  1  0
  5  6  1  0
  5  7  2  0
  7  8  1  0
  8  9  2  0
  8 10  2  0
  8 11  1  0
 11 12  1  0
 12 13  1  0
 12 14  1  0
 12 15  1  0
 15 16  1  0
 15 17  1  0
 15 18  1  0
 18 19  1  0
 19 20  1  0
 20 21  2  0
 21 22  1  0
 22 23  1  0
 22 24  1  0
 22 25  1  0
 25 26  1  0
 25 27  1  0
 27 28  1  0
 27 29  1  0
 27 30  1  0
 30 31  1  0
 30 32  1  0
 20 33  1  0
 33 34  1  0
 34 35  2  0
 35 36  1  0
 35 37  1  0
 37 38  1  0
 37 39  2  0
 39 40  1  0
 40 41  1  0
 41 42  1  0
 41 43  1  0
 41 44  1  0
 40 45  1  0
 45 46  1  0
 45 47  1  0
 45 48  1  0
 39 49  1  0
 49 50  2  0
 50 51  1  0
 51 52  1  0
 18 53  1  0
 53 54  1  0
 53 55  1  0
 53 56  1  0
 56 57  1  0
 56 58  1  0
  7 59  1  0
 59 60  1  0
 59 61  2  0
 61 62  1  0
 61  2  1  0
 56 11  1  0
 51 19  2  0
 30 25  1  0
 50 34  1  0
M  CHG  2  33  -1  51   1
M  END
>  <UniqueID>  (62) 
50

>  <SMILES>  (62) 
CN(C)c1ccc2[n-]/c(=N/CC3CC3)c(N3CCN(S(=O)(=O)c4cc(Cl)ccc4Cl)CC3)[nH+]c2n1

>  <Energy>  (62) 
360.1633069470131

>  <Genealogy>  (62) 
CN(C)c1ccc2[n-]c(=NCC3CC3)c(N3CCN(S(=O)(=O)c4cc(Cl)ccc4Cl)CC3)[nH+]c2n1 (protonated)
CN(C)c1ccc2[n-]/c(=N/CC3CC3)c(N3CCN(S(=O)(=O)c4cc(Cl)ccc4Cl)CC3)[nH+]c2n1 (cis-trans isomerization)
CN(C)c1ccc2[n-]/c(=N/CC3CC3)c(N3CCN(S(=O)(=O)c4cc(Cl)ccc4Cl)CC3)[nH+]c2n1 (3D coordinates assigned)
CN(C)c1ccc2[n-]/c(=N/CC3CC3)c(N3CCN(S(=O)(=O)c4cc(Cl)ccc4Cl)CC3)[nH+]c2n1 (nonaromatic ring conformer: 360.1633069470131 kcal/mol)

>  <smiles>  (62) 
CN(C)c1ccc2[nH]c(=NCC3CC3)c(N3CCN(S(=O)(=O)c4cc(Cl)ccc4Cl)CC3)nc2n1

>  <score_type>  (62) 
oracle

>  <origin>  (62) 
adg

>  <m_score__min__energy>  (62) 
-9.3100000000000005

>  <m_primary>  (62) 
energy

$$$$
62:0
     RDKit          3D

 46 48  0  0  0  0  0  0  0  0999 V2000
   57.5780   26.4510   46.8400 C   0  0  0  0  0  0  0  0  0  0  0  0
   58.6570   26.8000   45.9150 N   0  0  0  0  0  0  0  0  0  0  0  0
   58.3700   26.9530   44.4880 C   0  0  0  0  0  0  0  0  0  0  0  0
   57.9640   28.3650   44.2070 C   0  0  0  0  0  0  0  0  0  0  0  0
   57.0460   28.7400   43.3010 N   0  0  0  0  0  0  0  0  0  0  0  0
   56.8910   30.0480   43.4110 N   0  0  0  0  0  0  0  0  0  0  0  0
   57.7340   30.4290   44.3950 C   0  0  0  0  0  0  0  0  0  0  0  0
   57.8630   31.8070   44.9030 C   0  0  0  0  0  0  0  0  0  0  0  0
   58.0390   32.8860   44.0190 C   0  0  0  0  0  0  0  0  0  0  0  0
   58.1260   34.1920   44.5100 C   0  0  0  0  0  0  0  0  0  0  0  0
   58.0350   34.4330   45.8840 C   0  0  0  0  0  0  0  0  0  0  0  0
   57.8570   33.3660   46.7690 C   0  0  0  0  0  0  0  0  0  0  0  0
   57.7710   32.0580   46.2830 C   0  0  0  0  0  0  0  0  0  0  0  0
   58.3990   29.4030   44.8780 O   0  0  0  0  0  0  0  0  0  0  0  0
   59.9240   27.2440   46.4210 C   0  0  0  0  0  0  0  0  0  0  0  0
   60.9280   26.4890   46.3190 O   0  0  0  0  0  0  0  0  0  0  0  0
   60.0810   28.5970   46.9860 C   0  0  0  0  0  0  0  0  0  0  0  0
   59.5760   29.0350   48.2070 C   0  0  0  0  0  0  0  0  0  0  0  0
   59.9430   30.2960   48.5580 N   0  0  0  0  0  0  0  0  0  0  0  0
   60.7450   30.8780   47.6350 C   0  0  0  0  0  0  0  0  0  0  0  0
   61.3070   32.2830   47.7550 C   0  0  0  0  0  0  0  0  0  0  0  0
   60.6000   33.0100   48.9130 C   0  0  0  0  0  0  0  0  0  0  0  0
   62.8230   32.2400   48.0370 C   0  0  0  0  0  0  0  0  0  0  0  0
   61.0680   33.0490   46.4410 C   0  0  0  0  0  0  0  0  0  0  0  0
   61.0150   29.8370   46.3360 S   0  0  0  0  0  0  0  0  0  0  0  0
   57.9314   26.5653   47.8754 H   0  0  0  0  0  0  0  0  0  0  0  0
   56.7194   27.1172   46.6699 H   0  0  0  0  0  0  0  0  0  0  0  0
   57.2722   25.4081   46.6699 H   0  0  0  0  0  0  0  0  0  0  0  0
   59.2701   26.7079   43.9051 H   0  0  0  0  0  0  0  0  0  0  0  0
   57.5521   26.2742   44.2048 H   0  0  0  0  0  0  0  0  0  0  0  0
   56.5170   28.1270   42.6420 H   0  0  0  0  0  0  0  0  0  0  0  0
   58.1085   32.7018   42.9368 H   0  0  0  0  0  0  0  0  0  0  0  0
   58.2664   35.0319   43.8136 H   0  0  0  0  0  0  0  0  0  0  0  0
   58.1034   35.4614   46.2683 H   0  0  0  0  0  0  0  0  0  0  0  0
   57.7844   33.5558   47.8501 H   0  0  0  0  0  0  0  0  0  0  0  0
   57.6307   31.2216   46.9836 H   0  0  0  0  0  0  0  0  0  0  0  0
   58.9295   28.4088   48.8394 H   0  0  0  0  0  0  0  0  0  0  0  0
   60.9755   32.6238   49.8721 H   0  0  0  0  0  0  0  0  0  0  0  0
   60.8035   34.0890   48.8472 H   0  0  0  0  0  0  0  0  0  0  0  0
   59.5157   32.8367   48.8472 H   0  0  0  0  0  0  0  0  0  0  0  0
   62.9938   32.2352   49.1236 H   0  0  0  0  0  0  0  0  0  0  0  0
   63.2526   31.3293   47.5942 H   0  0  0  0  0  0  0  0  0  0  0  0
   63.3036   33.1249   47.5942 H   0  0  0  0  0  0  0  0  0  0  0  0
   60.7475   34.0764   46.6686 H   0  0  0  0  0  0  0  0  0  0  0  0
   62.0003   33.0765   45.8578 H   0  0  0  0  0  0  0  0  0  0  0  0
   60.2855   32.5414   45.8578 H   0  0  0  0  0  0  0  0  0  0  0  0
  1  2  1  0
  2  3  1  0
  3  4  1  0
  4  5  2  0
  5  6  1  0
  6  7  2  0
  7  8  1  0
  8  9  2  0
  9 10  1  0
 10 11  2  0
 11 12  1  0
 12 13  2  0
  7 14  1  0
  2 15  1  0
 15 16  2  0
 15 17  1  0
 17 18  2  0
 18 19  1  0
 19 20  2  0
 20 21  1  0
 21 22  1  0
 21 23  1  0
 21 24  1  0
 20 25  1  0
 14  4  1  0
 25 17  1  0
 13  8  1  0
  1 26  1  0
  1 27  1  0
  1 28  1  0
  3 29  1  0
  3 30  1  0
  5 31  1  0
  9 32  1  0
 10 33  1  0
 11 34  1  0
 12 35  1  0
 13 36  1  0
 18 37  1  0
 22 38  1  0
 22 39  1  0
 22 40  1  0
 23 41  1  0
 23 42  1  0
 23 43  1  0
 24 44  1  0
 24 45  1  0
 24 46  1  0
M  CHG  1   5   1
M  END
>  <UniqueID>  (63) 
51

>  <SMILES>  (63) 
CN(Cc1[nH+]nc(-c2ccccc2)o1)C(=O)c1cnc(C(C)(C)C)s1

>  <Energy>  (63) 
106.4841688102857

>  <Genealogy>  (63) 
CN(Cc1[nH+]nc(-c2ccccc2)o1)C(=O)c1cnc(C(C)(C)C)s1 (protonated)
CN(Cc1[nH+]nc(-c2ccccc2)o1)C(=O)c1cnc(C(C)(C)C)s1 (3D coordinates assigned)
CN(Cc1[nH+]nc(-c2ccccc2)o1)C(=O)c1cnc(C(C)(C)C)s1 (optimized conformer: 106.4841688102857 kcal/mol)

>  <smiles>  (63) 
CN(Cc1nnc(-c2ccccc2)o1)C(=O)c1cnc(C(C)(C)C)s1

>  <score_type>  (63) 
oracle

>  <origin>  (63) 
adg

>  <m_score__min__energy>  (63) 
-6.8899999999999997

>  <m_primary>  (63) 
energy

$$$$
63:0
     RDKit          3D

 38 40  0  0  0  0  0  0  0  0999 V2000
   57.7810   32.7070   42.9380 C   0  0  0  0  0  0  0  0  0  0  0  0
   57.3910   33.5470   44.5040 S   0  0  0  0  0  0  0  0  0  0  0  0
   58.1580   32.2730   45.5090 C   0  0  0  0  0  0  0  0  0  0  0  0
   57.8210   30.9720   45.4400 N   0  0  0  0  0  0  0  0  0  0  0  0
   58.6350   30.4170   46.3690 C   0  0  0  0  0  0  0  0  0  0  0  0
   58.6540   28.9740   46.6870 C   0  0  0  0  0  0  0  0  0  0  0  0
   59.6150   28.4500   47.5720 C   0  0  0  0  0  0  0  0  0  0  0  0
   59.6310   27.0850   47.8710 C   0  0  0  0  0  0  0  0  0  0  0  0
   58.6920   26.2300   47.2910 C   0  0  0  0  0  0  0  0  0  0  0  0
   57.7330   26.7390   46.4120 C   0  0  0  0  0  0  0  0  0  0  0  0
   57.7130   28.1030   46.1100 C   0  0  0  0  0  0  0  0  0  0  0  0
   59.4250   31.3290   46.9760 N   0  0  0  0  0  0  0  0  0  0  0  0
   59.1170   32.4860   46.4260 N   0  0  0  0  0  0  0  0  0  0  0  0
   59.8210   34.0000   46.8900 S   0  0  0  0  0  0  0  0  0  0  0  0
   58.8950   34.6990   47.8450 O   0  0  0  0  0  0  0  0  0  0  0  0
   60.0100   34.8610   45.6720 O   0  0  0  0  0  0  0  0  0  0  0  0
   61.3890   33.7190   47.6370 C   0  0  0  0  0  0  0  0  0  0  0  0
   61.5400   33.8790   49.0200 C   0  0  0  0  0  0  0  0  0  0  0  0
   62.7830   33.6670   49.6230 C   0  0  0  0  0  0  0  0  0  0  0  0
   63.8920   33.3000   48.8430 C   0  0  0  0  0  0  0  0  0  0  0  0
   65.2180   33.0340   49.4910 C   0  0  0  0  0  0  0  0  0  0  0  0
   63.7340   33.1190   47.4610 C   0  0  0  0  0  0  0  0  0  0  0  0
   62.4890   33.3320   46.8610 C   0  0  0  0  0  0  0  0  0  0  0  0
   58.2355   31.7281   43.1503 H   0  0  0  0  0  0  0  0  0  0  0  0
   56.8570   32.5643   42.3584 H   0  0  0  0  0  0  0  0  0  0  0  0
   58.4863   33.3208   42.3584 H   0  0  0  0  0  0  0  0  0  0  0  0
   60.3578   29.1190   48.0310 H   0  0  0  0  0  0  0  0  0  0  0  0
   60.3846   26.6836   48.5644 H   0  0  0  0  0  0  0  0  0  0  0  0
   58.7073   25.1555   47.5262 H   0  0  0  0  0  0  0  0  0  0  0  0
   56.9924   26.0649   45.9569 H   0  0  0  0  0  0  0  0  0  0  0  0
   56.9562   28.4980   45.4163 H   0  0  0  0  0  0  0  0  0  0  0  0
   60.6764   34.1729   49.6346 H   0  0  0  0  0  0  0  0  0  0  0  0
   62.8930   33.7878   50.7108 H   0  0  0  0  0  0  0  0  0  0  0  0
   65.1028   33.0571   50.5847 H   0  0  0  0  0  0  0  0  0  0  0  0
   65.5853   32.0443   49.1818 H   0  0  0  0  0  0  0  0  0  0  0  0
   65.9386   33.8055   49.1818 H   0  0  0  0  0  0  0  0  0  0  0  0
   64.5924   32.8085   46.8472 H   0  0  0  0  0  0  0  0  0  0  0  0
   62.3731   33.1951   45.7757 H   0  0  0  0  0  0  0  0  0  0  0  0
  1  2  1  0
  2  3  1  0
  3  4  2  0
  4  5  1  0
  5  6  1  0
  6  7  2  0
  7  8  1  0
  8  9  2  0
  9 10  1  0
 10 11  2  0
  5 12  2  0
 12 13  1  0
 13 14  1  0
 14 15  2  0
 14 16  2  0
 14 17  1  0
 17 18  2  0
 18 19  1  0
 19 20  2  0
 20 21  1  0
 20 22  1  0
 22 23  2  0
 13  3  1  0
 23 17  1  0
 11  6  1  0
  1 24  1  0
  1 25  1  0
  1 26  1  0
  7 27  1  0
  8 28  1  0
  9 29  1  0
 10 30  1  0
 11 31  1  0
 18 32  1  0
 19 33  1  0
 21 34  1  0
 21 35  1  0
 21 36  1  0
 22 37  1  0
 23 38  1  0
M  END
>  <UniqueID>  (64) 
52

>  <SMILES>  (64) 
CSc1nc(-c2ccccc2)nn1S(=O)(=O)c1ccc(C)cc1

>  <Energy>  (64) 
70.62582273757997

>  <Genealogy>  (64) 
CSc1nc(-c2ccccc2)nn1S(=O)(=O)c1ccc(C)cc1 (3D coordinates assigned)
CSc1nc(-c2ccccc2)nn1S(=O)(=O)c1ccc(C)cc1 (optimized conformer: 70.62582273757997 kcal/mol)

>  <smiles>  (64) 
CSc1nc(-c2ccccc2)nn1S(=O)(=O)c1ccc(C)cc1

>  <score_type>  (64) 
oracle

>  <origin>  (64) 
adg

>  <m_score__min__energy>  (64) 
-7.8200000000000003

>  <m_primary>  (64) 
energy

$$$$
64:0
     RDKit          3D

 27 28  0  0  0  0  0  0  0  0999 V2000
   55.4190   29.3660   44.8670 O   0  0  0  0  0  0  0  0  0  0  0  0
   56.6350   29.6930   44.8890 C   0  0  0  0  0  0  0  0  0  0  0  0
   56.9710   31.0840   44.9240 N   0  0  0  0  0  0  0  0  0  0  0  0
   58.0330   31.6550   45.6980 C   0  0  0  0  0  0  0  0  0  0  0  0
   58.8300   30.8050   46.4740 C   0  0  0  0  0  0  0  0  0  0  0  0
   59.8720   31.3200   47.2450 C   0  0  0  0  0  0  0  0  0  0  0  0
   60.1170   32.6930   47.2620 C   0  0  0  0  0  0  0  0  0  0  0  0
   59.3100   33.5630   46.5190 C   0  0  0  0  0  0  0  0  0  0  0  0
   59.6360   35.2890   46.5960 Cl  0  0  0  0  0  0  0  0  0  0  0  0
   58.2550   33.0510   45.7410 C   0  0  0  0  0  0  0  0  0  0  0  0
   57.1800   34.1580   44.8850 Cl  0  0  0  0  0  0  0  0  0  0  0  0
   57.6620   28.6840   44.8840 N   0  0  0  0  0  0  0  0  0  0  0  0
   57.4000   27.2710   44.9080 C   0  0  0  0  0  0  0  0  0  0  0  0
   56.6900   26.7210   45.9870 C   0  0  0  0  0  0  0  0  0  0  0  0
   56.4040   25.3530   46.0220 C   0  0  0  0  0  0  0  0  0  0  0  0
   56.8090   24.5260   44.9700 C   0  0  0  0  0  0  0  0  0  0  0  0
   57.4940   25.0670   43.8800 C   0  0  0  0  0  0  0  0  0  0  0  0
   57.7850   26.4350   43.8430 C   0  0  0  0  0  0  0  0  0  0  0  0
   58.6330   29.7228   46.4757 H   0  0  0  0  0  0  0  0  0  0  0  0
   60.5015   30.6424   47.8405 H   0  0  0  0  0  0  0  0  0  0  0  0
   60.9476   33.0939   47.8616 H   0  0  0  0  0  0  0  0  0  0  0  0
   58.6560   28.9830   44.7680 H   0  0  0  0  0  0  0  0  0  0  0  0
   56.3567   27.3704   46.8099 H   0  0  0  0  0  0  0  0  0  0  0  0
   55.8599   24.9270   46.8779 H   0  0  0  0  0  0  0  0  0  0  0  0
   56.5880   23.4489   45.0009 H   0  0  0  0  0  0  0  0  0  0  0  0
   57.8053   24.4166   43.0492 H   0  0  0  0  0  0  0  0  0  0  0  0
   58.3167   26.8589   42.9783 H   0  0  0  0  0  0  0  0  0  0  0  0
  1  2  2  0
  2  3  1  0
  3  4  1  0
  4  5  2  0
  5  6  1  0
  6  7  2  0
  7  8  1  0
  8  9  1  0
  8 10  2  0
 10 11  1  0
  2 12  1  0
 12 13  1  0
 13 14  2  0
 14 15  1  0
 15 16  2  0
 16 17  1  0
 17 18  2  0
 10  4  1  0
 18 13  1  0
  5 19  1  0
  6 20  1  0
  7 21  1  0
 12 22  1  0
 14 23  1  0
 15 24  1  0
 16 25  1  0
 17 26  1  0
 18 27  1  0
M  CHG  1   3  -1
M  END
>  <UniqueID>  (65) 
53

>  <SMILES>  (65) 
O=C([N-]c1cccc(Cl)c1Cl)Nc1ccccc1

>  <Energy>  (65) 
39.543432836865655

>  <Genealogy>  (65) 
O=C([N-]c1cccc(Cl)c1Cl)Nc1ccccc1 (protonated)
O=C([N-]c1cccc(Cl)c1Cl)Nc1ccccc1 (3D coordinates assigned)
O=C([N-]c1cccc(Cl)c1Cl)Nc1ccccc1 (optimized conformer: 39.543432836865655 kcal/mol)

>  <smiles>  (65) 
O=C(Nc1ccccc1)Nc1cccc(Cl)c1Cl

>  <score_type>  (65) 
oracle

>  <origin>  (65) 
adg

>  <m_score__min__energy>  (65) 
-8.6300000000000008

>  <m_primary>  (65) 
energy

$$$$
65:0
     RDKit          3D

 42 44  0  0  0  0  0  0  0  0999 V2000
   56.9970   23.8820   47.8670 C   0  0  0  0  0  0  0  0  0  0  0  0
   56.7450   25.1330   47.0940 C   0  0  0  0  0  0  0  0  0  0  0  0
   57.7100   25.9750   46.5860 C   0  0  0  0  0  0  0  0  0  0  0  0
   56.9850   26.9340   45.9050 C   0  0  0  0  0  0  0  0  0  0  0  0
   57.5180   28.0940   45.1720 C   0  0  0  0  0  0  0  0  0  0  0  0
   58.5850   27.9610   44.5140 O   0  0  0  0  0  0  0  0  0  0  0  0
   56.8600   29.3700   45.2280 N   0  0  0  0  0  0  0  0  0  0  0  0
   57.2210   30.4810   44.3880 C   0  0  0  0  0  0  0  0  0  0  0  0
   56.9420   30.4500   43.0100 C   0  0  0  0  0  0  0  0  0  0  0  0
   57.2270   31.5560   42.2050 C   0  0  0  0  0  0  0  0  0  0  0  0
   57.7800   32.7070   42.7670 C   0  0  0  0  0  0  0  0  0  0  0  0
   58.0520   32.7560   44.1360 C   0  0  0  0  0  0  0  0  0  0  0  0
   57.7770   31.6490   44.9550 C   0  0  0  0  0  0  0  0  0  0  0  0
   58.1040   31.7100   46.3520 N   0  0  0  0  0  0  0  0  0  0  0  0
   58.8960   30.6400   46.9650 C   0  0  0  0  0  0  0  0  0  0  0  0
   59.5220   31.1180   48.2840 C   0  0  0  0  0  0  0  0  0  0  0  0
   60.0410   32.4980   48.1750 N   0  0  0  0  0  0  0  0  0  0  0  0
   61.2230   32.5700   47.2990 C   0  0  0  0  0  0  0  0  0  0  0  0
   59.0080   33.4980   47.7940 C   0  0  0  0  0  0  0  0  0  0  0  0
   57.7500   32.8900   47.1430 C   0  0  0  0  0  0  0  0  0  0  0  0
   55.6690   26.6590   46.0030 N   0  0  0  0  0  0  0  0  0  0  0  0
   55.5230   25.5560   46.7210 N   0  0  0  0  0  0  0  0  0  0  0  0
   56.9528   24.1013   48.9440 H   0  0  0  0  0  0  0  0  0  0  0  0
   56.2315   23.1338   47.6134 H   0  0  0  0  0  0  0  0  0  0  0  0
   57.9924   23.4885   47.6134 H   0  0  0  0  0  0  0  0  0  0  0  0
   58.8019   25.9011   46.6967 H   0  0  0  0  0  0  0  0  0  0  0  0
   56.1450   29.5350   45.9710 H   0  0  0  0  0  0  0  0  0  0  0  0
   56.4965   29.5491   42.5629 H   0  0  0  0  0  0  0  0  0  0  0  0
   57.0150   31.5191   41.1263 H   0  0  0  0  0  0  0  0  0  0  0  0
   58.0020   33.5768   42.1312 H   0  0  0  0  0  0  0  0  0  0  0  0
   58.4842   33.6672   44.5753 H   0  0  0  0  0  0  0  0  0  0  0  0
   58.2438   29.7774   47.1662 H   0  0  0  0  0  0  0  0  0  0  0  0
   59.7020   30.3546   46.2730 H   0  0  0  0  0  0  0  0  0  0  0  0
   58.7569   31.0863   49.0737 H   0  0  0  0  0  0  0  0  0  0  0  0
   60.3646   30.4530   48.5242 H   0  0  0  0  0  0  0  0  0  0  0  0
   62.1329   32.6254   47.9147 H   0  0  0  0  0  0  0  0  0  0  0  0
   61.2640   31.6727   46.6641 H   0  0  0  0  0  0  0  0  0  0  0  0
   61.1548   33.4657   46.6641 H   0  0  0  0  0  0  0  0  0  0  0  0
   58.7000   34.0386   48.7011 H   0  0  0  0  0  0  0  0  0  0  0  0
   59.4671   34.1557   47.0412 H   0  0  0  0  0  0  0  0  0  0  0  0
   57.0393   32.5986   47.9304 H   0  0  0  0  0  0  0  0  0  0  0  0
   57.2935   33.6399   46.4802 H   0  0  0  0  0  0  0  0  0  0  0  0
  1  2  1  0
  2  3  2  0
  3  4  1  0
  4  5  1  0
  5  6  2  0
  5  7  1  0
  7  8  1  0
  8  9  2  0
  9 10  1  0
 10 11  2  0
 11 12  1  0
 12 13  2  0
 13 14  1  0
 14 15  1  0
 15 16  1  0
 16 17  1  0
 17 18  1  0
 17 19  1  0
 19 20  1  0
  4 21  2  0
 21 22  1  0
 22  2  1  0
 13  8  1  0
 20 14  1  0
  1 23  1  0
  1 24  1  0
  1 25  1  0
  3 26  1  0
  7 27  1  0
  9 28  1  0
 10 29  1  0
 11 30  1  0
 12 31  1  0
 15 32  1  0
 15 33  1  0
 16 34  1  0
 16 35  1  0
 18 36  1  0
 18 37  1  0
 18 38  1  0
 19 39  1  0
 19 40  1  0
 20 41  1  0
 20 42  1  0
M  CHG  1  22  -1
M  END
>  <UniqueID>  (66) 
54

>  <SMILES>  (66) 
Cc1cc(C(=O)Nc2ccccc2N2CCN(C)CC2)n[n-]1

>  <Energy>  (66) 
86.48196752351254

>  <Genealogy>  (66) 
Cc1cc(C(=O)Nc2ccccc2N2CCN(C)CC2)n[n-]1 (protonated)
Cc1cc(C(=O)Nc2ccccc2N2CCN(C)CC2)n[n-]1 (3D coordinates assigned)
Cc1cc(C(=O)Nc2ccccc2N2CCN(C)CC2)n[n-]1 (nonaromatic ring conformer: 86.48196752351254 kcal/mol)

>  <smiles>  (66) 
Cc1cc(C(=O)Nc2ccccc2N2CCN(C)CC2)n[nH]1

>  <score_type>  (66) 
oracle

>  <origin>  (66) 
adg

>  <m_score__min__energy>  (66) 
-9.4600000000000009

>  <m_primary>  (66) 
energy

$$$$
66:0
     RDKit          3D

 23 24  0  0  0  0  0  0  0  0999 V2000
   55.7750   30.0000   44.8800 O   0  0  0  0  0  0  0  0  0  0  0  0
   56.3830   28.8980   44.8740 C   0  0  0  0  0  0  0  0  0  0  0  0
   57.5440   28.7400   44.1120 C   0  0  0  0  0  0  0  0  0  0  0  0
   58.2050   27.5100   44.1200 C   0  0  0  0  0  0  0  0  0  0  0  0
   57.7140   26.4550   44.8960 C   0  0  0  0  0  0  0  0  0  0  0  0
   58.3870   25.2240   44.8740 O   0  0  0  0  0  0  0  0  0  0  0  0
   57.8400   24.0050   44.4480 C   0  0  0  0  0  0  0  0  0  0  0  0
   58.3670   22.8150   44.9640 C   0  0  0  0  0  0  0  0  0  0  0  0
   57.8390   21.5800   44.5770 C   0  0  0  0  0  0  0  0  0  0  0  0
   56.7660   21.5250   43.6770 C   0  0  0  0  0  0  0  0  0  0  0  0
   56.2330   20.2990   43.2830 O   0  0  0  0  0  0  0  0  0  0  0  0
   56.2210   22.7120   43.1720 C   0  0  0  0  0  0  0  0  0  0  0  0
   55.1740   22.6690   42.3120 F   0  0  0  0  0  0  0  0  0  0  0  0
   56.7510   23.9470   43.5610 C   0  0  0  0  0  0  0  0  0  0  0  0
   56.5340   26.6510   45.6330 C   0  0  0  0  0  0  0  0  0  0  0  0
   55.9050   27.8570   45.6070 N   0  0  0  0  0  0  0  0  0  0  0  0
   57.9330   29.5760   43.5122 H   0  0  0  0  0  0  0  0  0  0  0  0
   59.1131   27.3706   43.5152 H   0  0  0  0  0  0  0  0  0  0  0  0
   59.2022   22.8522   45.6788 H   0  0  0  0  0  0  0  0  0  0  0  0
   58.2663   20.6497   44.9795 H   0  0  0  0  0  0  0  0  0  0  0  0
   56.7000   19.4250   43.4980 H   0  0  0  0  0  0  0  0  0  0  0  0
   56.3132   24.8776   43.1707 H   0  0  0  0  0  0  0  0  0  0  0  0
   56.1179   25.8277   46.2322 H   0  0  0  0  0  0  0  0  0  0  0  0
  1  2  2  0
  2  3  1  0
  3  4  2  0
  4  5  1  0
  5  6  1  0
  6  7  1  0
  7  8  2  0
  8  9  1  0
  9 10  2  0
 10 11  1  0
 10 12  1  0
 12 13  1  0
 12 14  2  0
  5 15  2  0
 15 16  1  0
 16  2  1  0
 14  7  1  0
  3 17  1  0
  4 18  1  0
  8 19  1  0
  9 20  1  0
 11 21  1  0
 14 22  1  0
 15 23  1  0
M  CHG  1  16  -1
M  END
>  <UniqueID>  (67) 
55

>  <SMILES>  (67) 
O=c1ccc(Oc2ccc(O)c(F)c2)c[n-]1

>  <Energy>  (67) 
31.139224443979963

>  <Genealogy>  (67) 
O=c1ccc(Oc2ccc(O)c(F)c2)c[n-]1 (protonated)
O=c1ccc(Oc2ccc(O)c(F)c2)c[n-]1 (3D coordinates assigned)
O=c1ccc(Oc2ccc(O)c(F)c2)c[n-]1 (optimized conformer: 31.139224443979963 kcal/mol)

>  <smiles>  (67) 
O=c1ccc(Oc2ccc(O)c(F)c2)c[nH]1

>  <score_type>  (67) 
oracle

>  <origin>  (67) 
adg

>  <m_score__min__energy>  (67) 
-8.0500000000000007

>  <m_primary>  (67) 
energy

$$$$
67:0
     RDKit          3D

 33 35  0  0  0  0  0  0  0  0999 V2000
   56.2660   25.1720   47.2780 O   0  0  0  0  0  0  0  0  0  0  0  0
   55.9900   25.6720   46.1560 C   0  0  0  0  0  0  0  0  0  0  0  0
   54.7890   26.3470   45.9790 O   0  0  0  0  0  0  0  0  0  0  0  0
   56.9750   25.5950   45.0380 C   0  0  0  0  0  0  0  0  0  0  0  0
   58.0000   26.5630   45.2490 O   0  0  0  0  0  0  0  0  0  0  0  0
   57.7920   27.9500   45.2420 C   0  0  0  0  0  0  0  0  0  0  0  0
   57.0470   28.5980   44.2390 C   0  0  0  0  0  0  0  0  0  0  0  0
   56.8720   29.9840   44.2750 C   0  0  0  0  0  0  0  0  0  0  0  0
   57.4520   30.7460   45.3040 C   0  0  0  0  0  0  0  0  0  0  0  0
   57.2860   32.1690   45.3760 N   0  0  0  0  0  0  0  0  0  0  0  0
   58.3220   33.1510   45.2290 C   0  0  0  0  0  0  0  0  0  0  0  0
   58.4090   33.7770   44.1390 O   0  0  0  0  0  0  0  0  0  0  0  0
   59.2520   33.4840   46.3330 C   0  0  0  0  0  0  0  0  0  0  0  0
   58.7860   34.2100   47.4570 C   0  0  0  0  0  0  0  0  0  0  0  0
   59.6530   34.5370   48.5140 C   0  0  0  0  0  0  0  0  0  0  0  0
   60.9820   34.1240   48.4430 C   0  0  0  0  0  0  0  0  0  0  0  0
   61.9160   34.3770   49.3960 N   0  0  0  0  0  0  0  0  0  0  0  0
   63.1180   33.8480   49.0570 C   0  0  0  0  0  0  0  0  0  0  0  0
   63.0590   33.0510   47.5650 S   0  0  0  0  0  0  0  0  0  0  0  0
   61.4320   33.4020   47.3530 C   0  0  0  0  0  0  0  0  0  0  0  0
   60.5990   33.0610   46.2920 C   0  0  0  0  0  0  0  0  0  0  0  0
   58.1720   30.0960   46.3140 C   0  0  0  0  0  0  0  0  0  0  0  0
   58.3460   28.7110   46.2790 C   0  0  0  0  0  0  0  0  0  0  0  0
   57.4194   24.5892   45.0078 H   0  0  0  0  0  0  0  0  0  0  0  0
   56.4671   25.7966   44.0833 H   0  0  0  0  0  0  0  0  0  0  0  0
   56.6005   28.0108   43.4230 H   0  0  0  0  0  0  0  0  0  0  0  0
   56.2775   30.4811   43.4943 H   0  0  0  0  0  0  0  0  0  0  0  0
   57.7321   34.5218   47.5030 H   0  0  0  0  0  0  0  0  0  0  0  0
   59.2892   35.1081   49.3809 H   0  0  0  0  0  0  0  0  0  0  0  0
   64.0229   33.9274   49.6774 H   0  0  0  0  0  0  0  0  0  0  0  0
   60.9802   32.4762   45.4419 H   0  0  0  0  0  0  0  0  0  0  0  0
   58.6033   30.6802   47.1402 H   0  0  0  0  0  0  0  0  0  0  0  0
   58.9230   28.2135   47.0725 H   0  0  0  0  0  0  0  0  0  0  0  0
  1  2  2  0
  2  3  1  0
  2  4  1  0
  4  5  1  0
  5  6  1  0
  6  7  2  0
  7  8  1  0
  8  9  2  0
  9 10  1  0
 10 11  1  0
 11 12  2  0
 11 13  1  0
 13 14  2  0
 14 15  1  0
 15 16  2  0
 16 17  1  0
 17 18  2  0
 18 19  1  0
 19 20  1  0
 20 21  2  0
  9 22  1  0
 22 23  2  0
 23  6  1  0
 21 13  1  0
 20 16  1  0
  4 24  1  0
  4 25  1  0
  7 26  1  0
  8 27  1  0
 14 28  1  0
 15 29  1  0
 18 30  1  0
 21 31  1  0
 22 32  1  0
 23 33  1  0
M  CHG  2   3  -1  10  -1
M  END
>  <UniqueID>  (68) 
56

>  <SMILES>  (68) 
O=C([O-])COc1ccc([N-]C(=O)c2ccc3ncsc3c2)cc1

>  <Energy>  (68) 
74.96962051334562

>  <Genealogy>  (68) 
O=C([O-])COc1ccc([N-]C(=O)c2ccc3ncsc3c2)cc1 (protonated)
O=C([O-])COc1ccc([N-]C(=O)c2ccc3ncsc3c2)cc1 (3D coordinates assigned)
O=C([O-])COc1ccc([N-]C(=O)c2ccc3ncsc3c2)cc1 (optimized conformer: 74.96962051334562 kcal/mol)

>  <smiles>  (68) 
O=C(O)COc1ccc(NC(=O)c2ccc3ncsc3c2)cc1

>  <score_type>  (68) 
oracle

>  <origin>  (68) 
adg

>  <m_score__min__energy>  (68) 
-11.710000000000001

>  <m_primary>  (68) 
energy

$$$$
68:0
     RDKit          3D

 22 23  0  0  0  0  0  0  0  0999 V2000
   55.5140   30.0330   44.5050 N   0  0  0  0  0  0  0  0  0  0  0  0
   56.2120   29.1570   44.7950 C   0  0  0  0  0  0  0  0  0  0  0  0
   57.0810   28.0660   45.1570 C   0  0  0  0  0  0  0  0  0  0  0  0
   58.4480   28.0440   44.9000 C   0  0  0  0  0  0  0  0  0  0  0  0
   59.2530   29.0890   44.3320 N   0  0  0  0  0  0  0  0  0  0  0  0
   59.2300   30.2410   45.1980 C   0  0  0  0  0  0  0  0  0  0  0  0
   59.9800   30.2550   46.3860 C   0  0  0  0  0  0  0  0  0  0  0  0
   59.9800   31.3850   47.2080 C   0  0  0  0  0  0  0  0  0  0  0  0
   59.2370   32.5150   46.8540 C   0  0  0  0  0  0  0  0  0  0  0  0
   59.2630   33.9190   47.9140 Cl  0  0  0  0  0  0  0  0  0  0  0  0
   58.4880   32.5140   45.6660 C   0  0  0  0  0  0  0  0  0  0  0  0
   57.5450   33.9170   45.1810 Cl  0  0  0  0  0  0  0  0  0  0  0  0
   58.4890   31.3820   44.8440 C   0  0  0  0  0  0  0  0  0  0  0  0
   59.0060   26.6020   45.5280 S   0  0  0  0  0  0  0  0  0  0  0  0
   57.5810   25.9630   46.1000 N   0  0  0  0  0  0  0  0  0  0  0  0
   56.6360   26.8960   45.8130 C   0  0  0  0  0  0  0  0  0  0  0  0
   55.4290   26.7160   46.1260 O   0  0  0  0  0  0  0  0  0  0  0  0
   58.8970   29.3340   43.3800 H   0  0  0  0  0  0  0  0  0  0  0  0
   60.2350   28.7440   44.2230 H   0  0  0  0  0  0  0  0  0  0  0  0
   60.5704   29.3716   46.6706 H   0  0  0  0  0  0  0  0  0  0  0  0
   60.5674   31.3854   48.1380 H   0  0  0  0  0  0  0  0  0  0  0  0
   57.9046   31.3847   43.9121 H   0  0  0  0  0  0  0  0  0  0  0  0
  1  2  3  0
  2  3  1  0
  3  4  2  0
  4  5  1  0
  5  6  1  0
  6  7  2  0
  7  8  1  0
  8  9  2  0
  9 10  1  0
  9 11  1  0
 11 12  1  0
 11 13  2  0
  4 14  1  0
 14 15  1  0
 15 16  1  0
 16 17  2  0
 16  3  1  0
 13  6  1  0
  5 18  1  0
  5 19  1  0
  7 20  1  0
  8 21  1  0
 13 22  1  0
M  CHG  2   5   1  15  -1
M  END
>  <UniqueID>  (69) 
57

>  <SMILES>  (69) 
N#Cc1c([NH2+]c2ccc(Cl)c(Cl)c2)s[n-]c1=O

>  <Energy>  (69) 
57.50981446091635

>  <Genealogy>  (69) 
N#Cc1c([NH2+]c2ccc(Cl)c(Cl)c2)s[n-]c1=O (protonated)
N#Cc1c([NH2+]c2ccc(Cl)c(Cl)c2)s[n-]c1=O (3D coordinates assigned)
N#Cc1c([NH2+]c2ccc(Cl)c(Cl)c2)s[n-]c1=O (optimized conformer: 57.50981446091635 kcal/mol)

>  <smiles>  (69) 
N#Cc1c(Nc2ccc(Cl)c(Cl)c2)s[nH]c1=O

>  <score_type>  (69) 
oracle

>  <origin>  (69) 
adg

>  <m_score__min__energy>  (69) 
-7.7300000000000004

>  <m_primary>  (69) 
energy

$$$$
69:0
     RDKit          3D

 46 47  0  0  0  0  0  0  0  0999 V2000
   60.2069   25.7464   48.1035 H   0  0  0  0  0  0  0  0  0  0  0  0
   60.0370   26.8330   48.0800 C   0  0  0  0  0  0  0  0  0  0  0  0
   59.4820   27.4240   46.9400 C   0  0  0  0  0  0  0  0  0  0  0  0
   59.2138   26.7984   46.0759 H   0  0  0  0  0  0  0  0  0  0  0  0
   59.2640   28.8160   46.8910 C   0  0  0  0  0  0  0  0  0  0  0  0
   58.6500   29.4850   45.7050 C   0  0  0  0  0  0  0  0  0  0  0  0
   59.4050   30.0120   44.8400 O   0  0  0  0  0  0  0  0  0  0  0  0
   57.2280   29.5730   45.5250 N   0  0  0  0  0  0  0  0  0  0  0  0
   56.5910   28.9210   46.0260 H   0  0  0  0  0  0  0  0  0  0  0  0
   56.6420   30.3200   44.4520 C   0  0  0  0  0  0  0  0  0  0  0  0
   56.6900   31.6220   44.4210 N   0  0  0  0  0  0  0  0  0  0  0  0
   57.8810   32.4500   44.2240 C   0  0  0  0  0  0  0  0  0  0  0  0
   57.5914   33.3792   43.7114 H   0  0  0  0  0  0  0  0  0  0  0  0
   58.6038   31.8828   43.6191 H   0  0  0  0  0  0  0  0  0  0  0  0
   58.5280   32.7960   45.5420 C   0  0  0  0  0  0  0  0  0  0  0  0
   59.7840   33.4200   45.5820 C   0  0  0  0  0  0  0  0  0  0  0  0
   60.2972   33.6706   44.6419 H   0  0  0  0  0  0  0  0  0  0  0  0
   60.3930   33.7280   46.8090 C   0  0  0  0  0  0  0  0  0  0  0  0
   61.6450   34.3590   46.8700 O   0  0  0  0  0  0  0  0  0  0  0  0
   62.8580   33.8110   46.3640 C   0  0  0  0  0  0  0  0  0  0  0  0
   63.5062   33.5182   47.2031 H   0  0  0  0  0  0  0  0  0  0  0  0
   62.6327   32.9273   45.7490 H   0  0  0  0  0  0  0  0  0  0  0  0
   63.3722   34.5642   45.7490 H   0  0  0  0  0  0  0  0  0  0  0  0
   59.7510   33.4010   48.0170 C   0  0  0  0  0  0  0  0  0  0  0  0
   60.4410   33.7190   49.2050 O   0  0  0  0  0  0  0  0  0  0  0  0
   61.6850   33.1690   49.6350 C   0  0  0  0  0  0  0  0  0  0  0  0
   61.7188   33.1540   50.7344 H   0  0  0  0  0  0  0  0  0  0  0  0
   61.7845   32.1430   49.2511 H   0  0  0  0  0  0  0  0  0  0  0  0
   62.5109   33.7859   49.2511 H   0  0  0  0  0  0  0  0  0  0  0  0
   58.4700   32.7830   47.9880 C   0  0  0  0  0  0  0  0  0  0  0  0
   57.8220   32.4460   49.1880 O   0  0  0  0  0  0  0  0  0  0  0  0
   58.4580   31.8830   50.3370 C   0  0  0  0  0  0  0  0  0  0  0  0
   57.9968   32.2913   51.2483 H   0  0  0  0  0  0  0  0  0  0  0  0
   58.3381   30.7896   50.3236 H   0  0  0  0  0  0  0  0  0  0  0  0
   59.5287   32.1346   50.3236 H   0  0  0  0  0  0  0  0  0  0  0  0
   57.8700   32.5060   46.7430 C   0  0  0  0  0  0  0  0  0  0  0  0
   56.8675   32.0542   46.7147 H   0  0  0  0  0  0  0  0  0  0  0  0
   55.8810   29.6260   43.4590 N   0  0  0  0  0  0  0  0  0  0  0  0
   55.7820   28.5850   43.5050 H   0  0  0  0  0  0  0  0  0  0  0  0
   55.4080   30.1470   42.6870 H   0  0  0  0  0  0  0  0  0  0  0  0
   59.6070   29.5890   48.0240 C   0  0  0  0  0  0  0  0  0  0  0  0
   59.4371   30.6757   48.0117 H   0  0  0  0  0  0  0  0  0  0  0  0
   60.1590   28.9900   49.1590 C   0  0  0  0  0  0  0  0  0  0  0  0
   60.4224   29.6058   50.0315 H   0  0  0  0  0  0  0  0  0  0  0  0
   60.3770   27.6110   49.1880 C   0  0  0  0  0  0  0  0  0  0  0  0
   61.1440   26.7950   50.7350 Br  0  0  0  0  0  0  0  0  0  0  0  0
  1  2  1  0
  2  3  2  0
  3  4  1  0
  3  5  1  0
  5  6  1  0
  6  7  2  0
  6  8  1  0
  8  9  1  0
  8 10  1  0
 10 11  2  0
 11 12  1  0
 12 13  1  0
 12 14  1  0
 12 15  1  0
 15 16  2  0
 16 17  1  0
 16 18  1  0
 18 19  1  0
 19 20  1  0
 20 21  1  0
 20 22  1  0
 20 23  1  0
 18 24  2  0
 24 25  1  0
 25 26  1  0
 26 27  1  0
 26 28  1  0
 26 29  1  0
 24 30  1  0
 30 31  1  0
 31 32  1  0
 32 33  1  0
 32 34  1  0
 32 35  1  0
 30 36  2  0
 36 37  1  0
 10 38  1  0
 38 39  1  0
 38 40  1  0
  5 41  2  0
 41 42  1  0
 41 43  1  0
 43 44  1  0
 43 45  2  0
 45 46  1  0
 45  2  1  0
 36 15  1  0
M  END
>  <UniqueID>  (70) 
58

>  <SMILES>  (70) 
COc1cc(C/N=C(/N)NC(=O)c2ccc(Br)cc2)cc(OC)c1OC

>  <Energy>  (70) 
51.16153851988881

>  <Genealogy>  (70) 
COc1cc(C/N=C(/N)NC(=O)c2ccc(Br)cc2)cc(OC)c1OC (cis-trans isomerization)
COc1cc(C/N=C(/N)NC(=O)c2ccc(Br)cc2)cc(OC)c1OC (3D coordinates assigned)
COc1cc(C/N=C(/N)NC(=O)c2ccc(Br)cc2)cc(OC)c1OC (optimized conformer: 51.16153851988881 kcal/mol)

>  <smiles>  (70) 
COc1cc(CN=C(N)NC(=O)c2ccc(Br)cc2)cc(OC)c1OC

>  <score_type>  (70) 
oracle

>  <origin>  (70) 
adg

>  <m_score__min__energy>  (70) 
-7.2999999999999998

>  <m_primary>  (70) 
energy

$$$$
70:0
     RDKit          3D

 46 49  0  0  0  0  0  0  0  0999 V2000
   59.8430   35.0780   46.4420 C   0  0  0  0  0  0  0  0  0  0  0  0
   59.0360   33.9560   45.8580 C   0  0  0  0  0  0  0  0  0  0  0  0
   58.5010   32.9650   46.6900 C   0  0  0  0  0  0  0  0  0  0  0  0
   57.7760   31.9050   46.1450 C   0  0  0  0  0  0  0  0  0  0  0  0
   57.5830   31.8050   44.7580 C   0  0  0  0  0  0  0  0  0  0  0  0
   56.5860   30.4850   44.1280 S   0  0  0  0  0  0  0  0  0  0  0  0
   55.1470   30.7500   44.4720 O   0  0  0  0  0  0  0  0  0  0  0  0
   56.7160   30.3850   42.6330 O   0  0  0  0  0  0  0  0  0  0  0  0
   57.0920   28.9860   44.8310 N   0  0  0  0  0  0  0  0  0  0  0  0
   56.2510   28.0490   45.2530 N   0  0  0  0  0  0  0  0  0  0  0  0
   56.9780   27.0670   45.8350 C   0  0  0  0  0  0  0  0  0  0  0  0
   56.3790   25.8940   46.4910 C   0  0  0  0  0  0  0  0  0  0  0  0
   55.1570   25.6500   46.3130 O   0  0  0  0  0  0  0  0  0  0  0  0
   57.1490   25.0160   47.3240 N   0  0  0  0  0  0  0  0  0  0  0  0
   57.0370   23.5840   47.3610 C   0  0  0  0  0  0  0  0  0  0  0  0
   56.5530   22.9180   48.5040 C   0  0  0  0  0  0  0  0  0  0  0  0
   56.4590   21.5250   48.5210 C   0  0  0  0  0  0  0  0  0  0  0  0
   56.8270   20.7850   47.3950 C   0  0  0  0  0  0  0  0  0  0  0  0
   57.2830   21.4370   46.2470 C   0  0  0  0  0  0  0  0  0  0  0  0
   57.3820   22.8340   46.2240 C   0  0  0  0  0  0  0  0  0  0  0  0
   57.9720   23.6260   44.7700 Cl  0  0  0  0  0  0  0  0  0  0  0  0
   58.3220   27.4020   45.7610 C   0  0  0  0  0  0  0  0  0  0  0  0
   59.4880   26.7530   46.1660 C   0  0  0  0  0  0  0  0  0  0  0  0
   60.7130   27.4030   45.9280 C   0  0  0  0  0  0  0  0  0  0  0  0
   60.7430   28.6630   45.2880 C   0  0  0  0  0  0  0  0  0  0  0  0
   59.5500   29.2830   44.8750 C   0  0  0  0  0  0  0  0  0  0  0  0
   58.3500   28.6140   45.1290 C   0  0  0  0  0  0  0  0  0  0  0  0
   58.1510   32.7860   43.9080 C   0  0  0  0  0  0  0  0  0  0  0  0
   58.0230   32.7180   42.4810 N   0  0  0  0  0  0  0  0  0  0  0  0
   58.8720   33.8520   44.4700 C   0  0  0  0  0  0  0  0  0  0  0  0
   59.8045   35.0245   47.5400 H   0  0  0  0  0  0  0  0  0  0  0  0
   60.8872   34.9916   46.1071 H   0  0  0  0  0  0  0  0  0  0  0  0
   59.4289   36.0405   46.1071 H   0  0  0  0  0  0  0  0  0  0  0  0
   58.6530   33.0225   47.7779 H   0  0  0  0  0  0  0  0  0  0  0  0
   57.3506   31.1387   46.8097 H   0  0  0  0  0  0  0  0  0  0  0  0
   56.2477   23.4981   49.3873 H   0  0  0  0  0  0  0  0  0  0  0  0
   56.0948   21.0098   49.4221 H   0  0  0  0  0  0  0  0  0  0  0  0
   56.7576   19.6873   47.4123 H   0  0  0  0  0  0  0  0  0  0  0  0
   57.5650   20.8521   45.3591 H   0  0  0  0  0  0  0  0  0  0  0  0
   59.4513   25.7679   46.6542 H   0  0  0  0  0  0  0  0  0  0  0  0
   61.6538   26.9274   46.2421 H   0  0  0  0  0  0  0  0  0  0  0  0
   61.7070   29.1626   45.1116 H   0  0  0  0  0  0  0  0  0  0  0  0
   59.5613   30.2601   44.3699 H   0  0  0  0  0  0  0  0  0  0  0  0
   57.1230   32.4180   42.0460 H   0  0  0  0  0  0  0  0  0  0  0  0
   58.7820   33.0210   41.8370 H   0  0  0  0  0  0  0  0  0  0  0  0
   59.3137   34.6152   43.8124 H   0  0  0  0  0  0  0  0  0  0  0  0
  1  2  1  0
  2  3  2  0
  3  4  1  0
  4  5  2  0
  5  6  1  0
  6  7  2  0
  6  8  2  0
  6  9  1  0
  9 10  1  0
 10 11  2  0
 11 12  1  0
 12 13  2  0
 12 14  1  0
 14 15  1  0
 15 16  2  0
 16 17  1  0
 17 18  2  0
 18 19  1  0
 19 20  2  0
 20 21  1  0
 11 22  1  0
 22 23  2  0
 23 24  1  0
 24 25  2  0
 25 26  1  0
 26 27  2  0
  5 28  1  0
 28 29  1  0
 28 30  2  0
 30  2  1  0
 27  9  1  0
 20 15  1  0
 27 22  1  0
  1 31  1  0
  1 32  1  0
  1 33  1  0
  3 34  1  0
  4 35  1  0
 16 36  1  0
 17 37  1  0
 18 38  1  0
 19 39  1  0
 23 40  1  0
 24 41  1  0
 25 42  1  0
 26 43  1  0
 29 44  1  0
 29 45  1  0
 30 46  1  0
M  CHG  1  14  -1
M  END
>  <UniqueID>  (71) 
59

>  <SMILES>  (71) 
Cc1ccc(S(=O)(=O)n2nc(C(=O)[N-]c3ccccc3Cl)c3ccccc32)c(N)c1

>  <Energy>  (71) 
97.41850756824715

>  <Genealogy>  (71) 
Cc1ccc(S(=O)(=O)n2nc(C(=O)[N-]c3ccccc3Cl)c3ccccc32)c(N)c1 (protonated)
Cc1ccc(S(=O)(=O)n2nc(C(=O)[N-]c3ccccc3Cl)c3ccccc32)c(N)c1 (3D coordinates assigned)
Cc1ccc(S(=O)(=O)n2nc(C(=O)[N-]c3ccccc3Cl)c3ccccc32)c(N)c1 (optimized conformer: 97.41850756824715 kcal/mol)

>  <smiles>  (71) 
Cc1ccc(S(=O)(=O)n2nc(C(=O)Nc3ccccc3Cl)c3ccccc32)c(N)c1

>  <score_type>  (71) 
oracle

>  <origin>  (71) 
adg

>  <m_score__min__energy>  (71) 
-11.130000000000001

>  <m_primary>  (71) 
energy

$$$$
71:0
     RDKit          3D

 22 24  0  0  0  0  0  0  0  0999 V2000
   55.6740   23.8770   48.3780 H   0  0  0  0  0  0  0  0  0  0  0  0
   56.1550   23.9850   47.4570 N   0  0  0  0  0  0  0  0  0  0  0  0
   56.6100   25.1310   47.0700 C   0  0  0  0  0  0  0  0  0  0  0  0
   55.8910   25.9800   46.3030 N   0  0  0  0  0  0  0  0  0  0  0  0
   56.6050   27.1050   46.0450 C   0  0  0  0  0  0  0  0  0  0  0  0
   57.8720   27.1530   46.5980 C   0  0  0  0  0  0  0  0  0  0  0  0
   58.1400   25.7320   47.4560 S   0  0  0  0  0  0  0  0  0  0  0  0
   58.8180   28.3010   46.4330 C   0  0  0  0  0  0  0  0  0  0  0  0
   59.0625   28.7025   47.4275 H   0  0  0  0  0  0  0  0  0  0  0  0
   59.7139   27.9246   45.9176 H   0  0  0  0  0  0  0  0  0  0  0  0
   58.2340   29.4180   45.5870 C   0  0  0  0  0  0  0  0  0  0  0  0
   59.0120   30.5620   45.3480 C   0  0  0  0  0  0  0  0  0  0  0  0
   60.0244   30.6317   45.7724 H   0  0  0  0  0  0  0  0  0  0  0  0
   58.5110   31.6120   44.5760 C   0  0  0  0  0  0  0  0  0  0  0  0
   59.1291   32.5039   44.3960 H   0  0  0  0  0  0  0  0  0  0  0  0
   57.2280   31.5330   44.0320 C   0  0  0  0  0  0  0  0  0  0  0  0
   56.8373   32.3625   43.4243 H   0  0  0  0  0  0  0  0  0  0  0  0
   56.4390   30.4020   44.2580 C   0  0  0  0  0  0  0  0  0  0  0  0
   55.4289   30.3440   43.8262 H   0  0  0  0  0  0  0  0  0  0  0  0
   56.9290   29.3400   45.0330 C   0  0  0  0  0  0  0  0  0  0  0  0
   56.1050   28.1840   45.2570 N   0  0  0  0  0  0  0  0  0  0  0  0
   55.1440   28.1240   44.8500 H   0  0  0  0  0  0  0  0  0  0  0  0
  1  2  1  0
  2  3  2  0
  3  4  1  0
  4  5  1  0
  5  6  2  0
  6  7  1  0
  6  8  1  0
  8  9  1  0
  8 10  1  0
  8 11  1  0
 11 12  2  0
 12 13  1  0
 12 14  1  0
 14 15  1  0
 14 16  2  0
 16 17  1  0
 16 18  1  0
 18 19  1  0
 18 20  2  0
 20 21  1  0
 21 22  1  0
  7  3  1  0
 20 11  1  0
 21  5  1  0
M  CHG  1   4  -1
M  END
>  <UniqueID>  (72) 
60

>  <SMILES>  (72) 
[H]/N=c1/[n-]c2c(s1)Cc1ccccc1N2

>  <Energy>  (72) 
57.21172948686959

>  <Genealogy>  (72) 
N=c1[n-]c2c(s1)Cc1ccccc1N2 (protonated)
[H]/N=c1/[n-]c2c(s1)Cc1ccccc1N2 (cis-trans isomerization)
[H]/N=c1/[n-]c2c(s1)Cc1ccccc1N2 (3D coordinates assigned)
[H]/N=c1/[n-]c2c(s1)Cc1ccccc1N2 (nonaromatic ring conformer: 57.21172948686959 kcal/mol)

>  <smiles>  (72) 
N=c1[nH]c2c(s1)Cc1ccccc1N2

>  <score_type>  (72) 
oracle

>  <origin>  (72) 
adg

>  <m_score__min__energy>  (72) 
-7.9000000000000004

>  <m_primary>  (72) 
energy

$$$$
72:0
     RDKit          3D

 34 35  0  0  0  0  0  0  0  0999 V2000
   58.4750   30.8870   43.7710 C   0  0  0  0  0  0  0  0  0  0  0  0
   57.5470   30.9680   45.0070 C   0  0  0  0  0  0  0  0  0  0  0  0
   57.8840   32.2280   45.8370 C   0  0  0  0  0  0  0  0  0  0  0  0
   56.1050   31.1570   44.4690 C   0  0  0  0  0  0  0  0  0  0  0  0
   57.7120   29.6920   45.8810 C   0  0  0  0  0  0  0  0  0  0  0  0
   58.7210   29.6040   46.8700 C   0  0  0  0  0  0  0  0  0  0  0  0
   58.8800   28.4620   47.6660 C   0  0  0  0  0  0  0  0  0  0  0  0
   59.9170   28.4070   48.6670 N   0  0  0  0  0  0  0  0  0  0  0  0
   60.5930   29.4460   49.2030 C   0  0  0  0  0  0  0  0  0  0  0  0
   61.4910   28.9530   50.1240 C   0  0  0  0  0  0  0  0  0  0  0  0
   61.3760   27.6140   50.1610 N   0  0  0  0  0  0  0  0  0  0  0  0
   60.4150   27.3050   49.2710 C   0  0  0  0  0  0  0  0  0  0  0  0
   58.0220   27.3740   47.4780 C   0  0  0  0  0  0  0  0  0  0  0  0
   57.0090   27.4090   46.5100 C   0  0  0  0  0  0  0  0  0  0  0  0
   56.1240   26.2210   46.3590 C   0  0  0  0  0  0  0  0  0  0  0  0
   56.5570   25.0560   46.5560 O   0  0  0  0  0  0  0  0  0  0  0  0
   54.7930   26.3810   45.9930 O   0  0  0  0  0  0  0  0  0  0  0  0
   56.8540   28.5670   45.7130 C   0  0  0  0  0  0  0  0  0  0  0  0
   55.8490   28.5920   44.7540 O   0  0  0  0  0  0  0  0  0  0  0  0
   59.5199   30.7958   44.1024 H   0  0  0  0  0  0  0  0  0  0  0  0
   58.2042   30.0091   43.1661 H   0  0  0  0  0  0  0  0  0  0  0  0
   58.3604   31.7986   43.1661 H   0  0  0  0  0  0  0  0  0  0  0  0
   57.8201   31.9890   46.9088 H   0  0  0  0  0  0  0  0  0  0  0  0
   58.9035   32.5637   45.5964 H   0  0  0  0  0  0  0  0  0  0  0  0
   57.1682   33.0278   45.5964 H   0  0  0  0  0  0  0  0  0  0  0  0
   55.4073   31.2485   45.3145 H   0  0  0  0  0  0  0  0  0  0  0  0
   56.0591   32.0688   43.8555 H   0  0  0  0  0  0  0  0  0  0  0  0
   55.8257   30.2878   43.8555 H   0  0  0  0  0  0  0  0  0  0  0  0
   59.3998   30.4568   47.0178 H   0  0  0  0  0  0  0  0  0  0  0  0
   60.4507   30.5064   48.9474 H   0  0  0  0  0  0  0  0  0  0  0  0
   62.1861   29.5544   50.7283 H   0  0  0  0  0  0  0  0  0  0  0  0
   61.9210   26.9500   50.7550 H   0  0  0  0  0  0  0  0  0  0  0  0
   60.0759   26.2800   49.0606 H   0  0  0  0  0  0  0  0  0  0  0  0
   58.1442   26.4753   48.1004 H   0  0  0  0  0  0  0  0  0  0  0  0
  1  2  1  0
  2  3  1  0
  2  4  1  0
  2  5  1  0
  5  6  2  0
  6  7  1  0
  7  8  1  0
  8  9  1  0
  9 10  2  0
 10 11  1  0
 11 12  2  0
  7 13  2  0
 13 14  1  0
 14 15  1  0
 15 16  2  0
 15 17  1  0
 14 18  2  0
 18 19  1  0
 18  5  1  0
 12  8  1  0
  1 20  1  0
  1 21  1  0
  1 22  1  0
  3 23  1  0
  3 24  1  0
  3 25  1  0
  4 26  1  0
  4 27  1  0
  4 28  1  0
  6 29  1  0
  9 30  1  0
 10 31  1  0
 11 32  1  0
 12 33  1  0
 13 34  1  0
M  CHG  3  11   1  17  -1  19  -1
M  END
>  <UniqueID>  (73) 
61

>  <SMILES>  (73) 
CC(C)(C)c1cc(-n2cc[nH+]c2)cc(C(=O)[O-])c1[O-]

>  <Energy>  (73) 
75.68148644859247

>  <Genealogy>  (73) 
CC(C)(C)c1cc(-n2cc[nH+]c2)cc(C(=O)[O-])c1[O-] (protonated)
CC(C)(C)c1cc(-n2cc[nH+]c2)cc(C(=O)[O-])c1[O-] (3D coordinates assigned)
CC(C)(C)c1cc(-n2cc[nH+]c2)cc(C(=O)[O-])c1[O-] (optimized conformer: 75.68148644859247 kcal/mol)

>  <smiles>  (73) 
CC(C)(C)c1cc(-n2ccnc2)cc(C(=O)O)c1O

>  <score_type>  (73) 
oracle

>  <origin>  (73) 
adg

>  <m_score__min__energy>  (73) 
-8.9399999999999995

>  <m_primary>  (73) 
energy

$$$$
73:0
     RDKit          3D

 42 44  0  0  0  0  0  0  0  0999 V2000
   59.6200   34.9460   46.0020 C   0  0  0  0  0  0  0  0  0  0  0  0
   58.8310   33.7540   45.5460 C   0  0  0  0  0  0  0  0  0  0  0  0
   58.5040   32.7340   46.4520 C   0  0  0  0  0  0  0  0  0  0  0  0
   57.8020   31.6050   46.0190 C   0  0  0  0  0  0  0  0  0  0  0  0
   57.4340   31.4720   44.6720 C   0  0  0  0  0  0  0  0  0  0  0  0
   56.6820   30.2510   44.2120 C   0  0  0  0  0  0  0  0  0  0  0  0
   56.3520   29.3950   45.3500 N   0  0  0  0  0  0  0  0  0  0  0  0
   57.0520   28.1760   45.6370 C   0  0  0  0  0  0  0  0  0  0  0  0
   58.4220   27.9860   45.6620 C   0  0  0  0  0  0  0  0  0  0  0  0
   58.6010   26.6530   45.9860 C   0  0  0  0  0  0  0  0  0  0  0  0
   59.8470   26.0550   46.1610 O   0  0  0  0  0  0  0  0  0  0  0  0
   57.4120   26.0250   46.1470 N   0  0  0  0  0  0  0  0  0  0  0  0
   57.1810   24.6400   46.4520 C   0  0  0  0  0  0  0  0  0  0  0  0
   56.7470   24.2570   47.7300 C   0  0  0  0  0  0  0  0  0  0  0  0
   56.5300   22.9090   48.0250 C   0  0  0  0  0  0  0  0  0  0  0  0
   56.7530   21.9320   47.0520 C   0  0  0  0  0  0  0  0  0  0  0  0
   57.2140   22.2980   45.7790 C   0  0  0  0  0  0  0  0  0  0  0  0
   57.4200   21.2540   44.7210 C   0  0  0  0  0  0  0  0  0  0  0  0
   57.4140   23.6540   45.4790 C   0  0  0  0  0  0  0  0  0  0  0  0
   56.4670   26.9630   45.9340 C   0  0  0  0  0  0  0  0  0  0  0  0
   55.0980   26.7240   45.9890 O   0  0  0  0  0  0  0  0  0  0  0  0
   57.7710   32.4890   43.7630 C   0  0  0  0  0  0  0  0  0  0  0  0
   58.4740   33.6170   44.1960 C   0  0  0  0  0  0  0  0  0  0  0  0
   59.6388   34.9745   47.1015 H   0  0  0  0  0  0  0  0  0  0  0  0
   60.6487   34.8730   45.6194 H   0  0  0  0  0  0  0  0  0  0  0  0
   59.1509   35.8644   45.6194 H   0  0  0  0  0  0  0  0  0  0  0  0
   58.8011   32.8228   47.5074 H   0  0  0  0  0  0  0  0  0  0  0  0
   57.5368   30.8166   46.7388 H   0  0  0  0  0  0  0  0  0  0  0  0
   55.7530   30.5644   43.7132 H   0  0  0  0  0  0  0  0  0  0  0  0
   57.3152   29.6853   43.5127 H   0  0  0  0  0  0  0  0  0  0  0  0
   55.5830   29.6960   45.9910 H   0  0  0  0  0  0  0  0  0  0  0  0
   59.2030   28.7354   45.4660 H   0  0  0  0  0  0  0  0  0  0  0  0
   60.7090   26.5760   46.0700 H   0  0  0  0  0  0  0  0  0  0  0  0
   56.5770   25.0212   48.5027 H   0  0  0  0  0  0  0  0  0  0  0  0
   56.1824   22.6160   49.0267 H   0  0  0  0  0  0  0  0  0  0  0  0
   56.5666   20.8732   47.2847 H   0  0  0  0  0  0  0  0  0  0  0  0
   57.6119   20.2815   45.1979 H   0  0  0  0  0  0  0  0  0  0  0  0
   56.5184   21.1837   44.0948 H   0  0  0  0  0  0  0  0  0  0  0  0
   58.2807   21.5315   44.0948 H   0  0  0  0  0  0  0  0  0  0  0  0
   57.7555   23.9469   44.4752 H   0  0  0  0  0  0  0  0  0  0  0  0
   57.4804   32.3972   42.7061 H   0  0  0  0  0  0  0  0  0  0  0  0
   58.7486   34.4010   43.4749 H   0  0  0  0  0  0  0  0  0  0  0  0
  1  2  1  0
  2  3  2  0
  3  4  1  0
  4  5  2  0
  5  6  1  0
  6  7  1  0
  7  8  1  0
  8  9  1  0
  9 10  2  0
 10 11  1  0
 10 12  1  0
 12 13  1  0
 13 14  2  0
 14 15  1  0
 15 16  2  0
 16 17  1  0
 17 18  1  0
 17 19  2  0
 12 20  1  0
 20 21  1  0
  5 22  1  0
 22 23  2  0
 23  2  1  0
 20  8  2  0
 19 13  1  0
  1 24  1  0
  1 25  1  0
  1 26  1  0
  3 27  1  0
  4 28  1  0
  6 29  1  0
  6 30  1  0
  7 31  1  0
  9 32  1  0
 11 33  1  0
 14 34  1  0
 15 35  1  0
 16 36  1  0
 18 37  1  0
 18 38  1  0
 18 39  1  0
 19 40  1  0
 22 41  1  0
 23 42  1  0
M  CHG  1  21  -1
M  END
>  <UniqueID>  (74) 
62

>  <SMILES>  (74) 
Cc1ccc(CNc2cc(O)n(-c3cccc(C)c3)c2[O-])cc1

>  <Energy>  (74) 
74.92723702324693

>  <Genealogy>  (74) 
Cc1ccc(CNc2cc(O)n(-c3cccc(C)c3)c2[O-])cc1 (protonated)
Cc1ccc(CNc2cc(O)n(-c3cccc(C)c3)c2[O-])cc1 (3D coordinates assigned)
Cc1ccc(CNc2cc(O)n(-c3cccc(C)c3)c2[O-])cc1 (optimized conformer: 74.92723702324693 kcal/mol)

>  <smiles>  (74) 
Cc1ccc(CNc2cc(O)n(-c3cccc(C)c3)c2O)cc1

>  <score_type>  (74) 
oracle

>  <origin>  (74) 
adg

>  <m_score__min__energy>  (74) 
-11.039999999999999

>  <m_primary>  (74) 
energy

$$$$
74:0
     RDKit          3D

 43 46  0  0  0  0  0  0  0  0999 V2000
   60.6930   27.9820   50.3210 C   0  0  0  0  0  0  0  0  0  0  0  0
   60.1760   28.4020   48.9770 C   0  0  0  0  0  0  0  0  0  0  0  0
   60.3470   27.5720   47.8590 C   0  0  0  0  0  0  0  0  0  0  0  0
   59.8930   27.9800   46.6010 C   0  0  0  0  0  0  0  0  0  0  0  0
   59.2840   29.2370   46.4380 C   0  0  0  0  0  0  0  0  0  0  0  0
   58.7630   29.6840   45.0870 C   0  0  2  0  0  0  0  0  0  0  0  0
   58.2470   31.1400   45.1250 C   0  0  0  0  0  0  0  0  0  0  0  0
   56.8190   31.0440   44.8550 N   0  0  0  0  0  0  0  0  0  0  0  0
   56.5030   29.8200   44.6100 C   0  0  0  0  0  0  0  0  0  0  0  0
   55.1450   29.4150   44.4310 N   0  0  0  0  0  0  0  0  0  0  0  0
   57.5920   28.9100   44.6920 N   0  0  0  0  0  0  0  0  0  0  0  0
   57.6620   27.6020   44.0970 C   0  0  0  0  0  0  0  0  0  0  0  0
   57.4730   26.3940   44.7420 C   0  0  0  0  0  0  0  0  0  0  0  0
   57.5690   25.4600   43.7200 C   0  0  0  0  0  0  0  0  0  0  0  0
   57.4470   23.9890   43.8300 C   0  0  0  0  0  0  0  0  0  0  0  0
   58.1710   23.3020   44.8220 C   0  0  0  0  0  0  0  0  0  0  0  0
   58.0640   21.9130   44.9440 C   0  0  0  0  0  0  0  0  0  0  0  0
   57.2370   21.1950   44.0780 C   0  0  0  0  0  0  0  0  0  0  0  0
   56.5140   21.8650   43.0870 C   0  0  0  0  0  0  0  0  0  0  0  0
   56.6150   23.2540   42.9620 C   0  0  0  0  0  0  0  0  0  0  0  0
   57.7830   26.0960   42.5880 O   0  0  0  0  0  0  0  0  0  0  0  0
   57.8350   27.3800   42.7840 N   0  0  0  0  0  0  0  0  0  0  0  0
   59.1190   30.0670   47.5590 C   0  0  0  0  0  0  0  0  0  0  0  0
   59.5700   29.6560   48.8170 C   0  0  0  0  0  0  0  0  0  0  0  0
   60.0981   28.4652   51.1101 H   0  0  0  0  0  0  0  0  0  0  0  0
   60.6137   26.8893   50.4193 H   0  0  0  0  0  0  0  0  0  0  0  0
   61.7463   28.2835   50.4193 H   0  0  0  0  0  0  0  0  0  0  0  0
   60.8406   26.5955   47.9726 H   0  0  0  0  0  0  0  0  0  0  0  0
   60.0129   27.3139   45.7339 H   0  0  0  0  0  0  0  0  0  0  0  0
   59.6108   29.5595   44.3973 H   0  0  0  0  0  0  0  0  0  0  0  0
   58.4237   31.5866   46.1146 H   0  0  0  0  0  0  0  0  0  0  0  0
   58.7626   31.7791   44.3931 H   0  0  0  0  0  0  0  0  0  0  0  0
   54.3940   30.1310   44.3220 H   0  0  0  0  0  0  0  0  0  0  0  0
   54.8720   28.4110   44.4950 H   0  0  0  0  0  0  0  0  0  0  0  0
   57.2899   26.2154   45.8118 H   0  0  0  0  0  0  0  0  0  0  0  0
   58.8257   23.8615   45.5063 H   0  0  0  0  0  0  0  0  0  0  0  0
   58.6325   21.3851   45.7238 H   0  0  0  0  0  0  0  0  0  0  0  0
   57.1545   20.1024   44.1756 H   0  0  0  0  0  0  0  0  0  0  0  0
   55.8641   21.2983   42.4040 H   0  0  0  0  0  0  0  0  0  0  0  0
   56.0417   23.7760   42.1817 H   0  0  0  0  0  0  0  0  0  0  0  0
   57.9890   28.0900   42.0350 H   0  0  0  0  0  0  0  0  0  0  0  0
   58.6318   31.0468   47.4465 H   0  0  0  0  0  0  0  0  0  0  0  0
   59.4487   30.3200   49.6856 H   0  0  0  0  0  0  0  0  0  0  0  0
  1  2  1  0
  2  3  2  0
  3  4  1  0
  4  5  2  0
  5  6  1  0
  6  7  1  0
  7  8  1  0
  8  9  2  0
  9 10  1  0
  9 11  1  0
 11 12  1  0
 12 13  1  0
 13 14  2  0
 14 15  1  0
 15 16  2  0
 16 17  1  0
 17 18  2  0
 18 19  1  0
 19 20  2  0
 14 21  1  0
 21 22  1  0
  5 23  1  0
 23 24  2  0
 24  2  1  0
 11  6  1  0
 22 12  2  0
 20 15  1  0
  1 25  1  0
  1 26  1  0
  1 27  1  0
  3 28  1  0
  4 29  1  0
  6 30  1  6
  7 31  1  0
  7 32  1  0
 10 33  1  0
 10 34  1  0
 13 35  1  0
 16 36  1  0
 17 37  1  0
 18 38  1  0
 19 39  1  0
 20 40  1  0
 22 41  1  0
 23 42  1  0
 24 43  1  0
M  CHG  1  22   1
M  END
>  <UniqueID>  (75) 
63

>  <SMILES>  (75) 
Cc1ccc([C@@H]2CN=C(N)N2c2cc(-c3ccccc3)o[nH+]2)cc1

>  <Energy>  (75) 
93.63626106602109

>  <Genealogy>  (75) 
Cc1ccc(C2CN=C(N)N2c2cc(-c3ccccc3)o[nH+]2)cc1 (protonated)
Cc1ccc([C@@H]2CN=C(N)N2c2cc(-c3ccccc3)o[nH+]2)cc1 (chirality)
Cc1ccc([C@@H]2CN=C(N)N2c2cc(-c3ccccc3)o[nH+]2)cc1 (3D coordinates assigned)
Cc1ccc([C@@H]2CN=C(N)N2c2cc(-c3ccccc3)o[nH+]2)cc1 (nonaromatic ring conformer: 93.63626106602109 kcal/mol)

>  <smiles>  (75) 
Cc1ccc(C2CN=C(N)N2c2cc(-c3ccccc3)on2)cc1

>  <score_type>  (75) 
oracle

>  <origin>  (75) 
adg

>  <m_score__min__energy>  (75) 
-7.2199999999999998

>  <m_primary>  (75) 
energy

$$$$
75:0
     RDKit          3D

 46 48  0  0  0  0  0  0  0  0999 V2000
   56.7430   21.0650   43.1210 C   0  0  0  0  0  0  0  0  0  0  0  0
   55.8820   21.9740   43.8000 O   0  0  0  0  0  0  0  0  0  0  0  0
   56.2510   23.2680   44.1960 C   0  0  0  0  0  0  0  0  0  0  0  0
   55.8710   23.8170   45.4370 C   0  0  0  0  0  0  0  0  0  0  0  0
   56.2620   25.1150   45.7810 C   0  0  0  0  0  0  0  0  0  0  0  0
   57.0350   25.8760   44.8950 C   0  0  0  0  0  0  0  0  0  0  0  0
   57.4330   27.2130   45.2500 C   0  0  0  0  0  0  0  0  0  0  0  0
   57.7650   28.3340   45.5470 C   0  0  0  0  0  0  0  0  0  0  0  0
   58.1610   29.6710   45.9020 C   0  0  0  0  0  0  0  0  0  0  0  0
   58.7160   29.9280   47.1610 C   0  0  0  0  0  0  0  0  0  0  0  0
   59.0990   31.2270   47.5070 C   0  0  0  0  0  0  0  0  0  0  0  0
   58.9400   32.2870   46.5950 C   0  0  0  0  0  0  0  0  0  0  0  0
   59.3490   33.6620   46.9830 C   0  0  0  0  0  0  0  0  0  0  0  0
   58.5150   34.6020   46.8460 O   0  0  0  0  0  0  0  0  0  0  0  0
   60.6820   33.9460   47.4800 N   0  0  0  0  0  0  0  0  0  0  0  0
   60.7350   33.7070   48.9370 C   0  0  0  0  0  0  0  0  0  0  0  0
   62.0730   34.1880   49.5390 C   0  0  0  0  0  0  0  0  0  0  0  0
   63.2150   34.2100   48.5070 C   0  0  0  0  0  0  0  0  0  0  0  0
   63.0620   33.0780   47.4890 C   0  0  0  0  0  0  0  0  0  0  0  0
   61.6990   33.1350   46.7590 C   0  0  0  0  0  0  0  0  0  0  0  0
   58.3670   32.0210   45.3360 C   0  0  0  0  0  0  0  0  0  0  0  0
   57.9840   30.7200   44.9920 C   0  0  0  0  0  0  0  0  0  0  0  0
   57.4160   25.3340   43.6630 C   0  0  0  0  0  0  0  0  0  0  0  0
   57.0250   24.0360   43.3180 C   0  0  0  0  0  0  0  0  0  0  0  0
   57.3046   20.4720   43.8579 H   0  0  0  0  0  0  0  0  0  0  0  0
   56.1426   20.3928   42.4904 H   0  0  0  0  0  0  0  0  0  0  0  0
   57.4467   21.6281   42.4904 H   0  0  0  0  0  0  0  0  0  0  0  0
   55.2652   23.2230   46.1371 H   0  0  0  0  0  0  0  0  0  0  0  0
   55.9615   25.5395   46.7503 H   0  0  0  0  0  0  0  0  0  0  0  0
   58.8510   29.1061   47.8795 H   0  0  0  0  0  0  0  0  0  0  0  0
   59.5284   31.4224   48.5007 H   0  0  0  0  0  0  0  0  0  0  0  0
   60.9040   34.9520   47.2940 H   0  0  0  0  0  0  0  0  0  0  0  0
   59.9095   34.2512   49.4191 H   0  0  0  0  0  0  0  0  0  0  0  0
   60.6453   32.6250   49.1136 H   0  0  0  0  0  0  0  0  0  0  0  0
   61.9357   35.2055   49.9337 H   0  0  0  0  0  0  0  0  0  0  0  0
   62.3548   33.4789   50.3313 H   0  0  0  0  0  0  0  0  0  0  0  0
   63.2012   35.1737   47.9769 H   0  0  0  0  0  0  0  0  0  0  0  0
   64.1682   34.0739   49.0389 H   0  0  0  0  0  0  0  0  0  0  0  0
   63.8674   33.1590   46.7442 H   0  0  0  0  0  0  0  0  0  0  0  0
   63.1168   32.1230   48.0321 H   0  0  0  0  0  0  0  0  0  0  0  0
   61.8542   33.5743   45.7625 H   0  0  0  0  0  0  0  0  0  0  0  0
   61.3155   32.1056   46.7015 H   0  0  0  0  0  0  0  0  0  0  0  0
   58.2197   32.8416   44.6185 H   0  0  0  0  0  0  0  0  0  0  0  0
   57.5428   30.5210   44.0042 H   0  0  0  0  0  0  0  0  0  0  0  0
   58.0235   25.9289   42.9651 H   0  0  0  0  0  0  0  0  0  0  0  0
   57.3284   23.6150   42.3481 H   0  0  0  0  0  0  0  0  0  0  0  0
  1  2  1  0
  2  3  1  0
  3  4  2  0
  4  5  1  0
  5  6  2  0
  6  7  1  0
  7  8  3  0
  8  9  1  0
  9 10  2  0
 10 11  1  0
 11 12  2  0
 12 13  1  0
 13 14  2  0
 13 15  1  0
 15 16  1  0
 16 17  1  0
 17 18  1  0
 18 19  1  0
 19 20  1  0
 12 21  1  0
 21 22  2  0
  6 23  1  0
 23 24  2  0
 24  3  1  0
 22  9  1  0
 20 15  1  0
  1 25  1  0
  1 26  1  0
  1 27  1  0
  4 28  1  0
  5 29  1  0
 10 30  1  0
 11 31  1  0
 15 32  1  0
 16 33  1  0
 16 34  1  0
 17 35  1  0
 17 36  1  0
 18 37  1  0
 18 38  1  0
 19 39  1  0
 19 40  1  0
 20 41  1  0
 20 42  1  0
 21 43  1  0
 22 44  1  0
 23 45  1  0
 24 46  1  0
M  CHG  1  15   1
M  END
>  <UniqueID>  (76) 
64

>  <SMILES>  (76) 
COc1ccc(C#Cc2ccc(C(=O)[NH+]3CCCCC3)cc2)cc1

>  <Energy>  (76) 
52.883637643575554

>  <Genealogy>  (76) 
COc1ccc(C#Cc2ccc(C(=O)[NH+]3CCCCC3)cc2)cc1 (protonated)
COc1ccc(C#Cc2ccc(C(=O)[NH+]3CCCCC3)cc2)cc1 (3D coordinates assigned)
COc1ccc(C#Cc2ccc(C(=O)[NH+]3CCCCC3)cc2)cc1 (nonaromatic ring conformer: 52.883637643575554 kcal/mol)

>  <smiles>  (76) 
COc1ccc(C#Cc2ccc(C(=O)N3CCCCC3)cc2)cc1

>  <score_type>  (76) 
oracle

>  <origin>  (76) 
adg

>  <m_score__min__energy>  (76) 
-5.6900000000000004

>  <m_primary>  (76) 
energy

$$$$
76:0
     RDKit          3D

 35 36  0  0  0  0  0  0  0  0999 V2000
   55.7810   30.0890   45.6660 H   0  0  0  0  0  0  0  0  0  0  0  0
   55.6620   29.4310   44.9330 O   0  0  0  0  0  0  0  0  0  0  0  0
   56.6900   29.6350   43.9900 C   0  0  2  0  0  0  0  0  0  0  0  0
   57.4050   30.9430   44.2760 C   0  0  0  0  0  0  0  0  0  0  0  0
   58.1780   31.4420   43.4130 O   0  0  0  0  0  0  0  0  0  0  0  0
   57.1870   31.6130   45.5260 N   0  0  0  0  0  0  0  0  0  0  0  0
   58.0110   32.6400   46.1020 C   0  0  0  0  0  0  0  0  0  0  0  0
   58.1630   33.8960   45.4910 C   0  0  0  0  0  0  0  0  0  0  0  0
   57.6556   34.1079   44.5383 H   0  0  0  0  0  0  0  0  0  0  0  0
   58.9560   34.8750   46.0900 C   0  0  0  0  0  0  0  0  0  0  0  0
   59.0847   35.8562   45.6098 H   0  0  0  0  0  0  0  0  0  0  0  0
   59.5840   34.5970   47.3040 C   0  0  0  0  0  0  0  0  0  0  0  0
   60.2208   35.3564   47.7813 H   0  0  0  0  0  0  0  0  0  0  0  0
   59.4080   33.3870   47.8960 N   0  0  0  0  0  0  0  0  0  0  0  0
   58.6310   32.4120   47.3440 C   0  0  0  0  0  0  0  0  0  0  0  0
   58.4960   31.2540   47.9260 N   0  0  0  0  0  0  0  0  0  0  0  0
   59.0760   30.0030   47.5160 C   0  0  0  0  0  0  0  0  0  0  0  0
   58.5230   28.7660   47.9000 C   0  0  0  0  0  0  0  0  0  0  0  0
   57.6398   28.7400   48.5553 H   0  0  0  0  0  0  0  0  0  0  0  0
   59.0930   27.5710   47.4510 C   0  0  0  0  0  0  0  0  0  0  0  0
   58.6659   26.6072   47.7652 H   0  0  0  0  0  0  0  0  0  0  0  0
   60.2040   27.5980   46.6040 C   0  0  0  0  0  0  0  0  0  0  0  0
   60.7530   26.4380   46.1680 F   0  0  0  0  0  0  0  0  0  0  0  0
   60.7380   28.8230   46.1940 C   0  0  0  0  0  0  0  0  0  0  0  0
   61.6062   28.8447   45.5190 H   0  0  0  0  0  0  0  0  0  0  0  0
   60.1710   30.0210   46.6400 C   0  0  0  0  0  0  0  0  0  0  0  0
   60.6950   31.2030   46.2290 F   0  0  0  0  0  0  0  0  0  0  0  0
   56.0370   29.7330   42.6030 C   0  0  0  0  0  0  0  0  0  0  0  0
   54.9551   29.8954   42.7177 H   0  0  0  0  0  0  0  0  0  0  0  0
   56.4774   30.5751   42.0490 H   0  0  0  0  0  0  0  0  0  0  0  0
   56.2108   28.7987   42.0490 H   0  0  0  0  0  0  0  0  0  0  0  0
   57.6730   28.4360   44.0330 C   0  0  0  0  0  0  0  0  0  0  0  0
   57.4080   27.6130   45.1150 F   0  0  0  0  0  0  0  0  0  0  0  0
   58.9750   28.8960   44.1390 F   0  0  0  0  0  0  0  0  0  0  0  0
   57.5660   27.6880   42.8730 F   0  0  0  0  0  0  0  0  0  0  0  0
  1  2  1  0
  3  2  1  1
  3  4  1  0
  4  5  2  0
  4  6  1  0
  6  7  1  0
  7  8  2  0
  8  9  1  0
  8 10  1  0
 10 11  1  0
 10 12  2  0
 12 13  1  0
 12 14  1  0
 14 15  1  0
 15 16  2  0
 16 17  1  0
 17 18  2  0
 18 19  1  0
 18 20  1  0
 20 21  1  0
 20 22  2  0
 22 23  1  0
 22 24  1  0
 24 25  1  0
 24 26  2  0
 26 27  1  0
  3 28  1  0
 28 29  1  0
 28 30  1  0
 28 31  1  0
  3 32  1  0
 32 33  1  0
 32 34  1  0
 32 35  1  0
 15  7  1  0
 26 17  1  0
M  CHG  2   6  -1  14  -1
M  END
>  <UniqueID>  (77) 
65

>  <SMILES>  (77) 
C[C@](O)(C(=O)[N-]c1ccc[n-]/c1=N\c1ccc(F)cc1F)C(F)(F)F

>  <Energy>  (77) 
46.22925723924808

>  <Genealogy>  (77) 
CC(O)(C(=O)[N-]c1ccc[n-]c1=Nc1ccc(F)cc1F)C(F)(F)F (protonated)
C[C@](O)(C(=O)[N-]c1ccc[n-]c1=Nc1ccc(F)cc1F)C(F)(F)F (chirality)
C[C@](O)(C(=O)[N-]c1ccc[n-]/c1=N\c1ccc(F)cc1F)C(F)(F)F (cis-trans isomerization)
C[C@](O)(C(=O)[N-]c1ccc[n-]/c1=N\c1ccc(F)cc1F)C(F)(F)F (3D coordinates assigned)
C[C@](O)(C(=O)[N-]c1ccc[n-]/c1=N\c1ccc(F)cc1F)C(F)(F)F (optimized conformer: 46.22925723924808 kcal/mol)

>  <smiles>  (77) 
CC(O)(C(=O)Nc1ccc[nH]c1=Nc1ccc(F)cc1F)C(F)(F)F

>  <score_type>  (77) 
oracle

>  <origin>  (77) 
adg

>  <m_score__min__energy>  (77) 
-9.0600000000000005

>  <m_primary>  (77) 
energy

$$$$
77:0
     RDKit          3D

 58 59  0  0  0  0  0  0  0  0999 V2000
   58.5010   27.4820   44.0140 C   0  0  0  0  0  0  0  0  0  0  0  0
   59.6690   28.1870   44.7300 C   0  0  0  0  0  0  0  0  0  0  0  0
   59.9270   27.4540   46.0400 C   0  0  0  0  0  0  0  0  0  0  0  0
   59.1850   28.0780   47.1900 C   0  0  0  0  0  0  0  0  0  0  0  0
   60.0150   28.9470   47.9970 N   0  0  0  0  0  0  0  0  0  0  0  0
   60.2240   30.2450   47.6860 C   0  0  0  0  0  0  0  0  0  0  0  0
   59.6580   30.8220   46.4990 N   0  0  0  0  0  0  0  0  0  0  0  0
   60.9940   31.0430   48.5090 C   0  0  0  0  0  0  0  0  0  0  0  0
   61.2790   32.4180   48.2020 N   0  0  0  0  0  0  0  0  0  0  0  0
   62.0450   32.7260   46.9940 C   0  0  0  0  0  0  0  0  0  0  0  0
   63.3560   33.4060   47.2850 C   0  0  0  0  0  0  0  0  0  0  0  0
   60.8110   33.4370   49.0600 C   0  0  0  0  0  0  0  0  0  0  0  0
   61.4520   33.6230   50.1320 O   0  0  0  0  0  0  0  0  0  0  0  0
   59.6440   34.2940   48.8120 C   0  0  0  0  0  0  0  0  0  0  0  0
   59.2390   34.3820   47.4030 C   0  0  0  0  0  0  0  0  0  0  0  0
   58.4270   33.4370   46.7700 C   0  0  0  0  0  0  0  0  0  0  0  0
   58.2020   33.8290   45.4640 C   0  0  0  0  0  0  0  0  0  0  0  0
   57.4220   33.0530   44.4730 C   0  0  0  0  0  0  0  0  0  0  0  0
   57.7020   31.5910   44.5890 C   0  0  0  0  0  0  0  0  0  0  0  0
   58.8260   31.1460   44.1990 O   0  0  0  0  0  0  0  0  0  0  0  0
   56.8050   30.6760   45.1050 O   0  0  0  0  0  0  0  0  0  0  0  0
   55.9300   30.0200   44.1950 C   0  0  0  0  0  0  0  0  0  0  0  0
   56.5480   30.0590   42.8030 C   0  0  0  0  0  0  0  0  0  0  0  0
   58.8720   34.9930   45.3160 N   0  0  0  0  0  0  0  0  0  0  0  0
   59.4760   35.3070   46.4590 N   0  0  0  0  0  0  0  0  0  0  0  0
   61.5420   30.4700   49.6620 C   0  0  0  0  0  0  0  0  0  0  0  0
   62.2450   31.0930   50.4710 O   0  0  0  0  0  0  0  0  0  0  0  0
   61.2980   29.1690   49.9170 N   0  0  0  0  0  0  0  0  0  0  0  0
   60.5490   28.3850   49.1190 C   0  0  0  0  0  0  0  0  0  0  0  0
   60.3500   27.1820   49.3950 O   0  0  0  0  0  0  0  0  0  0  0  0
   57.8104   27.0652   44.7619 H   0  0  0  0  0  0  0  0  0  0  0  0
   57.9652   28.2077   43.3845 H   0  0  0  0  0  0  0  0  0  0  0  0
   58.8935   26.6698   43.3845 H   0  0  0  0  0  0  0  0  0  0  0  0
   60.5694   28.1526   44.0990 H   0  0  0  0  0  0  0  0  0  0  0  0
   59.4194   29.2407   44.9236 H   0  0  0  0  0  0  0  0  0  0  0  0
   59.6013   26.4089   45.9324 H   0  0  0  0  0  0  0  0  0  0  0  0
   61.0036   27.5147   46.2571 H   0  0  0  0  0  0  0  0  0  0  0  0
   58.3481   28.6678   46.7878 H   0  0  0  0  0  0  0  0  0  0  0  0
   58.8384   27.2602   47.8389 H   0  0  0  0  0  0  0  0  0  0  0  0
   58.6640   30.5190   46.2940 H   0  0  0  0  0  0  0  0  0  0  0  0
   60.1870   31.4890   45.8930 H   0  0  0  0  0  0  0  0  0  0  0  0
   62.2487   31.7865   46.4593 H   0  0  0  0  0  0  0  0  0  0  0  0
   61.4417   33.4201   46.3905 H   0  0  0  0  0  0  0  0  0  0  0  0
   63.4974   33.4793   48.3734 H   0  0  0  0  0  0  0  0  0  0  0  0
   64.1779   32.8205   46.8471 H   0  0  0  0  0  0  0  0  0  0  0  0
   63.3508   34.4151   46.8471 H   0  0  0  0  0  0  0  0  0  0  0  0
   58.7964   33.8949   49.3884 H   0  0  0  0  0  0  0  0  0  0  0  0
   59.9328   35.3104   49.1176 H   0  0  0  0  0  0  0  0  0  0  0  0
   58.0293   32.5243   47.2379 H   0  0  0  0  0  0  0  0  0  0  0  0
   56.3496   33.2275   44.6447 H   0  0  0  0  0  0  0  0  0  0  0  0
   57.7129   33.3840   43.4651 H   0  0  0  0  0  0  0  0  0  0  0  0
   55.7882   28.9748   44.5072 H   0  0  0  0  0  0  0  0  0  0  0  0
   54.9540   30.5273   44.1843 H   0  0  0  0  0  0  0  0  0  0  0  0
   57.6424   30.1281   42.8895 H   0  0  0  0  0  0  0  0  0  0  0  0
   56.2805   29.1422   42.2572 H   0  0  0  0  0  0  0  0  0  0  0  0
   56.1673   30.9349   42.2572 H   0  0  0  0  0  0  0  0  0  0  0  0
   60.0650   36.1490   46.6470 H   0  0  0  0  0  0  0  0  0  0  0  0
   61.7200   28.7540   50.7960 H   0  0  0  0  0  0  0  0  0  0  0  0
  1  2  1  0
  2  3  1  0
  3  4  1  0
  4  5  1  0
  5  6  1  0
  6  7  1  0
  6  8  2  0
  8  9  1  0
  9 10  1  0
 10 11  1  0
  9 12  1  0
 12 13  2  0
 12 14  1  0
 14 15  1  0
 15 16  2  0
 16 17  1  0
 17 18  1  0
 18 19  1  0
 19 20  2  0
 19 21  1  0
 21 22  1  0
 22 23  1  0
 17 24  2  0
 24 25  1  0
  8 26  1  0
 26 27  2  0
 26 28  1  0
 28 29  1  0
 29 30  2  0
 29  5  1  0
 25 15  1  0
  1 31  1  0
  1 32  1  0
  1 33  1  0
  2 34  1  0
  2 35  1  0
  3 36  1  0
  3 37  1  0
  4 38  1  0
  4 39  1  0
  7 40  1  0
  7 41  1  0
 10 42  1  0
 10 43  1  0
 11 44  1  0
 11 45  1  0
 11 46  1  0
 14 47  1  0
 14 48  1  0
 16 49  1  0
 18 50  1  0
 18 51  1  0
 22 52  1  0
 22 53  1  0
 23 54  1  0
 23 55  1  0
 23 56  1  0
 25 57  1  0
 28 58  1  0
M  END
>  <smiles>  (78) 
CCCCn1c(N)c(N(CC)C(=O)Cc2cc(CC(=O)OCC)n[nH]2)c(=O)[nH]c1=O

>  <score_type>  (78) 
oracle

>  <origin>  (78) 
adg

>  <m_score__min__energy>  (78) 
-8.1199999999999992

>  <m_primary>  (78) 
energy

$$$$
79:0
     RDKit          3D

 39 41  0  0  0  0  0  0  0  0999 V2000
   55.1640   27.3590   46.0000 H   0  0  0  0  0  0  0  0  0  0  0  0
   54.9080   26.3470   45.9660 N   0  0  0  0  0  0  0  0  0  0  0  0
   56.3850   25.4490   46.0130 S   0  0  0  0  0  0  0  0  0  0  0  0
   56.5700   24.7830   44.6780 O   0  0  0  0  0  0  0  0  0  0  0  0
   56.3050   24.3930   47.0800 O   0  0  0  0  0  0  0  0  0  0  0  0
   57.7530   26.5290   46.3370 C   0  0  0  0  0  0  0  0  0  0  0  0
   58.4660   26.3580   47.5360 C   0  0  0  0  0  0  0  0  0  0  0  0
   58.1253   25.6136   48.2707 H   0  0  0  0  0  0  0  0  0  0  0  0
   59.6030   27.1240   47.8040 C   0  0  0  0  0  0  0  0  0  0  0  0
   60.1497   26.9832   48.7481 H   0  0  0  0  0  0  0  0  0  0  0  0
   60.0460   28.0660   46.8780 C   0  0  0  0  0  0  0  0  0  0  0  0
   60.9502   28.6575   47.0845 H   0  0  0  0  0  0  0  0  0  0  0  0
   59.3420   28.2590   45.6880 C   0  0  0  0  0  0  0  0  0  0  0  0
   59.7002   28.9998   44.9580 H   0  0  0  0  0  0  0  0  0  0  0  0
   58.1820   27.5180   45.4130 C   0  0  0  0  0  0  0  0  0  0  0  0
   57.4710   27.8060   44.1530 C   0  0  0  0  0  0  0  0  0  0  0  0
   57.1565   26.9692   43.5120 H   0  0  0  0  0  0  0  0  0  0  0  0
   57.1990   29.0570   43.7700 C   0  0  0  0  0  0  0  0  0  0  0  0
   57.7845   29.5004   42.9511 H   0  0  0  0  0  0  0  0  0  0  0  0
   56.1390   29.8660   44.4080 C   0  0  0  0  0  0  0  0  0  0  0  0
   55.1470   29.3000   44.9400 O   0  0  0  0  0  0  0  0  0  0  0  0
   56.2510   31.2910   44.5040 N   0  0  0  0  0  0  0  0  0  0  0  0
   57.3570   32.0200   45.0570 C   0  0  0  0  0  0  0  0  0  0  0  0
   57.4430   33.3970   44.8210 C   0  0  0  0  0  0  0  0  0  0  0  0
   56.6608   33.8994   44.2330 H   0  0  0  0  0  0  0  0  0  0  0  0
   58.5140   34.1390   45.3260 C   0  0  0  0  0  0  0  0  0  0  0  0
   58.5633   35.2231   45.1465 H   0  0  0  0  0  0  0  0  0  0  0  0
   59.5260   33.5050   46.0610 C   0  0  0  0  0  0  0  0  0  0  0  0
   60.6070   34.2400   46.5750 C   0  0  0  0  0  0  0  0  0  0  0  0
   60.6616   35.3259   46.4080 H   0  0  0  0  0  0  0  0  0  0  0  0
   61.6130   33.5940   47.2980 C   0  0  0  0  0  0  0  0  0  0  0  0
   62.4564   34.1738   47.7011 H   0  0  0  0  0  0  0  0  0  0  0  0
   61.5520   32.2150   47.5110 C   0  0  0  0  0  0  0  0  0  0  0  0
   62.3489   31.7123   48.0786 H   0  0  0  0  0  0  0  0  0  0  0  0
   60.4810   31.4710   47.0050 C   0  0  0  0  0  0  0  0  0  0  0  0
   60.4373   30.3853   47.1764 H   0  0  0  0  0  0  0  0  0  0  0  0
   59.4620   32.1070   46.2790 C   0  0  0  0  0  0  0  0  0  0  0  0
   58.3830   31.3720   45.7670 C   0  0  0  0  0  0  0  0  0  0  0  0
   58.3392   30.2838   45.9216 H   0  0  0  0  0  0  0  0  0  0  0  0
  1  2  1  0
  2  3  1  0
  3  4  2  0
  3  5  2  0
  3  6  1  0
  6  7  2  0
  7  8  1  0
  7  9  1  0
  9 10  1  0
  9 11  2  0
 11 12  1  0
 11 13  1  0
 13 14  1  0
 13 15  2  0
 15 16  1  0
 16 17  1  0
 16 18  2  0
 18 19  1  0
 18 20  1  0
 20 21  2  0
 20 22  1  0
 22 23  1  0
 23 24  2  0
 24 25  1  0
 24 26  1  0
 26 27  1  0
 26 28  2  0
 28 29  1  0
 29 30  1  0
 29 31  2  0
 31 32  1  0
 31 33  1  0
 33 34  1  0
 33 35  2  0
 35 36  1  0
 35 37  1  0
 37 38  2  0
 38 39  1  0
 15  6  1  0
 38 23  1  0
 37 28  1  0
M  CHG  2   2  -1  22  -1
M  END
>  <UniqueID>  (79) 
66

>  <SMILES>  (79) 
[NH-]S(=O)(=O)c1ccccc1/C=C/C(=O)[N-]c1ccc2ccccc2c1

>  <Energy>  (79) 
55.72858405559669

>  <Genealogy>  (79) 
[NH-]S(=O)(=O)c1ccccc1C=CC(=O)[N-]c1ccc2ccccc2c1 (protonated)
[NH-]S(=O)(=O)c1ccccc1/C=C/C(=O)[N-]c1ccc2ccccc2c1 (cis-trans isomerization)
[NH-]S(=O)(=O)c1ccccc1/C=C/C(=O)[N-]c1ccc2ccccc2c1 (3D coordinates assigned)
[NH-]S(=O)(=O)c1ccccc1/C=C/C(=O)[N-]c1ccc2ccccc2c1 (optimized conformer: 55.72858405559669 kcal/mol)

>  <smiles>  (79) 
NS(=O)(=O)c1ccccc1C=CC(=O)Nc1ccc2ccccc2c1

>  <score_type>  (79) 
oracle

>  <origin>  (79) 
adg

>  <m_score__min__energy>  (79) 
-14.51

>  <m_primary>  (79) 
energy

$$$$
80:0
     RDKit          3D

 49 51  0  0  0  0  0  0  0  0999 V2000
   61.2660   34.1120   48.6380 C   0  0  0  0  0  0  0  0  0  0  0  0
   59.8150   34.4930   48.9070 C   0  0  0  0  0  0  0  0  0  0  0  0
   58.9640   33.3590   48.7620 O   0  0  0  0  0  0  0  0  0  0  0  0
   58.3830   32.9850   47.5450 C   0  0  0  0  0  0  0  0  0  0  0  0
   57.1350   33.0840   47.3770 O   0  0  0  0  0  0  0  0  0  0  0  0
   59.2720   32.5060   46.4250 C   0  0  2  0  0  0  0  0  0  0  0  0
   58.7480   33.0740   45.1180 C   0  0  0  0  0  0  0  0  0  0  0  0
   59.1790   34.4380   44.6770 C   0  0  0  0  0  0  0  0  0  0  0  0
   57.8460   32.4350   44.4270 N   0  0  0  0  0  0  0  0  0  0  0  0
   57.3850   31.1360   44.8120 C   0  0  0  0  0  0  0  0  0  0  0  0
   56.0870   30.4740   44.0760 S   0  0  0  0  0  0  0  0  0  0  0  0
   58.0380   30.4560   45.8860 N   0  0  0  0  0  0  0  0  0  0  0  0
   59.3480   30.9530   46.3200 C   0  0  2  0  0  0  0  0  0  0  0  0
   59.8720   30.1820   47.5420 C   0  0  0  0  0  0  0  0  0  0  0  0
   60.6610   30.8070   48.5350 C   0  0  0  0  0  0  0  0  0  0  0  0
   61.0810   30.1200   49.6310 N   0  0  0  0  0  0  0  0  0  0  0  0
   60.7880   28.8070   49.8050 C   0  0  0  0  0  0  0  0  0  0  0  0
   60.0700   28.1180   48.8340 C   0  0  0  0  0  0  0  0  0  0  0  0
   59.6310   28.7860   47.6830 C   0  0  0  0  0  0  0  0  0  0  0  0
   58.9480   27.9850   46.6410 C   0  0  0  0  0  0  0  0  0  0  0  0
   59.4980   27.8750   45.3560 C   0  0  0  0  0  0  0  0  0  0  0  0
   58.8450   27.1230   44.3750 C   0  0  0  0  0  0  0  0  0  0  0  0
   57.6480   26.4660   44.6730 C   0  0  0  0  0  0  0  0  0  0  0  0
   57.0970   26.5510   45.9670 C   0  0  0  0  0  0  0  0  0  0  0  0
   55.9020   25.9060   46.3190 O   0  0  0  0  0  0  0  0  0  0  0  0
   55.7400   24.4930   46.3810 C   0  0  0  0  0  0  0  0  0  0  0  0
   57.7590   27.3040   46.9450 C   0  0  0  0  0  0  0  0  0  0  0  0
   61.7921   33.9739   49.5941 H   0  0  0  0  0  0  0  0  0  0  0  0
   61.2985   33.1749   48.0629 H   0  0  0  0  0  0  0  0  0  0  0  0
   61.7547   34.9123   48.0629 H   0  0  0  0  0  0  0  0  0  0  0  0
   59.7274   34.8821   49.9321 H   0  0  0  0  0  0  0  0  0  0  0  0
   59.5094   35.2611   48.1813 H   0  0  0  0  0  0  0  0  0  0  0  0
   60.2923   32.8571   46.6386 H   0  0  0  0  0  0  0  0  0  0  0  0
   59.3766   35.0634   45.5600 H   0  0  0  0  0  0  0  0  0  0  0  0
   60.0950   34.3558   44.0734 H   0  0  0  0  0  0  0  0  0  0  0  0
   58.3821   34.8971   44.0734 H   0  0  0  0  0  0  0  0  0  0  0  0
   57.5310   29.7040   46.4060 H   0  0  0  0  0  0  0  0  0  0  0  0
   60.1345   30.7488   45.5785 H   0  0  0  0  0  0  0  0  0  0  0  0
   60.9393   31.8649   48.4193 H   0  0  0  0  0  0  0  0  0  0  0  0
   61.6470   30.6140   50.3550 H   0  0  0  0  0  0  0  0  0  0  0  0
   61.1190   28.2865   50.7158 H   0  0  0  0  0  0  0  0  0  0  0  0
   59.8467   27.0494   48.9692 H   0  0  0  0  0  0  0  0  0  0  0  0
   60.4453   28.3815   45.1193 H   0  0  0  0  0  0  0  0  0  0  0  0
   59.2747   27.0481   43.3652 H   0  0  0  0  0  0  0  0  0  0  0  0
   57.1348   25.8811   43.8955 H   0  0  0  0  0  0  0  0  0  0  0  0
   55.7034   24.1739   47.4331 H   0  0  0  0  0  0  0  0  0  0  0  0
   54.8034   24.2089   45.8789 H   0  0  0  0  0  0  0  0  0  0  0  0
   56.5880   24.0043   45.8789 H   0  0  0  0  0  0  0  0  0  0  0  0
   57.3429   27.3622   47.9616 H   0  0  0  0  0  0  0  0  0  0  0  0
  1  2  1  0
  2  3  1  0
  3  4  1  0
  4  5  2  0
  4  6  1  0
  6  7  1  0
  7  8  1  0
  7  9  2  0
  9 10  1  0
 10 11  2  0
 10 12  1  0
 12 13  1  0
 13 14  1  0
 14 15  2  0
 15 16  1  0
 16 17  2  0
 17 18  1  0
 18 19  2  0
 19 20  1  0
 20 21  2  0
 21 22  1  0
 22 23  2  0
 23 24  1  0
 24 25  1  0
 25 26  1  0
 24 27  2  0
 13  6  1  0
 19 14  1  0
 27 20  1  0
  1 28  1  0
  1 29  1  0
  1 30  1  0
  2 31  1  0
  2 32  1  0
  6 33  1  1
  8 34  1  0
  8 35  1  0
  8 36  1  0
 12 37  1  0
 13 38  1  6
 15 39  1  0
 16 40  1  0
 17 41  1  0
 18 42  1  0
 21 43  1  0
 22 44  1  0
 23 45  1  0
 26 46  1  0
 26 47  1  0
 26 48  1  0
 27 49  1  0
M  CHG  1  16   1
M  END
>  <UniqueID>  (80) 
67

>  <SMILES>  (80) 
CCOC(=O)[C@@H]1C(C)=NC(=S)N[C@@H]1c1c[nH+]ccc1-c1cccc(OC)c1

>  <Energy>  (80) 
58.097950493133084

>  <Genealogy>  (80) 
CCOC(=O)C1C(C)=NC(=S)NC1c1c[nH+]ccc1-c1cccc(OC)c1 (protonated)
CCOC(=O)[C@@H]1C(C)=NC(=S)N[C@@H]1c1c[nH+]ccc1-c1cccc(OC)c1 (chirality)
CCOC(=O)[C@@H]1C(C)=NC(=S)N[C@@H]1c1c[nH+]ccc1-c1cccc(OC)c1 (3D coordinates assigned)
CCOC(=O)[C@@H]1C(C)=NC(=S)N[C@@H]1c1c[nH+]ccc1-c1cccc(OC)c1 (nonaromatic ring conformer: 58.097950493133084 kcal/mol)

>  <smiles>  (80) 
CCOC(=O)C1C(C)=NC(=S)NC1c1cnccc1-c1cccc(OC)c1

>  <score_type>  (80) 
oracle

>  <origin>  (80) 
adg

>  <m_score__min__energy>  (80) 
-6.2300000000000004

>  <m_primary>  (80) 
energy

$$$$
81:0
     RDKit          3D

 23 23  0  0  0  0  0  0  0  0999 V2000
   57.5600   26.1680   45.5960 C   0  0  0  0  0  0  0  0  0  0  0  0
   56.4390   27.1050   45.6180 N   0  0  0  0  0  0  0  0  0  0  0  0
   55.2240   26.6610   46.0280 O   0  0  0  0  0  0  0  0  0  0  0  0
   56.5940   28.4900   45.2660 C   0  0  0  0  0  0  0  0  0  0  0  0
   55.5690   29.2230   45.1960 O   0  0  0  0  0  0  0  0  0  0  0  0
   57.9610   29.0860   45.0250 C   0  0  0  0  0  0  0  0  0  0  0  0
   57.9160   30.5860   44.8710 C   0  0  0  0  0  0  0  0  0  0  0  0
   57.7950   31.1650   43.5960 C   0  0  0  0  0  0  0  0  0  0  0  0
   57.7860   32.5560   43.4530 C   0  0  0  0  0  0  0  0  0  0  0  0
   57.9060   33.3770   44.5780 C   0  0  0  0  0  0  0  0  0  0  0  0
   58.0390   32.8090   45.8470 C   0  0  0  0  0  0  0  0  0  0  0  0
   58.0500   31.4170   45.9950 C   0  0  0  0  0  0  0  0  0  0  0  0
   57.8533   25.9229   46.6275 H   0  0  0  0  0  0  0  0  0  0  0  0
   57.2593   25.2488   45.0720 H   0  0  0  0  0  0  0  0  0  0  0  0
   58.4113   26.6270   45.0720 H   0  0  0  0  0  0  0  0  0  0  0  0
   54.7570   27.4680   46.3640 H   0  0  0  0  0  0  0  0  0  0  0  0
   58.6098   28.8379   45.8779 H   0  0  0  0  0  0  0  0  0  0  0  0
   58.3497   28.6643   44.0864 H   0  0  0  0  0  0  0  0  0  0  0  0
   57.7071   30.5219   42.7079 H   0  0  0  0  0  0  0  0  0  0  0  0
   57.6844   33.0048   42.4539 H   0  0  0  0  0  0  0  0  0  0  0  0
   57.8957   34.4710   44.4638 H   0  0  0  0  0  0  0  0  0  0  0  0
   58.1352   33.4562   46.7312 H   0  0  0  0  0  0  0  0  0  0  0  0
   58.1640   30.9728   46.9948 H   0  0  0  0  0  0  0  0  0  0  0  0
  1  2  1  0
  2  3  1  0
  2  4  1  0
  4  5  2  0
  4  6  1  0
  6  7  1  0
  7  8  2  0
  8  9  1  0
  9 10  2  0
 10 11  1  0
 11 12  2  0
 12  7  1  0
  1 13  1  0
  1 14  1  0
  1 15  1  0
  3 16  1  0
  6 17  1  0
  6 18  1  0
  8 19  1  0
  9 20  1  0
 10 21  1  0
 11 22  1  0
 12 23  1  0
M  END
>  <UniqueID>  (81) 
68

>  <SMILES>  (81) 
CN(O)C(=O)Cc1ccccc1

>  <Energy>  (81) 
18.11009585128304

>  <Genealogy>  (81) 
CN(O)C(=O)Cc1ccccc1 (3D coordinates assigned)
CN(O)C(=O)Cc1ccccc1 (optimized conformer: 18.11009585128304 kcal/mol)

>  <smiles>  (81) 
CN(O)C(=O)Cc1ccccc1

>  <score_type>  (81) 
oracle

>  <origin>  (81) 
adg

>  <m_score__min__energy>  (81) 
-6.21

>  <m_primary>  (81) 
energy

$$$$
82:0
     RDKit          3D

 52 55  0  0  0  0  0  0  0  0999 V2000
   60.7730   26.3920   46.4750 C   0  0  0  0  0  0  0  0  0  0  0  0
   59.7470   27.3640   45.9590 C   0  0  0  0  0  0  0  0  0  0  0  0
   60.1740   28.5060   45.2550 C   0  0  0  0  0  0  0  0  0  0  0  0
   59.2460   29.4240   44.7600 C   0  0  0  0  0  0  0  0  0  0  0  0
   57.8740   29.2080   44.9490 C   0  0  0  0  0  0  0  0  0  0  0  0
   56.6790   30.3220   44.2910 S   0  0  0  0  0  0  0  0  0  0  0  0
   55.3110   29.7030   44.2430 O   0  0  0  0  0  0  0  0  0  0  0  0
   57.0780   30.6770   42.8870 O   0  0  0  0  0  0  0  0  0  0  0  0
   56.6420   31.7740   45.2430 N   0  0  0  0  0  0  0  0  0  0  0  0
   57.7170   32.7150   45.3800 C   0  0  0  0  0  0  0  0  0  0  0  0
   57.5980   33.9620   44.7560 C   0  0  0  0  0  0  0  0  0  0  0  0
   58.6040   34.9210   44.8900 C   0  0  0  0  0  0  0  0  0  0  0  0
   59.7410   34.6410   45.6530 C   0  0  0  0  0  0  0  0  0  0  0  0
   59.8780   33.3960   46.2950 C   0  0  0  0  0  0  0  0  0  0  0  0
   61.0610   33.0860   47.1360 C   0  0  0  0  0  0  0  0  0  0  0  0
   62.3550   33.4700   46.7630 C   0  0  0  0  0  0  0  0  0  0  0  0
   63.4280   33.1860   47.6100 C   0  0  0  0  0  0  0  0  0  0  0  0
   63.1940   32.5220   48.8230 C   0  0  0  0  0  0  0  0  0  0  0  0
   64.2670   32.1980   49.7270 N   0  0  0  0  0  0  0  0  0  0  0  0
   64.2140   31.1510   50.7360 C   0  0  0  0  0  0  0  0  0  0  0  0
   65.5970   31.1120   51.3680 C   0  0  0  0  0  0  0  0  0  0  0  0
   66.2880   32.4080   50.9510 C   0  0  0  0  0  0  0  0  0  0  0  0
   65.5240   32.9240   49.7390 C   0  0  0  0  0  0  0  0  0  0  0  0
   61.9180   32.1760   49.1370 N   0  0  0  0  0  0  0  0  0  0  0  0
   60.8910   32.4510   48.3270 N   0  0  0  0  0  0  0  0  0  0  0  0
   58.8650   32.4330   46.1410 C   0  0  0  0  0  0  0  0  0  0  0  0
   57.4390   28.0890   45.6700 C   0  0  0  0  0  0  0  0  0  0  0  0
   58.3640   27.1770   46.2080 C   0  0  0  0  0  0  0  0  0  0  0  0
   57.8550   26.0030   47.0040 C   0  0  0  0  0  0  0  0  0  0  0  0
   60.7648   26.3997   47.5749 H   0  0  0  0  0  0  0  0  0  0  0  0
   60.5344   25.3808   46.1137 H   0  0  0  0  0  0  0  0  0  0  0  0
   61.7698   26.6848   46.1137 H   0  0  0  0  0  0  0  0  0  0  0  0
   61.2486   28.6765   45.0935 H   0  0  0  0  0  0  0  0  0  0  0  0
   59.5920   30.3182   44.2208 H   0  0  0  0  0  0  0  0  0  0  0  0
   56.7048   34.1885   44.1552 H   0  0  0  0  0  0  0  0  0  0  0  0
   58.5015   35.8978   44.3946 H   0  0  0  0  0  0  0  0  0  0  0  0
   60.5331   35.3978   45.7523 H   0  0  0  0  0  0  0  0  0  0  0  0
   62.5249   33.9916   45.8096 H   0  0  0  0  0  0  0  0  0  0  0  0
   64.4495   33.4809   47.3280 H   0  0  0  0  0  0  0  0  0  0  0  0
   63.4532   31.3883   51.4942 H   0  0  0  0  0  0  0  0  0  0  0  0
   63.9427   30.1797   50.2968 H   0  0  0  0  0  0  0  0  0  0  0  0
   65.5150   31.0582   52.4636 H   0  0  0  0  0  0  0  0  0  0  0  0
   66.1650   30.2292   51.0393 H   0  0  0  0  0  0  0  0  0  0  0  0
   66.2472   33.1425   51.7689 H   0  0  0  0  0  0  0  0  0  0  0  0
   67.3490   32.2393   50.7148 H   0  0  0  0  0  0  0  0  0  0  0  0
   65.3416   34.0047   49.8325 H   0  0  0  0  0  0  0  0  0  0  0  0
   66.0895   32.7709   48.8080 H   0  0  0  0  0  0  0  0  0  0  0  0
   58.9719   31.4490   46.6208 H   0  0  0  0  0  0  0  0  0  0  0  0
   56.3618   27.9217   45.8170 H   0  0  0  0  0  0  0  0  0  0  0  0
   57.9491   26.2200   48.0783 H   0  0  0  0  0  0  0  0  0  0  0  0
   56.7982   25.8233   46.7574 H   0  0  0  0  0  0  0  0  0  0  0  0
   58.4462   25.1088   46.7574 H   0  0  0  0  0  0  0  0  0  0  0  0
  1  2  1  0
  2  3  2  0
  3  4  1  0
  4  5  2  0
  5  6  1  0
  6  7  2  0
  6  8  2  0
  6  9  1  0
  9 10  1  0
 10 11  2  0
 11 12  1  0
 12 13  2  0
 13 14  1  0
 14 15  1  0
 15 16  2  0
 16 17  1  0
 17 18  2  0
 18 19  1  0
 19 20  1  0
 20 21  1  0
 21 22  1  0
 22 23  1  0
 18 24  1  0
 24 25  2  0
 14 26  2  0
  5 27  1  0
 27 28  2  0
 28 29  1  0
 28  2  1  0
 26 10  1  0
 25 15  1  0
 23 19  1  0
  1 30  1  0
  1 31  1  0
  1 32  1  0
  3 33  1  0
  4 34  1  0
 11 35  1  0
 12 36  1  0
 13 37  1  0
 16 38  1  0
 17 39  1  0
 20 40  1  0
 20 41  1  0
 21 42  1  0
 21 43  1  0
 22 44  1  0
 22 45  1  0
 23 46  1  0
 23 47  1  0
 26 48  1  0
 27 49  1  0
 29 50  1  0
 29 51  1  0
 29 52  1  0
M  CHG  1   9  -1
M  END
>  <UniqueID>  (82) 
69

>  <SMILES>  (82) 
Cc1ccc(S(=O)(=O)[N-]c2cccc(-c3ccc(N4CCCC4)nn3)c2)cc1C

>  <Energy>  (82) 
64.03886095465452

>  <Genealogy>  (82) 
Cc1ccc(S(=O)(=O)[N-]c2cccc(-c3ccc(N4CCCC4)nn3)c2)cc1C (protonated)
Cc1ccc(S(=O)(=O)[N-]c2cccc(-c3ccc(N4CCCC4)nn3)c2)cc1C (3D coordinates assigned)
Cc1ccc(S(=O)(=O)[N-]c2cccc(-c3ccc(N4CCCC4)nn3)c2)cc1C (nonaromatic ring conformer: 64.03886095465452 kcal/mol)

>  <smiles>  (82) 
Cc1ccc(S(=O)(=O)Nc2cccc(-c3ccc(N4CCCC4)nn3)c2)cc1C

>  <score_type>  (82) 
oracle

>  <origin>  (82) 
adg

>  <m_score__min__energy>  (82) 
-11.210000000000001

>  <m_primary>  (82) 
energy

$$$$
83:0
     RDKit          3D

 46 48  0  0  0  0  0  0  0  0999 V2000
   58.1260   26.5170   47.1060 F   0  0  0  0  0  0  0  0  0  0  0  0
   58.8300   27.6010   46.6980 C   0  0  0  0  0  0  0  0  0  0  0  0
   59.8550   27.4550   45.7570 C   0  0  0  0  0  0  0  0  0  0  0  0
   60.5730   28.5740   45.3260 C   0  0  0  0  0  0  0  0  0  0  0  0
   60.2720   29.8400   45.8380 C   0  0  0  0  0  0  0  0  0  0  0  0
   59.2560   29.9920   46.7940 C   0  0  0  0  0  0  0  0  0  0  0  0
   58.9290   31.3590   47.3300 C   0  0  0  0  0  0  0  0  0  0  0  0
   57.8220   31.9130   46.6230 O   0  0  0  0  0  0  0  0  0  0  0  0
   57.5710   31.6740   45.2660 C   0  0  0  0  0  0  0  0  0  0  0  0
   56.8470   30.5850   44.8820 N   0  0  0  0  0  0  0  0  0  0  0  0
   56.5750   30.3210   43.5770 C   0  0  0  0  0  0  0  0  0  0  0  0
   57.0430   31.1770   42.5810 C   0  0  0  0  0  0  0  0  0  0  0  0
   57.7910   32.2970   42.9390 C   0  0  0  0  0  0  0  0  0  0  0  0
   58.0620   32.5630   44.2900 C   0  0  0  0  0  0  0  0  0  0  0  0
   58.9250   33.7470   44.6540 C   0  0  0  0  0  0  0  0  0  0  0  0
   58.3370   34.4640   45.7920 N   0  0  0  0  0  0  0  0  0  0  0  0
   59.3410   35.2470   46.5350 C   0  0  0  0  0  0  0  0  0  0  0  0
   59.6500   34.5640   47.8670 C   0  0  0  0  0  0  0  0  0  0  0  0
   61.0710   34.0610   47.9000 C   0  0  0  0  0  0  0  0  0  0  0  0
   61.7670   33.8390   46.7010 C   0  0  0  0  0  0  0  0  0  0  0  0
   63.1010   33.4220   46.7250 C   0  0  0  0  0  0  0  0  0  0  0  0
   63.7490   33.2240   47.9470 C   0  0  0  0  0  0  0  0  0  0  0  0
   63.0670   33.4510   49.1450 C   0  0  0  0  0  0  0  0  0  0  0  0
   61.7330   33.8730   49.1250 C   0  0  0  0  0  0  0  0  0  0  0  0
   58.5300   28.8650   47.2150 C   0  0  0  0  0  0  0  0  0  0  0  0
   60.0958   26.4593   45.3563 H   0  0  0  0  0  0  0  0  0  0  0  0
   61.3759   28.4587   44.5830 H   0  0  0  0  0  0  0  0  0  0  0  0
   60.8335   30.7196   45.4902 H   0  0  0  0  0  0  0  0  0  0  0  0
   58.6755   31.2797   48.3975 H   0  0  0  0  0  0  0  0  0  0  0  0
   59.8028   32.0143   47.1993 H   0  0  0  0  0  0  0  0  0  0  0  0
   55.9858   29.4323   43.3066 H   0  0  0  0  0  0  0  0  0  0  0  0
   56.8240   30.9704   41.5230 H   0  0  0  0  0  0  0  0  0  0  0  0
   58.1703   32.9748   42.1600 H   0  0  0  0  0  0  0  0  0  0  0  0
   59.9312   33.3950   44.9254 H   0  0  0  0  0  0  0  0  0  0  0  0
   58.9885   34.4270   43.7917 H   0  0  0  0  0  0  0  0  0  0  0  0
   57.9210   33.7600   46.4450 H   0  0  0  0  0  0  0  0  0  0  0  0
   60.2627   35.3180   45.9388 H   0  0  0  0  0  0  0  0  0  0  0  0
   58.9449   36.2550   46.7276 H   0  0  0  0  0  0  0  0  0  0  0  0
   59.5052   35.2865   48.6837 H   0  0  0  0  0  0  0  0  0  0  0  0
   58.9719   33.7061   47.9863 H   0  0  0  0  0  0  0  0  0  0  0  0
   61.2597   33.9941   45.7374 H   0  0  0  0  0  0  0  0  0  0  0  0
   63.6405   33.2498   45.7820 H   0  0  0  0  0  0  0  0  0  0  0  0
   64.7967   32.8892   47.9658 H   0  0  0  0  0  0  0  0  0  0  0  0
   63.5798   33.2977   50.1060 H   0  0  0  0  0  0  0  0  0  0  0  0
   61.2016   34.0579   50.0702 H   0  0  0  0  0  0  0  0  0  0  0  0
   57.7229   28.9775   47.9538 H   0  0  0  0  0  0  0  0  0  0  0  0
  1  2  1  0
  2  3  2  0
  3  4  1  0
  4  5  2  0
  5  6  1  0
  6  7  1  0
  7  8  1  0
  8  9  1  0
  9 10  2  0
 10 11  1  0
 11 12  2  0
 12 13  1  0
 13 14  2  0
 14 15  1  0
 15 16  1  0
 16 17  1  0
 17 18  1  0
 18 19  1  0
 19 20  2  0
 20 21  1  0
 21 22  2  0
 22 23  1  0
 23 24  2  0
  6 25  2  0
 25  2  1  0
 14  9  1  0
 24 19  1  0
  3 26  1  0
  4 27  1  0
  5 28  1  0
  7 29  1  0
  7 30  1  0
 11 31  1  0
 12 32  1  0
 13 33  1  0
 15 34  1  0
 15 35  1  0
 16 36  1  0
 17 37  1  0
 17 38  1  0
 18 39  1  0
 18 40  1  0
 20 41  1  0
 21 42  1  0
 22 43  1  0
 23 44  1  0
 24 45  1  0
 25 46  1  0
M  END
>  <UniqueID>  (83) 
70

>  <SMILES>  (83) 
Fc1cccc(COc2ncccc2CNCCc2ccccc2)c1

>  <Energy>  (83) 
37.61868870905057

>  <Genealogy>  (83) 
Fc1cccc(COc2ncccc2CNCCc2ccccc2)c1 (3D coordinates assigned)
Fc1cccc(COc2ncccc2CNCCc2ccccc2)c1 (optimized conformer: 37.61868870905057 kcal/mol)

>  <smiles>  (83) 
Fc1cccc(COc2ncccc2CNCCc2ccccc2)c1

>  <score_type>  (83) 
oracle

>  <origin>  (83) 
adg

>  <m_score__min__energy>  (83) 
-7.8300000000000001

>  <m_primary>  (83) 
energy

$$$$
84:0
     RDKit          3D

 49 53  0  0  1  0  0  0  0  0999 V2000
   63.3280   34.2350   47.6970 F   0  0  0  0  0  0  0  0  0  0  0  0
   62.3640   33.3590   47.3760 C   0  0  0  0  0  0  0  0  0  0  0  0
   61.1470   33.7930   46.9170 C   0  0  0  0  0  0  0  0  0  0  0  0
   60.1390   32.8780   46.5820 C   0  0  0  0  0  0  0  0  0  0  0  0
   60.2930   31.5210   46.6850 C   0  0  0  0  0  0  0  0  0  0  0  0
   59.2940   30.5340   46.2580 C   0  0  0  0  0  0  0  0  0  0  0  0
   59.3020   29.4000   46.9800 C   0  0  0  0  0  0  0  0  0  0  0  0
   58.4120   28.2770   46.7880 C   0  0  0  0  0  0  0  0  0  0  0  0
   58.5080   27.1320   47.5470 C   0  0  0  0  0  0  0  0  0  0  0  0
   57.6430   26.1430   47.2800 N   0  0  0  0  0  0  0  0  0  0  0  0
   56.6930   26.2120   46.3190 C   0  0  0  0  0  0  0  0  0  0  0  0
   55.8910   25.2220   46.1130 N   0  0  0  0  0  0  0  0  0  0  0  0
   56.2090   24.1510   45.2210 C   0  0  0  0  0  0  0  0  0  0  0  0
   57.2030   23.2700   45.6010 C   0  0  0  0  0  0  0  0  0  0  0  0
   57.5560   22.2120   44.7810 C   0  0  0  0  0  0  0  0  0  0  0  0
   56.8970   22.0460   43.5700 C   0  0  0  0  0  0  0  0  0  0  0  0
   55.9030   22.9270   43.1900 C   0  0  0  0  0  0  0  0  0  0  0  0
   55.5550   23.9840   44.0180 C   0  0  0  0  0  0  0  0  0  0  0  0
   56.6430   27.3500   45.6090 N   0  0  0  0  0  0  0  0  0  0  0  0
   57.4560   28.3800   45.8020 C   0  0  0  0  0  0  0  0  0  0  0  0
   57.4330   29.5970   45.0840 N   0  0  0  0  0  0  0  0  0  0  0  0
   56.2230   29.9170   44.3640 C   0  0  0  0  0  0  0  0  0  0  0  0
   56.6520   30.3290   42.9840 C   0  0  0  0  0  0  0  0  0  0  0  0
   57.4280   31.6160   43.0620 C   0  0  0  0  0  0  0  0  0  0  0  0
   58.1400   31.8290   44.3900 C   0  0  0  0  0  0  0  0  0  0  0  0
   58.5120   30.5530   45.0380 C   0  0  1  0  0  0  0  0  0  0  0  0
   61.5510   31.1040   47.1600 C   0  0  0  0  0  0  0  0  0  0  0  0
   62.5460   32.0050   47.4920 C   0  0  0  0  0  0  0  0  0  0  0  0
   60.9594   34.8716   46.8104 H   0  0  0  0  0  0  0  0  0  0  0  0
   59.1773   33.2692   46.2186 H   0  0  0  0  0  0  0  0  0  0  0  0
   60.0482   29.3199   47.7842 H   0  0  0  0  0  0  0  0  0  0  0  0
   59.2637   27.0328   48.3402 H   0  0  0  0  0  0  0  0  0  0  0  0
   57.7180   23.4103   46.5628 H   0  0  0  0  0  0  0  0  0  0  0  0
   58.3482   21.5119   45.0847 H   0  0  0  0  0  0  0  0  0  0  0  0
   57.1678   21.2088   42.9099 H   0  0  0  0  0  0  0  0  0  0  0  0
   55.3864   22.7899   42.2286 H   0  0  0  0  0  0  0  0  0  0  0  0
   54.7623   24.6848   43.7172 H   0  0  0  0  0  0  0  0  0  0  0  0
   55.9190   27.4140   44.8640 H   0  0  0  0  0  0  0  0  0  0  0  0
   55.5661   29.0362   44.3119 H   0  0  0  0  0  0  0  0  0  0  0  0
   55.6593   30.7183   44.8642 H   0  0  0  0  0  0  0  0  0  0  0  0
   57.2873   29.5439   42.5480 H   0  0  0  0  0  0  0  0  0  0  0  0
   55.7632   30.4750   42.3525 H   0  0  0  0  0  0  0  0  0  0  0  0
   58.1823   31.6144   42.2613 H   0  0  0  0  0  0  0  0  0  0  0  0
   56.7001   32.4339   42.9560 H   0  0  0  0  0  0  0  0  0  0  0  0
   59.0538   32.4148   44.2115 H   0  0  0  0  0  0  0  0  0  0  0  0
   57.4483   32.3585   45.0617 H   0  0  0  0  0  0  0  0  0  0  0  0
   59.2782   30.2416   44.3128 H   0  0  0  0  0  0  0  0  0  0  0  0
   61.7486   30.0276   47.2705 H   0  0  0  0  0  0  0  0  0  0  0  0
   63.5106   31.6248   47.8595 H   0  0  0  0  0  0  0  0  0  0  0  0
  1  2  1  0
  2  3  2  0
  3  4  1  0
  4  5  2  0
  5  6  1  0
  6  7  2  0
  7  8  1  0
  8  9  1  0
  9 10  2  0
 10 11  1  0
 11 12  2  0
 12 13  1  0
 13 14  2  0
 14 15  1  0
 15 16  2  0
 16 17  1  0
 17 18  2  0
 11 19  1  0
 19 20  1  0
 20 21  1  0
 21 22  1  0
 22 23  1  0
 23 24  1  0
 24 25  1  0
 25 26  1  0
  5 27  1  0
 27 28  2  0
 28  2  1  0
 26  6  1  0
 20  8  2  0
 26 21  1  0
 18 13  1  0
  3 29  1  0
  4 30  1  0
  7 31  1  0
  9 32  1  0
 14 33  1  0
 15 34  1  0
 16 35  1  0
 17 36  1  0
 18 37  1  0
 19 38  1  0
 22 39  1  0
 22 40  1  0
 23 41  1  0
 23 42  1  0
 24 43  1  0
 24 44  1  0
 25 45  1  0
 25 46  1  0
 26 47  1  6
 27 48  1  0
 28 49  1  0
M  END
>  <smiles>  (84) 
Fc1ccc(C2=Cc3cnc(=Nc4ccccc4)[nH]c3N3CCCCC23)cc1

>  <score_type>  (84) 
oracle

>  <origin>  (84) 
adg

>  <m_score__min__energy>  (84) 
-9.5500000000000007

>  <m_primary>  (84) 
energy

$$$$
85:0
     RDKit          3D

 48 51  0  0  0  0  0  0  0  0999 V2000
   61.4470   31.6690   47.4380 C   0  0  0  0  0  0  0  0  0  0  0  0
   60.3570   31.2470   46.4840 C   0  0  0  0  0  0  0  0  0  0  0  0
   60.3140   29.9520   46.0590 N   0  0  0  0  0  0  0  0  0  0  0  0
   59.3790   29.5050   45.2110 N   0  0  0  0  0  0  0  0  0  0  0  0
   59.4420   28.1090   44.7540 C   0  0  0  0  0  0  0  0  0  0  0  0
   59.1210   27.2100   45.8670 N   0  0  0  0  0  0  0  0  0  0  0  0
   60.1300   26.8740   46.8780 C   0  0  0  0  0  0  0  0  0  0  0  0
   59.9150   27.7110   48.1090 C   0  0  0  0  0  0  0  0  0  0  0  0
   58.8830   28.6620   48.1460 C   0  0  0  0  0  0  0  0  0  0  0  0
   58.7160   29.4750   49.2720 C   0  0  0  0  0  0  0  0  0  0  0  0
   59.5850   29.3530   50.3590 C   0  0  0  0  0  0  0  0  0  0  0  0
   60.6240   28.4190   50.3220 C   0  0  0  0  0  0  0  0  0  0  0  0
   60.7930   27.6030   49.2000 C   0  0  0  0  0  0  0  0  0  0  0  0
   57.8410   26.5580   45.8990 C   0  0  0  0  0  0  0  0  0  0  0  0
   57.7620   25.1600   45.8620 C   0  0  0  0  0  0  0  0  0  0  0  0
   56.5160   24.5310   45.8860 C   0  0  0  0  0  0  0  0  0  0  0  0
   55.3590   25.3100   45.9430 C   0  0  0  0  0  0  0  0  0  0  0  0
   55.4500   26.6660   45.9710 N   0  0  0  0  0  0  0  0  0  0  0  0
   56.6520   27.3040   45.9490 C   0  0  0  0  0  0  0  0  0  0  0  0
   56.6860   28.5630   45.9600 O   0  0  0  0  0  0  0  0  0  0  0  0
   58.4260   30.3520   44.7090 C   0  0  0  0  0  0  0  0  0  0  0  0
   57.5690   29.9250   43.8850 O   0  0  0  0  0  0  0  0  0  0  0  0
   58.4080   31.6970   45.1090 C   0  0  0  0  0  0  0  0  0  0  0  0
   57.4350   32.5920   44.6200 C   0  0  0  0  0  0  0  0  0  0  0  0
   57.4350   33.9270   45.0280 C   0  0  0  0  0  0  0  0  0  0  0  0
   58.3990   34.3840   45.9230 C   0  0  0  0  0  0  0  0  0  0  0  0
   59.3720   33.5130   46.4160 C   0  0  0  0  0  0  0  0  0  0  0  0
   59.3890   32.1580   46.0150 C   0  0  0  0  0  0  0  0  0  0  0  0
   61.1004   31.5348   48.4733 H   0  0  0  0  0  0  0  0  0  0  0  0
   62.3419   31.0524   47.2681 H   0  0  0  0  0  0  0  0  0  0  0  0
   61.6934   32.7275   47.2681 H   0  0  0  0  0  0  0  0  0  0  0  0
   61.0470   29.2890   46.4020 H   0  0  0  0  0  0  0  0  0  0  0  0
   58.7171   27.9574   43.9407 H   0  0  0  0  0  0  0  0  0  0  0  0
   60.4566   27.8902   44.3898 H   0  0  0  0  0  0  0  0  0  0  0  0
   60.0437   25.8093   47.1405 H   0  0  0  0  0  0  0  0  0  0  0  0
   61.1324   27.0752   46.4721 H   0  0  0  0  0  0  0  0  0  0  0  0
   58.2039   28.7681   47.2872 H   0  0  0  0  0  0  0  0  0  0  0  0
   57.8994   30.2114   49.3016 H   0  0  0  0  0  0  0  0  0  0  0  0
   59.4515   29.9922   51.2442 H   0  0  0  0  0  0  0  0  0  0  0  0
   61.3097   28.3260   51.1771 H   0  0  0  0  0  0  0  0  0  0  0  0
   61.6162   26.8739   49.1713 H   0  0  0  0  0  0  0  0  0  0  0  0
   58.6814   24.5580   45.8141 H   0  0  0  0  0  0  0  0  0  0  0  0
   56.4466   23.4335   45.8603 H   0  0  0  0  0  0  0  0  0  0  0  0
   54.3717   24.8256   45.9653 H   0  0  0  0  0  0  0  0  0  0  0  0
   56.6712   32.2364   43.9128 H   0  0  0  0  0  0  0  0  0  0  0  0
   56.6722   34.6191   44.6419 H   0  0  0  0  0  0  0  0  0  0  0  0
   58.3937   35.4364   46.2430 H   0  0  0  0  0  0  0  0  0  0  0  0
   60.1305   33.8837   47.1212 H   0  0  0  0  0  0  0  0  0  0  0  0
  1  2  1  0
  2  3  2  0
  3  4  1  0
  4  5  1  0
  5  6  1  0
  6  7  1  0
  7  8  1  0
  8  9  2  0
  9 10  1  0
 10 11  2  0
 11 12  1  0
 12 13  2  0
  6 14  1  0
 14 15  2  0
 15 16  1  0
 16 17  2  0
 17 18  1  0
 18 19  1  0
 19 20  2  0
  4 21  1  0
 21 22  2  0
 21 23  1  0
 23 24  2  0
 24 25  1  0
 25 26  2  0
 26 27  1  0
 27 28  2  0
 28  2  1  0
 13  8  1  0
 19 14  1  0
 28 23  1  0
  1 29  1  0
  1 30  1  0
  1 31  1  0
  3 32  1  0
  5 33  1  0
  5 34  1  0
  7 35  1  0
  7 36  1  0
  9 37  1  0
 10 38  1  0
 11 39  1  0
 12 40  1  0
 13 41  1  0
 15 42  1  0
 16 43  1  0
 17 44  1  0
 24 45  1  0
 25 46  1  0
 26 47  1  0
 27 48  1  0
M  CHG  2   3   1  18  -1
M  END
>  <UniqueID>  (85) 
71

>  <SMILES>  (85) 
Cc1[nH+]n(CN(Cc2ccccc2)c2ccc[n-]c2=O)c(=O)c2ccccc12

>  <Energy>  (85) 
62.47502221493286

>  <Genealogy>  (85) 
Cc1[nH+]n(CN(Cc2ccccc2)c2ccc[n-]c2=O)c(=O)c2ccccc12 (protonated)
Cc1[nH+]n(CN(Cc2ccccc2)c2ccc[n-]c2=O)c(=O)c2ccccc12 (3D coordinates assigned)
Cc1[nH+]n(CN(Cc2ccccc2)c2ccc[n-]c2=O)c(=O)c2ccccc12 (optimized conformer: 62.47502221493286 kcal/mol)

>  <smiles>  (85) 
Cc1nn(CN(Cc2ccccc2)c2ccc[nH]c2=O)c(=O)c2ccccc12

>  <score_type>  (85) 
oracle

>  <origin>  (85) 
adg

>  <m_score__min__energy>  (85) 
-8.7100000000000009

>  <m_primary>  (85) 
energy

$$$$
86:0
     RDKit          3D

 34 36  0  0  0  0  0  0  0  0999 V2000
   55.7940   26.0660   46.0350 N   0  0  0  0  0  0  0  0  0  0  0  0
   56.5510   27.1040   46.0140 C   0  0  0  0  0  0  0  0  0  0  0  0
   57.7550   27.1320   46.6210 N   0  0  0  0  0  0  0  0  0  0  0  0
   58.5270   28.2450   46.5760 C   0  0  0  0  0  0  0  0  0  0  0  0
   59.6650   28.2830   47.1460 O   0  0  0  0  0  0  0  0  0  0  0  0
   58.0830   29.3650   45.9080 C   0  0  0  0  0  0  0  0  0  0  0  0
   58.5590   30.6000   45.6650 N   0  0  0  0  0  0  0  0  0  0  0  0
   57.6600   31.2990   44.9300 C   0  0  0  0  0  0  0  0  0  0  0  0
   57.7480   32.9620   44.3180 S   0  0  0  0  0  0  0  0  0  0  0  0
   57.7700   34.1690   45.6820 C   0  0  0  0  0  0  0  0  0  0  0  0
   59.1490   34.2310   46.2340 C   0  0  0  0  0  0  0  0  0  0  0  0
   59.9890   35.1120   45.8780 O   0  0  0  0  0  0  0  0  0  0  0  0
   59.5940   33.2940   47.1990 N   0  0  0  0  0  0  0  0  0  0  0  0
   60.8950   33.3460   47.7260 C   0  0  0  0  0  0  0  0  0  0  0  0
   61.8590   32.5470   47.1010 C   0  0  0  0  0  0  0  0  0  0  0  0
   63.1650   32.5330   47.5500 C   0  0  0  0  0  0  0  0  0  0  0  0
   63.5080   33.3300   48.6410 C   0  0  0  0  0  0  0  0  0  0  0  0
   64.8150   33.2770   49.0430 F   0  0  0  0  0  0  0  0  0  0  0  0
   62.5680   34.1130   49.2570 C   0  0  0  0  0  0  0  0  0  0  0  0
   61.2430   34.1410   48.8180 C   0  0  0  0  0  0  0  0  0  0  0  0
   56.5850   30.4910   44.6970 N   0  0  0  0  0  0  0  0  0  0  0  0
   56.8300   29.3130   45.2870 C   0  0  0  0  0  0  0  0  0  0  0  0
   56.0800   28.1820   45.3480 N   0  0  0  0  0  0  0  0  0  0  0  0
   54.9940   26.0210   46.7220 H   0  0  0  0  0  0  0  0  0  0  0  0
   58.0740   26.2750   47.1210 H   0  0  0  0  0  0  0  0  0  0  0  0
   59.4800   30.9680   45.9920 H   0  0  0  0  0  0  0  0  0  0  0  0
   57.4760   35.1599   45.3056 H   0  0  0  0  0  0  0  0  0  0  0  0
   57.0628   33.8637   46.4673 H   0  0  0  0  0  0  0  0  0  0  0  0
   58.9300   32.5540   47.5170 H   0  0  0  0  0  0  0  0  0  0  0  0
   61.5731   31.9226   46.2417 H   0  0  0  0  0  0  0  0  0  0  0  0
   63.9205   31.9046   47.0558 H   0  0  0  0  0  0  0  0  0  0  0  0
   62.8635   34.7331   50.1161 H   0  0  0  0  0  0  0  0  0  0  0  0
   60.4945   34.7723   49.3192 H   0  0  0  0  0  0  0  0  0  0  0  0
   55.1450   28.1420   44.8840 H   0  0  0  0  0  0  0  0  0  0  0  0
  1  2  2  3
  2  3  1  0
  3  4  1  0
  4  5  2  0
  4  6  1  0
  6  7  1  0
  7  8  1  0
  8  9  1  0
  9 10  1  0
 10 11  1  0
 11 12  2  0
 11 13  1  0
 13 14  1  0
 14 15  2  0
 15 16  1  0
 16 17  2  0
 17 18  1  0
 17 19  1  0
 19 20  2  0
  8 21  2  0
 21 22  1  0
 22 23  1  0
 23  2  1  0
 22  6  2  0
 20 14  1  0
  1 24  1  0
  3 25  1  0
  7 26  1  0
 10 27  1  0
 10 28  1  0
 13 29  1  0
 15 30  1  0
 16 31  1  0
 19 32  1  0
 20 33  1  0
 23 34  1  0
M  END
>  <smiles>  (86) 
N=c1[nH]c(=O)c2[nH]c(SCC(=O)Nc3ccc(F)cc3)nc2[nH]1

>  <score_type>  (86) 
oracle

>  <origin>  (86) 
adg

>  <m_score__min__energy>  (86) 
-7.8099999999999996

>  <m_primary>  (86) 
energy

$$$$
87:0
     RDKit          3D

 50 52  0  0  0  0  0  0  0  0999 V2000
   59.6910   35.3990   46.2210 C   0  0  0  0  0  0  0  0  0  0  0  0
   58.9730   35.1470   44.8980 C   0  0  0  0  0  0  0  0  0  0  0  0
   58.4470   33.7380   44.8390 C   0  0  0  0  0  0  0  0  0  0  0  0
   58.1990   33.0260   46.0240 C   0  0  0  0  0  0  0  0  0  0  0  0
   57.7480   31.7050   45.9700 C   0  0  0  0  0  0  0  0  0  0  0  0
   57.5470   31.0750   44.7350 C   0  0  0  0  0  0  0  0  0  0  0  0
   56.9540   29.4180   44.6930 S   0  0  0  0  0  0  0  0  0  0  0  0
   57.0520   28.9080   43.2840 O   0  0  0  0  0  0  0  0  0  0  0  0
   55.5200   29.3430   45.1380 O   0  0  0  0  0  0  0  0  0  0  0  0
   57.9330   28.4310   45.7300 N   0  0  0  0  0  0  0  0  0  0  0  0
   58.9670   28.9260   46.5880 C   0  0  0  0  0  0  0  0  0  0  0  0
   60.1100   29.4840   46.0100 C   0  0  0  0  0  0  0  0  0  0  0  0
   61.1160   30.0290   46.8100 C   0  0  0  0  0  0  0  0  0  0  0  0
   61.0030   30.0200   48.2140 C   0  0  0  0  0  0  0  0  0  0  0  0
   59.8860   29.3800   48.7960 C   0  0  0  0  0  0  0  0  0  0  0  0
   58.8650   28.8640   47.9850 C   0  0  0  0  0  0  0  0  0  0  0  0
   59.7640   29.2840   50.2920 C   0  0  0  0  0  0  0  0  0  0  0  0
   61.1480   29.2180   50.9330 C   0  0  0  0  0  0  0  0  0  0  0  0
   61.9770   30.4360   50.5250 C   0  0  0  0  0  0  0  0  0  0  0  0
   62.0200   30.6100   49.0670 N   0  0  0  0  0  0  0  0  0  0  0  0
   63.1550   31.7870   48.4600 S   0  0  0  0  0  0  0  0  0  0  0  0
   64.2640   31.9920   49.4540 O   0  0  0  0  0  0  0  0  0  0  0  0
   63.7620   31.2900   47.1790 O   0  0  0  0  0  0  0  0  0  0  0  0
   62.3060   33.3270   48.1400 C   0  0  0  0  0  0  0  0  0  0  0  0
   62.5750   33.8130   46.7240 C   0  0  0  0  0  0  0  0  0  0  0  0
   57.8060   31.7770   43.5500 C   0  0  0  0  0  0  0  0  0  0  0  0
   58.2580   33.1000   43.6020 C   0  0  0  0  0  0  0  0  0  0  0  0
   59.0152   35.1618   47.0559 H   0  0  0  0  0  0  0  0  0  0  0  0
   60.5851   34.7609   46.2803 H   0  0  0  0  0  0  0  0  0  0  0  0
   59.9902   36.4559   46.2803 H   0  0  0  0  0  0  0  0  0  0  0  0
   58.1327   35.8505   44.8033 H   0  0  0  0  0  0  0  0  0  0  0  0
   59.6872   35.2930   44.0742 H   0  0  0  0  0  0  0  0  0  0  0  0
   58.3605   33.5104   46.9983 H   0  0  0  0  0  0  0  0  0  0  0  0
   57.5496   31.1563   46.9025 H   0  0  0  0  0  0  0  0  0  0  0  0
   60.2182   29.4940   44.9154 H   0  0  0  0  0  0  0  0  0  0  0  0
   62.0066   30.4703   46.3388 H   0  0  0  0  0  0  0  0  0  0  0  0
   57.9778   28.4074   48.4481 H   0  0  0  0  0  0  0  0  0  0  0  0
   59.2307   30.1686   50.6702 H   0  0  0  0  0  0  0  0  0  0  0  0
   59.2071   28.3705   50.5478 H   0  0  0  0  0  0  0  0  0  0  0  0
   61.0411   29.2013   52.0277 H   0  0  0  0  0  0  0  0  0  0  0  0
   61.6586   28.3054   50.5917 H   0  0  0  0  0  0  0  0  0  0  0  0
   61.5329   31.3352   50.9769 H   0  0  0  0  0  0  0  0  0  0  0  0
   63.0068   30.2796   50.8787 H   0  0  0  0  0  0  0  0  0  0  0  0
   61.2242   33.1750   48.2689 H   0  0  0  0  0  0  0  0  0  0  0  0
   62.6753   34.0846   48.8469 H   0  0  0  0  0  0  0  0  0  0  0  0
   63.1074   34.7749   46.7614 H   0  0  0  0  0  0  0  0  0  0  0  0
   63.1919   33.0729   46.1933 H   0  0  0  0  0  0  0  0  0  0  0  0
   61.6203   33.9427   46.1933 H   0  0  0  0  0  0  0  0  0  0  0  0
   57.6536   31.2868   42.5771 H   0  0  0  0  0  0  0  0  0  0  0  0
   58.4666   33.6437   42.6688 H   0  0  0  0  0  0  0  0  0  0  0  0
  1  2  1  0
  2  3  1  0
  3  4  2  0
  4  5  1  0
  5  6  2  0
  6  7  1  0
  7  8  2  0
  7  9  2  0
  7 10  1  0
 10 11  1  0
 11 12  2  0
 12 13  1  0
 13 14  2  0
 14 15  1  0
 15 16  2  0
 15 17  1  0
 17 18  1  0
 18 19  1  0
 19 20  1  0
 20 21  1  0
 21 22  2  0
 21 23  2  0
 21 24  1  0
 24 25  1  0
  6 26  1  0
 26 27  2  0
 27  3  1  0
 16 11  1  0
 20 14  1  0
  1 28  1  0
  1 29  1  0
  1 30  1  0
  2 31  1  0
  2 32  1  0
  4 33  1  0
  5 34  1  0
 12 35  1  0
 13 36  1  0
 16 37  1  0
 17 38  1  0
 17 39  1  0
 18 40  1  0
 18 41  1  0
 19 42  1  0
 19 43  1  0
 24 44  1  0
 24 45  1  0
 25 46  1  0
 25 47  1  0
 25 48  1  0
 26 49  1  0
 27 50  1  0
M  CHG  1  10  -1
M  END
>  <UniqueID>  (87) 
72

>  <SMILES>  (87) 
CCc1ccc(S(=O)(=O)[N-]c2ccc3c(c2)CCCN3S(=O)(=O)CC)cc1

>  <Energy>  (87) 
47.805290223888306

>  <Genealogy>  (87) 
CCc1ccc(S(=O)(=O)[N-]c2ccc3c(c2)CCCN3S(=O)(=O)CC)cc1 (protonated)
CCc1ccc(S(=O)(=O)[N-]c2ccc3c(c2)CCCN3S(=O)(=O)CC)cc1 (3D coordinates assigned)
CCc1ccc(S(=O)(=O)[N-]c2ccc3c(c2)CCCN3S(=O)(=O)CC)cc1 (nonaromatic ring conformer: 47.805290223888306 kcal/mol)

>  <smiles>  (87) 
CCc1ccc(S(=O)(=O)Nc2ccc3c(c2)CCCN3S(=O)(=O)CC)cc1

>  <score_type>  (87) 
oracle

>  <origin>  (87) 
adg

>  <m_score__min__energy>  (87) 
-10.029999999999999

>  <m_primary>  (87) 
energy

$$$$
88:0
     RDKit          3D

 47 49  0  0  0  0  0  0  0  0999 V2000
   57.7830   23.4570   44.4790 C   0  0  0  0  0  0  0  0  0  0  0  0
   58.5290   24.5490   45.0090 O   0  0  0  0  0  0  0  0  0  0  0  0
   58.0530   25.8660   45.0950 C   0  0  0  0  0  0  0  0  0  0  0  0
   57.4820   26.3870   46.2720 C   0  0  0  0  0  0  0  0  0  0  0  0
   57.0250   27.7080   46.3080 C   0  0  0  0  0  0  0  0  0  0  0  0
   57.1440   28.5310   45.1830 C   0  0  0  0  0  0  0  0  0  0  0  0
   56.6500   29.8770   45.2520 N   0  0  0  0  0  0  0  0  0  0  0  0
   57.0850   30.9790   44.4440 C   0  0  0  0  0  0  0  0  0  0  0  0
   56.8260   30.9630   43.2120 O   0  0  0  0  0  0  0  0  0  0  0  0
   57.7460   32.1670   45.0350 C   0  0  0  0  0  0  0  0  0  0  0  0
   57.4760   33.4370   44.4970 C   0  0  0  0  0  0  0  0  0  0  0  0
   58.1090   34.5730   45.0030 C   0  0  0  0  0  0  0  0  0  0  0  0
   59.0220   34.4550   46.0510 C   0  0  0  0  0  0  0  0  0  0  0  0
   59.3030   33.2020   46.5980 C   0  0  0  0  0  0  0  0  0  0  0  0
   58.6790   32.0450   46.0950 C   0  0  0  0  0  0  0  0  0  0  0  0
   58.9170   30.7730   46.7230 N   0  0  0  0  0  0  0  0  0  0  0  0
   60.2240   30.3360   47.1340 C   0  0  0  0  0  0  0  0  0  0  0  0
   61.2480   30.8940   46.6530 O   0  0  0  0  0  0  0  0  0  0  0  0
   60.3870   29.2100   48.0850 C   0  0  0  0  0  0  0  0  0  0  0  0
   60.2820   27.8820   47.6320 C   0  0  0  0  0  0  0  0  0  0  0  0
   60.4390   26.8150   48.5210 C   0  0  0  0  0  0  0  0  0  0  0  0
   60.7100   27.0470   49.8720 C   0  0  0  0  0  0  0  0  0  0  0  0
   60.8590   25.9420   50.7230 O   0  0  0  0  0  0  0  0  0  0  0  0
   61.8790   25.8180   51.7080 C   0  0  0  0  0  0  0  0  0  0  0  0
   60.8280   28.3730   50.3300 C   0  0  0  0  0  0  0  0  0  0  0  0
   60.6710   29.4430   49.4420 C   0  0  0  0  0  0  0  0  0  0  0  0
   57.6910   28.0030   44.0000 C   0  0  0  0  0  0  0  0  0  0  0  0
   58.1490   26.6830   43.9640 C   0  0  0  0  0  0  0  0  0  0  0  0
   57.3734   22.8574   45.3053 H   0  0  0  0  0  0  0  0  0  0  0  0
   56.9582   23.8419   43.8613 H   0  0  0  0  0  0  0  0  0  0  0  0
   58.4414   22.8286   43.8613 H   0  0  0  0  0  0  0  0  0  0  0  0
   57.3951   25.7525   47.1664 H   0  0  0  0  0  0  0  0  0  0  0  0
   56.5686   28.1030   47.2276 H   0  0  0  0  0  0  0  0  0  0  0  0
   56.7587   33.5365   43.6690 H   0  0  0  0  0  0  0  0  0  0  0  0
   57.8879   35.5620   44.5752 H   0  0  0  0  0  0  0  0  0  0  0  0
   59.5216   35.3514   46.4472 H   0  0  0  0  0  0  0  0  0  0  0  0
   60.0183   33.1180   47.4294 H   0  0  0  0  0  0  0  0  0  0  0  0
   58.1170   30.1090   46.8180 H   0  0  0  0  0  0  0  0  0  0  0  0
   60.0748   27.6821   46.5703 H   0  0  0  0  0  0  0  0  0  0  0  0
   60.3483   25.7822   48.1534 H   0  0  0  0  0  0  0  0  0  0  0  0
   61.4293   25.8727   52.7104 H   0  0  0  0  0  0  0  0  0  0  0  0
   62.3896   24.8512   51.5874 H   0  0  0  0  0  0  0  0  0  0  0  0
   62.6064   26.6343   51.5874 H   0  0  0  0  0  0  0  0  0  0  0  0
   61.0446   28.5688   51.3906 H   0  0  0  0  0  0  0  0  0  0  0  0
   60.7707   30.4752   49.8089 H   0  0  0  0  0  0  0  0  0  0  0  0
   57.7587   28.6312   43.0996 H   0  0  0  0  0  0  0  0  0  0  0  0
   58.5887   26.2834   43.0383 H   0  0  0  0  0  0  0  0  0  0  0  0
  1  2  1  0
  2  3  1  0
  3  4  2  0
  4  5  1  0
  5  6  2  0
  6  7  1  0
  7  8  1  0
  8  9  2  0
  8 10  1  0
 10 11  2  0
 11 12  1  0
 12 13  2  0
 13 14  1  0
 14 15  2  0
 15 16  1  0
 16 17  1  0
 17 18  2  0
 17 19  1  0
 19 20  2  0
 20 21  1  0
 21 22  2  0
 22 23  1  0
 23 24  1  0
 22 25  1  0
 25 26  2  0
  6 27  1  0
 27 28  2  0
 28  3  1  0
 15 10  1  0
 26 19  1  0
  1 29  1  0
  1 30  1  0
  1 31  1  0
  4 32  1  0
  5 33  1  0
 11 34  1  0
 12 35  1  0
 13 36  1  0
 14 37  1  0
 16 38  1  0
 20 39  1  0
 21 40  1  0
 24 41  1  0
 24 42  1  0
 24 43  1  0
 25 44  1  0
 26 45  1  0
 27 46  1  0
 28 47  1  0
M  CHG  1   7  -1
M  END
>  <UniqueID>  (88) 
73

>  <SMILES>  (88) 
COc1ccc([N-]C(=O)c2ccccc2NC(=O)c2ccc(OC)cc2)cc1

>  <Energy>  (88) 
62.881397348490246

>  <Genealogy>  (88) 
COc1ccc([N-]C(=O)c2ccccc2NC(=O)c2ccc(OC)cc2)cc1 (protonated)
COc1ccc([N-]C(=O)c2ccccc2NC(=O)c2ccc(OC)cc2)cc1 (3D coordinates assigned)
COc1ccc([N-]C(=O)c2ccccc2NC(=O)c2ccc(OC)cc2)cc1 (optimized conformer: 62.881397348490246 kcal/mol)

>  <smiles>  (88) 
COc1ccc(NC(=O)c2ccccc2NC(=O)c2ccc(OC)cc2)cc1

>  <score_type>  (88) 
oracle

>  <origin>  (88) 
adg

>  <m_score__min__energy>  (88) 
-8.9900000000000002

>  <m_primary>  (88) 
energy

$$$$
89:0
     RDKit          3D

 16 16  0  0  0  0  0  0  0  0999 V2000
   56.4300   31.1430   52.0360 C   0  0  0  0  0  0  0  0  0  0  0  0
   55.3290   30.4490   51.4570 O   0  0  0  0  0  0  0  0  0  0  0  0
   53.9940   30.5980   51.8650 C   0  0  0  0  0  0  0  0  0  0  0  0
   53.1590   31.6050   51.3400 C   0  0  0  0  0  0  0  0  0  0  0  0
   51.8330   31.7190   51.7740 C   0  0  0  0  0  0  0  0  0  0  0  0
   51.0170   32.7150   51.2510 O   0  0  0  0  0  0  0  0  0  0  0  0
   51.3310   30.8320   52.7310 C   0  0  0  0  0  0  0  0  0  0  0  0
   50.0460   30.9410   53.1530 F   0  0  0  0  0  0  0  0  0  0  0  0
   52.1520   29.8320   53.2560 C   0  0  0  0  0  0  0  0  0  0  0  0
   53.4790   29.7130   52.8260 C   0  0  0  0  0  0  0  0  0  0  0  0
   54.4890   28.4450   53.5030 Cl  0  0  0  0  0  0  0  0  0  0  0  0
   56.3568   31.0969   53.1326 H   0  0  0  0  0  0  0  0  0  0  0  0
   57.3706   30.6742   51.7113 H   0  0  0  0  0  0  0  0  0  0  0  0
   56.4128   32.1938   51.7113 H   0  0  0  0  0  0  0  0  0  0  0  0
   53.5508   32.3039   50.5864 H   0  0  0  0  0  0  0  0  0  0  0  0
   51.7551   29.1358   54.0095 H   0  0  0  0  0  0  0  0  0  0  0  0
  1  2  1  0
  2  3  1  0
  3  4  2  0
  4  5  1  0
  5  6  1  0
  5  7  2  0
  7  8  1  0
  7  9  1  0
  9 10  2  0
 10 11  1  0
 10  3  1  0
  1 12  1  0
  1 13  1  0
  1 14  1  0
  4 15  1  0
  9 16  1  0
M  CHG  1   6  -1
M  END
>  <UniqueID>  (89) 
74

>  <SMILES>  (89) 
COc1cc([O-])c(F)cc1Cl

>  <Energy>  (89) 
14.497581299972646

>  <Genealogy>  (89) 
COc1cc([O-])c(F)cc1Cl (protonated)
COc1cc([O-])c(F)cc1Cl (3D coordinates assigned)
COc1cc([O-])c(F)cc1Cl (optimized conformer: 14.497581299972646 kcal/mol)

>  <smiles>  (89) 
COc1cc(O)c(F)cc1Cl

>  <score_type>  (89) 
oracle

>  <origin>  (89) 
adg

>  <m_score__min__energy>  (89) 
-8.3699999999999992

>  <m_primary>  (89) 
energy

$$$$
90:0
     RDKit          3D

 43 45  0  0  0  0  0  0  0  0999 V2000
   61.4141   28.8955   48.0979 H   0  0  0  0  0  0  0  0  0  0  0  0
   60.5410   28.9130   47.4290 C   0  0  0  0  0  0  0  0  0  0  0  0
   60.1820   27.7810   46.8060 C   0  0  0  0  0  0  0  0  0  0  0  0
   60.9766   27.1010   46.4652 H   0  0  0  0  0  0  0  0  0  0  0  0
   58.7720   27.3950   46.5510 C   0  0  0  0  0  0  0  0  0  0  0  0
   57.8850   28.2190   45.8400 C   0  0  0  0  0  0  0  0  0  0  0  0
   58.2395   29.1840   45.4487 H   0  0  0  0  0  0  0  0  0  0  0  0
   56.5480   27.8310   45.6190 C   0  0  0  0  0  0  0  0  0  0  0  0
   55.6670   28.6560   44.9030 O   0  0  0  0  0  0  0  0  0  0  0  0
   56.0590   29.7240   44.0440 C   0  0  0  0  0  0  0  0  0  0  0  0
   56.3752   30.5854   44.6507 H   0  0  0  0  0  0  0  0  0  0  0  0
   56.8953   29.3959   43.4092 H   0  0  0  0  0  0  0  0  0  0  0  0
   55.2090   30.0148   43.4092 H   0  0  0  0  0  0  0  0  0  0  0  0
   56.0940   26.5900   46.1370 C   0  0  0  0  0  0  0  0  0  0  0  0
   54.7810   26.1070   45.9680 O   0  0  0  0  0  0  0  0  0  0  0  0
   54.4030   24.8400   45.4420 C   0  0  0  0  0  0  0  0  0  0  0  0
   54.1960   24.1462   46.2701 H   0  0  0  0  0  0  0  0  0  0  0  0
   53.4997   24.9540   44.8246 H   0  0  0  0  0  0  0  0  0  0  0  0
   55.2211   24.4404   44.8246 H   0  0  0  0  0  0  0  0  0  0  0  0
   56.9750   25.7760   46.8660 C   0  0  0  0  0  0  0  0  0  0  0  0
   56.4870   24.5590   47.3710 O   0  0  0  0  0  0  0  0  0  0  0  0
   56.9560   23.2730   46.9770 C   0  0  0  0  0  0  0  0  0  0  0  0
   57.1750   22.6725   47.8722 H   0  0  0  0  0  0  0  0  0  0  0  0
   56.1838   22.7690   46.3773 H   0  0  0  0  0  0  0  0  0  0  0  0
   57.8714   23.3844   46.3773 H   0  0  0  0  0  0  0  0  0  0  0  0
   58.3040   26.1850   47.0720 C   0  0  0  0  0  0  0  0  0  0  0  0
   58.9852   25.5442   47.6511 H   0  0  0  0  0  0  0  0  0  0  0  0
   59.8070   30.1830   47.2500 C   0  0  0  0  0  0  0  0  0  0  0  0
   59.4680   30.6200   46.0030 N   0  0  0  0  0  0  0  0  0  0  0  0
   58.7940   31.7840   45.8040 C   0  0  0  0  0  0  0  0  0  0  0  0
   58.4650   32.1940   44.5060 C   0  0  0  0  0  0  0  0  0  0  0  0
   58.7511   31.5734   43.6440 H   0  0  0  0  0  0  0  0  0  0  0  0
   57.7730   33.3920   44.3060 C   0  0  0  0  0  0  0  0  0  0  0  0
   57.5155   33.7128   43.2858 H   0  0  0  0  0  0  0  0  0  0  0  0
   57.4070   34.1840   45.3990 C   0  0  0  0  0  0  0  0  0  0  0  0
   56.8624   35.1256   45.2356 H   0  0  0  0  0  0  0  0  0  0  0  0
   57.7310   33.7830   46.6990 C   0  0  0  0  0  0  0  0  0  0  0  0
   57.4410   34.4083   47.5562 H   0  0  0  0  0  0  0  0  0  0  0  0
   58.4260   32.5830   46.9090 C   0  0  0  0  0  0  0  0  0  0  0  0
   58.7650   32.1520   48.1970 C   0  0  0  0  0  0  0  0  0  0  0  0
   58.4869   32.7580   49.0719 H   0  0  0  0  0  0  0  0  0  0  0  0
   59.4570   30.9510   48.3690 C   0  0  0  0  0  0  0  0  0  0  0  0
   59.7264   30.6091   49.3792 H   0  0  0  0  0  0  0  0  0  0  0  0
  1  2  1  0
  2  3  2  0
  3  4  1  0
  3  5  1  0
  5  6  2  0
  6  7  1  0
  6  8  1  0
  8  9  1  0
  9 10  1  0
 10 11  1  0
 10 12  1  0
 10 13  1  0
  8 14  2  0
 14 15  1  0
 15 16  1  0
 16 17  1  0
 16 18  1  0
 16 19  1  0
 14 20  1  0
 20 21  1  0
 21 22  1  0
 22 23  1  0
 22 24  1  0
 22 25  1  0
 20 26  2  0
 26 27  1  0
  2 28  1  0
 28 29  2  0
 29 30  1  0
 30 31  2  0
 31 32  1  0
 31 33  1  0
 33 34  1  0
 33 35  2  0
 35 36  1  0
 35 37  1  0
 37 38  1  0
 37 39  2  0
 39 40  1  0
 40 41  1  0
 40 42  2  0
 42 43  1  0
 26  5  1  0
 42 28  1  0
 39 30  1  0
M  END
>  <UniqueID>  (90) 
75

>  <SMILES>  (90) 
COc1cc(/C=C/c2ccc3ccccc3n2)cc(OC)c1OC

>  <Energy>  (90) 
52.253770263739675

>  <Genealogy>  (90) 
COc1cc(/C=C/c2ccc3ccccc3n2)cc(OC)c1OC (cis-trans isomerization)
COc1cc(/C=C/c2ccc3ccccc3n2)cc(OC)c1OC (3D coordinates assigned)
COc1cc(/C=C/c2ccc3ccccc3n2)cc(OC)c1OC (optimized conformer: 52.253770263739675 kcal/mol)

>  <smiles>  (90) 
COc1cc(C=Cc2ccc3ccccc3n2)cc(OC)c1OC

>  <score_type>  (90) 
oracle

>  <origin>  (90) 
adg

>  <m_score__min__energy>  (90) 
-8.0199999999999996

>  <m_primary>  (90) 
energy

$$$$
91:0
     RDKit          3D

 39 41  0  0  0  0  0  0  0  0999 V2000
   59.5200   32.9990   50.2670 C   0  0  0  0  0  0  0  0  0  0  0  0
   59.6680   32.8400   48.8600 O   0  0  0  0  0  0  0  0  0  0  0  0
   60.9210   32.8130   48.2380 C   0  0  0  0  0  0  0  0  0  0  0  0
   61.2360   33.7880   47.2820 C   0  0  0  0  0  0  0  0  0  0  0  0
   60.0050   34.9850   46.7600 S   0  0  0  0  0  0  0  0  0  0  0  0
   59.0630   33.7370   45.8780 C   0  0  0  0  0  0  0  0  0  0  0  0
   58.8470   33.8690   44.5040 C   0  0  0  0  0  0  0  0  0  0  0  0
   58.0780   32.9140   43.8360 C   0  0  0  0  0  0  0  0  0  0  0  0
   57.5360   31.8290   44.5390 C   0  0  0  0  0  0  0  0  0  0  0  0
   56.7390   30.8410   43.8610 N   0  0  0  0  0  0  0  0  0  0  0  0
   56.9040   30.6130   42.6450 O   0  0  0  0  0  0  0  0  0  0  0  0
   55.7810   30.1270   44.5450 O   0  0  0  0  0  0  0  0  0  0  0  0
   57.7870   31.7330   45.9190 C   0  0  0  0  0  0  0  0  0  0  0  0
   58.5370   32.6770   46.5510 N   0  0  0  0  0  0  0  0  0  0  0  0
   62.5160   33.8260   46.7240 C   0  0  0  0  0  0  0  0  0  0  0  0
   63.4610   32.8770   47.1130 C   0  0  0  0  0  0  0  0  0  0  0  0
   63.1200   31.8960   47.9900 N   0  0  0  0  0  0  0  0  0  0  0  0
   61.8750   31.8150   48.5330 C   0  0  0  0  0  0  0  0  0  0  0  0
   61.5730   30.7240   49.3560 O   0  0  0  0  0  0  0  0  0  0  0  0
   60.9680   29.5370   48.9100 C   0  0  0  0  0  0  0  0  0  0  0  0
   60.3080   29.5440   47.6740 C   0  0  0  0  0  0  0  0  0  0  0  0
   59.6970   28.3820   47.1920 C   0  0  0  0  0  0  0  0  0  0  0  0
   59.7340   27.2070   47.9460 C   0  0  0  0  0  0  0  0  0  0  0  0
   60.3750   27.1930   49.1870 C   0  0  0  0  0  0  0  0  0  0  0  0
   60.9840   28.3530   49.6740 C   0  0  0  0  0  0  0  0  0  0  0  0
   60.1802   32.2897   50.7876 H   0  0  0  0  0  0  0  0  0  0  0  0
   59.7901   34.0270   50.5503 H   0  0  0  0  0  0  0  0  0  0  0  0
   58.4753   32.8031   50.5503 H   0  0  0  0  0  0  0  0  0  0  0  0
   59.2789   34.7177   43.9534 H   0  0  0  0  0  0  0  0  0  0  0  0
   57.8970   33.0133   42.7555 H   0  0  0  0  0  0  0  0  0  0  0  0
   57.3745   30.8894   46.4919 H   0  0  0  0  0  0  0  0  0  0  0  0
   58.7010   32.5870   47.5790 H   0  0  0  0  0  0  0  0  0  0  0  0
   62.7763   34.5975   45.9844 H   0  0  0  0  0  0  0  0  0  0  0  0
   64.4834   32.9224   46.7097 H   0  0  0  0  0  0  0  0  0  0  0  0
   60.2702   30.4687   47.0794 H   0  0  0  0  0  0  0  0  0  0  0  0
   59.1866   28.3935   46.2177 H   0  0  0  0  0  0  0  0  0  0  0  0
   59.2583   26.2923   47.5625 H   0  0  0  0  0  0  0  0  0  0  0  0
   60.4005   26.2680   49.7817 H   0  0  0  0  0  0  0  0  0  0  0  0
   61.4775   28.3416   50.6570 H   0  0  0  0  0  0  0  0  0  0  0  0
  1  2  1  0
  2  3  1  0
  3  4  2  0
  4  5  1  0
  5  6  1  0
  6  7  2  0
  7  8  1  0
  8  9  2  0
  9 10  1  0
 10 11  2  0
 10 12  1  0
  9 13  1  0
 13 14  2  0
  4 15  1  0
 15 16  2  0
 16 17  1  0
 17 18  2  0
 18 19  1  0
 19 20  1  0
 20 21  2  0
 21 22  1  0
 22 23  2  0
 23 24  1  0
 24 25  2  0
 18  3  1  0
 25 20  1  0
 14  6  1  0
  1 26  1  0
  1 27  1  0
  1 28  1  0
  7 29  1  0
  8 30  1  0
 13 31  1  0
 14 32  1  0
 15 33  1  0
 16 34  1  0
 21 35  1  0
 22 36  1  0
 23 37  1  0
 24 38  1  0
 25 39  1  0
M  CHG  3  10   1  12  -1  14   1
M  END
>  <UniqueID>  (91) 
76

>  <SMILES>  (91) 
COc1c(Sc2ccc([N+](=O)[O-])c[nH+]2)ccnc1Oc1ccccc1

>  <Energy>  (91) 
50.591825815496186

>  <Genealogy>  (91) 
COc1c(Sc2ccc([N+](=O)[O-])c[nH+]2)ccnc1Oc1ccccc1 (protonated)
COc1c(Sc2ccc([N+](=O)[O-])c[nH+]2)ccnc1Oc1ccccc1 (3D coordinates assigned)
COc1c(Sc2ccc([N+](=O)[O-])c[nH+]2)ccnc1Oc1ccccc1 (optimized conformer: 50.591825815496186 kcal/mol)

>  <smiles>  (91) 
COc1c(Sc2ccc([N+](=O)[O-])cn2)ccnc1Oc1ccccc1

>  <score_type>  (91) 
oracle

>  <origin>  (91) 
adg

>  <m_score__min__energy>  (91) 
-5.5499999999999998

>  <m_primary>  (91) 
energy

$$$$
92:0
     RDKit          3D

 48 51  0  0  0  0  0  0  0  0999 V2000
   59.6160   30.1920   47.0430 C   0  0  0  0  0  0  0  0  0  0  0  0
   60.1060   29.3730   48.2010 C   0  0  0  0  0  0  0  0  0  0  0  0
   60.2900   27.9860   48.2000 C   0  0  0  0  0  0  0  0  0  0  0  0
   60.1260   27.0420   47.0380 C   0  0  0  0  0  0  0  0  0  0  0  0
   58.6680   26.8530   46.7000 C   0  0  0  0  0  0  0  0  0  0  0  0
   57.9930   27.8010   45.9130 C   0  0  0  0  0  0  0  0  0  0  0  0
   56.6400   27.6290   45.6050 C   0  0  0  0  0  0  0  0  0  0  0  0
   55.9510   26.5070   46.0750 C   0  0  0  0  0  0  0  0  0  0  0  0
   54.6070   26.3370   45.7690 O   0  0  0  0  0  0  0  0  0  0  0  0
   56.6180   25.5540   46.8510 C   0  0  0  0  0  0  0  0  0  0  0  0
   57.9710   25.7230   47.1620 C   0  0  0  0  0  0  0  0  0  0  0  0
   60.7090   27.6660   49.4800 C   0  0  0  0  0  0  0  0  0  0  0  0
   61.0320   26.4370   50.0580 C   0  0  0  0  0  0  0  0  0  0  0  0
   61.4010   26.4210   51.4150 C   0  0  0  0  0  0  0  0  0  0  0  0
   61.8190   24.9020   52.1850 Cl  0  0  0  0  0  0  0  0  0  0  0  0
   61.4280   27.6190   52.1600 C   0  0  0  0  0  0  0  0  0  0  0  0
   61.0930   28.8420   51.5560 C   0  0  0  0  0  0  0  0  0  0  0  0
   60.7480   28.8360   50.2000 C   0  0  0  0  0  0  0  0  0  0  0  0
   60.3850   29.8830   49.4290 N   0  0  0  0  0  0  0  0  0  0  0  0
   60.2750   31.2580   49.8310 C   0  0  0  0  0  0  0  0  0  0  0  0
   61.0420   32.1130   49.3120 O   0  0  0  0  0  0  0  0  0  0  0  0
   59.2920   31.6800   50.8600 C   0  0  0  0  0  0  0  0  0  0  0  0
   58.0660   31.0080   50.9840 C   0  0  0  0  0  0  0  0  0  0  0  0
   57.1260   31.3960   51.9560 C   0  0  0  0  0  0  0  0  0  0  0  0
   55.8730   30.6980   52.0840 N   0  0  0  0  0  0  0  0  0  0  0  0
   54.7900   31.3100   51.9810 O   0  0  0  0  0  0  0  0  0  0  0  0
   55.8470   29.3440   52.3230 O   0  0  0  0  0  0  0  0  0  0  0  0
   57.4280   32.4750   52.8030 C   0  0  0  0  0  0  0  0  0  0  0  0
   58.6460   33.1670   52.6860 C   0  0  0  0  0  0  0  0  0  0  0  0
   58.9470   34.2760   53.5560 N   0  0  0  0  0  0  0  0  0  0  0  0
   58.5440   35.4260   53.2850 O   0  0  0  0  0  0  0  0  0  0  0  0
   59.6810   34.0850   54.7040 O   0  0  0  0  0  0  0  0  0  0  0  0
   59.5690   32.7650   51.7080 C   0  0  0  0  0  0  0  0  0  0  0  0
   59.0854   31.0789   47.4196 H   0  0  0  0  0  0  0  0  0  0  0  0
   60.4725   30.5099   46.4302 H   0  0  0  0  0  0  0  0  0  0  0  0
   58.9310   29.5876   46.4302 H   0  0  0  0  0  0  0  0  0  0  0  0
   60.6482   27.4546   46.1622 H   0  0  0  0  0  0  0  0  0  0  0  0
   60.5521   26.0664   47.3148 H   0  0  0  0  0  0  0  0  0  0  0  0
   58.5318   28.6833   45.5371 H   0  0  0  0  0  0  0  0  0  0  0  0
   56.1169   28.3777   44.9919 H   0  0  0  0  0  0  0  0  0  0  0  0
   56.0771   24.6691   47.2178 H   0  0  0  0  0  0  0  0  0  0  0  0
   58.4917   24.9689   47.7704 H   0  0  0  0  0  0  0  0  0  0  0  0
   60.9989   25.5084   49.4693 H   0  0  0  0  0  0  0  0  0  0  0  0
   61.7136   27.5949   53.2220 H   0  0  0  0  0  0  0  0  0  0  0  0
   61.1016   29.7785   52.1330 H   0  0  0  0  0  0  0  0  0  0  0  0
   57.8373   30.1672   50.3126 H   0  0  0  0  0  0  0  0  0  0  0  0
   56.7010   32.7829   53.5689 H   0  0  0  0  0  0  0  0  0  0  0  0
   60.5210   33.3063   51.6043 H   0  0  0  0  0  0  0  0  0  0  0  0
  1  2  1  0
  2  3  2  0
  3  4  1  0
  4  5  1  0
  5  6  2  0
  6  7  1  0
  7  8  2  0
  8  9  1  0
  8 10  1  0
 10 11  2  0
  3 12  1  0
 12 13  2  0
 13 14  1  0
 14 15  1  0
 14 16  2  0
 16 17  1  0
 17 18  2  0
 18 19  1  0
 19 20  1  0
 20 21  2  0
 20 22  1  0
 22 23  2  0
 23 24  1  0
 24 25  1  0
 25 26  2  0
 25 27  1  0
 24 28  2  0
 28 29  1  0
 29 30  1  0
 30 31  2  0
 30 32  1  0
 29 33  2  0
 19  2  1  0
 33 22  1  0
 11  5  1  0
 18 12  1  0
  1 34  1  0
  1 35  1  0
  1 36  1  0
  4 37  1  0
  4 38  1  0
  6 39  1  0
  7 40  1  0
 10 41  1  0
 11 42  1  0
 13 43  1  0
 16 44  1  0
 17 45  1  0
 23 46  1  0
 28 47  1  0
 33 48  1  0
M  CHG  5   9  -1  25   1  27  -1  30   1  32  -1
M  END
>  <UniqueID>  (92) 
77

>  <SMILES>  (92) 
Cc1c(Cc2ccc([O-])cc2)c2cc(Cl)ccc2n1C(=O)c1cc([N+](=O)[O-])cc([N+](=O)[O-])c1

>  <Energy>  (92) 
93.47853738649184

>  <Genealogy>  (92) 
Cc1c(Cc2ccc([O-])cc2)c2cc(Cl)ccc2n1C(=O)c1cc([N+](=O)[O-])cc([N+](=O)[O-])c1 (protonated)
Cc1c(Cc2ccc([O-])cc2)c2cc(Cl)ccc2n1C(=O)c1cc([N+](=O)[O-])cc([N+](=O)[O-])c1 (3D coordinates assigned)
Cc1c(Cc2ccc([O-])cc2)c2cc(Cl)ccc2n1C(=O)c1cc([N+](=O)[O-])cc([N+](=O)[O-])c1 (optimized conformer: 93.47853738649184 kcal/mol)

>  <smiles>  (92) 
Cc1c(Cc2ccc(O)cc2)c2cc(Cl)ccc2n1C(=O)c1cc([N+](=O)[O-])cc([N+](=O)[O-])c1

>  <score_type>  (92) 
oracle

>  <origin>  (92) 
adg

>  <m_score__min__energy>  (92) 
-12.640000000000001

>  <m_primary>  (92) 
energy

$$$$
93:0
     RDKit          3D

 18 19  0  0  0  0  0  0  0  0999 V2000
   57.6340   34.0580   45.9280 C   0  0  0  0  0  0  0  0  0  0  0  0
   57.8330   33.3660   47.1230 C   0  0  0  0  0  0  0  0  0  0  0  0
   59.1240   33.2070   47.6350 C   0  0  0  0  0  0  0  0  0  0  0  0
   60.2380   33.7380   46.9560 C   0  0  0  0  0  0  0  0  0  0  0  0
   61.6030   33.5560   47.5180 C   0  0  0  0  0  0  0  0  0  0  0  0
   61.9620   33.8400   48.8470 C   0  0  0  0  0  0  0  0  0  0  0  0
   63.5860   33.4650   48.9510 S   0  0  0  0  0  0  0  0  0  0  0  0
   63.7920   32.9760   47.3860 N   0  0  0  0  0  0  0  0  0  0  0  0
   62.6340   33.0840   46.7460 N   0  0  0  0  0  0  0  0  0  0  0  0
   60.0200   34.4350   45.7470 C   0  0  0  0  0  0  0  0  0  0  0  0
   58.7260   34.5910   45.2410 C   0  0  0  0  0  0  0  0  0  0  0  0
   56.6172   34.1835   45.5275 H   0  0  0  0  0  0  0  0  0  0  0  0
   56.9724   32.9447   47.6633 H   0  0  0  0  0  0  0  0  0  0  0  0
   59.2715   32.6612   48.5786 H   0  0  0  0  0  0  0  0  0  0  0  0
   61.3128   34.2262   49.6466 H   0  0  0  0  0  0  0  0  0  0  0  0
   64.6760   32.6340   46.9490 H   0  0  0  0  0  0  0  0  0  0  0  0
   60.8749   34.8584   45.1993 H   0  0  0  0  0  0  0  0  0  0  0  0
   58.5679   35.1356   44.2984 H   0  0  0  0  0  0  0  0  0  0  0  0
  1  2  2  0
  2  3  1  0
  3  4  2  0
  4  5  1  0
  5  6  2  0
  6  7  1  0
  7  8  1  0
  8  9  2  0
  4 10  1  0
 10 11  2  0
 11  1  1  0
  9  5  1  0
  1 12  1  0
  2 13  1  0
  3 14  1  0
  6 15  1  0
  8 16  1  0
 10 17  1  0
 11 18  1  0
M  CHG  1   8   1
M  END
>  <UniqueID>  (93) 
78

>  <SMILES>  (93) 
c1ccc(-c2cs[nH+]n2)cc1

>  <Energy>  (93) 
57.92079041388246

>  <Genealogy>  (93) 
c1ccc(-c2cs[nH+]n2)cc1 (protonated)
c1ccc(-c2cs[nH+]n2)cc1 (3D coordinates assigned)
c1ccc(-c2cs[nH+]n2)cc1 (optimized conformer: 57.92079041388246 kcal/mol)

>  <smiles>  (93) 
c1ccc(-c2csnn2)cc1

>  <score_type>  (93) 
oracle

>  <origin>  (93) 
adg

>  <m_score__min__energy>  (93) 
-4.5300000000000002

>  <m_primary>  (93) 
energy

$$$$
94:0
     RDKit          3D

 46 48  0  0  0  0  0  0  0  0999 V2000
   61.3800   29.6070   51.0960 C   0  0  0  0  0  0  0  0  0  0  0  0
   60.7340   30.4960   50.1250 N   0  0  0  0  0  0  0  0  0  0  0  0
   59.9680   31.6470   50.6240 C   0  0  0  0  0  0  0  0  0  0  0  0
   59.2000   32.3040   49.5120 C   0  0  0  0  0  0  0  0  0  0  0  0
   57.9470   32.4120   49.6120 O   0  0  0  0  0  0  0  0  0  0  0  0
   59.8890   32.8510   48.3780 N   0  0  0  0  0  0  0  0  0  0  0  0
   59.2210   33.3620   47.2130 C   0  0  0  0  0  0  0  0  0  0  0  0
   58.1060   32.7030   46.6630 C   0  0  0  0  0  0  0  0  0  0  0  0
   57.4850   33.2040   45.5140 C   0  0  0  0  0  0  0  0  0  0  0  0
   57.9780   34.3580   44.9000 C   0  0  0  0  0  0  0  0  0  0  0  0
   59.1000   35.0060   45.4250 C   0  0  0  0  0  0  0  0  0  0  0  0
   59.5900   36.1150   44.8170 F   0  0  0  0  0  0  0  0  0  0  0  0
   59.7260   34.5040   46.5720 C   0  0  0  0  0  0  0  0  0  0  0  0
   60.9580   30.3400   48.7030 C   0  0  0  0  0  0  0  0  0  0  0  0
   61.8600   31.0170   48.1420 O   0  0  0  0  0  0  0  0  0  0  0  0
   60.1670   29.4130   47.8620 C   0  0  0  0  0  0  0  0  0  0  0  0
   59.6210   29.7360   46.6230 C   0  0  0  0  0  0  0  0  0  0  0  0
   58.8540   28.7050   46.0550 C   0  0  0  0  0  0  0  0  0  0  0  0
   58.7720   27.5670   46.8630 C   0  0  0  0  0  0  0  0  0  0  0  0
   59.6630   27.8550   48.2580 S   0  0  0  0  0  0  0  0  0  0  0  0
   58.0550   26.2670   46.5840 C   0  0  0  0  0  0  0  0  0  0  0  0
   58.3970   25.5860   45.2420 C   0  0  0  0  0  0  0  0  0  0  0  0
   57.8630   26.3440   44.0140 C   0  0  0  0  0  0  0  0  0  0  0  0
   58.5850   27.6840   43.7600 C   0  0  0  0  0  0  0  0  0  0  0  0
   58.1960   28.8290   44.7120 C   0  0  0  0  0  0  0  0  0  0  0  0
   61.1378   29.9402   52.1160 H   0  0  0  0  0  0  0  0  0  0  0  0
   61.0168   28.5790   50.9502 H   0  0  0  0  0  0  0  0  0  0  0  0
   62.4699   29.6349   50.9502 H   0  0  0  0  0  0  0  0  0  0  0  0
   59.2624   31.3030   51.3945 H   0  0  0  0  0  0  0  0  0  0  0  0
   60.6711   32.3802   51.0460 H   0  0  0  0  0  0  0  0  0  0  0  0
   60.9230   32.9750   48.4390 H   0  0  0  0  0  0  0  0  0  0  0  0
   57.7207   31.7892   47.1390 H   0  0  0  0  0  0  0  0  0  0  0  0
   56.6084   32.6892   45.0939 H   0  0  0  0  0  0  0  0  0  0  0  0
   57.4828   34.7572   44.0025 H   0  0  0  0  0  0  0  0  0  0  0  0
   60.6182   35.0071   46.9730 H   0  0  0  0  0  0  0  0  0  0  0  0
   59.7758   30.7089   46.1336 H   0  0  0  0  0  0  0  0  0  0  0  0
   58.3042   25.5639   47.3924 H   0  0  0  0  0  0  0  0  0  0  0  0
   56.9864   26.5216   46.5261 H   0  0  0  0  0  0  0  0  0  0  0  0
   59.4914   25.5137   45.1575 H   0  0  0  0  0  0  0  0  0  0  0  0
   57.9122   24.5986   45.2481 H   0  0  0  0  0  0  0  0  0  0  0  0
   57.9905   25.7055   43.1274 H   0  0  0  0  0  0  0  0  0  0  0  0
   56.8059   26.5765   44.2100 H   0  0  0  0  0  0  0  0  0  0  0  0
   59.6669   27.5117   43.8592 H   0  0  0  0  0  0  0  0  0  0  0  0
   58.2820   28.0079   42.7534 H   0  0  0  0  0  0  0  0  0  0  0  0
   58.4979   29.7842   44.2576 H   0  0  0  0  0  0  0  0  0  0  0  0
   57.1079   28.7820   44.8661 H   0  0  0  0  0  0  0  0  0  0  0  0
  1  2  1  0
  2  3  1  0
  3  4  1  0
  4  5  2  0
  4  6  1  0
  6  7  1  0
  7  8  2  0
  8  9  1  0
  9 10  2  0
 10 11  1  0
 11 12  1  0
 11 13  2  0
  2 14  1  0
 14 15  2  0
 14 16  1  0
 16 17  2  0
 17 18  1  0
 18 19  2  0
 19 20  1  0
 19 21  1  0
 21 22  1  0
 22 23  1  0
 23 24  1  0
 24 25  1  0
 13  7  1  0
 20 16  1  0
 25 18  1  0
  1 26  1  0
  1 27  1  0
  1 28  1  0
  3 29  1  0
  3 30  1  0
  6 31  1  0
  8 32  1  0
  9 33  1  0
 10 34  1  0
 13 35  1  0
 17 36  1  0
 21 37  1  0
 21 38  1  0
 22 39  1  0
 22 40  1  0
 23 41  1  0
 23 42  1  0
 24 43  1  0
 24 44  1  0
 25 45  1  0
 25 46  1  0
M  END
>  <UniqueID>  (94) 
79

>  <SMILES>  (94) 
CN(CC(=O)Nc1cccc(F)c1)C(=O)c1cc2c(s1)CCCCC2

>  <Energy>  (94) 
81.92269236098396

>  <Genealogy>  (94) 
CN(CC(=O)Nc1cccc(F)c1)C(=O)c1cc2c(s1)CCCCC2 (3D coordinates assigned)
CN(CC(=O)Nc1cccc(F)c1)C(=O)c1cc2c(s1)CCCCC2 (nonaromatic ring conformer: 81.92269236098396 kcal/mol)

>  <smiles>  (94) 
CN(CC(=O)Nc1cccc(F)c1)C(=O)c1cc2c(s1)CCCCC2

>  <score_type>  (94) 
oracle

>  <origin>  (94) 
adg

>  <m_score__min__energy>  (94) 
-6.7199999999999998

>  <m_primary>  (94) 
energy

$$$$
95:0
     RDKit          3D

 36 37  0  0  0  0  0  0  0  0999 V2000
   60.4036   35.7383   47.9310 H   0  0  0  0  0  0  0  0  0  0  0  0
   59.8270   34.9500   47.4250 C   0  0  0  0  0  0  0  0  0  0  0  0
   59.3800   35.1430   46.1160 C   0  0  0  0  0  0  0  0  0  0  0  0
   59.6121   36.0805   45.5895 H   0  0  0  0  0  0  0  0  0  0  0  0
   58.6380   34.1470   45.4730 C   0  0  0  0  0  0  0  0  0  0  0  0
   58.2964   34.2992   44.4385 H   0  0  0  0  0  0  0  0  0  0  0  0
   58.3270   32.9500   46.1460 C   0  0  0  0  0  0  0  0  0  0  0  0
   57.5880   31.8990   45.5060 N   0  0  0  0  0  0  0  0  0  0  0  0
   57.0180   31.2750   46.1170 H   0  0  0  0  0  0  0  0  0  0  0  0
   57.4760   31.7520   44.0780 C   0  0  0  0  0  0  0  0  0  0  0  0
   58.2070   32.4290   43.3070 O   0  0  0  0  0  0  0  0  0  0  0  0
   56.5610   30.8100   43.5020 N   0  0  0  0  0  0  0  0  0  0  0  0
   56.4050   29.5630   43.8440 C   0  0  0  0  0  0  0  0  0  0  0  0
   55.2340   29.1840   44.5650 N   0  0  0  0  0  0  0  0  0  0  0  0
   55.0990   28.1950   44.8730 H   0  0  0  0  0  0  0  0  0  0  0  0
   54.5030   29.8910   44.8010 H   0  0  0  0  0  0  0  0  0  0  0  0
   57.3910   28.5620   43.5480 N   0  0  0  0  0  0  0  0  0  0  0  0
   57.0420   27.6080   43.3040 H   0  0  0  0  0  0  0  0  0  0  0  0
   58.7500   28.6440   44.0810 C   0  0  0  0  0  0  0  0  0  0  0  0
   59.4575   28.2415   43.3412 H   0  0  0  0  0  0  0  0  0  0  0  0
   58.9945   29.6953   44.2932 H   0  0  0  0  0  0  0  0  0  0  0  0
   58.8470   27.8450   45.3510 C   0  0  0  0  0  0  0  0  0  0  0  0
   57.7580   27.0720   45.7870 C   0  0  0  0  0  0  0  0  0  0  0  0
   56.8415   27.0242   45.1806 H   0  0  0  0  0  0  0  0  0  0  0  0
   57.8360   26.3630   46.9900 C   0  0  0  0  0  0  0  0  0  0  0  0
   56.9844   25.7515   47.3230 H   0  0  0  0  0  0  0  0  0  0  0  0
   58.9940   26.4300   47.7700 C   0  0  0  0  0  0  0  0  0  0  0  0
   59.0549   25.8692   48.7143 H   0  0  0  0  0  0  0  0  0  0  0  0
   60.0740   27.2100   47.3490 C   0  0  0  0  0  0  0  0  0  0  0  0
   60.9837   27.2650   47.9649 H   0  0  0  0  0  0  0  0  0  0  0  0
   60.0020   27.9210   46.1470 C   0  0  0  0  0  0  0  0  0  0  0  0
   60.8514   28.5410   45.8242 H   0  0  0  0  0  0  0  0  0  0  0  0
   58.8030   32.7570   47.4530 C   0  0  0  0  0  0  0  0  0  0  0  0
   58.5927   31.8131   47.9772 H   0  0  0  0  0  0  0  0  0  0  0  0
   59.5420   33.7560   48.0920 C   0  0  0  0  0  0  0  0  0  0  0  0
   59.8996   33.6022   49.1208 H   0  0  0  0  0  0  0  0  0  0  0  0
  1  2  1  0
  2  3  2  0
  3  4  1  0
  3  5  1  0
  5  6  1  0
  5  7  2  0
  7  8  1  0
  8  9  1  0
  8 10  1  0
 10 11  2  0
 10 12  1  0
 12 13  2  0
 13 14  1  0
 14 15  1  0
 14 16  1  0
 13 17  1  0
 17 18  1  0
 17 19  1  0
 19 20  1  0
 19 21  1  0
 19 22  1  0
 22 23  2  0
 23 24  1  0
 23 25  1  0
 25 26  1  0
 25 27  2  0
 27 28  1  0
 27 29  1  0
 29 30  1  0
 29 31  2  0
 31 32  1  0
  7 33  1  0
 33 34  1  0
 33 35  2  0
 35 36  1  0
 35  2  1  0
 31 22  1  0
M  END
>  <UniqueID>  (95) 
80

>  <SMILES>  (95) 
N/C(=N/C(=O)Nc1ccccc1)NCc1ccccc1

>  <Energy>  (95) 
45.559930762049426

>  <Genealogy>  (95) 
N/C(=N/C(=O)Nc1ccccc1)NCc1ccccc1 (cis-trans isomerization)
N/C(=N/C(=O)Nc1ccccc1)NCc1ccccc1 (3D coordinates assigned)
N/C(=N/C(=O)Nc1ccccc1)NCc1ccccc1 (optimized conformer: 45.559930762049426 kcal/mol)

>  <smiles>  (95) 
NC(=NC(=O)Nc1ccccc1)NCc1ccccc1

>  <score_type>  (95) 
oracle

>  <origin>  (95) 
adg

>  <m_score__min__energy>  (95) 
-7.71

>  <m_primary>  (95) 
energy

$$$$
96:0
     RDKit          3D

 47 50  0  0  0  0  0  0  0  0999 V2000
   60.2610   32.9430   51.5720 O   0  0  0  0  0  0  0  0  0  0  0  0
   59.8050   32.4070   50.5260 C   0  0  0  0  0  0  0  0  0  0  0  0
   59.6760   33.0900   49.2680 C   0  0  0  0  0  0  0  0  0  0  0  0
   60.0180   34.3920   48.9020 C   0  0  0  0  0  0  0  0  0  0  0  0
   59.7470   34.8000   47.5850 C   0  0  0  0  0  0  0  0  0  0  0  0
   59.1440   33.9060   46.6760 C   0  0  0  0  0  0  0  0  0  0  0  0
   58.7850   34.4640   44.8860 Br  0  0  0  0  0  0  0  0  0  0  0  0
   58.8110   32.6000   47.0820 C   0  0  0  0  0  0  0  0  0  0  0  0
   59.0880   32.2210   48.3980 C   0  0  0  0  0  0  0  0  0  0  0  0
   58.8630   30.8910   49.0480 C   0  0  1  0  0  0  0  0  0  0  0  0
   59.6830   29.8880   48.3500 N   0  0  0  0  0  0  0  0  0  0  0  0
   59.4290   29.4690   46.9970 C   0  0  0  0  0  0  0  0  0  0  0  0
   60.4560   28.9600   46.1800 C   0  0  0  0  0  0  0  0  0  0  0  0
   60.1830   28.5700   44.8650 C   0  0  0  0  0  0  0  0  0  0  0  0
   58.8900   28.6930   44.3510 C   0  0  0  0  0  0  0  0  0  0  0  0
   57.8670   29.2120   45.1490 C   0  0  0  0  0  0  0  0  0  0  0  0
   56.2450   29.3750   44.5010 Cl  0  0  0  0  0  0  0  0  0  0  0  0
   58.1380   29.6050   46.4640 C   0  0  0  0  0  0  0  0  0  0  0  0
   59.2460   31.0780   50.4910 N   0  0  1  0  0  0  0  0  0  0  0  0
   60.1860   30.0930   51.0800 C   0  0  0  0  0  0  0  0  0  0  0  0
   61.6620   30.4690   50.8520 C   0  0  0  0  0  0  0  0  0  0  0  0
   61.9920   30.4770   49.4620 O   0  0  0  0  0  0  0  0  0  0  0  0
   62.5610   31.5520   48.7620 C   0  0  0  0  0  0  0  0  0  0  0  0
   63.4940   32.3550   49.4320 C   0  0  0  0  0  0  0  0  0  0  0  0
   64.0910   33.4410   48.7850 C   0  0  0  0  0  0  0  0  0  0  0  0
   63.7640   33.7310   47.4590 C   0  0  0  0  0  0  0  0  0  0  0  0
   62.8400   32.9350   46.7780 C   0  0  0  0  0  0  0  0  0  0  0  0
   62.2400   31.8480   47.4210 C   0  0  0  0  0  0  0  0  0  0  0  0
   60.4858   35.0787   49.6228 H   0  0  0  0  0  0  0  0  0  0  0  0
   60.0058   35.8192   47.2622 H   0  0  0  0  0  0  0  0  0  0  0  0
   58.3436   31.8942   46.3796 H   0  0  0  0  0  0  0  0  0  0  0  0
   57.8241   30.5336   48.9933 H   0  0  0  0  0  0  0  0  0  0  0  0
   60.6350   29.6950   48.7390 H   0  0  0  0  0  0  0  0  0  0  0  0
   61.4776   28.8686   46.5775 H   0  0  0  0  0  0  0  0  0  0  0  0
   60.9882   28.1655   44.2341 H   0  0  0  0  0  0  0  0  0  0  0  0
   58.6770   28.3812   43.3178 H   0  0  0  0  0  0  0  0  0  0  0  0
   57.3326   30.0240   47.0852 H   0  0  0  0  0  0  0  0  0  0  0  0
   58.3740   31.1110   51.0710 H   0  0  0  0  0  0  0  0  0  0  0  0
   60.0012   30.0343   52.1628 H   0  0  0  0  0  0  0  0  0  0  0  0
   60.0090   29.1274   50.5838 H   0  0  0  0  0  0  0  0  0  0  0  0
   61.8440   31.4708   51.2683 H   0  0  0  0  0  0  0  0  0  0  0  0
   62.2906   29.7171   51.3514 H   0  0  0  0  0  0  0  0  0  0  0  0
   63.7587   32.1289   50.4755 H   0  0  0  0  0  0  0  0  0  0  0  0
   64.8190   34.0676   49.3211 H   0  0  0  0  0  0  0  0  0  0  0  0
   64.2338   34.5860   46.9508 H   0  0  0  0  0  0  0  0  0  0  0  0
   62.5837   33.1639   45.7331 H   0  0  0  0  0  0  0  0  0  0  0  0
   61.5156   31.2220   46.8794 H   0  0  0  0  0  0  0  0  0  0  0  0
  1  2  2  0
  2  3  1  0
  3  4  2  0
  4  5  1  0
  5  6  2  0
  6  7  1  0
  6  8  1  0
  8  9  2  0
  9 10  1  0
 10 11  1  0
 11 12  1  0
 12 13  2  0
 13 14  1  0
 14 15  2  0
 15 16  1  0
 16 17  1  0
 16 18  2  0
 10 19  1  0
 19 20  1  0
 20 21  1  0
 21 22  1  0
 22 23  1  0
 23 24  2  0
 24 25  1  0
 25 26  2  0
 26 27  1  0
 27 28  2  0
 19  2  1  0
 28 23  1  0
  9  3  1  0
 18 12  1  0
  4 29  1  0
  5 30  1  0
  8 31  1  0
 10 32  1  1
 11 33  1  0
 13 34  1  0
 14 35  1  0
 15 36  1  0
 18 37  1  0
 19 38  1  1
 20 39  1  0
 20 40  1  0
 21 41  1  0
 21 42  1  0
 24 43  1  0
 25 44  1  0
 26 45  1  0
 27 46  1  0
 28 47  1  0
M  CHG  1  19   1
M  END
>  <UniqueID>  (96) 
81

>  <SMILES>  (96) 
O=C1c2ccc(Br)cc2[C@@H](Nc2cccc(Cl)c2)[N@H+]1CCOc1ccccc1

>  <Energy>  (96) 
76.7966376195994

>  <Genealogy>  (96) 
O=C1c2ccc(Br)cc2C(Nc2cccc(Cl)c2)[NH+]1CCOc1ccccc1 (protonated)
O=C1c2ccc(Br)cc2[C@@H](Nc2cccc(Cl)c2)[N@H+]1CCOc1ccccc1 (chirality)
O=C1c2ccc(Br)cc2[C@@H](Nc2cccc(Cl)c2)[N@H+]1CCOc1ccccc1 (3D coordinates assigned)
O=C1c2ccc(Br)cc2[C@@H](Nc2cccc(Cl)c2)[N@H+]1CCOc1ccccc1 (nonaromatic ring conformer: 76.7966376195994 kcal/mol)

>  <smiles>  (96) 
O=C1c2ccc(Br)cc2C(Nc2cccc(Cl)c2)N1CCOc1ccccc1

>  <score_type>  (96) 
oracle

>  <origin>  (96) 
adg

>  <m_score__min__energy>  (96) 
-6.6100000000000003

>  <m_primary>  (96) 
energy

$$$$
