0:0
     RDKit          3D

 70 74  0  0  0  0  0  0  0  0999 V2000
   65.5161   29.8080   54.3599 H   0  0  0  0  0  0  0  0  0  0  0  0
   65.9540   30.0320   53.3760 C   0  0  0  0  0  0  0  0  0  0  0  0
   66.9170   29.2230   52.8620 N   0  0  0  0  0  0  0  0  0  0  0  0
   67.4880   29.4490   51.6470 C   0  0  0  0  0  0  0  0  0  0  0  0
   68.4090   28.6220   51.2380 N   0  0  0  0  0  0  0  0  0  0  0  0
   68.3240   27.6290   50.2010 C   0  0  0  0  0  0  0  0  0  0  0  0
   68.6200   27.9090   49.0080 O   0  0  0  0  0  0  0  0  0  0  0  0
   67.7210   26.2960   50.5140 C   0  0  0  0  0  0  0  0  0  0  0  0
   68.1710   25.7571   49.6672 H   0  0  0  0  0  0  0  0  0  0  0  0
   67.5400   26.0090   51.9960 C   0  0  0  0  0  0  0  0  0  0  0  0
   67.6582   24.9835   52.3759 H   0  0  0  0  0  0  0  0  0  0  0  0
   67.9800   26.4036   52.9237 H   0  0  0  0  0  0  0  0  0  0  0  0
   66.3370   26.3680   51.1410 C   0  0  0  0  0  0  0  0  0  0  0  0
   65.5843   25.6024   50.9016 H   0  0  0  0  0  0  0  0  0  0  0  0
   65.5454   27.1301   51.1931 H   0  0  0  0  0  0  0  0  0  0  0  0
   67.0870   30.5820   50.9050 C   0  0  0  0  0  0  0  0  0  0  0  0
   67.5579   30.8008   49.9352 H   0  0  0  0  0  0  0  0  0  0  0  0
   66.0900   31.4250   51.4060 C   0  0  0  0  0  0  0  0  0  0  0  0
   65.7310   32.5600   50.6630 O   0  0  0  0  0  0  0  0  0  0  0  0
   64.4860   32.7740   50.0590 C   0  0  0  0  0  0  0  0  0  0  0  0
   63.9580   31.8830   49.1090 C   0  0  0  0  0  0  0  0  0  0  0  0
   64.5205   30.9789   48.8329 H   0  0  0  0  0  0  0  0  0  0  0  0
   62.7180   32.1430   48.5130 C   0  0  0  0  0  0  0  0  0  0  0  0
   62.3156   31.4460   47.7632 H   0  0  0  0  0  0  0  0  0  0  0  0
   61.9860   33.2850   48.8650 C   0  0  0  0  0  0  0  0  0  0  0  0
   60.7300   33.5510   48.2170 N   0  0  0  0  0  0  0  0  0  0  0  0
   59.8650   33.3150   48.7490 H   0  0  0  0  0  0  0  0  0  0  0  0
   60.6190   34.1010   46.8930 C   0  0  0  0  0  0  0  0  0  0  0  0
   61.6350   34.5630   46.3120 O   0  0  0  0  0  0  0  0  0  0  0  0
   59.3710   34.0950   46.1900 N   0  0  0  0  0  0  0  0  0  0  0  0
   58.7050   32.9470   45.6510 C   0  0  0  0  0  0  0  0  0  0  0  0
   58.1490   33.0300   44.3700 C   0  0  0  0  0  0  0  0  0  0  0  0
   58.2449   33.9605   43.7913 H   0  0  0  0  0  0  0  0  0  0  0  0
   57.4730   31.9380   43.8220 C   0  0  0  0  0  0  0  0  0  0  0  0
   57.0580   32.0069   42.8056 H   0  0  0  0  0  0  0  0  0  0  0  0
   57.3190   30.7520   44.5590 C   0  0  0  0  0  0  0  0  0  0  0  0
   56.5790   29.5740   43.9530 C   0  0  0  0  0  0  0  0  0  0  0  0
   56.5417   29.7126   42.8624 H   0  0  0  0  0  0  0  0  0  0  0  0
   55.5792   29.5556   44.4114 H   0  0  0  0  0  0  0  0  0  0  0  0
   57.2050   28.2610   44.2350 N   0  0  0  0  0  0  0  0  0  0  0  0
   58.6080   28.1400   43.7710 C   0  0  0  0  0  0  0  0  0  0  0  0
   58.8783   29.0513   43.2174 H   0  0  0  0  0  0  0  0  0  0  0  0
   58.6772   27.2485   43.1304 H   0  0  0  0  0  0  0  0  0  0  0  0
   59.5870   27.9610   44.9360 C   0  0  0  0  0  0  0  0  0  0  0  0
   59.5295   28.8381   45.5974 H   0  0  0  0  0  0  0  0  0  0  0  0
   60.6068   27.8593   44.5364 H   0  0  0  0  0  0  0  0  0  0  0  0
   59.2460   26.7460   45.7050 N   0  0  0  0  0  0  0  0  0  0  0  0
   60.0660   26.5680   46.9220 C   0  0  0  0  0  0  0  0  0  0  0  0
   61.0914   26.3146   46.6147 H   0  0  0  0  0  0  0  0  0  0  0  0
   59.5924   25.7696   47.5121 H   0  0  0  0  0  0  0  0  0  0  0  0
   60.1240   27.8110   47.8200 C   0  0  0  0  0  0  0  0  0  0  0  0
   60.1096   27.5018   48.8755 H   0  0  0  0  0  0  0  0  0  0  0  0
   61.0492   28.3693   47.6141 H   0  0  0  0  0  0  0  0  0  0  0  0
   59.2548   28.4530   47.6141 H   0  0  0  0  0  0  0  0  0  0  0  0
   57.7930   26.5170   45.9080 C   0  0  0  0  0  0  0  0  0  0  0  0
   57.6249   26.2205   46.9539 H   0  0  0  0  0  0  0  0  0  0  0  0
   57.4772   25.7282   45.2094 H   0  0  0  0  0  0  0  0  0  0  0  0
   56.9560   27.7680   45.6100 C   0  0  0  0  0  0  0  0  0  0  0  0
   57.2216   28.5575   46.3284 H   0  0  0  0  0  0  0  0  0  0  0  0
   55.8915   27.5059   45.6999 H   0  0  0  0  0  0  0  0  0  0  0  0
   57.8610   30.6780   45.8530 C   0  0  0  0  0  0  0  0  0  0  0  0
   57.7558   29.7521   46.4375 H   0  0  0  0  0  0  0  0  0  0  0  0
   58.5340   31.7750   46.4030 C   0  0  0  0  0  0  0  0  0  0  0  0
   58.9300   31.7181   47.4277 H   0  0  0  0  0  0  0  0  0  0  0  0
   62.5330   34.1910   49.7910 C   0  0  0  0  0  0  0  0  0  0  0  0
   61.9808   35.1052   50.0541 H   0  0  0  0  0  0  0  0  0  0  0  0
   63.7760   33.9350   50.3790 C   0  0  0  0  0  0  0  0  0  0  0  0
   64.1979   34.6523   51.0984 H   0  0  0  0  0  0  0  0  0  0  0  0
   65.5200   31.1460   52.6580 C   0  0  0  0  0  0  0  0  0  0  0  0
   64.7375   31.8006   53.0694 H   0  0  0  0  0  0  0  0  0  0  0  0
  1  2  1  0
  2  3  1  0
  3  4  1  0
  4  5  2  0
  5  6  1  0
  6  7  2  0
  6  8  1  0
  8  9  1  0
  8 10  1  0
 10 11  1  0
 10 12  1  0
 10 13  1  0
 13 14  1  0
 13 15  1  0
  4 16  1  0
 16 17  1  0
 16 18  2  0
 18 19  1  0
 19 20  1  0
 20 21  2  0
 21 22  1  0
 21 23  1  0
 23 24  1  0
 23 25  2  0
 25 26  1  0
 26 27  1  0
 26 28  1  0
 28 29  2  0
 28 30  1  0
 30 31  1  0
 31 32  2  0
 32 33  1  0
 32 34  1  0
 34 35  1  0
 34 36  2  0
 36 37  1  0
 37 38  1  0
 37 39  1  0
 37 40  1  0
 40 41  1  0
 41 42  1  0
 41 43  1  0
 41 44  1  0
 44 45  1  0
 44 46  1  0
 44 47  1  0
 47 48  1  0
 48 49  1  0
 48 50  1  0
 48 51  1  0
 51 52  1  0
 51 53  1  0
 51 54  1  0
 47 55  1  0
 55 56  1  0
 55 57  1  0
 55 58  1  0
 58 59  1  0
 58 60  1  0
 36 61  1  0
 61 62  1  0
 61 63  2  0
 63 64  1  0
 25 65  1  0
 65 66  1  0
 65 67  2  0
 67 68  1  0
 18 69  1  0
 69 70  1  0
 69  2  2  0
 13  8  1  0
 67 20  1  0
 63 31  1  0
 58 40  1  0
M  CHG  2   3  -1  30  -1
M  END
>  <UniqueID>  (1) 
1

>  <SMILES>  (1) 
CCN1CCN(Cc2ccc([N-]C(=O)Nc3ccc(Oc4cc[n-]/c(=N/C(=O)C5CC5)c4)cc3)cc2)CC1

>  <Energy>  (1) 
375.8813864079985

>  <Genealogy>  (1) 
CCN1CCN(Cc2ccc([N-]C(=O)Nc3ccc(Oc4cc[n-]c(=NC(=O)C5CC5)c4)cc3)cc2)CC1 (protonated)
CCN1CCN(Cc2ccc([N-]C(=O)Nc3ccc(Oc4cc[n-]/c(=N/C(=O)C5CC5)c4)cc3)cc2)CC1 (cis-trans isomerization)
CCN1CCN(Cc2ccc([N-]C(=O)Nc3ccc(Oc4cc[n-]/c(=N/C(=O)C5CC5)c4)cc3)cc2)CC1 (3D coordinates assigned)
CCN1CCN(Cc2ccc([N-]C(=O)Nc3ccc(Oc4cc[n-]/c(=N/C(=O)C5CC5)c4)cc3)cc2)CC1 (nonaromatic ring conformer: 375.8813864079985 kcal/mol)

>  <smiles>  (1) 
CCN1CCN(Cc2ccc(NC(=O)Nc3ccc(Oc4cc[nH]c(=NC(=O)C5CC5)c4)cc3)cc2)CC1

>  <score_type>  (1) 
oracle

>  <origin>  (1) 
adg

>  <m_score__min__energy>  (1) 
-12.59

>  <m_primary>  (1) 
energy

$$$$
1:0
     RDKit          3D

 57 60  0  0  0  0  0  0  0  0999 V2000
   56.2880   26.1880   46.0020 C   0  0  0  0  0  0  0  0  0  0  0  0
   56.9700   25.5660   46.9610 C   0  0  0  0  0  0  0  0  0  0  0  0
   58.4490   25.5320   46.9840 C   0  0  0  0  0  0  0  0  0  0  0  0
   59.0690   24.6210   46.3710 O   0  0  0  0  0  0  0  0  0  0  0  0
   59.2070   26.5450   47.6560 N   0  0  0  0  0  0  0  0  0  0  0  0
   59.5360   27.8420   47.1340 C   0  0  0  0  0  0  0  0  0  0  0  0
   60.0050   27.9260   45.8170 C   0  0  0  0  0  0  0  0  0  0  0  0
   60.2860   29.1690   45.2410 C   0  0  0  0  0  0  0  0  0  0  0  0
   60.1070   30.3370   45.9810 C   0  0  0  0  0  0  0  0  0  0  0  0
   59.6750   30.2660   47.3080 C   0  0  0  0  0  0  0  0  0  0  0  0
   59.4240   29.0260   47.9070 C   0  0  0  0  0  0  0  0  0  0  0  0
   59.0610   29.0080   49.2610 O   0  0  0  0  0  0  0  0  0  0  0  0
   59.1970   30.0930   50.1410 C   0  0  0  0  0  0  0  0  0  0  0  0
   58.2460   30.3700   51.1360 C   0  0  0  0  0  0  0  0  0  0  0  0
   58.4280   31.4720   51.9710 C   0  0  0  0  0  0  0  0  0  0  0  0
   59.5200   32.2670   51.8200 N   0  0  0  0  0  0  0  0  0  0  0  0
   60.4640   32.0230   50.8670 C   0  0  0  0  0  0  0  0  0  0  0  0
   61.5080   32.7910   50.7420 N   0  0  0  0  0  0  0  0  0  0  0  0
   61.8020   33.6280   49.6120 C   0  0  0  0  0  0  0  0  0  0  0  0
   62.8940   34.2560   49.5960 O   0  0  0  0  0  0  0  0  0  0  0  0
   60.8890   33.7260   48.4480 C   0  0  0  0  0  0  0  0  0  0  0  0
   61.3820   33.5480   47.1450 C   0  0  0  0  0  0  0  0  0  0  0  0
   60.5260   33.6480   46.0450 C   0  0  0  0  0  0  0  0  0  0  0  0
   59.1640   33.9550   46.2210 C   0  0  0  0  0  0  0  0  0  0  0  0
   58.2270   34.0060   45.0290 C   0  0  0  0  0  0  0  0  0  0  0  0
   58.4550   32.9300   43.9680 C   0  0  0  0  0  0  0  0  0  0  0  0
   57.1410   32.3090   44.1860 N   0  0  0  0  0  0  0  0  0  0  0  0
   57.2780   30.9490   44.7450 C   0  0  0  0  0  0  0  0  0  0  0  0
   56.1740   30.0750   44.2420 C   0  0  0  0  0  0  0  0  0  0  0  0
   55.4400   29.2600   45.1520 N   0  0  0  0  0  0  0  0  0  0  0  0
   55.9110   30.0340   43.0100 O   0  0  0  0  0  0  0  0  0  0  0  0
   56.8800   33.3140   45.2300 C   0  0  0  0  0  0  0  0  0  0  0  0
   58.6600   34.0500   47.5310 C   0  0  0  0  0  0  0  0  0  0  0  0
   59.5160   33.9530   48.6310 C   0  0  0  0  0  0  0  0  0  0  0  0
   60.3230   30.9130   50.0260 C   0  0  0  0  0  0  0  0  0  0  0  0
   55.1882   26.1897   46.0218 H   0  0  0  0  0  0  0  0  0  0  0  0
   56.8242   26.7004   45.1896 H   0  0  0  0  0  0  0  0  0  0  0  0
   56.4148   25.0597   47.7643 H   0  0  0  0  0  0  0  0  0  0  0  0
   60.1535   27.0070   45.2310 H   0  0  0  0  0  0  0  0  0  0  0  0
   60.6483   29.2252   44.2039 H   0  0  0  0  0  0  0  0  0  0  0  0
   60.3061   31.3155   45.5197 H   0  0  0  0  0  0  0  0  0  0  0  0
   59.5312   31.1909   47.8859 H   0  0  0  0  0  0  0  0  0  0  0  0
   57.3645   29.7230   51.2560 H   0  0  0  0  0  0  0  0  0  0  0  0
   57.6874   31.6980   52.7523 H   0  0  0  0  0  0  0  0  0  0  0  0
   62.4486   33.3285   46.9894 H   0  0  0  0  0  0  0  0  0  0  0  0
   60.9208   33.4851   45.0313 H   0  0  0  0  0  0  0  0  0  0  0  0
   58.3309   35.0824   44.8274 H   0  0  0  0  0  0  0  0  0  0  0  0
   58.5806   33.3382   42.9543 H   0  0  0  0  0  0  0  0  0  0  0  0
   59.3530   32.2993   44.0443 H   0  0  0  0  0  0  0  0  0  0  0  0
   58.2460   30.5254   44.4391 H   0  0  0  0  0  0  0  0  0  0  0  0
   57.2240   31.0028   45.8424 H   0  0  0  0  0  0  0  0  0  0  0  0
   54.4020   29.3420   45.2270 H   0  0  0  0  0  0  0  0  0  0  0  0
   56.0198   33.9618   45.0055 H   0  0  0  0  0  0  0  0  0  0  0  0
   56.6125   32.9669   46.2389 H   0  0  0  0  0  0  0  0  0  0  0  0
   57.5823   34.2020   47.6907 H   0  0  0  0  0  0  0  0  0  0  0  0
   59.1107   34.0553   49.6485 H   0  0  0  0  0  0  0  0  0  0  0  0
   61.0960   30.6867   49.2769 H   0  0  0  0  0  0  0  0  0  0  0  0
  1  2  2  0
  2  3  1  0
  3  4  2  0
  3  5  1  0
  5  6  1  0
  6  7  2  0
  7  8  1  0
  8  9  2  0
  9 10  1  0
 10 11  2  0
 11 12  1  0
 12 13  1  0
 13 14  1  0
 14 15  2  0
 15 16  1  0
 16 17  1  0
 17 18  2  3
 18 19  1  0
 19 20  2  0
 19 21  1  0
 21 22  2  0
 22 23  1  0
 23 24  2  0
 24 25  1  0
 25 26  1  0
 26 27  1  0
 27 28  1  0
 28 29  1  0
 29 30  1  0
 29 31  2  0
 27 32  1  0
 24 33  1  0
 33 34  2  0
 17 35  1  0
 11  6  1  0
 35 13  2  0
 34 21  1  0
 32 25  1  0
  1 36  1  0
  1 37  1  0
  2 38  1  0
  7 39  1  0
  8 40  1  0
  9 41  1  0
 10 42  1  0
 14 43  1  0
 15 44  1  0
 22 45  1  0
 23 46  1  0
 25 47  1  0
 26 48  1  0
 26 49  1  0
 28 50  1  0
 28 51  1  0
 30 52  1  0
 32 53  1  0
 32 54  1  0
 33 55  1  0
 34 56  1  0
 35 57  1  0
M  CHG  3   5  -1  16  -1  30  -1
M  END
>  <UniqueID>  (2) 
2

>  <SMILES>  (2) 
C=CC(=O)[N-]c1ccccc1Oc1cc[n-]c(=NC(=O)c2ccc(C3CN(CC([NH-])=O)C3)cc2)c1

>  <Energy>  (2) 
150.1928646909275

>  <Genealogy>  (2) 
C=CC(=O)[N-]c1ccccc1Oc1cc[n-]c(=NC(=O)c2ccc(C3CN(CC([NH-])=O)C3)cc2)c1 (protonated)
C=CC(=O)[N-]c1ccccc1Oc1cc[n-]c(=NC(=O)c2ccc(C3CN(CC([NH-])=O)C3)cc2)c1 (3D coordinates assigned)
C=CC(=O)[N-]c1ccccc1Oc1cc[n-]c(=NC(=O)c2ccc(C3CN(CC([NH-])=O)C3)cc2)c1 (nonaromatic ring conformer: 150.1928646909275 kcal/mol)

>  <smiles>  (2) 
C=CC(=O)Nc1ccccc1Oc1cc[nH]c(=NC(=O)c2ccc(C3CN(CC(N)=O)C3)cc2)c1

>  <score_type>  (2) 
oracle

>  <origin>  (2) 
adg

>  <m_score__min__energy>  (2) 
-14.85

>  <m_primary>  (2) 
energy

$$$$
2:0
     RDKit          3D

 61 64  0  0  0  0  0  0  0  0999 V2000
   58.4070   28.7790   44.2860 O   0  0  0  0  0  0  0  0  0  0  0  0
   57.5320   29.0830   45.1410 C   0  0  0  0  0  0  0  0  0  0  0  0
   57.3490   28.2290   46.3550 C   0  0  0  0  0  0  0  0  0  0  0  0
   57.1750   26.8300   45.9610 N   0  0  0  0  0  0  0  0  0  0  0  0
   56.0020   26.1630   45.8890 C   0  0  0  0  0  0  0  0  0  0  0  0
   54.7660   26.7090   46.2270 O   0  0  0  0  0  0  0  0  0  0  0  0
   56.2010   24.8840   45.4070 C   0  0  0  0  0  0  0  0  0  0  0  0
   57.5440   24.7680   45.1530 C   0  0  0  0  0  0  0  0  0  0  0  0
   58.1180   25.9790   45.4870 C   0  0  0  0  0  0  0  0  0  0  0  0
   59.4700   26.2850   45.3300 O   0  0  0  0  0  0  0  0  0  0  0  0
   58.1780   23.5660   44.5300 C   0  0  0  0  0  0  0  0  0  0  0  0
   57.1860   22.4300   44.3730 C   0  0  0  0  0  0  0  0  0  0  0  0
   55.8620   22.5430   44.6300 C   0  0  0  0  0  0  0  0  0  0  0  0
   55.1950   23.8190   45.1090 C   0  0  0  0  0  0  0  0  0  0  0  0
   56.6970   30.2360   44.9510 N   0  0  0  0  0  0  0  0  0  0  0  0
   57.1440   31.4440   44.2670 C   0  0  0  0  0  0  0  0  0  0  0  0
   57.2150   32.6150   45.2520 C   0  0  0  0  0  0  0  0  0  0  0  0
   58.6250   32.8030   45.7450 C   0  0  0  0  0  0  0  0  0  0  0  0
   59.1960   34.0860   45.7850 C   0  0  0  0  0  0  0  0  0  0  0  0
   60.4880   34.2670   46.2850 C   0  0  0  0  0  0  0  0  0  0  0  0
   61.2250   33.1690   46.7500 C   0  0  0  0  0  0  0  0  0  0  0  0
   62.8470   33.4110   47.3970 S   0  0  0  0  0  0  0  0  0  0  0  0
   63.5270   32.0850   47.6010 O   0  0  0  0  0  0  0  0  0  0  0  0
   63.6530   34.2110   46.4130 O   0  0  0  0  0  0  0  0  0  0  0  0
   62.7610   34.2810   48.9010 N   0  0  0  0  0  0  0  0  0  0  0  0
   61.4110   34.2300   49.4710 C   0  0  0  0  0  0  0  0  0  0  0  0
   61.3220   33.1820   50.5850 C   0  0  0  0  0  0  0  0  0  0  0  0
   60.6490   31.9220   50.1070 C   0  0  0  0  0  0  0  0  0  0  0  0
   59.2560   31.8880   49.9150 C   0  0  0  0  0  0  0  0  0  0  0  0
   58.6390   30.7250   49.4410 C   0  0  0  0  0  0  0  0  0  0  0  0
   59.4070   29.5930   49.1490 C   0  0  0  0  0  0  0  0  0  0  0  0
   60.7920   29.6230   49.3270 C   0  0  0  0  0  0  0  0  0  0  0  0
   61.4140   30.7830   49.8010 C   0  0  0  0  0  0  0  0  0  0  0  0
   60.6530   31.8880   46.7250 C   0  0  0  0  0  0  0  0  0  0  0  0
   59.3580   31.7070   46.2300 C   0  0  0  0  0  0  0  0  0  0  0  0
   58.2354   28.3182   47.0002 H   0  0  0  0  0  0  0  0  0  0  0  0
   56.4550   28.5643   46.9011 H   0  0  0  0  0  0  0  0  0  0  0  0
   59.7790   27.1560   44.9180 H   0  0  0  0  0  0  0  0  0  0  0  0
   58.5660   23.8408   43.5381 H   0  0  0  0  0  0  0  0  0  0  0  0
   58.9902   23.2250   45.1888 H   0  0  0  0  0  0  0  0  0  0  0  0
   57.5650   21.4561   44.0298 H   0  0  0  0  0  0  0  0  0  0  0  0
   55.2302   21.6547   44.4825 H   0  0  0  0  0  0  0  0  0  0  0  0
   54.5122   24.1811   44.3262 H   0  0  0  0  0  0  0  0  0  0  0  0
   54.6451   23.5946   46.0349 H   0  0  0  0  0  0  0  0  0  0  0  0
   58.1415   31.2700   43.8371 H   0  0  0  0  0  0  0  0  0  0  0  0
   56.4283   31.6898   43.4687 H   0  0  0  0  0  0  0  0  0  0  0  0
   56.8823   33.5338   44.7469 H   0  0  0  0  0  0  0  0  0  0  0  0
   56.5632   32.3980   46.1111 H   0  0  0  0  0  0  0  0  0  0  0  0
   58.6234   34.9518   45.4211 H   0  0  0  0  0  0  0  0  0  0  0  0
   60.9284   35.2746   46.3139 H   0  0  0  0  0  0  0  0  0  0  0  0
   61.1584   35.2172   49.8854 H   0  0  0  0  0  0  0  0  0  0  0  0
   60.7053   33.9534   48.6738 H   0  0  0  0  0  0  0  0  0  0  0  0
   62.3384   32.9365   50.9265 H   0  0  0  0  0  0  0  0  0  0  0  0
   60.7230   33.6023   51.4063 H   0  0  0  0  0  0  0  0  0  0  0  0
   58.6498   32.7784   50.1382 H   0  0  0  0  0  0  0  0  0  0  0  0
   57.5486   30.7009   49.2978 H   0  0  0  0  0  0  0  0  0  0  0  0
   58.9200   28.6787   48.7790 H   0  0  0  0  0  0  0  0  0  0  0  0
   61.3948   28.7329   49.0941 H   0  0  0  0  0  0  0  0  0  0  0  0
   62.5056   30.8039   49.9347 H   0  0  0  0  0  0  0  0  0  0  0  0
   61.2246   31.0243   47.0956 H   0  0  0  0  0  0  0  0  0  0  0  0
   58.9111   30.7019   46.2203 H   0  0  0  0  0  0  0  0  0  0  0  0
  1  2  2  0
  2  3  1  0
  3  4  1  0
  4  5  1  0
  5  6  1  0
  5  7  2  0
  7  8  1  0
  8  9  2  0
  9 10  1  0
  8 11  1  0
 11 12  1  0
 12 13  2  0
 13 14  1  0
  2 15  1  0
 15 16  1  0
 16 17  1  0
 17 18  1  0
 18 19  2  0
 19 20  1  0
 20 21  2  0
 21 22  1  0
 22 23  2  0
 22 24  2  0
 22 25  1  0
 25 26  1  0
 26 27  1  0
 27 28  1  0
 28 29  2  0
 29 30  1  0
 30 31  2  0
 31 32  1  0
 32 33  2  0
 21 34  1  0
 34 35  2  0
  9  4  1  0
 35 18  1  0
 14  7  1  0
 33 28  1  0
  3 36  1  0
  3 37  1  0
 10 38  1  0
 11 39  1  0
 11 40  1  0
 12 41  1  0
 13 42  1  0
 14 43  1  0
 14 44  1  0
 16 45  1  0
 16 46  1  0
 17 47  1  0
 17 48  1  0
 19 49  1  0
 20 50  1  0
 26 51  1  0
 26 52  1  0
 27 53  1  0
 27 54  1  0
 29 55  1  0
 30 56  1  0
 31 57  1  0
 32 58  1  0
 33 59  1  0
 34 60  1  0
 35 61  1  0
M  CHG  3   6  -1  15  -1  25  -1
M  END
>  <UniqueID>  (3) 
3

>  <SMILES>  (3) 
O=C(Cn1c([O-])c2c(c1O)CC=CC2)[N-]CCc1ccc(S(=O)(=O)[N-]CCc2ccccc2)cc1

>  <Energy>  (3) 
87.80666732156655

>  <Genealogy>  (3) 
O=C(Cn1c([O-])c2c(c1O)CC=CC2)[N-]CCc1ccc(S(=O)(=O)[N-]CCc2ccccc2)cc1 (protonated)
O=C(Cn1c([O-])c2c(c1O)CC=CC2)[N-]CCc1ccc(S(=O)(=O)[N-]CCc2ccccc2)cc1 (3D coordinates assigned)
O=C(Cn1c([O-])c2c(c1O)CC=CC2)[N-]CCc1ccc(S(=O)(=O)[N-]CCc2ccccc2)cc1 (nonaromatic ring conformer: 87.80666732156655 kcal/mol)

>  <smiles>  (3) 
O=C(Cn1c(O)c2c(c1O)CC=CC2)NCCc1ccc(S(=O)(=O)NCCc2ccccc2)cc1

>  <score_type>  (3) 
oracle

>  <origin>  (3) 
adg

>  <m_score__min__energy>  (3) 
-14.65

>  <m_primary>  (3) 
energy

$$$$
3:0
     RDKit          3D

 61 64  0  0  0  0  0  0  0  0999 V2000
   62.8040   30.0240   51.2100 O   0  0  0  0  0  0  0  0  0  0  0  0
   61.8170   30.8080   51.1320 C   0  0  0  0  0  0  0  0  0  0  0  0
   61.0400   31.1340   52.3820 C   0  0  0  0  0  0  0  0  0  0  0  0
   59.6340   30.7360   52.2640 N   0  0  0  0  0  0  0  0  0  0  0  0
   58.8430   30.4490   53.4270 C   0  0  0  0  0  0  0  0  0  0  0  0
   59.3790   30.4550   54.5670 O   0  0  0  0  0  0  0  0  0  0  0  0
   57.4080   30.1370   53.3150 C   0  0  0  0  0  0  0  0  0  0  0  0
   56.8110   29.2830   52.3910 C   0  0  0  0  0  0  0  0  0  0  0  0
   55.4200   29.2140   52.5200 C   0  0  0  0  0  0  0  0  0  0  0  0
   54.9200   30.0160   53.5410 C   0  0  0  0  0  0  0  0  0  0  0  0
   53.4760   30.1780   53.8970 C   0  0  0  0  0  0  0  0  0  0  0  0
   52.6880   30.9850   52.8580 C   0  0  0  0  0  0  0  0  0  0  0  0
   52.5100   30.2260   51.6170 N   0  0  0  0  0  0  0  0  0  0  0  0
   51.8840   30.5200   50.5100 C   0  0  0  0  0  0  0  0  0  0  0  0
   51.9330   29.6020   49.5060 N   0  0  0  0  0  0  0  0  0  0  0  0
   51.3440   29.7990   48.2970 C   0  0  0  0  0  0  0  0  0  0  0  0
   50.6560   30.9820   48.0410 C   0  0  0  0  0  0  0  0  0  0  0  0
   50.5690   31.9440   49.0420 C   0  0  0  0  0  0  0  0  0  0  0  0
   51.1660   31.7270   50.2860 C   0  0  0  0  0  0  0  0  0  0  0  0
   51.0160   32.7050   51.2550 O   0  0  0  0  0  0  0  0  0  0  0  0
   56.2030   30.8060   54.2850 S   0  0  0  0  0  0  0  0  0  0  0  0
   61.4180   31.3410   49.8070 C   0  0  0  0  0  0  0  0  0  0  0  0
   61.3650   32.7310   49.6010 C   0  0  0  0  0  0  0  0  0  0  0  0
   60.9800   33.2480   48.3630 C   0  0  0  0  0  0  0  0  0  0  0  0
   60.6500   32.3890   47.3140 C   0  0  0  0  0  0  0  0  0  0  0  0
   60.7170   31.0020   47.4870 C   0  0  0  0  0  0  0  0  0  0  0  0
   60.3800   30.1600   46.3760 N   0  0  0  0  0  0  0  0  0  0  0  0
   59.1400   28.9480   46.3680 S   0  0  0  0  0  0  0  0  0  0  0  0
   59.7340   27.6090   46.0360 O   0  0  0  0  0  0  0  0  0  0  0  0
   58.5280   28.8780   47.7390 O   0  0  0  0  0  0  0  0  0  0  0  0
   57.8750   29.3950   45.1890 C   0  0  0  0  0  0  0  0  0  0  0  0
   57.8800   30.8770   44.9500 C   0  0  0  0  0  0  0  0  0  0  0  0
   57.7620   31.7700   46.0320 C   0  0  0  0  0  0  0  0  0  0  0  0
   57.7430   33.1510   45.8050 C   0  0  0  0  0  0  0  0  0  0  0  0
   57.8330   33.6480   44.4990 C   0  0  0  0  0  0  0  0  0  0  0  0
   57.9430   32.7630   43.4170 C   0  0  0  0  0  0  0  0  0  0  0  0
   57.9600   31.3820   43.6410 C   0  0  0  0  0  0  0  0  0  0  0  0
   61.0970   30.4830   48.7380 C   0  0  0  0  0  0  0  0  0  0  0  0
   61.4915   30.6012   53.2319 H   0  0  0  0  0  0  0  0  0  0  0  0
   61.0772   32.2226   52.5355 H   0  0  0  0  0  0  0  0  0  0  0  0
   59.2190   30.5820   51.3180 H   0  0  0  0  0  0  0  0  0  0  0  0
   57.3770   28.7189   51.6350 H   0  0  0  0  0  0  0  0  0  0  0  0
   54.7840   28.5874   51.8775 H   0  0  0  0  0  0  0  0  0  0  0  0
   53.0222   29.1796   53.9826 H   0  0  0  0  0  0  0  0  0  0  0  0
   53.4320   30.7327   54.8459 H   0  0  0  0  0  0  0  0  0  0  0  0
   51.6992   31.2326   53.2715 H   0  0  0  0  0  0  0  0  0  0  0  0
   53.2537   31.8997   52.6272 H   0  0  0  0  0  0  0  0  0  0  0  0
   51.4110   29.0231   47.5202 H   0  0  0  0  0  0  0  0  0  0  0  0
   50.1876   31.1536   47.0606 H   0  0  0  0  0  0  0  0  0  0  0  0
   50.0264   32.8819   48.8526 H   0  0  0  0  0  0  0  0  0  0  0  0
   61.6287   33.4153   50.4209 H   0  0  0  0  0  0  0  0  0  0  0  0
   60.9365   34.3369   48.2137 H   0  0  0  0  0  0  0  0  0  0  0  0
   60.3353   32.8046   46.3454 H   0  0  0  0  0  0  0  0  0  0  0  0
   58.0653   28.8743   44.2389 H   0  0  0  0  0  0  0  0  0  0  0  0
   56.8939   29.1026   45.5914 H   0  0  0  0  0  0  0  0  0  0  0  0
   57.6846   31.3815   47.0582 H   0  0  0  0  0  0  0  0  0  0  0  0
   57.6573   33.8463   46.6530 H   0  0  0  0  0  0  0  0  0  0  0  0
   57.8174   34.7335   44.3218 H   0  0  0  0  0  0  0  0  0  0  0  0
   58.0160   33.1546   42.3917 H   0  0  0  0  0  0  0  0  0  0  0  0
   58.0362   30.6894   42.7898 H   0  0  0  0  0  0  0  0  0  0  0  0
   61.1439   29.3936   48.8827 H   0  0  0  0  0  0  0  0  0  0  0  0
  1  2  2  0
  2  3  1  0
  3  4  1  0
  4  5  1  0
  5  6  2  0
  5  7  1  0
  7  8  2  0
  8  9  1  0
  9 10  2  0
 10 11  1  0
 11 12  1  0
 12 13  1  0
 13 14  2  3
 14 15  1  0
 15 16  1  0
 16 17  2  0
 17 18  1  0
 18 19  2  0
 19 20  1  0
 10 21  1  0
  2 22  1  0
 22 23  2  0
 23 24  1  0
 24 25  2  0
 25 26  1  0
 26 27  1  0
 27 28  1  0
 28 29  2  0
 28 30  2  0
 28 31  1  0
 31 32  1  0
 32 33  2  0
 33 34  1  0
 34 35  2  0
 35 36  1  0
 36 37  2  0
 26 38  2  0
 21  7  1  0
 38 22  1  0
 19 14  1  0
 37 32  1  0
  3 39  1  0
  3 40  1  0
  4 41  1  0
  8 42  1  0
  9 43  1  0
 11 44  1  0
 11 45  1  0
 12 46  1  0
 12 47  1  0
 16 48  1  0
 17 49  1  0
 18 50  1  0
 23 51  1  0
 24 52  1  0
 25 53  1  0
 31 54  1  0
 31 55  1  0
 33 56  1  0
 34 57  1  0
 35 58  1  0
 36 59  1  0
 37 60  1  0
 38 61  1  0
M  CHG  3  15  -1  20  -1  27  -1
M  END
>  <UniqueID>  (4) 
4

>  <SMILES>  (4) 
O=C(CNC(=O)c1ccc(CCN=c2[n-]cccc2[O-])s1)c1cccc([N-]S(=O)(=O)Cc2ccccc2)c1

>  <Energy>  (4) 
96.01055650838998

>  <Genealogy>  (4) 
O=C(CNC(=O)c1ccc(CCN=c2[n-]cccc2[O-])s1)c1cccc([N-]S(=O)(=O)Cc2ccccc2)c1 (protonated)
O=C(CNC(=O)c1ccc(CCN=c2[n-]cccc2[O-])s1)c1cccc([N-]S(=O)(=O)Cc2ccccc2)c1 (3D coordinates assigned)
O=C(CNC(=O)c1ccc(CCN=c2[n-]cccc2[O-])s1)c1cccc([N-]S(=O)(=O)Cc2ccccc2)c1 (optimized conformer: 96.01055650838998 kcal/mol)

>  <smiles>  (4) 
O=C(CNC(=O)c1ccc(CCN=c2[nH]cccc2O)s1)c1cccc(NS(=O)(=O)Cc2ccccc2)c1

>  <score_type>  (4) 
oracle

>  <origin>  (4) 
adg

>  <m_score__min__energy>  (4) 
-14.85

>  <m_primary>  (4) 
energy

$$$$
4:0
     RDKit          3D

 37 39  0  0  0  0  0  0  0  0999 V2000
   59.5206   33.8890   51.9527 H   0  0  0  0  0  0  0  0  0  0  0  0
   58.7560   33.1040   51.8570 C   0  0  0  0  0  0  0  0  0  0  0  0
   59.0130   31.9820   51.1410 N   0  0  0  0  0  0  0  0  0  0  0  0
   58.0950   30.9830   51.0130 C   0  0  0  0  0  0  0  0  0  0  0  0
   58.3620   29.9480   50.2770 N   0  0  0  0  0  0  0  0  0  0  0  0
   54.5190   30.3350   52.0550 C   0  0  0  0  0  0  0  0  0  0  0  0
   54.0430   29.5040   53.0730 C   0  0  0  0  0  0  0  0  0  0  0  0
   54.7165   28.7732   53.5445 H   0  0  0  0  0  0  0  0  0  0  0  0
   52.7150   29.5990   53.4930 C   0  0  0  0  0  0  0  0  0  0  0  0
   52.3486   28.9512   54.3030 H   0  0  0  0  0  0  0  0  0  0  0  0
   51.8500   30.5140   52.8880 C   0  0  0  0  0  0  0  0  0  0  0  0
   50.8075   30.5898   53.2308 H   0  0  0  0  0  0  0  0  0  0  0  0
   52.3040   31.3390   51.8430 C   0  0  0  0  0  0  0  0  0  0  0  0
   51.4020   32.3300   51.2170 C   0  0  0  0  0  0  0  0  0  0  0  0
   51.3020   32.4040   49.9630 O   0  0  0  0  0  0  0  0  0  0  0  0
   50.6430   33.1890   52.0050 O   0  0  0  0  0  0  0  0  0  0  0  0
   53.6380   31.2220   51.4130 C   0  0  0  0  0  0  0  0  0  0  0  0
   53.9944   31.8293   50.5679 H   0  0  0  0  0  0  0  0  0  0  0  0
   56.8370   31.1180   51.6660 C   0  0  0  0  0  0  0  0  0  0  0  0
   55.8870   30.2180   51.6290 N   0  0  0  0  0  0  0  0  0  0  0  0
   59.1230   29.9940   48.7220 S   0  0  0  0  0  0  0  0  0  0  0  0
   60.5340   29.4860   48.8190 O   0  0  0  0  0  0  0  0  0  0  0  0
   58.3440   29.1470   47.7540 O   0  0  0  0  0  0  0  0  0  0  0  0
   59.1300   31.6700   48.1890 C   0  0  0  0  0  0  0  0  0  0  0  0
   60.0710   32.5830   48.6900 C   0  0  0  0  0  0  0  0  0  0  0  0
   60.7948   32.2627   49.4538 H   0  0  0  0  0  0  0  0  0  0  0  0
   60.0890   33.8990   48.2190 C   0  0  0  0  0  0  0  0  0  0  0  0
   60.8266   34.6130   48.6142 H   0  0  0  0  0  0  0  0  0  0  0  0
   59.1720   34.3100   47.2470 C   0  0  0  0  0  0  0  0  0  0  0  0
   59.1893   35.3459   46.8773 H   0  0  0  0  0  0  0  0  0  0  0  0
   58.2330   33.4040   46.7450 C   0  0  0  0  0  0  0  0  0  0  0  0
   57.0860   33.9170   45.5210 Cl  0  0  0  0  0  0  0  0  0  0  0  0
   58.2140   32.0860   47.2130 C   0  0  0  0  0  0  0  0  0  0  0  0
   57.4774   31.3733   46.8136 H   0  0  0  0  0  0  0  0  0  0  0  0
   56.5930   32.2630   52.3580 N   0  0  0  0  0  0  0  0  0  0  0  0
   57.5150   33.2530   52.4700 C   0  0  0  0  0  0  0  0  0  0  0  0
   57.2836   34.1649   53.0401 H   0  0  0  0  0  0  0  0  0  0  0  0
  1  2  1  0
  2  3  1  0
  3  4  1  0
  4  5  2  0
  5  6  1  0
  6  7  2  0
  7  8  1  0
  7  9  1  0
  9 10  1  0
  9 11  2  0
 11 12  1  0
 11 13  1  0
 13 14  1  0
 14 15  2  0
 14 16  1  0
 13 17  2  0
 17 18  1  0
  4 19  1  0
 19 20  2  0
 20 21  1  0
 21 22  2  0
 21 23  2  0
 21 24  1  0
 24 25  2  0
 25 26  1  0
 25 27  1  0
 27 28  1  0
 27 29  2  0
 29 30  1  0
 29 31  1  0
 31 32  1  0
 31 33  2  0
 33 34  1  0
 19 35  1  0
 35 36  1  0
 36 37  1  0
 36  2  2  0
 17  6  1  0
 33 24  1  0
M  CHG  3   3  -1  16  -1  35  -1
M  END
>  <UniqueID>  (5) 
5

>  <SMILES>  (5) 
O=C([O-])c1cccc(N=c2[n-]cc[n-]/c2=N\S(=O)(=O)c2cccc(Cl)c2)c1

>  <Energy>  (5) 
55.48829241368185

>  <Genealogy>  (5) 
O=C([O-])c1cccc(N=c2[n-]cc[n-]c2=NS(=O)(=O)c2cccc(Cl)c2)c1 (protonated)
O=C([O-])c1cccc(N=c2[n-]cc[n-]/c2=N\S(=O)(=O)c2cccc(Cl)c2)c1 (cis-trans isomerization)
O=C([O-])c1cccc(N=c2[n-]cc[n-]/c2=N\S(=O)(=O)c2cccc(Cl)c2)c1 (3D coordinates assigned)
O=C([O-])c1cccc(N=c2[n-]cc[n-]/c2=N\S(=O)(=O)c2cccc(Cl)c2)c1 (optimized conformer: 55.48829241368185 kcal/mol)

>  <smiles>  (5) 
O=C(O)c1cccc(N=c2[nH]cc[nH]c2=NS(=O)(=O)c2cccc(Cl)c2)c1

>  <score_type>  (5) 
oracle

>  <origin>  (5) 
adg

>  <m_score__min__energy>  (5) 
-14.35

>  <m_primary>  (5) 
energy

$$$$
5:0
     RDKit          3D

 56 59  0  0  0  0  0  0  0  0999 V2000
   55.8360   24.4760   47.2610 O   0  0  0  0  0  0  0  0  0  0  0  0
   56.6560   25.2790   46.7430 C   0  0  0  0  0  0  0  0  0  0  0  0
   57.9890   25.0250   46.8090 N   0  0  0  0  0  0  0  0  0  0  0  0
   58.8970   25.8770   46.2650 C   0  0  0  0  0  0  0  0  0  0  0  0
   58.4560   27.0530   45.6410 C   0  0  0  0  0  0  0  0  0  0  0  0
   59.4400   28.0180   45.0320 C   0  0  0  0  0  0  0  0  0  0  0  0
   60.2770   28.7760   46.0790 C   0  0  0  0  0  0  0  0  0  0  0  0
   59.5020   29.8710   46.8360 C   0  0  0  0  0  0  0  0  0  0  0  0
   60.1170   31.2340   46.6800 C   0  0  0  0  0  0  0  0  0  0  0  0
   61.4380   31.4700   46.8230 N   0  0  0  0  0  0  0  0  0  0  0  0
   61.6220   32.7740   46.6880 N   0  0  0  0  0  0  0  0  0  0  0  0
   62.9230   33.4410   46.7130 C   0  0  0  0  0  0  0  0  0  0  0  0
   63.3170   33.8130   48.1460 C   0  0  0  0  0  0  0  0  0  0  0  0
   62.2570   33.3970   49.1330 C   0  0  0  0  0  0  0  0  0  0  0  0
   62.3300   32.1450   49.7670 C   0  0  0  0  0  0  0  0  0  0  0  0
   61.3150   31.7370   50.6370 C   0  0  0  0  0  0  0  0  0  0  0  0
   60.2210   32.5710   50.8790 C   0  0  0  0  0  0  0  0  0  0  0  0
   60.1380   33.8160   50.2470 C   0  0  0  0  0  0  0  0  0  0  0  0
   61.1500   34.2270   49.3730 C   0  0  0  0  0  0  0  0  0  0  0  0
   60.4200   33.3190   46.4310 C   0  0  0  0  0  0  0  0  0  0  0  0
   60.2300   34.5460   46.2150 O   0  0  0  0  0  0  0  0  0  0  0  0
   59.4450   32.3850   46.4200 N   0  0  0  0  0  0  0  0  0  0  0  0
   58.0220   32.5850   46.1330 C   0  0  0  0  0  0  0  0  0  0  0  0
   57.6170   31.8420   44.8890 C   0  0  0  0  0  0  0  0  0  0  0  0
   57.0700   30.5520   44.9850 C   0  0  0  0  0  0  0  0  0  0  0  0
   56.7080   29.8520   43.8300 C   0  0  0  0  0  0  0  0  0  0  0  0
   56.8810   30.4380   42.5730 C   0  0  0  0  0  0  0  0  0  0  0  0
   57.4080   31.7290   42.4690 C   0  0  0  0  0  0  0  0  0  0  0  0
   57.6260   32.4640   40.8910 Cl  0  0  0  0  0  0  0  0  0  0  0  0
   57.7710   32.4330   43.6240 C   0  0  0  0  0  0  0  0  0  0  0  0
   57.1170   27.2880   45.5530 N   0  0  0  0  0  0  0  0  0  0  0  0
   56.2090   26.4340   46.0920 C   0  0  0  0  0  0  0  0  0  0  0  0
   54.8510   26.7120   45.9950 O   0  0  0  0  0  0  0  0  0  0  0  0
   59.9713   25.6458   46.3137 H   0  0  0  0  0  0  0  0  0  0  0  0
   60.1236   27.4546   44.3798 H   0  0  0  0  0  0  0  0  0  0  0  0
   58.8590   28.7675   44.4745 H   0  0  0  0  0  0  0  0  0  0  0  0
   60.6514   28.0480   46.8138 H   0  0  0  0  0  0  0  0  0  0  0  0
   61.0847   29.2828   45.5306 H   0  0  0  0  0  0  0  0  0  0  0  0
   58.4725   29.9037   46.4498 H   0  0  0  0  0  0  0  0  0  0  0  0
   59.5288   29.6162   47.9057 H   0  0  0  0  0  0  0  0  0  0  0  0
   62.1910   30.7680   46.9960 H   0  0  0  0  0  0  0  0  0  0  0  0
   63.6829   32.7649   46.2942 H   0  0  0  0  0  0  0  0  0  0  0  0
   62.8582   34.3620   46.1151 H   0  0  0  0  0  0  0  0  0  0  0  0
   64.2607   33.3082   48.4002 H   0  0  0  0  0  0  0  0  0  0  0  0
   63.4318   34.9056   48.2010 H   0  0  0  0  0  0  0  0  0  0  0  0
   63.1887   31.4840   49.5780 H   0  0  0  0  0  0  0  0  0  0  0  0
   61.3779   30.7568   51.1323 H   0  0  0  0  0  0  0  0  0  0  0  0
   59.4250   32.2488   51.5664 H   0  0  0  0  0  0  0  0  0  0  0  0
   59.2762   34.4725   50.4374 H   0  0  0  0  0  0  0  0  0  0  0  0
   61.0784   35.2037   48.8720 H   0  0  0  0  0  0  0  0  0  0  0  0
   57.4278   32.2167   46.9823 H   0  0  0  0  0  0  0  0  0  0  0  0
   57.8421   33.6588   45.9760 H   0  0  0  0  0  0  0  0  0  0  0  0
   56.9258   30.0904   45.9730 H   0  0  0  0  0  0  0  0  0  0  0  0
   56.2866   28.8391   43.9108 H   0  0  0  0  0  0  0  0  0  0  0  0
   56.6024   29.8833   41.6649 H   0  0  0  0  0  0  0  0  0  0  0  0
   58.1778   33.4516   43.5403 H   0  0  0  0  0  0  0  0  0  0  0  0
  1  2  2  0
  2  3  1  0
  3  4  1  0
  4  5  2  0
  5  6  1  0
  6  7  1  0
  7  8  1  0
  8  9  1  0
  9 10  2  0
 10 11  1  0
 11 12  1  0
 12 13  1  0
 13 14  1  0
 14 15  2  0
 15 16  1  0
 16 17  2  0
 17 18  1  0
 18 19  2  0
 11 20  1  0
 20 21  2  0
 20 22  1  0
 22 23  1  0
 23 24  1  0
 24 25  2  0
 25 26  1  0
 26 27  2  0
 27 28  1  0
 28 29  1  0
 28 30  2  0
  5 31  1  0
 31 32  2  0
 32 33  1  0
 32  2  1  0
 22  9  1  0
 30 24  1  0
 19 14  1  0
  4 34  1  0
  6 35  1  0
  6 36  1  0
  7 37  1  0
  7 38  1  0
  8 39  1  0
  8 40  1  0
 10 41  1  0
 12 42  1  0
 12 43  1  0
 13 44  1  0
 13 45  1  0
 15 46  1  0
 16 47  1  0
 17 48  1  0
 18 49  1  0
 19 50  1  0
 23 51  1  0
 23 52  1  0
 25 53  1  0
 26 54  1  0
 27 55  1  0
 30 56  1  0
M  CHG  3   3  -1  10   1  33  -1
M  END
>  <UniqueID>  (6) 
6

>  <SMILES>  (6) 
O=c1[n-]cc(CCCc2[nH+]n(CCc3ccccc3)c(=O)n2Cc2cccc(Cl)c2)nc1[O-]

>  <Energy>  (6) 
86.39436785929318

>  <Genealogy>  (6) 
O=c1[n-]cc(CCCc2[nH+]n(CCc3ccccc3)c(=O)n2Cc2cccc(Cl)c2)nc1[O-] (protonated)
O=c1[n-]cc(CCCc2[nH+]n(CCc3ccccc3)c(=O)n2Cc2cccc(Cl)c2)nc1[O-] (3D coordinates assigned)
O=c1[n-]cc(CCCc2[nH+]n(CCc3ccccc3)c(=O)n2Cc2cccc(Cl)c2)nc1[O-] (optimized conformer: 86.39436785929318 kcal/mol)

>  <smiles>  (6) 
O=c1[nH]cc(CCCc2nn(CCc3ccccc3)c(=O)n2Cc2cccc(Cl)c2)nc1O

>  <score_type>  (6) 
oracle

>  <origin>  (6) 
adg

>  <m_score__min__energy>  (6) 
-13.720000000000001

>  <m_primary>  (6) 
energy

$$$$
6:0
     RDKit          3D

 44 46  0  0  0  0  0  0  0  0999 V2000
   60.6440   28.3552   46.9208 H   0  0  0  0  0  0  0  0  0  0  0  0
   59.8540   28.8320   46.3220 C   0  0  0  0  0  0  0  0  0  0  0  0
   60.0850   29.9750   45.7540 N   0  0  0  0  0  0  0  0  0  0  0  0
   59.5410   31.2200   46.2130 C   0  0  0  0  0  0  0  0  0  0  0  0
   59.8950   31.7510   47.4590 C   0  0  0  0  0  0  0  0  0  0  0  0
   60.7060   31.1150   48.5180 C   0  0  0  0  0  0  0  0  0  0  0  0
   61.9150   30.8570   48.2840 O   0  0  0  0  0  0  0  0  0  0  0  0
   60.1600   30.7470   49.7920 N   0  0  0  0  0  0  0  0  0  0  0  0
   59.3540   31.5700   50.6470 C   0  0  0  0  0  0  0  0  0  0  0  0
   59.7260   32.8890   50.9680 C   0  0  0  0  0  0  0  0  0  0  0  0
   60.6640   33.3058   50.5725 H   0  0  0  0  0  0  0  0  0  0  0  0
   58.9070   33.6710   51.7880 C   0  0  0  0  0  0  0  0  0  0  0  0
   59.1940   34.7065   52.0235 H   0  0  0  0  0  0  0  0  0  0  0  0
   57.7240   33.1390   52.3090 C   0  0  0  0  0  0  0  0  0  0  0  0
   57.0756   33.7593   52.9452 H   0  0  0  0  0  0  0  0  0  0  0  0
   57.3650   31.8200   52.0220 C   0  0  0  0  0  0  0  0  0  0  0  0
   56.4409   31.3981   52.4438 H   0  0  0  0  0  0  0  0  0  0  0  0
   58.1790   31.0350   51.1990 C   0  0  0  0  0  0  0  0  0  0  0  0
   57.8060   29.7240   50.9160 O   0  0  0  0  0  0  0  0  0  0  0  0
   59.3540   33.3400   47.5240 S   0  0  0  0  0  0  0  0  0  0  0  0
   58.6790   33.3010   45.9920 C   0  0  0  0  0  0  0  0  0  0  0  0
   58.0740   34.6410   45.2670 S   0  0  0  0  0  0  0  0  0  0  0  0
   58.8580   32.0890   45.3920 N   0  0  0  0  0  0  0  0  0  0  0  0
   58.4590   31.7840   44.0050 C   0  0  0  0  0  0  0  0  0  0  0  0
   59.0549   30.9332   43.6430 H   0  0  0  0  0  0  0  0  0  0  0  0
   58.6362   32.6822   43.3952 H   0  0  0  0  0  0  0  0  0  0  0  0
   56.9650   31.4250   43.9000 C   0  0  0  0  0  0  0  0  0  0  0  0
   56.3884   32.3564   43.8001 H   0  0  0  0  0  0  0  0  0  0  0  0
   56.6992   30.8682   44.8107 H   0  0  0  0  0  0  0  0  0  0  0  0
   56.6420   30.5260   42.7110 C   0  0  0  0  0  0  0  0  0  0  0  0
   56.2910   29.5490   43.0747 H   0  0  0  0  0  0  0  0  0  0  0  0
   55.8558   30.9940   42.1004 H   0  0  0  0  0  0  0  0  0  0  0  0
   57.5463   30.3866   42.1004 H   0  0  0  0  0  0  0  0  0  0  0  0
   58.5480   28.1620   46.1770 C   0  0  0  0  0  0  0  0  0  0  0  0
   58.3380   26.8540   46.6500 C   0  0  0  0  0  0  0  0  0  0  0  0
   59.1662   26.3009   47.1170 H   0  0  0  0  0  0  0  0  0  0  0  0
   57.0810   26.2540   46.5290 C   0  0  0  0  0  0  0  0  0  0  0  0
   56.9228   25.2312   46.9015 H   0  0  0  0  0  0  0  0  0  0  0  0
   56.0240   26.9520   45.9350 C   0  0  0  0  0  0  0  0  0  0  0  0
   54.7770   26.3490   45.8200 O   0  0  0  0  0  0  0  0  0  0  0  0
   56.2250   28.2540   45.4620 C   0  0  0  0  0  0  0  0  0  0  0  0
   55.1780   28.9520   44.8740 O   0  0  0  0  0  0  0  0  0  0  0  0
   57.4830   28.8550   45.5800 C   0  0  0  0  0  0  0  0  0  0  0  0
   57.6385   29.8765   45.2028 H   0  0  0  0  0  0  0  0  0  0  0  0
  1  2  1  0
  2  3  2  0
  3  4  1  0
  4  5  2  0
  5  6  1  0
  6  7  2  0
  6  8  1  0
  8  9  1  0
  9 10  2  0
 10 11  1  0
 10 12  1  0
 12 13  1  0
 12 14  2  0
 14 15  1  0
 14 16  1  0
 16 17  1  0
 16 18  2  0
 18 19  1  0
  5 20  1  0
 20 21  1  0
 21 22  2  0
 21 23  1  0
 23 24  1  0
 24 25  1  0
 24 26  1  0
 24 27  1  0
 27 28  1  0
 27 29  1  0
 27 30  1  0
 30 31  1  0
 30 32  1  0
 30 33  1  0
  2 34  1  0
 34 35  2  0
 35 36  1  0
 35 37  1  0
 37 38  1  0
 37 39  2  0
 39 40  1  0
 39 41  1  0
 41 42  1  0
 41 43  2  0
 43 44  1  0
 23  4  1  0
 43 34  1  0
 18  9  1  0
M  CHG  4   8  -1  19  -1  40  -1  42  -1
M  END
>  <UniqueID>  (7) 
7

>  <SMILES>  (7) 
CCCn1c(/N=C\c2ccc([O-])c([O-])c2)c(C(=O)[N-]c2ccccc2[O-])sc1=S

>  <Energy>  (7) 
86.03592363712347

>  <Genealogy>  (7) 
CCCn1c(N=Cc2ccc([O-])c([O-])c2)c(C(=O)[N-]c2ccccc2[O-])sc1=S (protonated)
CCCn1c(/N=C\c2ccc([O-])c([O-])c2)c(C(=O)[N-]c2ccccc2[O-])sc1=S (cis-trans isomerization)
CCCn1c(/N=C\c2ccc([O-])c([O-])c2)c(C(=O)[N-]c2ccccc2[O-])sc1=S (3D coordinates assigned)
CCCn1c(/N=C\c2ccc([O-])c([O-])c2)c(C(=O)[N-]c2ccccc2[O-])sc1=S (optimized conformer: 86.03592363712347 kcal/mol)

>  <smiles>  (7) 
CCCn1c(N=Cc2ccc(O)c(O)c2)c(C(=O)Nc2ccccc2O)sc1=S

>  <score_type>  (7) 
oracle

>  <origin>  (7) 
adg

>  <m_score__min__energy>  (7) 
-17.539999999999999

>  <m_primary>  (7) 
energy

$$$$
7:0
     RDKit          3D

 46 48  0  0  0  0  0  0  0  0999 V2000
   54.1489   32.3646   52.4963 H   0  0  0  0  0  0  0  0  0  0  0  0
   54.1120   31.3040   52.2070 C   0  0  0  0  0  0  0  0  0  0  0  0
   55.3990   30.5960   52.0590 C   0  0  0  0  0  0  0  0  0  0  0  0
   55.4390   29.3370   52.0000 O   0  0  0  0  0  0  0  0  0  0  0  0
   56.6120   31.3560   52.0880 N   0  0  0  0  0  0  0  0  0  0  0  0
   57.7110   31.2120   51.1780 C   0  0  0  0  0  0  0  0  0  0  0  0
   58.6910   30.2490   51.4490 C   0  0  0  0  0  0  0  0  0  0  0  0
   58.6040   29.6178   52.3457 H   0  0  0  0  0  0  0  0  0  0  0  0
   59.7790   30.0850   50.5870 C   0  0  0  0  0  0  0  0  0  0  0  0
   60.5383   29.3182   50.8002 H   0  0  0  0  0  0  0  0  0  0  0  0
   59.9030   30.8940   49.4550 C   0  0  0  0  0  0  0  0  0  0  0  0
   60.7547   30.7556   48.7728 H   0  0  0  0  0  0  0  0  0  0  0  0
   58.9460   31.8810   49.1860 C   0  0  0  0  0  0  0  0  0  0  0  0
   59.1190   32.8940   47.7560 S   0  0  0  0  0  0  0  0  0  0  0  0
   57.8750   33.7000   47.5100 O   0  0  0  0  0  0  0  0  0  0  0  0
   60.2720   33.8350   47.9640 O   0  0  0  0  0  0  0  0  0  0  0  0
   59.4380   31.8980   46.3740 N   0  0  0  0  0  0  0  0  0  0  0  0
   58.4690   31.0910   45.6870 C   0  0  0  0  0  0  0  0  0  0  0  0
   58.3290   29.7170   45.9630 C   0  0  0  0  0  0  0  0  0  0  0  0
   58.9722   29.2433   46.7192 H   0  0  0  0  0  0  0  0  0  0  0  0
   57.3790   28.9520   45.2830 C   0  0  0  0  0  0  0  0  0  0  0  0
   57.2796   27.8785   45.5017 H   0  0  0  0  0  0  0  0  0  0  0  0
   56.5560   29.5470   44.3270 C   0  0  0  0  0  0  0  0  0  0  0  0
   55.8075   28.9425   43.7937 H   0  0  0  0  0  0  0  0  0  0  0  0
   56.6810   30.9090   44.0460 C   0  0  0  0  0  0  0  0  0  0  0  0
   56.0261   31.3743   43.2946 H   0  0  0  0  0  0  0  0  0  0  0  0
   57.6380   31.6890   44.7170 C   0  0  0  0  0  0  0  0  0  0  0  0
   57.7580   33.1560   44.4090 C   0  0  0  0  0  0  0  0  0  0  0  0
   57.8046   33.7254   45.3490 H   0  0  0  0  0  0  0  0  0  0  0  0
   58.6738   33.3346   43.8263 H   0  0  0  0  0  0  0  0  0  0  0  0
   56.8834   33.4811   43.8263 H   0  0  0  0  0  0  0  0  0  0  0  0
   57.8570   32.0460   50.0530 C   0  0  0  0  0  0  0  0  0  0  0  0
   57.1127   32.8310   49.8535 H   0  0  0  0  0  0  0  0  0  0  0  0
   52.9000   30.7580   52.0170 C   0  0  0  0  0  0  0  0  0  0  0  0
   52.3999   30.3182   52.8925 H   0  0  0  0  0  0  0  0  0  0  0  0
   52.1840   30.7010   50.7240 C   0  0  0  0  0  0  0  0  0  0  0  0
   52.4570   29.6800   49.7940 C   0  0  0  0  0  0  0  0  0  0  0  0
   53.1859   28.8945   50.0423 H   0  0  0  0  0  0  0  0  0  0  0  0
   51.8070   29.6590   48.5570 C   0  0  0  0  0  0  0  0  0  0  0  0
   52.0114   28.8479   47.8426 H   0  0  0  0  0  0  0  0  0  0  0  0
   50.8980   30.6670   48.2270 C   0  0  0  0  0  0  0  0  0  0  0  0
   50.3843   30.6471   47.2545 H   0  0  0  0  0  0  0  0  0  0  0  0
   50.6410   31.7000   49.1310 C   0  0  0  0  0  0  0  0  0  0  0  0
   49.9300   32.4962   48.8655 H   0  0  0  0  0  0  0  0  0  0  0  0
   51.2850   31.7260   50.3740 C   0  0  0  0  0  0  0  0  0  0  0  0
   51.0210   32.7670   51.2570 O   0  0  0  0  0  0  0  0  0  0  0  0
  1  2  1  0
  2  3  1  0
  3  4  2  0
  3  5  1  0
  5  6  1  0
  6  7  2  0
  7  8  1  0
  7  9  1  0
  9 10  1  0
  9 11  2  0
 11 12  1  0
 11 13  1  0
 13 14  1  0
 14 15  2  0
 14 16  2  0
 14 17  1  0
 17 18  1  0
 18 19  2  0
 19 20  1  0
 19 21  1  0
 21 22  1  0
 21 23  2  0
 23 24  1  0
 23 25  1  0
 25 26  1  0
 25 27  2  0
 27 28  1  0
 28 29  1  0
 28 30  1  0
 28 31  1  0
 13 32  2  0
 32 33  1  0
  2 34  2  0
 34 35  1  0
 34 36  1  0
 36 37  2  0
 37 38  1  0
 37 39  1  0
 39 40  1  0
 39 41  2  0
 41 42  1  0
 41 43  1  0
 43 44  1  0
 43 45  2  0
 45 46  1  0
 32  6  1  0
 45 36  1  0
 27 18  1  0
M  CHG  3   5  -1  17  -1  46  -1
M  END
>  <UniqueID>  (8) 
8

>  <SMILES>  (8) 
Cc1ccccc1[N-]S(=O)(=O)c1cccc([N-]C(=O)/C=C\c2ccccc2[O-])c1

>  <Energy>  (8) 
62.663664918966894

>  <Genealogy>  (8) 
Cc1ccccc1[N-]S(=O)(=O)c1cccc([N-]C(=O)C=Cc2ccccc2[O-])c1 (protonated)
Cc1ccccc1[N-]S(=O)(=O)c1cccc([N-]C(=O)/C=C\c2ccccc2[O-])c1 (cis-trans isomerization)
Cc1ccccc1[N-]S(=O)(=O)c1cccc([N-]C(=O)/C=C\c2ccccc2[O-])c1 (3D coordinates assigned)
Cc1ccccc1[N-]S(=O)(=O)c1cccc([N-]C(=O)/C=C\c2ccccc2[O-])c1 (optimized conformer: 62.663664918966894 kcal/mol)

>  <smiles>  (8) 
Cc1ccccc1NS(=O)(=O)c1cccc(NC(=O)C=Cc2ccccc2O)c1

>  <score_type>  (8) 
oracle

>  <origin>  (8) 
adg

>  <m_score__min__energy>  (8) 
-15.93

>  <m_primary>  (8) 
energy

$$$$
8:0
     RDKit          3D

 46 47  0  0  0  0  0  0  0  0999 V2000
   57.7150   26.6550   45.8150 C   0  0  0  0  0  0  0  0  0  0  0  0
   58.0380   27.7380   46.8420 C   0  0  0  0  0  0  0  0  0  0  0  0
   58.3580   29.0140   46.1810 N   0  0  0  0  0  0  0  0  0  0  0  0
   57.8900   29.2460   44.8070 C   0  0  0  0  0  0  0  0  0  0  0  0
   56.4970   29.7900   44.8180 C   0  0  0  0  0  0  0  0  0  0  0  0
   55.5220   29.0050   44.9600 O   0  0  0  0  0  0  0  0  0  0  0  0
   56.2880   31.1970   44.6490 N   0  0  0  0  0  0  0  0  0  0  0  0
   57.2460   32.2350   44.9010 C   0  0  0  0  0  0  0  0  0  0  0  0
   57.9890   32.8320   43.8650 C   0  0  0  0  0  0  0  0  0  0  0  0
   58.8910   33.8620   44.1510 C   0  0  0  0  0  0  0  0  0  0  0  0
   59.0470   34.3160   45.4630 C   0  0  0  0  0  0  0  0  0  0  0  0
   58.2960   33.7470   46.4950 C   0  0  0  0  0  0  0  0  0  0  0  0
   58.4500   34.2170   47.7970 O   0  0  0  0  0  0  0  0  0  0  0  0
   57.3920   32.7120   46.2110 C   0  0  0  0  0  0  0  0  0  0  0  0
   59.1830   30.0100   46.8250 C   0  0  0  0  0  0  0  0  0  0  0  0
   59.8540   30.8140   46.1230 O   0  0  0  0  0  0  0  0  0  0  0  0
   59.2550   30.1280   48.3180 C   0  0  0  0  0  0  0  0  0  0  0  0
   58.8040   31.4550   48.7270 N   0  0  0  0  0  0  0  0  0  0  0  0
   60.0750   32.2760   49.5780 S   0  0  0  0  0  0  0  0  0  0  0  0
   60.5330   31.4220   50.7250 O   0  0  0  0  0  0  0  0  0  0  0  0
   59.5520   33.5760   50.1240 O   0  0  0  0  0  0  0  0  0  0  0  0
   61.4400   32.5660   48.5020 C   0  0  0  0  0  0  0  0  0  0  0  0
   61.4620   33.6830   47.6530 C   0  0  0  0  0  0  0  0  0  0  0  0
   62.5480   33.8920   46.7980 C   0  0  0  0  0  0  0  0  0  0  0  0
   63.6130   32.9880   46.7820 C   0  0  0  0  0  0  0  0  0  0  0  0
   63.5940   31.8710   47.6250 C   0  0  0  0  0  0  0  0  0  0  0  0
   62.5110   31.6610   48.4830 C   0  0  0  0  0  0  0  0  0  0  0  0
   57.4381   25.7266   46.3359 H   0  0  0  0  0  0  0  0  0  0  0  0
   56.8764   26.9858   45.1846 H   0  0  0  0  0  0  0  0  0  0  0  0
   58.5978   26.4725   45.1846 H   0  0  0  0  0  0  0  0  0  0  0  0
   57.1675   27.8817   47.4990 H   0  0  0  0  0  0  0  0  0  0  0  0
   58.9131   27.4170   47.4261 H   0  0  0  0  0  0  0  0  0  0  0  0
   58.5575   29.9676   44.3133 H   0  0  0  0  0  0  0  0  0  0  0  0
   57.8970   28.2913   44.2607 H   0  0  0  0  0  0  0  0  0  0  0  0
   57.8599   32.4877   42.8283 H   0  0  0  0  0  0  0  0  0  0  0  0
   59.4795   34.3161   43.3402 H   0  0  0  0  0  0  0  0  0  0  0  0
   59.7619   35.1223   45.6839 H   0  0  0  0  0  0  0  0  0  0  0  0
   58.5380   33.5830   48.5830 H   0  0  0  0  0  0  0  0  0  0  0  0
   56.7936   32.2718   47.0222 H   0  0  0  0  0  0  0  0  0  0  0  0
   58.6098   29.3645   48.7771 H   0  0  0  0  0  0  0  0  0  0  0  0
   60.2941   29.9781   48.6465 H   0  0  0  0  0  0  0  0  0  0  0  0
   60.6236   34.3951   47.6603 H   0  0  0  0  0  0  0  0  0  0  0  0
   62.5640   34.7705   46.1361 H   0  0  0  0  0  0  0  0  0  0  0  0
   64.4658   33.1540   46.1074 H   0  0  0  0  0  0  0  0  0  0  0  0
   64.4317   31.1582   47.6122 H   0  0  0  0  0  0  0  0  0  0  0  0
   62.4987   30.7830   49.1455 H   0  0  0  0  0  0  0  0  0  0  0  0
  1  2  1  0
  2  3  1  0
  3  4  1  0
  4  5  1  0
  5  6  2  0
  5  7  1  0
  7  8  1  0
  8  9  2  0
  9 10  1  0
 10 11  2  0
 11 12  1  0
 12 13  1  0
 12 14  2  0
  3 15  1  0
 15 16  2  0
 15 17  1  0
 17 18  1  0
 18 19  1  0
 19 20  2  0
 19 21  2  0
 19 22  1  0
 22 23  2  0
 23 24  1  0
 24 25  2  0
 25 26  1  0
 26 27  2  0
 14  8  1  0
 27 22  1  0
  1 28  1  0
  1 29  1  0
  1 30  1  0
  2 31  1  0
  2 32  1  0
  4 33  1  0
  4 34  1  0
  9 35  1  0
 10 36  1  0
 11 37  1  0
 13 38  1  0
 14 39  1  0
 17 40  1  0
 17 41  1  0
 23 42  1  0
 24 43  1  0
 25 44  1  0
 26 45  1  0
 27 46  1  0
M  CHG  2   7  -1  18  -1
M  END
>  <UniqueID>  (9) 
9

>  <SMILES>  (9) 
CCN(CC(=O)[N-]c1cccc(O)c1)C(=O)C[N-]S(=O)(=O)c1ccccc1

>  <Energy>  (9) 
42.39038236301699

>  <Genealogy>  (9) 
CCN(CC(=O)[N-]c1cccc(O)c1)C(=O)C[N-]S(=O)(=O)c1ccccc1 (protonated)
CCN(CC(=O)[N-]c1cccc(O)c1)C(=O)C[N-]S(=O)(=O)c1ccccc1 (3D coordinates assigned)
CCN(CC(=O)[N-]c1cccc(O)c1)C(=O)C[N-]S(=O)(=O)c1ccccc1 (optimized conformer: 42.39038236301699 kcal/mol)

>  <smiles>  (9) 
CCN(CC(=O)Nc1cccc(O)c1)C(=O)CNS(=O)(=O)c1ccccc1

>  <score_type>  (9) 
oracle

>  <origin>  (9) 
adg

>  <m_score__min__energy>  (9) 
-12.57

>  <m_primary>  (9) 
energy

$$$$
9:0
     RDKit          3D

 56 59  0  0  0  0  0  0  0  0999 V2000
   60.0020   27.7320   46.4170 C   0  0  0  0  0  0  0  0  0  0  0  0
   59.0700   28.5440   45.8930 C   0  0  0  0  0  0  0  0  0  0  0  0
   57.9620   28.1540   45.1310 C   0  0  0  0  0  0  0  0  0  0  0  0
   57.6270   26.9020   44.7610 C   0  0  0  0  0  0  0  0  0  0  0  0
   57.0960   25.8840   45.6850 C   0  0  0  0  0  0  0  0  0  0  0  0
   57.8510   24.9110   46.2230 N   0  0  0  0  0  0  0  0  0  0  0  0
   56.9990   24.2750   47.0560 C   0  0  0  0  0  0  0  0  0  0  0  0
   57.3410   23.2790   47.7450 O   0  0  0  0  0  0  0  0  0  0  0  0
   55.7560   24.7980   47.1030 N   0  0  0  0  0  0  0  0  0  0  0  0
   55.8350   25.8230   46.2390 C   0  0  0  0  0  0  0  0  0  0  0  0
   54.7920   26.7100   46.0010 O   0  0  0  0  0  0  0  0  0  0  0  0
   57.3060   29.3230   44.7720 C   0  0  0  0  0  0  0  0  0  0  0  0
   58.0130   30.3650   45.3380 C   0  0  0  0  0  0  0  0  0  0  0  0
   57.6650   31.8140   45.1800 C   0  0  0  0  0  0  0  0  0  0  0  0
   59.0860   29.8950   46.0120 N   0  0  0  0  0  0  0  0  0  0  0  0
   60.0480   30.6950   46.7240 C   0  0  0  0  0  0  0  0  0  0  0  0
   60.3250   32.0040   46.3070 C   0  0  0  0  0  0  0  0  0  0  0  0
   61.2490   32.7850   47.0060 C   0  0  0  0  0  0  0  0  0  0  0  0
   61.9170   32.2680   48.1310 C   0  0  0  0  0  0  0  0  0  0  0  0
   62.8910   33.1060   48.8710 C   0  0  0  0  0  0  0  0  0  0  0  0
   62.5430   34.2480   49.2800 O   0  0  0  0  0  0  0  0  0  0  0  0
   64.2400   32.6560   49.0830 N   0  0  0  0  0  0  0  0  0  0  0  0
   65.1070   33.1820   50.1030 C   0  0  0  0  0  0  0  0  0  0  0  0
   66.5030   33.0280   50.0280 C   0  0  0  0  0  0  0  0  0  0  0  0
   67.3280   33.5690   51.0190 C   0  0  0  0  0  0  0  0  0  0  0  0
   66.7730   34.2790   52.0940 C   0  0  0  0  0  0  0  0  0  0  0  0
   67.6620   34.8910   53.1410 C   0  0  0  0  0  0  0  0  0  0  0  0
   68.1830   36.5270   52.6480 S   0  0  0  0  0  0  0  0  0  0  0  0
   66.8280   37.6740   52.7690 C   0  0  0  0  0  0  0  0  0  0  0  0
   69.3070   36.9890   53.5330 O   0  0  0  0  0  0  0  0  0  0  0  0
   68.6620   36.4810   51.2260 O   0  0  0  0  0  0  0  0  0  0  0  0
   65.3820   34.4580   52.1540 C   0  0  0  0  0  0  0  0  0  0  0  0
   64.5580   33.9160   51.1640 C   0  0  0  0  0  0  0  0  0  0  0  0
   61.6240   30.9580   48.5510 C   0  0  0  0  0  0  0  0  0  0  0  0
   60.6980   30.1780   47.8520 C   0  0  0  0  0  0  0  0  0  0  0  0
   60.8329   28.1536   47.0017 H   0  0  0  0  0  0  0  0  0  0  0  0
   59.9347   26.6451   46.2616 H   0  0  0  0  0  0  0  0  0  0  0  0
   57.7579   26.6230   43.7050 H   0  0  0  0  0  0  0  0  0  0  0  0
   56.3984   29.4038   44.1558 H   0  0  0  0  0  0  0  0  0  0  0  0
   57.5543   32.2749   46.1727 H   0  0  0  0  0  0  0  0  0  0  0  0
   58.4659   32.3251   44.6257 H   0  0  0  0  0  0  0  0  0  0  0  0
   56.7193   31.9056   44.6257 H   0  0  0  0  0  0  0  0  0  0  0  0
   59.8130   32.4182   45.4259 H   0  0  0  0  0  0  0  0  0  0  0  0
   61.4559   33.8130   46.6738 H   0  0  0  0  0  0  0  0  0  0  0  0
   64.6500   31.9900   48.3900 H   0  0  0  0  0  0  0  0  0  0  0  0
   66.9483   32.4790   49.1852 H   0  0  0  0  0  0  0  0  0  0  0  0
   68.4182   33.4371   50.9552 H   0  0  0  0  0  0  0  0  0  0  0  0
   67.1093   34.9585   54.0896 H   0  0  0  0  0  0  0  0  0  0  0  0
   68.5530   34.2576   53.2630 H   0  0  0  0  0  0  0  0  0  0  0  0
   66.6026   37.8648   53.8286 H   0  0  0  0  0  0  0  0  0  0  0  0
   67.1022   38.6187   52.2766 H   0  0  0  0  0  0  0  0  0  0  0  0
   65.9416   37.2476   52.2766 H   0  0  0  0  0  0  0  0  0  0  0  0
   64.9386   35.0275   52.9841 H   0  0  0  0  0  0  0  0  0  0  0  0
   63.4697   34.0665   51.2176 H   0  0  0  0  0  0  0  0  0  0  0  0
   62.1277   30.5438   49.4368 H   0  0  0  0  0  0  0  0  0  0  0  0
   60.4789   29.1541   48.1892 H   0  0  0  0  0  0  0  0  0  0  0  0
  1  2  2  0
  2  3  1  0
  3  4  2  3
  4  5  1  0
  5  6  1  0
  6  7  1  0
  7  8  2  0
  7  9  1  0
  9 10  1  0
 10 11  1  0
  3 12  1  0
 12 13  2  0
 13 14  1  0
 13 15  1  0
 15 16  1  0
 16 17  2  0
 17 18  1  0
 18 19  2  0
 19 20  1  0
 20 21  2  0
 20 22  1  0
 22 23  1  0
 23 24  2  0
 24 25  1  0
 25 26  2  0
 26 27  1  0
 27 28  1  0
 28 29  1  0
 28 30  2  0
 28 31  2  0
 26 32  1  0
 32 33  2  0
 19 34  1  0
 34 35  2  0
 15  2  1  0
 35 16  1  0
 10  5  2  0
 33 23  1  0
  1 36  1  0
  1 37  1  0
  4 38  1  0
 12 39  1  0
 14 40  1  0
 14 41  1  0
 14 42  1  0
 17 43  1  0
 18 44  1  0
 22 45  1  0
 24 46  1  0
 25 47  1  0
 27 48  1  0
 27 49  1  0
 29 50  1  0
 29 51  1  0
 29 52  1  0
 32 53  1  0
 33 54  1  0
 34 55  1  0
 35 56  1  0
M  CHG  3   6  -1   9  -1  11  -1
M  END
>  <UniqueID>  (10) 
10

>  <SMILES>  (10) 
C=c1c(=Cc2[n-]c(=O)[n-]c2[O-])cc(C)n1-c1ccc(C(=O)Nc2ccc(CS(C)(=O)=O)cc2)cc1

>  <Energy>  (10) 
128.21797332714897

>  <Genealogy>  (10) 
C=c1c(=Cc2[n-]c(=O)[n-]c2[O-])cc(C)n1-c1ccc(C(=O)Nc2ccc(CS(C)(=O)=O)cc2)cc1 (protonated)
C=c1c(=Cc2[n-]c(=O)[n-]c2[O-])cc(C)n1-c1ccc(C(=O)Nc2ccc(CS(C)(=O)=O)cc2)cc1 (3D coordinates assigned)
C=c1c(=Cc2[n-]c(=O)[n-]c2[O-])cc(C)n1-c1ccc(C(=O)Nc2ccc(CS(C)(=O)=O)cc2)cc1 (optimized conformer: 128.21797332714897 kcal/mol)

>  <smiles>  (10) 
C=c1c(=Cc2[nH]c(=O)[nH]c2O)cc(C)n1-c1ccc(C(=O)Nc2ccc(CS(C)(=O)=O)cc2)cc1

>  <score_type>  (10) 
oracle

>  <origin>  (10) 
adg

>  <m_score__min__energy>  (10) 
-17.050000000000001

>  <m_primary>  (10) 
energy

$$$$
10:0
     RDKit          3D

 57 61  0  0  0  0  0  0  0  0999 V2000
   57.4170   31.9760   42.1620 C   0  0  0  0  0  0  0  0  0  0  0  0
   57.5630   32.1950   43.6030 N   0  0  0  0  0  0  0  0  0  0  0  0
   58.2660   33.3870   44.0930 C   0  0  0  0  0  0  0  0  0  0  0  0
   57.8700   33.6710   45.5470 C   0  0  0  0  0  0  0  0  0  0  0  0
   59.0120   33.4520   46.4440 N   0  0  0  0  0  0  0  0  0  0  0  0
   58.7890   33.0600   47.7340 C   0  0  0  0  0  0  0  0  0  0  0  0
   59.8530   32.8710   48.6180 C   0  0  0  0  0  0  0  0  0  0  0  0
   61.1630   33.0770   48.1740 C   0  0  0  0  0  0  0  0  0  0  0  0
   62.2540   32.8920   49.0380 C   0  0  0  0  0  0  0  0  0  0  0  0
   63.5600   33.1010   48.5760 C   0  0  0  0  0  0  0  0  0  0  0  0
   64.6330   32.9140   49.4430 O   0  0  0  0  0  0  0  0  0  0  0  0
   63.7780   33.4950   47.2490 C   0  0  0  0  0  0  0  0  0  0  0  0
   62.6970   33.6860   46.3830 C   0  0  0  0  0  0  0  0  0  0  0  0
   61.3870   33.4790   46.8380 C   0  0  0  0  0  0  0  0  0  0  0  0
   60.2860   33.6680   45.9900 C   0  0  0  0  0  0  0  0  0  0  0  0
   56.9540   31.2710   44.5260 C   0  0  0  0  0  0  0  0  0  0  0  0
   55.7940   30.8320   44.3010 O   0  0  0  0  0  0  0  0  0  0  0  0
   57.6530   30.8870   45.7200 N   0  0  0  0  0  0  0  0  0  0  0  0
   58.2850   29.5910   45.9950 C   0  0  1  0  0  0  0  0  0  0  0  0
   58.6010   29.4350   47.5090 C   0  0  0  0  0  0  0  0  0  0  0  0
   59.2260   28.0460   47.7720 C   0  0  2  0  0  0  0  0  0  0  0  0
   60.5290   27.9030   46.9530 C   0  0  0  0  0  0  0  0  0  0  0  0
   60.2140   28.0400   45.4450 C   0  0  1  0  0  0  0  0  0  0  0  0
   59.2160   26.9380   45.0270 C   0  0  0  0  0  0  0  0  0  0  0  0
   57.9140   27.0840   45.8440 C   0  0  1  0  0  0  0  0  0  0  0  0
   58.2290   26.9450   47.3490 C   0  0  0  0  0  0  0  0  0  0  0  0
   57.2950   28.4730   45.5770 C   0  0  0  0  0  0  0  0  0  0  0  0
   59.5930   29.4280   45.1720 C   0  0  0  0  0  0  0  0  0  0  0  0
   56.8145   31.0723   41.9876 H   0  0  0  0  0  0  0  0  0  0  0  0
   56.9161   32.8438   41.7081 H   0  0  0  0  0  0  0  0  0  0  0  0
   58.4107   31.8474   41.7081 H   0  0  0  0  0  0  0  0  0  0  0  0
   59.3515   33.2177   44.0379 H   0  0  0  0  0  0  0  0  0  0  0  0
   57.9900   34.2500   43.4692 H   0  0  0  0  0  0  0  0  0  0  0  0
   57.5368   34.7157   45.6338 H   0  0  0  0  0  0  0  0  0  0  0  0
   57.0567   32.9881   45.8338 H   0  0  0  0  0  0  0  0  0  0  0  0
   57.7586   32.8913   48.0801 H   0  0  0  0  0  0  0  0  0  0  0  0
   59.6622   32.5622   49.6564 H   0  0  0  0  0  0  0  0  0  0  0  0
   62.0831   32.5824   50.0796 H   0  0  0  0  0  0  0  0  0  0  0  0
   65.5630   32.7000   49.0980 H   0  0  0  0  0  0  0  0  0  0  0  0
   64.8044   33.6548   46.8869 H   0  0  0  0  0  0  0  0  0  0  0  0
   62.8745   33.9990   45.3435 H   0  0  0  0  0  0  0  0  0  0  0  0
   60.4471   33.9925   44.9514 H   0  0  0  0  0  0  0  0  0  0  0  0
   57.6710   29.5328   48.0883 H   0  0  0  0  0  0  0  0  0  0  0  0
   59.3115   30.2172   47.8146 H   0  0  0  0  0  0  0  0  0  0  0  0
   59.4536   27.9435   48.8433 H   0  0  0  0  0  0  0  0  0  0  0  0
   60.9753   26.9162   47.1452 H   0  0  0  0  0  0  0  0  0  0  0  0
   61.2352   28.6920   47.2510 H   0  0  0  0  0  0  0  0  0  0  0  0
   61.1425   27.9341   44.8648 H   0  0  0  0  0  0  0  0  0  0  0  0
   59.6599   25.9499   45.2184 H   0  0  0  0  0  0  0  0  0  0  0  0
   58.9888   27.0372   43.9553 H   0  0  0  0  0  0  0  0  0  0  0  0
   57.2042   26.2988   45.5445 H   0  0  0  0  0  0  0  0  0  0  0  0
   58.6718   25.9565   47.5408 H   0  0  0  0  0  0  0  0  0  0  0  0
   57.3000   27.0503   47.9285 H   0  0  0  0  0  0  0  0  0  0  0  0
   56.3663   28.5745   46.1578 H   0  0  0  0  0  0  0  0  0  0  0  0
   57.0790   28.5687   44.5027 H   0  0  0  0  0  0  0  0  0  0  0  0
   60.3079   30.2116   45.4636 H   0  0  0  0  0  0  0  0  0  0  0  0
   59.3612   29.5176   44.1004 H   0  0  0  0  0  0  0  0  0  0  0  0
  1  2  1  0
  2  3  1  0
  3  4  1  0
  4  5  1  0
  5  6  2  0
  6  7  1  0
  7  8  2  0
  8  9  1  0
  9 10  2  0
 10 11  1  0
 10 12  1  0
 12 13  2  0
 13 14  1  0
 14 15  2  0
  2 16  1  0
 16 17  2  0
 16 18  1  0
 19 18  1  1
 19 20  1  0
 20 21  1  0
 21 22  1  0
 22 23  1  0
 23 24  1  0
 24 25  1  0
 25 26  1  0
 25 27  1  0
 23 28  1  0
 15  5  1  0
 27 19  1  0
 14  8  1  0
 28 19  1  0
 26 21  1  0
  1 29  1  0
  1 30  1  0
  1 31  1  0
  3 32  1  0
  3 33  1  0
  4 34  1  0
  4 35  1  0
  6 36  1  0
  7 37  1  0
  9 38  1  0
 11 39  1  0
 12 40  1  0
 13 41  1  0
 15 42  1  0
 20 43  1  0
 20 44  1  0
 21 45  1  1
 22 46  1  0
 22 47  1  0
 23 48  1  6
 24 49  1  0
 24 50  1  0
 25 51  1  6
 26 52  1  0
 26 53  1  0
 27 54  1  0
 27 55  1  0
 28 56  1  0
 28 57  1  0
M  CHG  2   5   1  18  -1
M  END
>  <UniqueID>  (11) 
11

>  <SMILES>  (11) 
CN(CC[n+]1ccc2cc(O)ccc2c1)C(=O)[N-]C12CC3CC(CC(C3)C1)C2

>  <Energy>  (11) 
56.761459927704884

>  <Genealogy>  (11) 
CN(CC[n+]1ccc2cc(O)ccc2c1)C(=O)[N-]C12CC3CC(CC(C3)C1)C2 (protonated)
CN(CC[n+]1ccc2cc(O)ccc2c1)C(=O)[N-]C12CC3CC(CC(C3)C1)C2 (3D coordinates assigned)
CN(CC[n+]1ccc2cc(O)ccc2c1)C(=O)[N-]C12CC3CC(CC(C3)C1)C2 (nonaromatic ring conformer: 56.761459927704884 kcal/mol)

>  <smiles>  (11) 
CN(CC[n+]1ccc2cc(O)ccc2c1)C(=O)NC12CC3CC(CC(C3)C1)C2

>  <score_type>  (11) 
oracle

>  <origin>  (11) 
adg

>  <m_score__min__energy>  (11) 
-8.8000000000000007

>  <m_primary>  (11) 
energy

$$$$
11:0
     RDKit          3D

 57 59  0  0  0  0  0  0  0  0999 V2000
   50.8110   24.5800   44.2440 C   0  0  0  0  0  0  0  0  0  0  0  0
   51.9160   24.4700   45.1870 N   0  0  0  0  0  0  0  0  0  0  0  0
   52.9010   23.4330   45.1500 C   0  0  0  0  0  0  0  0  0  0  0  0
   52.5250   22.2350   45.2520 O   0  0  0  0  0  0  0  0  0  0  0  0
   54.2950   23.7420   45.0000 N   0  0  0  0  0  0  0  0  0  0  0  0
   55.3180   22.7010   44.9600 C   0  0  0  0  0  0  0  0  0  0  0  0
   56.1700   22.6980   46.2410 C   0  0  0  0  0  0  0  0  0  0  0  0
   57.3590   23.6780   46.1860 C   0  0  0  0  0  0  0  0  0  0  0  0
   57.2190   24.8950   47.1200 C   0  0  0  0  0  0  0  0  0  0  0  0
   57.4250   26.1670   46.3920 N   0  0  0  0  0  0  0  0  0  0  0  0
   58.6900   26.6430   46.1520 C   0  0  0  0  0  0  0  0  0  0  0  0
   59.7050   26.0430   46.5960 O   0  0  0  0  0  0  0  0  0  0  0  0
   58.8750   27.8100   45.4120 C   0  0  0  0  0  0  0  0  0  0  0  0
   57.7560   28.4830   44.9170 C   0  0  0  0  0  0  0  0  0  0  0  0
   57.8910   29.6760   44.1300 N   0  0  0  0  0  0  0  0  0  0  0  0
   58.1560   30.9760   44.6850 C   0  0  0  0  0  0  0  0  0  0  0  0
   57.7230   32.1180   44.0050 C   0  0  0  0  0  0  0  0  0  0  0  0
   57.9710   33.3890   44.5300 C   0  0  0  0  0  0  0  0  0  0  0  0
   58.6690   33.5370   45.7390 C   0  0  0  0  0  0  0  0  0  0  0  0
   58.9460   34.9080   46.2860 C   0  0  0  0  0  0  0  0  0  0  0  0
   59.1580   32.3980   46.4030 C   0  0  0  0  0  0  0  0  0  0  0  0
   59.8690   32.5480   47.6040 O   0  0  0  0  0  0  0  0  0  0  0  0
   61.2530   32.7540   47.6990 C   0  0  0  0  0  0  0  0  0  0  0  0
   62.0280   32.1390   48.7030 C   0  0  0  0  0  0  0  0  0  0  0  0
   63.4110   32.3490   48.7560 C   0  0  0  0  0  0  0  0  0  0  0  0
   64.0320   33.1690   47.8090 C   0  0  0  0  0  0  0  0  0  0  0  0
   63.2690   33.7710   46.8020 C   0  0  0  0  0  0  0  0  0  0  0  0
   61.8850   33.5580   46.7430 C   0  0  0  0  0  0  0  0  0  0  0  0
   58.8890   31.1230   45.8750 C   0  0  0  0  0  0  0  0  0  0  0  0
   56.5200   28.0200   45.2210 N   0  0  0  0  0  0  0  0  0  0  0  0
   56.3420   26.8850   45.9440 C   0  0  0  0  0  0  0  0  0  0  0  0
   55.1670   26.5040   46.1950 O   0  0  0  0  0  0  0  0  0  0  0  0
   49.8649   24.6742   44.7972 H   0  0  0  0  0  0  0  0  0  0  0  0
   50.9559   25.4682   43.6114 H   0  0  0  0  0  0  0  0  0  0  0  0
   50.7779   23.6807   43.6114 H   0  0  0  0  0  0  0  0  0  0  0  0
   54.6040   24.7320   45.1100 H   0  0  0  0  0  0  0  0  0  0  0  0
   54.8277   21.7220   44.8546 H   0  0  0  0  0  0  0  0  0  0  0  0
   55.9808   22.9012   44.1052 H   0  0  0  0  0  0  0  0  0  0  0  0
   55.5268   22.9770   47.0886 H   0  0  0  0  0  0  0  0  0  0  0  0
   56.5871   21.6862   46.3520 H   0  0  0  0  0  0  0  0  0  0  0  0
   58.2705   23.1304   46.4675 H   0  0  0  0  0  0  0  0  0  0  0  0
   57.3972   24.0708   45.1592 H   0  0  0  0  0  0  0  0  0  0  0  0
   56.2103   24.8941   47.5587 H   0  0  0  0  0  0  0  0  0  0  0  0
   57.9879   24.8182   47.9028 H   0  0  0  0  0  0  0  0  0  0  0  0
   59.8875   28.1950   45.2209 H   0  0  0  0  0  0  0  0  0  0  0  0
   57.8640   29.5790   43.0910 H   0  0  0  0  0  0  0  0  0  0  0  0
   57.1842   32.0156   43.0515 H   0  0  0  0  0  0  0  0  0  0  0  0
   57.6166   34.2805   43.9918 H   0  0  0  0  0  0  0  0  0  0  0  0
   58.9388   34.8725   47.3854 H   0  0  0  0  0  0  0  0  0  0  0  0
   59.9314   35.2500   45.9366 H   0  0  0  0  0  0  0  0  0  0  0  0
   58.1707   35.6057   45.9366 H   0  0  0  0  0  0  0  0  0  0  0  0
   61.5438   31.4910   49.4484 H   0  0  0  0  0  0  0  0  0  0  0  0
   64.0099   31.8683   49.5436 H   0  0  0  0  0  0  0  0  0  0  0  0
   65.1176   33.3405   47.8553 H   0  0  0  0  0  0  0  0  0  0  0  0
   63.7571   34.4135   46.0544 H   0  0  0  0  0  0  0  0  0  0  0  0
   61.2928   34.0246   45.9420 H   0  0  0  0  0  0  0  0  0  0  0  0
   59.2570   30.2292   46.4000 H   0  0  0  0  0  0  0  0  0  0  0  0
  1  2  1  0
  2  3  1  0
  3  4  2  0
  3  5  1  0
  5  6  1  0
  6  7  1  0
  7  8  1  0
  8  9  1  0
  9 10  1  0
 10 11  1  0
 11 12  2  0
 11 13  1  0
 13 14  2  0
 14 15  1  0
 15 16  1  0
 16 17  2  0
 17 18  1  0
 18 19  2  0
 19 20  1  0
 19 21  1  0
 21 22  1  0
 22 23  1  0
 23 24  2  0
 24 25  1  0
 25 26  2  0
 26 27  1  0
 27 28  2  0
 21 29  2  0
 14 30  1  0
 30 31  1  0
 31 32  2  0
 31 10  1  0
 29 16  1  0
 28 23  1  0
  1 33  1  0
  1 34  1  0
  1 35  1  0
  5 36  1  0
  6 37  1  0
  6 38  1  0
  7 39  1  0
  7 40  1  0
  8 41  1  0
  8 42  1  0
  9 43  1  0
  9 44  1  0
 13 45  1  0
 15 46  1  0
 17 47  1  0
 18 48  1  0
 20 49  1  0
 20 50  1  0
 20 51  1  0
 24 52  1  0
 25 53  1  0
 26 54  1  0
 27 55  1  0
 28 56  1  0
 29 57  1  0
M  CHG  2   2  -1  30  -1
M  END
>  <UniqueID>  (12) 
12

>  <SMILES>  (12) 
C[N-]C(=O)NCCCCn1c(=O)cc(Nc2ccc(C)c(Oc3ccccc3)c2)[n-]c1=O

>  <Energy>  (12) 
67.45646026495882

>  <Genealogy>  (12) 
C[N-]C(=O)NCCCCn1c(=O)cc(Nc2ccc(C)c(Oc3ccccc3)c2)[n-]c1=O (protonated)
C[N-]C(=O)NCCCCn1c(=O)cc(Nc2ccc(C)c(Oc3ccccc3)c2)[n-]c1=O (3D coordinates assigned)
C[N-]C(=O)NCCCCn1c(=O)cc(Nc2ccc(C)c(Oc3ccccc3)c2)[n-]c1=O (optimized conformer: 67.45646026495882 kcal/mol)

>  <smiles>  (12) 
CNC(=O)NCCCCn1c(=O)cc(Nc2ccc(C)c(Oc3ccccc3)c2)[nH]c1=O

>  <score_type>  (12) 
oracle

>  <origin>  (12) 
adg

>  <m_score__min__energy>  (12) 
-13.039999999999999

>  <m_primary>  (12) 
energy

$$$$
12:0
     RDKit          3D

 39 41  0  0  0  0  0  0  0  0999 V2000
   58.1390   32.4910   49.7540 N   0  0  0  0  0  0  0  0  0  0  0  0
   59.0610   33.0130   48.3820 S   0  0  0  0  0  0  0  0  0  0  0  0
   59.0150   34.5160   48.2990 O   0  0  0  0  0  0  0  0  0  0  0  0
   60.4940   32.5710   48.5080 O   0  0  0  0  0  0  0  0  0  0  0  0
   58.3510   32.3250   46.9290 C   0  0  0  0  0  0  0  0  0  0  0  0
   57.8640   33.0540   45.8500 C   0  0  0  0  0  0  0  0  0  0  0  0
   57.3920   32.2450   44.8100 C   0  0  0  0  0  0  0  0  0  0  0  0
   57.5120   30.8870   45.0810 C   0  0  0  0  0  0  0  0  0  0  0  0
   57.1550   29.5590   43.9310 S   0  0  0  0  0  0  0  0  0  0  0  0
   57.7930   28.2980   45.0470 C   0  0  0  0  0  0  0  0  0  0  0  0
   59.1780   28.1090   45.1960 C   0  0  0  0  0  0  0  0  0  0  0  0
   60.0690   28.9070   44.4900 O   0  0  0  0  0  0  0  0  0  0  0  0
   59.6550   27.1240   46.0730 C   0  0  0  0  0  0  0  0  0  0  0  0
   58.7640   26.3260   46.7850 C   0  0  0  0  0  0  0  0  0  0  0  0
   57.3780   26.4770   46.6050 C   0  0  0  0  0  0  0  0  0  0  0  0
   56.4330   25.5930   47.2300 N   0  0  0  0  0  0  0  0  0  0  0  0
   55.3570   24.5200   46.3930 S   0  0  0  0  0  0  0  0  0  0  0  0
   54.6590   23.6470   47.3790 O   0  0  0  0  0  0  0  0  0  0  0  0
   54.3440   25.3460   45.6610 O   0  0  0  0  0  0  0  0  0  0  0  0
   56.2250   23.5420   45.2190 C   0  0  0  0  0  0  0  0  0  0  0  0
   55.5480   22.9670   44.1380 C   0  0  0  0  0  0  0  0  0  0  0  0
   56.2350   22.1410   43.2420 C   0  0  0  0  0  0  0  0  0  0  0  0
   57.5960   21.8950   43.4140 C   0  0  0  0  0  0  0  0  0  0  0  0
   58.2770   22.4670   44.4900 C   0  0  0  0  0  0  0  0  0  0  0  0
   59.9850   22.1470   44.7090 Cl  0  0  0  0  0  0  0  0  0  0  0  0
   57.5940   23.2940   45.3890 C   0  0  0  0  0  0  0  0  0  0  0  0
   56.8970   27.4810   45.7550 C   0  0  0  0  0  0  0  0  0  0  0  0
   55.5230   27.6410   45.5850 O   0  0  0  0  0  0  0  0  0  0  0  0
   58.1930   30.6820   46.6060 S   0  0  0  0  0  0  0  0  0  0  0  0
   57.1270   32.7150   49.5710 H   0  0  0  0  0  0  0  0  0  0  0  0
   57.8510   34.1534   45.8170 H   0  0  0  0  0  0  0  0  0  0  0  0
   56.9699   32.6426   43.8752 H   0  0  0  0  0  0  0  0  0  0  0  0
   59.7450   29.6650   43.9020 H   0  0  0  0  0  0  0  0  0  0  0  0
   60.7384   26.9814   46.1988 H   0  0  0  0  0  0  0  0  0  0  0  0
   59.1460   25.5742   47.4913 H   0  0  0  0  0  0  0  0  0  0  0  0
   54.4757   23.1644   43.9926 H   0  0  0  0  0  0  0  0  0  0  0  0
   55.6985   21.6835   42.3977 H   0  0  0  0  0  0  0  0  0  0  0  0
   58.1331   21.2506   42.7025 H   0  0  0  0  0  0  0  0  0  0  0  0
   58.1334   23.7509   46.2318 H   0  0  0  0  0  0  0  0  0  0  0  0
  1  2  1  0
  2  3  2  0
  2  4  2  0
  2  5  1  0
  5  6  2  0
  6  7  1  0
  7  8  2  0
  8  9  1  0
  9 10  1  0
 10 11  2  0
 11 12  1  0
 11 13  1  0
 13 14  2  0
 14 15  1  0
 15 16  1  0
 16 17  1  0
 17 18  2  0
 17 19  2  0
 17 20  1  0
 20 21  2  0
 21 22  1  0
 22 23  2  0
 23 24  1  0
 24 25  1  0
 24 26  2  0
 15 27  2  0
 27 28  1  0
  8 29  1  0
 29  5  1  0
 27 10  1  0
 26 20  1  0
  1 30  1  0
  6 31  1  0
  7 32  1  0
 12 33  1  0
 13 34  1  0
 14 35  1  0
 21 36  1  0
 22 37  1  0
 23 38  1  0
 26 39  1  0
M  CHG  3   1  -1  16  -1  28  -1
M  END
>  <UniqueID>  (13) 
13

>  <SMILES>  (13) 
[NH-]S(=O)(=O)c1ccc(Sc2c(O)ccc([N-]S(=O)(=O)c3cccc(Cl)c3)c2[O-])s1

>  <Energy>  (13) 
69.35183092278041

>  <Genealogy>  (13) 
[NH-]S(=O)(=O)c1ccc(Sc2c(O)ccc([N-]S(=O)(=O)c3cccc(Cl)c3)c2[O-])s1 (protonated)
[NH-]S(=O)(=O)c1ccc(Sc2c(O)ccc([N-]S(=O)(=O)c3cccc(Cl)c3)c2[O-])s1 (3D coordinates assigned)
[NH-]S(=O)(=O)c1ccc(Sc2c(O)ccc([N-]S(=O)(=O)c3cccc(Cl)c3)c2[O-])s1 (optimized conformer: 69.35183092278041 kcal/mol)

>  <smiles>  (13) 
NS(=O)(=O)c1ccc(Sc2c(O)ccc(NS(=O)(=O)c3cccc(Cl)c3)c2O)s1

>  <score_type>  (13) 
oracle

>  <origin>  (13) 
adg

>  <m_score__min__energy>  (13) 
-15.27

>  <m_primary>  (13) 
energy

$$$$
13:0
     RDKit          3D

 49 50  0  0  0  0  0  0  0  0999 V2000
   55.5060   23.5700   43.9970 C   0  0  0  0  0  0  0  0  0  0  0  0
   54.7130   23.5750   45.2610 C   0  0  0  0  0  0  0  0  0  0  0  0
   53.5380   23.1200   45.2620 O   0  0  0  0  0  0  0  0  0  0  0  0
   55.3090   24.0550   46.4700 N   0  0  0  0  0  0  0  0  0  0  0  0
   56.6500   23.6870   46.9150 C   0  0  0  0  0  0  0  0  0  0  0  0
   57.6060   24.8690   46.7810 C   0  0  0  0  0  0  0  0  0  0  0  0
   57.2030   25.6960   45.6500 N   0  0  0  0  0  0  0  0  0  0  0  0
   56.3850   26.8670   45.7650 C   0  0  0  0  0  0  0  0  0  0  0  0
   55.1610   26.7330   46.0340 O   0  0  0  0  0  0  0  0  0  0  0  0
   56.9400   28.2200   45.5950 C   0  0  0  0  0  0  0  0  0  0  0  0
   58.2130   28.5150   46.1050 C   0  0  0  0  0  0  0  0  0  0  0  0
   58.7590   29.7960   45.9500 C   0  0  0  0  0  0  0  0  0  0  0  0
   60.3640   30.1430   46.5890 S   0  0  0  0  0  0  0  0  0  0  0  0
   60.4800   29.5260   47.9550 O   0  0  0  0  0  0  0  0  0  0  0  0
   61.4150   29.5420   45.6980 O   0  0  0  0  0  0  0  0  0  0  0  0
   60.5910   31.8720   46.6980 N   0  0  0  0  0  0  0  0  0  0  0  0
   61.9570   32.2200   47.1450 C   0  0  0  0  0  0  0  0  0  0  0  0
   62.0230   32.9210   48.5260 C   0  0  2  0  0  0  0  0  0  0  0  0
   61.9630   31.9340   49.6970 C   0  0  0  0  0  0  0  0  0  0  0  0
   61.0930   33.9790   48.7200 O   0  0  0  0  0  0  0  0  0  0  0  0
   59.8960   33.8980   47.9590 C   0  0  1  0  0  0  0  0  0  0  0  0
   59.9550   34.8780   46.7820 C   0  0  0  0  0  0  0  0  0  0  0  0
   59.5220   32.4750   47.5060 C   0  0  0  0  0  0  0  0  0  0  0  0
   58.0190   30.7920   45.2970 C   0  0  0  0  0  0  0  0  0  0  0  0
   56.7430   30.5080   44.8050 C   0  0  0  0  0  0  0  0  0  0  0  0
   56.1970   29.2300   44.9580 C   0  0  0  0  0  0  0  0  0  0  0  0
   54.9100   28.9780   44.4940 O   0  0  0  0  0  0  0  0  0  0  0  0
   56.5794   23.5632   44.2376 H   0  0  0  0  0  0  0  0  0  0  0  0
   55.2560   22.6734   43.4108 H   0  0  0  0  0  0  0  0  0  0  0  0
   55.2673   24.4697   43.4108 H   0  0  0  0  0  0  0  0  0  0  0  0
   56.6077   23.3744   47.9688 H   0  0  0  0  0  0  0  0  0  0  0  0
   57.0172   22.8621   46.2868 H   0  0  0  0  0  0  0  0  0  0  0  0
   57.5778   25.4693   47.7023 H   0  0  0  0  0  0  0  0  0  0  0  0
   58.6278   24.4965   46.6164 H   0  0  0  0  0  0  0  0  0  0  0  0
   58.7859   27.7362   46.6296 H   0  0  0  0  0  0  0  0  0  0  0  0
   62.5464   31.2930   47.2019 H   0  0  0  0  0  0  0  0  0  0  0  0
   62.3528   32.9374   46.4111 H   0  0  0  0  0  0  0  0  0  0  0  0
   63.0151   33.3959   48.5131 H   0  0  0  0  0  0  0  0  0  0  0  0
   61.9967   32.4888   50.6462 H   0  0  0  0  0  0  0  0  0  0  0  0
   61.0281   31.3569   49.6426 H   0  0  0  0  0  0  0  0  0  0  0  0
   62.8211   31.2479   49.6426 H   0  0  0  0  0  0  0  0  0  0  0  0
   59.0780   34.1902   48.6340 H   0  0  0  0  0  0  0  0  0  0  0  0
   60.0170   35.9074   47.1647 H   0  0  0  0  0  0  0  0  0  0  0  0
   60.8417   34.6610   46.1683 H   0  0  0  0  0  0  0  0  0  0  0  0
   59.0487   34.7689   46.1683 H   0  0  0  0  0  0  0  0  0  0  0  0
   59.3491   31.8502   48.3947 H   0  0  0  0  0  0  0  0  0  0  0  0
   58.6134   32.5354   46.8890 H   0  0  0  0  0  0  0  0  0  0  0  0
   58.4441   31.7988   45.1720 H   0  0  0  0  0  0  0  0  0  0  0  0
   56.1653   31.2930   44.2951 H   0  0  0  0  0  0  0  0  0  0  0  0
  1  2  1  0
  2  3  2  0
  2  4  1  0
  4  5  1  0
  5  6  1  0
  6  7  1  0
  7  8  1  0
  8  9  2  0
  8 10  1  0
 10 11  2  0
 11 12  1  0
 12 13  1  0
 13 14  2  0
 13 15  2  0
 13 16  1  0
 16 17  1  0
 17 18  1  0
 18 19  1  0
 18 20  1  0
 20 21  1  0
 21 22  1  0
 21 23  1  0
 12 24  2  0
 24 25  1  0
 25 26  2  0
 26 27  1  0
 26 10  1  0
 23 16  1  0
  1 28  1  0
  1 29  1  0
  1 30  1  0
  5 31  1  0
  5 32  1  0
  6 33  1  0
  6 34  1  0
 11 35  1  0
 17 36  1  0
 17 37  1  0
 18 38  1  6
 19 39  1  0
 19 40  1  0
 19 41  1  0
 21 42  1  1
 22 43  1  0
 22 44  1  0
 22 45  1  0
 23 46  1  0
 23 47  1  0
 24 48  1  0
 25 49  1  0
M  CHG  3   4  -1   7  -1  27  -1
M  END
>  <UniqueID>  (14) 
14

>  <SMILES>  (14) 
CC(=O)[N-]CC[N-]C(=O)c1cc(S(=O)(=O)N2C[C@H](C)O[C@@H](C)C2)ccc1[O-]

>  <Energy>  (14) 
59.32685307787764

>  <Genealogy>  (14) 
CC(=O)[N-]CC[N-]C(=O)c1cc(S(=O)(=O)N2CC(C)OC(C)C2)ccc1[O-] (protonated)
CC(=O)[N-]CC[N-]C(=O)c1cc(S(=O)(=O)N2C[C@H](C)O[C@@H](C)C2)ccc1[O-] (chirality)
CC(=O)[N-]CC[N-]C(=O)c1cc(S(=O)(=O)N2C[C@H](C)O[C@@H](C)C2)ccc1[O-] (3D coordinates assigned)
CC(=O)[N-]CC[N-]C(=O)c1cc(S(=O)(=O)N2C[C@H](C)O[C@@H](C)C2)ccc1[O-] (nonaromatic ring conformer: 59.32685307787764 kcal/mol)

>  <smiles>  (14) 
CC(=O)NCCNC(=O)c1cc(S(=O)(=O)N2CC(C)OC(C)C2)ccc1O

>  <score_type>  (14) 
oracle

>  <origin>  (14) 
adg

>  <m_score__min__energy>  (14) 
-14.81

>  <m_primary>  (14) 
energy

$$$$
14:0
     RDKit          3D

 57 59  0  0  0  0  0  0  0  0999 V2000
   56.6440   30.6200   43.1660 C   0  0  0  0  0  0  0  0  0  0  0  0
   57.8200   31.5040   43.5740 C   0  0  0  0  0  0  0  0  0  0  0  0
   58.2530   31.1910   44.9460 N   0  0  0  0  0  0  0  0  0  0  0  0
   57.7600   32.0410   46.0430 C   0  0  0  0  0  0  0  0  0  0  0  0
   57.7920   33.5010   45.6660 C   0  0  0  0  0  0  0  0  0  0  0  0
   56.9500   33.9600   44.8500 O   0  0  0  0  0  0  0  0  0  0  0  0
   58.7090   34.4080   46.2920 N   0  0  0  0  0  0  0  0  0  0  0  0
   59.9680   34.0480   46.8750 C   0  0  0  0  0  0  0  0  0  0  0  0
   61.1390   33.9990   46.1000 C   0  0  0  0  0  0  0  0  0  0  0  0
   62.3640   33.6810   46.6950 C   0  0  0  0  0  0  0  0  0  0  0  0
   62.4320   33.4310   48.0680 C   0  0  0  0  0  0  0  0  0  0  0  0
   61.2760   33.5130   48.8570 C   0  0  0  0  0  0  0  0  0  0  0  0
   61.3700   33.2210   50.5970 S   0  0  0  0  0  0  0  0  0  0  0  0
   61.8830   31.8270   50.8380 O   0  0  0  0  0  0  0  0  0  0  0  0
   62.3500   34.1890   51.2040 O   0  0  0  0  0  0  0  0  0  0  0  0
   59.8180   33.4140   51.3750 N   0  0  0  0  0  0  0  0  0  0  0  0
   59.9920   33.8190   52.7800 C   0  0  0  0  0  0  0  0  0  0  0  0
   58.6440   33.7760   53.5290 C   0  0  0  0  0  0  0  0  0  0  0  0
   57.5640   33.6140   52.6290 O   0  0  0  0  0  0  0  0  0  0  0  0
   57.6670   32.3610   51.9720 C   0  0  0  0  0  0  0  0  0  0  0  0
   59.0420   32.1670   51.2980 C   0  0  0  0  0  0  0  0  0  0  0  0
   60.0470   33.8310   48.2570 C   0  0  0  0  0  0  0  0  0  0  0  0
   59.1230   30.0700   45.2400 C   0  0  0  0  0  0  0  0  0  0  0  0
   59.9310   30.1530   46.2060 O   0  0  0  0  0  0  0  0  0  0  0  0
   59.0350   28.7730   44.4700 C   0  0  0  0  0  0  0  0  0  0  0  0
   58.2890   27.7050   45.2320 C   0  0  0  0  0  0  0  0  0  0  0  0
   58.9930   26.7320   45.9600 C   0  0  0  0  0  0  0  0  0  0  0  0
   58.3020   25.7560   46.6880 C   0  0  0  0  0  0  0  0  0  0  0  0
   56.9040   25.7490   46.7000 C   0  0  0  0  0  0  0  0  0  0  0  0
   56.1950   26.7200   45.9850 C   0  0  0  0  0  0  0  0  0  0  0  0
   54.8060   26.7140   45.9990 O   0  0  0  0  0  0  0  0  0  0  0  0
   56.8830   27.7010   45.2580 C   0  0  0  0  0  0  0  0  0  0  0  0
   56.1400   30.2412   44.0674 H   0  0  0  0  0  0  0  0  0  0  0  0
   55.9327   31.2089   42.5683 H   0  0  0  0  0  0  0  0  0  0  0  0
   57.0120   29.7730   42.5683 H   0  0  0  0  0  0  0  0  0  0  0  0
   58.6581   31.3323   42.8825 H   0  0  0  0  0  0  0  0  0  0  0  0
   57.5027   32.5565   43.5340 H   0  0  0  0  0  0  0  0  0  0  0  0
   56.7244   31.7552   46.2793 H   0  0  0  0  0  0  0  0  0  0  0  0
   58.4145   31.8945   46.9149 H   0  0  0  0  0  0  0  0  0  0  0  0
   61.0920   34.2115   45.0217 H   0  0  0  0  0  0  0  0  0  0  0  0
   63.2753   33.6276   46.0812 H   0  0  0  0  0  0  0  0  0  0  0  0
   63.3949   33.1692   48.5310 H   0  0  0  0  0  0  0  0  0  0  0  0
   60.6992   33.1329   53.2690 H   0  0  0  0  0  0  0  0  0  0  0  0
   60.3796   34.8481   52.8068 H   0  0  0  0  0  0  0  0  0  0  0  0
   58.6525   32.9325   54.2350 H   0  0  0  0  0  0  0  0  0  0  0  0
   58.5120   34.7280   54.0641 H   0  0  0  0  0  0  0  0  0  0  0  0
   57.5188   31.5601   52.7114 H   0  0  0  0  0  0  0  0  0  0  0  0
   56.8981   32.3277   51.1861 H   0  0  0  0  0  0  0  0  0  0  0  0
   59.5902   31.3640   51.8124 H   0  0  0  0  0  0  0  0  0  0  0  0
   58.8927   31.8981   50.2419 H   0  0  0  0  0  0  0  0  0  0  0  0
   59.1409   33.9102   48.8756 H   0  0  0  0  0  0  0  0  0  0  0  0
   58.5128   28.9601   43.5201 H   0  0  0  0  0  0  0  0  0  0  0  0
   60.0600   28.4119   44.3001 H   0  0  0  0  0  0  0  0  0  0  0  0
   60.0930   26.7368   45.9582 H   0  0  0  0  0  0  0  0  0  0  0  0
   58.8599   24.9935   47.2514 H   0  0  0  0  0  0  0  0  0  0  0  0
   56.3622   24.9807   47.2711 H   0  0  0  0  0  0  0  0  0  0  0  0
   56.3218   28.4697   44.7064 H   0  0  0  0  0  0  0  0  0  0  0  0
  1  2  1  0
  2  3  1  0
  3  4  1  0
  4  5  1  0
  5  6  2  0
  5  7  1  0
  7  8  1  0
  8  9  2  0
  9 10  1  0
 10 11  2  0
 11 12  1  0
 12 13  1  0
 13 14  2  0
 13 15  2  0
 13 16  1  0
 16 17  1  0
 17 18  1  0
 18 19  1  0
 19 20  1  0
 20 21  1  0
 12 22  2  0
  3 23  1  0
 23 24  2  0
 23 25  1  0
 25 26  1  0
 26 27  2  0
 27 28  1  0
 28 29  2  0
 29 30  1  0
 30 31  1  0
 30 32  2  0
 22  8  1  0
 32 26  1  0
 21 16  1  0
  1 33  1  0
  1 34  1  0
  1 35  1  0
  2 36  1  0
  2 37  1  0
  4 38  1  0
  4 39  1  0
  9 40  1  0
 10 41  1  0
 11 42  1  0
 17 43  1  0
 17 44  1  0
 18 45  1  0
 18 46  1  0
 20 47  1  0
 20 48  1  0
 21 49  1  0
 21 50  1  0
 22 51  1  0
 25 52  1  0
 25 53  1  0
 27 54  1  0
 28 55  1  0
 29 56  1  0
 32 57  1  0
M  CHG  2   7  -1  31  -1
M  END
>  <UniqueID>  (15) 
15

>  <SMILES>  (15) 
CCN(CC(=O)[N-]c1cccc(S(=O)(=O)N2CCOCC2)c1)C(=O)Cc1cccc([O-])c1

>  <Energy>  (15) 
67.96911309820526

>  <Genealogy>  (15) 
CCN(CC(=O)[N-]c1cccc(S(=O)(=O)N2CCOCC2)c1)C(=O)Cc1cccc([O-])c1 (protonated)
CCN(CC(=O)[N-]c1cccc(S(=O)(=O)N2CCOCC2)c1)C(=O)Cc1cccc([O-])c1 (3D coordinates assigned)
CCN(CC(=O)[N-]c1cccc(S(=O)(=O)N2CCOCC2)c1)C(=O)Cc1cccc([O-])c1 (nonaromatic ring conformer: 67.96911309820526 kcal/mol)

>  <smiles>  (15) 
CCN(CC(=O)Nc1cccc(S(=O)(=O)N2CCOCC2)c1)C(=O)Cc1cccc(O)c1

>  <score_type>  (15) 
oracle

>  <origin>  (15) 
adg

>  <m_score__min__energy>  (15) 
-14.300000000000001

>  <m_primary>  (15) 
energy

$$$$
15:0
     RDKit          3D

 41 42  0  0  0  0  0  0  0  0999 V2000
   57.0820   31.1910   44.2640 C   0  0  0  0  0  0  0  0  0  0  0  0
   58.1100   32.3220   44.2320 C   0  0  0  0  0  0  0  0  0  0  0  0
   57.8820   33.3620   45.3540 C   0  0  2  0  0  0  0  0  0  0  0  0
   56.9250   34.4810   44.9120 C   0  0  0  0  0  0  0  0  0  0  0  0
   59.2100   33.9160   45.9250 C   0  0  0  0  0  0  0  0  0  0  0  0
   59.8620   33.0490   47.3560 S   0  0  0  0  0  0  0  0  0  0  0  0
   60.7420   34.0010   48.1170 O   0  0  0  0  0  0  0  0  0  0  0  0
   58.7430   32.5900   48.2460 O   0  0  0  0  0  0  0  0  0  0  0  0
   60.8100   31.6900   46.8450 N   0  0  0  0  0  0  0  0  0  0  0  0
   60.4060   30.3180   46.9330 C   0  0  0  0  0  0  0  0  0  0  0  0
   60.7180   29.6010   48.0940 C   0  0  0  0  0  0  0  0  0  0  0  0
   60.3330   28.2650   48.2250 C   0  0  0  0  0  0  0  0  0  0  0  0
   59.6360   27.6310   47.1950 C   0  0  0  0  0  0  0  0  0  0  0  0
   59.3270   28.3310   46.0170 C   0  0  0  0  0  0  0  0  0  0  0  0
   58.5430   27.6600   44.9230 C   0  0  0  0  0  0  0  0  0  0  0  0
   57.3750   26.9240   45.5040 C   0  0  0  0  0  0  0  0  0  0  0  0
   57.4600   25.7140   46.0840 N   0  0  0  0  0  0  0  0  0  0  0  0
   56.1970   25.4860   46.5100 C   0  0  0  0  0  0  0  0  0  0  0  0
   55.8650   24.4310   47.1090 O   0  0  0  0  0  0  0  0  0  0  0  0
   55.3220   26.4790   46.2470 N   0  0  0  0  0  0  0  0  0  0  0  0
   56.0850   27.3850   45.6140 C   0  0  0  0  0  0  0  0  0  0  0  0
   55.6190   28.6120   45.1520 O   0  0  0  0  0  0  0  0  0  0  0  0
   59.7040   29.6780   45.8940 C   0  0  0  0  0  0  0  0  0  0  0  0
   56.8500   30.9358   45.3085 H   0  0  0  0  0  0  0  0  0  0  0  0
   56.1635   31.5158   43.7532 H   0  0  0  0  0  0  0  0  0  0  0  0
   57.4928   30.3076   43.7532 H   0  0  0  0  0  0  0  0  0  0  0  0
   59.1143   31.8893   44.3510 H   0  0  0  0  0  0  0  0  0  0  0  0
   58.0050   32.8418   43.2683 H   0  0  0  0  0  0  0  0  0  0  0  0
   57.3900   32.8306   46.1820 H   0  0  0  0  0  0  0  0  0  0  0  0
   56.5029   34.9745   45.7999 H   0  0  0  0  0  0  0  0  0  0  0  0
   57.4762   35.2183   44.3099 H   0  0  0  0  0  0  0  0  0  0  0  0
   56.1111   34.0508   44.3099 H   0  0  0  0  0  0  0  0  0  0  0  0
   59.9665   33.8696   45.1278 H   0  0  0  0  0  0  0  0  0  0  0  0
   58.9869   34.9370   46.2681 H   0  0  0  0  0  0  0  0  0  0  0  0
   61.2700   30.0930   48.9084 H   0  0  0  0  0  0  0  0  0  0  0  0
   60.5797   27.7106   49.1425 H   0  0  0  0  0  0  0  0  0  0  0  0
   59.3280   26.5808   47.3061 H   0  0  0  0  0  0  0  0  0  0  0  0
   58.1789   28.4210   44.2170 H   0  0  0  0  0  0  0  0  0  0  0  0
   59.1948   26.9451   44.3994 H   0  0  0  0  0  0  0  0  0  0  0  0
   54.7170   28.9650   45.4480 H   0  0  0  0  0  0  0  0  0  0  0  0
   59.4495   30.2361   44.9809 H   0  0  0  0  0  0  0  0  0  0  0  0
  1  2  1  0
  2  3  1  0
  3  4  1  0
  3  5  1  0
  5  6  1  0
  6  7  2  0
  6  8  2  0
  6  9  1  0
  9 10  1  0
 10 11  2  0
 11 12  1  0
 12 13  2  0
 13 14  1  0
 14 15  1  0
 15 16  1  0
 16 17  1  0
 17 18  1  0
 18 19  2  0
 18 20  1  0
 20 21  1  0
 21 22  1  0
 14 23  2  0
 23 10  1  0
 21 16  2  0
  1 24  1  0
  1 25  1  0
  1 26  1  0
  2 27  1  0
  2 28  1  0
  3 29  1  1
  4 30  1  0
  4 31  1  0
  4 32  1  0
  5 33  1  0
  5 34  1  0
 11 35  1  0
 12 36  1  0
 13 37  1  0
 15 38  1  0
 15 39  1  0
 22 40  1  0
 23 41  1  0
M  CHG  3   9  -1  17  -1  20  -1
M  END
>  <UniqueID>  (16) 
16

>  <SMILES>  (16) 
CC[C@H](C)CS(=O)(=O)[N-]c1cccc(Cc2[n-]c(=O)[n-]c2O)c1

>  <Energy>  (16) 
62.53688057613907

>  <Genealogy>  (16) 
CCC(C)CS(=O)(=O)[N-]c1cccc(Cc2[n-]c(=O)[n-]c2O)c1 (protonated)
CC[C@H](C)CS(=O)(=O)[N-]c1cccc(Cc2[n-]c(=O)[n-]c2O)c1 (chirality)
CC[C@H](C)CS(=O)(=O)[N-]c1cccc(Cc2[n-]c(=O)[n-]c2O)c1 (3D coordinates assigned)
CC[C@H](C)CS(=O)(=O)[N-]c1cccc(Cc2[n-]c(=O)[n-]c2O)c1 (optimized conformer: 62.53688057613907 kcal/mol)

>  <smiles>  (16) 
CCC(C)CS(=O)(=O)Nc1cccc(Cc2[nH]c(=O)[nH]c2O)c1

>  <score_type>  (16) 
oracle

>  <origin>  (16) 
adg

>  <m_score__min__energy>  (16) 
-13.49

>  <m_primary>  (16) 
energy

$$$$
16:0
     RDKit          3D

 35 36  0  0  0  0  0  0  0  0999 V2000
   59.6140   34.4680   47.3180 C   0  0  0  0  0  0  0  0  0  0  0  0
   59.1670   34.2010   45.9450 N   0  0  0  0  0  0  0  0  0  0  0  0
   59.2040   35.2750   44.9470 C   0  0  0  0  0  0  0  0  0  0  0  0
   58.6860   32.8930   45.5540 C   0  0  0  0  0  0  0  0  0  0  0  0
   58.8140   31.8480   46.4170 N   0  0  0  0  0  0  0  0  0  0  0  0
   58.3870   30.6000   46.1010 C   0  0  0  0  0  0  0  0  0  0  0  0
   58.5360   29.5760   47.0480 O   0  0  0  0  0  0  0  0  0  0  0  0
   58.6610   28.2100   46.7570 C   0  0  0  0  0  0  0  0  0  0  0  0
   59.9160   27.5870   46.6380 C   0  0  0  0  0  0  0  0  0  0  0  0
   59.9800   26.2210   46.3630 C   0  0  0  0  0  0  0  0  0  0  0  0
   58.8040   25.4840   46.2220 C   0  0  0  0  0  0  0  0  0  0  0  0
   57.5710   26.1280   46.3670 C   0  0  0  0  0  0  0  0  0  0  0  0
   56.0750   25.2270   46.2040 S   0  0  0  0  0  0  0  0  0  0  0  0
   54.7540   26.3200   45.9890 N   0  0  0  0  0  0  0  0  0  0  0  0
   55.8420   24.4110   47.4440 O   0  0  0  0  0  0  0  0  0  0  0  0
   56.1680   24.3020   45.0220 O   0  0  0  0  0  0  0  0  0  0  0  0
   57.5310   27.4630   46.6320 N   0  0  0  0  0  0  0  0  0  0  0  0
   57.7700   30.3800   44.8640 C   0  0  0  0  0  0  0  0  0  0  0  0
   57.6420   31.4550   43.9730 C   0  0  0  0  0  0  0  0  0  0  0  0
   57.0290   31.2910   42.6860 N   0  0  0  0  0  0  0  0  0  0  0  0
   57.3450   31.9760   41.7120 N   0  0  0  0  0  0  0  0  0  0  0  0
   57.6610   32.6590   40.7390 N   0  0  0  0  0  0  0  0  0  0  0  0
   58.1040   32.6840   44.3340 N   0  0  0  0  0  0  0  0  0  0  0  0
   58.8931   34.0374   48.0286 H   0  0  0  0  0  0  0  0  0  0  0  0
   60.6024   34.0122   47.4770 H   0  0  0  0  0  0  0  0  0  0  0  0
   59.6813   35.5544   47.4770 H   0  0  0  0  0  0  0  0  0  0  0  0
   59.2375   36.2488   45.4574 H   0  0  0  0  0  0  0  0  0  0  0  0
   60.0987   35.1599   44.3175 H   0  0  0  0  0  0  0  0  0  0  0  0
   58.3035   35.2218   44.3175 H   0  0  0  0  0  0  0  0  0  0  0  0
   60.8395   28.1719   46.7607 H   0  0  0  0  0  0  0  0  0  0  0  0
   60.9564   25.7256   46.2575 H   0  0  0  0  0  0  0  0  0  0  0  0
   58.8460   24.4076   45.9991 H   0  0  0  0  0  0  0  0  0  0  0  0
   55.1340   27.2860   46.1070 H   0  0  0  0  0  0  0  0  0  0  0  0
   57.3925   29.3822   44.5959 H   0  0  0  0  0  0  0  0  0  0  0  0
   57.9950   33.4650   43.6510 H   0  0  0  0  0  0  0  0  0  0  0  0
  1  2  1  0
  2  3  1  0
  2  4  1  0
  4  5  2  0
  5  6  1  0
  6  7  1  0
  7  8  1  0
  8  9  2  0
  9 10  1  0
 10 11  2  0
 11 12  1  0
 12 13  1  0
 13 14  1  0
 13 15  2  0
 13 16  2  0
 12 17  2  0
  6 18  2  0
 18 19  1  0
 19 20  1  0
 20 21  2  0
 21 22  2  0
 19 23  2  0
 23  4  1  0
 17  8  1  0
  1 24  1  0
  1 25  1  0
  1 26  1  0
  3 27  1  0
  3 28  1  0
  3 29  1  0
  9 30  1  0
 10 31  1  0
 11 32  1  0
 14 33  1  0
 18 34  1  0
 23 35  1  0
M  CHG  4  14  -1  21   1  22  -1  23   1
M  END
>  <UniqueID>  (17) 
17

>  <SMILES>  (17) 
CN(C)c1nc(Oc2cccc(S([NH-])(=O)=O)n2)cc(N=[N+]=[N-])[nH+]1

>  <Energy>  (17) 
41.29890816189568

>  <Genealogy>  (17) 
CN(C)c1nc(Oc2cccc(S([NH-])(=O)=O)n2)cc(N=[N+]=[N-])[nH+]1 (protonated)
CN(C)c1nc(Oc2cccc(S([NH-])(=O)=O)n2)cc(N=[N+]=[N-])[nH+]1 (3D coordinates assigned)
CN(C)c1nc(Oc2cccc(S([NH-])(=O)=O)n2)cc(N=[N+]=[N-])[nH+]1 (optimized conformer: 41.29890816189568 kcal/mol)

>  <smiles>  (17) 
CN(C)c1nc(N=[N+]=[N-])cc(Oc2cccc(S(N)(=O)=O)n2)n1

>  <score_type>  (17) 
oracle

>  <origin>  (17) 
adg

>  <m_score__min__energy>  (17) 
-8.3900000000000006

>  <m_primary>  (17) 
energy

$$$$
17:0
     RDKit          3D

 28 29  0  0  0  0  0  0  0  0999 V2000
   59.2360   33.2110   49.0650 C   0  0  0  0  0  0  0  0  0  0  0  0
   59.2240   33.6120   47.6240 C   0  0  0  0  0  0  0  0  0  0  0  0
   59.6080   34.9030   47.2450 C   0  0  0  0  0  0  0  0  0  0  0  0
   59.6060   35.2450   45.8940 C   0  0  0  0  0  0  0  0  0  0  0  0
   59.2150   34.3080   44.9350 C   0  0  0  0  0  0  0  0  0  0  0  0
   58.8150   33.0190   45.3470 C   0  0  0  0  0  0  0  0  0  0  0  0
   58.4460   32.0850   44.5120 N   0  0  0  0  0  0  0  0  0  0  0  0
   57.4090   31.0990   44.6520 C   0  0  0  0  0  0  0  0  0  0  0  0
   56.1940   31.4200   44.5620 O   0  0  0  0  0  0  0  0  0  0  0  0
   57.7690   29.7120   44.9980 C   0  0  0  0  0  0  0  0  0  0  0  0
   59.0850   29.2530   45.0540 C   0  0  0  0  0  0  0  0  0  0  0  0
   59.0650   27.6250   45.4750 S   0  0  0  0  0  0  0  0  0  0  0  0
   57.3960   27.4920   45.5910 C   0  0  0  0  0  0  0  0  0  0  0  0
   56.5250   26.0260   45.9960 S   0  0  0  0  0  0  0  0  0  0  0  0
   54.8250   26.3420   46.0010 N   0  0  0  0  0  0  0  0  0  0  0  0
   56.8350   24.9610   44.9840 O   0  0  0  0  0  0  0  0  0  0  0  0
   56.9390   25.5560   47.3630 O   0  0  0  0  0  0  0  0  0  0  0  0
   56.8210   28.7180   45.2980 C   0  0  0  0  0  0  0  0  0  0  0  0
   58.8470   32.7150   46.6730 N   0  0  0  0  0  0  0  0  0  0  0  0
   59.2091   34.1113   49.6964 H   0  0  0  0  0  0  0  0  0  0  0  0
   58.3561   32.5865   49.2792 H   0  0  0  0  0  0  0  0  0  0  0  0
   60.1516   32.6402   49.2792 H   0  0  0  0  0  0  0  0  0  0  0  0
   59.9081   35.6396   48.0048 H   0  0  0  0  0  0  0  0  0  0  0  0
   59.9128   36.2544   45.5825 H   0  0  0  0  0  0  0  0  0  0  0  0
   59.2188   34.5726   43.8673 H   0  0  0  0  0  0  0  0  0  0  0  0
   59.9844   29.8546   44.8561 H   0  0  0  0  0  0  0  0  0  0  0  0
   54.6550   27.0810   46.7200 H   0  0  0  0  0  0  0  0  0  0  0  0
   55.7354   28.8953   45.2999 H   0  0  0  0  0  0  0  0  0  0  0  0
  1  2  1  0
  2  3  2  0
  3  4  1  0
  4  5  2  0
  5  6  1  0
  6  7  2  3
  7  8  1  0
  8  9  2  0
  8 10  1  0
 10 11  2  0
 11 12  1  0
 12 13  1  0
 13 14  1  0
 14 15  1  0
 14 16  2  0
 14 17  2  0
 13 18  2  0
  6 19  1  0
 19  2  1  0
 18 10  1  0
  1 20  1  0
  1 21  1  0
  1 22  1  0
  3 23  1  0
  4 24  1  0
  5 25  1  0
 11 26  1  0
 15 27  1  0
 18 28  1  0
M  CHG  2  15  -1  19  -1
M  END
>  <UniqueID>  (18) 
18

>  <SMILES>  (18) 
Cc1cccc(=NC(=O)c2csc(S([NH-])(=O)=O)c2)[n-]1

>  <Energy>  (18) 
60.47592635870555

>  <Genealogy>  (18) 
Cc1cccc(=NC(=O)c2csc(S([NH-])(=O)=O)c2)[n-]1 (protonated)
Cc1cccc(=NC(=O)c2csc(S([NH-])(=O)=O)c2)[n-]1 (3D coordinates assigned)
Cc1cccc(=NC(=O)c2csc(S([NH-])(=O)=O)c2)[n-]1 (optimized conformer: 60.47592635870555 kcal/mol)

>  <smiles>  (18) 
Cc1cccc(=NC(=O)c2csc(S(N)(=O)=O)c2)[nH]1

>  <score_type>  (18) 
oracle

>  <origin>  (18) 
adg

>  <m_score__min__energy>  (18) 
-11.58

>  <m_primary>  (18) 
energy

$$$$
18:0
     RDKit          3D

 33 34  0  0  0  0  0  0  0  0999 V2000
   56.9640   31.6890   44.8950 N   0  0  0  0  0  0  0  0  0  0  0  0
   57.2060   32.9430   45.6040 C   0  0  0  0  0  0  0  0  0  0  0  0
   58.6410   33.0040   46.0860 C   0  0  0  0  0  0  0  0  0  0  0  0
   59.4150   34.1150   45.7000 C   0  0  0  0  0  0  0  0  0  0  0  0
   60.7490   34.2270   46.0870 C   0  0  0  0  0  0  0  0  0  0  0  0
   61.3440   33.2190   46.8440 C   0  0  0  0  0  0  0  0  0  0  0  0
   63.0240   33.3580   47.3230 Cl  0  0  0  0  0  0  0  0  0  0  0  0
   60.6020   32.0970   47.2180 C   0  0  0  0  0  0  0  0  0  0  0  0
   59.2460   31.9780   46.8660 C   0  0  0  0  0  0  0  0  0  0  0  0
   58.5200   30.7200   47.2790 C   0  0  0  0  0  0  0  0  0  0  0  0
   59.2300   29.5600   46.7560 N   0  0  0  0  0  0  0  0  0  0  0  0
   59.1780   29.1750   45.3820 C   0  0  0  0  0  0  0  0  0  0  0  0
   59.2090   30.0470   44.4720 O   0  0  0  0  0  0  0  0  0  0  0  0
   59.1300   27.7250   45.0240 C   0  0  0  0  0  0  0  0  0  0  0  0
   57.8210   27.1340   45.4400 C   0  0  0  0  0  0  0  0  0  0  0  0
   57.5290   25.4890   45.6740 S   0  0  0  0  0  0  0  0  0  0  0  0
   55.9040   25.7450   46.0180 C   0  0  0  0  0  0  0  0  0  0  0  0
   55.0910   24.8340   46.3230 O   0  0  0  0  0  0  0  0  0  0  0  0
   55.5530   27.0460   45.9450 N   0  0  0  0  0  0  0  0  0  0  0  0
   56.6210   27.8210   45.6160 C   0  0  0  0  0  0  0  0  0  0  0  0
   56.5070   29.2000   45.4620 O   0  0  0  0  0  0  0  0  0  0  0  0
   57.7060   31.0080   45.1720 H   0  0  0  0  0  0  0  0  0  0  0  0
   56.0610   31.2920   45.2450 H   0  0  0  0  0  0  0  0  0  0  0  0
   57.0148   33.7869   44.9249 H   0  0  0  0  0  0  0  0  0  0  0  0
   56.5333   32.9994   46.4725 H   0  0  0  0  0  0  0  0  0  0  0  0
   58.9605   34.9053   45.0846 H   0  0  0  0  0  0  0  0  0  0  0  0
   61.3333   35.1120   45.7947 H   0  0  0  0  0  0  0  0  0  0  0  0
   61.0849   31.2952   47.7959 H   0  0  0  0  0  0  0  0  0  0  0  0
   58.4804   30.6623   48.3768 H   0  0  0  0  0  0  0  0  0  0  0  0
   57.4961   30.7370   46.8774 H   0  0  0  0  0  0  0  0  0  0  0  0
   59.2490   27.6151   43.9360 H   0  0  0  0  0  0  0  0  0  0  0  0
   59.9434   27.1992   45.5455 H   0  0  0  0  0  0  0  0  0  0  0  0
   57.3000   29.8010   45.6280 H   0  0  0  0  0  0  0  0  0  0  0  0
  1  2  1  0
  2  3  1  0
  3  4  2  0
  4  5  1  0
  5  6  2  0
  6  7  1  0
  6  8  1  0
  8  9  2  0
  9 10  1  0
 10 11  1  0
 11 12  1  0
 12 13  2  0
 12 14  1  0
 14 15  1  0
 15 16  1  0
 16 17  1  0
 17 18  2  0
 17 19  1  0
 19 20  1  0
 20 21  1  0
  9  3  1  0
 20 15  2  0
  1 22  1  0
  1 23  1  0
  2 24  1  0
  2 25  1  0
  4 26  1  0
  5 27  1  0
  8 28  1  0
 10 29  1  0
 10 30  1  0
 14 31  1  0
 14 32  1  0
 21 33  1  0
M  CHG  2  11  -1  19  -1
M  END
>  <UniqueID>  (19) 
19

>  <SMILES>  (19) 
NCc1ccc(Cl)cc1C[N-]C(=O)Cc1sc(=O)[n-]c1O

>  <Energy>  (19) 
58.26809522488681

>  <Genealogy>  (19) 
NCc1ccc(Cl)cc1C[N-]C(=O)Cc1sc(=O)[n-]c1O (protonated)
NCc1ccc(Cl)cc1C[N-]C(=O)Cc1sc(=O)[n-]c1O (3D coordinates assigned)
NCc1ccc(Cl)cc1C[N-]C(=O)Cc1sc(=O)[n-]c1O (optimized conformer: 58.26809522488681 kcal/mol)

>  <smiles>  (19) 
NCc1ccc(Cl)cc1CNC(=O)Cc1sc(=O)[nH]c1O

>  <score_type>  (19) 
oracle

>  <origin>  (19) 
adg

>  <m_score__min__energy>  (19) 
-12.130000000000001

>  <m_primary>  (19) 
energy

$$$$
19:0
     RDKit          3D

 43 46  0  0  0  0  0  0  0  0999 V2000
   60.7770   26.3510   46.5840 C   0  0  0  0  0  0  0  0  0  0  0  0
   60.1130   27.3030   47.5740 C   0  0  0  0  0  0  0  0  0  0  0  0
   59.1070   28.1450   46.8940 N   0  0  0  0  0  0  0  0  0  0  0  0
   59.3210   29.4910   46.6240 C   0  0  0  0  0  0  0  0  0  0  0  0
   60.4560   30.1410   47.0450 N   0  0  0  0  0  0  0  0  0  0  0  0
   60.6960   31.4530   46.7520 C   0  0  0  0  0  0  0  0  0  0  0  0
   61.9260   32.1020   47.2470 C   0  0  0  0  0  0  0  0  0  0  0  0
   62.2970   33.1850   46.7240 O   0  0  0  0  0  0  0  0  0  0  0  0
   62.6970   31.5570   48.3250 N   0  0  0  0  0  0  0  0  0  0  0  0
   62.3760   31.7170   49.7380 C   0  0  0  0  0  0  0  0  0  0  0  0
   61.0070   31.1510   50.0070 C   0  0  0  0  0  0  0  0  0  0  0  0
   60.8670   29.7800   50.2860 C   0  0  0  0  0  0  0  0  0  0  0  0
   59.6040   29.2290   50.5140 C   0  0  0  0  0  0  0  0  0  0  0  0
   58.4680   30.0360   50.4570 C   0  0  0  0  0  0  0  0  0  0  0  0
   58.5900   31.3970   50.1670 C   0  0  0  0  0  0  0  0  0  0  0  0
   59.8510   31.9600   49.9360 C   0  0  0  0  0  0  0  0  0  0  0  0
   59.9430   33.8320   49.5210 Br  0  0  0  0  0  0  0  0  0  0  0  0
   59.7470   32.1960   46.0440 C   0  0  0  0  0  0  0  0  0  0  0  0
   58.5720   31.5890   45.6210 C   0  0  0  0  0  0  0  0  0  0  0  0
   58.3380   30.2370   45.9050 C   0  0  0  0  0  0  0  0  0  0  0  0
   57.1460   29.6030   45.5200 C   0  0  0  0  0  0  0  0  0  0  0  0
   56.2450   30.2190   44.8860 O   0  0  0  0  0  0  0  0  0  0  0  0
   56.9780   28.3070   45.8580 N   0  0  0  0  0  0  0  0  0  0  0  0
   55.9100   27.5650   45.6140 N   0  0  0  0  0  0  0  0  0  0  0  0
   56.1720   26.3540   46.1470 C   0  0  0  0  0  0  0  0  0  0  0  0
   55.3660   25.3890   46.1060 O   0  0  0  0  0  0  0  0  0  0  0  0
   57.4240   26.3170   46.7390 C   0  0  0  0  0  0  0  0  0  0  0  0
   57.9040   27.6000   46.5220 C   0  0  0  0  0  0  0  0  0  0  0  0
   61.3216   25.5702   47.1351 H   0  0  0  0  0  0  0  0  0  0  0  0
   60.0074   25.8844   45.9515 H   0  0  0  0  0  0  0  0  0  0  0  0
   61.4807   26.9120   45.9515 H   0  0  0  0  0  0  0  0  0  0  0  0
   59.6194   26.7168   48.3631 H   0  0  0  0  0  0  0  0  0  0  0  0
   60.8844   27.9553   48.0093 H   0  0  0  0  0  0  0  0  0  0  0  0
   61.1770   29.6510   47.6160 H   0  0  0  0  0  0  0  0  0  0  0  0
   63.1203   31.1822   50.3463 H   0  0  0  0  0  0  0  0  0  0  0  0
   62.3897   32.7854   49.9992 H   0  0  0  0  0  0  0  0  0  0  0  0
   61.7585   29.1368   50.3250 H   0  0  0  0  0  0  0  0  0  0  0  0
   59.5051   28.1568   50.7389 H   0  0  0  0  0  0  0  0  0  0  0  0
   57.4748   29.6003   50.6406 H   0  0  0  0  0  0  0  0  0  0  0  0
   57.6912   32.0294   50.1199 H   0  0  0  0  0  0  0  0  0  0  0  0
   59.9304   33.2578   45.8227 H   0  0  0  0  0  0  0  0  0  0  0  0
   57.8238   32.1703   45.0622 H   0  0  0  0  0  0  0  0  0  0  0  0
   57.9155   25.4781   47.2535 H   0  0  0  0  0  0  0  0  0  0  0  0
  1  2  1  0
  2  3  1  0
  3  4  1  0
  4  5  2  0
  5  6  1  0
  6  7  1  0
  7  8  2  0
  7  9  1  0
  9 10  1  0
 10 11  1  0
 11 12  2  0
 12 13  1  0
 13 14  2  0
 14 15  1  0
 15 16  2  0
 16 17  1  0
  6 18  2  0
 18 19  1  0
 19 20  2  0
 20 21  1  0
 21 22  2  0
 21 23  1  0
 23 24  1  0
 24 25  1  0
 25 26  2  0
 25 27  1  0
 27 28  2  0
 28  3  1  0
 20  4  1  0
 28 23  1  0
 16 11  1  0
  1 29  1  0
  1 30  1  0
  1 31  1  0
  2 32  1  0
  2 33  1  0
  5 34  1  0
 10 35  1  0
 10 36  1  0
 12 37  1  0
 13 38  1  0
 14 39  1  0
 15 40  1  0
 18 41  1  0
 19 42  1  0
 27 43  1  0
M  CHG  3   5   1   9  -1  24  -1
M  END
>  <UniqueID>  (20) 
20

>  <SMILES>  (20) 
CCn1c2[nH+]c(C(=O)[N-]Cc3ccccc3Br)ccc2c(=O)n2[n-]c(=O)cc12

>  <Energy>  (20) 
96.80789296000663

>  <Genealogy>  (20) 
CCn1c2[nH+]c(C(=O)[N-]Cc3ccccc3Br)ccc2c(=O)n2[n-]c(=O)cc12 (protonated)
CCn1c2[nH+]c(C(=O)[N-]Cc3ccccc3Br)ccc2c(=O)n2[n-]c(=O)cc12 (3D coordinates assigned)
CCn1c2[nH+]c(C(=O)[N-]Cc3ccccc3Br)ccc2c(=O)n2[n-]c(=O)cc12 (optimized conformer: 96.80789296000663 kcal/mol)

>  <smiles>  (20) 
CCn1c2nc(C(=O)NCc3ccccc3Br)ccc2c(=O)n2[nH]c(=O)cc12

>  <score_type>  (20) 
oracle

>  <origin>  (20) 
adg

>  <m_score__min__energy>  (20) 
-9.7699999999999996

>  <m_primary>  (20) 
energy

$$$$
20:0
     RDKit          3D

 47 50  0  0  0  0  0  0  0  0999 V2000
   49.4377   25.3319   51.0556 H   0  0  0  0  0  0  0  0  0  0  0  0
   50.3010   25.2650   51.7340 C   0  0  0  0  0  0  0  0  0  0  0  0
   51.4240   24.5220   51.3640 C   0  0  0  0  0  0  0  0  0  0  0  0
   51.4463   24.0081   50.3917 H   0  0  0  0  0  0  0  0  0  0  0  0
   52.5200   24.4300   52.2270 C   0  0  0  0  0  0  0  0  0  0  0  0
   53.4057   23.8501   51.9283 H   0  0  0  0  0  0  0  0  0  0  0  0
   52.4940   25.0760   53.4750 C   0  0  0  0  0  0  0  0  0  0  0  0
   53.6860   25.0080   54.3850 C   0  0  0  0  0  0  0  0  0  0  0  0
   53.9934   23.9591   54.5091 H   0  0  0  0  0  0  0  0  0  0  0  0
   53.4236   25.4312   55.3658 H   0  0  0  0  0  0  0  0  0  0  0  0
   54.7840   25.7710   53.8040 N   0  0  0  0  0  0  0  0  0  0  0  0
   54.7160   27.0430   53.5490 C   0  0  0  0  0  0  0  0  0  0  0  0
   53.5670   27.6860   53.2450 N   0  0  0  0  0  0  0  0  0  0  0  0
   53.9520   28.9640   53.0530 C   0  0  0  0  0  0  0  0  0  0  0  0
   52.9940   30.0510   52.7620 C   0  0  0  0  0  0  0  0  0  0  0  0
   52.0500   30.4240   53.7320 C   0  0  0  0  0  0  0  0  0  0  0  0
   52.0237   29.9009   54.6993 H   0  0  0  0  0  0  0  0  0  0  0  0
   51.1430   31.4570   53.4750 C   0  0  0  0  0  0  0  0  0  0  0  0
   50.3991   31.7362   54.2356 H   0  0  0  0  0  0  0  0  0  0  0  0
   51.1800   32.1350   52.2540 C   0  0  0  0  0  0  0  0  0  0  0  0
   50.2770   33.1590   51.9990 O   0  0  0  0  0  0  0  0  0  0  0  0
   52.1300   31.7850   51.2900 C   0  0  0  0  0  0  0  0  0  0  0  0
   52.1630   32.3226   50.3309 H   0  0  0  0  0  0  0  0  0  0  0  0
   53.0380   30.7530   51.5430 C   0  0  0  0  0  0  0  0  0  0  0  0
   53.7906   30.4882   50.7857 H   0  0  0  0  0  0  0  0  0  0  0  0
   55.3290   29.0630   53.2340 C   0  0  0  0  0  0  0  0  0  0  0  0
   56.2010   30.2380   53.0250 C   0  0  0  0  0  0  0  0  0  0  0  0
   56.2670   30.8440   51.7610 C   0  0  0  0  0  0  0  0  0  0  0  0
   55.6748   30.4376   50.9279 H   0  0  0  0  0  0  0  0  0  0  0  0
   57.0810   31.9610   51.5550 C   0  0  0  0  0  0  0  0  0  0  0  0
   57.1298   32.4234   50.5581 H   0  0  0  0  0  0  0  0  0  0  0  0
   57.8350   32.4970   52.6060 C   0  0  0  0  0  0  0  0  0  0  0  0
   58.6410   33.6140   52.3450 O   0  0  0  0  0  0  0  0  0  0  0  0
   58.9420   34.6280   53.2980 C   0  0  0  0  0  0  0  0  0  0  0  0
   58.8220   34.2236   54.3139 H   0  0  0  0  0  0  0  0  0  0  0  0
   59.9793   34.9663   53.1582 H   0  0  0  0  0  0  0  0  0  0  0  0
   58.2573   35.4775   53.1582 H   0  0  0  0  0  0  0  0  0  0  0  0
   57.7550   31.9030   53.8790 C   0  0  0  0  0  0  0  0  0  0  0  0
   58.3381   32.3180   54.7144 H   0  0  0  0  0  0  0  0  0  0  0  0
   56.9380   30.7880   54.0870 C   0  0  0  0  0  0  0  0  0  0  0  0
   56.8717   30.3383   55.0887 H   0  0  0  0  0  0  0  0  0  0  0  0
   55.7960   27.8440   53.5570 N   0  0  0  0  0  0  0  0  0  0  0  0
   56.7880   27.5660   53.7350 H   0  0  0  0  0  0  0  0  0  0  0  0
   51.3680   25.8360   53.8330 C   0  0  0  0  0  0  0  0  0  0  0  0
   51.3470   26.3636   54.7980 H   0  0  0  0  0  0  0  0  0  0  0  0
   50.2740   25.9240   52.9670 C   0  0  0  0  0  0  0  0  0  0  0  0
   49.3907   26.5125   53.2560 H   0  0  0  0  0  0  0  0  0  0  0  0
  1  2  1  0
  2  3  2  0
  3  4  1  0
  3  5  1  0
  5  6  1  0
  5  7  2  0
  7  8  1  0
  8  9  1  0
  8 10  1  0
  8 11  1  0
 11 12  2  0
 12 13  1  0
 13 14  1  0
 14 15  1  0
 15 16  2  0
 16 17  1  0
 16 18  1  0
 18 19  1  0
 18 20  2  0
 20 21  1  0
 20 22  1  0
 22 23  1  0
 22 24  2  0
 24 25  1  0
 14 26  2  0
 26 27  1  0
 27 28  2  0
 28 29  1  0
 28 30  1  0
 30 31  1  0
 30 32  2  0
 32 33  1  0
 33 34  1  0
 34 35  1  0
 34 36  1  0
 34 37  1  0
 32 38  1  0
 38 39  1  0
 38 40  2  0
 40 41  1  0
 26 42  1  0
 42 43  1  0
  7 44  1  0
 44 45  1  0
 44 46  2  0
 46 47  1  0
 46  2  1  0
 42 12  1  0
 24 15  1  0
 40 27  1  0
M  CHG  2  13  -1  21  -1
M  END
>  <UniqueID>  (21) 
21

>  <SMILES>  (21) 
COc1ccc(-c2[nH]/c(=N/Cc3ccccc3)[n-]c2-c2ccc([O-])cc2)cc1

>  <Energy>  (21) 
86.71179199626162

>  <Genealogy>  (21) 
COc1ccc(-c2[nH]c(=NCc3ccccc3)[n-]c2-c2ccc([O-])cc2)cc1 (protonated)
COc1ccc(-c2[nH]/c(=N/Cc3ccccc3)[n-]c2-c2ccc([O-])cc2)cc1 (cis-trans isomerization)
COc1ccc(-c2[nH]/c(=N/Cc3ccccc3)[n-]c2-c2ccc([O-])cc2)cc1 (3D coordinates assigned)
COc1ccc(-c2[nH]/c(=N/Cc3ccccc3)[n-]c2-c2ccc([O-])cc2)cc1 (optimized conformer: 86.71179199626162 kcal/mol)

>  <smiles>  (21) 
COc1ccc(-c2[nH]c(=NCc3ccccc3)[nH]c2-c2ccc(O)cc2)cc1

>  <score_type>  (21) 
oracle

>  <origin>  (21) 
adg

>  <m_score__min__energy>  (21) 
-10.9

>  <m_primary>  (21) 
energy

$$$$
21:0
     RDKit          3D

 51 53  0  0  0  0  0  0  0  0999 V2000
   55.5800   24.5790   46.7660 O   0  0  0  0  0  0  0  0  0  0  0  0
   56.0210   25.6660   46.3080 C   0  0  0  0  0  0  0  0  0  0  0  0
   55.1350   26.6880   45.9900 O   0  0  0  0  0  0  0  0  0  0  0  0
   57.4890   25.8470   46.0750 C   0  0  0  0  0  0  0  0  0  0  0  0
   58.1820   26.5050   47.2840 C   0  0  0  0  0  0  0  0  0  0  0  0
   58.8520   27.7970   46.9650 N   0  0  2  0  0  0  0  0  0  0  0  0
   59.1290   27.9740   45.5120 C   0  0  0  0  0  0  0  0  0  0  0  0
   58.2900   29.0450   44.8410 C   0  0  0  0  0  0  0  0  0  0  0  0
   58.8760   30.2520   44.4200 C   0  0  0  0  0  0  0  0  0  0  0  0
   58.1010   31.2380   43.8030 C   0  0  0  0  0  0  0  0  0  0  0  0
   56.7320   31.0340   43.6100 C   0  0  0  0  0  0  0  0  0  0  0  0
   56.1360   29.8460   44.0400 C   0  0  0  0  0  0  0  0  0  0  0  0
   56.9080   28.8570   44.6580 C   0  0  0  0  0  0  0  0  0  0  0  0
   60.0930   27.9680   47.7670 C   0  0  0  0  0  0  0  0  0  0  0  0
   59.9470   29.0520   48.8220 C   0  0  0  0  0  0  0  0  0  0  0  0
   59.0730   30.1400   48.6370 C   0  0  0  0  0  0  0  0  0  0  0  0
   58.2720   30.1840   47.4970 O   0  0  0  0  0  0  0  0  0  0  0  0
   59.0140   31.1510   49.5630 N   0  0  0  0  0  0  0  0  0  0  0  0
   58.1860   32.3440   49.3060 C   0  0  0  0  0  0  0  0  0  0  0  0
   58.5870   32.9820   48.0010 C   0  0  0  0  0  0  0  0  0  0  0  0
   59.9410   33.2310   47.7150 C   0  0  0  0  0  0  0  0  0  0  0  0
   60.3130   33.7790   46.4840 C   0  0  0  0  0  0  0  0  0  0  0  0
   59.3410   34.0750   45.5260 C   0  0  0  0  0  0  0  0  0  0  0  0
   59.7050   34.6020   44.3300 F   0  0  0  0  0  0  0  0  0  0  0  0
   57.9930   33.8270   45.7990 C   0  0  0  0  0  0  0  0  0  0  0  0
   57.6150   33.2830   47.0290 C   0  0  0  0  0  0  0  0  0  0  0  0
   59.7880   31.0820   50.6930 C   0  0  0  0  0  0  0  0  0  0  0  0
   59.7470   31.9960   51.5610 O   0  0  0  0  0  0  0  0  0  0  0  0
   60.6160   30.0270   50.8930 N   0  0  0  0  0  0  0  0  0  0  0  0
   60.7180   29.0230   49.9920 C   0  0  0  0  0  0  0  0  0  0  0  0
   61.5100   28.0690   50.2200 O   0  0  0  0  0  0  0  0  0  0  0  0
   57.9453   24.8624   45.8951 H   0  0  0  0  0  0  0  0  0  0  0  0
   57.6189   26.5071   45.2047 H   0  0  0  0  0  0  0  0  0  0  0  0
   57.4241   26.6899   48.0595 H   0  0  0  0  0  0  0  0  0  0  0  0
   58.9675   25.8115   47.6187 H   0  0  0  0  0  0  0  0  0  0  0  0
   58.2040   28.5750   47.2300 H   0  0  0  0  0  0  0  0  0  0  0  0
   60.1891   28.2429   45.3939 H   0  0  0  0  0  0  0  0  0  0  0  0
   58.8718   27.0220   45.0247 H   0  0  0  0  0  0  0  0  0  0  0  0
   59.9515   30.4213   44.5773 H   0  0  0  0  0  0  0  0  0  0  0  0
   58.5692   32.1757   43.4689 H   0  0  0  0  0  0  0  0  0  0  0  0
   56.1240   31.8086   43.1197 H   0  0  0  0  0  0  0  0  0  0  0  0
   55.0575   29.6881   43.8923 H   0  0  0  0  0  0  0  0  0  0  0  0
   56.4320   27.9272   45.0028 H   0  0  0  0  0  0  0  0  0  0  0  0
   60.3265   27.0161   48.2664 H   0  0  0  0  0  0  0  0  0  0  0  0
   60.9001   28.2681   47.0824 H   0  0  0  0  0  0  0  0  0  0  0  0
   57.1276   32.0484   49.2563 H   0  0  0  0  0  0  0  0  0  0  0  0
   58.3348   33.0676   50.1210 H   0  0  0  0  0  0  0  0  0  0  0  0
   60.7112   32.9934   48.4635 H   0  0  0  0  0  0  0  0  0  0  0  0
   61.3735   33.9775   46.2695 H   0  0  0  0  0  0  0  0  0  0  0  0
   57.2280   34.0606   45.0438 H   0  0  0  0  0  0  0  0  0  0  0  0
   56.5527   33.0891   47.2386 H   0  0  0  0  0  0  0  0  0  0  0  0
  1  2  2  0
  2  3  1  0
  2  4  1  0
  4  5  1  0
  5  6  1  0
  6  7  1  0
  7  8  1  0
  8  9  2  0
  9 10  1  0
 10 11  2  0
 11 12  1  0
 12 13  2  0
  6 14  1  0
 14 15  1  0
 15 16  2  0
 16 17  1  0
 16 18  1  0
 18 19  1  0
 19 20  1  0
 20 21  2  0
 21 22  1  0
 22 23  2  0
 23 24  1  0
 23 25  1  0
 25 26  2  0
 18 27  1  0
 27 28  2  0
 27 29  1  0
 29 30  1  0
 30 31  2  0
 13  8  1  0
 30 15  1  0
 26 20  1  0
  4 32  1  0
  4 33  1  0
  5 34  1  0
  5 35  1  0
  6 36  1  1
  7 37  1  0
  7 38  1  0
  9 39  1  0
 10 40  1  0
 11 41  1  0
 12 42  1  0
 13 43  1  0
 14 44  1  0
 14 45  1  0
 19 46  1  0
 19 47  1  0
 21 48  1  0
 22 49  1  0
 25 50  1  0
 26 51  1  0
M  CHG  4   3  -1   6   1  17  -1  29  -1
M  END
>  <UniqueID>  (22) 
22

>  <SMILES>  (22) 
O=C([O-])CC[N@H+](Cc1ccccc1)Cc1c([O-])n(Cc2ccc(F)cc2)c(=O)[n-]c1=O

>  <Energy>  (22) 
61.94301241214966

>  <Genealogy>  (22) 
O=C([O-])CC[NH+](Cc1ccccc1)Cc1c([O-])n(Cc2ccc(F)cc2)c(=O)[n-]c1=O (protonated)
O=C([O-])CC[N@H+](Cc1ccccc1)Cc1c([O-])n(Cc2ccc(F)cc2)c(=O)[n-]c1=O (chirality)
O=C([O-])CC[N@H+](Cc1ccccc1)Cc1c([O-])n(Cc2ccc(F)cc2)c(=O)[n-]c1=O (3D coordinates assigned)
O=C([O-])CC[N@H+](Cc1ccccc1)Cc1c([O-])n(Cc2ccc(F)cc2)c(=O)[n-]c1=O (optimized conformer: 61.94301241214966 kcal/mol)

>  <smiles>  (22) 
O=C(O)CCN(Cc1ccccc1)Cc1c(O)n(Cc2ccc(F)cc2)c(=O)[nH]c1=O

>  <score_type>  (22) 
oracle

>  <origin>  (22) 
adg

>  <m_score__min__energy>  (22) 
-12.99

>  <m_primary>  (22) 
energy

$$$$
22:0
     RDKit          3D

 38 40  0  0  0  0  0  0  0  0999 V2000
   55.1480   27.5010   45.2790 H   0  0  0  0  0  0  0  0  0  0  0  0
   55.6980   26.9730   45.9430 O   0  0  0  0  0  0  0  0  0  0  0  0
   57.0880   27.0760   46.0180 C   0  0  0  0  0  0  0  0  0  0  0  0
   57.7660   26.3010   46.9670 C   0  0  0  0  0  0  0  0  0  0  0  0
   57.2063   25.5898   47.5922 H   0  0  0  0  0  0  0  0  0  0  0  0
   59.1480   26.4250   47.1250 C   0  0  0  0  0  0  0  0  0  0  0  0
   59.6737   25.8116   47.8716 H   0  0  0  0  0  0  0  0  0  0  0  0
   59.8630   27.3290   46.3340 C   0  0  0  0  0  0  0  0  0  0  0  0
   60.9496   27.4361   46.4673 H   0  0  0  0  0  0  0  0  0  0  0  0
   59.1990   28.0960   45.3750 C   0  0  0  0  0  0  0  0  0  0  0  0
   59.7645   28.8127   44.7613 H   0  0  0  0  0  0  0  0  0  0  0  0
   57.8170   27.9590   45.1890 C   0  0  0  0  0  0  0  0  0  0  0  0
   57.1990   28.7220   44.1910 O   0  0  0  0  0  0  0  0  0  0  0  0
   56.3220   29.7780   44.4570 C   0  0  0  0  0  0  0  0  0  0  0  0
   55.1410   29.5420   44.8320 O   0  0  0  0  0  0  0  0  0  0  0  0
   56.7890   31.1220   44.2680 N   0  0  0  0  0  0  0  0  0  0  0  0
   57.4240   31.8710   45.1240 C   0  0  0  0  0  0  0  0  0  0  0  0
   57.8900   31.3770   46.2920 N   0  0  0  0  0  0  0  0  0  0  0  0
   58.5150   32.3310   47.0320 C   0  0  0  0  0  0  0  0  0  0  0  0
   58.9638   32.1222   48.0144 H   0  0  0  0  0  0  0  0  0  0  0  0
   58.5410   33.5890   46.4480 C   0  0  0  0  0  0  0  0  0  0  0  0
   59.2710   35.0590   47.1610 S   0  0  0  0  0  0  0  0  0  0  0  0
   60.7540   34.1860   47.6590 C   0  0  0  0  0  0  0  0  0  0  0  0
   61.6970   33.7990   46.7000 C   0  0  0  0  0  0  0  0  0  0  0  0
   61.5290   34.0361   45.6391 H   0  0  0  0  0  0  0  0  0  0  0  0
   62.8520   33.1120   47.0860 C   0  0  0  0  0  0  0  0  0  0  0  0
   63.5886   32.8080   46.3277 H   0  0  0  0  0  0  0  0  0  0  0  0
   63.0750   32.8080   48.4440 C   0  0  0  0  0  0  0  0  0  0  0  0
   64.2150   32.1210   48.8830 O   0  0  0  0  0  0  0  0  0  0  0  0
   65.1470   32.6330   49.8310 C   0  0  0  0  0  0  0  0  0  0  0  0
   64.7820   32.4325   50.8491 H   0  0  0  0  0  0  0  0  0  0  0  0
   66.1218   32.1437   49.6879 H   0  0  0  0  0  0  0  0  0  0  0  0
   65.2569   33.7181   49.6879 H   0  0  0  0  0  0  0  0  0  0  0  0
   62.1270   33.2020   49.3970 C   0  0  0  0  0  0  0  0  0  0  0  0
   62.2925   32.9698   50.4594 H   0  0  0  0  0  0  0  0  0  0  0  0
   60.9720   33.8880   49.0090 C   0  0  0  0  0  0  0  0  0  0  0  0
   60.2341   34.1937   49.7654 H   0  0  0  0  0  0  0  0  0  0  0  0
   57.7640   33.5200   44.9600 S   0  0  0  0  0  0  0  0  0  0  0  0
  1  2  1  0
  2  3  1  0
  3  4  2  0
  4  5  1  0
  4  6  1  0
  6  7  1  0
  6  8  2  0
  8  9  1  0
  8 10  1  0
 10 11  1  0
 10 12  2  0
 12 13  1  0
 13 14  1  0
 14 15  2  0
 14 16  1  0
 16 17  2  0
 17 18  1  0
 18 19  1  0
 19 20  1  0
 19 21  2  0
 21 22  1  0
 22 23  1  0
 23 24  2  0
 24 25  1  0
 24 26  1  0
 26 27  1  0
 26 28  2  0
 28 29  1  0
 29 30  1  0
 30 31  1  0
 30 32  1  0
 30 33  1  0
 28 34  1  0
 34 35  1  0
 34 36  2  0
 36 37  1  0
 21 38  1  0
 12  3  1  0
 38 17  1  0
 36 23  1  0
M  CHG  1  18  -1
M  END
>  <UniqueID>  (23) 
23

>  <SMILES>  (23) 
COc1ccc(Sc2c[n-]/c(=N/C(=O)Oc3ccccc3O)s2)cc1

>  <Energy>  (23) 
76.97825002475568

>  <Genealogy>  (23) 
COc1ccc(Sc2c[n-]c(=NC(=O)Oc3ccccc3O)s2)cc1 (protonated)
COc1ccc(Sc2c[n-]/c(=N/C(=O)Oc3ccccc3O)s2)cc1 (cis-trans isomerization)
COc1ccc(Sc2c[n-]/c(=N/C(=O)Oc3ccccc3O)s2)cc1 (3D coordinates assigned)
COc1ccc(Sc2c[n-]/c(=N/C(=O)Oc3ccccc3O)s2)cc1 (optimized conformer: 76.97825002475568 kcal/mol)

>  <smiles>  (23) 
COc1ccc(Sc2c[nH]c(=NC(=O)Oc3ccccc3O)s2)cc1

>  <score_type>  (23) 
oracle

>  <origin>  (23) 
adg

>  <m_score__min__energy>  (23) 
-10.76

>  <m_primary>  (23) 
energy

$$$$
23:0
     RDKit          3D

 47 49  0  0  0  0  0  0  0  0999 V2000
   57.4155   24.9810   44.6456 H   0  0  0  0  0  0  0  0  0  0  0  0
   57.2040   25.9380   45.1450 C   0  0  0  0  0  0  0  0  0  0  0  0
   56.1500   25.9430   46.1760 C   0  0  0  0  0  0  0  0  0  0  0  0
   55.1370   26.6740   46.0050 O   0  0  0  0  0  0  0  0  0  0  0  0
   56.2340   25.1000   47.2890 O   0  0  0  0  0  0  0  0  0  0  0  0
   56.6920   23.7570   47.2090 C   0  0  0  0  0  0  0  0  0  0  0  0
   56.8290   23.3553   48.2238 H   0  0  0  0  0  0  0  0  0  0  0  0
   55.9507   23.1482   46.6706 H   0  0  0  0  0  0  0  0  0  0  0  0
   57.6508   23.7280   46.6706 H   0  0  0  0  0  0  0  0  0  0  0  0
   57.9280   27.0040   44.7640 C   0  0  0  0  0  0  0  0  0  0  0  0
   57.8780   27.2912   43.7033 H   0  0  0  0  0  0  0  0  0  0  0  0
   58.7850   27.8240   45.6440 C   0  0  0  0  0  0  0  0  0  0  0  0
   59.4730   28.9510   45.1590 C   0  0  0  0  0  0  0  0  0  0  0  0
   59.3575   29.2518   44.1072 H   0  0  0  0  0  0  0  0  0  0  0  0
   60.3030   29.6910   46.0070 C   0  0  0  0  0  0  0  0  0  0  0  0
   60.8142   30.5866   45.6241 H   0  0  0  0  0  0  0  0  0  0  0  0
   60.4890   29.3020   47.3390 C   0  0  0  0  0  0  0  0  0  0  0  0
   61.3090   30.0990   48.1550 O   0  0  0  0  0  0  0  0  0  0  0  0
   60.8480   31.1290   49.0320 C   0  0  0  0  0  0  0  0  0  0  0  0
   60.1830   30.6809   49.7849 H   0  0  0  0  0  0  0  0  0  0  0  0
   61.7295   31.5924   49.4990 H   0  0  0  0  0  0  0  0  0  0  0  0
   60.0910   32.2120   48.2980 C   0  0  0  0  0  0  0  0  0  0  0  0
   60.5390   33.5430   48.3800 C   0  0  0  0  0  0  0  0  0  0  0  0
   61.4291   33.7839   48.9797 H   0  0  0  0  0  0  0  0  0  0  0  0
   59.8600   34.5620   47.7040 C   0  0  0  0  0  0  0  0  0  0  0  0
   60.2117   35.6014   47.7806 H   0  0  0  0  0  0  0  0  0  0  0  0
   58.7360   34.2610   46.9320 C   0  0  0  0  0  0  0  0  0  0  0  0
   58.2029   35.0652   46.4037 H   0  0  0  0  0  0  0  0  0  0  0  0
   58.2820   32.9310   46.8270 C   0  0  0  0  0  0  0  0  0  0  0  0
   57.1240   32.6040   46.1030 O   0  0  0  0  0  0  0  0  0  0  0  0
   57.1190   32.1340   44.7860 C   0  0  0  0  0  0  0  0  0  0  0  0
   57.7840   32.8240   43.7580 C   0  0  0  0  0  0  0  0  0  0  0  0
   58.3299   33.7520   43.9835 H   0  0  0  0  0  0  0  0  0  0  0  0
   57.7530   32.3330   42.4490 C   0  0  0  0  0  0  0  0  0  0  0  0
   58.2769   32.8742   41.6474 H   0  0  0  0  0  0  0  0  0  0  0  0
   57.0560   31.1530   42.1560 C   0  0  0  0  0  0  0  0  0  0  0  0
   57.0126   30.7813   41.1216 H   0  0  0  0  0  0  0  0  0  0  0  0
   56.4160   30.4490   43.1800 C   0  0  0  0  0  0  0  0  0  0  0  0
   55.8801   29.5153   42.9539 H   0  0  0  0  0  0  0  0  0  0  0  0
   56.4570   30.9320   44.4930 C   0  0  0  0  0  0  0  0  0  0  0  0
   55.9676   30.3663   45.2995 H   0  0  0  0  0  0  0  0  0  0  0  0
   58.9710   31.9140   47.5010 C   0  0  0  0  0  0  0  0  0  0  0  0
   58.6325   30.8717   47.4058 H   0  0  0  0  0  0  0  0  0  0  0  0
   59.8500   28.1390   47.8090 C   0  0  0  0  0  0  0  0  0  0  0  0
   60.0164   27.8022   48.8429 H   0  0  0  0  0  0  0  0  0  0  0  0
   59.0030   27.4090   46.9650 C   0  0  0  0  0  0  0  0  0  0  0  0
   58.5053   26.5033   47.3418 H   0  0  0  0  0  0  0  0  0  0  0  0
  1  2  1  0
  2  3  1  0
  3  4  2  0
  3  5  1  0
  5  6  1  0
  6  7  1  0
  6  8  1  0
  6  9  1  0
  2 10  2  0
 10 11  1  0
 10 12  1  0
 12 13  2  0
 13 14  1  0
 13 15  1  0
 15 16  1  0
 15 17  2  0
 17 18  1  0
 18 19  1  0
 19 20  1  0
 19 21  1  0
 19 22  1  0
 22 23  2  0
 23 24  1  0
 23 25  1  0
 25 26  1  0
 25 27  2  0
 27 28  1  0
 27 29  1  0
 29 30  1  0
 30 31  1  0
 31 32  2  0
 32 33  1  0
 32 34  1  0
 34 35  1  0
 34 36  2  0
 36 37  1  0
 36 38  1  0
 38 39  1  0
 38 40  2  0
 40 41  1  0
 29 42  2  0
 42 43  1  0
 17 44  1  0
 44 45  1  0
 44 46  2  0
 46 47  1  0
 46 12  1  0
 42 22  1  0
 40 31  1  0
M  END
>  <UniqueID>  (24) 
24

>  <SMILES>  (24) 
COC(=O)/C=C\c1ccc(OCc2cccc(Oc3ccccc3)c2)cc1

>  <Energy>  (24) 
61.15011571818415

>  <Genealogy>  (24) 
COC(=O)/C=C\c1ccc(OCc2cccc(Oc3ccccc3)c2)cc1 (cis-trans isomerization)
COC(=O)/C=C\c1ccc(OCc2cccc(Oc3ccccc3)c2)cc1 (3D coordinates assigned)
COC(=O)/C=C\c1ccc(OCc2cccc(Oc3ccccc3)c2)cc1 (optimized conformer: 61.15011571818415 kcal/mol)

>  <smiles>  (24) 
COC(=O)C=Cc1ccc(OCc2cccc(Oc3ccccc3)c2)cc1

>  <score_type>  (24) 
oracle

>  <origin>  (24) 
adg

>  <m_score__min__energy>  (24) 
-8.0199999999999996

>  <m_primary>  (24) 
energy

$$$$
24:0
     RDKit          3D

 33 34  0  0  0  0  0  0  0  0999 V2000
   56.8563   33.4106   44.1269 H   0  0  0  0  0  0  0  0  0  0  0  0
   57.6430   33.6930   44.8420 C   0  0  0  0  0  0  0  0  0  0  0  0
   58.0200   34.9300   44.9060 N   0  0  0  0  0  0  0  0  0  0  0  0
   59.3530   35.2650   44.8630 O   0  0  0  0  0  0  0  0  0  0  0  0
   59.9610   35.9180   45.9660 C   0  0  0  0  0  0  0  0  0  0  0  0
   59.5687   35.4966   46.9033 H   0  0  0  0  0  0  0  0  0  0  0  0
   61.0502   35.7698   45.9250 H   0  0  0  0  0  0  0  0  0  0  0  0
   59.7355   36.9939   45.9250 H   0  0  0  0  0  0  0  0  0  0  0  0
   58.2420   32.6450   45.7060 C   0  0  0  0  0  0  0  0  0  0  0  0
   59.3160   33.0130   46.5340 C   0  0  0  0  0  0  0  0  0  0  0  0
   59.6721   34.0538   46.5314 H   0  0  0  0  0  0  0  0  0  0  0  0
   59.9360   32.0750   47.3590 C   0  0  0  0  0  0  0  0  0  0  0  0
   60.7721   32.3800   48.0054 H   0  0  0  0  0  0  0  0  0  0  0  0
   59.4980   30.7510   47.3660 C   0  0  0  0  0  0  0  0  0  0  0  0
   60.3720   29.4630   48.4730 Br  0  0  0  0  0  0  0  0  0  0  0  0
   58.4260   30.3660   46.5580 C   0  0  0  0  0  0  0  0  0  0  0  0
   58.0902   29.3185   46.5605 H   0  0  0  0  0  0  0  0  0  0  0  0
   57.7710   31.3070   45.7400 C   0  0  0  0  0  0  0  0  0  0  0  0
   56.6640   30.9160   44.9110 N   0  0  0  0  0  0  0  0  0  0  0  0
   56.3750   29.6150   44.3850 C   0  0  0  0  0  0  0  0  0  0  0  0
   56.6830   29.3180   43.2010 O   0  0  0  0  0  0  0  0  0  0  0  0
   55.8390   28.5990   45.2380 N   0  0  0  0  0  0  0  0  0  0  0  0
   56.5230   27.4040   45.6420 C   0  0  0  0  0  0  0  0  0  0  0  0
   57.9270   27.3490   45.7130 C   0  0  0  0  0  0  0  0  0  0  0  0
   58.5236   28.2330   45.4434 H   0  0  0  0  0  0  0  0  0  0  0  0
   58.5670   26.1780   46.1240 C   0  0  0  0  0  0  0  0  0  0  0  0
   59.6654   26.1393   46.1690 H   0  0  0  0  0  0  0  0  0  0  0  0
   57.8150   25.0560   46.4780 C   0  0  0  0  0  0  0  0  0  0  0  0
   58.3223   24.1319   46.7921 H   0  0  0  0  0  0  0  0  0  0  0  0
   56.4190   25.1050   46.4340 C   0  0  0  0  0  0  0  0  0  0  0  0
   55.4880   23.6870   46.8930 Cl  0  0  0  0  0  0  0  0  0  0  0  0
   55.7710   26.2810   46.0230 C   0  0  0  0  0  0  0  0  0  0  0  0
   54.3810   26.3320   45.9870 O   0  0  0  0  0  0  0  0  0  0  0  0
  1  2  1  0
  2  3  2  0
  3  4  1  0
  4  5  1  0
  5  6  1  0
  5  7  1  0
  5  8  1  0
  2  9  1  0
  9 10  2  0
 10 11  1  0
 10 12  1  0
 12 13  1  0
 12 14  2  0
 14 15  1  0
 14 16  1  0
 16 17  1  0
 16 18  2  0
 18 19  1  0
 19 20  1  0
 20 21  2  0
 20 22  1  0
 22 23  1  0
 23 24  2  0
 24 25  1  0
 24 26  1  0
 26 27  1  0
 26 28  2  0
 28 29  1  0
 28 30  1  0
 30 31  1  0
 30 32  2  0
 32 33  1  0
 18  9  1  0
 32 23  1  0
M  CHG  3  19  -1  22  -1  33  -1
M  END
>  <UniqueID>  (25) 
25

>  <SMILES>  (25) 
CO/N=C/c1ccc(Br)cc1[N-]C(=O)[N-]c1cccc(Cl)c1[O-]

>  <Energy>  (25) 
37.017426804393864

>  <Genealogy>  (25) 
CON=Cc1ccc(Br)cc1[N-]C(=O)[N-]c1cccc(Cl)c1[O-] (protonated)
CO/N=C/c1ccc(Br)cc1[N-]C(=O)[N-]c1cccc(Cl)c1[O-] (cis-trans isomerization)
CO/N=C/c1ccc(Br)cc1[N-]C(=O)[N-]c1cccc(Cl)c1[O-] (3D coordinates assigned)
CO/N=C/c1ccc(Br)cc1[N-]C(=O)[N-]c1cccc(Cl)c1[O-] (optimized conformer: 37.017426804393864 kcal/mol)

>  <smiles>  (25) 
CON=Cc1ccc(Br)cc1NC(=O)Nc1cccc(Cl)c1O

>  <score_type>  (25) 
oracle

>  <origin>  (25) 
adg

>  <m_score__min__energy>  (25) 
-15.52

>  <m_primary>  (25) 
energy

$$$$
25:0
     RDKit          3D

 56 58  0  0  0  0  0  0  0  0999 V2000
   63.4420   32.4340   48.1340 C   0  0  0  0  0  0  0  0  0  0  0  0
   62.2930   31.6340   47.5330 C   0  0  0  0  0  0  0  0  0  0  0  0
   61.4490   32.4770   46.7520 O   0  0  0  0  0  0  0  0  0  0  0  0
   60.0640   32.5610   46.9320 C   0  0  0  0  0  0  0  0  0  0  0  0
   59.3300   33.0260   46.0170 O   0  0  0  0  0  0  0  0  0  0  0  0
   59.4480   32.0810   48.1950 C   0  0  0  0  0  0  0  0  0  0  0  0
   59.5120   32.8160   49.3350 C   0  0  0  0  0  0  0  0  0  0  0  0
   60.2400   34.1280   49.4140 C   0  0  0  0  0  0  0  0  0  0  0  0
   58.8370   32.3660   50.5220 N   0  0  0  0  0  0  0  0  0  0  0  0
   58.3270   31.1780   50.6530 C   0  0  0  0  0  0  0  0  0  0  0  0
   57.6510   30.8130   51.9380 C   0  0  0  0  0  0  0  0  0  0  0  0
   58.5190   30.1510   49.5640 C   0  0  2  0  0  0  0  0  0  0  0  0
   59.7730   29.3560   49.8470 C   0  0  0  0  0  0  0  0  0  0  0  0
   59.9260   28.2180   49.3220 O   0  0  0  0  0  0  0  0  0  0  0  0
   60.7890   29.9000   50.7040 N   0  0  0  0  0  0  0  0  0  0  0  0
   61.8310   29.1160   51.3090 C   0  0  0  0  0  0  0  0  0  0  0  0
   61.5660   27.7860   51.6760 C   0  0  0  0  0  0  0  0  0  0  0  0
   62.5700   26.9960   52.2430 C   0  0  0  0  0  0  0  0  0  0  0  0
   63.8510   27.5210   52.4370 C   0  0  0  0  0  0  0  0  0  0  0  0
   65.1100   26.5250   53.1460 Cl  0  0  0  0  0  0  0  0  0  0  0  0
   64.1300   28.8350   52.0540 C   0  0  0  0  0  0  0  0  0  0  0  0
   63.1290   29.6290   51.4860 C   0  0  0  0  0  0  0  0  0  0  0  0
   58.5490   30.8490   48.1770 C   0  0  2  0  0  0  0  0  0  0  0  0
   58.9570   29.8600   47.0950 C   0  0  0  0  0  0  0  0  0  0  0  0
   58.1140   29.2320   46.2620 C   0  0  0  0  0  0  0  0  0  0  0  0
   57.6160   29.7930   44.9910 C   0  0  0  0  0  0  0  0  0  0  0  0
   58.3900   30.7150   44.2640 C   0  0  0  0  0  0  0  0  0  0  0  0
   57.9000   31.2650   43.0760 C   0  0  0  0  0  0  0  0  0  0  0  0
   56.6290   30.9150   42.6160 C   0  0  0  0  0  0  0  0  0  0  0  0
   55.8410   30.0200   43.3450 C   0  0  0  0  0  0  0  0  0  0  0  0
   56.3280   29.4640   44.5340 C   0  0  0  0  0  0  0  0  0  0  0  0
   55.5290   28.5780   45.2500 O   0  0  0  0  0  0  0  0  0  0  0  0
   63.3828   32.3928   49.2316 H   0  0  0  0  0  0  0  0  0  0  0  0
   64.3996   32.0063   47.8021 H   0  0  0  0  0  0  0  0  0  0  0  0
   63.3732   33.4805   47.8021 H   0  0  0  0  0  0  0  0  0  0  0  0
   62.7023   30.8389   46.8924 H   0  0  0  0  0  0  0  0  0  0  0  0
   61.6998   31.1971   48.3498 H   0  0  0  0  0  0  0  0  0  0  0  0
   60.3912   34.4005   50.4689 H   0  0  0  0  0  0  0  0  0  0  0  0
   61.2162   34.0362   48.9155 H   0  0  0  0  0  0  0  0  0  0  0  0
   59.6455   34.9078   48.9155 H   0  0  0  0  0  0  0  0  0  0  0  0
   58.2687   31.1465   52.7849 H   0  0  0  0  0  0  0  0  0  0  0  0
   56.6671   31.3025   51.9866 H   0  0  0  0  0  0  0  0  0  0  0  0
   57.5205   29.7218   51.9866 H   0  0  0  0  0  0  0  0  0  0  0  0
   57.6755   29.4451   49.5456 H   0  0  0  0  0  0  0  0  0  0  0  0
   60.8070   30.9350   50.8480 H   0  0  0  0  0  0  0  0  0  0  0  0
   60.5628   27.3640   51.5162 H   0  0  0  0  0  0  0  0  0  0  0  0
   62.3517   25.9588   52.5372 H   0  0  0  0  0  0  0  0  0  0  0  0
   65.1398   29.2462   52.1996 H   0  0  0  0  0  0  0  0  0  0  0  0
   63.3574   30.6594   51.1761 H   0  0  0  0  0  0  0  0  0  0  0  0
   57.5340   31.2022   47.9423 H   0  0  0  0  0  0  0  0  0  0  0  0
   60.0299   29.6425   46.9873 H   0  0  0  0  0  0  0  0  0  0  0  0
   57.7691   28.2269   46.5465 H   0  0  0  0  0  0  0  0  0  0  0  0
   59.3854   31.0046   44.6318 H   0  0  0  0  0  0  0  0  0  0  0  0
   58.5160   31.9739   42.5033 H   0  0  0  0  0  0  0  0  0  0  0  0
   56.2471   31.3445   41.6781 H   0  0  0  0  0  0  0  0  0  0  0  0
   54.8370   29.7521   42.9841 H   0  0  0  0  0  0  0  0  0  0  0  0
  1  2  1  0
  2  3  1  0
  3  4  1  0
  4  5  2  0
  4  6  1  0
  6  7  2  0
  7  8  1  0
  7  9  1  0
  9 10  2  0
 10 11  1  0
 10 12  1  0
 12 13  1  0
 13 14  2  0
 13 15  1  0
 15 16  1  0
 16 17  2  0
 17 18  1  0
 18 19  2  0
 19 20  1  0
 19 21  1  0
 21 22  2  0
 12 23  1  0
 23 24  1  0
 24 25  2  3
 25 26  1  0
 26 27  2  0
 27 28  1  0
 28 29  2  0
 29 30  1  0
 30 31  2  0
 31 32  1  0
 23  6  1  0
 31 26  1  0
 22 16  1  0
  1 33  1  0
  1 34  1  0
  1 35  1  0
  2 36  1  0
  2 37  1  0
  8 38  1  0
  8 39  1  0
  8 40  1  0
 11 41  1  0
 11 42  1  0
 11 43  1  0
 12 44  1  6
 15 45  1  0
 17 46  1  0
 18 47  1  0
 21 48  1  0
 22 49  1  0
 23 50  1  6
 24 51  1  0
 25 52  1  0
 27 53  1  0
 28 54  1  0
 29 55  1  0
 30 56  1  0
M  CHG  1  32  -1
M  END
>  <UniqueID>  (26) 
26

>  <SMILES>  (26) 
CCOC(=O)C1=C(C)N=C(C)[C@H](C(=O)Nc2ccc(Cl)cc2)[C@@H]1C=Cc1ccccc1[O-]

>  <Energy>  (26) 
68.37378978143249

>  <Genealogy>  (26) 
CCOC(=O)C1=C(C)N=C(C)C(C(=O)Nc2ccc(Cl)cc2)C1C=Cc1ccccc1[O-] (protonated)
CCOC(=O)C1=C(C)N=C(C)[C@H](C(=O)Nc2ccc(Cl)cc2)[C@@H]1C=Cc1ccccc1[O-] (chirality)
CCOC(=O)C1=C(C)N=C(C)[C@H](C(=O)Nc2ccc(Cl)cc2)[C@@H]1C=Cc1ccccc1[O-] (3D coordinates assigned)
CCOC(=O)C1=C(C)N=C(C)[C@H](C(=O)Nc2ccc(Cl)cc2)[C@@H]1C=Cc1ccccc1[O-] (nonaromatic ring conformer: 68.37378978143249 kcal/mol)

>  <smiles>  (26) 
CCOC(=O)C1=C(C)N=C(C)C(C(=O)Nc2ccc(Cl)cc2)C1C=Cc1ccccc1O

>  <score_type>  (26) 
oracle

>  <origin>  (26) 
adg

>  <m_score__min__energy>  (26) 
-11.43

>  <m_primary>  (26) 
energy

$$$$
26:0
     RDKit          3D

 57 60  0  0  0  0  0  0  0  0999 V2000
   59.7790   34.9710   48.5400 O   0  0  0  0  0  0  0  0  0  0  0  0
   60.5610   34.2130   49.1680 C   0  0  0  0  0  0  0  0  0  0  0  0
   61.9360   34.1650   48.7820 N   0  0  0  0  0  0  0  0  0  0  0  0
   62.5770   33.4000   47.3530 S   0  0  0  0  0  0  0  0  0  0  0  0
   63.7660   34.1840   46.8790 O   0  0  0  0  0  0  0  0  0  0  0  0
   61.5550   33.3590   46.2480 O   0  0  0  0  0  0  0  0  0  0  0  0
   63.1060   31.7350   47.7300 C   0  0  0  0  0  0  0  0  0  0  0  0
   61.9200   30.8340   47.9370 C   0  0  0  0  0  0  0  0  0  0  0  0
   61.4860   30.5260   49.2380 C   0  0  0  0  0  0  0  0  0  0  0  0
   60.3630   29.7160   49.4360 C   0  0  0  0  0  0  0  0  0  0  0  0
   59.6560   29.2220   48.3400 C   0  0  0  0  0  0  0  0  0  0  0  0
   60.0710   29.5310   47.0400 C   0  0  0  0  0  0  0  0  0  0  0  0
   61.2000   30.3340   46.8370 C   0  0  0  0  0  0  0  0  0  0  0  0
   60.0340   33.4220   50.2940 C   0  0  0  0  0  0  0  0  0  0  0  0
   60.6980   33.4910   51.5270 C   0  0  0  0  0  0  0  0  0  0  0  0
   60.2420   32.7430   52.6140 C   0  0  0  0  0  0  0  0  0  0  0  0
   59.1240   31.9210   52.4820 C   0  0  0  0  0  0  0  0  0  0  0  0
   58.4380   31.8590   51.2650 C   0  0  0  0  0  0  0  0  0  0  0  0
   58.8780   32.6090   50.1590 C   0  0  0  0  0  0  0  0  0  0  0  0
   58.0930   32.5540   48.8720 C   0  0  0  0  0  0  0  0  0  0  0  0
   58.9780   32.3610   47.7750 O   0  0  0  0  0  0  0  0  0  0  0  0
   58.6250   32.5410   46.4300 C   0  0  0  0  0  0  0  0  0  0  0  0
   58.7530   33.8200   45.8760 C   0  0  0  0  0  0  0  0  0  0  0  0
   58.4200   34.0500   44.5370 C   0  0  0  0  0  0  0  0  0  0  0  0
   57.9570   33.0010   43.7390 C   0  0  0  0  0  0  0  0  0  0  0  0
   57.8090   31.7130   44.2790 C   0  0  0  0  0  0  0  0  0  0  0  0
   57.3580   30.5700   43.4110 C   0  0  0  0  0  0  0  0  0  0  0  0
   57.3020   29.3250   44.1930 N   0  0  0  0  0  0  0  0  0  0  0  0
   58.3860   28.4890   44.1930 C   0  0  0  0  0  0  0  0  0  0  0  0
   58.3610   27.2910   44.9040 C   0  0  0  0  0  0  0  0  0  0  0  0
   57.2050   26.9610   45.6030 C   0  0  0  0  0  0  0  0  0  0  0  0
   57.1450   25.8890   46.2620 O   0  0  0  0  0  0  0  0  0  0  0  0
   56.1350   27.7970   45.5710 N   0  0  0  0  0  0  0  0  0  0  0  0
   56.1690   28.9630   44.8760 C   0  0  0  0  0  0  0  0  0  0  0  0
   55.1440   29.7030   44.8700 O   0  0  0  0  0  0  0  0  0  0  0  0
   58.1490   31.4850   45.6240 C   0  0  0  0  0  0  0  0  0  0  0  0
   63.7102   31.3504   46.8951 H   0  0  0  0  0  0  0  0  0  0  0  0
   63.7011   31.7541   48.6550 H   0  0  0  0  0  0  0  0  0  0  0  0
   62.0327   30.9243   50.1054 H   0  0  0  0  0  0  0  0  0  0  0  0
   60.0372   29.4684   50.4570 H   0  0  0  0  0  0  0  0  0  0  0  0
   58.7707   28.5885   48.4978 H   0  0  0  0  0  0  0  0  0  0  0  0
   59.5101   29.1429   46.1770 H   0  0  0  0  0  0  0  0  0  0  0  0
   61.5249   30.5746   45.8140 H   0  0  0  0  0  0  0  0  0  0  0  0
   61.5815   34.1369   51.6383 H   0  0  0  0  0  0  0  0  0  0  0  0
   60.7672   32.8026   53.5787 H   0  0  0  0  0  0  0  0  0  0  0  0
   58.7807   31.3199   53.3369 H   0  0  0  0  0  0  0  0  0  0  0  0
   57.5480   31.2193   51.1718 H   0  0  0  0  0  0  0  0  0  0  0  0
   57.3782   31.7190   48.9157 H   0  0  0  0  0  0  0  0  0  0  0  0
   57.5495   33.5008   48.7376 H   0  0  0  0  0  0  0  0  0  0  0  0
   59.1181   34.6504   46.4982 H   0  0  0  0  0  0  0  0  0  0  0  0
   58.5229   35.0591   44.1114 H   0  0  0  0  0  0  0  0  0  0  0  0
   57.7074   33.1845   42.6835 H   0  0  0  0  0  0  0  0  0  0  0  0
   56.3580   30.7917   43.0100 H   0  0  0  0  0  0  0  0  0  0  0  0
   58.0752   30.4424   42.5868 H   0  0  0  0  0  0  0  0  0  0  0  0
   59.2866   28.7661   43.6255 H   0  0  0  0  0  0  0  0  0  0  0  0
   59.2345   26.6225   44.9122 H   0  0  0  0  0  0  0  0  0  0  0  0
   58.0433   30.4767   46.0509 H   0  0  0  0  0  0  0  0  0  0  0  0
  1  2  2  0
  2  3  1  0
  3  4  1  0
  4  5  2  0
  4  6  2  0
  4  7  1  0
  7  8  1  0
  8  9  2  0
  9 10  1  0
 10 11  2  0
 11 12  1  0
 12 13  2  0
  2 14  1  0
 14 15  2  0
 15 16  1  0
 16 17  2  0
 17 18  1  0
 18 19  2  0
 19 20  1  0
 20 21  1  0
 21 22  1  0
 22 23  2  0
 23 24  1  0
 24 25  2  0
 25 26  1  0
 26 27  1  0
 27 28  1  0
 28 29  1  0
 29 30  2  0
 30 31  1  0
 31 32  2  0
 31 33  1  0
 33 34  1  0
 34 35  2  0
 26 36  2  0
 13  8  1  0
 19 14  1  0
 36 22  1  0
 34 28  1  0
  7 37  1  0
  7 38  1  0
  9 39  1  0
 10 40  1  0
 11 41  1  0
 12 42  1  0
 13 43  1  0
 15 44  1  0
 16 45  1  0
 17 46  1  0
 18 47  1  0
 20 48  1  0
 20 49  1  0
 23 50  1  0
 24 51  1  0
 25 52  1  0
 27 53  1  0
 27 54  1  0
 29 55  1  0
 30 56  1  0
 36 57  1  0
M  CHG  2   3  -1  33  -1
M  END
>  <UniqueID>  (27) 
27

>  <SMILES>  (27) 
O=C([N-]S(=O)(=O)Cc1ccccc1)c1ccccc1COc1cccc(Cn2ccc(=O)[n-]c2=O)c1

>  <Energy>  (27) 
66.54677431214695

>  <Genealogy>  (27) 
O=C([N-]S(=O)(=O)Cc1ccccc1)c1ccccc1COc1cccc(Cn2ccc(=O)[n-]c2=O)c1 (protonated)
O=C([N-]S(=O)(=O)Cc1ccccc1)c1ccccc1COc1cccc(Cn2ccc(=O)[n-]c2=O)c1 (3D coordinates assigned)
O=C([N-]S(=O)(=O)Cc1ccccc1)c1ccccc1COc1cccc(Cn2ccc(=O)[n-]c2=O)c1 (optimized conformer: 66.54677431214695 kcal/mol)

>  <smiles>  (27) 
O=C(NS(=O)(=O)Cc1ccccc1)c1ccccc1COc1cccc(Cn2ccc(=O)[nH]c2=O)c1

>  <score_type>  (27) 
oracle

>  <origin>  (27) 
adg

>  <m_score__min__energy>  (27) 
-13.279999999999999

>  <m_primary>  (27) 
energy

$$$$
27:0
     RDKit          3D

 70 73  0  0  0  0  0  0  0  0999 V2000
   54.5140   23.7530   44.2660 C   0  0  0  0  0  0  0  0  0  0  0  0
   55.2690   23.6230   45.3600 C   0  0  0  0  0  0  0  0  0  0  0  0
   56.4160   24.5300   45.5800 C   0  0  0  0  0  0  0  0  0  0  0  0
   56.3670   25.8890   45.8620 C   0  0  0  0  0  0  0  0  0  0  0  0
   55.2240   26.6760   45.9910 O   0  0  0  0  0  0  0  0  0  0  0  0
   57.6210   26.3470   46.0480 N   0  0  0  0  0  0  0  0  0  0  0  0
   58.0330   27.7050   46.4120 C   0  0  0  0  0  0  0  0  0  0  0  0
   58.9020   28.3370   45.3130 C   0  0  0  0  0  0  0  0  0  0  0  0
   58.6110   29.8280   45.0700 C   0  0  0  0  0  0  0  0  0  0  0  0
   57.1160   30.1080   44.8600 C   0  0  0  0  0  0  0  0  0  0  0  0
   56.8040   31.4630   45.1830 O   0  0  0  0  0  0  0  0  0  0  0  0
   57.7390   32.5020   45.3450 C   0  0  0  0  0  0  0  0  0  0  0  0
   57.9880   33.4580   44.3390 C   0  0  0  0  0  0  0  0  0  0  0  0
   58.9260   34.4730   44.5470 C   0  0  0  0  0  0  0  0  0  0  0  0
   59.6270   34.5410   45.7500 C   0  0  0  0  0  0  0  0  0  0  0  0
   59.3870   33.6030   46.7540 C   0  0  0  0  0  0  0  0  0  0  0  0
   58.4280   32.5920   46.5660 C   0  0  0  0  0  0  0  0  0  0  0  0
   58.1490   31.6340   47.5970 N   0  0  0  0  0  0  0  0  0  0  0  0
   59.1280   30.8840   48.3270 C   0  0  0  0  0  0  0  0  0  0  0  0
   59.0930   29.6270   48.2810 O   0  0  0  0  0  0  0  0  0  0  0  0
   60.1450   31.5240   49.1110 N   0  0  0  0  0  0  0  0  0  0  0  0
   61.3650   32.0870   48.6030 C   0  0  0  0  0  0  0  0  0  0  0  0
   62.1280   31.4240   47.6250 C   0  0  0  0  0  0  0  0  0  0  0  0
   63.3140   31.9950   47.1530 C   0  0  0  0  0  0  0  0  0  0  0  0
   63.7370   33.2350   47.6390 C   0  0  0  0  0  0  0  0  0  0  0  0
   62.9690   33.9100   48.5910 C   0  0  0  0  0  0  0  0  0  0  0  0
   61.7820   33.3420   49.0670 C   0  0  0  0  0  0  0  0  0  0  0  0
   61.0510   34.0030   49.9990 F   0  0  0  0  0  0  0  0  0  0  0  0
   58.4110   25.2640   45.8930 C   0  0  0  0  0  0  0  0  0  0  0  0
   59.6660   25.2920   46.0170 O   0  0  0  0  0  0  0  0  0  0  0  0
   57.7140   24.1470   45.5970 N   0  0  0  0  0  0  0  0  0  0  0  0
   58.2510   22.8030   45.3920 C   0  0  0  0  0  0  0  0  0  0  0  0
   54.9660   22.6110   46.3370 N   0  0  0  0  0  0  0  0  0  0  0  0
   55.1790   21.1980   45.9910 C   0  0  0  0  0  0  0  0  0  0  0  0
   54.7640   20.2690   47.1370 C   0  0  0  0  0  0  0  0  0  0  0  0
   55.3760   20.7290   48.4690 C   0  0  0  0  0  0  0  0  0  0  0  0
   55.1730   22.2360   48.7580 C   0  0  0  0  0  0  0  0  0  0  0  0
   54.4110   22.9700   47.6490 C   0  0  0  0  0  0  0  0  0  0  0  0
   53.6609   23.0779   44.1030 H   0  0  0  0  0  0  0  0  0  0  0  0
   54.7452   24.5352   43.5279 H   0  0  0  0  0  0  0  0  0  0  0  0
   55.1460   27.5810   45.5450 H   0  0  0  0  0  0  0  0  0  0  0  0
   57.1360   28.3242   46.5603 H   0  0  0  0  0  0  0  0  0  0  0  0
   58.6260   27.6523   47.3370 H   0  0  0  0  0  0  0  0  0  0  0  0
   59.9579   28.2328   45.6033 H   0  0  0  0  0  0  0  0  0  0  0  0
   58.6679   27.8088   44.3769 H   0  0  0  0  0  0  0  0  0  0  0  0
   58.9585   30.4020   45.9417 H   0  0  0  0  0  0  0  0  0  0  0  0
   59.1394   30.1268   44.1526 H   0  0  0  0  0  0  0  0  0  0  0  0
   56.8582   29.9196   43.8074 H   0  0  0  0  0  0  0  0  0  0  0  0
   56.5370   29.4457   45.5204 H   0  0  0  0  0  0  0  0  0  0  0  0
   57.4414   33.4047   43.3859 H   0  0  0  0  0  0  0  0  0  0  0  0
   59.1114   35.2192   43.7604 H   0  0  0  0  0  0  0  0  0  0  0  0
   60.3708   35.3359   45.9078 H   0  0  0  0  0  0  0  0  0  0  0  0
   59.9506   33.6544   47.6973 H   0  0  0  0  0  0  0  0  0  0  0  0
   61.7910   30.4541   47.2305 H   0  0  0  0  0  0  0  0  0  0  0  0
   63.9150   31.4672   46.3979 H   0  0  0  0  0  0  0  0  0  0  0  0
   64.6740   33.6793   47.2722 H   0  0  0  0  0  0  0  0  0  0  0  0
   63.2980   34.8899   48.9672 H   0  0  0  0  0  0  0  0  0  0  0  0
   58.4397   22.3308   46.3674 H   0  0  0  0  0  0  0  0  0  0  0  0
   57.5247   22.2002   44.8272 H   0  0  0  0  0  0  0  0  0  0  0  0
   59.1928   22.8666   44.8272 H   0  0  0  0  0  0  0  0  0  0  0  0
   54.5819   20.9546   45.0998 H   0  0  0  0  0  0  0  0  0  0  0  0
   56.2515   21.0486   45.7975 H   0  0  0  0  0  0  0  0  0  0  0  0
   53.6675   20.2736   47.2245 H   0  0  0  0  0  0  0  0  0  0  0  0
   55.1291   19.2553   46.9156 H   0  0  0  0  0  0  0  0  0  0  0  0
   54.9104   20.1533   49.2825 H   0  0  0  0  0  0  0  0  0  0  0  0
   56.4604   20.5573   48.4015 H   0  0  0  0  0  0  0  0  0  0  0  0
   54.6079   22.3383   49.6962 H   0  0  0  0  0  0  0  0  0  0  0  0
   56.1719   22.6921   48.8231 H   0  0  0  0  0  0  0  0  0  0  0  0
   53.3493   22.6848   47.6860 H   0  0  0  0  0  0  0  0  0  0  0  0
   54.5107   24.0551   47.7991 H   0  0  0  0  0  0  0  0  0  0  0  0
  1  2  2  0
  2  3  1  0
  3  4  2  0
  4  5  1  0
  4  6  1  0
  6  7  1  0
  7  8  1  0
  8  9  1  0
  9 10  1  0
 10 11  1  0
 11 12  1  0
 12 13  2  0
 13 14  1  0
 14 15  2  0
 15 16  1  0
 16 17  2  0
 17 18  1  0
 18 19  1  0
 19 20  2  0
 19 21  1  0
 21 22  1  0
 22 23  2  0
 23 24  1  0
 24 25  2  0
 25 26  1  0
 26 27  2  0
 27 28  1  0
  6 29  1  0
 29 30  2  0
 29 31  1  0
 31 32  1  0
  2 33  1  0
 33 34  1  0
 34 35  1  0
 35 36  1  0
 36 37  1  0
 37 38  1  0
 31  3  1  0
 38 33  1  0
 17 12  1  0
 27 22  1  0
  1 39  1  0
  1 40  1  0
  5 41  1  0
  7 42  1  0
  7 43  1  0
  8 44  1  0
  8 45  1  0
  9 46  1  0
  9 47  1  0
 10 48  1  0
 10 49  1  0
 13 50  1  0
 14 51  1  0
 15 52  1  0
 16 53  1  0
 23 54  1  0
 24 55  1  0
 25 56  1  0
 26 57  1  0
 32 58  1  0
 32 59  1  0
 32 60  1  0
 34 61  1  0
 34 62  1  0
 35 63  1  0
 35 64  1  0
 36 65  1  0
 36 66  1  0
 37 67  1  0
 37 68  1  0
 38 69  1  0
 38 70  1  0
M  CHG  2  18  -1  21  -1
M  END
>  <UniqueID>  (28) 
28

>  <SMILES>  (28) 
C=C(c1c(O)n(CCCCOc2ccccc2[N-]C(=O)[N-]c2ccccc2F)c(=O)n1C)N1CCCCC1

>  <Energy>  (28) 
115.82725308432195

>  <Genealogy>  (28) 
C=C(c1c(O)n(CCCCOc2ccccc2[N-]C(=O)[N-]c2ccccc2F)c(=O)n1C)N1CCCCC1 (protonated)
C=C(c1c(O)n(CCCCOc2ccccc2[N-]C(=O)[N-]c2ccccc2F)c(=O)n1C)N1CCCCC1 (3D coordinates assigned)
C=C(c1c(O)n(CCCCOc2ccccc2[N-]C(=O)[N-]c2ccccc2F)c(=O)n1C)N1CCCCC1 (nonaromatic ring conformer: 115.82725308432195 kcal/mol)

>  <smiles>  (28) 
C=C(c1c(O)n(CCCCOc2ccccc2NC(=O)Nc2ccccc2F)c(=O)n1C)N1CCCCC1

>  <score_type>  (28) 
oracle

>  <origin>  (28) 
adg

>  <m_score__min__energy>  (28) 
-12.5

>  <m_primary>  (28) 
energy

$$$$
28:0
     RDKit          3D

 34 35  0  0  0  0  0  0  0  0999 V2000
   55.1460   26.6940   45.9930 O   0  0  0  0  0  0  0  0  0  0  0  0
   55.1220   25.4370   45.9240 C   0  0  0  0  0  0  0  0  0  0  0  0
   53.9330   24.7870   45.6180 O   0  0  0  0  0  0  0  0  0  0  0  0
   56.3800   24.6470   46.1180 C   0  0  0  0  0  0  0  0  0  0  0  0
   57.5470   25.5170   46.5190 C   0  0  0  0  0  0  0  0  0  0  0  0
   58.2990   25.1490   47.4650 O   0  0  0  0  0  0  0  0  0  0  0  0
   57.8050   26.8230   45.8550 C   0  0  0  0  0  0  0  0  0  0  0  0
   57.8330   26.9040   44.4510 C   0  0  0  0  0  0  0  0  0  0  0  0
   58.0780   28.1230   43.8130 C   0  0  0  0  0  0  0  0  0  0  0  0
   58.3070   29.2880   44.5580 C   0  0  0  0  0  0  0  0  0  0  0  0
   58.5630   30.5240   43.8650 N   0  0  0  0  0  0  0  0  0  0  0  0
   57.6000   31.9550   44.0490 S   0  0  0  0  0  0  0  0  0  0  0  0
   57.5030   32.6610   42.7260 O   0  0  0  0  0  0  0  0  0  0  0  0
   56.2190   31.5660   44.4970 O   0  0  0  0  0  0  0  0  0  0  0  0
   58.3490   33.0420   45.2140 C   0  0  0  0  0  0  0  0  0  0  0  0
   58.2880   32.7500   46.5850 C   0  0  0  0  0  0  0  0  0  0  0  0
   58.8720   33.6170   47.5140 C   0  0  0  0  0  0  0  0  0  0  0  0
   59.5220   34.7750   47.0800 C   0  0  0  0  0  0  0  0  0  0  0  0
   59.5900   35.0680   45.7150 C   0  0  0  0  0  0  0  0  0  0  0  0
   59.0060   34.2040   44.7820 C   0  0  0  0  0  0  0  0  0  0  0  0
   58.2770   29.2130   45.9620 C   0  0  0  0  0  0  0  0  0  0  0  0
   58.0330   27.9940   46.6030 C   0  0  0  0  0  0  0  0  0  0  0  0
   56.2097   23.8985   46.9058 H   0  0  0  0  0  0  0  0  0  0  0  0
   56.6295   24.1707   45.1584 H   0  0  0  0  0  0  0  0  0  0  0  0
   57.6604   25.9993   43.8495 H   0  0  0  0  0  0  0  0  0  0  0  0
   58.0913   28.1687   42.7140 H   0  0  0  0  0  0  0  0  0  0  0  0
   59.4140   30.6010   43.2650 H   0  0  0  0  0  0  0  0  0  0  0  0
   57.7798   31.8374   46.9298 H   0  0  0  0  0  0  0  0  0  0  0  0
   58.8195   33.3868   48.5884 H   0  0  0  0  0  0  0  0  0  0  0  0
   59.9802   35.4560   47.8123 H   0  0  0  0  0  0  0  0  0  0  0  0
   60.1033   35.9791   45.3737 H   0  0  0  0  0  0  0  0  0  0  0  0
   59.0621   34.4362   43.7082 H   0  0  0  0  0  0  0  0  0  0  0  0
   58.4467   30.1200   46.5607 H   0  0  0  0  0  0  0  0  0  0  0  0
   58.0191   27.9497   47.7020 H   0  0  0  0  0  0  0  0  0  0  0  0
  1  2  2  0
  2  3  1  0
  2  4  1  0
  4  5  1  0
  5  6  2  0
  5  7  1  0
  7  8  2  0
  8  9  1  0
  9 10  2  0
 10 11  1  0
 11 12  1  0
 12 13  2  0
 12 14  2  0
 12 15  1  0
 15 16  2  0
 16 17  1  0
 17 18  2  0
 18 19  1  0
 19 20  2  0
 10 21  1  0
 21 22  2  0
 22  7  1  0
 20 15  1  0
  4 23  1  0
  4 24  1  0
  8 25  1  0
  9 26  1  0
 11 27  1  0
 16 28  1  0
 17 29  1  0
 18 30  1  0
 19 31  1  0
 20 32  1  0
 21 33  1  0
 22 34  1  0
M  CHG  1   3  -1
M  END
>  <UniqueID>  (29) 
29

>  <SMILES>  (29) 
O=C([O-])CC(=O)c1ccc(NS(=O)(=O)c2ccccc2)cc1

>  <Energy>  (29) 
38.56900838461452

>  <Genealogy>  (29) 
O=C([O-])CC(=O)c1ccc(NS(=O)(=O)c2ccccc2)cc1 (protonated)
O=C([O-])CC(=O)c1ccc(NS(=O)(=O)c2ccccc2)cc1 (3D coordinates assigned)
O=C([O-])CC(=O)c1ccc(NS(=O)(=O)c2ccccc2)cc1 (optimized conformer: 38.56900838461452 kcal/mol)

>  <smiles>  (29) 
O=C(O)CC(=O)c1ccc(NS(=O)(=O)c2ccccc2)cc1

>  <score_type>  (29) 
oracle

>  <origin>  (29) 
adg

>  <m_score__min__energy>  (29) 
-11.039999999999999

>  <m_primary>  (29) 
energy

$$$$
29:0
     RDKit          3D

 43 46  0  0  0  0  0  0  0  0999 V2000
   64.3680   33.0510   48.9260 C   0  0  0  0  0  0  0  0  0  0  0  0
   63.1730   33.4240   48.1630 N   0  0  0  0  0  0  0  0  0  0  0  0
   63.3000   33.7850   46.7440 C   0  0  0  0  0  0  0  0  0  0  0  0
   61.8870   33.4360   48.8300 C   0  0  0  0  0  0  0  0  0  0  0  0
   60.6860   33.1880   48.1340 C   0  0  0  0  0  0  0  0  0  0  0  0
   59.4590   33.2240   48.8200 C   0  0  0  0  0  0  0  0  0  0  0  0
   58.2420   32.9790   48.1700 O   0  0  0  0  0  0  0  0  0  0  0  0
   58.1050   32.3880   46.9050 C   0  0  0  0  0  0  0  0  0  0  0  0
   57.8410   33.1630   45.7420 C   0  0  0  0  0  0  0  0  0  0  0  0
   57.6980   32.5480   44.4860 C   0  0  0  0  0  0  0  0  0  0  0  0
   57.8120   31.1620   44.4230 C   0  0  0  0  0  0  0  0  0  0  0  0
   57.7330   30.3870   43.3260 N   0  0  0  0  0  0  0  0  0  0  0  0
   57.9260   29.1180   43.7510 C   0  0  0  0  0  0  0  0  0  0  0  0
   58.1130   29.0910   45.1300 C   0  0  0  0  0  0  0  0  0  0  0  0
   58.4250   27.8850   45.9640 C   0  0  0  0  0  0  0  0  0  0  0  0
   57.2030   27.0330   46.1130 C   0  0  0  0  0  0  0  0  0  0  0  0
   57.2140   25.7690   46.5730 N   0  0  0  0  0  0  0  0  0  0  0  0
   55.9190   25.3950   46.4780 C   0  0  0  0  0  0  0  0  0  0  0  0
   55.5160   24.2540   46.8250 O   0  0  0  0  0  0  0  0  0  0  0  0
   55.0910   26.3370   45.9770 N   0  0  0  0  0  0  0  0  0  0  0  0
   55.9200   27.3660   45.7470 C   0  0  0  0  0  0  0  0  0  0  0  0
   55.5180   28.5820   45.2100 O   0  0  0  0  0  0  0  0  0  0  0  0
   58.0470   30.4070   45.5420 C   0  0  0  0  0  0  0  0  0  0  0  0
   58.1940   30.9870   46.8020 C   0  0  0  0  0  0  0  0  0  0  0  0
   59.4520   33.4690   50.1940 C   0  0  0  0  0  0  0  0  0  0  0  0
   60.6560   33.7100   50.8550 C   0  0  0  0  0  0  0  0  0  0  0  0
   61.8280   33.6910   50.1690 N   0  0  0  0  0  0  0  0  0  0  0  0
   64.1516   33.1185   50.0024 H   0  0  0  0  0  0  0  0  0  0  0  0
   64.6569   32.0199   48.6740 H   0  0  0  0  0  0  0  0  0  0  0  0
   65.1921   33.7346   48.6740 H   0  0  0  0  0  0  0  0  0  0  0  0
   63.6640   34.8196   46.6600 H   0  0  0  0  0  0  0  0  0  0  0  0
   64.0128   33.1047   46.2550 H   0  0  0  0  0  0  0  0  0  0  0  0
   62.3183   33.7008   46.2550 H   0  0  0  0  0  0  0  0  0  0  0  0
   60.7089   32.9668   47.0567 H   0  0  0  0  0  0  0  0  0  0  0  0
   57.7477   34.2558   45.8263 H   0  0  0  0  0  0  0  0  0  0  0  0
   57.5023   33.1430   43.5818 H   0  0  0  0  0  0  0  0  0  0  0  0
   57.5720   30.7000   42.3430 H   0  0  0  0  0  0  0  0  0  0  0  0
   57.9341   28.2321   43.0990 H   0  0  0  0  0  0  0  0  0  0  0  0
   59.2189   27.3005   45.4760 H   0  0  0  0  0  0  0  0  0  0  0  0
   58.7596   28.2122   46.9595 H   0  0  0  0  0  0  0  0  0  0  0  0
   58.3747   30.3659   47.6917 H   0  0  0  0  0  0  0  0  0  0  0  0
   58.5037   33.4720   50.7514 H   0  0  0  0  0  0  0  0  0  0  0  0
   60.6565   33.9162   51.9355 H   0  0  0  0  0  0  0  0  0  0  0  0
  1  2  1  0
  2  3  1  0
  2  4  1  0
  4  5  2  0
  5  6  1  0
  6  7  1  0
  7  8  1  0
  8  9  2  0
  9 10  1  0
 10 11  2  0
 11 12  1  0
 12 13  1  0
 13 14  2  0
 14 15  1  0
 15 16  1  0
 16 17  1  0
 17 18  1  0
 18 19  2  0
 18 20  1  0
 20 21  1  0
 21 22  1  0
 14 23  1  0
 23 24  2  0
  6 25  2  0
 25 26  1  0
 26 27  2  0
 27  4  1  0
 24  8  1  0
 23 11  1  0
 21 16  2  0
  1 28  1  0
  1 29  1  0
  1 30  1  0
  3 31  1  0
  3 32  1  0
  3 33  1  0
  5 34  1  0
  9 35  1  0
 10 36  1  0
 12 37  1  0
 13 38  1  0
 15 39  1  0
 15 40  1  0
 24 41  1  0
 25 42  1  0
 26 43  1  0
M  CHG  3  17  -1  20  -1  22  -1
M  END
>  <UniqueID>  (30) 
30

>  <SMILES>  (30) 
CN(C)c1cc(Oc2ccc3[nH]cc(Cc4[n-]c(=O)[n-]c4[O-])c3c2)ccn1

>  <Energy>  (30) 
113.08793480901493

>  <Genealogy>  (30) 
CN(C)c1cc(Oc2ccc3[nH]cc(Cc4[n-]c(=O)[n-]c4[O-])c3c2)ccn1 (protonated)
CN(C)c1cc(Oc2ccc3[nH]cc(Cc4[n-]c(=O)[n-]c4[O-])c3c2)ccn1 (3D coordinates assigned)
CN(C)c1cc(Oc2ccc3[nH]cc(Cc4[n-]c(=O)[n-]c4[O-])c3c2)ccn1 (optimized conformer: 113.08793480901493 kcal/mol)

>  <smiles>  (30) 
CN(C)c1cc(Oc2ccc3[nH]cc(Cc4[nH]c(=O)[nH]c4O)c3c2)ccn1

>  <score_type>  (30) 
oracle

>  <origin>  (30) 
adg

>  <m_score__min__energy>  (30) 
-16.530000000000001

>  <m_primary>  (30) 
energy

$$$$
30:0
     RDKit          3D

 38 40  0  0  0  0  0  0  0  0999 V2000
   59.4370   29.9220   45.0990 O   0  0  0  0  0  0  0  0  0  0  0  0
   58.4750   30.7310   45.0220 C   0  0  0  0  0  0  0  0  0  0  0  0
   57.1540   30.2520   44.5440 C   0  0  0  0  0  0  0  0  0  0  0  0
   56.6150   30.8010   43.5470 O   0  0  0  0  0  0  0  0  0  0  0  0
   56.4640   29.1630   45.1830 N   0  0  0  0  0  0  0  0  0  0  0  0
   55.1570   28.9690   44.8870 O   0  0  0  0  0  0  0  0  0  0  0  0
   57.1610   28.1250   45.9510 C   0  0  0  0  0  0  0  0  0  0  0  0
   57.1670   26.8140   45.2020 C   0  0  0  0  0  0  0  0  0  0  0  0
   57.7510   26.7560   43.9240 C   0  0  0  0  0  0  0  0  0  0  0  0
   57.7720   25.5560   43.2070 C   0  0  0  0  0  0  0  0  0  0  0  0
   57.2080   24.4020   43.7570 C   0  0  0  0  0  0  0  0  0  0  0  0
   56.6190   24.4480   45.0240 C   0  0  0  0  0  0  0  0  0  0  0  0
   56.5890   25.6470   45.7460 C   0  0  0  0  0  0  0  0  0  0  0  0
   55.9790   25.6670   46.9960 O   0  0  0  0  0  0  0  0  0  0  0  0
   58.7140   32.1420   45.4010 C   0  0  0  0  0  0  0  0  0  0  0  0
   58.1610   33.1670   44.6170 C   0  0  0  0  0  0  0  0  0  0  0  0
   58.3920   34.5060   44.9390 C   0  0  0  0  0  0  0  0  0  0  0  0
   59.1830   34.8360   46.0420 C   0  0  0  0  0  0  0  0  0  0  0  0
   59.7480   33.8260   46.8350 C   0  0  0  0  0  0  0  0  0  0  0  0
   60.6360   34.1790   47.9950 C   0  0  0  0  0  0  0  0  0  0  0  0
   62.0360   33.7300   47.7270 C   0  0  0  0  0  0  0  0  0  0  0  0
   62.8870   33.2920   48.6720 N   0  0  0  0  0  0  0  0  0  0  0  0
   64.0160   33.0610   48.0220 N   0  0  0  0  0  0  0  0  0  0  0  0
   63.8640   33.3560   46.7400 N   0  0  0  0  0  0  0  0  0  0  0  0
   62.6310   33.7850   46.5220 N   0  0  0  0  0  0  0  0  0  0  0  0
   59.5230   32.4810   46.5010 C   0  0  0  0  0  0  0  0  0  0  0  0
   58.1989   28.4436   46.1279 H   0  0  0  0  0  0  0  0  0  0  0  0
   56.6352   27.9817   46.9065 H   0  0  0  0  0  0  0  0  0  0  0  0
   58.1947   27.6618   43.4851 H   0  0  0  0  0  0  0  0  0  0  0  0
   58.2330   25.5203   42.2089 H   0  0  0  0  0  0  0  0  0  0  0  0
   57.2274   23.4576   43.1933 H   0  0  0  0  0  0  0  0  0  0  0  0
   56.1771   23.5378   45.4556 H   0  0  0  0  0  0  0  0  0  0  0  0
   57.5419   32.9138   43.7437 H   0  0  0  0  0  0  0  0  0  0  0  0
   57.9500   35.3027   44.3226 H   0  0  0  0  0  0  0  0  0  0  0  0
   59.3637   35.8924   46.2899 H   0  0  0  0  0  0  0  0  0  0  0  0
   60.6257   35.2691   48.1422 H   0  0  0  0  0  0  0  0  0  0  0  0
   60.2637   33.6750   48.8991 H   0  0  0  0  0  0  0  0  0  0  0  0
   59.9834   31.6851   47.1048 H   0  0  0  0  0  0  0  0  0  0  0  0
  1  2  2  0
  2  3  1  0
  3  4  2  0
  3  5  1  0
  5  6  1  0
  5  7  1  0
  7  8  1  0
  8  9  2  0
  9 10  1  0
 10 11  2  0
 11 12  1  0
 12 13  2  0
 13 14  1  0
  2 15  1  0
 15 16  2  0
 16 17  1  0
 17 18  2  0
 18 19  1  0
 19 20  1  0
 20 21  1  0
 21 22  1  0
 22 23  2  0
 23 24  1  0
 24 25  1  0
 19 26  2  0
 13  8  1  0
 26 15  1  0
 25 21  2  0
  7 27  1  0
  7 28  1  0
  9 29  1  0
 10 30  1  0
 11 31  1  0
 12 32  1  0
 16 33  1  0
 17 34  1  0
 18 35  1  0
 20 36  1  0
 20 37  1  0
 26 38  1  0
M  CHG  3   6  -1  14  -1  24  -1
M  END
>  <UniqueID>  (31) 
31

>  <SMILES>  (31) 
O=C(C(=O)N([O-])Cc1ccccc1[O-])c1cccc(Cc2nn[n-]n2)c1

>  <Energy>  (31) 
84.27440863366498

>  <Genealogy>  (31) 
O=C(C(=O)N([O-])Cc1ccccc1[O-])c1cccc(Cc2nn[n-]n2)c1 (protonated)
O=C(C(=O)N([O-])Cc1ccccc1[O-])c1cccc(Cc2nn[n-]n2)c1 (3D coordinates assigned)
O=C(C(=O)N([O-])Cc1ccccc1[O-])c1cccc(Cc2nn[n-]n2)c1 (optimized conformer: 84.27440863366498 kcal/mol)

>  <smiles>  (31) 
O=C(C(=O)N(O)Cc1ccccc1O)c1cccc(Cc2nn[nH]n2)c1

>  <score_type>  (31) 
oracle

>  <origin>  (31) 
adg

>  <m_score__min__energy>  (31) 
-15.94

>  <m_primary>  (31) 
energy

$$$$
31:0
     RDKit          3D

 34 36  0  0  0  0  0  0  0  0999 V2000
   56.3230   25.2220   47.1390 O   0  0  0  0  0  0  0  0  0  0  0  0
   56.0450   26.1130   46.2930 C   0  0  0  0  0  0  0  0  0  0  0  0
   54.7150   26.3370   45.9600 O   0  0  0  0  0  0  0  0  0  0  0  0
   57.1230   26.9100   45.6650 C   0  0  0  0  0  0  0  0  0  0  0  0
   57.8800   27.8070   46.4360 C   0  0  0  0  0  0  0  0  0  0  0  0
   58.9040   28.5590   45.8360 C   0  0  0  0  0  0  0  0  0  0  0  0
   59.7130   29.5120   46.6380 C   0  0  0  0  0  0  0  0  0  0  0  0
   59.8660   30.8470   46.2240 C   0  0  0  0  0  0  0  0  0  0  0  0
   60.6260   31.7440   46.9790 C   0  0  0  0  0  0  0  0  0  0  0  0
   61.2520   31.3270   48.1670 C   0  0  0  0  0  0  0  0  0  0  0  0
   62.0600   32.2800   48.9700 C   0  0  0  0  0  0  0  0  0  0  0  0
   63.4130   32.5130   48.6570 C   0  0  0  0  0  0  0  0  0  0  0  0
   64.1700   33.4110   49.4140 C   0  0  0  0  0  0  0  0  0  0  0  0
   63.5890   34.0840   50.4930 C   0  0  0  0  0  0  0  0  0  0  0  0
   62.2490   33.8610   50.8140 C   0  0  0  0  0  0  0  0  0  0  0  0
   61.4860   32.9650   50.0580 C   0  0  0  0  0  0  0  0  0  0  0  0
   61.0980   29.9920   48.5820 C   0  0  0  0  0  0  0  0  0  0  0  0
   60.3380   29.0960   47.8270 C   0  0  0  0  0  0  0  0  0  0  0  0
   59.1480   28.3940   44.4650 C   0  0  0  0  0  0  0  0  0  0  0  0
   58.3770   27.4950   43.7280 C   0  0  0  0  0  0  0  0  0  0  0  0
   57.3910   26.7790   44.3310 N   0  0  0  0  0  0  0  0  0  0  0  0
   57.6712   27.9209   47.5100 H   0  0  0  0  0  0  0  0  0  0  0  0
   59.3827   31.1885   45.2968 H   0  0  0  0  0  0  0  0  0  0  0  0
   60.7355   32.7851   46.6412 H   0  0  0  0  0  0  0  0  0  0  0  0
   63.8770   31.9847   47.8111 H   0  0  0  0  0  0  0  0  0  0  0  0
   65.2255   33.5888   49.1604 H   0  0  0  0  0  0  0  0  0  0  0  0
   64.1876   34.7889   51.0887 H   0  0  0  0  0  0  0  0  0  0  0  0
   61.7923   34.3908   51.6629 H   0  0  0  0  0  0  0  0  0  0  0  0
   60.4302   32.7944   50.3153 H   0  0  0  0  0  0  0  0  0  0  0  0
   61.5805   29.6505   49.5097 H   0  0  0  0  0  0  0  0  0  0  0  0
   60.2273   28.0553   48.1655 H   0  0  0  0  0  0  0  0  0  0  0  0
   59.9444   28.9713   43.9726 H   0  0  0  0  0  0  0  0  0  0  0  0
   58.5679   27.3646   42.6526 H   0  0  0  0  0  0  0  0  0  0  0  0
   56.8350   26.1170   43.7430 H   0  0  0  0  0  0  0  0  0  0  0  0
  1  2  2  0
  2  3  1  0
  2  4  1  0
  4  5  2  0
  5  6  1  0
  6  7  1  0
  7  8  2  0
  8  9  1  0
  9 10  2  0
 10 11  1  0
 11 12  2  0
 12 13  1  0
 13 14  2  0
 14 15  1  0
 15 16  2  0
 10 17  1  0
 17 18  2  0
  6 19  2  0
 19 20  1  0
 20 21  2  0
 21  4  1  0
 18  7  1  0
 16 11  1  0
  5 22  1  0
  8 23  1  0
  9 24  1  0
 12 25  1  0
 13 26  1  0
 14 27  1  0
 15 28  1  0
 16 29  1  0
 17 30  1  0
 18 31  1  0
 19 32  1  0
 20 33  1  0
 21 34  1  0
M  CHG  2   3  -1  21   1
M  END
>  <UniqueID>  (32) 
32

>  <SMILES>  (32) 
O=C([O-])c1cc(-c2ccc(-c3ccccc3)cc2)cc[nH+]1

>  <Energy>  (32) 
48.094485287793376

>  <Genealogy>  (32) 
O=C([O-])c1cc(-c2ccc(-c3ccccc3)cc2)cc[nH+]1 (protonated)
O=C([O-])c1cc(-c2ccc(-c3ccccc3)cc2)cc[nH+]1 (3D coordinates assigned)
O=C([O-])c1cc(-c2ccc(-c3ccccc3)cc2)cc[nH+]1 (optimized conformer: 48.094485287793376 kcal/mol)

>  <smiles>  (32) 
O=C(O)c1cc(-c2ccc(-c3ccccc3)cc2)ccn1

>  <score_type>  (32) 
oracle

>  <origin>  (32) 
adg

>  <m_score__min__energy>  (32) 
-8.25

>  <m_primary>  (32) 
energy

$$$$
32:0
     RDKit          3D

 52 55  0  0  0  0  0  0  0  0999 V2000
   59.4724   34.1148   51.1341 H   0  0  0  0  0  0  0  0  0  0  0  0
   59.6330   33.5500   50.2040 C   0  0  0  0  0  0  0  0  0  0  0  0
   59.6180   32.1940   50.2270 N   0  0  0  0  0  0  0  0  0  0  0  0
   59.8100   31.4570   49.1030 C   0  0  0  0  0  0  0  0  0  0  0  0
   59.7910   30.0590   49.1810 C   0  0  0  0  0  0  0  0  0  0  0  0
   59.6165   29.5661   50.1488 H   0  0  0  0  0  0  0  0  0  0  0  0
   59.9930   29.2880   48.0330 C   0  0  0  0  0  0  0  0  0  0  0  0
   59.9710   27.5370   48.1370 Cl  0  0  0  0  0  0  0  0  0  0  0  0
   60.2130   29.9110   46.8010 C   0  0  0  0  0  0  0  0  0  0  0  0
   60.3694   29.3013   45.8989 H   0  0  0  0  0  0  0  0  0  0  0  0
   60.2350   31.3060   46.7110 C   0  0  0  0  0  0  0  0  0  0  0  0
   60.4102   31.7882   45.7380 H   0  0  0  0  0  0  0  0  0  0  0  0
   60.0340   32.0990   47.8600 C   0  0  0  0  0  0  0  0  0  0  0  0
   60.0580   33.5100   47.8120 C   0  0  0  0  0  0  0  0  0  0  0  0
   60.2760   34.1150   46.6750 N   0  0  0  0  0  0  0  0  0  0  0  0
   59.2640   34.5190   45.7030 C   0  0  0  0  0  0  0  0  0  0  0  0
   59.6256   34.3025   44.6869 H   0  0  0  0  0  0  0  0  0  0  0  0
   59.0712   35.5973   45.8039 H   0  0  0  0  0  0  0  0  0  0  0  0
   57.9670   33.7450   45.9580 C   0  0  0  0  0  0  0  0  0  0  0  0
   57.2365   34.4242   46.4217 H   0  0  0  0  0  0  0  0  0  0  0  0
   58.2080   32.8980   46.6172 H   0  0  0  0  0  0  0  0  0  0  0  0
   57.3590   33.1740   44.6700 C   0  0  0  0  0  0  0  0  0  0  0  0
   58.1149   33.1987   43.8713 H   0  0  0  0  0  0  0  0  0  0  0  0
   56.4880   33.7837   44.3877 H   0  0  0  0  0  0  0  0  0  0  0  0
   56.9230   31.7960   44.8760 N   0  0  0  0  0  0  0  0  0  0  0  0
   57.1620   30.7450   43.9320 C   0  0  0  0  0  0  0  0  0  0  0  0
   57.2380   31.0140   42.7020 O   0  0  0  0  0  0  0  0  0  0  0  0
   57.3770   29.3590   44.4030 C   0  0  0  0  0  0  0  0  0  0  0  0
   58.5920   28.6980   44.1520 C   0  0  0  0  0  0  0  0  0  0  0  0
   59.3567   29.1801   43.5253 H   0  0  0  0  0  0  0  0  0  0  0  0
   58.8350   27.4330   44.6930 C   0  0  0  0  0  0  0  0  0  0  0  0
   59.7864   26.9230   44.4815 H   0  0  0  0  0  0  0  0  0  0  0  0
   57.8780   26.8090   45.5020 C   0  0  0  0  0  0  0  0  0  0  0  0
   58.1850   25.5500   46.1210 N   0  0  0  0  0  0  0  0  0  0  0  0
   59.0750   25.4530   46.6610 H   0  0  0  0  0  0  0  0  0  0  0  0
   57.0090   24.2880   46.3060 S   0  0  0  0  0  0  0  0  0  0  0  0
   55.6550   24.8950   46.5470 O   0  0  0  0  0  0  0  0  0  0  0  0
   57.3810   23.4340   47.4850 O   0  0  0  0  0  0  0  0  0  0  0  0
   56.9420   23.3150   44.8450 C   0  0  0  0  0  0  0  0  0  0  0  0
   55.8910   23.5650   43.5590 S   0  0  0  0  0  0  0  0  0  0  0  0
   56.3970   22.2340   42.6610 C   0  0  0  0  0  0  0  0  0  0  0  0
   56.0038   21.9332   41.6787 H   0  0  0  0  0  0  0  0  0  0  0  0
   57.3960   21.5800   43.3720 C   0  0  0  0  0  0  0  0  0  0  0  0
   57.9002   20.6738   43.0051 H   0  0  0  0  0  0  0  0  0  0  0  0
   57.7010   22.1820   44.5990 C   0  0  0  0  0  0  0  0  0  0  0  0
   58.4620   21.7966   45.2935 H   0  0  0  0  0  0  0  0  0  0  0  0
   56.6420   27.4440   45.7110 C   0  0  0  0  0  0  0  0  0  0  0  0
   55.8637   26.9425   46.3050 H   0  0  0  0  0  0  0  0  0  0  0  0
   56.3950   28.7070   45.1700 C   0  0  0  0  0  0  0  0  0  0  0  0
   55.4252   29.1958   45.3449 H   0  0  0  0  0  0  0  0  0  0  0  0
   59.8510   34.2320   49.0070 C   0  0  0  0  0  0  0  0  0  0  0  0
   59.8616   35.3319   48.9943 H   0  0  0  0  0  0  0  0  0  0  0  0
  1  2  1  0
  2  3  1  0
  3  4  1  0
  4  5  2  0
  5  6  1  0
  5  7  1  0
  7  8  1  0
  7  9  2  0
  9 10  1  0
  9 11  1  0
 11 12  1  0
 11 13  2  0
 13 14  1  0
 14 15  2  0
 15 16  1  0
 16 17  1  0
 16 18  1  0
 16 19  1  0
 19 20  1  0
 19 21  1  0
 19 22  1  0
 22 23  1  0
 22 24  1  0
 22 25  1  0
 25 26  1  0
 26 27  2  0
 26 28  1  0
 28 29  2  0
 29 30  1  0
 29 31  1  0
 31 32  1  0
 31 33  2  0
 33 34  1  0
 34 35  1  0
 34 36  1  0
 36 37  2  0
 36 38  2  0
 36 39  1  0
 39 40  1  0
 40 41  1  0
 41 42  1  0
 41 43  2  0
 43 44  1  0
 43 45  1  0
 45 46  1  0
 33 47  1  0
 47 48  1  0
 47 49  2  0
 49 50  1  0
 14 51  1  0
 51 52  1  0
 51  2  2  0
 13  4  1  0
 49 28  1  0
 45 39  2  0
M  CHG  2   3  -1  25  -1
M  END
>  <UniqueID>  (33) 
33

>  <SMILES>  (33) 
O=C([N-]CCC/N=c1\cc[n-]c2cc(Cl)ccc12)c1ccc(NS(=O)(=O)c2cccs2)cc1

>  <Energy>  (33) 
87.42238269419742

>  <Genealogy>  (33) 
O=C([N-]CCCN=c1cc[n-]c2cc(Cl)ccc12)c1ccc(NS(=O)(=O)c2cccs2)cc1 (protonated)
O=C([N-]CCC/N=c1\cc[n-]c2cc(Cl)ccc12)c1ccc(NS(=O)(=O)c2cccs2)cc1 (cis-trans isomerization)
O=C([N-]CCC/N=c1\cc[n-]c2cc(Cl)ccc12)c1ccc(NS(=O)(=O)c2cccs2)cc1 (3D coordinates assigned)
O=C([N-]CCC/N=c1\cc[n-]c2cc(Cl)ccc12)c1ccc(NS(=O)(=O)c2cccs2)cc1 (optimized conformer: 87.42238269419742 kcal/mol)

>  <smiles>  (33) 
O=C(NCCCN=c1cc[nH]c2cc(Cl)ccc12)c1ccc(NS(=O)(=O)c2cccs2)cc1

>  <score_type>  (33) 
oracle

>  <origin>  (33) 
adg

>  <m_score__min__energy>  (33) 
-11.77

>  <m_primary>  (33) 
energy

$$$$
33:0
     RDKit          3D

 46 49  0  0  0  0  0  0  0  0999 V2000
   57.1278   28.6695   47.1841 H   0  0  0  0  0  0  0  0  0  0  0  0
   57.8090   29.4470   46.8080 C   0  0  0  0  0  0  0  0  0  0  0  0
   58.8290   29.8320   47.5870 C   0  0  0  0  0  0  0  0  0  0  0  0
   59.8572   29.6508   47.2408 H   0  0  0  0  0  0  0  0  0  0  0  0
   58.6240   30.4920   48.8960 C   0  0  0  0  0  0  0  0  0  0  0  0
   58.1610   29.7180   49.9090 N   0  0  0  0  0  0  0  0  0  0  0  0
   57.9340   30.2190   51.1460 C   0  0  0  0  0  0  0  0  0  0  0  0
   57.4420   29.3880   52.1600 C   0  0  0  0  0  0  0  0  0  0  0  0
   57.2419   28.3266   51.9519 H   0  0  0  0  0  0  0  0  0  0  0  0
   57.2050   29.9060   53.4360 C   0  0  0  0  0  0  0  0  0  0  0  0
   56.8194   29.2514   54.2315 H   0  0  0  0  0  0  0  0  0  0  0  0
   57.4570   31.2540   53.7030 C   0  0  0  0  0  0  0  0  0  0  0  0
   57.2664   31.6591   54.7078 H   0  0  0  0  0  0  0  0  0  0  0  0
   57.9510   32.0900   52.6960 C   0  0  0  0  0  0  0  0  0  0  0  0
   58.1514   33.1500   52.9111 H   0  0  0  0  0  0  0  0  0  0  0  0
   58.1920   31.5760   51.4070 C   0  0  0  0  0  0  0  0  0  0  0  0
   58.7000   32.3680   50.3650 C   0  0  0  0  0  0  0  0  0  0  0  0
   58.9760   33.5820   50.5820 O   0  0  0  0  0  0  0  0  0  0  0  0
   58.9180   31.8220   49.1220 N   0  0  0  0  0  0  0  0  0  0  0  0
   59.5080   32.6440   48.0880 C   0  0  0  0  0  0  0  0  0  0  0  0
   58.6980   33.2340   47.1050 C   0  0  0  0  0  0  0  0  0  0  0  0
   57.6053   33.1167   47.1518 H   0  0  0  0  0  0  0  0  0  0  0  0
   59.2760   33.9700   46.0670 C   0  0  0  0  0  0  0  0  0  0  0  0
   58.6362   34.4381   45.3044 H   0  0  0  0  0  0  0  0  0  0  0  0
   60.6640   34.1130   45.9950 C   0  0  0  0  0  0  0  0  0  0  0  0
   61.1155   34.6791   45.1669 H   0  0  0  0  0  0  0  0  0  0  0  0
   61.4810   33.5370   46.9750 C   0  0  0  0  0  0  0  0  0  0  0  0
   63.2330   33.6400   46.8460 S   0  0  0  0  0  0  0  0  0  0  0  0
   63.7690   34.5450   47.9200 O   0  0  0  0  0  0  0  0  0  0  0  0
   63.6160   34.2030   45.5050 O   0  0  0  0  0  0  0  0  0  0  0  0
   63.9100   32.0600   47.0210 N   0  0  0  0  0  0  0  0  0  0  0  0
   64.5290   32.0850   47.8620 H   0  0  0  0  0  0  0  0  0  0  0  0
   64.5280   31.8980   46.1950 H   0  0  0  0  0  0  0  0  0  0  0  0
   60.9020   32.8170   48.0280 C   0  0  0  0  0  0  0  0  0  0  0  0
   61.5413   32.3848   48.8119 H   0  0  0  0  0  0  0  0  0  0  0  0
   57.5540   30.0180   45.4640 C   0  0  0  0  0  0  0  0  0  0  0  0
   58.4100   30.9830   44.8940 C   0  0  0  0  0  0  0  0  0  0  0  0
   59.2968   31.3229   45.4491 H   0  0  0  0  0  0  0  0  0  0  0  0
   58.1390   31.5100   43.6290 C   0  0  0  0  0  0  0  0  0  0  0  0
   58.8093   32.2664   43.1948 H   0  0  0  0  0  0  0  0  0  0  0  0
   57.0190   31.0790   42.9140 C   0  0  0  0  0  0  0  0  0  0  0  0
   56.8051   31.4995   41.9203 H   0  0  0  0  0  0  0  0  0  0  0  0
   56.1720   30.1150   43.4610 C   0  0  0  0  0  0  0  0  0  0  0  0
   55.2937   29.7731   42.8939 H   0  0  0  0  0  0  0  0  0  0  0  0
   56.4340   29.5810   44.7270 C   0  0  0  0  0  0  0  0  0  0  0  0
   55.5670   28.6280   45.2520 O   0  0  0  0  0  0  0  0  0  0  0  0
  1  2  1  0
  2  3  2  0
  3  4  1  0
  3  5  1  0
  5  6  2  0
  6  7  1  0
  7  8  2  0
  8  9  1  0
  8 10  1  0
 10 11  1  0
 10 12  2  0
 12 13  1  0
 12 14  1  0
 14 15  1  0
 14 16  2  0
 16 17  1  0
 17 18  2  0
 17 19  1  0
 19 20  1  0
 20 21  2  0
 21 22  1  0
 21 23  1  0
 23 24  1  0
 23 25  2  0
 25 26  1  0
 25 27  1  0
 27 28  1  0
 28 29  2  0
 28 30  2  0
 28 31  1  0
 31 32  1  0
 31 33  1  0
 27 34  2  0
 34 35  1  0
  2 36  1  0
 36 37  2  0
 37 38  1  0
 37 39  1  0
 39 40  1  0
 39 41  2  0
 41 42  1  0
 41 43  1  0
 43 44  1  0
 43 45  2  0
 45 46  1  0
 19  5  1  0
 34 20  1  0
 45 36  1  0
 16  7  1  0
M  CHG  1  46  -1
M  END
>  <UniqueID>  (34) 
34

>  <SMILES>  (34) 
NS(=O)(=O)c1cccc(-n2c(/C=C/c3ccccc3[O-])nc3ccccc3c2=O)c1

>  <Energy>  (34) 
70.07750417889517

>  <Genealogy>  (34) 
NS(=O)(=O)c1cccc(-n2c(C=Cc3ccccc3[O-])nc3ccccc3c2=O)c1 (protonated)
NS(=O)(=O)c1cccc(-n2c(/C=C/c3ccccc3[O-])nc3ccccc3c2=O)c1 (cis-trans isomerization)
NS(=O)(=O)c1cccc(-n2c(/C=C/c3ccccc3[O-])nc3ccccc3c2=O)c1 (3D coordinates assigned)
NS(=O)(=O)c1cccc(-n2c(/C=C/c3ccccc3[O-])nc3ccccc3c2=O)c1 (optimized conformer: 70.07750417889517 kcal/mol)

>  <smiles>  (34) 
NS(=O)(=O)c1cccc(-n2c(C=Cc3ccccc3O)nc3ccccc3c2=O)c1

>  <score_type>  (34) 
oracle

>  <origin>  (34) 
adg

>  <m_score__min__energy>  (34) 
-12.33

>  <m_primary>  (34) 
energy

$$$$
34:0
     RDKit          3D

 57 59  0  0  0  0  0  0  0  0999 V2000
   63.1260   33.4450   46.7480 C   0  0  0  0  0  0  0  0  0  0  0  0
   63.1990   32.2950   47.7470 C   0  0  0  0  0  0  0  0  0  0  0  0
   61.9350   32.0940   48.3770 O   0  0  0  0  0  0  0  0  0  0  0  0
   61.5480   30.9510   49.0980 C   0  0  0  0  0  0  0  0  0  0  0  0
   61.6620   30.8780   50.5020 C   0  0  0  0  0  0  0  0  0  0  0  0
   61.2570   29.7320   51.1880 C   0  0  0  0  0  0  0  0  0  0  0  0
   60.7340   28.6460   50.4880 C   0  0  0  0  0  0  0  0  0  0  0  0
   60.6160   28.7000   49.1000 C   0  0  0  0  0  0  0  0  0  0  0  0
   61.0290   29.8410   48.3930 C   0  0  0  0  0  0  0  0  0  0  0  0
   60.8470   29.8800   46.8930 C   0  0  0  0  0  0  0  0  0  0  0  0
   59.8430   28.8860   46.4570 N   0  0  0  0  0  0  0  0  0  0  0  0
   58.4650   29.3310   46.7840 C   0  0  0  0  0  0  0  0  0  0  0  0
   57.4200   28.5870   45.9410 C   0  0  0  0  0  0  0  0  0  0  0  0
   57.6050   28.8140   44.4830 N   0  0  0  0  0  0  0  0  0  0  0  0
   56.6300   29.7820   43.9430 C   0  0  0  0  0  0  0  0  0  0  0  0
   57.1350   31.1830   44.1180 C   0  0  0  0  0  0  0  0  0  0  0  0
   57.2710   31.9240   43.1060 O   0  0  0  0  0  0  0  0  0  0  0  0
   57.4110   31.6860   45.4330 N   0  0  0  0  0  0  0  0  0  0  0  0
   58.1400   32.8990   45.6900 C   0  0  0  0  0  0  0  0  0  0  0  0
   58.5230   33.7440   44.6310 C   0  0  0  0  0  0  0  0  0  0  0  0
   59.2530   34.9060   44.8810 C   0  0  0  0  0  0  0  0  0  0  0  0
   59.6200   35.2330   46.1860 C   0  0  0  0  0  0  0  0  0  0  0  0
   59.2650   34.3960   47.2460 C   0  0  0  0  0  0  0  0  0  0  0  0
   58.5260   33.2190   47.0070 C   0  0  0  0  0  0  0  0  0  0  0  0
   58.1540   32.3540   48.0490 O   0  0  0  0  0  0  0  0  0  0  0  0
   58.6210   32.4570   49.3900 C   0  0  0  0  0  0  0  0  0  0  0  0
   58.9840   29.2130   44.1210 C   0  0  0  0  0  0  0  0  0  0  0  0
   60.0170   28.5260   45.0260 C   0  0  0  0  0  0  0  0  0  0  0  0
   63.0654   34.3995   47.2914 H   0  0  0  0  0  0  0  0  0  0  0  0
   64.0263   33.4394   46.1160 H   0  0  0  0  0  0  0  0  0  0  0  0
   62.2336   33.3256   46.1160 H   0  0  0  0  0  0  0  0  0  0  0  0
   63.4894   31.3751   47.2183 H   0  0  0  0  0  0  0  0  0  0  0  0
   63.9433   32.5428   48.5181 H   0  0  0  0  0  0  0  0  0  0  0  0
   62.0735   31.7314   51.0609 H   0  0  0  0  0  0  0  0  0  0  0  0
   61.3507   29.6857   52.2830 H   0  0  0  0  0  0  0  0  0  0  0  0
   60.4139   27.7449   51.0317 H   0  0  0  0  0  0  0  0  0  0  0  0
   60.1961   27.8422   48.5543 H   0  0  0  0  0  0  0  0  0  0  0  0
   60.5111   30.8848   46.5970 H   0  0  0  0  0  0  0  0  0  0  0  0
   61.8088   29.6403   46.4161 H   0  0  0  0  0  0  0  0  0  0  0  0
   58.2696   29.1367   47.8489 H   0  0  0  0  0  0  0  0  0  0  0  0
   58.3869   30.4055   46.5619 H   0  0  0  0  0  0  0  0  0  0  0  0
   57.5036   27.5092   46.1445 H   0  0  0  0  0  0  0  0  0  0  0  0
   56.4278   28.9726   46.2182 H   0  0  0  0  0  0  0  0  0  0  0  0
   56.4762   29.5829   42.8721 H   0  0  0  0  0  0  0  0  0  0  0  0
   55.6800   29.6738   44.4870 H   0  0  0  0  0  0  0  0  0  0  0  0
   57.0180   31.1590   46.2460 H   0  0  0  0  0  0  0  0  0  0  0  0
   58.2444   33.4859   43.5986 H   0  0  0  0  0  0  0  0  0  0  0  0
   59.5394   35.5649   44.0481 H   0  0  0  0  0  0  0  0  0  0  0  0
   60.1908   36.1529   46.3810 H   0  0  0  0  0  0  0  0  0  0  0  0
   59.5633   34.6561   48.2723 H   0  0  0  0  0  0  0  0  0  0  0  0
   57.7874   32.2731   50.0837 H   0  0  0  0  0  0  0  0  0  0  0  0
   59.4117   31.7117   49.5612 H   0  0  0  0  0  0  0  0  0  0  0  0
   59.0248   33.4658   49.5612 H   0  0  0  0  0  0  0  0  0  0  0  0
   59.1771   28.9287   43.0761 H   0  0  0  0  0  0  0  0  0  0  0  0
   59.0768   30.3014   44.2505 H   0  0  0  0  0  0  0  0  0  0  0  0
   59.9105   27.4363   44.9202 H   0  0  0  0  0  0  0  0  0  0  0  0
   61.0157   28.8650   44.7134 H   0  0  0  0  0  0  0  0  0  0  0  0
  1  2  1  0
  2  3  1  0
  3  4  1  0
  4  5  2  0
  5  6  1  0
  6  7  2  0
  7  8  1  0
  8  9  2  0
  9 10  1  0
 10 11  1  0
 11 12  1  0
 12 13  1  0
 13 14  1  0
 14 15  1  0
 15 16  1  0
 16 17  2  0
 16 18  1  0
 18 19  1  0
 19 20  2  0
 20 21  1  0
 21 22  2  0
 22 23  1  0
 23 24  2  0
 24 25  1  0
 25 26  1  0
 14 27  1  0
 27 28  1  0
  9  4  1  0
 28 11  1  0
 24 19  1  0
  1 29  1  0
  1 30  1  0
  1 31  1  0
  2 32  1  0
  2 33  1  0
  5 34  1  0
  6 35  1  0
  7 36  1  0
  8 37  1  0
 10 38  1  0
 10 39  1  0
 12 40  1  0
 12 41  1  0
 13 42  1  0
 13 43  1  0
 15 44  1  0
 15 45  1  0
 18 46  1  0
 20 47  1  0
 21 48  1  0
 22 49  1  0
 23 50  1  0
 26 51  1  0
 26 52  1  0
 26 53  1  0
 27 54  1  0
 27 55  1  0
 28 56  1  0
 28 57  1  0
M  END
>  <UniqueID>  (35) 
35

>  <SMILES>  (35) 
CCOc1ccccc1CN1CCN(CC(=O)Nc2ccccc2OC)CC1

>  <Energy>  (35) 
70.83337042604984

>  <Genealogy>  (35) 
CCOc1ccccc1CN1CCN(CC(=O)Nc2ccccc2OC)CC1 (3D coordinates assigned)
CCOc1ccccc1CN1CCN(CC(=O)Nc2ccccc2OC)CC1 (nonaromatic ring conformer: 70.83337042604984 kcal/mol)

>  <smiles>  (35) 
CCOc1ccccc1CN1CCN(CC(=O)Nc2ccccc2OC)CC1

>  <score_type>  (35) 
oracle

>  <origin>  (35) 
adg

>  <m_score__min__energy>  (35) 
-8.3100000000000005

>  <m_primary>  (35) 
energy

$$$$
35:0
     RDKit          3D

 39 41  0  0  0  0  0  0  0  0999 V2000
   58.5080   30.2790   48.1410 O   0  0  0  0  0  0  0  0  0  0  0  0
   59.7100   29.9410   47.9830 C   0  0  0  0  0  0  0  0  0  0  0  0
   60.0330   28.8290   47.0250 C   0  0  0  0  0  0  0  0  0  0  0  0
   59.9750   29.4150   45.3000 S   0  0  0  0  0  0  0  0  0  0  0  0
   58.1830   29.3640   45.1760 C   0  0  0  0  0  0  0  0  0  0  0  0
   57.4490   28.3090   45.5820 N   0  0  0  0  0  0  0  0  0  0  0  0
   56.1910   28.5560   45.2480 N   0  0  0  0  0  0  0  0  0  0  0  0
   56.1910   29.7530   44.6350 C   0  0  0  0  0  0  0  0  0  0  0  0
   55.1570   30.2690   44.1330 O   0  0  0  0  0  0  0  0  0  0  0  0
   57.4180   30.3100   44.5900 N   0  0  0  0  0  0  0  0  0  0  0  0
   57.8590   31.4970   43.8470 C   0  0  0  0  0  0  0  0  0  0  0  0
   57.4780   32.8050   44.5660 C   0  0  2  0  0  0  0  0  0  0  0  0
   58.6620   33.7710   44.6290 C   0  0  0  0  0  0  0  0  0  0  0  0
   59.0810   33.7160   46.0650 C   0  0  0  0  0  0  0  0  0  0  0  0
   57.8090   33.2970   46.7640 C   0  0  0  0  0  0  0  0  0  0  0  0
   57.0420   32.5180   45.8790 O   0  0  0  0  0  0  0  0  0  0  0  0
   60.7210   30.5990   48.7580 N   0  0  0  0  0  0  0  0  0  0  0  0
   61.5060   31.7140   48.3220 C   0  0  0  0  0  0  0  0  0  0  0  0
   62.6590   31.4730   47.5650 C   0  0  0  0  0  0  0  0  0  0  0  0
   63.4440   32.5380   47.1150 C   0  0  0  0  0  0  0  0  0  0  0  0
   63.0940   33.8500   47.4420 C   0  0  0  0  0  0  0  0  0  0  0  0
   61.9660   34.0980   48.2290 C   0  0  0  0  0  0  0  0  0  0  0  0
   61.1740   33.0360   48.6810 C   0  0  0  0  0  0  0  0  0  0  0  0
   59.6930   33.4250   49.8340 Br  0  0  0  0  0  0  0  0  0  0  0  0
   61.0422   28.4491   47.2420 H   0  0  0  0  0  0  0  0  0  0  0  0
   59.2858   28.0314   47.1493 H   0  0  0  0  0  0  0  0  0  0  0  0
   58.9526   31.4593   43.7350 H   0  0  0  0  0  0  0  0  0  0  0  0
   57.3572   31.4898   42.8681 H   0  0  0  0  0  0  0  0  0  0  0  0
   56.6687   33.2825   43.9942 H   0  0  0  0  0  0  0  0  0  0  0  0
   59.4765   33.4385   43.9687 H   0  0  0  0  0  0  0  0  0  0  0  0
   58.4043   34.7873   44.2963 H   0  0  0  0  0  0  0  0  0  0  0  0
   59.8801   32.9756   46.2173 H   0  0  0  0  0  0  0  0  0  0  0  0
   59.4921   34.6659   46.4373 H   0  0  0  0  0  0  0  0  0  0  0  0
   58.0558   32.7059   47.6582 H   0  0  0  0  0  0  0  0  0  0  0  0
   57.2391   34.1870   47.0691 H   0  0  0  0  0  0  0  0  0  0  0  0
   62.9485   30.4397   47.3232 H   0  0  0  0  0  0  0  0  0  0  0  0
   64.3373   32.3431   46.5034 H   0  0  0  0  0  0  0  0  0  0  0  0
   63.7066   34.6887   47.0798 H   0  0  0  0  0  0  0  0  0  0  0  0
   61.6995   35.1317   48.4943 H   0  0  0  0  0  0  0  0  0  0  0  0
  1  2  2  0
  2  3  1  0
  3  4  1  0
  4  5  1  0
  5  6  2  0
  6  7  1  0
  7  8  1  0
  8  9  2  0
  8 10  1  0
 10 11  1  0
 11 12  1  0
 12 13  1  0
 13 14  1  0
 14 15  1  0
 15 16  1  0
  2 17  1  0
 17 18  1  0
 18 19  2  0
 19 20  1  0
 20 21  2  0
 21 22  1  0
 22 23  2  0
 23 24  1  0
 10  5  1  0
 16 12  1  0
 23 18  1  0
  3 25  1  0
  3 26  1  0
 11 27  1  0
 11 28  1  0
 12 29  1  6
 13 30  1  0
 13 31  1  0
 14 32  1  0
 14 33  1  0
 15 34  1  0
 15 35  1  0
 19 36  1  0
 20 37  1  0
 21 38  1  0
 22 39  1  0
M  CHG  2   7  -1  17  -1
M  END
>  <UniqueID>  (36) 
36

>  <SMILES>  (36) 
O=C(CSc1n[n-]c(=O)n1C[C@@H]1CCCO1)[N-]c1ccccc1Br

>  <Energy>  (36) 
75.62400974538026

>  <Genealogy>  (36) 
O=C(CSc1n[n-]c(=O)n1CC1CCCO1)[N-]c1ccccc1Br (protonated)
O=C(CSc1n[n-]c(=O)n1C[C@@H]1CCCO1)[N-]c1ccccc1Br (chirality)
O=C(CSc1n[n-]c(=O)n1C[C@@H]1CCCO1)[N-]c1ccccc1Br (3D coordinates assigned)
O=C(CSc1n[n-]c(=O)n1C[C@@H]1CCCO1)[N-]c1ccccc1Br (nonaromatic ring conformer: 75.62400974538026 kcal/mol)

>  <smiles>  (36) 
O=C(CSc1n[nH]c(=O)n1CC1CCCO1)Nc1ccccc1Br

>  <score_type>  (36) 
oracle

>  <origin>  (36) 
adg

>  <m_score__min__energy>  (36) 
-11.970000000000001

>  <m_primary>  (36) 
energy

$$$$
36:0
     RDKit          3D

 57 60  0  0  0  0  0  0  0  0999 V2000
   55.9710   29.8200   44.0780 C   0  0  0  0  0  0  0  0  0  0  0  0
   55.6790   28.8070   45.0360 O   0  0  0  0  0  0  0  0  0  0  0  0
   56.6330   27.9390   45.5910 C   0  0  0  0  0  0  0  0  0  0  0  0
   57.9770   28.3210   45.7780 C   0  0  0  0  0  0  0  0  0  0  0  0
   58.9050   27.4190   46.3230 C   0  0  0  0  0  0  0  0  0  0  0  0
   60.3280   27.8410   46.5520 C   0  0  0  0  0  0  0  0  0  0  0  0
   60.5370   28.0640   47.9800 N   0  0  0  0  0  0  0  0  0  0  0  0
   60.3520   29.7530   48.3460 S   0  0  0  0  0  0  0  0  0  0  0  0
   61.7050   30.3970   48.4560 O   0  0  0  0  0  0  0  0  0  0  0  0
   59.5950   30.4190   47.2320 O   0  0  0  0  0  0  0  0  0  0  0  0
   59.4550   29.9560   49.8480 C   0  0  0  0  0  0  0  0  0  0  0  0
   59.5730   29.0040   50.8900 C   0  0  0  0  0  0  0  0  0  0  0  0
   58.8360   29.1460   52.0780 C   0  0  0  0  0  0  0  0  0  0  0  0
   57.9890   30.2520   52.1960 C   0  0  0  0  0  0  0  0  0  0  0  0
   57.8700   31.1690   51.1840 C   0  0  0  0  0  0  0  0  0  0  0  0
   56.9490   32.1150   51.5830 C   0  0  0  0  0  0  0  0  0  0  0  0
   56.5420   31.7180   52.8510 C   0  0  0  0  0  0  0  0  0  0  0  0
   57.1810   30.5830   53.2250 N   0  0  0  0  0  0  0  0  0  0  0  0
   57.0120   29.8760   54.4960 C   0  0  0  0  0  0  0  0  0  0  0  0
   56.2130   28.6160   54.2980 C   0  0  0  0  0  0  0  0  0  0  0  0
   56.3330   27.6790   55.1310 O   0  0  0  0  0  0  0  0  0  0  0  0
   55.2980   28.4520   53.2070 N   0  0  0  0  0  0  0  0  0  0  0  0
   53.8640   28.2350   53.3420 C   0  0  0  0  0  0  0  0  0  0  0  0
   53.1300   29.4380   52.8240 C   0  0  0  0  0  0  0  0  0  0  0  0
   53.6020   30.1200   51.6910 C   0  0  0  0  0  0  0  0  0  0  0  0
   52.9000   31.2200   51.1880 C   0  0  0  0  0  0  0  0  0  0  0  0
   51.7180   31.6390   51.8050 C   0  0  0  0  0  0  0  0  0  0  0  0
   51.0220   32.7330   51.3050 O   0  0  0  0  0  0  0  0  0  0  0  0
   51.2350   30.9560   52.9250 C   0  0  0  0  0  0  0  0  0  0  0  0
   51.9340   29.8550   53.4310 C   0  0  0  0  0  0  0  0  0  0  0  0
   58.5850   31.0550   49.9940 C   0  0  0  0  0  0  0  0  0  0  0  0
   58.4800   26.1400   46.7090 C   0  0  0  0  0  0  0  0  0  0  0  0
   57.1490   25.7560   46.5270 C   0  0  0  0  0  0  0  0  0  0  0  0
   56.2260   26.6510   45.9690 C   0  0  0  0  0  0  0  0  0  0  0  0
   54.8980   26.2680   45.7860 O   0  0  0  0  0  0  0  0  0  0  0  0
   56.2393   30.7509   44.5989 H   0  0  0  0  0  0  0  0  0  0  0  0
   56.8126   29.4969   43.4476 H   0  0  0  0  0  0  0  0  0  0  0  0
   55.0866   29.9944   43.4476 H   0  0  0  0  0  0  0  0  0  0  0  0
   58.3012   29.3333   45.4949 H   0  0  0  0  0  0  0  0  0  0  0  0
   61.0076   27.0512   46.1993 H   0  0  0  0  0  0  0  0  0  0  0  0
   60.5327   28.7692   45.9984 H   0  0  0  0  0  0  0  0  0  0  0  0
   60.2486   28.1445   50.7681 H   0  0  0  0  0  0  0  0  0  0  0  0
   58.9229   28.4094   52.8903 H   0  0  0  0  0  0  0  0  0  0  0  0
   56.6092   32.9956   51.0181 H   0  0  0  0  0  0  0  0  0  0  0  0
   55.8028   32.2516   53.4665 H   0  0  0  0  0  0  0  0  0  0  0  0
   58.0017   29.6169   54.9001 H   0  0  0  0  0  0  0  0  0  0  0  0
   56.4745   30.5307   55.1977 H   0  0  0  0  0  0  0  0  0  0  0  0
   53.5703   27.3474   52.7623 H   0  0  0  0  0  0  0  0  0  0  0  0
   53.6129   28.0776   54.4013 H   0  0  0  0  0  0  0  0  0  0  0  0
   54.5272   29.7879   51.1973 H   0  0  0  0  0  0  0  0  0  0  0  0
   53.2787   31.7563   50.3054 H   0  0  0  0  0  0  0  0  0  0  0  0
   50.3037   31.2849   53.4092 H   0  0  0  0  0  0  0  0  0  0  0  0
   51.5459   29.3143   54.3068 H   0  0  0  0  0  0  0  0  0  0  0  0
   58.4739   31.8002   49.1925 H   0  0  0  0  0  0  0  0  0  0  0  0
   59.1971   25.4362   47.1568 H   0  0  0  0  0  0  0  0  0  0  0  0
   56.8243   24.7475   46.8228 H   0  0  0  0  0  0  0  0  0  0  0  0
   54.3070   26.7140   45.0920 H   0  0  0  0  0  0  0  0  0  0  0  0
  1  2  1  0
  2  3  1  0
  3  4  2  0
  4  5  1  0
  5  6  1  0
  6  7  1  0
  7  8  1  0
  8  9  2  0
  8 10  2  0
  8 11  1  0
 11 12  2  0
 12 13  1  0
 13 14  2  0
 14 15  1  0
 15 16  1  0
 16 17  2  0
 17 18  1  0
 18 19  1  0
 19 20  1  0
 20 21  2  0
 20 22  1  0
 22 23  1  0
 23 24  1  0
 24 25  2  0
 25 26  1  0
 26 27  2  0
 27 28  1  0
 27 29  1  0
 29 30  2  0
 15 31  2  0
  5 32  2  0
 32 33  1  0
 33 34  2  0
 34 35  1  0
 34  3  1  0
 31 11  1  0
 18 14  1  0
 30 24  1  0
  1 36  1  0
  1 37  1  0
  1 38  1  0
  4 39  1  0
  6 40  1  0
  6 41  1  0
 12 42  1  0
 13 43  1  0
 16 44  1  0
 17 45  1  0
 19 46  1  0
 19 47  1  0
 23 48  1  0
 23 49  1  0
 25 50  1  0
 26 51  1  0
 29 52  1  0
 30 53  1  0
 31 54  1  0
 32 55  1  0
 33 56  1  0
 35 57  1  0
M  CHG  3   7  -1  22  -1  28  -1
M  END
>  <UniqueID>  (37) 
37

>  <SMILES>  (37) 
COc1cc(C[N-]S(=O)(=O)c2ccc3c(ccn3CC(=O)[N-]Cc3ccc([O-])cc3)c2)ccc1O

>  <Energy>  (37) 
87.53933440579665

>  <Genealogy>  (37) 
COc1cc(C[N-]S(=O)(=O)c2ccc3c(ccn3CC(=O)[N-]Cc3ccc([O-])cc3)c2)ccc1O (protonated)
COc1cc(C[N-]S(=O)(=O)c2ccc3c(ccn3CC(=O)[N-]Cc3ccc([O-])cc3)c2)ccc1O (3D coordinates assigned)
COc1cc(C[N-]S(=O)(=O)c2ccc3c(ccn3CC(=O)[N-]Cc3ccc([O-])cc3)c2)ccc1O (optimized conformer: 87.53933440579665 kcal/mol)

>  <smiles>  (37) 
COc1cc(CNS(=O)(=O)c2ccc3c(ccn3CC(=O)NCc3ccc(O)cc3)c2)ccc1O

>  <score_type>  (37) 
oracle

>  <origin>  (37) 
adg

>  <m_score__min__energy>  (37) 
-15.550000000000001

>  <m_primary>  (37) 
energy

$$$$
37:0
     RDKit          3D

 53 56  0  0  0  0  0  0  0  0999 V2000
   57.3900   34.6260   44.5160 C   0  0  0  0  0  0  0  0  0  0  0  0
   57.7950   33.6630   45.5960 C   0  0  0  0  0  0  0  0  0  0  0  0
   57.4410   32.3220   45.7030 C   0  0  0  0  0  0  0  0  0  0  0  0
   56.5730   31.5480   44.8650 N   0  0  0  0  0  0  0  0  0  0  0  0
   56.9920   30.5710   43.9040 C   0  0  0  0  0  0  0  0  0  0  0  0
   57.2630   30.9520   42.7350 O   0  0  0  0  0  0  0  0  0  0  0  0
   57.1670   29.1480   44.2650 C   0  0  0  0  0  0  0  0  0  0  0  0
   57.4330   28.3050   43.3660 O   0  0  0  0  0  0  0  0  0  0  0  0
   56.9860   28.7170   45.6230 N   0  0  0  0  0  0  0  0  0  0  0  0
   57.2730   27.3810   46.0720 C   0  0  0  0  0  0  0  0  0  0  0  0
   56.3650   26.3400   45.8010 C   0  0  0  0  0  0  0  0  0  0  0  0
   56.6660   25.0240   46.1600 C   0  0  0  0  0  0  0  0  0  0  0  0
   57.8780   24.7290   46.7820 C   0  0  0  0  0  0  0  0  0  0  0  0
   58.7950   25.7480   47.0480 C   0  0  0  0  0  0  0  0  0  0  0  0
   58.5050   27.0800   46.7020 C   0  0  0  0  0  0  0  0  0  0  0  0
   59.4860   28.1400   47.0380 C   0  0  0  0  0  0  0  0  0  0  0  0
   60.1070   28.8800   46.0150 C   0  0  0  0  0  0  0  0  0  0  0  0
   61.0370   29.8760   46.3310 C   0  0  0  0  0  0  0  0  0  0  0  0
   61.3600   30.1360   47.6650 C   0  0  0  0  0  0  0  0  0  0  0  0
   60.7560   29.3990   48.6870 C   0  0  0  0  0  0  0  0  0  0  0  0
   59.8250   28.4020   48.3770 C   0  0  0  0  0  0  0  0  0  0  0  0
   58.1470   31.8490   46.7810 C   0  0  0  0  0  0  0  0  0  0  0  0
   58.1140   30.6690   47.2240 O   0  0  0  0  0  0  0  0  0  0  0  0
   58.8630   32.8530   47.3260 N   0  0  0  0  0  0  0  0  0  0  0  0
   59.6860   32.7550   48.5030 C   0  0  0  0  0  0  0  0  0  0  0  0
   59.1480   32.2630   49.7020 C   0  0  0  0  0  0  0  0  0  0  0  0
   59.9440   32.1780   50.8490 C   0  0  0  0  0  0  0  0  0  0  0  0
   61.2800   32.5910   50.8060 C   0  0  0  0  0  0  0  0  0  0  0  0
   61.8190   33.0920   49.6180 C   0  0  0  0  0  0  0  0  0  0  0  0
   61.0250   33.1780   48.4700 C   0  0  0  0  0  0  0  0  0  0  0  0
   58.6620   33.9520   46.6000 N   0  0  0  0  0  0  0  0  0  0  0  0
   59.2690   35.2610   46.8630 C   0  0  0  0  0  0  0  0  0  0  0  0
   57.0022   35.5481   44.9735 H   0  0  0  0  0  0  0  0  0  0  0  0
   58.2636   34.8656   43.8919 H   0  0  0  0  0  0  0  0  0  0  0  0
   56.6077   34.1692   43.8919 H   0  0  0  0  0  0  0  0  0  0  0  0
   56.5730   29.3880   46.3100 H   0  0  0  0  0  0  0  0  0  0  0  0
   55.4106   26.5647   45.3024 H   0  0  0  0  0  0  0  0  0  0  0  0
   55.9455   24.2194   45.9515 H   0  0  0  0  0  0  0  0  0  0  0  0
   58.1125   23.6919   47.0638 H   0  0  0  0  0  0  0  0  0  0  0  0
   59.7527   25.5068   47.5325 H   0  0  0  0  0  0  0  0  0  0  0  0
   59.8603   28.6746   44.9629 H   0  0  0  0  0  0  0  0  0  0  0  0
   61.5149   30.4556   45.5275 H   0  0  0  0  0  0  0  0  0  0  0  0
   62.0901   30.9212   47.9110 H   0  0  0  0  0  0  0  0  0  0  0  0
   61.0130   29.6031   49.7369 H   0  0  0  0  0  0  0  0  0  0  0  0
   59.3561   27.8205   49.1844 H   0  0  0  0  0  0  0  0  0  0  0  0
   58.0963   31.9430   49.7400 H   0  0  0  0  0  0  0  0  0  0  0  0
   59.5194   31.7863   51.7851 H   0  0  0  0  0  0  0  0  0  0  0  0
   61.9063   32.5213   51.7076 H   0  0  0  0  0  0  0  0  0  0  0  0
   62.8688   33.4190   49.5858 H   0  0  0  0  0  0  0  0  0  0  0  0
   61.4505   33.5783   47.5380 H   0  0  0  0  0  0  0  0  0  0  0  0
   59.3425   35.4195   47.9490 H   0  0  0  0  0  0  0  0  0  0  0  0
   60.2747   35.2948   46.4186 H   0  0  0  0  0  0  0  0  0  0  0  0
   58.6451   36.0504   46.4186 H   0  0  0  0  0  0  0  0  0  0  0  0
  1  2  1  0
  2  3  2  0
  3  4  1  0
  4  5  1  0
  5  6  2  0
  5  7  1  0
  7  8  2  0
  7  9  1  0
  9 10  1  0
 10 11  2  0
 11 12  1  0
 12 13  2  0
 13 14  1  0
 14 15  2  0
 15 16  1  0
 16 17  2  0
 17 18  1  0
 18 19  2  0
 19 20  1  0
 20 21  2  0
  3 22  1  0
 22 23  2  0
 22 24  1  0
 24 25  1  0
 25 26  2  0
 26 27  1  0
 27 28  2  0
 28 29  1  0
 29 30  2  0
 24 31  1  0
 31 32  1  0
 31  2  1  0
 15 10  1  0
 21 16  1  0
 30 25  1  0
  1 33  1  0
  1 34  1  0
  1 35  1  0
  9 36  1  0
 11 37  1  0
 12 38  1  0
 13 39  1  0
 14 40  1  0
 17 41  1  0
 18 42  1  0
 19 43  1  0
 20 44  1  0
 21 45  1  0
 26 46  1  0
 27 47  1  0
 28 48  1  0
 29 49  1  0
 30 50  1  0
 32 51  1  0
 32 52  1  0
 32 53  1  0
M  CHG  1   4  -1
M  END
>  <UniqueID>  (38) 
38

>  <SMILES>  (38) 
Cc1c([N-]C(=O)C(=O)Nc2ccccc2-c2ccccc2)c(=O)n(-c2ccccc2)n1C

>  <Energy>  (38) 
114.66060680723199

>  <Genealogy>  (38) 
Cc1c([N-]C(=O)C(=O)Nc2ccccc2-c2ccccc2)c(=O)n(-c2ccccc2)n1C (protonated)
Cc1c([N-]C(=O)C(=O)Nc2ccccc2-c2ccccc2)c(=O)n(-c2ccccc2)n1C (3D coordinates assigned)
Cc1c([N-]C(=O)C(=O)Nc2ccccc2-c2ccccc2)c(=O)n(-c2ccccc2)n1C (optimized conformer: 114.66060680723199 kcal/mol)

>  <smiles>  (38) 
Cc1c(NC(=O)C(=O)Nc2ccccc2-c2ccccc2)c(=O)n(-c2ccccc2)n1C

>  <score_type>  (38) 
oracle

>  <origin>  (38) 
adg

>  <m_score__min__energy>  (38) 
-11.57

>  <m_primary>  (38) 
energy

$$$$
38:0
     RDKit          3D

 25 26  0  0  0  0  0  0  0  0999 V2000
   58.1300   32.2310   42.9260 C   0  0  0  0  0  0  0  0  0  0  0  0
   57.7830   31.0800   43.8170 C   0  0  0  0  0  0  0  0  0  0  0  0
   58.7920   30.3360   44.4380 C   0  0  0  0  0  0  0  0  0  0  0  0
   58.4460   29.2550   45.2540 C   0  0  0  0  0  0  0  0  0  0  0  0
   59.3490   28.5830   45.8180 O   0  0  0  0  0  0  0  0  0  0  0  0
   57.0980   28.9260   45.4480 C   0  0  0  0  0  0  0  0  0  0  0  0
   56.7720   27.8360   46.2700 O   0  0  0  0  0  0  0  0  0  0  0  0
   56.8040   26.4880   45.8820 C   0  0  0  0  0  0  0  0  0  0  0  0
   58.0490   25.8800   45.6870 C   0  0  0  0  0  0  0  0  0  0  0  0
   58.1300   24.5400   45.2980 C   0  0  0  0  0  0  0  0  0  0  0  0
   56.9630   23.7930   45.1160 C   0  0  0  0  0  0  0  0  0  0  0  0
   55.7150   24.3830   45.3310 C   0  0  0  0  0  0  0  0  0  0  0  0
   55.6280   25.7230   45.7250 C   0  0  0  0  0  0  0  0  0  0  0  0
   54.3780   26.2740   45.9800 O   0  0  0  0  0  0  0  0  0  0  0  0
   56.1140   29.6780   44.7740 C   0  0  0  0  0  0  0  0  0  0  0  0
   54.7690   29.3490   44.8770 O   0  0  0  0  0  0  0  0  0  0  0  0
   56.4810   30.7260   43.9900 N   0  0  0  0  0  0  0  0  0  0  0  0
   58.3933   33.1043   43.5409 H   0  0  0  0  0  0  0  0  0  0  0  0
   58.9858   31.9582   42.2911 H   0  0  0  0  0  0  0  0  0  0  0  0
   57.2660   32.4767   42.2911 H   0  0  0  0  0  0  0  0  0  0  0  0
   59.8490   30.5995   44.2854 H   0  0  0  0  0  0  0  0  0  0  0  0
   58.9705   26.4607   45.8409 H   0  0  0  0  0  0  0  0  0  0  0  0
   59.1126   24.0732   45.1351 H   0  0  0  0  0  0  0  0  0  0  0  0
   57.0271   22.7403   44.8034 H   0  0  0  0  0  0  0  0  0  0  0  0
   54.7978   23.7923   45.1901 H   0  0  0  0  0  0  0  0  0  0  0  0
  1  2  1  0
  2  3  2  0
  3  4  1  0
  4  5  2  0
  4  6  1  0
  6  7  1  0
  7  8  1  0
  8  9  2  0
  9 10  1  0
 10 11  2  0
 11 12  1  0
 12 13  2  0
 13 14  1  0
  6 15  2  0
 15 16  1  0
 15 17  1  0
 17  2  1  0
 13  8  1  0
  1 18  1  0
  1 19  1  0
  1 20  1  0
  3 21  1  0
  9 22  1  0
 10 23  1  0
 11 24  1  0
 12 25  1  0
M  CHG  3  14  -1  16  -1  17  -1
M  END
>  <UniqueID>  (39) 
39

>  <SMILES>  (39) 
Cc1cc(=O)c(Oc2ccccc2[O-])c([O-])[n-]1

>  <Energy>  (39) 
35.28168942629224

>  <Genealogy>  (39) 
Cc1cc(=O)c(Oc2ccccc2[O-])c([O-])[n-]1 (protonated)
Cc1cc(=O)c(Oc2ccccc2[O-])c([O-])[n-]1 (3D coordinates assigned)
Cc1cc(=O)c(Oc2ccccc2[O-])c([O-])[n-]1 (optimized conformer: 35.28168942629224 kcal/mol)

>  <smiles>  (39) 
Cc1cc(=O)c(Oc2ccccc2O)c(O)[nH]1

>  <score_type>  (39) 
oracle

>  <origin>  (39) 
adg

>  <m_score__min__energy>  (39) 
-15.01

>  <m_primary>  (39) 
energy

$$$$
39:0
     RDKit          3D

 48 52  0  0  0  0  0  0  0  0999 V2000
   55.9400   28.4630   44.3020 H   0  0  0  0  0  0  0  0  0  0  0  0
   55.6560   28.2450   45.2480 O   0  0  0  0  0  0  0  0  0  0  0  0
   56.1170   27.0960   45.8810 C   0  0  0  0  0  0  0  0  0  0  0  0
   55.3370   26.0440   46.1840 N   0  0  0  0  0  0  0  0  0  0  0  0
   56.2120   25.1860   46.7490 C   0  0  0  0  0  0  0  0  0  0  0  0
   55.8690   24.0520   47.1770 O   0  0  0  0  0  0  0  0  0  0  0  0
   57.4840   25.6330   46.8120 N   0  0  0  0  0  0  0  0  0  0  0  0
   57.4130   26.8610   46.2730 C   0  0  0  0  0  0  0  0  0  0  0  0
   58.5570   27.7620   46.0250 C   0  0  0  0  0  0  0  0  0  0  0  0
   59.5631   27.3330   46.1418 H   0  0  0  0  0  0  0  0  0  0  0  0
   58.4850   29.0570   45.6700 C   0  0  0  0  0  0  0  0  0  0  0  0
   58.3280   29.5200   44.3660 C   0  0  0  0  0  0  0  0  0  0  0  0
   58.2609   28.8799   43.4739 H   0  0  0  0  0  0  0  0  0  0  0  0
   58.2700   30.8720   44.3560 N   0  0  0  0  0  0  0  0  0  0  0  0
   58.3810   31.2790   45.6090 N   0  0  0  0  0  0  0  0  0  0  0  0
   58.3510   32.5520   46.1050 C   0  0  0  0  0  0  0  0  0  0  0  0
   58.2580   33.6180   45.3580 N   0  0  0  0  0  0  0  0  0  0  0  0
   59.2430   34.6770   45.1300 C   0  0  0  0  0  0  0  0  0  0  0  0
   58.7157   35.5990   44.8439 H   0  0  0  0  0  0  0  0  0  0  0  0
   59.9223   34.3476   44.3300 H   0  0  0  0  0  0  0  0  0  0  0  0
   60.0620   34.9460   46.3590 C   0  0  0  0  0  0  0  0  0  0  0  0
   59.5200   35.4060   47.4010 O   0  0  0  0  0  0  0  0  0  0  0  0
   61.4460   34.5740   46.3640 N   0  0  0  0  0  0  0  0  0  0  0  0
   62.0610   33.5720   47.1890 C   0  0  0  0  0  0  0  0  0  0  0  0
   61.5460   32.2680   47.1560 C   0  0  0  0  0  0  0  0  0  0  0  0
   60.6900   32.0351   46.5056 H   0  0  0  0  0  0  0  0  0  0  0  0
   62.1130   31.2620   47.9440 C   0  0  0  0  0  0  0  0  0  0  0  0
   61.6959   30.2444   47.9200 H   0  0  0  0  0  0  0  0  0  0  0  0
   63.2090   31.5480   48.7620 C   0  0  0  0  0  0  0  0  0  0  0  0
   63.6464   30.7585   49.3907 H   0  0  0  0  0  0  0  0  0  0  0  0
   63.7510   32.8390   48.7820 C   0  0  0  0  0  0  0  0  0  0  0  0
   64.8930   33.1280   49.6100 C   0  0  0  0  0  0  0  0  0  0  0  0
   65.8130   33.3580   50.2750 N   0  0  0  0  0  0  0  0  0  0  0  0
   63.1860   33.8470   47.9890 C   0  0  0  0  0  0  0  0  0  0  0  0
   63.6232   34.8564   47.9918 H   0  0  0  0  0  0  0  0  0  0  0  0
   58.4300   32.7080   47.4540 N   0  0  0  0  0  0  0  0  0  0  0  0
   58.5360   31.6260   48.2860 C   0  0  0  0  0  0  0  0  0  0  0  0
   58.6090   31.7800   49.5720 N   0  0  0  0  0  0  0  0  0  0  0  0
   59.7550   32.3860   50.2460 C   0  0  0  0  0  0  0  0  0  0  0  0
   60.4028   31.4972   50.2635 H   0  0  0  0  0  0  0  0  0  0  0  0
   59.3760   33.4530   51.2570 C   0  0  0  0  0  0  0  0  0  0  0  0
   58.3173   33.6382   51.4912 H   0  0  0  0  0  0  0  0  0  0  0  0
   59.6437   33.6654   52.3026 H   0  0  0  0  0  0  0  0  0  0  0  0
   59.9370   33.8510   49.8980 C   0  0  0  0  0  0  0  0  0  0  0  0
   59.2837   34.3242   49.1502 H   0  0  0  0  0  0  0  0  0  0  0  0
   60.7784   34.4707   49.5545 H   0  0  0  0  0  0  0  0  0  0  0  0
   58.5670   30.3690   47.7640 N   0  0  0  0  0  0  0  0  0  0  0  0
   58.5030   30.2200   46.4210 C   0  0  0  0  0  0  0  0  0  0  0  0
  1  2  1  0
  2  3  1  0
  3  4  1  0
  4  5  1  0
  5  6  2  0
  5  7  1  0
  7  8  1  0
  8  9  1  0
  9 10  1  0
  9 11  2  0
 11 12  1  0
 12 13  1  0
 12 14  2  0
 14 15  1  0
 15 16  1  0
 16 17  2  3
 17 18  1  0
 18 19  1  0
 18 20  1  0
 18 21  1  0
 21 22  2  0
 21 23  1  0
 23 24  1  0
 24 25  2  0
 25 26  1  0
 25 27  1  0
 27 28  1  0
 27 29  2  0
 29 30  1  0
 29 31  1  0
 31 32  1  0
 32 33  3  0
 31 34  2  0
 34 35  1  0
 16 36  1  0
 36 37  1  0
 37 38  2  3
 38 39  1  0
 39 40  1  0
 39 41  1  0
 41 42  1  0
 41 43  1  0
 41 44  1  0
 44 45  1  0
 44 46  1  0
 37 47  1  0
 47 48  2  0
  8  3  2  0
 48 11  1  0
 48 15  1  0
 34 24  1  0
 44 39  1  0
M  CHG  4   4  -1   7  -1  23  -1  36  -1
M  END
>  <UniqueID>  (40) 
40

>  <SMILES>  (40) 
N#Cc1cccc([N-]C(=O)CN=c2[n-]c(=NC3CC3)nc3/c(=C\c4[n-]c(=O)[n-]c4O)cnn23)c1

>  <Energy>  (40) 
396.41506880846504

>  <Genealogy>  (40) 
N#Cc1cccc([N-]C(=O)CN=c2[n-]c(=NC3CC3)nc3c(=Cc4[n-]c(=O)[n-]c4O)cnn23)c1 (protonated)
N#Cc1cccc([N-]C(=O)CN=c2[n-]c(=NC3CC3)nc3/c(=C\c4[n-]c(=O)[n-]c4O)cnn23)c1 (cis-trans isomerization)
N#Cc1cccc([N-]C(=O)CN=c2[n-]c(=NC3CC3)nc3/c(=C\c4[n-]c(=O)[n-]c4O)cnn23)c1 (3D coordinates assigned)
N#Cc1cccc([N-]C(=O)CN=c2[n-]c(=NC3CC3)nc3/c(=C\c4[n-]c(=O)[n-]c4O)cnn23)c1 (nonaromatic ring conformer: 396.41506880846504 kcal/mol)

>  <smiles>  (40) 
N#Cc1cccc(NC(=O)CN=c2[nH]c(=NC3CC3)nc3c(=Cc4[nH]c(=O)[nH]c4O)cnn23)c1

>  <score_type>  (40) 
oracle

>  <origin>  (40) 
adg

>  <m_score__min__energy>  (40) 
-15.970000000000001

>  <m_primary>  (40) 
energy

$$$$
40:0
     RDKit          3D

 42 44  0  0  0  0  0  0  0  0999 V2000
   56.4670   29.7240   42.6450 C   0  0  0  0  0  0  0  0  0  0  0  0
   56.4790   29.8060   44.4230 S   0  0  0  0  0  0  0  0  0  0  0  0
   55.1460   29.3410   44.9360 O   0  0  0  0  0  0  0  0  0  0  0  0
   56.7090   31.2170   44.8830 O   0  0  0  0  0  0  0  0  0  0  0  0
   57.7130   28.7660   45.0590 N   0  0  0  0  0  0  0  0  0  0  0  0
   58.5550   29.0530   46.1850 C   0  0  0  0  0  0  0  0  0  0  0  0
   58.5090   28.2980   47.3690 C   0  0  0  0  0  0  0  0  0  0  0  0
   59.3510   28.6120   48.4390 C   0  0  0  0  0  0  0  0  0  0  0  0
   60.2440   29.6870   48.3430 C   0  0  0  0  0  0  0  0  0  0  0  0
   60.2940   30.4520   47.1620 C   0  0  0  0  0  0  0  0  0  0  0  0
   59.4580   30.1180   46.0840 C   0  0  0  0  0  0  0  0  0  0  0  0
   61.3140   31.5560   47.0200 C   0  0  0  0  0  0  0  0  0  0  0  0
   61.6380   32.1570   48.3210 N   0  0  0  0  0  0  0  0  0  0  0  0
   61.7280   33.6180   48.4570 C   0  0  0  0  0  0  0  0  0  0  0  0
   60.3500   34.2350   48.7400 C   0  0  0  0  0  0  0  0  0  0  0  0
   59.4740   34.2370   47.5140 C   0  0  0  0  0  0  0  0  0  0  0  0
   58.2630   33.5280   47.5090 C   0  0  0  0  0  0  0  0  0  0  0  0
   57.4810   33.4780   46.3510 C   0  0  0  0  0  0  0  0  0  0  0  0
   57.9070   34.1290   45.1900 C   0  0  0  0  0  0  0  0  0  0  0  0
   59.1140   34.8340   45.1850 C   0  0  0  0  0  0  0  0  0  0  0  0
   59.8950   34.8900   46.3420 C   0  0  0  0  0  0  0  0  0  0  0  0
   61.7350   31.3010   49.4720 C   0  0  0  0  0  0  0  0  0  0  0  0
   62.3570   31.6730   50.5030 O   0  0  0  0  0  0  0  0  0  0  0  0
   61.0760   30.0340   49.4560 N   0  0  0  0  0  0  0  0  0  0  0  0
   56.3145   28.6821   42.3270 H   0  0  0  0  0  0  0  0  0  0  0  0
   55.6509   30.3497   42.2546 H   0  0  0  0  0  0  0  0  0  0  0  0
   57.4282   30.0896   42.2546 H   0  0  0  0  0  0  0  0  0  0  0  0
   57.8067   27.4556   47.4541 H   0  0  0  0  0  0  0  0  0  0  0  0
   59.3125   28.0126   49.3605 H   0  0  0  0  0  0  0  0  0  0  0  0
   59.5133   30.6988   45.1514 H   0  0  0  0  0  0  0  0  0  0  0  0
   62.2321   31.1405   46.5791 H   0  0  0  0  0  0  0  0  0  0  0  0
   60.8898   32.3382   46.3733 H   0  0  0  0  0  0  0  0  0  0  0  0
   62.4070   33.8599   49.2879 H   0  0  0  0  0  0  0  0  0  0  0  0
   62.1084   34.0332   47.5121 H   0  0  0  0  0  0  0  0  0  0  0  0
   59.8546   33.6520   49.5304 H   0  0  0  0  0  0  0  0  0  0  0  0
   60.5010   35.2785   49.0534 H   0  0  0  0  0  0  0  0  0  0  0  0
   57.9277   33.0097   48.4194 H   0  0  0  0  0  0  0  0  0  0  0  0
   56.5297   32.9258   46.3538 H   0  0  0  0  0  0  0  0  0  0  0  0
   57.2918   34.0866   44.2791 H   0  0  0  0  0  0  0  0  0  0  0  0
   59.4489   35.3447   44.2701 H   0  0  0  0  0  0  0  0  0  0  0  0
   60.8434   35.4473   46.3361 H   0  0  0  0  0  0  0  0  0  0  0  0
   61.1140   29.4210   50.3020 H   0  0  0  0  0  0  0  0  0  0  0  0
  1  2  1  0
  2  3  2  0
  2  4  2  0
  2  5  1  0
  5  6  1  0
  6  7  2  0
  7  8  1  0
  8  9  2  0
  9 10  1  0
 10 11  2  0
 10 12  1  0
 12 13  1  0
 13 14  1  0
 14 15  1  0
 15 16  1  0
 16 17  2  0
 17 18  1  0
 18 19  2  0
 19 20  1  0
 20 21  2  0
 13 22  1  0
 22 23  2  0
 22 24  1  0
 11  6  1  0
 21 16  1  0
 24  9  1  0
  1 25  1  0
  1 26  1  0
  1 27  1  0
  7 28  1  0
  8 29  1  0
 11 30  1  0
 12 31  1  0
 12 32  1  0
 14 33  1  0
 14 34  1  0
 15 35  1  0
 15 36  1  0
 17 37  1  0
 18 38  1  0
 19 39  1  0
 20 40  1  0
 21 41  1  0
 24 42  1  0
M  CHG  1   5  -1
M  END
>  <UniqueID>  (41) 
41

>  <SMILES>  (41) 
CS(=O)(=O)[N-]c1ccc2c(c1)CN(CCc1ccccc1)C(=O)N2

>  <Energy>  (41) 
39.200117995149704

>  <Genealogy>  (41) 
CS(=O)(=O)[N-]c1ccc2c(c1)CN(CCc1ccccc1)C(=O)N2 (protonated)
CS(=O)(=O)[N-]c1ccc2c(c1)CN(CCc1ccccc1)C(=O)N2 (3D coordinates assigned)
CS(=O)(=O)[N-]c1ccc2c(c1)CN(CCc1ccccc1)C(=O)N2 (nonaromatic ring conformer: 39.200117995149704 kcal/mol)

>  <smiles>  (41) 
CS(=O)(=O)Nc1ccc2c(c1)CN(CCc1ccccc1)C(=O)N2

>  <score_type>  (41) 
oracle

>  <origin>  (41) 
adg

>  <m_score__min__energy>  (41) 
-9.6300000000000008

>  <m_primary>  (41) 
energy

$$$$
41:0
     RDKit          3D

 65 68  0  0  0  0  0  0  0  0999 V2000
   66.2950   32.7360   50.2180 C   0  0  0  0  0  0  0  0  0  0  0  0
   65.2620   32.1820   49.4090 O   0  0  0  0  0  0  0  0  0  0  0  0
   64.0050   32.7730   49.2190 C   0  0  0  0  0  0  0  0  0  0  0  0
   63.5180   33.6330   50.2090 C   0  0  0  0  0  0  0  0  0  0  0  0
   62.2510   34.2120   50.0870 C   0  0  0  0  0  0  0  0  0  0  0  0
   61.4530   33.9410   48.9620 C   0  0  0  0  0  0  0  0  0  0  0  0
   60.0400   34.4630   48.8810 C   0  0  0  0  0  0  0  0  0  0  0  0
   59.5140   34.2540   47.5210 N   0  0  0  0  0  0  0  0  0  0  0  0
   59.9980   35.0290   46.5010 C   0  0  0  0  0  0  0  0  0  0  0  0
   59.6410   34.7780   45.1780 C   0  0  0  0  0  0  0  0  0  0  0  0
   58.7940   33.7070   44.8810 C   0  0  0  0  0  0  0  0  0  0  0  0
   58.5110   33.3860   43.5860 N   0  0  0  0  0  0  0  0  0  0  0  0
   57.7400   32.3050   43.2620 C   0  0  0  0  0  0  0  0  0  0  0  0
   57.5390   31.9520   41.8120 C   0  0  0  0  0  0  0  0  0  0  0  0
   57.1650   31.5230   44.2900 C   0  0  0  0  0  0  0  0  0  0  0  0
   56.3300   30.3380   43.9900 C   0  0  0  0  0  0  0  0  0  0  0  0
   55.2990   30.1240   44.6780 O   0  0  0  0  0  0  0  0  0  0  0  0
   56.6310   29.4500   42.9020 N   0  0  0  0  0  0  0  0  0  0  0  0
   57.4070   28.2150   42.9860 C   0  0  0  0  0  0  0  0  0  0  0  0
   57.9190   27.9910   44.3720 C   0  0  0  0  0  0  0  0  0  0  0  0
   57.6020   26.9150   45.1200 N   0  0  0  0  0  0  0  0  0  0  0  0
   58.2650   27.1310   46.2730 C   0  0  0  0  0  0  0  0  0  0  0  0
   58.1980   26.1800   47.4270 C   0  0  0  0  0  0  0  0  0  0  0  0
   58.9720   28.3290   46.1800 C   0  0  0  0  0  0  0  0  0  0  0  0
   59.8190   29.0480   47.2230 C   0  0  0  0  0  0  0  0  0  0  0  0
   58.8900   29.7100   48.2630 C   0  0  0  0  0  0  0  0  0  0  0  0
   60.7070   28.0170   47.9430 C   0  0  0  0  0  0  0  0  0  0  0  0
   60.6980   30.1510   46.5900 C   0  0  0  0  0  0  0  0  0  0  0  0
   58.7200   28.8270   44.9920 O   0  0  0  0  0  0  0  0  0  0  0  0
   57.4130   31.8670   45.6230 C   0  0  0  0  0  0  0  0  0  0  0  0
   58.2630   32.9360   45.9320 C   0  0  0  0  0  0  0  0  0  0  0  0
   58.6340   33.2310   47.2600 C   0  0  0  0  0  0  0  0  0  0  0  0
   58.1730   32.5340   48.2090 O   0  0  0  0  0  0  0  0  0  0  0  0
   61.9480   33.0930   47.9580 C   0  0  0  0  0  0  0  0  0  0  0  0
   63.2170   32.5180   48.0800 C   0  0  0  0  0  0  0  0  0  0  0  0
   66.0418   32.6002   51.2798 H   0  0  0  0  0  0  0  0  0  0  0  0
   67.2450   32.2263   49.9995 H   0  0  0  0  0  0  0  0  0  0  0  0
   66.3960   33.8093   49.9995 H   0  0  0  0  0  0  0  0  0  0  0  0
   64.1368   33.8556   51.0907 H   0  0  0  0  0  0  0  0  0  0  0  0
   61.8772   34.8825   50.8749 H   0  0  0  0  0  0  0  0  0  0  0  0
   59.4090   33.9256   49.6043 H   0  0  0  0  0  0  0  0  0  0  0  0
   60.0334   35.5379   49.1144 H   0  0  0  0  0  0  0  0  0  0  0  0
   60.6788   35.8622   46.7297 H   0  0  0  0  0  0  0  0  0  0  0  0
   60.0241   35.4199   44.3710 H   0  0  0  0  0  0  0  0  0  0  0  0
   58.9250   33.9650   42.8180 H   0  0  0  0  0  0  0  0  0  0  0  0
   56.9959   30.9982   41.7387 H   0  0  0  0  0  0  0  0  0  0  0  0
   56.9566   32.7444   41.3190 H   0  0  0  0  0  0  0  0  0  0  0  0
   58.5176   31.8555   41.3190 H   0  0  0  0  0  0  0  0  0  0  0  0
   56.7659   27.3684   42.6992 H   0  0  0  0  0  0  0  0  0  0  0  0
   58.2678   28.2978   42.3061 H   0  0  0  0  0  0  0  0  0  0  0  0
   58.2378   26.7446   48.3702 H   0  0  0  0  0  0  0  0  0  0  0  0
   57.2576   25.6114   47.3794 H   0  0  0  0  0  0  0  0  0  0  0  0
   59.0494   25.4851   47.3794 H   0  0  0  0  0  0  0  0  0  0  0  0
   59.2384   29.4618   49.2764 H   0  0  0  0  0  0  0  0  0  0  0  0
   58.9060   30.8014   48.1268 H   0  0  0  0  0  0  0  0  0  0  0  0
   57.8636   29.3385   48.1268 H   0  0  0  0  0  0  0  0  0  0  0  0
   60.6020   28.1390   49.0312 H   0  0  0  0  0  0  0  0  0  0  0  0
   60.3963   27.0015   47.6562 H   0  0  0  0  0  0  0  0  0  0  0  0
   61.7573   28.1738   47.6562 H   0  0  0  0  0  0  0  0  0  0  0  0
   61.1711   30.7447   47.3860 H   0  0  0  0  0  0  0  0  0  0  0  0
   61.4765   29.6868   45.9668 H   0  0  0  0  0  0  0  0  0  0  0  0
   60.0718   30.8063   45.9668 H   0  0  0  0  0  0  0  0  0  0  0  0
   56.9376   31.2945   46.4331 H   0  0  0  0  0  0  0  0  0  0  0  0
   61.3341   32.8798   47.0705 H   0  0  0  0  0  0  0  0  0  0  0  0
   63.6011   31.8641   47.2832 H   0  0  0  0  0  0  0  0  0  0  0  0
  1  2  1  0
  2  3  1  0
  3  4  2  0
  4  5  1  0
  5  6  2  0
  6  7  1  0
  7  8  1  0
  8  9  1  0
  9 10  2  0
 10 11  1  0
 11 12  2  0
 12 13  1  0
 13 14  1  0
 13 15  2  0
 15 16  1  0
 16 17  2  0
 16 18  1  0
 18 19  1  0
 19 20  1  0
 20 21  2  0
 21 22  1  0
 22 23  1  0
 22 24  2  0
 24 25  1  0
 25 26  1  0
 25 27  1  0
 25 28  1  0
 24 29  1  0
 15 30  1  0
 30 31  2  0
 31 32  1  0
 32 33  2  0
  6 34  1  0
 34 35  2  0
 35  3  1  0
 32  8  1  0
 31 11  1  0
 29 20  1  0
  1 36  1  0
  1 37  1  0
  1 38  1  0
  4 39  1  0
  5 40  1  0
  7 41  1  0
  7 42  1  0
  9 43  1  0
 10 44  1  0
 12 45  1  0
 14 46  1  0
 14 47  1  0
 14 48  1  0
 19 49  1  0
 19 50  1  0
 23 51  1  0
 23 52  1  0
 23 53  1  0
 26 54  1  0
 26 55  1  0
 26 56  1  0
 27 57  1  0
 27 58  1  0
 27 59  1  0
 28 60  1  0
 28 61  1  0
 28 62  1  0
 30 63  1  0
 34 64  1  0
 35 65  1  0
M  CHG  2  12   1  18  -1
M  END
>  <UniqueID>  (42) 
42

>  <SMILES>  (42) 
COc1ccc(Cn2ccc3[nH+]c(C)c(C(=O)[N-]Cc4nc(C)c(C(C)(C)C)o4)cc3c2=O)cc1

>  <Energy>  (42) 
96.62904673178917

>  <Genealogy>  (42) 
COc1ccc(Cn2ccc3[nH+]c(C)c(C(=O)[N-]Cc4nc(C)c(C(C)(C)C)o4)cc3c2=O)cc1 (protonated)
COc1ccc(Cn2ccc3[nH+]c(C)c(C(=O)[N-]Cc4nc(C)c(C(C)(C)C)o4)cc3c2=O)cc1 (3D coordinates assigned)
COc1ccc(Cn2ccc3[nH+]c(C)c(C(=O)[N-]Cc4nc(C)c(C(C)(C)C)o4)cc3c2=O)cc1 (optimized conformer: 96.62904673178917 kcal/mol)

>  <smiles>  (42) 
COc1ccc(Cn2ccc3nc(C)c(C(=O)NCc4nc(C)c(C(C)(C)C)o4)cc3c2=O)cc1

>  <score_type>  (42) 
oracle

>  <origin>  (42) 
adg

>  <m_score__min__energy>  (42) 
-9.5500000000000007

>  <m_primary>  (42) 
energy

$$$$
42:0
     RDKit          3D

 63 66  0  0  0  0  0  0  0  0999 V2000
   63.6640   31.8750   46.8000 C   0  0  0  0  0  0  0  0  0  0  0  0
   63.8870   32.5110   48.1120 N   0  0  0  0  0  0  0  0  0  0  0  0
   63.1970   33.8260   48.1660 C   0  0  0  0  0  0  0  0  0  0  0  0
   62.9770   34.2770   49.6180 C   0  0  0  0  0  0  0  0  0  0  0  0
   62.1210   33.3290   50.3800 N   0  0  0  0  0  0  0  0  0  0  0  0
   60.7420   33.8520   50.5250 C   0  0  0  0  0  0  0  0  0  0  0  0
   60.2580   34.5610   49.2550 C   0  0  0  0  0  0  0  0  0  0  0  0
   58.9820   34.0580   48.8720 O   0  0  0  0  0  0  0  0  0  0  0  0
   58.7040   33.4430   47.6430 C   0  0  0  0  0  0  0  0  0  0  0  0
   57.3760   33.4130   47.2050 C   0  0  0  0  0  0  0  0  0  0  0  0
   57.0470   32.8400   45.9750 C   0  0  0  0  0  0  0  0  0  0  0  0
   58.0390   32.2580   45.1750 C   0  0  0  0  0  0  0  0  0  0  0  0
   57.6670   31.7240   43.8450 C   0  0  0  0  0  0  0  0  0  0  0  0
   57.0500   30.5540   43.6230 C   0  0  0  0  0  0  0  0  0  0  0  0
   57.1840   29.3450   44.4690 C   0  0  0  0  0  0  0  0  0  0  0  0
   56.0370   28.6580   44.8800 C   0  0  0  0  0  0  0  0  0  0  0  0
   54.7760   29.0620   44.4510 O   0  0  0  0  0  0  0  0  0  0  0  0
   56.1480   27.5850   45.6980 N   0  0  0  0  0  0  0  0  0  0  0  0
   57.3540   27.1580   46.1500 C   0  0  0  0  0  0  0  0  0  0  0  0
   57.3980   26.1490   46.9070 O   0  0  0  0  0  0  0  0  0  0  0  0
   58.5040   27.8170   45.7930 N   0  0  0  0  0  0  0  0  0  0  0  0
   59.8070   27.3420   46.3050 C   0  0  0  0  0  0  0  0  0  0  0  0
   60.0570   27.8650   47.6970 C   0  0  0  0  0  0  0  0  0  0  0  0
   59.6940   29.1790   48.0360 C   0  0  0  0  0  0  0  0  0  0  0  0
   59.9450   29.6690   49.3220 C   0  0  0  0  0  0  0  0  0  0  0  0
   60.5430   28.8500   50.2820 C   0  0  0  0  0  0  0  0  0  0  0  0
   60.7760   29.3240   51.5300 F   0  0  0  0  0  0  0  0  0  0  0  0
   60.9000   27.5380   49.9560 C   0  0  0  0  0  0  0  0  0  0  0  0
   60.6640   27.0470   48.6680 C   0  0  0  0  0  0  0  0  0  0  0  0
   58.4300   28.9090   44.9610 C   0  0  0  0  0  0  0  0  0  0  0  0
   59.4770   29.5430   44.6470 O   0  0  0  0  0  0  0  0  0  0  0  0
   59.3750   32.2840   45.6120 C   0  0  0  0  0  0  0  0  0  0  0  0
   59.7060   32.8690   46.8390 C   0  0  0  0  0  0  0  0  0  0  0  0
   62.1330   31.9520   49.8240 C   0  0  0  0  0  0  0  0  0  0  0  0
   63.5030   31.5990   49.2240 C   0  0  0  0  0  0  0  0  0  0  0  0
   63.3033   30.8464   46.9477 H   0  0  0  0  0  0  0  0  0  0  0  0
   62.9136   32.4493   46.2369 H   0  0  0  0  0  0  0  0  0  0  0  0
   64.6087   31.8550   46.2369 H   0  0  0  0  0  0  0  0  0  0  0  0
   64.9180   32.6910   48.1920 H   0  0  0  0  0  0  0  0  0  0  0  0
   63.8118   34.5757   47.6464 H   0  0  0  0  0  0  0  0  0  0  0  0
   62.2157   33.7254   47.6793 H   0  0  0  0  0  0  0  0  0  0  0  0
   63.9543   34.3509   50.1174 H   0  0  0  0  0  0  0  0  0  0  0  0
   62.4635   35.2495   49.5942 H   0  0  0  0  0  0  0  0  0  0  0  0
   60.0652   33.0125   50.7425 H   0  0  0  0  0  0  0  0  0  0  0  0
   60.7425   34.5865   51.3439 H   0  0  0  0  0  0  0  0  0  0  0  0
   60.1807   35.6412   49.4479 H   0  0  0  0  0  0  0  0  0  0  0  0
   60.9769   34.3773   48.4429 H   0  0  0  0  0  0  0  0  0  0  0  0
   56.5841   33.8445   47.8349 H   0  0  0  0  0  0  0  0  0  0  0  0
   56.0019   32.8456   45.6318 H   0  0  0  0  0  0  0  0  0  0  0  0
   57.9173   32.3373   42.9668 H   0  0  0  0  0  0  0  0  0  0  0  0
   56.3927   30.4867   42.7436 H   0  0  0  0  0  0  0  0  0  0  0  0
   59.8067   26.2422   46.3274 H   0  0  0  0  0  0  0  0  0  0  0  0
   60.6028   27.7107   45.6411 H   0  0  0  0  0  0  0  0  0  0  0  0
   59.2109   29.8247   47.2879 H   0  0  0  0  0  0  0  0  0  0  0  0
   59.6704   30.7030   49.5779 H   0  0  0  0  0  0  0  0  0  0  0  0
   61.3670   26.8913   50.7135 H   0  0  0  0  0  0  0  0  0  0  0  0
   60.9541   26.0171   48.4128 H   0  0  0  0  0  0  0  0  0  0  0  0
   60.1642   31.8421   44.9859 H   0  0  0  0  0  0  0  0  0  0  0  0
   60.7530   32.8803   47.1763 H   0  0  0  0  0  0  0  0  0  0  0  0
   61.9010   31.2393   50.6292 H   0  0  0  0  0  0  0  0  0  0  0  0
   61.3808   31.8965   49.0233 H   0  0  0  0  0  0  0  0  0  0  0  0
   64.2637   31.6673   50.0157 H   0  0  0  0  0  0  0  0  0  0  0  0
   63.4377   30.5800   48.8149 H   0  0  0  0  0  0  0  0  0  0  0  0
  1  2  1  0
  2  3  1  0
  3  4  1  0
  4  5  1  0
  5  6  1  0
  6  7  1  0
  7  8  1  0
  8  9  1  0
  9 10  2  0
 10 11  1  0
 11 12  2  0
 12 13  1  0
 13 14  2  3
 14 15  1  0
 15 16  2  0
 16 17  1  0
 16 18  1  0
 18 19  1  0
 19 20  2  0
 19 21  1  0
 21 22  1  0
 22 23  1  0
 23 24  2  0
 24 25  1  0
 25 26  2  0
 26 27  1  0
 26 28  1  0
 28 29  2  0
 21 30  1  0
 30 31  2  0
 12 32  1  0
 32 33  2  0
  5 34  1  0
 34 35  1  0
 35  2  1  0
 33  9  1  0
 30 15  1  0
 29 23  1  0
  1 36  1  0
  1 37  1  0
  1 38  1  0
  2 39  1  0
  3 40  1  0
  3 41  1  0
  4 42  1  0
  4 43  1  0
  6 44  1  0
  6 45  1  0
  7 46  1  0
  7 47  1  0
 10 48  1  0
 11 49  1  0
 13 50  1  0
 14 51  1  0
 22 52  1  0
 22 53  1  0
 24 54  1  0
 25 55  1  0
 28 56  1  0
 29 57  1  0
 32 58  1  0
 33 59  1  0
 34 60  1  0
 34 61  1  0
 35 62  1  0
 35 63  1  0
M  CHG  3   2   1  17  -1  18  -1
M  END
>  <UniqueID>  (43) 
43

>  <SMILES>  (43) 
C[NH+]1CCN(CCOc2ccc(C=Cc3c([O-])[n-]c(=O)n(Cc4ccc(F)cc4)c3=O)cc2)CC1

>  <Energy>  (43) 
89.97223715317718

>  <Genealogy>  (43) 
C[NH+]1CCN(CCOc2ccc(C=Cc3c([O-])[n-]c(=O)n(Cc4ccc(F)cc4)c3=O)cc2)CC1 (protonated)
C[NH+]1CCN(CCOc2ccc(C=Cc3c([O-])[n-]c(=O)n(Cc4ccc(F)cc4)c3=O)cc2)CC1 (3D coordinates assigned)
C[NH+]1CCN(CCOc2ccc(C=Cc3c([O-])[n-]c(=O)n(Cc4ccc(F)cc4)c3=O)cc2)CC1 (nonaromatic ring conformer: 89.97223715317718 kcal/mol)

>  <smiles>  (43) 
CN1CCN(CCOc2ccc(C=Cc3c(O)[nH]c(=O)n(Cc4ccc(F)cc4)c3=O)cc2)CC1

>  <score_type>  (43) 
oracle

>  <origin>  (43) 
adg

>  <m_score__min__energy>  (43) 
-12.85

>  <m_primary>  (43) 
energy

$$$$
43:0
     RDKit          3D

 47 49  0  0  0  0  0  0  0  0999 V2000
   61.2830   32.2670   49.0720 O   0  0  0  0  0  0  0  0  0  0  0  0
   61.0530   31.8770   47.8970 C   0  0  0  0  0  0  0  0  0  0  0  0
   61.0190   32.8640   46.7680 C   0  0  0  0  0  0  0  0  0  0  0  0
   59.6120   33.2800   46.3580 C   0  0  0  0  0  0  0  0  0  0  0  0
   59.3800   34.0300   45.1800 C   0  0  0  0  0  0  0  0  0  0  0  0
   58.0880   34.4010   44.8080 C   0  0  0  0  0  0  0  0  0  0  0  0
   57.0060   34.0590   45.6150 C   0  0  0  0  0  0  0  0  0  0  0  0
   57.2160   33.3630   46.8060 C   0  0  0  0  0  0  0  0  0  0  0  0
   58.5040   32.9780   47.1920 C   0  0  0  0  0  0  0  0  0  0  0  0
   58.6450   32.3120   48.4130 O   0  0  0  0  0  0  0  0  0  0  0  0
   60.8570   30.4910   47.6110 N   0  0  0  0  0  0  0  0  0  0  0  0
   59.9620   29.9710   46.5790 C   0  0  1  0  0  0  0  0  0  0  0  0
   60.5800   28.7310   45.9130 C   0  0  0  0  0  0  0  0  0  0  0  0
   59.5170   27.7670   45.4550 C   0  0  0  0  0  0  0  0  0  0  0  0
   59.0220   27.8330   44.1420 C   0  0  0  0  0  0  0  0  0  0  0  0
   58.0620   26.9160   43.7050 C   0  0  0  0  0  0  0  0  0  0  0  0
   57.5940   25.9230   44.5710 C   0  0  0  0  0  0  0  0  0  0  0  0
   58.0900   25.8410   45.8740 C   0  0  0  0  0  0  0  0  0  0  0  0
   59.0490   26.7590   46.3160 C   0  0  0  0  0  0  0  0  0  0  0  0
   58.6540   29.6150   47.2200 C   0  0  0  0  0  0  0  0  0  0  0  0
   58.6150   29.3110   48.4410 O   0  0  0  0  0  0  0  0  0  0  0  0
   57.4380   29.7380   46.4690 N   0  0  0  0  0  0  0  0  0  0  0  0
   57.2830   30.1380   45.2330 C   0  0  0  0  0  0  0  0  0  0  0  0
   58.2740   30.8930   44.6830 N   0  0  0  0  0  0  0  0  0  0  0  0
   58.2150   31.3660   43.4100 C   0  0  0  0  0  0  0  0  0  0  0  0
   57.1070   31.0930   42.6130 C   0  0  0  0  0  0  0  0  0  0  0  0
   56.0780   30.3090   43.1310 C   0  0  0  0  0  0  0  0  0  0  0  0
   56.1580   29.8070   44.4330 C   0  0  0  0  0  0  0  0  0  0  0  0
   55.1460   28.9670   44.8820 O   0  0  0  0  0  0  0  0  0  0  0  0
   61.5706   33.7640   47.0773 H   0  0  0  0  0  0  0  0  0  0  0  0
   61.4741   32.3703   45.8967 H   0  0  0  0  0  0  0  0  0  0  0  0
   60.2313   34.3245   44.5487 H   0  0  0  0  0  0  0  0  0  0  0  0
   57.9238   34.9637   43.8772 H   0  0  0  0  0  0  0  0  0  0  0  0
   55.9855   34.3376   45.3135 H   0  0  0  0  0  0  0  0  0  0  0  0
   56.3587   33.1142   47.4487 H   0  0  0  0  0  0  0  0  0  0  0  0
   59.1530   31.4450   48.5240 H   0  0  0  0  0  0  0  0  0  0  0  0
   59.8045   30.7341   45.8026 H   0  0  0  0  0  0  0  0  0  0  0  0
   61.1730   29.0499   45.0431 H   0  0  0  0  0  0  0  0  0  0  0  0
   61.2152   28.2209   46.6521 H   0  0  0  0  0  0  0  0  0  0  0  0
   59.3912   28.6091   43.4554 H   0  0  0  0  0  0  0  0  0  0  0  0
   57.6738   26.9756   42.6775 H   0  0  0  0  0  0  0  0  0  0  0  0
   56.8347   25.2059   44.2258 H   0  0  0  0  0  0  0  0  0  0  0  0
   57.7269   25.0550   46.5525 H   0  0  0  0  0  0  0  0  0  0  0  0
   59.4387   26.6916   47.3424 H   0  0  0  0  0  0  0  0  0  0  0  0
   59.0450   31.9660   43.0087 H   0  0  0  0  0  0  0  0  0  0  0  0
   57.0445   31.4903   41.5892 H   0  0  0  0  0  0  0  0  0  0  0  0
   55.1974   30.0838   42.5115 H   0  0  0  0  0  0  0  0  0  0  0  0
  1  2  2  0
  2  3  1  0
  3  4  1  0
  4  5  2  0
  5  6  1  0
  6  7  2  0
  7  8  1  0
  8  9  2  0
  9 10  1  0
  2 11  1  0
 11 12  1  0
 12 13  1  0
 13 14  1  0
 14 15  2  0
 15 16  1  0
 16 17  2  0
 17 18  1  0
 18 19  2  0
 12 20  1  0
 20 21  2  0
 20 22  1  0
 22 23  2  3
 23 24  1  0
 24 25  1  0
 25 26  2  0
 26 27  1  0
 27 28  2  0
 28 29  1  0
  9  4  1  0
 19 14  1  0
 28 23  1  0
  3 30  1  0
  3 31  1  0
  5 32  1  0
  6 33  1  0
  7 34  1  0
  8 35  1  0
 10 36  1  0
 12 37  1  6
 13 38  1  0
 13 39  1  0
 15 40  1  0
 16 41  1  0
 17 42  1  0
 18 43  1  0
 19 44  1  0
 25 45  1  0
 26 46  1  0
 27 47  1  0
M  CHG  3  11  -1  24  -1  29  -1
M  END
>  <UniqueID>  (44) 
44

>  <SMILES>  (44) 
O=C(Cc1ccccc1O)[N-][C@@H](Cc1ccccc1)C(=O)N=c1[n-]cccc1[O-]

>  <Energy>  (44) 
59.41277838846025

>  <Genealogy>  (44) 
O=C(Cc1ccccc1O)[N-]C(Cc1ccccc1)C(=O)N=c1[n-]cccc1[O-] (protonated)
O=C(Cc1ccccc1O)[N-][C@@H](Cc1ccccc1)C(=O)N=c1[n-]cccc1[O-] (chirality)
O=C(Cc1ccccc1O)[N-][C@@H](Cc1ccccc1)C(=O)N=c1[n-]cccc1[O-] (3D coordinates assigned)
O=C(Cc1ccccc1O)[N-][C@@H](Cc1ccccc1)C(=O)N=c1[n-]cccc1[O-] (optimized conformer: 59.41277838846025 kcal/mol)

>  <smiles>  (44) 
O=C(Cc1ccccc1O)NC(Cc1ccccc1)C(=O)N=c1[nH]cccc1O

>  <score_type>  (44) 
oracle

>  <origin>  (44) 
adg

>  <m_score__min__energy>  (44) 
-13.83

>  <m_primary>  (44) 
energy

$$$$
44:0
     RDKit          3D

 34 36  0  0  0  0  0  0  0  0999 V2000
   59.0650   34.2680   46.3090 C   0  0  0  0  0  0  0  0  0  0  0  0
   58.4840   33.2080   45.4370 C   0  0  0  0  0  0  0  0  0  0  0  0
   58.3420   33.2810   44.0570 C   0  0  0  0  0  0  0  0  0  0  0  0
   57.6900   32.1690   43.5090 C   0  0  0  0  0  0  0  0  0  0  0  0
   57.3050   31.2330   44.4640 C   0  0  0  0  0  0  0  0  0  0  0  0
   56.6000   29.9730   44.2000 C   0  0  0  0  0  0  0  0  0  0  0  0
   55.5770   29.6750   44.8750 O   0  0  0  0  0  0  0  0  0  0  0  0
   57.0730   29.0890   43.1790 N   0  0  0  0  0  0  0  0  0  0  0  0
   57.7700   27.8390   43.4590 C   0  0  0  0  0  0  0  0  0  0  0  0
   58.2150   27.8020   44.9030 C   0  0  0  0  0  0  0  0  0  0  0  0
   59.1980   28.7130   45.3220 C   0  0  0  0  0  0  0  0  0  0  0  0
   59.5620   28.7920   46.6660 C   0  0  0  0  0  0  0  0  0  0  0  0
   58.9340   27.9620   47.5910 C   0  0  0  0  0  0  0  0  0  0  0  0
   57.9950   27.0720   47.1800 N   0  0  0  0  0  0  0  0  0  0  0  0
   57.6280   26.9520   45.8730 C   0  0  0  0  0  0  0  0  0  0  0  0
   56.6500   25.9630   45.5300 N   0  0  0  0  0  0  0  0  0  0  0  0
   56.8700   24.8320   44.8320 C   0  0  0  0  0  0  0  0  0  0  0  0
   55.7070   24.0930   44.8270 C   0  0  0  0  0  0  0  0  0  0  0  0
   54.8150   24.8380   45.5740 C   0  0  0  0  0  0  0  0  0  0  0  0
   55.4150   25.9640   46.0060 N   0  0  0  0  0  0  0  0  0  0  0  0
   57.7720   31.7850   45.9850 S   0  0  0  0  0  0  0  0  0  0  0  0
   58.9163   33.9967   47.3646 H   0  0  0  0  0  0  0  0  0  0  0  0
   60.1413   34.3631   46.1030 H   0  0  0  0  0  0  0  0  0  0  0  0
   58.5661   35.2265   46.1030 H   0  0  0  0  0  0  0  0  0  0  0  0
   58.7051   34.1271   43.4551 H   0  0  0  0  0  0  0  0  0  0  0  0
   57.5013   32.0478   42.4321 H   0  0  0  0  0  0  0  0  0  0  0  0
   57.0927   26.9941   43.2657 H   0  0  0  0  0  0  0  0  0  0  0  0
   58.6544   27.7676   42.8088 H   0  0  0  0  0  0  0  0  0  0  0  0
   59.6844   29.3689   44.5850 H   0  0  0  0  0  0  0  0  0  0  0  0
   60.3365   29.5020   46.9917 H   0  0  0  0  0  0  0  0  0  0  0  0
   59.1992   28.0276   48.6565 H   0  0  0  0  0  0  0  0  0  0  0  0
   57.8162   24.5471   44.3487 H   0  0  0  0  0  0  0  0  0  0  0  0
   55.5284   23.1246   44.3369 H   0  0  0  0  0  0  0  0  0  0  0  0
   53.7731   24.5547   45.7841 H   0  0  0  0  0  0  0  0  0  0  0  0
  1  2  1  0
  2  3  2  0
  3  4  1  0
  4  5  2  0
  5  6  1  0
  6  7  2  0
  6  8  1  0
  8  9  1  0
  9 10  1  0
 10 11  2  0
 11 12  1  0
 12 13  2  0
 13 14  1  0
 14 15  2  0
 15 16  1  0
 16 17  1  0
 17 18  2  0
 18 19  1  0
 19 20  2  0
  5 21  1  0
 21  2  1  0
 15 10  1  0
 20 16  1  0
  1 22  1  0
  1 23  1  0
  1 24  1  0
  3 25  1  0
  4 26  1  0
  9 27  1  0
  9 28  1  0
 11 29  1  0
 12 30  1  0
 13 31  1  0
 17 32  1  0
 18 33  1  0
 19 34  1  0
M  CHG  1   8  -1
M  END
>  <UniqueID>  (45) 
45

>  <SMILES>  (45) 
Cc1ccc(C(=O)[N-]Cc2cccnc2-n2cccn2)s1

>  <Energy>  (45) 
95.46344491534408

>  <Genealogy>  (45) 
Cc1ccc(C(=O)[N-]Cc2cccnc2-n2cccn2)s1 (protonated)
Cc1ccc(C(=O)[N-]Cc2cccnc2-n2cccn2)s1 (3D coordinates assigned)
Cc1ccc(C(=O)[N-]Cc2cccnc2-n2cccn2)s1 (optimized conformer: 95.46344491534408 kcal/mol)

>  <smiles>  (45) 
Cc1ccc(C(=O)NCc2cccnc2-n2cccn2)s1

>  <score_type>  (45) 
oracle

>  <origin>  (45) 
adg

>  <m_score__min__energy>  (45) 
-9.0099999999999998

>  <m_primary>  (45) 
energy

$$$$
45:0
     RDKit          3D

 59 62  0  0  0  0  0  0  0  0999 V2000
   57.0290   25.5140   46.5210 C   0  0  0  0  0  0  0  0  0  0  0  0
   58.1850   25.0940   45.6280 C   0  0  0  0  0  0  0  0  0  0  0  0
   59.4100   25.2310   46.3410 O   0  0  0  0  0  0  0  0  0  0  0  0
   60.1860   26.3930   46.3000 C   0  0  0  0  0  0  0  0  0  0  0  0
   61.4110   26.3180   46.0070 O   0  0  0  0  0  0  0  0  0  0  0  0
   59.5710   27.7020   46.6280 C   0  0  0  0  0  0  0  0  0  0  0  0
   59.6330   28.2610   47.9070 C   0  0  0  0  0  0  0  0  0  0  0  0
   60.2110   27.6160   49.0520 N   0  0  0  0  0  0  0  0  0  0  0  0
   60.7560   28.2300   50.2280 C   0  0  0  0  0  0  0  0  0  0  0  0
   60.3500   27.8320   51.3530 O   0  0  0  0  0  0  0  0  0  0  0  0
   61.8080   29.3070   50.1570 C   0  0  0  0  0  0  0  0  0  0  0  0
   61.2050   30.6380   49.9840 N   0  0  0  0  0  0  0  0  0  0  0  0
   59.9840   30.8900   50.7180 C   0  0  0  0  0  0  0  0  0  0  0  0
   59.5450   32.0860   50.9660 N   0  0  0  0  0  0  0  0  0  0  0  0
   60.3930   33.4940   50.4530 S   0  0  0  0  0  0  0  0  0  0  0  0
   59.4160   34.4930   49.9010 O   0  0  0  0  0  0  0  0  0  0  0  0
   61.1550   34.0850   51.6040 O   0  0  0  0  0  0  0  0  0  0  0  0
   61.4910   32.9810   49.2020 C   0  0  0  0  0  0  0  0  0  0  0  0
   62.0610   33.9260   48.3400 C   0  0  0  0  0  0  0  0  0  0  0  0
   62.9250   33.5140   47.3240 C   0  0  0  0  0  0  0  0  0  0  0  0
   63.2140   32.1590   47.1650 C   0  0  0  0  0  0  0  0  0  0  0  0
   62.6490   31.2130   48.0260 C   0  0  0  0  0  0  0  0  0  0  0  0
   61.7840   31.6110   49.0700 C   0  0  0  0  0  0  0  0  0  0  0  0
   58.8640   29.7530   47.8970 S   0  0  0  0  0  0  0  0  0  0  0  0
   58.4440   29.7410   46.2710 C   0  0  0  0  0  0  0  0  0  0  0  0
   57.8170   30.8850   45.5740 C   0  0  0  0  0  0  0  0  0  0  0  0
   56.7890   30.6840   44.8730 O   0  0  0  0  0  0  0  0  0  0  0  0
   58.3810   32.2100   45.6420 N   0  0  0  0  0  0  0  0  0  0  0  0
   59.1560   32.6490   46.8060 C   0  0  0  0  0  0  0  0  0  0  0  0
   58.9330   34.1450   47.0400 C   0  0  0  0  0  0  0  0  0  0  0  0
   59.1840   34.8800   45.8570 O   0  0  0  0  0  0  0  0  0  0  0  0
   58.2320   34.5360   44.8680 C   0  0  0  0  0  0  0  0  0  0  0  0
   58.3830   33.0690   44.4530 C   0  0  0  0  0  0  0  0  0  0  0  0
   58.8870   28.5370   45.7020 C   0  0  0  0  0  0  0  0  0  0  0  0
   58.6270   28.1600   44.2680 C   0  0  0  0  0  0  0  0  0  0  0  0
   57.3228   25.4072   47.5756 H   0  0  0  0  0  0  0  0  0  0  0  0
   56.7705   26.5635   46.3168 H   0  0  0  0  0  0  0  0  0  0  0  0
   56.1571   24.8752   46.3168 H   0  0  0  0  0  0  0  0  0  0  0  0
   58.0522   24.0448   45.3256 H   0  0  0  0  0  0  0  0  0  0  0  0
   58.2081   25.7335   44.7333 H   0  0  0  0  0  0  0  0  0  0  0  0
   62.3928   29.2977   51.0886 H   0  0  0  0  0  0  0  0  0  0  0  0
   62.4522   29.1040   49.2888 H   0  0  0  0  0  0  0  0  0  0  0  0
   59.4022   30.0303   51.0818 H   0  0  0  0  0  0  0  0  0  0  0  0
   58.6660   32.2080   51.5180 H   0  0  0  0  0  0  0  0  0  0  0  0
   61.8277   34.9938   48.4636 H   0  0  0  0  0  0  0  0  0  0  0  0
   63.3770   34.2567   46.6501 H   0  0  0  0  0  0  0  0  0  0  0  0
   63.8887   31.8333   46.3596 H   0  0  0  0  0  0  0  0  0  0  0  0
   62.8807   30.1464   47.8889 H   0  0  0  0  0  0  0  0  0  0  0  0
   58.8312   32.0876   47.6944 H   0  0  0  0  0  0  0  0  0  0  0  0
   60.2248   32.4644   46.6227 H   0  0  0  0  0  0  0  0  0  0  0  0
   57.8916   34.3100   47.3533 H   0  0  0  0  0  0  0  0  0  0  0  0
   59.6262   34.4874   47.8224 H   0  0  0  0  0  0  0  0  0  0  0  0
   57.2207   34.6944   45.2706 H   0  0  0  0  0  0  0  0  0  0  0  0
   58.3968   35.1706   43.9847 H   0  0  0  0  0  0  0  0  0  0  0  0
   57.5451   32.7873   43.7983 H   0  0  0  0  0  0  0  0  0  0  0  0
   59.3345   32.9411   43.9160 H   0  0  0  0  0  0  0  0  0  0  0  0
   58.0028   27.2549   44.2342 H   0  0  0  0  0  0  0  0  0  0  0  0
   58.1047   28.9847   43.7610 H   0  0  0  0  0  0  0  0  0  0  0  0
   59.5835   27.9649   43.7610 H   0  0  0  0  0  0  0  0  0  0  0  0
  1  2  1  0
  2  3  1  0
  3  4  1  0
  4  5  2  0
  4  6  1  0
  6  7  2  0
  7  8  1  0
  8  9  1  0
  9 10  2  0
  9 11  1  0
 11 12  1  0
 12 13  1  0
 13 14  2  0
 14 15  1  0
 15 16  2  0
 15 17  2  0
 15 18  1  0
 18 19  2  0
 19 20  1  0
 20 21  2  0
 21 22  1  0
 22 23  2  0
  7 24  1  0
 24 25  1  0
 25 26  1  0
 26 27  2  0
 26 28  1  0
 28 29  1  0
 29 30  1  0
 30 31  1  0
 31 32  1  0
 32 33  1  0
 25 34  2  0
 34 35  1  0
 34  6  1  0
 23 12  1  0
 33 28  1  0
 23 18  1  0
  1 36  1  0
  1 37  1  0
  1 38  1  0
  2 39  1  0
  2 40  1  0
 11 41  1  0
 11 42  1  0
 13 43  1  0
 14 44  1  0
 19 45  1  0
 20 46  1  0
 21 47  1  0
 22 48  1  0
 29 49  1  0
 29 50  1  0
 30 51  1  0
 30 52  1  0
 32 53  1  0
 32 54  1  0
 33 55  1  0
 33 56  1  0
 35 57  1  0
 35 58  1  0
 35 59  1  0
M  CHG  2   8  -1  14   1
M  END
>  <UniqueID>  (46) 
46

>  <SMILES>  (46) 
CCOC(=O)c1c([N-]C(=O)CN2C=[NH+]S(=O)(=O)c3ccccc32)sc(C(=O)N2CCOCC2)c1C

>  <Energy>  (46) 
103.31622960647564

>  <Genealogy>  (46) 
CCOC(=O)c1c([N-]C(=O)CN2C=[NH+]S(=O)(=O)c3ccccc32)sc(C(=O)N2CCOCC2)c1C (protonated)
CCOC(=O)c1c([N-]C(=O)CN2C=[NH+]S(=O)(=O)c3ccccc32)sc(C(=O)N2CCOCC2)c1C (3D coordinates assigned)
CCOC(=O)c1c([N-]C(=O)CN2C=[NH+]S(=O)(=O)c3ccccc32)sc(C(=O)N2CCOCC2)c1C (nonaromatic ring conformer: 103.31622960647564 kcal/mol)

>  <smiles>  (46) 
CCOC(=O)c1c(NC(=O)CN2C=NS(=O)(=O)c3ccccc32)sc(C(=O)N2CCOCC2)c1C

>  <score_type>  (46) 
oracle

>  <origin>  (46) 
adg

>  <m_score__min__energy>  (46) 
-9.2100000000000009

>  <m_primary>  (46) 
energy

$$$$
46:0
     RDKit          3D

 48 50  0  0  0  0  0  0  0  0999 V2000
   56.6310   30.1620   43.6870 C   0  0  0  0  0  0  0  0  0  0  0  0
   56.4340   31.0890   44.7500 O   0  0  0  0  0  0  0  0  0  0  0  0
   57.4210   31.9590   45.2360 C   0  0  0  0  0  0  0  0  0  0  0  0
   57.3180   33.3560   45.1170 C   0  0  0  0  0  0  0  0  0  0  0  0
   58.3290   34.1790   45.6140 C   0  0  0  0  0  0  0  0  0  0  0  0
   59.4480   33.6220   46.2350 C   0  0  0  0  0  0  0  0  0  0  0  0
   59.5730   32.2260   46.3680 C   0  0  0  0  0  0  0  0  0  0  0  0
   60.7740   31.6480   47.0340 C   0  0  0  0  0  0  0  0  0  0  0  0
   61.8570   32.2980   47.0230 O   0  0  0  0  0  0  0  0  0  0  0  0
   60.7250   30.2980   47.7100 C   0  0  0  0  0  0  0  0  0  0  0  0
   60.1840   29.2240   46.8080 C   0  0  0  0  0  0  0  0  0  0  0  0
   60.7520   29.0010   45.7050 O   0  0  0  0  0  0  0  0  0  0  0  0
   59.0270   28.4720   47.2030 N   0  0  0  0  0  0  0  0  0  0  0  0
   58.5770   27.2780   46.5400 C   0  0  0  0  0  0  0  0  0  0  0  0
   58.4040   26.0710   47.2400 C   0  0  0  0  0  0  0  0  0  0  0  0
   57.9430   24.9300   46.5780 C   0  0  0  0  0  0  0  0  0  0  0  0
   57.6370   24.9760   45.2070 C   0  0  0  0  0  0  0  0  0  0  0  0
   57.1570   23.8040   44.5200 N   0  0  0  0  0  0  0  0  0  0  0  0
   55.9170   23.8580   43.7400 C   0  0  0  0  0  0  0  0  0  0  0  0
   55.9670   22.8130   42.6210 C   0  0  0  0  0  0  0  0  0  0  0  0
   56.2740   21.5340   43.1430 O   0  0  0  0  0  0  0  0  0  0  0  0
   57.5820   21.5390   43.6830 C   0  0  0  0  0  0  0  0  0  0  0  0
   57.6710   22.4810   44.8880 C   0  0  0  0  0  0  0  0  0  0  0  0
   57.7850   26.1890   44.5170 C   0  0  0  0  0  0  0  0  0  0  0  0
   58.2440   27.3300   45.1790 C   0  0  0  0  0  0  0  0  0  0  0  0
   58.5460   31.4050   45.8610 C   0  0  0  0  0  0  0  0  0  0  0  0
   56.8426   29.1661   44.1035 H   0  0  0  0  0  0  0  0  0  0  0  0
   55.7227   30.1152   43.0682 H   0  0  0  0  0  0  0  0  0  0  0  0
   57.4798   30.4886   43.0682 H   0  0  0  0  0  0  0  0  0  0  0  0
   56.4377   33.8015   44.6306 H   0  0  0  0  0  0  0  0  0  0  0  0
   58.2439   35.2713   45.5160 H   0  0  0  0  0  0  0  0  0  0  0  0
   60.2393   34.2796   46.6240 H   0  0  0  0  0  0  0  0  0  0  0  0
   61.7437   30.0202   48.0182 H   0  0  0  0  0  0  0  0  0  0  0  0
   60.0503   30.3806   48.5748 H   0  0  0  0  0  0  0  0  0  0  0  0
   58.4340   28.8580   47.9730 H   0  0  0  0  0  0  0  0  0  0  0  0
   58.6329   26.0246   48.3149 H   0  0  0  0  0  0  0  0  0  0  0  0
   57.8187   23.9890   47.1339 H   0  0  0  0  0  0  0  0  0  0  0  0
   55.0611   23.6485   44.3984 H   0  0  0  0  0  0  0  0  0  0  0  0
   55.8064   24.8597   43.2992 H   0  0  0  0  0  0  0  0  0  0  0  0
   54.9883   22.7731   42.1205 H   0  0  0  0  0  0  0  0  0  0  0  0
   56.7511   23.0997   41.9048 H   0  0  0  0  0  0  0  0  0  0  0  0
   57.8439   20.5195   44.0024 H   0  0  0  0  0  0  0  0  0  0  0  0
   58.2808   21.8900   42.9094 H   0  0  0  0  0  0  0  0  0  0  0  0
   57.0722   22.0734   45.7158 H   0  0  0  0  0  0  0  0  0  0  0  0
   58.7212   22.5726   45.2020 H   0  0  0  0  0  0  0  0  0  0  0  0
   57.5376   26.2416   43.4465 H   0  0  0  0  0  0  0  0  0  0  0  0
   58.3450   28.2768   44.6283 H   0  0  0  0  0  0  0  0  0  0  0  0
   58.6288   30.3124   45.9574 H   0  0  0  0  0  0  0  0  0  0  0  0
  1  2  1  0
  2  3  1  0
  3  4  2  0
  4  5  1  0
  5  6  2  0
  6  7  1  0
  7  8  1  0
  8  9  2  0
  8 10  1  0
 10 11  1  0
 11 12  2  0
 11 13  1  0
 13 14  1  0
 14 15  2  0
 15 16  1  0
 16 17  2  0
 17 18  1  0
 18 19  1  0
 19 20  1  0
 20 21  1  0
 21 22  1  0
 22 23  1  0
 17 24  1  0
 24 25  2  0
  7 26  2  0
 26  3  1  0
 25 14  1  0
 23 18  1  0
  1 27  1  0
  1 28  1  0
  1 29  1  0
  4 30  1  0
  5 31  1  0
  6 32  1  0
 10 33  1  0
 10 34  1  0
 13 35  1  0
 15 36  1  0
 16 37  1  0
 19 38  1  0
 19 39  1  0
 20 40  1  0
 20 41  1  0
 22 42  1  0
 22 43  1  0
 23 44  1  0
 23 45  1  0
 24 46  1  0
 25 47  1  0
 26 48  1  0
M  END
>  <UniqueID>  (47) 
47

>  <SMILES>  (47) 
COc1cccc(C(=O)CC(=O)Nc2ccc(N3CCOCC3)cc2)c1

>  <Energy>  (47) 
58.44316105228594

>  <Genealogy>  (47) 
COc1cccc(C(=O)CC(=O)Nc2ccc(N3CCOCC3)cc2)c1 (3D coordinates assigned)
COc1cccc(C(=O)CC(=O)Nc2ccc(N3CCOCC3)cc2)c1 (nonaromatic ring conformer: 58.44316105228594 kcal/mol)

>  <smiles>  (47) 
COc1cccc(C(=O)CC(=O)Nc2ccc(N3CCOCC3)cc2)c1

>  <score_type>  (47) 
oracle

>  <origin>  (47) 
adg

>  <m_score__min__energy>  (47) 
-7.9900000000000002

>  <m_primary>  (47) 
energy

$$$$
47:0
     RDKit          3D

 55 58  0  0  0  0  0  0  0  0999 V2000
   55.2000   25.2420   45.5910 C   0  0  0  0  0  0  0  0  0  0  0  0
   55.4150   26.6070   45.9580 O   0  0  0  0  0  0  0  0  0  0  0  0
   56.6620   27.2550   45.9200 C   0  0  0  0  0  0  0  0  0  0  0  0
   56.9250   28.3200   45.0380 C   0  0  0  0  0  0  0  0  0  0  0  0
   58.1580   28.9770   45.0660 C   0  0  0  0  0  0  0  0  0  0  0  0
   58.3730   30.0920   44.1980 N   0  0  0  0  0  0  0  0  0  0  0  0
   57.0820   31.1210   43.6630 S   0  0  0  0  0  0  0  0  0  0  0  0
   55.9260   31.0020   44.6150 O   0  0  0  0  0  0  0  0  0  0  0  0
   56.6290   30.6540   42.3080 O   0  0  0  0  0  0  0  0  0  0  0  0
   57.5850   32.8320   43.5550 C   0  0  0  0  0  0  0  0  0  0  0  0
   58.0990   33.3230   44.8800 C   0  0  0  0  0  0  0  0  0  0  0  0
   59.0890   34.3200   44.9250 C   0  0  0  0  0  0  0  0  0  0  0  0
   59.5700   34.7790   46.1570 C   0  0  0  0  0  0  0  0  0  0  0  0
   59.0690   34.2470   47.3500 C   0  0  0  0  0  0  0  0  0  0  0  0
   58.0920   33.2480   47.3130 C   0  0  0  0  0  0  0  0  0  0  0  0
   57.6110   32.7830   46.0840 C   0  0  0  0  0  0  0  0  0  0  0  0
   59.1610   28.5310   45.9340 C   0  0  0  0  0  0  0  0  0  0  0  0
   58.9300   27.4570   46.8130 C   0  0  0  0  0  0  0  0  0  0  0  0
   60.0270   26.9550   47.6870 C   0  0  0  0  0  0  0  0  0  0  0  0
   60.7290   25.9830   47.2980 O   0  0  0  0  0  0  0  0  0  0  0  0
   60.3850   27.5950   48.9210 N   0  0  0  0  0  0  0  0  0  0  0  0
   60.1350   28.9600   49.2860 C   0  0  0  0  0  0  0  0  0  0  0  0
   60.6400   29.9760   48.4670 C   0  0  0  0  0  0  0  0  0  0  0  0
   60.4130   31.3160   48.7880 C   0  0  0  0  0  0  0  0  0  0  0  0
   59.6810   31.6520   49.9300 C   0  0  0  0  0  0  0  0  0  0  0  0
   59.1730   30.6390   50.7700 C   0  0  0  0  0  0  0  0  0  0  0  0
   58.4280   30.9310   51.9650 N   0  0  0  0  0  0  0  0  0  0  0  0
   57.1440   31.5630   52.0560 C   0  0  0  0  0  0  0  0  0  0  0  0
   57.0270   32.8160   51.9370 O   0  0  0  0  0  0  0  0  0  0  0  0
   55.9420   30.7350   52.2230 C   0  0  0  0  0  0  0  0  0  0  0  0
   55.9830   29.3940   52.3850 N   0  0  0  0  0  0  0  0  0  0  0  0
   54.6880   29.0430   52.4860 C   0  0  0  0  0  0  0  0  0  0  0  0
   53.9020   30.1690   52.3850 C   0  0  0  0  0  0  0  0  0  0  0  0
   54.6900   31.2450   52.2170 N   0  0  0  0  0  0  0  0  0  0  0  0
   59.4240   29.2980   50.4510 C   0  0  0  0  0  0  0  0  0  0  0  0
   57.6650   26.8270   46.8020 C   0  0  0  0  0  0  0  0  0  0  0  0
   57.3900   25.7750   47.6690 O   0  0  0  0  0  0  0  0  0  0  0  0
   55.1034   24.6290   46.4992 H   0  0  0  0  0  0  0  0  0  0  0  0
   54.2784   25.1632   44.9957 H   0  0  0  0  0  0  0  0  0  0  0  0
   56.0528   24.8837   44.9957 H   0  0  0  0  0  0  0  0  0  0  0  0
   56.1537   28.6377   44.3209 H   0  0  0  0  0  0  0  0  0  0  0  0
   58.3812   32.9268   42.8019 H   0  0  0  0  0  0  0  0  0  0  0  0
   56.7128   33.4382   43.2691 H   0  0  0  0  0  0  0  0  0  0  0  0
   59.4868   34.7406   43.9897 H   0  0  0  0  0  0  0  0  0  0  0  0
   60.3440   35.5601   46.1871 H   0  0  0  0  0  0  0  0  0  0  0  0
   59.4437   34.6147   48.3166 H   0  0  0  0  0  0  0  0  0  0  0  0
   57.7009   32.8270   48.2510 H   0  0  0  0  0  0  0  0  0  0  0  0
   56.8476   31.9914   46.0591 H   0  0  0  0  0  0  0  0  0  0  0  0
   60.1430   29.0267   45.9290 H   0  0  0  0  0  0  0  0  0  0  0  0
   61.2178   29.7183   47.5672 H   0  0  0  0  0  0  0  0  0  0  0  0
   60.8119   32.1100   48.1395 H   0  0  0  0  0  0  0  0  0  0  0  0
   59.5005   32.7092   50.1745 H   0  0  0  0  0  0  0  0  0  0  0  0
   54.3157   28.0176   52.6271 H   0  0  0  0  0  0  0  0  0  0  0  0
   52.8032   30.1854   52.4340 H   0  0  0  0  0  0  0  0  0  0  0  0
   59.0614   28.5022   51.1182 H   0  0  0  0  0  0  0  0  0  0  0  0
  1  2  1  0
  2  3  1  0
  3  4  2  0
  4  5  1  0
  5  6  1  0
  6  7  1  0
  7  8  2  0
  7  9  2  0
  7 10  1  0
 10 11  1  0
 11 12  2  0
 12 13  1  0
 13 14  2  0
 14 15  1  0
 15 16  2  0
  5 17  2  0
 17 18  1  0
 18 19  1  0
 19 20  2  0
 19 21  1  0
 21 22  1  0
 22 23  2  0
 23 24  1  0
 24 25  2  0
 25 26  1  0
 26 27  1  0
 27 28  1  0
 28 29  2  0
 28 30  1  0
 30 31  2  0
 31 32  1  0
 32 33  2  0
 33 34  1  0
 26 35  2  0
 18 36  2  0
 36 37  1  0
 36  3  1  0
 16 11  1  0
 35 22  1  0
 34 30  1  0
  1 38  1  0
  1 39  1  0
  1 40  1  0
  4 41  1  0
 10 42  1  0
 10 43  1  0
 12 44  1  0
 13 45  1  0
 14 46  1  0
 15 47  1  0
 16 48  1  0
 17 49  1  0
 23 50  1  0
 24 51  1  0
 25 52  1  0
 32 53  1  0
 33 54  1  0
 35 55  1  0
M  CHG  5   6  -1  21  -1  27  -1  34  -1  37  -1
M  END
>  <UniqueID>  (48) 
48

>  <SMILES>  (48) 
COc1cc([N-]S(=O)(=O)Cc2ccccc2)cc(C(=O)[N-]c2cccc([N-]C(=O)c3ncc[n-]3)c2)c1[O-]

>  <Energy>  (48) 
95.34376823097483

>  <Genealogy>  (48) 
COc1cc([N-]S(=O)(=O)Cc2ccccc2)cc(C(=O)[N-]c2cccc([N-]C(=O)c3ncc[n-]3)c2)c1[O-] (protonated)
COc1cc([N-]S(=O)(=O)Cc2ccccc2)cc(C(=O)[N-]c2cccc([N-]C(=O)c3ncc[n-]3)c2)c1[O-] (3D coordinates assigned)
COc1cc([N-]S(=O)(=O)Cc2ccccc2)cc(C(=O)[N-]c2cccc([N-]C(=O)c3ncc[n-]3)c2)c1[O-] (optimized conformer: 95.34376823097483 kcal/mol)

>  <smiles>  (48) 
COc1cc(NS(=O)(=O)Cc2ccccc2)cc(C(=O)Nc2cccc(NC(=O)c3ncc[nH]3)c2)c1O

>  <score_type>  (48) 
oracle

>  <origin>  (48) 
adg

>  <m_score__min__energy>  (48) 
-16.690000000000001

>  <m_primary>  (48) 
energy

$$$$
48:0
     RDKit          3D

 42 43  0  0  0  0  0  0  0  0999 V2000
   58.9260   30.4250   48.4320 C   0  0  0  0  0  0  0  0  0  0  0  0
   58.8880   30.6220   47.0230 O   0  0  0  0  0  0  0  0  0  0  0  0
   58.4690   31.8060   46.3920 C   0  0  0  0  0  0  0  0  0  0  0  0
   58.2750   33.0020   47.1100 C   0  0  0  0  0  0  0  0  0  0  0  0
   57.9020   34.1730   46.4460 C   0  0  0  0  0  0  0  0  0  0  0  0
   57.7240   34.1670   45.0620 C   0  0  0  0  0  0  0  0  0  0  0  0
   57.9070   32.9870   44.3380 C   0  0  0  0  0  0  0  0  0  0  0  0
   58.2520   31.7980   44.9960 C   0  0  0  0  0  0  0  0  0  0  0  0
   58.4530   30.5740   44.1920 C   0  0  0  0  0  0  0  0  0  0  0  0
   57.4860   29.7020   43.8720 C   0  0  0  0  0  0  0  0  0  0  0  0
   56.1530   29.6370   44.5160 C   0  0  0  0  0  0  0  0  0  0  0  0
   55.3260   30.5740   44.3580 O   0  0  0  0  0  0  0  0  0  0  0  0
   55.7380   28.4660   45.2300 N   0  0  0  0  0  0  0  0  0  0  0  0
   56.6020   27.4810   45.8160 C   0  0  0  0  0  0  0  0  0  0  0  0
   57.9560   27.7630   46.0720 C   0  0  0  0  0  0  0  0  0  0  0  0
   58.7820   26.8040   46.6660 C   0  0  0  0  0  0  0  0  0  0  0  0
   60.4780   27.1820   46.9560 S   0  0  0  0  0  0  0  0  0  0  0  0
   60.7660   28.8520   46.6130 N   0  0  0  0  0  0  0  0  0  0  0  0
   61.3580   26.3410   46.0740 O   0  0  0  0  0  0  0  0  0  0  0  0
   60.8150   26.8970   48.3920 O   0  0  0  0  0  0  0  0  0  0  0  0
   58.2520   25.5590   47.0220 C   0  0  0  0  0  0  0  0  0  0  0  0
   56.9020   25.2800   46.7980 C   0  0  0  0  0  0  0  0  0  0  0  0
   56.0640   26.2420   46.2000 C   0  0  0  0  0  0  0  0  0  0  0  0
   54.7010   26.0010   45.9660 O   0  0  0  0  0  0  0  0  0  0  0  0
   54.1830   24.8150   45.3710 C   0  0  0  0  0  0  0  0  0  0  0  0
   58.7413   31.3824   48.9412 H   0  0  0  0  0  0  0  0  0  0  0  0
   58.1511   29.7001   48.7219 H   0  0  0  0  0  0  0  0  0  0  0  0
   59.9149   30.0403   48.7219 H   0  0  0  0  0  0  0  0  0  0  0  0
   58.4181   33.0141   48.2006 H   0  0  0  0  0  0  0  0  0  0  0  0
   57.7483   35.1016   47.0152 H   0  0  0  0  0  0  0  0  0  0  0  0
   57.4392   35.0928   44.5407 H   0  0  0  0  0  0  0  0  0  0  0  0
   57.7798   32.9904   43.2454 H   0  0  0  0  0  0  0  0  0  0  0  0
   59.4700   30.3631   43.8298 H   0  0  0  0  0  0  0  0  0  0  0  0
   57.6985   28.9796   43.0701 H   0  0  0  0  0  0  0  0  0  0  0  0
   58.3686   28.7465   45.8026 H   0  0  0  0  0  0  0  0  0  0  0  0
   60.6060   29.3800   47.5000 H   0  0  0  0  0  0  0  0  0  0  0  0
   60.0250   29.1580   45.9430 H   0  0  0  0  0  0  0  0  0  0  0  0
   58.9006   24.7976   47.4797 H   0  0  0  0  0  0  0  0  0  0  0  0
   56.4902   24.3028   47.0904 H   0  0  0  0  0  0  0  0  0  0  0  0
   53.8763   24.1127   46.1601 H   0  0  0  0  0  0  0  0  0  0  0  0
   53.3133   25.0677   44.7467 H   0  0  0  0  0  0  0  0  0  0  0  0
   54.9594   24.3487   44.7467 H   0  0  0  0  0  0  0  0  0  0  0  0
  1  2  1  0
  2  3  1  0
  3  4  2  0
  4  5  1  0
  5  6  2  0
  6  7  1  0
  7  8  2  0
  8  9  1  0
  9 10  2  3
 10 11  1  0
 11 12  2  0
 11 13  1  0
 13 14  1  0
 14 15  2  0
 15 16  1  0
 16 17  1  0
 17 18  1  0
 17 19  2  0
 17 20  2  0
 16 21  2  0
 21 22  1  0
 22 23  2  0
 23 24  1  0
 24 25  1  0
  8  3  1  0
 23 14  1  0
  1 26  1  0
  1 27  1  0
  1 28  1  0
  4 29  1  0
  5 30  1  0
  6 31  1  0
  7 32  1  0
  9 33  1  0
 10 34  1  0
 15 35  1  0
 18 36  1  0
 18 37  1  0
 21 38  1  0
 22 39  1  0
 25 40  1  0
 25 41  1  0
 25 42  1  0
M  CHG  1  13  -1
M  END
>  <UniqueID>  (49) 
49

>  <SMILES>  (49) 
COc1ccccc1C=CC(=O)[N-]c1cc(S(N)(=O)=O)ccc1OC

>  <Energy>  (49) 
51.146003235943056

>  <Genealogy>  (49) 
COc1ccccc1C=CC(=O)[N-]c1cc(S(N)(=O)=O)ccc1OC (protonated)
COc1ccccc1C=CC(=O)[N-]c1cc(S(N)(=O)=O)ccc1OC (3D coordinates assigned)
COc1ccccc1C=CC(=O)[N-]c1cc(S(N)(=O)=O)ccc1OC (optimized conformer: 51.146003235943056 kcal/mol)

>  <smiles>  (49) 
COc1ccccc1C=CC(=O)Nc1cc(S(N)(=O)=O)ccc1OC

>  <score_type>  (49) 
oracle

>  <origin>  (49) 
adg

>  <m_score__min__energy>  (49) 
-9.9499999999999993

>  <m_primary>  (49) 
energy

$$$$
49:0
     RDKit          3D

 36 38  0  0  0  0  0  0  0  0999 V2000
   60.5483   29.7828   48.7803 H   0  0  0  0  0  0  0  0  0  0  0  0
   60.1140   30.4190   47.9950 C   0  0  0  0  0  0  0  0  0  0  0  0
   58.9920   30.0160   47.3430 N   0  0  0  0  0  0  0  0  0  0  0  0
   58.4120   30.7680   46.3650 C   0  0  0  0  0  0  0  0  0  0  0  0
   57.3350   30.3690   45.7520 N   0  0  0  0  0  0  0  0  0  0  0  0
   56.9960   29.0210   45.3850 C   0  0  0  0  0  0  0  0  0  0  0  0
   56.3440   28.7810   44.3310 O   0  0  0  0  0  0  0  0  0  0  0  0
   57.3760   27.9500   46.2570 N   0  0  0  0  0  0  0  0  0  0  0  0
   57.6630   28.1950   47.2310 H   0  0  0  0  0  0  0  0  0  0  0  0
   57.1910   26.5620   45.9320 C   0  0  0  0  0  0  0  0  0  0  0  0
   58.2990   25.7990   45.5350 C   0  0  0  0  0  0  0  0  0  0  0  0
   59.2936   26.2659   45.4822 H   0  0  0  0  0  0  0  0  0  0  0  0
   58.1470   24.4490   45.2060 C   0  0  0  0  0  0  0  0  0  0  0  0
   59.0231   23.8539   44.9090 H   0  0  0  0  0  0  0  0  0  0  0  0
   56.8840   23.8550   45.2540 C   0  0  0  0  0  0  0  0  0  0  0  0
   56.7672   22.7905   45.0027 H   0  0  0  0  0  0  0  0  0  0  0  0
   55.7690   24.6120   45.6210 C   0  0  0  0  0  0  0  0  0  0  0  0
   54.7746   24.1430   45.6538 H   0  0  0  0  0  0  0  0  0  0  0  0
   55.9130   25.9650   45.9470 C   0  0  0  0  0  0  0  0  0  0  0  0
   54.7820   26.7130   46.2550 O   0  0  0  0  0  0  0  0  0  0  0  0
   58.9850   31.9940   46.0130 C   0  0  0  0  0  0  0  0  0  0  0  0
   58.5289   32.6115   45.2252 H   0  0  0  0  0  0  0  0  0  0  0  0
   60.1380   32.4300   46.6660 C   0  0  0  0  0  0  0  0  0  0  0  0
   60.5911   33.3941   46.3916 H   0  0  0  0  0  0  0  0  0  0  0  0
   60.7230   31.6440   47.6720 C   0  0  0  0  0  0  0  0  0  0  0  0
   61.9500   32.0950   48.3780 C   0  0  0  0  0  0  0  0  0  0  0  0
   62.5990   31.2470   49.2950 C   0  0  0  0  0  0  0  0  0  0  0  0
   62.1950   30.2429   49.4913 H   0  0  0  0  0  0  0  0  0  0  0  0
   63.7540   31.6730   49.9580 C   0  0  0  0  0  0  0  0  0  0  0  0
   64.2545   31.0038   50.6733 H   0  0  0  0  0  0  0  0  0  0  0  0
   64.2740   32.9470   49.7140 C   0  0  0  0  0  0  0  0  0  0  0  0
   65.7230   33.4790   50.5480 Cl  0  0  0  0  0  0  0  0  0  0  0  0
   63.6380   33.7970   48.8060 C   0  0  0  0  0  0  0  0  0  0  0  0
   64.0465   34.8002   48.6145 H   0  0  0  0  0  0  0  0  0  0  0  0
   62.4830   33.3750   48.1400 C   0  0  0  0  0  0  0  0  0  0  0  0
   61.9878   34.0486   47.4251 H   0  0  0  0  0  0  0  0  0  0  0  0
  1  2  1  0
  2  3  1  0
  3  4  1  0
  4  5  2  0
  5  6  1  0
  6  7  2  0
  6  8  1  0
  8  9  1  0
  8 10  1  0
 10 11  2  0
 11 12  1  0
 11 13  1  0
 13 14  1  0
 13 15  2  0
 15 16  1  0
 15 17  1  0
 17 18  1  0
 17 19  2  0
 19 20  1  0
  4 21  1  0
 21 22  1  0
 21 23  2  0
 23 24  1  0
 23 25  1  0
 25 26  1  0
 26 27  2  0
 27 28  1  0
 27 29  1  0
 29 30  1  0
 29 31  2  0
 31 32  1  0
 31 33  1  0
 33 34  1  0
 33 35  2  0
 35 36  1  0
 25  2  2  0
 35 26  1  0
 19 10  1  0
M  CHG  2   3  -1  20  -1
M  END
>  <UniqueID>  (50) 
50

>  <SMILES>  (50) 
O=C(/N=c1/ccc(-c2ccc(Cl)cc2)c[n-]1)Nc1ccccc1[O-]

>  <Energy>  (50) 
52.38169765639056

>  <Genealogy>  (50) 
O=C(N=c1ccc(-c2ccc(Cl)cc2)c[n-]1)Nc1ccccc1[O-] (protonated)
O=C(/N=c1/ccc(-c2ccc(Cl)cc2)c[n-]1)Nc1ccccc1[O-] (cis-trans isomerization)
O=C(/N=c1/ccc(-c2ccc(Cl)cc2)c[n-]1)Nc1ccccc1[O-] (3D coordinates assigned)
O=C(/N=c1/ccc(-c2ccc(Cl)cc2)c[n-]1)Nc1ccccc1[O-] (optimized conformer: 52.38169765639056 kcal/mol)

>  <smiles>  (50) 
O=C(N=c1ccc(-c2ccc(Cl)cc2)c[nH]1)Nc1ccccc1O

>  <score_type>  (50) 
oracle

>  <origin>  (50) 
adg

>  <m_score__min__energy>  (50) 
-12.77

>  <m_primary>  (50) 
energy

$$$$
50:0
     RDKit          3D

 45 47  0  0  0  0  0  0  0  0999 V2000
   56.2120   22.2170   41.4780 H   0  0  0  0  0  0  0  0  0  0  0  0
   55.5410   22.2240   42.2780 N   0  0  0  0  0  0  0  0  0  0  0  0
   56.4840   22.1650   43.7250 S   0  0  0  0  0  0  0  0  0  0  0  0
   57.8420   21.6010   43.4160 O   0  0  0  0  0  0  0  0  0  0  0  0
   55.8070   21.2720   44.7270 O   0  0  0  0  0  0  0  0  0  0  0  0
   56.6520   23.7890   44.3850 C   0  0  0  0  0  0  0  0  0  0  0  0
   57.5320   24.7050   43.7940 C   0  0  0  0  0  0  0  0  0  0  0  0
   58.1156   24.4117   42.9089 H   0  0  0  0  0  0  0  0  0  0  0  0
   57.6710   25.9920   44.3260 C   0  0  0  0  0  0  0  0  0  0  0  0
   58.3702   26.7037   43.8627 H   0  0  0  0  0  0  0  0  0  0  0  0
   56.9200   26.3790   45.4510 C   0  0  0  0  0  0  0  0  0  0  0  0
   57.0540   27.6800   46.0490 N   0  0  0  0  0  0  0  0  0  0  0  0
   57.0220   28.8220   45.4300 C   0  0  0  0  0  0  0  0  0  0  0  0
   55.8890   29.4800   45.0940 N   0  0  0  0  0  0  0  0  0  0  0  0
   56.1230   30.6530   44.5100 N   0  0  0  0  0  0  0  0  0  0  0  0
   57.4390   30.9310   44.3920 C   0  0  0  0  0  0  0  0  0  0  0  0
   58.0720   32.4360   43.6550 S   0  0  0  0  0  0  0  0  0  0  0  0
   57.3020   33.5410   44.8870 C   0  0  0  0  0  0  0  0  0  0  0  0
   56.6956   34.2965   44.3659 H   0  0  0  0  0  0  0  0  0  0  0  0
   56.6687   32.9395   45.5558 H   0  0  0  0  0  0  0  0  0  0  0  0
   58.3480   34.2290   45.7040 C   0  0  0  0  0  0  0  0  0  0  0  0
   59.3060   34.8170   45.1320 O   0  0  0  0  0  0  0  0  0  0  0  0
   58.2690   34.1890   47.1310 N   0  0  0  0  0  0  0  0  0  0  0  0
   59.3040   33.6060   47.9830 C   0  0  0  0  0  0  0  0  0  0  0  0
   59.0649   33.7713   49.0439 H   0  0  0  0  0  0  0  0  0  0  0  0
   59.3660   32.0690   47.7860 C   0  0  0  0  0  0  0  0  0  0  0  0
   59.6113   31.5971   48.7489 H   0  0  0  0  0  0  0  0  0  0  0  0
   58.3854   31.7338   47.4171 H   0  0  0  0  0  0  0  0  0  0  0  0
   60.4240   31.6650   46.7530 C   0  0  0  0  0  0  0  0  0  0  0  0
   60.4139   30.5708   46.6408 H   0  0  0  0  0  0  0  0  0  0  0  0
   60.1819   32.1596   45.8008 H   0  0  0  0  0  0  0  0  0  0  0  0
   61.8360   32.1110   47.1830 C   0  0  0  0  0  0  0  0  0  0  0  0
   62.2907   31.3042   47.7766 H   0  0  0  0  0  0  0  0  0  0  0  0
   62.4032   32.3223   46.2645 H   0  0  0  0  0  0  0  0  0  0  0  0
   61.8410   33.4020   48.0280 C   0  0  0  0  0  0  0  0  0  0  0  0
   61.7891   33.1317   49.0930 H   0  0  0  0  0  0  0  0  0  0  0  0
   62.7666   33.9539   47.8072 H   0  0  0  0  0  0  0  0  0  0  0  0
   60.6520   34.3050   47.6860 C   0  0  0  0  0  0  0  0  0  0  0  0
   60.7175   35.2245   48.2862 H   0  0  0  0  0  0  0  0  0  0  0  0
   60.6917   34.5348   46.6110 H   0  0  0  0  0  0  0  0  0  0  0  0
   58.3990   29.6980   45.0240 S   0  0  0  0  0  0  0  0  0  0  0  0
   56.0740   25.4440   46.0610 C   0  0  0  0  0  0  0  0  0  0  0  0
   55.5151   25.7233   46.9663 H   0  0  0  0  0  0  0  0  0  0  0  0
   55.9340   24.1590   45.5290 C   0  0  0  0  0  0  0  0  0  0  0  0
   55.2582   23.4366   46.0101 H   0  0  0  0  0  0  0  0  0  0  0  0
  1  2  1  0
  2  3  1  0
  3  4  2  0
  3  5  2  0
  3  6  1  0
  6  7  2  0
  7  8  1  0
  7  9  1  0
  9 10  1  0
  9 11  2  0
 11 12  1  0
 12 13  2  0
 13 14  1  0
 14 15  1  0
 15 16  2  0
 16 17  1  0
 17 18  1  0
 18 19  1  0
 18 20  1  0
 18 21  1  0
 21 22  2  0
 21 23  1  0
 23 24  1  0
 24 25  1  0
 24 26  1  0
 26 27  1  0
 26 28  1  0
 26 29  1  0
 29 30  1  0
 29 31  1  0
 29 32  1  0
 32 33  1  0
 32 34  1  0
 32 35  1  0
 35 36  1  0
 35 37  1  0
 35 38  1  0
 38 39  1  0
 38 40  1  0
 16 41  1  0
 11 42  1  0
 42 43  1  0
 42 44  2  0
 44 45  1  0
 44  6  1  0
 41 13  1  0
 38 24  1  0
M  CHG  3   2  -1  14  -1  23  -1
M  END
>  <UniqueID>  (51) 
51

>  <SMILES>  (51) 
[NH-]S(=O)(=O)c1ccc(/N=c2\[n-]nc(SCC(=O)[N-]C3CCCCC3)s2)cc1

>  <Energy>  (51) 
81.13661245932433

>  <Genealogy>  (51) 
[NH-]S(=O)(=O)c1ccc(N=c2[n-]nc(SCC(=O)[N-]C3CCCCC3)s2)cc1 (protonated)
[NH-]S(=O)(=O)c1ccc(/N=c2\[n-]nc(SCC(=O)[N-]C3CCCCC3)s2)cc1 (cis-trans isomerization)
[NH-]S(=O)(=O)c1ccc(/N=c2\[n-]nc(SCC(=O)[N-]C3CCCCC3)s2)cc1 (3D coordinates assigned)
[NH-]S(=O)(=O)c1ccc(/N=c2\[n-]nc(SCC(=O)[N-]C3CCCCC3)s2)cc1 (nonaromatic ring conformer: 81.13661245932433 kcal/mol)

>  <smiles>  (51) 
NS(=O)(=O)c1ccc(N=c2[nH]nc(SCC(=O)NC3CCCCC3)s2)cc1

>  <score_type>  (51) 
oracle

>  <origin>  (51) 
adg

>  <m_score__min__energy>  (51) 
-13.119999999999999

>  <m_primary>  (51) 
energy

$$$$
51:0
     RDKit          3D

 53 55  0  0  0  0  0  0  0  0999 V2000
   57.0860   27.3110   54.3410 C   0  0  0  0  0  0  0  0  0  0  0  0
   56.4810   28.5450   54.7190 O   0  0  0  0  0  0  0  0  0  0  0  0
   55.5020   29.2170   53.9710 C   0  0  0  0  0  0  0  0  0  0  0  0
   54.2270   29.4960   54.5060 C   0  0  0  0  0  0  0  0  0  0  0  0
   53.2950   30.2280   53.7640 C   0  0  0  0  0  0  0  0  0  0  0  0
   52.0670   30.5050   54.2760 N   0  0  0  0  0  0  0  0  0  0  0  0
   51.1550   31.2220   53.5680 C   0  0  0  0  0  0  0  0  0  0  0  0
   51.4860   31.6890   52.2850 C   0  0  0  0  0  0  0  0  0  0  0  0
   50.6410   32.3750   51.5840 N   0  0  0  0  0  0  0  0  0  0  0  0
   52.7170   31.4140   51.7740 N   0  0  0  0  0  0  0  0  0  0  0  0
   53.6280   30.6950   52.4800 C   0  0  0  0  0  0  0  0  0  0  0  0
   54.8860   30.4150   51.9400 C   0  0  0  0  0  0  0  0  0  0  0  0
   55.8140   29.6530   52.6620 C   0  0  0  0  0  0  0  0  0  0  0  0
   57.0890   29.3890   52.0570 N   0  0  0  0  0  0  0  0  0  0  0  0
   58.1620   30.3280   51.9320 C   0  0  0  0  0  0  0  0  0  0  0  0
   57.9980   31.5250   52.2920 O   0  0  0  0  0  0  0  0  0  0  0  0
   59.4720   29.8420   51.4490 C   0  0  0  0  0  0  0  0  0  0  0  0
   59.9980   28.6310   51.6860 C   0  0  0  0  0  0  0  0  0  0  0  0
   61.0050   27.9500   50.7970 C   0  0  0  0  0  0  0  0  0  0  0  0
   60.6190   28.0950   49.3500 C   0  0  0  0  0  0  0  0  0  0  0  0
   60.0620   27.0150   48.6500 C   0  0  0  0  0  0  0  0  0  0  0  0
   59.6700   27.1620   47.3150 C   0  0  0  0  0  0  0  0  0  0  0  0
   59.8110   28.3990   46.6610 C   0  0  0  0  0  0  0  0  0  0  0  0
   59.4060   28.5740   45.2440 C   0  0  0  0  0  0  0  0  0  0  0  0
   60.1880   29.1650   44.4480 O   0  0  0  0  0  0  0  0  0  0  0  0
   58.1390   28.0900   44.7650 N   0  0  0  0  0  0  0  0  0  0  0  0
   57.7660   28.1490   43.3530 C   0  0  0  0  0  0  0  0  0  0  0  0
   56.7770   29.2900   43.1110 C   0  0  0  0  0  0  0  0  0  0  0  0
   56.1150   29.6920   44.3910 C   0  0  0  0  0  0  0  0  0  0  0  0
   56.0530   30.9060   44.7160 O   0  0  0  0  0  0  0  0  0  0  0  0
   55.5280   28.7290   45.2040 O   0  0  0  0  0  0  0  0  0  0  0  0
   60.3700   29.4790   47.3680 C   0  0  0  0  0  0  0  0  0  0  0  0
   60.7640   29.3310   48.7010 C   0  0  0  0  0  0  0  0  0  0  0  0
   57.3627   26.7466   55.2437 H   0  0  0  0  0  0  0  0  0  0  0  0
   56.3747   26.7217   53.7438 H   0  0  0  0  0  0  0  0  0  0  0  0
   57.9875   27.5124   53.7438 H   0  0  0  0  0  0  0  0  0  0  0  0
   53.9647   29.1360   55.5118 H   0  0  0  0  0  0  0  0  0  0  0  0
   50.1646   31.4352   53.9965 H   0  0  0  0  0  0  0  0  0  0  0  0
   50.2850   32.0450   50.6570 H   0  0  0  0  0  0  0  0  0  0  0  0
   55.1494   30.7952   50.9419 H   0  0  0  0  0  0  0  0  0  0  0  0
   60.0695   30.5364   50.8401 H   0  0  0  0  0  0  0  0  0  0  0  0
   59.6715   28.0989   52.5917 H   0  0  0  0  0  0  0  0  0  0  0  0
   61.9933   28.4064   50.9548 H   0  0  0  0  0  0  0  0  0  0  0  0
   61.0347   26.8799   51.0502 H   0  0  0  0  0  0  0  0  0  0  0  0
   59.9324   26.0458   49.1539 H   0  0  0  0  0  0  0  0  0  0  0  0
   59.2481   26.3031   46.7726 H   0  0  0  0  0  0  0  0  0  0  0  0
   57.4310   27.7190   45.4360 H   0  0  0  0  0  0  0  0  0  0  0  0
   58.6682   28.3163   42.7463 H   0  0  0  0  0  0  0  0  0  0  0  0
   57.2910   27.1983   43.0690 H   0  0  0  0  0  0  0  0  0  0  0  0
   57.3163   30.1541   42.6958 H   0  0  0  0  0  0  0  0  0  0  0  0
   56.0062   28.9480   42.4047 H   0  0  0  0  0  0  0  0  0  0  0  0
   60.4984   30.4498   46.8669 H   0  0  0  0  0  0  0  0  0  0  0  0
   61.1898   30.1876   49.2441 H   0  0  0  0  0  0  0  0  0  0  0  0
  1  2  1  0
  2  3  1  0
  3  4  2  0
  4  5  1  0
  5  6  1  0
  6  7  2  0
  7  8  1  0
  8  9  2  3
  8 10  1  0
 10 11  1  0
 11 12  1  0
 12 13  2  0
 13 14  1  0
 14 15  1  0
 15 16  2  0
 15 17  1  0
 17 18  2  3
 18 19  1  0
 19 20  1  0
 20 21  2  0
 21 22  1  0
 22 23  2  0
 23 24  1  0
 24 25  2  0
 24 26  1  0
 26 27  1  0
 27 28  1  0
 28 29  1  0
 29 30  2  0
 29 31  1  0
 23 32  1  0
 32 33  2  0
 13  3  1  0
 33 20  1  0
 11  5  2  0
  1 34  1  0
  1 35  1  0
  1 36  1  0
  4 37  1  0
  7 38  1  0
  9 39  1  0
 12 40  1  0
 17 41  1  0
 18 42  1  0
 19 43  1  0
 19 44  1  0
 21 45  1  0
 22 46  1  0
 26 47  1  0
 27 48  1  0
 27 49  1  0
 28 50  1  0
 28 51  1  0
 32 52  1  0
 33 53  1  0
M  CHG  3  10  -1  14  -1  31  -1
M  END
>  <UniqueID>  (52) 
52

>  <SMILES>  (52) 
COc1cc2ncc(=N)[n-]c2cc1[N-]C(=O)C=CCc1ccc(C(=O)NCCC(=O)[O-])cc1

>  <Energy>  (52) 
61.66401098478253

>  <Genealogy>  (52) 
COc1cc2ncc(=N)[n-]c2cc1[N-]C(=O)C=CCc1ccc(C(=O)NCCC(=O)[O-])cc1 (protonated)
COc1cc2ncc(=N)[n-]c2cc1[N-]C(=O)C=CCc1ccc(C(=O)NCCC(=O)[O-])cc1 (3D coordinates assigned)
COc1cc2ncc(=N)[n-]c2cc1[N-]C(=O)C=CCc1ccc(C(=O)NCCC(=O)[O-])cc1 (optimized conformer: 61.66401098478253 kcal/mol)

>  <smiles>  (52) 
COc1cc2ncc(=N)[nH]c2cc1NC(=O)C=CCc1ccc(C(=O)NCCC(=O)O)cc1

>  <score_type>  (52) 
oracle

>  <origin>  (52) 
adg

>  <m_score__min__energy>  (52) 
-15.470000000000001

>  <m_primary>  (52) 
energy

$$$$
52:0
     RDKit          3D

 39 41  0  0  0  0  0  0  0  0999 V2000
   59.3840   35.6530   45.2070 N   0  0  0  0  0  0  0  0  0  0  0  0
   58.9520   34.6350   44.8680 C   0  0  0  0  0  0  0  0  0  0  0  0
   58.4120   33.3640   44.4500 C   0  0  0  0  0  0  0  0  0  0  0  0
   58.4030   33.0490   43.0830 C   0  0  0  0  0  0  0  0  0  0  0  0
   57.8510   31.8440   42.6420 C   0  0  0  0  0  0  0  0  0  0  0  0
   57.2920   30.9540   43.5600 C   0  0  0  0  0  0  0  0  0  0  0  0
   57.2970   31.2600   44.9230 C   0  0  0  0  0  0  0  0  0  0  0  0
   57.8770   32.4510   45.3820 C   0  0  0  0  0  0  0  0  0  0  0  0
   57.8780   32.7880   47.1520 S   0  0  0  0  0  0  0  0  0  0  0  0
   59.5780   32.2350   47.4010 C   0  0  0  0  0  0  0  0  0  0  0  0
   60.6080   33.1650   47.2000 C   0  0  0  0  0  0  0  0  0  0  0  0
   61.9430   32.7930   47.3610 C   0  0  0  0  0  0  0  0  0  0  0  0
   62.2650   31.4900   47.7390 C   0  0  0  0  0  0  0  0  0  0  0  0
   61.2500   30.5560   47.9590 C   0  0  0  0  0  0  0  0  0  0  0  0
   59.9000   30.9110   47.7920 C   0  0  0  0  0  0  0  0  0  0  0  0
   58.8550   29.8910   48.0430 C   0  0  0  0  0  0  0  0  0  0  0  0
   58.5210   29.6280   49.2290 O   0  0  0  0  0  0  0  0  0  0  0  0
   58.2670   29.1240   46.9820 N   0  0  0  0  0  0  0  0  0  0  0  0
   58.5980   27.7850   46.5730 C   0  0  0  0  0  0  0  0  0  0  0  0
   59.8980   27.2790   46.7630 C   0  0  0  0  0  0  0  0  0  0  0  0
   60.2370   26.0000   46.3240 C   0  0  0  0  0  0  0  0  0  0  0  0
   59.2910   25.2120   45.6770 C   0  0  0  0  0  0  0  0  0  0  0  0
   58.0020   25.7000   45.4620 C   0  0  0  0  0  0  0  0  0  0  0  0
   57.6350   26.9900   45.9000 C   0  0  0  0  0  0  0  0  0  0  0  0
   56.2460   27.4650   45.6520 C   0  0  0  0  0  0  0  0  0  0  0  0
   56.0450   28.5970   45.1400 O   0  0  0  0  0  0  0  0  0  0  0  0
   55.1460   26.6750   45.9660 O   0  0  0  0  0  0  0  0  0  0  0  0
   58.8323   33.7537   42.3556 H   0  0  0  0  0  0  0  0  0  0  0  0
   57.8570   31.5964   41.5702 H   0  0  0  0  0  0  0  0  0  0  0  0
   56.8471   30.0108   43.2101 H   0  0  0  0  0  0  0  0  0  0  0  0
   56.8427   30.5616   45.6412 H   0  0  0  0  0  0  0  0  0  0  0  0
   60.3611   34.1977   46.9126 H   0  0  0  0  0  0  0  0  0  0  0  0
   62.7427   33.5286   47.1895 H   0  0  0  0  0  0  0  0  0  0  0  0
   63.3181   31.1977   47.8639 H   0  0  0  0  0  0  0  0  0  0  0  0
   61.5096   29.5321   48.2661 H   0  0  0  0  0  0  0  0  0  0  0  0
   60.6552   27.9002   47.2638 H   0  0  0  0  0  0  0  0  0  0  0  0
   61.2536   25.6137   46.4895 H   0  0  0  0  0  0  0  0  0  0  0  0
   59.5598   24.2020   45.3341 H   0  0  0  0  0  0  0  0  0  0  0  0
   57.2625   25.0712   44.9445 H   0  0  0  0  0  0  0  0  0  0  0  0
  1  2  3  0
  2  3  1  0
  3  4  2  0
  4  5  1  0
  5  6  2  0
  6  7  1  0
  7  8  2  0
  8  9  1  0
  9 10  1  0
 10 11  2  0
 11 12  1  0
 12 13  2  0
 13 14  1  0
 14 15  2  0
 15 16  1  0
 16 17  2  0
 16 18  1  0
 18 19  1  0
 19 20  2  0
 20 21  1  0
 21 22  2  0
 22 23  1  0
 23 24  2  0
 24 25  1  0
 25 26  2  0
 25 27  1  0
  8  3  1  0
 15 10  1  0
 24 19  1  0
  4 28  1  0
  5 29  1  0
  6 30  1  0
  7 31  1  0
 11 32  1  0
 12 33  1  0
 13 34  1  0
 14 35  1  0
 20 36  1  0
 21 37  1  0
 22 38  1  0
 23 39  1  0
M  CHG  2  18  -1  27  -1
M  END
>  <UniqueID>  (53) 
53

>  <SMILES>  (53) 
N#Cc1ccccc1Sc1ccccc1C(=O)[N-]c1ccccc1C(=O)[O-]

>  <Energy>  (53) 
48.6439199645985

>  <Genealogy>  (53) 
N#Cc1ccccc1Sc1ccccc1C(=O)[N-]c1ccccc1C(=O)[O-] (protonated)
N#Cc1ccccc1Sc1ccccc1C(=O)[N-]c1ccccc1C(=O)[O-] (3D coordinates assigned)
N#Cc1ccccc1Sc1ccccc1C(=O)[N-]c1ccccc1C(=O)[O-] (optimized conformer: 48.6439199645985 kcal/mol)

>  <smiles>  (53) 
N#Cc1ccccc1Sc1ccccc1C(=O)Nc1ccccc1C(=O)O

>  <score_type>  (53) 
oracle

>  <origin>  (53) 
adg

>  <m_score__min__energy>  (53) 
-12.880000000000001

>  <m_primary>  (53) 
energy

$$$$
53:0
     RDKit          3D

 60 63  0  0  0  0  0  0  0  0999 V2000
   64.4801   31.8119   47.2693 H   0  0  0  0  0  0  0  0  0  0  0  0
   63.7990   32.5100   47.7780 C   0  0  0  0  0  0  0  0  0  0  0  0
   62.7260   33.0170   47.1140 N   0  0  0  0  0  0  0  0  0  0  0  0
   61.8510   33.8820   47.6960 C   0  0  0  0  0  0  0  0  0  0  0  0
   60.8440   34.3140   46.9880 N   0  0  0  0  0  0  0  0  0  0  0  0
   59.4240   34.2850   47.3450 C   0  0  0  0  0  0  0  0  0  0  0  0
   59.3232   33.9723   48.3948 H   0  0  0  0  0  0  0  0  0  0  0  0
   59.0056   35.2921   47.2014 H   0  0  0  0  0  0  0  0  0  0  0  0
   58.6650   33.3180   46.4660 C   0  0  0  0  0  0  0  0  0  0  0  0
   57.3910   33.6790   45.9960 C   0  0  0  0  0  0  0  0  0  0  0  0
   56.9812   34.6698   46.2419 H   0  0  0  0  0  0  0  0  0  0  0  0
   56.6400   32.7950   45.2210 C   0  0  0  0  0  0  0  0  0  0  0  0
   55.6384   33.0882   44.8733 H   0  0  0  0  0  0  0  0  0  0  0  0
   57.1530   31.5370   44.8830 C   0  0  0  0  0  0  0  0  0  0  0  0
   56.3260   30.5610   44.0900 C   0  0  0  0  0  0  0  0  0  0  0  0
   55.5117   31.1014   43.5852 H   0  0  0  0  0  0  0  0  0  0  0  0
   56.9692   30.0685   43.3458 H   0  0  0  0  0  0  0  0  0  0  0  0
   55.7560   29.5450   44.9730 N   0  0  0  0  0  0  0  0  0  0  0  0
   56.4180   28.3460   45.4030 C   0  0  0  0  0  0  0  0  0  0  0  0
   55.7280   27.3150   45.6180 O   0  0  0  0  0  0  0  0  0  0  0  0
   57.8800   28.2840   45.5940 C   0  0  0  0  0  0  0  0  0  0  0  0
   58.7320   28.2150   44.4820 C   0  0  0  0  0  0  0  0  0  0  0  0
   58.3084   28.1860   43.4673 H   0  0  0  0  0  0  0  0  0  0  0  0
   60.1180   28.1830   44.6600 C   0  0  0  0  0  0  0  0  0  0  0  0
   60.7821   28.1199   43.7854 H   0  0  0  0  0  0  0  0  0  0  0  0
   60.6620   28.2310   45.9460 C   0  0  0  0  0  0  0  0  0  0  0  0
   61.7538   28.2178   46.0795 H   0  0  0  0  0  0  0  0  0  0  0  0
   59.8220   28.2960   47.0680 C   0  0  0  0  0  0  0  0  0  0  0  0
   60.4130   28.3250   48.4550 C   0  0  0  0  0  0  0  0  0  0  0  0
   59.6243   28.0900   49.1849 H   0  0  0  0  0  0  0  0  0  0  0  0
   61.2226   27.5818   48.5014 H   0  0  0  0  0  0  0  0  0  0  0  0
   60.9630   29.6080   48.7620 O   0  0  0  0  0  0  0  0  0  0  0  0
   60.2900   30.6330   49.4480 C   0  0  0  0  0  0  0  0  0  0  0  0
   60.9790   31.3180   50.4580 C   0  0  0  0  0  0  0  0  0  0  0  0
   62.0268   31.0627   50.6747 H   0  0  0  0  0  0  0  0  0  0  0  0
   60.3430   32.3240   51.1920 C   0  0  0  0  0  0  0  0  0  0  0  0
   60.8892   32.8541   51.9861 H   0  0  0  0  0  0  0  0  0  0  0  0
   59.0140   32.6560   50.9170 C   0  0  0  0  0  0  0  0  0  0  0  0
   58.5120   33.4426   51.4995 H   0  0  0  0  0  0  0  0  0  0  0  0
   58.3220   31.9890   49.9020 C   0  0  0  0  0  0  0  0  0  0  0  0
   57.2772   32.2547   49.6831 H   0  0  0  0  0  0  0  0  0  0  0  0
   58.9560   30.9850   49.1650 C   0  0  0  0  0  0  0  0  0  0  0  0
   58.4113   30.4680   48.3612 H   0  0  0  0  0  0  0  0  0  0  0  0
   58.4290   28.2800   46.8850 C   0  0  0  0  0  0  0  0  0  0  0  0
   57.7637   28.2642   47.7609 H   0  0  0  0  0  0  0  0  0  0  0  0
   58.4310   31.1740   45.3300 C   0  0  0  0  0  0  0  0  0  0  0  0
   58.8367   30.1853   45.0695 H   0  0  0  0  0  0  0  0  0  0  0  0
   59.2000   32.0560   46.1060 C   0  0  0  0  0  0  0  0  0  0  0  0
   60.5160   31.6500   46.5090 N   0  0  0  0  0  0  0  0  0  0  0  0
   60.7010   30.7420   46.9860 H   0  0  0  0  0  0  0  0  0  0  0  0
   61.3300   32.2900   46.3690 H   0  0  0  0  0  0  0  0  0  0  0  0
   62.0650   34.2760   49.0330 C   0  0  0  0  0  0  0  0  0  0  0  0
   61.3756   34.9825   49.5183 H   0  0  0  0  0  0  0  0  0  0  0  0
   63.1620   33.7620   49.7410 C   0  0  0  0  0  0  0  0  0  0  0  0
   63.4270   34.1780   51.1590 C   0  0  0  0  0  0  0  0  0  0  0  0
   62.9654   33.4535   51.8460 H   0  0  0  0  0  0  0  0  0  0  0  0
   64.5124   34.2101   51.3350 H   0  0  0  0  0  0  0  0  0  0  0  0
   62.9973   35.1752   51.3350 H   0  0  0  0  0  0  0  0  0  0  0  0
   64.0370   32.8740   49.1030 C   0  0  0  0  0  0  0  0  0  0  0  0
   64.9049   32.4670   49.6426 H   0  0  0  0  0  0  0  0  0  0  0  0
  1  2  1  0
  2  3  1  0
  3  4  1  0
  4  5  2  0
  5  6  1  0
  6  7  1  0
  6  8  1  0
  6  9  1  0
  9 10  2  0
 10 11  1  0
 10 12  1  0
 12 13  1  0
 12 14  2  0
 14 15  1  0
 15 16  1  0
 15 17  1  0
 15 18  1  0
 18 19  1  0
 19 20  2  0
 19 21  1  0
 21 22  2  0
 22 23  1  0
 22 24  1  0
 24 25  1  0
 24 26  2  0
 26 27  1  0
 26 28  1  0
 28 29  1  0
 29 30  1  0
 29 31  1  0
 29 32  1  0
 32 33  1  0
 33 34  2  0
 34 35  1  0
 34 36  1  0
 36 37  1  0
 36 38  2  0
 38 39  1  0
 38 40  1  0
 40 41  1  0
 40 42  2  0
 42 43  1  0
 28 44  2  0
 44 45  1  0
 14 46  1  0
 46 47  1  0
 46 48  2  0
 48 49  1  0
 49 50  1  0
 49 51  1  0
  4 52  1  0
 52 53  1  0
 52 54  2  0
 54 55  1  0
 55 56  1  0
 55 57  1  0
 55 58  1  0
 54 59  1  0
 59 60  1  0
 59  2  2  0
 48  9  1  0
 44 21  1  0
 42 33  1  0
M  CHG  2   3  -1  18  -1
M  END
>  <UniqueID>  (54) 
54

>  <SMILES>  (54) 
Cc1cc[n-]/c(=N/Cc2ccc(C[N-]C(=O)c3cccc(COc4ccccc4)c3)cc2N)c1

>  <Energy>  (54) 
64.934690866815

>  <Genealogy>  (54) 
Cc1cc[n-]c(=NCc2ccc(C[N-]C(=O)c3cccc(COc4ccccc4)c3)cc2N)c1 (protonated)
Cc1cc[n-]/c(=N/Cc2ccc(C[N-]C(=O)c3cccc(COc4ccccc4)c3)cc2N)c1 (cis-trans isomerization)
Cc1cc[n-]/c(=N/Cc2ccc(C[N-]C(=O)c3cccc(COc4ccccc4)c3)cc2N)c1 (3D coordinates assigned)
Cc1cc[n-]/c(=N/Cc2ccc(C[N-]C(=O)c3cccc(COc4ccccc4)c3)cc2N)c1 (optimized conformer: 64.934690866815 kcal/mol)

>  <smiles>  (54) 
Cc1cc[nH]c(=NCc2ccc(CNC(=O)c3cccc(COc4ccccc4)c3)cc2N)c1

>  <score_type>  (54) 
oracle

>  <origin>  (54) 
adg

>  <m_score__min__energy>  (54) 
-12.4

>  <m_primary>  (54) 
energy

$$$$
54:0
     RDKit          3D

 41 43  0  0  0  0  0  0  0  0999 V2000
   56.6970   28.8150   53.9010 O   0  0  0  0  0  0  0  0  0  0  0  0
   56.0560   29.3120   52.9380 C   0  0  0  0  0  0  0  0  0  0  0  0
   54.6630   29.0020   52.8040 N   0  0  0  0  0  0  0  0  0  0  0  0
   53.6170   29.9280   52.4750 C   0  0  0  0  0  0  0  0  0  0  0  0
   53.4170   30.3780   51.1570 C   0  0  0  0  0  0  0  0  0  0  0  0
   52.4070   31.3030   50.8750 C   0  0  0  0  0  0  0  0  0  0  0  0
   51.6020   31.7980   51.9060 C   0  0  0  0  0  0  0  0  0  0  0  0
   50.5980   32.7170   51.6240 O   0  0  0  0  0  0  0  0  0  0  0  0
   51.8130   31.3730   53.2210 C   0  0  0  0  0  0  0  0  0  0  0  0
   52.8220   30.4480   53.5050 C   0  0  0  0  0  0  0  0  0  0  0  0
   56.7700   30.1380   51.9510 C   0  0  0  0  0  0  0  0  0  0  0  0
   56.1800   31.0990   51.3880 O   0  0  0  0  0  0  0  0  0  0  0  0
   58.1100   29.7910   51.5780 N   0  0  0  0  0  0  0  0  0  0  0  0
   58.7440   30.0810   50.3240 C   0  0  0  0  0  0  0  0  0  0  0  0
   59.2350   31.3610   50.0160 C   0  0  0  0  0  0  0  0  0  0  0  0
   59.8690   31.5950   48.7930 C   0  0  0  0  0  0  0  0  0  0  0  0
   60.0250   30.5560   47.8730 C   0  0  0  0  0  0  0  0  0  0  0  0
   59.5480   29.2680   48.1680 C   0  0  0  0  0  0  0  0  0  0  0  0
   59.7220   28.1560   47.2040 C   0  0  0  0  0  0  0  0  0  0  0  0
   60.1470   27.0430   47.6150 O   0  0  0  0  0  0  0  0  0  0  0  0
   59.4720   28.3170   45.8010 N   0  0  0  0  0  0  0  0  0  0  0  0
   58.4340   29.1150   45.2120 C   0  0  0  0  0  0  0  0  0  0  0  0
   58.7690   30.3510   44.6440 C   0  0  0  0  0  0  0  0  0  0  0  0
   57.7840   31.1460   44.0500 C   0  0  0  0  0  0  0  0  0  0  0  0
   56.4590   30.7040   44.0080 C   0  0  0  0  0  0  0  0  0  0  0  0
   56.1190   29.4610   44.5510 C   0  0  0  0  0  0  0  0  0  0  0  0
   54.8040   29.0160   44.4960 O   0  0  0  0  0  0  0  0  0  0  0  0
   57.1030   28.6640   45.1450 C   0  0  0  0  0  0  0  0  0  0  0  0
   58.9270   29.0360   49.4070 C   0  0  0  0  0  0  0  0  0  0  0  0
   54.0572   30.0010   50.3458 H   0  0  0  0  0  0  0  0  0  0  0  0
   52.2454   31.6418   49.8410 H   0  0  0  0  0  0  0  0  0  0  0  0
   51.1844   31.7669   54.0332 H   0  0  0  0  0  0  0  0  0  0  0  0
   52.9928   30.1265   54.5430 H   0  0  0  0  0  0  0  0  0  0  0  0
   59.1199   32.1813   50.7398 H   0  0  0  0  0  0  0  0  0  0  0  0
   60.2462   32.6003   48.5542 H   0  0  0  0  0  0  0  0  0  0  0  0
   60.5243   30.7473   46.9117 H   0  0  0  0  0  0  0  0  0  0  0  0
   59.8126   30.6980   44.6654 H   0  0  0  0  0  0  0  0  0  0  0  0
   58.0523   32.1202   43.6154 H   0  0  0  0  0  0  0  0  0  0  0  0
   55.6834   31.3339   43.5478 H   0  0  0  0  0  0  0  0  0  0  0  0
   56.8354   27.6815   45.5611 H   0  0  0  0  0  0  0  0  0  0  0  0
   58.5805   28.0232   49.6604 H   0  0  0  0  0  0  0  0  0  0  0  0
  1  2  2  0
  2  3  1  0
  3  4  1  0
  4  5  2  0
  5  6  1  0
  6  7  2  0
  7  8  1  0
  7  9  1  0
  9 10  2  0
  2 11  1  0
 11 12  2  0
 11 13  1  0
 13 14  1  0
 14 15  2  0
 15 16  1  0
 16 17  2  0
 17 18  1  0
 18 19  1  0
 19 20  2  0
 19 21  1  0
 21 22  1  0
 22 23  2  0
 23 24  1  0
 24 25  2  0
 25 26  1  0
 26 27  1  0
 26 28  2  0
 18 29  2  0
 10  4  1  0
 29 14  1  0
 28 22  1  0
  5 30  1  0
  6 31  1  0
  9 32  1  0
 10 33  1  0
 15 34  1  0
 16 35  1  0
 17 36  1  0
 23 37  1  0
 24 38  1  0
 25 39  1  0
 28 40  1  0
 29 41  1  0
M  CHG  5   3  -1   8  -1  13  -1  21  -1  27  -1
M  END
>  <UniqueID>  (55) 
55

>  <SMILES>  (55) 
O=C([N-]c1ccc([O-])cc1)C(=O)[N-]c1cccc(C(=O)[N-]c2cccc([O-])c2)c1

>  <Energy>  (55) 
59.12056562398631

>  <Genealogy>  (55) 
O=C([N-]c1ccc([O-])cc1)C(=O)[N-]c1cccc(C(=O)[N-]c2cccc([O-])c2)c1 (protonated)
O=C([N-]c1ccc([O-])cc1)C(=O)[N-]c1cccc(C(=O)[N-]c2cccc([O-])c2)c1 (3D coordinates assigned)
O=C([N-]c1ccc([O-])cc1)C(=O)[N-]c1cccc(C(=O)[N-]c2cccc([O-])c2)c1 (optimized conformer: 59.12056562398631 kcal/mol)

>  <smiles>  (55) 
O=C(Nc1ccc(O)cc1)C(=O)Nc1cccc(C(=O)Nc2cccc(O)c2)c1

>  <score_type>  (55) 
oracle

>  <origin>  (55) 
adg

>  <m_score__min__energy>  (55) 
-18.440000000000001

>  <m_primary>  (55) 
energy

$$$$
55:0
     RDKit          3D

 58 60  0  0  0  0  0  0  0  0999 V2000
   57.7730   31.9680   42.3860 C   0  0  0  0  0  0  0  0  0  0  0  0
   58.4870   32.2010   43.6370 N   0  0  0  0  0  0  0  0  0  0  0  0
   57.4150   31.9410   44.9770 S   0  0  0  0  0  0  0  0  0  0  0  0
   56.1360   31.3020   44.5170 O   0  0  0  0  0  0  0  0  0  0  0  0
   57.0990   33.2630   45.6200 O   0  0  0  0  0  0  0  0  0  0  0  0
   58.1920   30.8990   46.1610 C   0  0  0  0  0  0  0  0  0  0  0  0
   59.0390   31.3250   47.1640 C   0  0  0  0  0  0  0  0  0  0  0  0
   59.3940   30.2730   47.9290 N   0  0  0  0  0  0  0  0  0  0  0  0
   60.1830   30.3330   49.1570 C   0  0  0  0  0  0  0  0  0  0  0  0
   61.5660   30.8170   48.8450 C   0  0  0  0  0  0  0  0  0  0  0  0
   62.3530   31.1030   49.7870 O   0  0  0  0  0  0  0  0  0  0  0  0
   61.9660   31.0140   47.4820 N   0  0  0  0  0  0  0  0  0  0  0  0
   63.2460   31.6330   47.1450 C   0  0  0  0  0  0  0  0  0  0  0  0
   63.2080   33.1410   47.4120 C   0  0  0  0  0  0  0  0  0  0  0  0
   61.7990   33.6620   47.3200 C   0  0  0  0  0  0  0  0  0  0  0  0
   61.1900   33.8420   46.0660 C   0  0  0  0  0  0  0  0  0  0  0  0
   59.8920   34.3560   45.9820 C   0  0  0  0  0  0  0  0  0  0  0  0
   59.1970   34.7000   47.1450 C   0  0  0  0  0  0  0  0  0  0  0  0
   59.8020   34.5360   48.3950 C   0  0  0  0  0  0  0  0  0  0  0  0
   61.1000   34.0240   48.4840 C   0  0  0  0  0  0  0  0  0  0  0  0
   58.7740   29.1810   47.4400 C   0  0  0  0  0  0  0  0  0  0  0  0
   58.0250   29.5340   46.3350 C   0  0  0  0  0  0  0  0  0  0  0  0
   57.0130   28.4380   45.4020 S   0  0  0  0  0  0  0  0  0  0  0  0
   55.7060   29.1070   45.0850 O   0  0  0  0  0  0  0  0  0  0  0  0
   57.7000   28.1060   44.1070 O   0  0  0  0  0  0  0  0  0  0  0  0
   56.7670   26.9690   46.2900 N   0  0  0  0  0  0  0  0  0  0  0  0
   56.4790   25.7020   45.6930 C   0  0  0  0  0  0  0  0  0  0  0  0
   55.5080   25.0100   46.1020 O   0  0  0  0  0  0  0  0  0  0  0  0
   57.2910   25.2430   44.6030 N   0  0  0  0  0  0  0  0  0  0  0  0
   57.2570   23.9020   44.0870 C   0  0  0  0  0  0  0  0  0  0  0  0
   56.3300   23.5260   43.0970 C   0  0  0  0  0  0  0  0  0  0  0  0
   56.2910   22.2090   42.6270 C   0  0  0  0  0  0  0  0  0  0  0  0
   57.1680   21.2550   43.1480 C   0  0  0  0  0  0  0  0  0  0  0  0
   58.0840   21.6140   44.1410 C   0  0  0  0  0  0  0  0  0  0  0  0
   58.1230   22.9290   44.6170 C   0  0  0  0  0  0  0  0  0  0  0  0
   59.0170   23.2590   45.5830 F   0  0  0  0  0  0  0  0  0  0  0  0
   56.7483   31.6336   42.6055 H   0  0  0  0  0  0  0  0  0  0  0  0
   57.7376   32.9012   41.8047 H   0  0  0  0  0  0  0  0  0  0  0  0
   58.2949   31.1935   41.8047 H   0  0  0  0  0  0  0  0  0  0  0  0
   59.3727   32.3621   47.3158 H   0  0  0  0  0  0  0  0  0  0  0  0
   59.7045   31.0250   49.8657 H   0  0  0  0  0  0  0  0  0  0  0  0
   60.2402   29.3290   49.6029 H   0  0  0  0  0  0  0  0  0  0  0  0
   61.3020   30.7400   46.7230 H   0  0  0  0  0  0  0  0  0  0  0  0
   64.0388   31.1782   47.7571 H   0  0  0  0  0  0  0  0  0  0  0  0
   63.4463   31.4691   46.0759 H   0  0  0  0  0  0  0  0  0  0  0  0
   63.6013   33.3393   48.4200 H   0  0  0  0  0  0  0  0  0  0  0  0
   63.8234   33.6498   46.6554 H   0  0  0  0  0  0  0  0  0  0  0  0
   61.7358   33.5779   45.1482 H   0  0  0  0  0  0  0  0  0  0  0  0
   59.4171   34.4898   44.9988 H   0  0  0  0  0  0  0  0  0  0  0  0
   58.1744   35.0996   47.0769 H   0  0  0  0  0  0  0  0  0  0  0  0
   59.2559   34.8102   49.3096 H   0  0  0  0  0  0  0  0  0  0  0  0
   61.5756   33.9042   49.4686 H   0  0  0  0  0  0  0  0  0  0  0  0
   58.8524   28.1659   47.8565 H   0  0  0  0  0  0  0  0  0  0  0  0
   57.8890   25.9500   44.1190 H   0  0  0  0  0  0  0  0  0  0  0  0
   55.6318   24.2724   42.6903 H   0  0  0  0  0  0  0  0  0  0  0  0
   55.5695   21.9247   41.8469 H   0  0  0  0  0  0  0  0  0  0  0  0
   57.1379   20.2201   42.7765 H   0  0  0  0  0  0  0  0  0  0  0  0
   58.7751   20.8616   44.5487 H   0  0  0  0  0  0  0  0  0  0  0  0
  1  2  1  0
  2  3  1  0
  3  4  2  0
  3  5  2  0
  3  6  1  0
  6  7  2  0
  7  8  1  0
  8  9  1  0
  9 10  1  0
 10 11  2  0
 10 12  1  0
 12 13  1  0
 13 14  1  0
 14 15  1  0
 15 16  2  0
 16 17  1  0
 17 18  2  0
 18 19  1  0
 19 20  2  0
  8 21  1  0
 21 22  2  0
 22 23  1  0
 23 24  2  0
 23 25  2  0
 23 26  1  0
 26 27  1  0
 27 28  2  0
 27 29  1  0
 29 30  1  0
 30 31  2  0
 31 32  1  0
 32 33  2  0
 33 34  1  0
 34 35  2  0
 35 36  1  0
 22  6  1  0
 35 30  1  0
 20 15  1  0
  1 37  1  0
  1 38  1  0
  1 39  1  0
  7 40  1  0
  9 41  1  0
  9 42  1  0
 12 43  1  0
 13 44  1  0
 13 45  1  0
 14 46  1  0
 14 47  1  0
 16 48  1  0
 17 49  1  0
 18 50  1  0
 19 51  1  0
 20 52  1  0
 21 53  1  0
 29 54  1  0
 31 55  1  0
 32 56  1  0
 33 57  1  0
 34 58  1  0
M  CHG  2   2  -1  26  -1
M  END
>  <UniqueID>  (56) 
56

>  <SMILES>  (56) 
C[N-]S(=O)(=O)c1cn(CC(=O)NCCc2ccccc2)cc1S(=O)(=O)[N-]C(=O)Nc1ccccc1F

>  <Energy>  (56) 
82.5252287049624

>  <Genealogy>  (56) 
C[N-]S(=O)(=O)c1cn(CC(=O)NCCc2ccccc2)cc1S(=O)(=O)[N-]C(=O)Nc1ccccc1F (protonated)
C[N-]S(=O)(=O)c1cn(CC(=O)NCCc2ccccc2)cc1S(=O)(=O)[N-]C(=O)Nc1ccccc1F (3D coordinates assigned)
C[N-]S(=O)(=O)c1cn(CC(=O)NCCc2ccccc2)cc1S(=O)(=O)[N-]C(=O)Nc1ccccc1F (optimized conformer: 82.5252287049624 kcal/mol)

>  <smiles>  (56) 
CNS(=O)(=O)c1cn(CC(=O)NCCc2ccccc2)cc1S(=O)(=O)NC(=O)Nc1ccccc1F

>  <score_type>  (56) 
oracle

>  <origin>  (56) 
adg

>  <m_score__min__energy>  (56) 
-12.44

>  <m_primary>  (56) 
energy

$$$$
56:0
     RDKit          3D

 36 38  0  0  0  0  0  0  0  0999 V2000
   59.1130   31.3280   47.5980 O   0  0  0  0  0  0  0  0  0  0  0  0
   58.5360   31.3610   46.4410 C   0  0  0  0  0  0  0  0  0  0  0  0
   57.8590   32.5570   46.1590 N   0  0  0  0  0  0  0  0  0  0  0  0
   57.9130   33.6060   47.1860 C   0  0  0  0  0  0  0  0  0  0  0  0
   58.9410   34.6430   46.7860 C   0  0  0  0  0  0  0  0  0  0  0  0
   60.3000   34.2240   47.1950 C   0  0  0  0  0  0  0  0  0  0  0  0
   60.6880   34.1690   48.5160 C   0  0  0  0  0  0  0  0  0  0  0  0
   61.9700   33.7720   48.8680 C   0  0  0  0  0  0  0  0  0  0  0  0
   62.8630   33.4310   47.8830 C   0  0  0  0  0  0  0  0  0  0  0  0
   64.1520   33.0330   48.2580 O   0  0  0  0  0  0  0  0  0  0  0  0
   62.4810   33.4830   46.5550 C   0  0  0  0  0  0  0  0  0  0  0  0
   61.2070   33.8780   46.2060 C   0  0  0  0  0  0  0  0  0  0  0  0
   58.6660   30.1900   45.6410 C   0  0  0  0  0  0  0  0  0  0  0  0
   59.8110   29.4480   45.8520 N   0  0  0  0  0  0  0  0  0  0  0  0
   60.0870   28.3340   45.1650 C   0  0  0  0  0  0  0  0  0  0  0  0
   59.2440   27.8260   44.1750 C   0  0  0  0  0  0  0  0  0  0  0  0
   58.0950   28.5570   43.9490 C   0  0  0  0  0  0  0  0  0  0  0  0
   57.1140   28.3510   43.0580 N   0  0  0  0  0  0  0  0  0  0  0  0
   56.2580   29.3440   43.2140 N   0  0  0  0  0  0  0  0  0  0  0  0
   56.6550   30.1870   44.1800 C   0  0  0  0  0  0  0  0  0  0  0  0
   56.0060   31.2040   44.4990 O   0  0  0  0  0  0  0  0  0  0  0  0
   57.8330   29.7190   44.6840 C   0  0  0  0  0  0  0  0  0  0  0  0
   57.3080   32.7220   45.3060 H   0  0  0  0  0  0  0  0  0  0  0  0
   56.9259   34.0827   47.2770 H   0  0  0  0  0  0  0  0  0  0  0  0
   58.1931   33.1622   48.1527 H   0  0  0  0  0  0  0  0  0  0  0  0
   58.9171   34.7713   45.6938 H   0  0  0  0  0  0  0  0  0  0  0  0
   58.6988   35.5906   47.2894 H   0  0  0  0  0  0  0  0  0  0  0  0
   59.9706   34.4439   49.3033 H   0  0  0  0  0  0  0  0  0  0  0  0
   62.2678   33.7309   49.9261 H   0  0  0  0  0  0  0  0  0  0  0  0
   64.7600   32.6070   47.5820 H   0  0  0  0  0  0  0  0  0  0  0  0
   63.2002   33.2067   45.7699 H   0  0  0  0  0  0  0  0  0  0  0  0
   60.9118   33.9183   45.1471 H   0  0  0  0  0  0  0  0  0  0  0  0
   61.0189   27.7946   45.3899 H   0  0  0  0  0  0  0  0  0  0  0  0
   59.4786   26.9087   43.6150 H   0  0  0  0  0  0  0  0  0  0  0  0
   57.0210   27.5660   42.3650 H   0  0  0  0  0  0  0  0  0  0  0  0
   55.3910   29.4380   42.6460 H   0  0  0  0  0  0  0  0  0  0  0  0
  1  2  2  0
  2  3  1  0
  3  4  1  0
  4  5  1  0
  5  6  1  0
  6  7  2  0
  7  8  1  0
  8  9  2  0
  9 10  1  0
  9 11  1  0
 11 12  2  0
  2 13  1  0
 13 14  2  0
 14 15  1  0
 15 16  2  0
 16 17  1  0
 17 18  1  0
 18 19  1  0
 19 20  1  0
 20 21  2  0
 20 22  1  0
 12  6  1  0
 22 13  1  0
 22 17  2  0
  3 23  1  0
  4 24  1  0
  4 25  1  0
  5 26  1  0
  5 27  1  0
  7 28  1  0
  8 29  1  0
 10 30  1  0
 11 31  1  0
 12 32  1  0
 15 33  1  0
 16 34  1  0
 18 35  1  0
 19 36  1  0
M  END
>  <smiles>  (57) 
O=C(NCCc1ccc(O)cc1)c1nccc2[nH][nH]c(=O)c12

>  <score_type>  (57) 
oracle

>  <origin>  (57) 
adg

>  <m_score__min__energy>  (57) 
-7.9400000000000004

>  <m_primary>  (57) 
energy

$$$$
57:0
     RDKit          3D

 37 39  0  0  0  0  0  0  0  0999 V2000
   61.5940   30.5250   47.6590 O   0  0  0  0  0  0  0  0  0  0  0  0
   60.5800   31.2560   47.5080 C   0  0  0  0  0  0  0  0  0  0  0  0
   59.6040   30.9470   46.4190 C   0  0  0  0  0  0  0  0  0  0  0  0
   60.1850   29.5350   45.4150 S   0  0  0  0  0  0  0  0  0  0  0  0
   58.6750   28.5890   45.5960 C   0  0  0  0  0  0  0  0  0  0  0  0
   58.7080   27.3690   46.1930 N   0  0  0  0  0  0  0  0  0  0  0  0
   57.5760   26.6400   46.3660 C   0  0  0  0  0  0  0  0  0  0  0  0
   57.6420   25.5350   46.9640 O   0  0  0  0  0  0  0  0  0  0  0  0
   56.3450   27.1390   45.8970 C   0  0  0  0  0  0  0  0  0  0  0  0
   55.1090   26.4300   46.0660 N   0  0  0  0  0  0  0  0  0  0  0  0
   54.8200   25.1050   45.6030 C   0  0  0  0  0  0  0  0  0  0  0  0
   53.6180   24.7460   45.5060 O   0  0  0  0  0  0  0  0  0  0  0  0
   55.8860   24.1780   45.1740 C   0  0  0  0  0  0  0  0  0  0  0  0
   56.3480   23.0870   45.9010 C   0  0  0  0  0  0  0  0  0  0  0  0
   57.3380   22.3530   45.2360 C   0  0  0  0  0  0  0  0  0  0  0  0
   57.6520   22.8530   43.9790 C   0  0  0  0  0  0  0  0  0  0  0  0
   56.6950   24.2050   43.6970 S   0  0  0  0  0  0  0  0  0  0  0  0
   56.3360   28.4080   45.3060 C   0  0  0  0  0  0  0  0  0  0  0  0
   55.1450   28.9650   44.8560 O   0  0  0  0  0  0  0  0  0  0  0  0
   57.4950   29.1020   45.1620 N   0  0  0  0  0  0  0  0  0  0  0  0
   60.2890   32.3130   48.4320 N   0  0  0  0  0  0  0  0  0  0  0  0
   59.4890   32.2210   49.6180 C   0  0  0  0  0  0  0  0  0  0  0  0
   59.3240   33.3090   50.4950 C   0  0  0  0  0  0  0  0  0  0  0  0
   58.5320   33.1730   51.6400 C   0  0  0  0  0  0  0  0  0  0  0  0
   57.8940   31.9610   51.9130 C   0  0  0  0  0  0  0  0  0  0  0  0
   58.0360   30.8830   51.0350 C   0  0  0  0  0  0  0  0  0  0  0  0
   57.3990   29.6780   51.3040 O   0  0  0  0  0  0  0  0  0  0  0  0
   58.8220   31.0180   49.8850 C   0  0  0  0  0  0  0  0  0  0  0  0
   58.6309   30.6962   46.8663 H   0  0  0  0  0  0  0  0  0  0  0  0
   59.5082   31.8288   45.7684 H   0  0  0  0  0  0  0  0  0  0  0  0
   55.9725   22.8256   46.9013 H   0  0  0  0  0  0  0  0  0  0  0  0
   57.8212   21.4644   45.6684 H   0  0  0  0  0  0  0  0  0  0  0  0
   58.3986   22.4358   43.2872 H   0  0  0  0  0  0  0  0  0  0  0  0
   59.8185   34.2678   50.2799 H   0  0  0  0  0  0  0  0  0  0  0  0
   58.4113   34.0232   52.3274 H   0  0  0  0  0  0  0  0  0  0  0  0
   57.2796   31.8549   52.8192 H   0  0  0  0  0  0  0  0  0  0  0  0
   58.9168   30.1740   49.1860 H   0  0  0  0  0  0  0  0  0  0  0  0
  1  2  2  0
  2  3  1  0
  3  4  1  0
  4  5  1  0
  5  6  2  0
  6  7  1  0
  7  8  2  0
  7  9  1  0
  9 10  1  0
 10 11  1  0
 11 12  2  0
 11 13  1  0
 13 14  2  0
 14 15  1  0
 15 16  2  0
 16 17  1  0
  9 18  2  0
 18 19  1  0
 18 20  1  0
  2 21  1  0
 21 22  1  0
 22 23  2  0
 23 24  1  0
 24 25  2  0
 25 26  1  0
 26 27  1  0
 26 28  2  0
 20  5  1  0
 28 22  1  0
 17 13  1  0
  3 29  1  0
  3 30  1  0
 14 31  1  0
 15 32  1  0
 16 33  1  0
 23 34  1  0
 24 35  1  0
 25 36  1  0
 28 37  1  0
M  CHG  5  10  -1  19  -1  20  -1  21  -1  27  -1
M  END
>  <UniqueID>  (58) 
57

>  <SMILES>  (58) 
O=C(CSc1nc(=O)c([N-]C(=O)c2cccs2)c([O-])[n-]1)[N-]c1cccc([O-])c1

>  <Energy>  (58) 
71.67642632063598

>  <Genealogy>  (58) 
O=C(CSc1nc(=O)c([N-]C(=O)c2cccs2)c([O-])[n-]1)[N-]c1cccc([O-])c1 (protonated)
O=C(CSc1nc(=O)c([N-]C(=O)c2cccs2)c([O-])[n-]1)[N-]c1cccc([O-])c1 (3D coordinates assigned)
O=C(CSc1nc(=O)c([N-]C(=O)c2cccs2)c([O-])[n-]1)[N-]c1cccc([O-])c1 (optimized conformer: 71.67642632063598 kcal/mol)

>  <smiles>  (58) 
O=C(CSc1nc(=O)c(NC(=O)c2cccs2)c(O)[nH]1)Nc1cccc(O)c1

>  <score_type>  (58) 
oracle

>  <origin>  (58) 
adg

>  <m_score__min__energy>  (58) 
-17.960000000000001

>  <m_primary>  (58) 
energy

$$$$
58:0
     RDKit          3D

 46 47  0  0  0  0  0  0  0  0999 V2000
   58.0670   27.7790   46.3520 C   0  0  0  0  0  0  0  0  0  0  0  0
   57.4770   29.0740   46.3650 O   0  0  0  0  0  0  0  0  0  0  0  0
   58.1780   30.2790   46.5290 C   0  0  0  0  0  0  0  0  0  0  0  0
   59.2730   30.3620   47.4100 C   0  0  0  0  0  0  0  0  0  0  0  0
   59.9820   31.5580   47.5680 C   0  0  0  0  0  0  0  0  0  0  0  0
   61.1000   31.6520   48.5750 C   0  0  0  0  0  0  0  0  0  0  0  0
   60.8390   30.7480   49.7910 C   0  0  0  0  0  0  0  0  0  0  0  0
   59.5640   31.0980   50.4550 N   0  0  0  0  0  0  0  0  0  0  0  0
   58.5620   30.1720   50.5440 C   0  0  0  0  0  0  0  0  0  0  0  0
   58.6880   29.0310   50.0220 O   0  0  0  0  0  0  0  0  0  0  0  0
   57.4160   30.4690   51.1970 N   0  0  0  0  0  0  0  0  0  0  0  0
   57.2470   31.6740   51.7880 C   0  0  0  0  0  0  0  0  0  0  0  0
   56.1590   31.9160   52.3780 O   0  0  0  0  0  0  0  0  0  0  0  0
   58.2440   32.6070   51.7410 N   0  0  0  0  0  0  0  0  0  0  0  0
   58.0670   33.9230   52.3770 C   0  0  0  0  0  0  0  0  0  0  0  0
   59.3900   32.3270   51.0440 C   0  0  0  0  0  0  0  0  0  0  0  0
   60.2980   33.2010   50.9530 O   0  0  0  0  0  0  0  0  0  0  0  0
   59.5880   32.6900   46.8480 C   0  0  0  0  0  0  0  0  0  0  0  0
   58.4830   32.6400   45.9820 C   0  0  0  0  0  0  0  0  0  0  0  0
   58.0410   33.7740   45.2810 O   0  0  0  0  0  0  0  0  0  0  0  0
   58.8750   34.8670   44.9050 C   0  0  0  0  0  0  0  0  0  0  0  0
   57.7810   31.4360   45.8080 C   0  0  0  0  0  0  0  0  0  0  0  0
   56.6940   31.4650   44.9120 O   0  0  0  0  0  0  0  0  0  0  0  0
   56.6170   30.8190   43.6460 C   0  0  0  0  0  0  0  0  0  0  0  0
   55.5780   29.7050   43.7110 C   0  0  0  0  0  0  0  0  0  0  0  0
   55.1420   29.5210   45.0310 O   0  0  0  0  0  0  0  0  0  0  0  0
   58.2229   27.4367   47.3857 H   0  0  0  0  0  0  0  0  0  0  0  0
   57.3997   27.0773   45.8301 H   0  0  0  0  0  0  0  0  0  0  0  0
   59.0344   27.8220   45.8301 H   0  0  0  0  0  0  0  0  0  0  0  0
   59.5758   29.4731   47.9829 H   0  0  0  0  0  0  0  0  0  0  0  0
   62.0404   31.3433   48.0951 H   0  0  0  0  0  0  0  0  0  0  0  0
   61.1630   32.6928   48.9253 H   0  0  0  0  0  0  0  0  0  0  0  0
   60.7936   29.7011   49.4565 H   0  0  0  0  0  0  0  0  0  0  0  0
   61.6574   30.8900   50.5122 H   0  0  0  0  0  0  0  0  0  0  0  0
   58.0826   33.8067   53.4707 H   0  0  0  0  0  0  0  0  0  0  0  0
   58.8832   34.5925   52.0677 H   0  0  0  0  0  0  0  0  0  0  0  0
   57.1029   34.3530   52.0677 H   0  0  0  0  0  0  0  0  0  0  0  0
   60.1491   33.6294   46.9608 H   0  0  0  0  0  0  0  0  0  0  0  0
   59.2555   35.3657   45.8086 H   0  0  0  0  0  0  0  0  0  0  0  0
   59.7206   34.4946   44.3081 H   0  0  0  0  0  0  0  0  0  0  0  0
   58.2925   35.5843   44.3081 H   0  0  0  0  0  0  0  0  0  0  0  0
   56.3245   31.5499   42.8777 H   0  0  0  0  0  0  0  0  0  0  0  0
   57.5982   30.3932   43.3894 H   0  0  0  0  0  0  0  0  0  0  0  0
   54.7184   29.9735   43.0793 H   0  0  0  0  0  0  0  0  0  0  0  0
   56.0333   28.7704   43.3516 H   0  0  0  0  0  0  0  0  0  0  0  0
   55.7230   30.0860   45.6040 H   0  0  0  0  0  0  0  0  0  0  0  0
  1  2  1  0
  2  3  1  0
  3  4  2  0
  4  5  1  0
  5  6  1  0
  6  7  1  0
  7  8  1  0
  8  9  1  0
  9 10  2  0
  9 11  1  0
 11 12  1  0
 12 13  2  0
 12 14  1  0
 14 15  1  0
 14 16  1  0
 16 17  2  0
  5 18  2  0
 18 19  1  0
 19 20  1  0
 20 21  1  0
 19 22  2  0
 22 23  1  0
 23 24  1  0
 24 25  1  0
 25 26  1  0
 22  3  1  0
 16  8  1  0
  1 27  1  0
  1 28  1  0
  1 29  1  0
  4 30  1  0
  6 31  1  0
  6 32  1  0
  7 33  1  0
  7 34  1  0
 15 35  1  0
 15 36  1  0
 15 37  1  0
 18 38  1  0
 21 39  1  0
 21 40  1  0
 21 41  1  0
 24 42  1  0
 24 43  1  0
 25 44  1  0
 25 45  1  0
 26 46  1  0
M  CHG  1  11  -1
M  END
>  <UniqueID>  (59) 
58

>  <SMILES>  (59) 
COc1cc(CCn2c(=O)[n-]c(=O)n(C)c2=O)cc(OC)c1OCCO

>  <Energy>  (59) 
47.03151956595212

>  <Genealogy>  (59) 
COc1cc(CCn2c(=O)[n-]c(=O)n(C)c2=O)cc(OC)c1OCCO (protonated)
COc1cc(CCn2c(=O)[n-]c(=O)n(C)c2=O)cc(OC)c1OCCO (3D coordinates assigned)
COc1cc(CCn2c(=O)[n-]c(=O)n(C)c2=O)cc(OC)c1OCCO (optimized conformer: 47.03151956595212 kcal/mol)

>  <smiles>  (59) 
COc1cc(CCn2c(=O)[nH]c(=O)n(C)c2=O)cc(OC)c1OCCO

>  <score_type>  (59) 
oracle

>  <origin>  (59) 
adg

>  <m_score__min__energy>  (59) 
-8.1600000000000001

>  <m_primary>  (59) 
energy

$$$$
59:0
     RDKit          3D

 33 34  0  0  0  0  0  0  0  0999 V2000
   55.6620   26.6340   46.0300 N   0  0  0  0  0  0  0  0  0  0  0  0
   57.3200   26.5380   45.5520 S   0  0  0  0  0  0  0  0  0  0  0  0
   57.9190   25.2680   46.0860 O   0  0  0  0  0  0  0  0  0  0  0  0
   57.4110   26.5200   44.0510 O   0  0  0  0  0  0  0  0  0  0  0  0
   58.1950   27.9290   46.1820 C   0  0  0  0  0  0  0  0  0  0  0  0
   58.1170   28.2460   47.5440 C   0  0  0  0  0  0  0  0  0  0  0  0
   58.8210   29.3410   48.0530 C   0  0  0  0  0  0  0  0  0  0  0  0
   59.6020   30.1390   47.2070 C   0  0  0  0  0  0  0  0  0  0  0  0
   60.3220   31.2440   47.7730 N   0  0  0  0  0  0  0  0  0  0  0  0
   60.7890   32.4030   47.0730 C   0  0  0  0  0  0  0  0  0  0  0  0
   62.0020   32.5170   46.7480 O   0  0  0  0  0  0  0  0  0  0  0  0
   59.8070   33.4470   46.6480 C   0  0  0  0  0  0  0  0  0  0  0  0
   59.3150   33.1660   45.3390 O   0  0  0  0  0  0  0  0  0  0  0  0
   57.9530   33.1450   45.0190 C   0  0  0  0  0  0  0  0  0  0  0  0
   57.2330   34.1630   45.2080 O   0  0  0  0  0  0  0  0  0  0  0  0
   57.3560   31.9260   44.4610 C   0  0  0  0  0  0  0  0  0  0  0  0
   57.4310   31.5360   43.1360 C   0  0  0  0  0  0  0  0  0  0  0  0
   56.7450   30.3450   43.0480 C   0  0  0  0  0  0  0  0  0  0  0  0
   56.2910   30.0810   44.3230 C   0  0  0  0  0  0  0  0  0  0  0  0
   55.5410   28.9670   44.6870 O   0  0  0  0  0  0  0  0  0  0  0  0
   56.6570   31.0370   45.1970 N   0  0  0  0  0  0  0  0  0  0  0  0
   59.7040   29.8010   45.8460 C   0  0  0  0  0  0  0  0  0  0  0  0
   59.0010   28.7040   45.3380 C   0  0  0  0  0  0  0  0  0  0  0  0
   55.1440   27.0870   45.2440 H   0  0  0  0  0  0  0  0  0  0  0  0
   57.4996   27.6311   48.2154 H   0  0  0  0  0  0  0  0  0  0  0  0
   58.7613   29.5778   49.1255 H   0  0  0  0  0  0  0  0  0  0  0  0
   58.9651   33.4617   47.3558 H   0  0  0  0  0  0  0  0  0  0  0  0
   60.3099   34.4252   46.6369 H   0  0  0  0  0  0  0  0  0  0  0  0
   57.9366   32.0695   42.3176 H   0  0  0  0  0  0  0  0  0  0  0  0
   56.5912   29.7318   42.1478 H   0  0  0  0  0  0  0  0  0  0  0  0
   55.8800   28.0290   44.5050 H   0  0  0  0  0  0  0  0  0  0  0  0
   60.3391   30.4017   45.1783 H   0  0  0  0  0  0  0  0  0  0  0  0
   59.0812   28.4485   44.2711 H   0  0  0  0  0  0  0  0  0  0  0  0
  1  2  1  0
  2  3  2  0
  2  4  2  0
  2  5  1  0
  5  6  2  0
  6  7  1  0
  7  8  2  0
  8  9  1  0
  9 10  1  0
 10 11  2  0
 10 12  1  0
 12 13  1  0
 13 14  1  0
 14 15  2  0
 14 16  1  0
 16 17  2  0
 17 18  1  0
 18 19  2  0
 19 20  1  0
 19 21  1  0
  8 22  1  0
 22 23  2  0
 23  5  1  0
 21 16  1  0
  1 24  1  0
  6 25  1  0
  7 26  1  0
 12 27  1  0
 12 28  1  0
 17 29  1  0
 18 30  1  0
 20 31  1  0
 22 32  1  0
 23 33  1  0
M  CHG  3   1  -1   9  -1  21  -1
M  END
>  <UniqueID>  (60) 
59

>  <SMILES>  (60) 
[NH-]S(=O)(=O)c1ccc([N-]C(=O)COC(=O)c2ccc(O)[n-]2)cc1

>  <Energy>  (60) 
57.30737033065303

>  <Genealogy>  (60) 
[NH-]S(=O)(=O)c1ccc([N-]C(=O)COC(=O)c2ccc(O)[n-]2)cc1 (protonated)
[NH-]S(=O)(=O)c1ccc([N-]C(=O)COC(=O)c2ccc(O)[n-]2)cc1 (3D coordinates assigned)
[NH-]S(=O)(=O)c1ccc([N-]C(=O)COC(=O)c2ccc(O)[n-]2)cc1 (optimized conformer: 57.30737033065303 kcal/mol)

>  <smiles>  (60) 
NS(=O)(=O)c1ccc(NC(=O)COC(=O)c2ccc(O)[nH]2)cc1

>  <score_type>  (60) 
oracle

>  <origin>  (60) 
adg

>  <m_score__min__energy>  (60) 
-13.24

>  <m_primary>  (60) 
energy

$$$$
60:0
     RDKit          3D

 48 50  0  0  0  0  0  0  0  0999 V2000
   58.8490   27.6770   43.8090 C   0  0  0  0  0  0  0  0  0  0  0  0
   59.8590   28.2510   44.7970 C   0  0  0  0  0  0  0  0  0  0  0  0
   59.2400   28.4680   46.1130 N   0  0  0  0  0  0  0  0  0  0  0  0
   58.7450   29.8140   46.4440 C   0  0  0  0  0  0  0  0  0  0  0  0
   57.4230   30.0800   45.7740 C   0  0  0  0  0  0  0  0  0  0  0  0
   56.6420   29.1180   45.5470 O   0  0  0  0  0  0  0  0  0  0  0  0
   57.0450   31.3920   45.3370 N   0  0  0  0  0  0  0  0  0  0  0  0
   57.8160   32.5920   45.4900 C   0  0  0  0  0  0  0  0  0  0  0  0
   57.9790   33.1940   46.7500 C   0  0  0  0  0  0  0  0  0  0  0  0
   58.7070   34.3810   46.8760 C   0  0  0  0  0  0  0  0  0  0  0  0
   59.2640   34.9840   45.7460 C   0  0  0  0  0  0  0  0  0  0  0  0
   59.0850   34.4060   44.4860 C   0  0  0  0  0  0  0  0  0  0  0  0
   58.3550   33.2190   44.3530 C   0  0  0  0  0  0  0  0  0  0  0  0
   58.1330   32.4560   42.6110 Br  0  0  0  0  0  0  0  0  0  0  0  0
   59.0840   27.4000   47.0800 C   0  0  0  0  0  0  0  0  0  0  0  0
   60.1040   26.9560   47.6750 O   0  0  0  0  0  0  0  0  0  0  0  0
   57.7470   26.7790   47.4160 C   0  0  0  0  0  0  0  0  0  0  0  0
   57.3730   25.7590   46.4300 N   0  0  0  0  0  0  0  0  0  0  0  0
   56.1740   25.6330   45.8120 C   0  0  0  0  0  0  0  0  0  0  0  0
   55.1030   26.5000   45.9910 O   0  0  0  0  0  0  0  0  0  0  0  0
   56.1860   24.5600   44.9450 C   0  0  0  0  0  0  0  0  0  0  0  0
   57.4440   24.0210   45.0070 C   0  0  0  0  0  0  0  0  0  0  0  0
   58.1600   24.7860   45.9070 C   0  0  0  0  0  0  0  0  0  0  0  0
   59.5130   24.6100   46.1850 O   0  0  0  0  0  0  0  0  0  0  0  0
   57.9140   22.8920   44.1470 C   0  0  0  0  0  0  0  0  0  0  0  0
   56.7820   22.3070   43.3260 C   0  0  0  0  0  0  0  0  0  0  0  0
   55.5410   22.8380   43.2660 C   0  0  0  0  0  0  0  0  0  0  0  0
   55.1150   24.0840   44.0170 C   0  0  0  0  0  0  0  0  0  0  0  0
   58.0220   27.2070   44.3615 H   0  0  0  0  0  0  0  0  0  0  0  0
   58.4545   28.4858   43.1764 H   0  0  0  0  0  0  0  0  0  0  0  0
   59.3420   26.9241   43.1764 H   0  0  0  0  0  0  0  0  0  0  0  0
   60.6974   27.5471   44.9049 H   0  0  0  0  0  0  0  0  0  0  0  0
   60.2163   29.2178   44.4128 H   0  0  0  0  0  0  0  0  0  0  0  0
   58.6189   29.8934   47.5339 H   0  0  0  0  0  0  0  0  0  0  0  0
   59.4755   30.5548   46.0868 H   0  0  0  0  0  0  0  0  0  0  0  0
   57.5317   32.7290   47.6409 H   0  0  0  0  0  0  0  0  0  0  0  0
   58.8413   34.8406   47.8663 H   0  0  0  0  0  0  0  0  0  0  0  0
   59.8434   35.9135   45.8476 H   0  0  0  0  0  0  0  0  0  0  0  0
   59.5191   34.8853   43.5962 H   0  0  0  0  0  0  0  0  0  0  0  0
   57.8080   26.3118   48.4100 H   0  0  0  0  0  0  0  0  0  0  0  0
   56.9829   27.5703   47.4056 H   0  0  0  0  0  0  0  0  0  0  0  0
   60.1390   25.3910   46.3170 H   0  0  0  0  0  0  0  0  0  0  0  0
   58.6942   23.2629   43.4660 H   0  0  0  0  0  0  0  0  0  0  0  0
   58.3079   22.1013   44.8024 H   0  0  0  0  0  0  0  0  0  0  0  0
   56.9829   21.3954   42.7441 H   0  0  0  0  0  0  0  0  0  0  0  0
   54.7943   22.3355   42.6336 H   0  0  0  0  0  0  0  0  0  0  0  0
   54.8921   24.8797   43.2910 H   0  0  0  0  0  0  0  0  0  0  0  0
   54.2254   23.8379   44.6154 H   0  0  0  0  0  0  0  0  0  0  0  0
  1  2  1  0
  2  3  1  0
  3  4  1  0
  4  5  1  0
  5  6  2  0
  5  7  1  0
  7  8  1  0
  8  9  2  0
  9 10  1  0
 10 11  2  0
 11 12  1  0
 12 13  2  0
 13 14  1  0
  3 15  1  0
 15 16  2  0
 15 17  1  0
 17 18  1  0
 18 19  1  0
 19 20  1  0
 19 21  2  0
 21 22  1  0
 22 23  2  0
 23 24  1  0
 22 25  1  0
 25 26  1  0
 26 27  2  0
 27 28  1  0
 13  8  1  0
 23 18  1  0
 28 21  1  0
  1 29  1  0
  1 30  1  0
  1 31  1  0
  2 32  1  0
  2 33  1  0
  4 34  1  0
  4 35  1  0
  9 36  1  0
 10 37  1  0
 11 38  1  0
 12 39  1  0
 17 40  1  0
 17 41  1  0
 24 42  1  0
 25 43  1  0
 25 44  1  0
 26 45  1  0
 27 46  1  0
 28 47  1  0
 28 48  1  0
M  CHG  2   7  -1  20  -1
M  END
>  <UniqueID>  (61) 
60

>  <SMILES>  (61) 
CCN(CC(=O)[N-]c1ccccc1Br)C(=O)Cn1c([O-])c2c(c1O)CC=CC2

>  <Energy>  (61) 
83.49564306761337

>  <Genealogy>  (61) 
CCN(CC(=O)[N-]c1ccccc1Br)C(=O)Cn1c([O-])c2c(c1O)CC=CC2 (protonated)
CCN(CC(=O)[N-]c1ccccc1Br)C(=O)Cn1c([O-])c2c(c1O)CC=CC2 (3D coordinates assigned)
CCN(CC(=O)[N-]c1ccccc1Br)C(=O)Cn1c([O-])c2c(c1O)CC=CC2 (nonaromatic ring conformer: 83.49564306761337 kcal/mol)

>  <smiles>  (61) 
CCN(CC(=O)Nc1ccccc1Br)C(=O)Cn1c(O)c2c(c1O)CC=CC2

>  <score_type>  (61) 
oracle

>  <origin>  (61) 
adg

>  <m_score__min__energy>  (61) 
-13.74

>  <m_primary>  (61) 
energy

$$$$
61:0
     RDKit          3D

 54 56  0  0  0  0  0  0  0  0999 V2000
   58.0770   32.3580   41.6060 C   0  0  0  0  0  0  0  0  0  0  0  0
   57.1870   31.4680   42.4660 C   0  0  0  0  0  0  0  0  0  0  0  0
   57.8640   31.1440   43.7650 C   0  0  0  0  0  0  0  0  0  0  0  0
   58.6090   30.0420   43.9650 N   0  0  0  0  0  0  0  0  0  0  0  0
   59.0090   30.0150   45.2270 N   0  0  0  0  0  0  0  0  0  0  0  0
   59.8310   28.9390   45.7860 C   0  0  0  0  0  0  0  0  0  0  0  0
   59.2150   27.5960   45.5020 C   0  0  0  0  0  0  0  0  0  0  0  0
   59.4320   26.5210   46.3790 C   0  0  0  0  0  0  0  0  0  0  0  0
   58.8550   25.2750   46.1250 C   0  0  0  0  0  0  0  0  0  0  0  0
   58.0580   25.0820   44.9860 C   0  0  0  0  0  0  0  0  0  0  0  0
   57.4210   23.7740   44.7310 C   0  0  0  0  0  0  0  0  0  0  0  0
   58.0880   22.8610   43.8970 C   0  0  0  0  0  0  0  0  0  0  0  0
   57.5150   21.6240   43.5980 C   0  0  0  0  0  0  0  0  0  0  0  0
   56.2730   21.2830   44.1290 C   0  0  0  0  0  0  0  0  0  0  0  0
   55.6020   22.1730   44.9700 C   0  0  0  0  0  0  0  0  0  0  0  0
   56.1660   23.4190   45.2900 C   0  0  0  0  0  0  0  0  0  0  0  0
   55.3020   24.4780   46.4180 S   0  0  0  0  0  0  0  0  0  0  0  0
   54.8080   25.9290   45.6200 N   0  0  0  0  0  0  0  0  0  0  0  0
   54.0980   23.7660   46.9630 O   0  0  0  0  0  0  0  0  0  0  0  0
   56.2040   24.8540   47.5610 O   0  0  0  0  0  0  0  0  0  0  0  0
   57.8250   26.1600   44.1190 C   0  0  0  0  0  0  0  0  0  0  0  0
   58.3980   27.4090   44.3750 C   0  0  0  0  0  0  0  0  0  0  0  0
   58.5110   31.1000   45.8690 C   0  0  0  0  0  0  0  0  0  0  0  0
   58.6690   31.3980   47.3380 C   0  0  0  0  0  0  0  0  0  0  0  0
   60.0420   31.9950   47.6290 C   0  0  0  0  0  0  0  0  0  0  0  0
   57.7570   31.8390   44.9610 C   0  0  0  0  0  0  0  0  0  0  0  0
   57.0550   33.1470   45.1950 C   0  0  0  0  0  0  0  0  0  0  0  0
   58.0450   34.2020   45.5680 C   0  0  0  0  0  0  0  0  0  0  0  0
   58.7220   34.7810   44.6770 O   0  0  0  0  0  0  0  0  0  0  0  0
   58.2550   34.5200   46.9040 O   0  0  0  0  0  0  0  0  0  0  0  0
   58.7048   32.9858   42.2554 H   0  0  0  0  0  0  0  0  0  0  0  0
   58.7193   31.7301   40.9710 H   0  0  0  0  0  0  0  0  0  0  0  0
   57.4491   33.0003   40.9710 H   0  0  0  0  0  0  0  0  0  0  0  0
   56.2419   31.9920   42.6715 H   0  0  0  0  0  0  0  0  0  0  0  0
   56.9917   30.5310   41.9238 H   0  0  0  0  0  0  0  0  0  0  0  0
   58.8350   29.3130   43.2510 H   0  0  0  0  0  0  0  0  0  0  0  0
   60.8334   28.9790   45.3349 H   0  0  0  0  0  0  0  0  0  0  0  0
   59.8968   29.0743   46.8757 H   0  0  0  0  0  0  0  0  0  0  0  0
   60.0601   26.6612   47.2711 H   0  0  0  0  0  0  0  0  0  0  0  0
   59.0260   24.4406   46.8211 H   0  0  0  0  0  0  0  0  0  0  0  0
   59.0699   23.1233   43.4762 H   0  0  0  0  0  0  0  0  0  0  0  0
   58.0448   20.9174   42.9422 H   0  0  0  0  0  0  0  0  0  0  0  0
   55.8200   20.3107   43.8852 H   0  0  0  0  0  0  0  0  0  0  0  0
   54.6222   21.8957   45.3860 H   0  0  0  0  0  0  0  0  0  0  0  0
   54.7910   26.6840   46.3420 H   0  0  0  0  0  0  0  0  0  0  0  0
   57.1880   26.0216   43.2330 H   0  0  0  0  0  0  0  0  0  0  0  0
   58.2082   28.2491   43.6908 H   0  0  0  0  0  0  0  0  0  0  0  0
   57.8927   32.1141   47.6455 H   0  0  0  0  0  0  0  0  0  0  0  0
   58.5692   30.4574   47.8996 H   0  0  0  0  0  0  0  0  0  0  0  0
   60.1906   32.0596   48.7170 H   0  0  0  0  0  0  0  0  0  0  0  0
   60.8209   31.3543   47.1899 H   0  0  0  0  0  0  0  0  0  0  0  0
   60.1047   33.0016   47.1899 H   0  0  0  0  0  0  0  0  0  0  0  0
   56.5313   33.4483   44.2758 H   0  0  0  0  0  0  0  0  0  0  0  0
   56.3321   33.0257   46.0152 H   0  0  0  0  0  0  0  0  0  0  0  0
  1  2  1  0
  2  3  1  0
  3  4  2  0
  4  5  1  0
  5  6  1  0
  6  7  1  0
  7  8  2  0
  8  9  1  0
  9 10  2  0
 10 11  1  0
 11 12  2  0
 12 13  1  0
 13 14  2  0
 14 15  1  0
 15 16  2  0
 16 17  1  0
 17 18  1  0
 17 19  2  0
 17 20  2  0
 10 21  1  0
 21 22  2  0
  5 23  1  0
 23 24  1  0
 24 25  1  0
 23 26  2  0
 26 27  1  0
 27 28  1  0
 28 29  2  0
 28 30  1  0
 26  3  1  0
 22  7  1  0
 16 11  1  0
  1 31  1  0
  1 32  1  0
  1 33  1  0
  2 34  1  0
  2 35  1  0
  4 36  1  0
  6 37  1  0
  6 38  1  0
  8 39  1  0
  9 40  1  0
 12 41  1  0
 13 42  1  0
 14 43  1  0
 15 44  1  0
 18 45  1  0
 21 46  1  0
 22 47  1  0
 24 48  1  0
 24 49  1  0
 25 50  1  0
 25 51  1  0
 25 52  1  0
 27 53  1  0
 27 54  1  0
M  CHG  3   4   1  18  -1  30  -1
M  END
>  <UniqueID>  (62) 
61

>  <SMILES>  (62) 
CCc1[nH+]n(Cc2ccc(-c3ccccc3S([NH-])(=O)=O)cc2)c(CC)c1CC(=O)[O-]

>  <Energy>  (62) 
82.31171083066991

>  <Genealogy>  (62) 
CCc1[nH+]n(Cc2ccc(-c3ccccc3S([NH-])(=O)=O)cc2)c(CC)c1CC(=O)[O-] (protonated)
CCc1[nH+]n(Cc2ccc(-c3ccccc3S([NH-])(=O)=O)cc2)c(CC)c1CC(=O)[O-] (3D coordinates assigned)
CCc1[nH+]n(Cc2ccc(-c3ccccc3S([NH-])(=O)=O)cc2)c(CC)c1CC(=O)[O-] (optimized conformer: 82.31171083066991 kcal/mol)

>  <smiles>  (62) 
CCc1nn(Cc2ccc(-c3ccccc3S(N)(=O)=O)cc2)c(CC)c1CC(=O)O

>  <score_type>  (62) 
oracle

>  <origin>  (62) 
adg

>  <m_score__min__energy>  (62) 
-11.24

>  <m_primary>  (62) 
energy

$$$$
62:0
     RDKit          3D

 47 49  0  0  0  0  0  0  0  0999 V2000
   55.1890   28.9690   44.6420 N   0  0  0  0  0  0  0  0  0  0  0  0
   56.4380   30.0580   44.1530 S   0  0  0  0  0  0  0  0  0  0  0  0
   56.0610   31.4620   44.5360 O   0  0  0  0  0  0  0  0  0  0  0  0
   56.5980   29.9930   42.6590 O   0  0  0  0  0  0  0  0  0  0  0  0
   57.9500   29.6120   44.9370 C   0  0  0  0  0  0  0  0  0  0  0  0
   58.6940   28.5210   44.4690 C   0  0  0  0  0  0  0  0  0  0  0  0
   59.8920   28.1700   45.0970 C   0  0  0  0  0  0  0  0  0  0  0  0
   60.3460   28.8950   46.2010 C   0  0  0  0  0  0  0  0  0  0  0  0
   59.5930   29.9730   46.6990 C   0  0  0  0  0  0  0  0  0  0  0  0
   60.0450   30.7490   47.8220 N   0  0  0  0  0  0  0  0  0  0  0  0
   60.8910   30.2370   48.8650 C   0  0  0  0  0  0  0  0  0  0  0  0
   61.1430   29.0040   48.9410 O   0  0  0  0  0  0  0  0  0  0  0  0
   61.4280   31.1590   49.9210 C   0  0  0  0  0  0  0  0  0  0  0  0
   62.6680   31.8270   49.4640 N   0  0  0  0  0  0  0  0  0  0  0  0
   62.7180   33.2680   49.8080 C   0  0  0  0  0  0  0  0  0  0  0  0
   61.6590   34.0800   49.0440 C   0  0  0  0  0  0  0  0  0  0  0  0
   61.4630   33.5340   47.6970 N   0  0  0  0  0  0  0  0  0  0  0  0
   60.2300   33.7730   46.9870 C   0  0  0  0  0  0  0  0  0  0  0  0
   60.2470   34.0840   45.6170 C   0  0  0  0  0  0  0  0  0  0  0  0
   59.0500   34.2980   44.9260 C   0  0  0  0  0  0  0  0  0  0  0  0
   57.8270   34.1980   45.5950 C   0  0  0  0  0  0  0  0  0  0  0  0
   56.6390   34.4110   44.9060 O   0  0  0  0  0  0  0  0  0  0  0  0
   57.8000   33.8810   46.9550 C   0  0  0  0  0  0  0  0  0  0  0  0
   58.9950   33.6650   47.6500 C   0  0  0  0  0  0  0  0  0  0  0  0
   62.5480   32.7520   47.1010 C   0  0  0  0  0  0  0  0  0  0  0  0
   62.9360   31.5780   48.0210 C   0  0  0  0  0  0  0  0  0  0  0  0
   58.4030   30.3340   46.0490 C   0  0  0  0  0  0  0  0  0  0  0  0
   54.7780   29.3540   45.5230 H   0  0  0  0  0  0  0  0  0  0  0  0
   58.3349   27.9403   43.6066 H   0  0  0  0  0  0  0  0  0  0  0  0
   60.4795   27.3197   44.7205 H   0  0  0  0  0  0  0  0  0  0  0  0
   61.2963   28.6216   46.6828 H   0  0  0  0  0  0  0  0  0  0  0  0
   59.6550   31.7110   47.9390 H   0  0  0  0  0  0  0  0  0  0  0  0
   60.6710   31.9237   50.1492 H   0  0  0  0  0  0  0  0  0  0  0  0
   61.6604   30.5659   50.8178 H   0  0  0  0  0  0  0  0  0  0  0  0
   62.5417   33.3816   50.8878 H   0  0  0  0  0  0  0  0  0  0  0  0
   63.7094   33.6507   49.5241 H   0  0  0  0  0  0  0  0  0  0  0  0
   60.7066   34.0390   49.5929 H   0  0  0  0  0  0  0  0  0  0  0  0
   62.0040   35.1210   48.9581 H   0  0  0  0  0  0  0  0  0  0  0  0
   61.2068   34.1596   45.0850 H   0  0  0  0  0  0  0  0  0  0  0  0
   59.0712   34.5454   43.8544 H   0  0  0  0  0  0  0  0  0  0  0  0
   56.8371   33.8010   47.4808 H   0  0  0  0  0  0  0  0  0  0  0  0
   58.9681   33.4096   48.7196 H   0  0  0  0  0  0  0  0  0  0  0  0
   62.2175   32.3564   46.1292 H   0  0  0  0  0  0  0  0  0  0  0  0
   63.4241   33.4036   46.9672 H   0  0  0  0  0  0  0  0  0  0  0  0
   62.3638   30.6913   47.7106 H   0  0  0  0  0  0  0  0  0  0  0  0
   64.0222   31.4378   47.9180 H   0  0  0  0  0  0  0  0  0  0  0  0
   57.8203   31.1918   46.4159 H   0  0  0  0  0  0  0  0  0  0  0  0
  1  2  1  0
  2  3  2  0
  2  4  2  0
  2  5  1  0
  5  6  2  0
  6  7  1  0
  7  8  2  0
  8  9  1  0
  9 10  1  0
 10 11  1  0
 11 12  2  0
 11 13  1  0
 13 14  1  0
 14 15  1  0
 15 16  1  0
 16 17  1  0
 17 18  1  0
 18 19  2  0
 19 20  1  0
 20 21  2  0
 21 22  1  0
 21 23  1  0
 23 24  2  0
 17 25  1  0
 25 26  1  0
  9 27  2  0
 27  5  1  0
 26 14  1  0
 24 18  1  0
  1 28  1  0
  6 29  1  0
  7 30  1  0
  8 31  1  0
 10 32  1  0
 13 33  1  0
 13 34  1  0
 15 35  1  0
 15 36  1  0
 16 37  1  0
 16 38  1  0
 19 39  1  0
 20 40  1  0
 23 41  1  0
 24 42  1  0
 25 43  1  0
 25 44  1  0
 26 45  1  0
 26 46  1  0
 27 47  1  0
M  CHG  2   1  -1  22  -1
M  END
>  <UniqueID>  (63) 
62

>  <SMILES>  (63) 
[NH-]S(=O)(=O)c1cccc(NC(=O)CN2CCN(c3ccc([O-])cc3)CC2)c1

>  <Energy>  (63) 
63.325778624220234

>  <Genealogy>  (63) 
[NH-]S(=O)(=O)c1cccc(NC(=O)CN2CCN(c3ccc([O-])cc3)CC2)c1 (protonated)
[NH-]S(=O)(=O)c1cccc(NC(=O)CN2CCN(c3ccc([O-])cc3)CC2)c1 (3D coordinates assigned)
[NH-]S(=O)(=O)c1cccc(NC(=O)CN2CCN(c3ccc([O-])cc3)CC2)c1 (nonaromatic ring conformer: 63.325778624220234 kcal/mol)

>  <smiles>  (63) 
NS(=O)(=O)c1cccc(NC(=O)CN2CCN(c3ccc(O)cc3)CC2)c1

>  <score_type>  (63) 
oracle

>  <origin>  (63) 
adg

>  <m_score__min__energy>  (63) 
-12.699999999999999

>  <m_primary>  (63) 
energy

$$$$
63:0
     RDKit          3D

 43 45  0  0  0  0  0  0  0  0999 V2000
   56.6470   34.6020   44.7270 O   0  0  0  0  0  0  0  0  0  0  0  0
   57.6920   33.9060   44.8540 C   0  0  0  0  0  0  0  0  0  0  0  0
   58.2080   33.1870   43.7650 O   0  0  0  0  0  0  0  0  0  0  0  0
   57.7080   31.9670   43.2870 C   0  0  0  0  0  0  0  0  0  0  0  0
   57.3600   31.8500   42.0800 O   0  0  0  0  0  0  0  0  0  0  0  0
   57.5940   30.8140   44.2170 C   0  0  0  0  0  0  0  0  0  0  0  0
   58.6170   30.5590   45.1430 C   0  0  0  0  0  0  0  0  0  0  0  0
   58.5310   29.5110   46.0160 N   0  0  0  0  0  0  0  0  0  0  0  0
   59.6340   29.2550   46.9520 C   0  0  0  0  0  0  0  0  0  0  0  0
   60.1480   30.4910   47.4060 O   0  0  0  0  0  0  0  0  0  0  0  0
   61.1550   30.2810   48.3760 C   0  0  0  0  0  0  0  0  0  0  0  0
   62.1630   31.4000   48.3350 C   0  0  0  0  0  0  0  0  0  0  0  0
   62.4040   32.0830   47.1320 C   0  0  0  0  0  0  0  0  0  0  0  0
   63.3560   33.1060   47.0810 C   0  0  0  0  0  0  0  0  0  0  0  0
   64.0750   33.4510   48.2290 C   0  0  0  0  0  0  0  0  0  0  0  0
   63.8430   32.7730   49.4300 C   0  0  0  0  0  0  0  0  0  0  0  0
   62.8930   31.7490   49.4840 C   0  0  0  0  0  0  0  0  0  0  0  0
   57.4490   28.6740   45.9690 C   0  0  0  0  0  0  0  0  0  0  0  0
   57.3660   27.6820   46.7440 O   0  0  0  0  0  0  0  0  0  0  0  0
   56.4480   28.9020   45.0830 N   0  0  0  0  0  0  0  0  0  0  0  0
   56.4880   29.9430   44.2150 C   0  0  0  0  0  0  0  0  0  0  0  0
   55.5290   30.1080   43.4160 O   0  0  0  0  0  0  0  0  0  0  0  0
   58.3840   33.8450   46.1600 C   0  0  0  0  0  0  0  0  0  0  0  0
   59.5040   34.6600   46.4090 C   0  0  0  0  0  0  0  0  0  0  0  0
   60.1600   34.6040   47.6430 C   0  0  0  0  0  0  0  0  0  0  0  0
   59.7070   33.7370   48.6390 C   0  0  0  0  0  0  0  0  0  0  0  0
   58.5960   32.9240   48.4050 C   0  0  0  0  0  0  0  0  0  0  0  0
   57.9350   32.9760   47.1730 C   0  0  0  0  0  0  0  0  0  0  0  0
   59.5015   31.2125   45.1666 H   0  0  0  0  0  0  0  0  0  0  0  0
   59.2634   28.6727   47.8085 H   0  0  0  0  0  0  0  0  0  0  0  0
   60.4273   28.6861   46.4451 H   0  0  0  0  0  0  0  0  0  0  0  0
   60.6948   30.2437   49.3744 H   0  0  0  0  0  0  0  0  0  0  0  0
   61.6663   29.3312   48.1607 H   0  0  0  0  0  0  0  0  0  0  0  0
   61.8417   31.8123   46.2262 H   0  0  0  0  0  0  0  0  0  0  0  0
   63.5392   33.6396   46.1367 H   0  0  0  0  0  0  0  0  0  0  0  0
   64.8235   34.2560   48.1878 H   0  0  0  0  0  0  0  0  0  0  0  0
   64.4087   33.0458   50.3331 H   0  0  0  0  0  0  0  0  0  0  0  0
   62.7162   31.2146   50.4291 H   0  0  0  0  0  0  0  0  0  0  0  0
   59.8657   35.3453   45.6283 H   0  0  0  0  0  0  0  0  0  0  0  0
   61.0347   35.2445   47.8291 H   0  0  0  0  0  0  0  0  0  0  0  0
   60.2253   33.6943   49.6083 H   0  0  0  0  0  0  0  0  0  0  0  0
   58.2399   32.2415   49.1907 H   0  0  0  0  0  0  0  0  0  0  0  0
   57.0595   32.3344   46.9947 H   0  0  0  0  0  0  0  0  0  0  0  0
  1  2  2  0
  2  3  1  0
  3  4  1  0
  4  5  2  0
  4  6  1  0
  6  7  2  0
  7  8  1  0
  8  9  1  0
  9 10  1  0
 10 11  1  0
 11 12  1  0
 12 13  2  0
 13 14  1  0
 14 15  2  0
 15 16  1  0
 16 17  2  0
  8 18  1  0
 18 19  2  0
 18 20  1  0
 20 21  1  0
 21 22  2  0
  2 23  1  0
 23 24  2  0
 24 25  1  0
 25 26  2  0
 26 27  1  0
 27 28  2  0
 21  6  1  0
 28 23  1  0
 17 12  1  0
  7 29  1  0
  9 30  1  0
  9 31  1  0
 11 32  1  0
 11 33  1  0
 13 34  1  0
 14 35  1  0
 15 36  1  0
 16 37  1  0
 17 38  1  0
 24 39  1  0
 25 40  1  0
 26 41  1  0
 27 42  1  0
 28 43  1  0
M  CHG  1  20  -1
M  END
>  <UniqueID>  (64) 
63

>  <SMILES>  (64) 
O=C(OC(=O)c1cn(COCc2ccccc2)c(=O)[n-]c1=O)c1ccccc1

>  <Energy>  (64) 
53.51613922595203

>  <Genealogy>  (64) 
O=C(OC(=O)c1cn(COCc2ccccc2)c(=O)[n-]c1=O)c1ccccc1 (protonated)
O=C(OC(=O)c1cn(COCc2ccccc2)c(=O)[n-]c1=O)c1ccccc1 (3D coordinates assigned)
O=C(OC(=O)c1cn(COCc2ccccc2)c(=O)[n-]c1=O)c1ccccc1 (optimized conformer: 53.51613922595203 kcal/mol)

>  <smiles>  (64) 
O=C(OC(=O)c1cn(COCc2ccccc2)c(=O)[nH]c1=O)c1ccccc1

>  <score_type>  (64) 
oracle

>  <origin>  (64) 
adg

>  <m_score__min__energy>  (64) 
-11.08

>  <m_primary>  (64) 
energy

$$$$
64:0
     RDKit          3D

 38 40  0  0  0  0  0  0  0  0999 V2000
   55.4480   30.1320   44.5170 O   0  0  0  0  0  0  0  0  0  0  0  0
   56.6510   29.7700   44.4030 C   0  0  0  0  0  0  0  0  0  0  0  0
   57.1520   28.6110   45.2080 C   0  0  0  0  0  0  0  0  0  0  0  0
   58.4700   28.9740   45.8370 C   0  0  0  0  0  0  0  0  0  0  0  0
   59.6500   28.9460   45.0730 C   0  0  0  0  0  0  0  0  0  0  0  0
   60.8660   29.3390   45.6410 C   0  0  0  0  0  0  0  0  0  0  0  0
   60.9130   29.7660   46.9710 C   0  0  0  0  0  0  0  0  0  0  0  0
   59.7430   29.8090   47.7320 C   0  0  0  0  0  0  0  0  0  0  0  0
   58.5230   29.4220   47.1670 C   0  0  0  0  0  0  0  0  0  0  0  0
   57.5570   30.5230   43.5870 N   0  0  0  0  0  0  0  0  0  0  0  0
   57.4140   31.9670   43.4330 C   0  0  0  0  0  0  0  0  0  0  0  0
   57.8570   32.6400   44.6950 C   0  0  0  0  0  0  0  0  0  0  0  0
   57.1500   33.6800   45.2920 C   0  0  0  0  0  0  0  0  0  0  0  0
   58.0760   34.2560   46.5700 S   0  0  0  0  0  0  0  0  0  0  0  0
   59.3380   33.1680   46.3100 C   0  0  0  0  0  0  0  0  0  0  0  0
   60.6120   33.1200   47.0610 C   0  0  0  0  0  0  0  0  0  0  0  0
   61.8220   33.4310   46.4140 C   0  0  0  0  0  0  0  0  0  0  0  0
   63.0260   33.4300   47.1240 C   0  0  0  0  0  0  0  0  0  0  0  0
   63.0370   33.1160   48.4850 C   0  0  0  0  0  0  0  0  0  0  0  0
   64.5470   33.1210   49.3770 Cl  0  0  0  0  0  0  0  0  0  0  0  0
   61.8410   32.8000   49.1370 C   0  0  0  0  0  0  0  0  0  0  0  0
   60.6340   32.8000   48.4300 C   0  0  0  0  0  0  0  0  0  0  0  0
   59.0660   32.3690   45.2540 N   0  0  0  0  0  0  0  0  0  0  0  0
   56.4235   28.3686   45.9957 H   0  0  0  0  0  0  0  0  0  0  0  0
   57.2850   27.7376   44.5526 H   0  0  0  0  0  0  0  0  0  0  0  0
   59.6166   28.6138   44.0249 H   0  0  0  0  0  0  0  0  0  0  0  0
   61.7869   29.3120   45.0401 H   0  0  0  0  0  0  0  0  0  0  0  0
   61.8715   30.0681   47.4182 H   0  0  0  0  0  0  0  0  0  0  0  0
   59.7806   30.1478   48.7778 H   0  0  0  0  0  0  0  0  0  0  0  0
   57.6020   29.4688   47.7666 H   0  0  0  0  0  0  0  0  0  0  0  0
   58.4840   30.1010   43.3510 H   0  0  0  0  0  0  0  0  0  0  0  0
   58.0362   32.3114   42.5938 H   0  0  0  0  0  0  0  0  0  0  0  0
   56.3620   32.2159   43.2296 H   0  0  0  0  0  0  0  0  0  0  0  0
   56.1637   34.0565   44.9830 H   0  0  0  0  0  0  0  0  0  0  0  0
   61.8205   33.6767   45.3418 H   0  0  0  0  0  0  0  0  0  0  0  0
   63.9666   33.6770   46.6100 H   0  0  0  0  0  0  0  0  0  0  0  0
   61.8494   32.5508   50.2084 H   0  0  0  0  0  0  0  0  0  0  0  0
   59.6968   32.5482   48.9479 H   0  0  0  0  0  0  0  0  0  0  0  0
  1  2  2  0
  2  3  1  0
  3  4  1  0
  4  5  2  0
  5  6  1  0
  6  7  2  0
  7  8  1  0
  8  9  2  0
  2 10  1  0
 10 11  1  0
 11 12  1  0
 12 13  2  0
 13 14  1  0
 14 15  1  0
 15 16  1  0
 16 17  2  0
 17 18  1  0
 18 19  2  0
 19 20  1  0
 19 21  1  0
 21 22  2  0
 15 23  2  0
  9  4  1  0
 23 12  1  0
 22 16  1  0
  3 24  1  0
  3 25  1  0
  5 26  1  0
  6 27  1  0
  7 28  1  0
  8 29  1  0
  9 30  1  0
 10 31  1  0
 11 32  1  0
 11 33  1  0
 13 34  1  0
 17 35  1  0
 18 36  1  0
 21 37  1  0
 22 38  1  0
M  END
>  <UniqueID>  (65) 
64

>  <SMILES>  (65) 
O=C(Cc1ccccc1)NCc1csc(-c2ccc(Cl)cc2)n1

>  <Energy>  (65) 
61.19351974070956

>  <Genealogy>  (65) 
O=C(Cc1ccccc1)NCc1csc(-c2ccc(Cl)cc2)n1 (3D coordinates assigned)
O=C(Cc1ccccc1)NCc1csc(-c2ccc(Cl)cc2)n1 (optimized conformer: 61.19351974070956 kcal/mol)

>  <smiles>  (65) 
O=C(Cc1ccccc1)NCc1csc(-c2ccc(Cl)cc2)n1

>  <score_type>  (65) 
oracle

>  <origin>  (65) 
adg

>  <m_score__min__energy>  (65) 
-8.1699999999999999

>  <m_primary>  (65) 
energy

$$$$
65:0
     RDKit          3D

 38 40  0  0  0  0  0  0  0  0999 V2000
   63.7680   32.0200   47.4820 N   0  0  0  0  0  0  0  0  0  0  0  0
   62.7980   33.4220   47.2060 S   0  0  0  0  0  0  0  0  0  0  0  0
   62.8700   34.3280   48.4040 O   0  0  0  0  0  0  0  0  0  0  0  0
   63.3230   34.1650   46.0090 O   0  0  0  0  0  0  0  0  0  0  0  0
   61.1300   32.9380   46.9260 C   0  0  0  0  0  0  0  0  0  0  0  0
   60.3050   33.6950   46.0820 C   0  0  0  0  0  0  0  0  0  0  0  0
   58.9820   33.3050   45.8590 C   0  0  0  0  0  0  0  0  0  0  0  0
   58.4770   32.1560   46.4700 C   0  0  0  0  0  0  0  0  0  0  0  0
   59.2970   31.3800   47.3050 C   0  0  0  0  0  0  0  0  0  0  0  0
   58.7380   30.1570   47.9770 C   0  0  0  0  0  0  0  0  0  0  0  0
   59.0260   28.9920   47.2070 O   0  0  0  0  0  0  0  0  0  0  0  0
   58.2690   28.5940   46.0960 C   0  0  0  0  0  0  0  0  0  0  0  0
   58.3060   29.2800   45.0380 O   0  0  0  0  0  0  0  0  0  0  0  0
   57.4280   27.3670   46.1660 C   0  0  0  0  0  0  0  0  0  0  0  0
   56.0860   27.3890   45.7260 C   0  0  0  0  0  0  0  0  0  0  0  0
   55.5230   28.5460   45.1980 O   0  0  0  0  0  0  0  0  0  0  0  0
   55.3210   26.2700   45.7970 N   0  0  0  0  0  0  0  0  0  0  0  0
   55.7950   25.0960   46.2830 C   0  0  0  0  0  0  0  0  0  0  0  0
   54.9580   23.9750   46.3300 C   0  0  0  0  0  0  0  0  0  0  0  0
   55.4380   22.7620   46.8280 C   0  0  0  0  0  0  0  0  0  0  0  0
   56.7600   22.6600   47.2820 C   0  0  0  0  0  0  0  0  0  0  0  0
   57.2480   21.4540   47.7810 O   0  0  0  0  0  0  0  0  0  0  0  0
   57.6010   23.7780   47.2370 C   0  0  0  0  0  0  0  0  0  0  0  0
   57.1280   25.0070   46.7360 C   0  0  0  0  0  0  0  0  0  0  0  0
   57.9450   26.1520   46.6790 C   0  0  0  0  0  0  0  0  0  0  0  0
   59.1350   26.0930   47.0960 O   0  0  0  0  0  0  0  0  0  0  0  0
   60.6240   31.7790   47.5310 C   0  0  0  0  0  0  0  0  0  0  0  0
   64.5330   32.0340   46.7710 H   0  0  0  0  0  0  0  0  0  0  0  0
   60.7004   34.5982   45.5942 H   0  0  0  0  0  0  0  0  0  0  0  0
   58.3368   33.9049   45.2003 H   0  0  0  0  0  0  0  0  0  0  0  0
   57.4326   31.8573   46.2967 H   0  0  0  0  0  0  0  0  0  0  0  0
   59.1897   30.0530   48.9746 H   0  0  0  0  0  0  0  0  0  0  0  0
   57.6470   30.2656   48.0658 H   0  0  0  0  0  0  0  0  0  0  0  0
   53.9199   24.0498   45.9739 H   0  0  0  0  0  0  0  0  0  0  0  0
   54.7765   21.8838   46.8641 H   0  0  0  0  0  0  0  0  0  0  0  0
   58.1510   21.0920   47.4990 H   0  0  0  0  0  0  0  0  0  0  0  0
   58.6379   23.6966   47.5951 H   0  0  0  0  0  0  0  0  0  0  0  0
   61.2709   31.1782   48.1871 H   0  0  0  0  0  0  0  0  0  0  0  0
  1  2  1  0
  2  3  2  0
  2  4  2  0
  2  5  1  0
  5  6  2  0
  6  7  1  0
  7  8  2  0
  8  9  1  0
  9 10  1  0
 10 11  1  0
 11 12  1  0
 12 13  2  0
 12 14  1  0
 14 15  2  0
 15 16  1  0
 15 17  1  0
 17 18  1  0
 18 19  2  0
 19 20  1  0
 20 21  2  0
 21 22  1  0
 21 23  1  0
 23 24  2  0
 24 25  1  0
 25 26  2  0
  9 27  2  0
 27  5  1  0
 25 14  1  0
 24 18  1  0
  1 28  1  0
  6 29  1  0
  7 30  1  0
  8 31  1  0
 10 32  1  0
 10 33  1  0
 19 34  1  0
 20 35  1  0
 22 36  1  0
 23 37  1  0
 27 38  1  0
M  CHG  3   1  -1  16  -1  17  -1
M  END
>  <UniqueID>  (66) 
65

>  <SMILES>  (66) 
[NH-]S(=O)(=O)c1cccc(COC(=O)c2c([O-])[n-]c3ccc(O)cc3c2=O)c1

>  <Energy>  (66) 
47.40863540426

>  <Genealogy>  (66) 
[NH-]S(=O)(=O)c1cccc(COC(=O)c2c([O-])[n-]c3ccc(O)cc3c2=O)c1 (protonated)
[NH-]S(=O)(=O)c1cccc(COC(=O)c2c([O-])[n-]c3ccc(O)cc3c2=O)c1 (3D coordinates assigned)
[NH-]S(=O)(=O)c1cccc(COC(=O)c2c([O-])[n-]c3ccc(O)cc3c2=O)c1 (optimized conformer: 47.40863540426 kcal/mol)

>  <smiles>  (66) 
NS(=O)(=O)c1cccc(COC(=O)c2c(O)[nH]c3ccc(O)cc3c2=O)c1

>  <score_type>  (66) 
oracle

>  <origin>  (66) 
adg

>  <m_score__min__energy>  (66) 
-14.9

>  <m_primary>  (66) 
energy

$$$$
66:0
     RDKit          3D

 39 41  0  0  1  0  0  0  0  0999 V2000
   56.9710   31.1770   42.6900 C   0  0  0  0  0  0  0  0  0  0  0  0
   57.4250   30.4850   43.9280 C   0  0  0  0  0  0  0  0  0  0  0  0
   58.7290   30.1510   44.2680 C   0  0  0  0  0  0  0  0  0  0  0  0
   58.6320   29.5320   45.4970 C   0  0  0  0  0  0  0  0  0  0  0  0
   59.5800   29.0360   46.2340 N   0  0  0  0  0  0  0  0  0  0  0  0
   59.4500   28.9490   47.6480 C   0  0  0  0  0  0  0  0  0  0  0  0
   58.4040   28.5760   48.1990 O   0  0  0  0  0  0  0  0  0  0  0  0
   60.6280   29.3240   48.4800 C   0  0  0  0  0  0  0  0  0  0  0  0
   60.6000   31.0850   48.9000 S   0  0  0  0  0  0  0  0  0  0  0  0
   61.8440   31.9230   47.9710 C   0  0  0  0  0  0  0  0  0  0  0  0
   62.9950   31.3720   47.4990 N   0  0  0  0  0  0  0  0  0  0  0  0
   63.6840   32.2960   46.8500 N   0  0  0  0  0  0  0  0  0  0  0  0
   62.9740   33.4320   46.9100 C   0  0  0  0  0  0  0  0  0  0  0  0
   63.3520   34.5280   46.3840 O   0  0  0  0  0  0  0  0  0  0  0  0
   61.8230   33.2140   47.6070 N   0  0  0  0  0  0  0  0  0  0  0  0
   60.8200   34.2310   47.8600 C   0  0  0  0  0  0  0  0  0  0  0  0
   59.6460   34.0450   46.9500 C   0  0  0  0  0  0  0  0  0  0  0  0
   59.6170   34.5900   45.6840 C   0  0  0  0  0  0  0  0  0  0  0  0
   58.5400   34.4240   44.8370 C   0  0  0  0  0  0  0  0  0  0  0  0
   57.4790   33.6840   45.3140 C   0  0  0  0  0  0  0  0  0  0  0  0
   57.4590   33.1250   46.5570 C   0  0  0  0  0  0  0  0  0  0  0  0
   58.5480   33.3020   47.3920 C   0  0  0  0  0  0  0  0  0  0  0  0
   57.3270   29.5160   45.8400 N   0  0  0  0  0  0  0  0  0  0  0  0
   56.6400   30.0850   44.8960 O   0  0  0  0  0  0  0  0  0  0  0  0
   56.3863   32.0683   42.9616 H   0  0  0  0  0  0  0  0  0  0  0  0
   57.8466   31.4796   42.0970 H   0  0  0  0  0  0  0  0  0  0  0  0
   56.3447   30.4943   42.0970 H   0  0  0  0  0  0  0  0  0  0  0  0
   59.6419   30.3392   43.6838 H   0  0  0  0  0  0  0  0  0  0  0  0
   60.6142   28.7336   49.4081 H   0  0  0  0  0  0  0  0  0  0  0  0
   61.5415   29.1184   47.9027 H   0  0  0  0  0  0  0  0  0  0  0  0
   64.6070   32.1940   46.3730 H   0  0  0  0  0  0  0  0  0  0  0  0
   60.4840   34.1565   48.9048 H   0  0  0  0  0  0  0  0  0  0  0  0
   61.2616   35.2212   47.6743 H   0  0  0  0  0  0  0  0  0  0  0  0
   60.4807   35.1765   45.3375 H   0  0  0  0  0  0  0  0  0  0  0  0
   58.5287   34.8619   43.8280 H   0  0  0  0  0  0  0  0  0  0  0  0
   56.6067   33.5377   44.6600 H   0  0  0  0  0  0  0  0  0  0  0  0
   56.5889   32.5411   46.8917 H   0  0  0  0  0  0  0  0  0  0  0  0
   58.5495   32.8599   48.3992 H   0  0  0  0  0  0  0  0  0  0  0  0
   56.9630   29.1060   46.7250 H   0  0  0  0  0  0  0  0  0  0  0  0
  1  2  1  0
  2  3  2  0
  3  4  1  0
  4  5  2  0
  5  6  1  0
  6  7  2  0
  6  8  1  0
  8  9  1  0
  9 10  1  0
 10 11  2  0
 11 12  1  0
 12 13  1  0
 13 14  2  0
 13 15  1  0
 15 16  1  0
 16 17  1  0
 17 18  2  0
 18 19  1  0
 19 20  2  0
 20 21  1  0
 21 22  2  0
  4 23  1  0
 23 24  1  0
 24  2  1  0
 15 10  1  0
 22 17  1  0
  1 25  1  0
  1 26  1  0
  1 27  1  0
  3 28  1  0
  8 29  1  0
  8 30  1  0
 12 31  1  0
 16 32  1  0
 16 33  1  0
 18 34  1  0
 19 35  1  0
 20 36  1  0
 21 37  1  0
 22 38  1  0
 23 39  1  0
M  END
>  <smiles>  (67) 
Cc1cc(=NC(=O)CSc2n[nH]c(=O)n2Cc2ccccc2)[nH]o1

>  <score_type>  (67) 
oracle

>  <origin>  (67) 
adg

>  <m_score__min__energy>  (67) 
-8.3599999999999994

>  <m_primary>  (67) 
energy

$$$$
67:0
     RDKit          3D

 49 52  0  0  0  0  0  0  0  0999 V2000
   64.6880   33.0400   49.0620 C   0  0  0  0  0  0  0  0  0  0  0  0
   63.4180   32.8750   48.2970 C   0  0  0  0  0  0  0  0  0  0  0  0
   62.7710   33.8550   47.5840 C   0  0  0  0  0  0  0  0  0  0  0  0
   61.6210   33.2370   47.1200 C   0  0  0  0  0  0  0  0  0  0  0  0
   60.7330   33.8650   46.3110 N   0  0  0  0  0  0  0  0  0  0  0  0
   59.5420   33.4540   45.7860 C   0  0  0  0  0  0  0  0  0  0  0  0
   58.8240   34.4750   44.9190 C   0  0  0  0  0  0  0  0  0  0  0  0
   58.9070   32.2080   46.0540 C   0  0  0  0  0  0  0  0  0  0  0  0
   57.4740   31.9860   45.5650 C   0  0  0  0  0  0  0  0  0  0  0  0
   57.4410   30.9940   44.5400 O   0  0  0  0  0  0  0  0  0  0  0  0
   57.6500   29.6240   44.7560 C   0  0  0  0  0  0  0  0  0  0  0  0
   58.8820   28.9970   44.4990 C   0  0  0  0  0  0  0  0  0  0  0  0
   59.0370   27.6290   44.7440 C   0  0  0  0  0  0  0  0  0  0  0  0
   57.9780   26.8850   45.2710 C   0  0  0  0  0  0  0  0  0  0  0  0
   56.7580   27.5050   45.5610 C   0  0  0  0  0  0  0  0  0  0  0  0
   55.7090   26.7410   46.1680 N   0  0  0  0  0  0  0  0  0  0  0  0
   55.1680   25.5210   45.6400 C   0  0  0  0  0  0  0  0  0  0  0  0
   53.9180   25.3700   45.6190 O   0  0  0  0  0  0  0  0  0  0  0  0
   56.0310   24.4500   45.0970 C   0  0  0  0  0  0  0  0  0  0  0  0
   55.7970   23.8960   43.8260 C   0  0  0  0  0  0  0  0  0  0  0  0
   56.6440   22.8960   43.3470 C   0  0  0  0  0  0  0  0  0  0  0  0
   57.7070   22.4500   44.1320 C   0  0  0  0  0  0  0  0  0  0  0  0
   57.9010   23.0070   45.3970 C   0  0  0  0  0  0  0  0  0  0  0  0
   57.0650   23.9810   45.8490 N   0  0  0  0  0  0  0  0  0  0  0  0
   56.5860   28.8670   45.2570 C   0  0  0  0  0  0  0  0  0  0  0  0
   59.4700   31.1100   46.7210 C   0  0  0  0  0  0  0  0  0  0  0  0
   60.6880   30.9710   47.3760 C   0  0  0  0  0  0  0  0  0  0  0  0
   60.9390   29.8350   47.8670 O   0  0  0  0  0  0  0  0  0  0  0  0
   61.5970   31.9580   47.5550 N   0  0  0  0  0  0  0  0  0  0  0  0
   62.6920   31.7450   48.2770 N   0  0  0  0  0  0  0  0  0  0  0  0
   64.4728   33.0120   50.1404 H   0  0  0  0  0  0  0  0  0  0  0  0
   65.3796   32.2242   48.8049 H   0  0  0  0  0  0  0  0  0  0  0  0
   65.1482   34.0055   48.8049 H   0  0  0  0  0  0  0  0  0  0  0  0
   63.0927   34.8939   47.4190 H   0  0  0  0  0  0  0  0  0  0  0  0
   61.0200   34.8420   46.0690 H   0  0  0  0  0  0  0  0  0  0  0  0
   58.3104   35.2053   45.5616 H   0  0  0  0  0  0  0  0  0  0  0  0
   59.5556   34.9960   44.2839 H   0  0  0  0  0  0  0  0  0  0  0  0
   58.0863   33.9627   44.2839 H   0  0  0  0  0  0  0  0  0  0  0  0
   56.8513   31.6545   46.4090 H   0  0  0  0  0  0  0  0  0  0  0  0
   57.0885   32.9315   45.1559 H   0  0  0  0  0  0  0  0  0  0  0  0
   59.7250   29.5834   44.1047 H   0  0  0  0  0  0  0  0  0  0  0  0
   59.9953   27.1371   44.5212 H   0  0  0  0  0  0  0  0  0  0  0  0
   58.1041   25.8084   45.4584 H   0  0  0  0  0  0  0  0  0  0  0  0
   54.9532   24.2480   43.2144 H   0  0  0  0  0  0  0  0  0  0  0  0
   56.4736   22.4600   42.3516 H   0  0  0  0  0  0  0  0  0  0  0  0
   58.3847   21.6682   43.7585 H   0  0  0  0  0  0  0  0  0  0  0  0
   58.7307   22.6582   46.0294 H   0  0  0  0  0  0  0  0  0  0  0  0
   55.6061   29.3413   45.4146 H   0  0  0  0  0  0  0  0  0  0  0  0
   58.8419   30.2070   46.7267 H   0  0  0  0  0  0  0  0  0  0  0  0
  1  2  1  0
  2  3  1  0
  3  4  2  0
  4  5  1  0
  5  6  2  0
  6  7  1  0
  6  8  1  0
  8  9  1  0
  9 10  1  0
 10 11  1  0
 11 12  2  0
 12 13  1  0
 13 14  2  0
 14 15  1  0
 15 16  1  0
 16 17  1  0
 17 18  2  0
 17 19  1  0
 19 20  2  0
 20 21  1  0
 21 22  2  0
 22 23  1  0
 23 24  2  0
 15 25  2  0
  8 26  2  0
 26 27  1  0
 27 28  2  0
 27 29  1  0
 29 30  1  0
 30  2  2  0
 29  4  1  0
 25 11  1  0
 24 19  1  0
  1 31  1  0
  1 32  1  0
  1 33  1  0
  3 34  1  0
  5 35  1  0
  7 36  1  0
  7 37  1  0
  7 38  1  0
  9 39  1  0
  9 40  1  0
 12 41  1  0
 13 42  1  0
 14 43  1  0
 20 44  1  0
 21 45  1  0
 22 46  1  0
 23 47  1  0
 25 48  1  0
 26 49  1  0
M  CHG  2   5   1  16  -1
M  END
>  <UniqueID>  (68) 
66

>  <SMILES>  (68) 
Cc1cc2[nH+]c(C)c(COc3cccc([N-]C(=O)c4ccccn4)c3)cc(=O)n2n1

>  <Energy>  (68) 
114.51877641116249

>  <Genealogy>  (68) 
Cc1cc2[nH+]c(C)c(COc3cccc([N-]C(=O)c4ccccn4)c3)cc(=O)n2n1 (protonated)
Cc1cc2[nH+]c(C)c(COc3cccc([N-]C(=O)c4ccccn4)c3)cc(=O)n2n1 (3D coordinates assigned)
Cc1cc2[nH+]c(C)c(COc3cccc([N-]C(=O)c4ccccn4)c3)cc(=O)n2n1 (optimized conformer: 114.51877641116249 kcal/mol)

>  <smiles>  (68) 
Cc1cc2nc(C)c(COc3cccc(NC(=O)c4ccccn4)c3)cc(=O)n2n1

>  <score_type>  (68) 
oracle

>  <origin>  (68) 
adg

>  <m_score__min__energy>  (68) 
-10.15

>  <m_primary>  (68) 
energy

$$$$
68:0
     RDKit          3D

 47 50  0  0  0  0  0  0  0  0999 V2000
   53.0990   23.2990   46.2440 C   0  0  0  0  0  0  0  0  0  0  0  0
   53.8510   23.7720   45.1320 O   0  0  0  0  0  0  0  0  0  0  0  0
   55.1830   24.2100   45.2020 C   0  0  0  0  0  0  0  0  0  0  0  0
   56.2640   23.3800   44.8480 C   0  0  0  0  0  0  0  0  0  0  0  0
   57.5730   23.8570   44.9300 C   0  0  0  0  0  0  0  0  0  0  0  0
   57.8200   25.1560   45.3750 C   0  0  0  0  0  0  0  0  0  0  0  0
   56.7570   25.9910   45.7570 C   0  0  0  0  0  0  0  0  0  0  0  0
   57.0460   27.3670   46.3110 C   0  0  0  0  0  0  0  0  0  0  0  0
   57.6150   28.2490   45.2900 N   0  0  0  0  0  0  0  0  0  0  0  0
   57.6380   29.6810   45.3440 C   0  0  0  0  0  0  0  0  0  0  0  0
   56.6660   30.3290   44.8740 O   0  0  0  0  0  0  0  0  0  0  0  0
   58.7400   30.4100   45.9930 C   0  0  0  0  0  0  0  0  0  0  0  0
   58.5430   31.7390   46.3770 C   0  0  0  0  0  0  0  0  0  0  0  0
   59.5250   32.4280   47.1110 C   0  0  0  0  0  0  0  0  0  0  0  0
   59.2980   33.7470   47.5430 C   0  0  0  0  0  0  0  0  0  0  0  0
   58.2200   34.3410   47.2730 O   0  0  0  0  0  0  0  0  0  0  0  0
   60.2420   34.3970   48.2630 N   0  0  0  0  0  0  0  0  0  0  0  0
   61.4240   33.8280   48.6000 C   0  0  0  0  0  0  0  0  0  0  0  0
   62.3390   34.5690   49.3530 C   0  0  0  0  0  0  0  0  0  0  0  0
   63.5620   34.0140   49.7210 C   0  0  0  0  0  0  0  0  0  0  0  0
   63.8920   32.7130   49.3300 C   0  0  0  0  0  0  0  0  0  0  0  0
   65.1950   32.1050   49.7640 C   0  0  0  0  0  0  0  0  0  0  0  0
   62.9720   31.9530   48.5900 C   0  0  0  0  0  0  0  0  0  0  0  0
   61.7220   32.4990   48.2020 C   0  0  0  0  0  0  0  0  0  0  0  0
   60.7500   31.7840   47.4420 C   0  0  0  0  0  0  0  0  0  0  0  0
   60.9420   30.4510   47.0050 C   0  0  0  0  0  0  0  0  0  0  0  0
   59.9460   29.7690   46.2960 C   0  0  0  0  0  0  0  0  0  0  0  0
   60.1510   28.4490   45.8920 O   0  0  0  0  0  0  0  0  0  0  0  0
   55.4350   25.5170   45.6470 C   0  0  0  0  0  0  0  0  0  0  0  0
   54.3660   26.3380   45.9910 O   0  0  0  0  0  0  0  0  0  0  0  0
   53.5911   23.6086   47.1778 H   0  0  0  0  0  0  0  0  0  0  0  0
   52.0841   23.7217   46.2068 H   0  0  0  0  0  0  0  0  0  0  0  0
   53.0405   22.2012   46.2068 H   0  0  0  0  0  0  0  0  0  0  0  0
   56.0760   22.3517   44.5055 H   0  0  0  0  0  0  0  0  0  0  0  0
   58.4125   23.2068   44.6429 H   0  0  0  0  0  0  0  0  0  0  0  0
   58.8536   25.5286   45.4270 H   0  0  0  0  0  0  0  0  0  0  0  0
   56.1084   27.8073   46.6811 H   0  0  0  0  0  0  0  0  0  0  0  0
   57.7789   27.2640   47.1248 H   0  0  0  0  0  0  0  0  0  0  0  0
   57.6095   32.2520   46.1022 H   0  0  0  0  0  0  0  0  0  0  0  0
   62.0916   35.5969   49.6568 H   0  0  0  0  0  0  0  0  0  0  0  0
   64.2715   34.6018   50.3219 H   0  0  0  0  0  0  0  0  0  0  0  0
   65.2415   32.0833   50.8628 H   0  0  0  0  0  0  0  0  0  0  0  0
   65.2691   31.0793   49.3735 H   0  0  0  0  0  0  0  0  0  0  0  0
   66.0287   32.7071   49.3735 H   0  0  0  0  0  0  0  0  0  0  0  0
   63.2242   30.9203   48.3075 H   0  0  0  0  0  0  0  0  0  0  0  0
   61.8915   29.9418   47.2267 H   0  0  0  0  0  0  0  0  0  0  0  0
   59.4030   27.8900   45.4970 H   0  0  0  0  0  0  0  0  0  0  0  0
  1  2  1  0
  2  3  1  0
  3  4  2  0
  4  5  1  0
  5  6  2  0
  6  7  1  0
  7  8  1  0
  8  9  1  0
  9 10  1  0
 10 11  2  0
 10 12  1  0
 12 13  2  0
 13 14  1  0
 14 15  1  0
 15 16  2  0
 15 17  1  0
 17 18  1  0
 18 19  2  0
 19 20  1  0
 20 21  2  0
 21 22  1  0
 21 23  1  0
 23 24  2  0
 24 25  1  0
 25 26  1  0
 26 27  2  0
 27 28  1  0
  7 29  2  0
 29 30  1  0
 29  3  1  0
 27 12  1  0
 25 14  2  0
 24 18  1  0
  1 31  1  0
  1 32  1  0
  1 33  1  0
  4 34  1  0
  5 35  1  0
  6 36  1  0
  8 37  1  0
  8 38  1  0
 13 39  1  0
 19 40  1  0
 20 41  1  0
 22 42  1  0
 22 43  1  0
 22 44  1  0
 23 45  1  0
 26 46  1  0
 28 47  1  0
M  CHG  3   9  -1  17  -1  30  -1
M  END
>  <UniqueID>  (69) 
67

>  <SMILES>  (69) 
COc1cccc(C[N-]C(=O)c2cc3c(=O)[n-]c4ccc(C)cc4c3cc2O)c1[O-]

>  <Energy>  (69) 
65.24209484022747

>  <Genealogy>  (69) 
COc1cccc(C[N-]C(=O)c2cc3c(=O)[n-]c4ccc(C)cc4c3cc2O)c1[O-] (protonated)
COc1cccc(C[N-]C(=O)c2cc3c(=O)[n-]c4ccc(C)cc4c3cc2O)c1[O-] (3D coordinates assigned)
COc1cccc(C[N-]C(=O)c2cc3c(=O)[n-]c4ccc(C)cc4c3cc2O)c1[O-] (optimized conformer: 65.24209484022747 kcal/mol)

>  <smiles>  (69) 
COc1cccc(CNC(=O)c2cc3c(=O)[nH]c4ccc(C)cc4c3cc2O)c1O

>  <score_type>  (69) 
oracle

>  <origin>  (69) 
adg

>  <m_score__min__energy>  (69) 
-14.31

>  <m_primary>  (69) 
energy

$$$$
69:0
     RDKit          3D

 23 23  0  0  0  0  0  0  0  0999 V2000
   57.4510   32.3420   40.8000 C   0  0  0  0  0  0  0  0  0  0  0  0
   57.8000   31.9470   42.2350 C   0  0  0  0  0  0  0  0  0  0  0  0
   56.9870   30.7430   42.7350 C   0  0  0  0  0  0  0  0  0  0  0  0
   56.8260   30.7330   44.2610 C   0  0  0  0  0  0  0  0  0  0  0  0
   56.9980   29.3420   44.7970 C   0  0  0  0  0  0  0  0  0  0  0  0
   58.2690   28.7550   44.8730 C   0  0  0  0  0  0  0  0  0  0  0  0
   58.3930   27.4450   45.3460 C   0  0  0  0  0  0  0  0  0  0  0  0
   59.5270   26.9050   45.4260 O   0  0  0  0  0  0  0  0  0  0  0  0
   57.2510   26.7340   45.7290 C   0  0  0  0  0  0  0  0  0  0  0  0
   55.9990   27.3470   45.6270 C   0  0  0  0  0  0  0  0  0  0  0  0
   54.8530   26.6560   45.9960 O   0  0  0  0  0  0  0  0  0  0  0  0
   55.9010   28.6220   45.1650 N   0  0  0  0  0  0  0  0  0  0  0  0
   56.7227   33.1663   40.8134 H   0  0  0  0  0  0  0  0  0  0  0  0
   58.3626   32.6667   40.2770 H   0  0  0  0  0  0  0  0  0  0  0  0
   57.0165   31.4773   40.2770 H   0  0  0  0  0  0  0  0  0  0  0  0
   58.8691   31.6921   42.2793 H   0  0  0  0  0  0  0  0  0  0  0  0
   57.5576   32.8025   42.8825 H   0  0  0  0  0  0  0  0  0  0  0  0
   55.9882   30.7770   42.2755 H   0  0  0  0  0  0  0  0  0  0  0  0
   57.5330   29.8312   42.4514 H   0  0  0  0  0  0  0  0  0  0  0  0
   57.5851   31.3906   44.7097 H   0  0  0  0  0  0  0  0  0  0  0  0
   55.8174   31.0908   44.5153 H   0  0  0  0  0  0  0  0  0  0  0  0
   59.1606   29.3199   44.5633 H   0  0  0  0  0  0  0  0  0  0  0  0
   57.3372   25.7043   46.1061 H   0  0  0  0  0  0  0  0  0  0  0  0
  1  2  1  0
  2  3  1  0
  3  4  1  0
  4  5  1  0
  5  6  2  0
  6  7  1  0
  7  8  2  0
  7  9  1  0
  9 10  2  0
 10 11  1  0
 10 12  1  0
 12  5  1  0
  1 13  1  0
  1 14  1  0
  1 15  1  0
  2 16  1  0
  2 17  1  0
  3 18  1  0
  3 19  1  0
  4 20  1  0
  4 21  1  0
  6 22  1  0
  9 23  1  0
M  CHG  2  11  -1  12  -1
M  END
>  <UniqueID>  (70) 
68

>  <SMILES>  (70) 
CCCCc1cc(=O)cc([O-])[n-]1

>  <Energy>  (70) 
15.256274261627704

>  <Genealogy>  (70) 
CCCCc1cc(=O)cc([O-])[n-]1 (protonated)
CCCCc1cc(=O)cc([O-])[n-]1 (3D coordinates assigned)
CCCCc1cc(=O)cc([O-])[n-]1 (optimized conformer: 15.256274261627704 kcal/mol)

>  <smiles>  (70) 
CCCCc1cc(=O)cc(O)[nH]1

>  <score_type>  (70) 
oracle

>  <origin>  (70) 
adg

>  <m_score__min__energy>  (70) 
-11.119999999999999

>  <m_primary>  (70) 
energy

$$$$
70:0
     RDKit          3D

 36 38  0  0  0  0  0  0  0  0999 V2000
   55.3580   29.3550   44.8720 N   0  0  0  0  0  0  0  0  0  0  0  0
   57.0780   29.5320   44.8500 S   0  0  0  0  0  0  0  0  0  0  0  0
   57.5490   29.7260   43.4370 O   0  0  0  0  0  0  0  0  0  0  0  0
   57.4390   30.7450   45.6590 O   0  0  0  0  0  0  0  0  0  0  0  0
   57.8640   28.1170   45.5500 C   0  0  0  0  0  0  0  0  0  0  0  0
   57.6280   26.8300   45.0450 C   0  0  0  0  0  0  0  0  0  0  0  0
   58.3910   25.8480   45.6620 C   0  0  0  0  0  0  0  0  0  0  0  0
   58.2820   24.3760   45.4110 C   0  0  0  0  0  0  0  0  0  0  0  0
   57.3500   23.5530   46.7500 S   0  0  0  0  0  0  0  0  0  0  0  0
   55.7470   23.7540   45.9760 C   0  0  0  0  0  0  0  0  0  0  0  0
   55.0030   24.8700   46.0890 N   0  0  0  0  0  0  0  0  0  0  0  0
   53.9270   24.5590   45.3410 C   0  0  0  0  0  0  0  0  0  0  0  0
   54.0140   23.3250   44.8100 N   0  0  0  0  0  0  0  0  0  0  0  0
   55.1640   22.8150   45.2120 N   0  0  0  0  0  0  0  0  0  0  0  0
   59.3550   26.5630   46.8360 S   0  0  0  0  0  0  0  0  0  0  0  0
   58.8080   28.1350   46.5840 C   0  0  0  0  0  0  0  0  0  0  0  0
   59.2580   29.2850   47.3870 C   0  0  0  0  0  0  0  0  0  0  0  0
   58.4440   29.8320   48.1750 O   0  0  0  0  0  0  0  0  0  0  0  0
   60.5930   29.7990   47.3040 N   0  0  0  0  0  0  0  0  0  0  0  0
   60.9700   31.1700   47.1040 C   0  0  0  0  0  0  0  0  0  0  0  0
   60.0280   32.1580   46.7620 C   0  0  0  0  0  0  0  0  0  0  0  0
   60.4340   33.4820   46.5800 C   0  0  0  0  0  0  0  0  0  0  0  0
   61.7740   33.8350   46.7510 C   0  0  0  0  0  0  0  0  0  0  0  0
   62.7140   32.8630   47.1210 C   0  0  0  0  0  0  0  0  0  0  0  0
   64.0520   33.2030   47.3070 O   0  0  0  0  0  0  0  0  0  0  0  0
   62.3070   31.5370   47.3050 C   0  0  0  0  0  0  0  0  0  0  0  0
   55.1330   28.6580   45.6170 H   0  0  0  0  0  0  0  0  0  0  0  0
   56.9092   26.6195   44.2394 H   0  0  0  0  0  0  0  0  0  0  0  0
   57.7616   24.2111   44.4560 H   0  0  0  0  0  0  0  0  0  0  0  0
   59.2954   23.9498   45.3751 H   0  0  0  0  0  0  0  0  0  0  0  0
   53.0746   25.2359   45.1821 H   0  0  0  0  0  0  0  0  0  0  0  0
   58.9692   31.8869   46.6377 H   0  0  0  0  0  0  0  0  0  0  0  0
   59.6961   34.2486   46.3012 H   0  0  0  0  0  0  0  0  0  0  0  0
   62.0923   34.8764   46.5953 H   0  0  0  0  0  0  0  0  0  0  0  0
   64.7970   32.5470   47.1060 H   0  0  0  0  0  0  0  0  0  0  0  0
   63.0420   30.7774   47.6096 H   0  0  0  0  0  0  0  0  0  0  0  0
  1  2  1  0
  2  3  2  0
  2  4  2  0
  2  5  1  0
  5  6  1  0
  6  7  2  0
  7  8  1  0
  8  9  1  0
  9 10  1  0
 10 11  1  0
 11 12  2  0
 12 13  1  0
 13 14  1  0
  7 15  1  0
 15 16  1  0
 16 17  1  0
 17 18  2  0
 17 19  1  0
 19 20  1  0
 20 21  2  0
 21 22  1  0
 22 23  2  0
 23 24  1  0
 24 25  1  0
 24 26  2  0
 16  5  2  0
 26 20  1  0
 14 10  2  0
  1 27  1  0
  6 28  1  0
  8 29  1  0
  8 30  1  0
 12 31  1  0
 21 32  1  0
 22 33  1  0
 23 34  1  0
 25 35  1  0
 26 36  1  0
M  CHG  3   1  -1  13  -1  19  -1
M  END
>  <UniqueID>  (71) 
69

>  <SMILES>  (71) 
[NH-]S(=O)(=O)c1cc(CSc2nc[n-]n2)sc1C(=O)[N-]c1cccc(O)c1

>  <Energy>  (71) 
96.53430232642387

>  <Genealogy>  (71) 
[NH-]S(=O)(=O)c1cc(CSc2nc[n-]n2)sc1C(=O)[N-]c1cccc(O)c1 (protonated)
[NH-]S(=O)(=O)c1cc(CSc2nc[n-]n2)sc1C(=O)[N-]c1cccc(O)c1 (3D coordinates assigned)
[NH-]S(=O)(=O)c1cc(CSc2nc[n-]n2)sc1C(=O)[N-]c1cccc(O)c1 (optimized conformer: 96.53430232642387 kcal/mol)

>  <smiles>  (71) 
NS(=O)(=O)c1cc(CSc2nc[nH]n2)sc1C(=O)Nc1cccc(O)c1

>  <score_type>  (71) 
oracle

>  <origin>  (71) 
adg

>  <m_score__min__energy>  (71) 
-13.69

>  <m_primary>  (71) 
energy

$$$$
71:0
     RDKit          3D

 58 61  0  0  0  0  0  0  0  0999 V2000
   57.0550   34.1330   45.3570 C   0  0  0  0  0  0  0  0  0  0  0  0
   58.3680   33.4870   46.3710 S   0  0  0  0  0  0  0  0  0  0  0  0
   59.3850   34.5660   46.6150 O   0  0  0  0  0  0  0  0  0  0  0  0
   57.7980   33.0390   47.6870 O   0  0  0  0  0  0  0  0  0  0  0  0
   59.1450   32.0950   45.5670 C   0  0  0  0  0  0  0  0  0  0  0  0
   58.1290   31.2930   44.8020 C   0  0  0  0  0  0  0  0  0  0  0  0
   57.8160   31.6250   43.4750 C   0  0  0  0  0  0  0  0  0  0  0  0
   56.8850   30.8660   42.7610 C   0  0  0  0  0  0  0  0  0  0  0  0
   56.2790   29.7580   43.3580 C   0  0  0  0  0  0  0  0  0  0  0  0
   56.6130   29.3850   44.6650 C   0  0  0  0  0  0  0  0  0  0  0  0
   55.9590   28.2440   45.2460 N   0  0  0  0  0  0  0  0  0  0  0  0
   56.5240   27.2690   45.8970 C   0  0  0  0  0  0  0  0  0  0  0  0
   57.7850   27.4350   46.3750 N   0  0  0  0  0  0  0  0  0  0  0  0
   58.4130   26.4520   47.0760 C   0  0  0  0  0  0  0  0  0  0  0  0
   59.7070   26.6340   47.5820 O   0  0  0  0  0  0  0  0  0  0  0  0
   60.0720   27.5850   48.5460 C   0  0  0  0  0  0  0  0  0  0  0  0
   60.7570   27.2330   49.7240 C   0  0  0  0  0  0  0  0  0  0  0  0
   61.0760   28.2090   50.6690 C   0  0  0  0  0  0  0  0  0  0  0  0
   60.7150   29.5410   50.4530 C   0  0  0  0  0  0  0  0  0  0  0  0
   60.0380   29.9110   49.2820 C   0  0  0  0  0  0  0  0  0  0  0  0
   59.6490   31.2830   49.0960 N   0  0  0  0  0  0  0  0  0  0  0  0
   59.5070   32.2280   50.1730 C   0  0  0  0  0  0  0  0  0  0  0  0
   59.4790   31.8280   51.3670 O   0  0  0  0  0  0  0  0  0  0  0  0
   59.3660   33.6300   49.9160 N   0  0  0  0  0  0  0  0  0  0  0  0
   60.4200   34.5040   49.4130 C   0  0  0  0  0  0  0  0  0  0  0  0
   61.5020   33.6970   48.7560 C   0  0  0  0  0  0  0  0  0  0  0  0
   62.8440   33.8390   49.1430 C   0  0  0  0  0  0  0  0  0  0  0  0
   63.8260   33.0840   48.5000 C   0  0  0  0  0  0  0  0  0  0  0  0
   63.4680   32.2070   47.4750 C   0  0  0  0  0  0  0  0  0  0  0  0
   62.1260   32.1000   47.1050 C   0  0  0  0  0  0  0  0  0  0  0  0
   61.1820   32.8410   47.7450 N   0  0  0  0  0  0  0  0  0  0  0  0
   59.6970   28.9190   48.3450 C   0  0  0  0  0  0  0  0  0  0  0  0
   57.7430   25.2560   47.3320 C   0  0  0  0  0  0  0  0  0  0  0  0
   56.4460   25.1000   46.8470 C   0  0  0  0  0  0  0  0  0  0  0  0
   55.8610   26.1050   46.1460 N   0  0  0  0  0  0  0  0  0  0  0  0
   57.5190   30.1760   45.3960 C   0  0  0  0  0  0  0  0  0  0  0  0
   56.2546   34.5268   46.0006 H   0  0  0  0  0  0  0  0  0  0  0  0
   57.4461   34.9416   44.7219 H   0  0  0  0  0  0  0  0  0  0  0  0
   56.6531   33.3298   44.7219 H   0  0  0  0  0  0  0  0  0  0  0  0
   59.9143   32.4620   44.8717 H   0  0  0  0  0  0  0  0  0  0  0  0
   59.6017   31.4515   46.3334 H   0  0  0  0  0  0  0  0  0  0  0  0
   58.3051   32.4856   42.9952 H   0  0  0  0  0  0  0  0  0  0  0  0
   56.6289   31.1414   41.7273 H   0  0  0  0  0  0  0  0  0  0  0  0
   55.5341   29.1746   42.7970 H   0  0  0  0  0  0  0  0  0  0  0  0
   61.0418   26.1853   49.9003 H   0  0  0  0  0  0  0  0  0  0  0  0
   61.6134   27.9285   51.5869 H   0  0  0  0  0  0  0  0  0  0  0  0
   60.9631   30.3039   51.2056 H   0  0  0  0  0  0  0  0  0  0  0  0
   59.3660   31.5740   48.1350 H   0  0  0  0  0  0  0  0  0  0  0  0
   59.9919   35.2019   48.6783 H   0  0  0  0  0  0  0  0  0  0  0  0
   60.8536   35.0611   50.2566 H   0  0  0  0  0  0  0  0  0  0  0  0
   63.1190   34.5390   49.9457 H   0  0  0  0  0  0  0  0  0  0  0  0
   64.8798   33.1799   48.8004 H   0  0  0  0  0  0  0  0  0  0  0  0
   64.2350   31.6065   46.9641 H   0  0  0  0  0  0  0  0  0  0  0  0
   61.8320   31.4159   46.2953 H   0  0  0  0  0  0  0  0  0  0  0  0
   59.1292   29.1943   47.4440 H   0  0  0  0  0  0  0  0  0  0  0  0
   58.2284   24.4523   47.9050 H   0  0  0  0  0  0  0  0  0  0  0  0
   55.8973   24.1647   47.0316 H   0  0  0  0  0  0  0  0  0  0  0  0
   57.7510   29.9176   46.4398 H   0  0  0  0  0  0  0  0  0  0  0  0
  1  2  1  0
  2  3  2  0
  2  4  2  0
  2  5  1  0
  5  6  1  0
  6  7  2  0
  7  8  1  0
  8  9  2  0
  9 10  1  0
 10 11  1  0
 11 12  2  3
 12 13  1  0
 13 14  2  0
 14 15  1  0
 15 16  1  0
 16 17  2  0
 17 18  1  0
 18 19  2  0
 19 20  1  0
 20 21  1  0
 21 22  1  0
 22 23  2  0
 22 24  1  0
 24 25  1  0
 25 26  1  0
 26 27  2  0
 27 28  1  0
 28 29  2  0
 29 30  1  0
 30 31  2  0
 20 32  2  0
 14 33  1  0
 33 34  2  0
 34 35  1  0
 10 36  2  0
 36  6  1  0
 35 12  1  0
 32 16  1  0
 31 26  1  0
  1 37  1  0
  1 38  1  0
  1 39  1  0
  5 40  1  0
  5 41  1  0
  7 42  1  0
  8 43  1  0
  9 44  1  0
 17 45  1  0
 18 46  1  0
 19 47  1  0
 21 48  1  0
 25 49  1  0
 25 50  1  0
 27 51  1  0
 28 52  1  0
 29 53  1  0
 30 54  1  0
 32 55  1  0
 33 56  1  0
 34 57  1  0
 36 58  1  0
M  CHG  2  24  -1  35  -1
M  END
>  <UniqueID>  (72) 
70

>  <SMILES>  (72) 
CS(=O)(=O)Cc1cccc(N=c2nc(Oc3cccc(NC(=O)[N-]Cc4ccccn4)c3)cc[n-]2)c1

>  <Energy>  (72) 
67.76719932519958

>  <Genealogy>  (72) 
CS(=O)(=O)Cc1cccc(N=c2nc(Oc3cccc(NC(=O)[N-]Cc4ccccn4)c3)cc[n-]2)c1 (protonated)
CS(=O)(=O)Cc1cccc(N=c2nc(Oc3cccc(NC(=O)[N-]Cc4ccccn4)c3)cc[n-]2)c1 (3D coordinates assigned)
CS(=O)(=O)Cc1cccc(N=c2nc(Oc3cccc(NC(=O)[N-]Cc4ccccn4)c3)cc[n-]2)c1 (optimized conformer: 67.76719932519958 kcal/mol)

>  <smiles>  (72) 
CS(=O)(=O)Cc1cccc(N=c2nc(Oc3cccc(NC(=O)NCc4ccccn4)c3)cc[nH]2)c1

>  <score_type>  (72) 
oracle

>  <origin>  (72) 
adg

>  <m_score__min__energy>  (72) 
-13.380000000000001

>  <m_primary>  (72) 
energy

$$$$
72:0
     RDKit          3D

 38 39  0  0  0  0  0  0  0  0999 V2000
   59.2200   33.1810   50.4130 C   0  0  0  0  0  0  0  0  0  0  0  0
   59.9190   34.2450   49.7790 O   0  0  0  0  0  0  0  0  0  0  0  0
   60.8220   34.0400   48.7290 C   0  0  0  0  0  0  0  0  0  0  0  0
   62.1380   33.7890   48.9870 N   0  0  0  0  0  0  0  0  0  0  0  0
   63.0410   33.5970   47.9920 C   0  0  0  0  0  0  0  0  0  0  0  0
   62.6360   33.6590   46.6600 C   0  0  0  0  0  0  0  0  0  0  0  0
   61.2950   33.9110   46.3650 C   0  0  0  0  0  0  0  0  0  0  0  0
   60.3670   34.0910   47.4040 C   0  0  0  0  0  0  0  0  0  0  0  0
   58.9880   34.4060   47.1520 N   0  0  0  0  0  0  0  0  0  0  0  0
   57.9310   33.4780   46.8740 C   0  0  0  0  0  0  0  0  0  0  0  0
   57.3980   32.8100   47.8000 O   0  0  0  0  0  0  0  0  0  0  0  0
   57.3950   33.3670   45.4790 C   0  0  0  0  0  0  0  0  0  0  0  0
   58.0030   32.2990   44.7740 O   0  0  0  0  0  0  0  0  0  0  0  0
   57.7650   31.0500   45.4020 C   0  0  0  0  0  0  0  0  0  0  0  0
   56.7430   30.2670   44.6390 C   0  0  0  0  0  0  0  0  0  0  0  0
   56.4410   30.6140   43.4650 O   0  0  0  0  0  0  0  0  0  0  0  0
   56.1480   29.1080   45.2350 N   0  0  0  0  0  0  0  0  0  0  0  0
   56.8420   27.9130   45.6240 C   0  0  0  0  0  0  0  0  0  0  0  0
   58.2420   27.9440   45.6850 C   0  0  0  0  0  0  0  0  0  0  0  0
   58.9620   26.8000   46.0390 C   0  0  0  0  0  0  0  0  0  0  0  0
   58.2870   25.6210   46.3600 C   0  0  0  0  0  0  0  0  0  0  0  0
   56.8910   25.5900   46.3480 C   0  0  0  0  0  0  0  0  0  0  0  0
   56.1630   26.7340   45.9990 C   0  0  0  0  0  0  0  0  0  0  0  0
   54.7750   26.6960   46.0680 O   0  0  0  0  0  0  0  0  0  0  0  0
   59.2936   33.2931   51.5048 H   0  0  0  0  0  0  0  0  0  0  0  0
   58.1622   33.2066   50.1123 H   0  0  0  0  0  0  0  0  0  0  0  0
   59.6635   32.2203   50.1123 H   0  0  0  0  0  0  0  0  0  0  0  0
   64.0936   33.3922   48.2373 H   0  0  0  0  0  0  0  0  0  0  0  0
   63.3651   33.5110   45.8498 H   0  0  0  0  0  0  0  0  0  0  0  0
   60.9646   33.9687   45.3174 H   0  0  0  0  0  0  0  0  0  0  0  0
   56.3098   33.1930   45.5255 H   0  0  0  0  0  0  0  0  0  0  0  0
   57.6182   34.3037   44.9473 H   0  0  0  0  0  0  0  0  0  0  0  0
   58.7044   30.4790   45.4401 H   0  0  0  0  0  0  0  0  0  0  0  0
   57.3891   31.2292   46.4201 H   0  0  0  0  0  0  0  0  0  0  0  0
   58.7780   28.8760   45.4524 H   0  0  0  0  0  0  0  0  0  0  0  0
   60.0613   26.8285   46.0648 H   0  0  0  0  0  0  0  0  0  0  0  0
   58.8549   24.7162   46.6224 H   0  0  0  0  0  0  0  0  0  0  0  0
   56.3612   24.6633   46.6137 H   0  0  0  0  0  0  0  0  0  0  0  0
  1  2  1  0
  2  3  1  0
  3  4  2  0
  4  5  1  0
  5  6  2  0
  6  7  1  0
  7  8  2  0
  8  9  1  0
  9 10  1  0
 10 11  2  0
 10 12  1  0
 12 13  1  0
 13 14  1  0
 14 15  1  0
 15 16  2  0
 15 17  1  0
 17 18  1  0
 18 19  2  0
 19 20  1  0
 20 21  2  0
 21 22  1  0
 22 23  2  0
 23 24  1  0
  8  3  1  0
 23 18  1  0
  1 25  1  0
  1 26  1  0
  1 27  1  0
  5 28  1  0
  6 29  1  0
  7 30  1  0
 12 31  1  0
 12 32  1  0
 14 33  1  0
 14 34  1  0
 19 35  1  0
 20 36  1  0
 21 37  1  0
 22 38  1  0
M  CHG  3   9  -1  17  -1  24  -1
M  END
>  <UniqueID>  (73) 
71

>  <SMILES>  (73) 
COc1ncccc1[N-]C(=O)COCC(=O)[N-]c1ccccc1[O-]

>  <Energy>  (73) 
45.09334835124992

>  <Genealogy>  (73) 
COc1ncccc1[N-]C(=O)COCC(=O)[N-]c1ccccc1[O-] (protonated)
COc1ncccc1[N-]C(=O)COCC(=O)[N-]c1ccccc1[O-] (3D coordinates assigned)
COc1ncccc1[N-]C(=O)COCC(=O)[N-]c1ccccc1[O-] (optimized conformer: 45.09334835124992 kcal/mol)

>  <smiles>  (73) 
COc1ncccc1NC(=O)COCC(=O)Nc1ccccc1O

>  <score_type>  (73) 
oracle

>  <origin>  (73) 
adg

>  <m_score__min__energy>  (73) 
-13.73

>  <m_primary>  (73) 
energy

$$$$
73:0
     RDKit          3D

 39 41  0  0  0  0  0  0  0  0999 V2000
   59.2640   34.6560   46.2900 C   0  0  0  0  0  0  0  0  0  0  0  0
   58.1120   33.9300   45.6020 C   0  0  0  0  0  0  0  0  0  0  0  0
   58.1570   32.4270   45.8900 C   0  0  0  0  0  0  0  0  0  0  0  0
   57.4670   31.4990   44.5260 S   0  0  0  0  0  0  0  0  0  0  0  0
   57.5470   32.2880   43.2490 O   0  0  0  0  0  0  0  0  0  0  0  0
   56.0250   31.1980   44.8200 O   0  0  0  0  0  0  0  0  0  0  0  0
   58.3190   30.0000   44.3460 N   0  0  0  0  0  0  0  0  0  0  0  0
   58.0890   28.8060   45.1070 C   0  0  0  0  0  0  0  0  0  0  0  0
   59.1310   28.1210   45.7590 C   0  0  0  0  0  0  0  0  0  0  0  0
   58.8630   26.9580   46.4840 C   0  0  0  0  0  0  0  0  0  0  0  0
   57.5570   26.4720   46.5740 C   0  0  0  0  0  0  0  0  0  0  0  0
   56.5020   27.1570   45.9470 C   0  0  0  0  0  0  0  0  0  0  0  0
   55.1520   26.6750   46.0110 N   0  0  0  0  0  0  0  0  0  0  0  0
   54.7170   25.3370   45.7320 C   0  0  0  0  0  0  0  0  0  0  0  0
   53.5140   25.1500   45.4090 O   0  0  0  0  0  0  0  0  0  0  0  0
   55.6230   24.1720   45.8650 C   0  0  0  0  0  0  0  0  0  0  0  0
   56.3680   23.7210   44.7380 C   0  0  0  0  0  0  0  0  0  0  0  0
   57.2330   22.6130   44.8420 C   0  0  0  0  0  0  0  0  0  0  0  0
   57.3180   21.9840   46.0780 C   0  0  0  0  0  0  0  0  0  0  0  0
   58.0520   20.9210   46.4360 N   0  0  0  0  0  0  0  0  0  0  0  0
   57.7690   20.7120   47.7210 N   0  0  0  0  0  0  0  0  0  0  0  0
   56.8870   21.5960   48.1900 N   0  0  0  0  0  0  0  0  0  0  0  0
   56.6040   22.3980   47.1530 C   0  0  0  0  0  0  0  0  0  0  0  0
   55.7370   23.4830   47.0980 C   0  0  0  0  0  0  0  0  0  0  0  0
   56.7790   28.3100   45.2000 C   0  0  0  0  0  0  0  0  0  0  0  0
   55.7680   28.9630   44.5730 F   0  0  0  0  0  0  0  0  0  0  0  0
   59.1452   34.5811   47.3810 H   0  0  0  0  0  0  0  0  0  0  0  0
   60.2176   34.1953   45.9925 H   0  0  0  0  0  0  0  0  0  0  0  0
   59.2599   35.7150   45.9925 H   0  0  0  0  0  0  0  0  0  0  0  0
   57.1592   34.3380   45.9704 H   0  0  0  0  0  0  0  0  0  0  0  0
   58.2031   34.0805   44.5162 H   0  0  0  0  0  0  0  0  0  0  0  0
   59.2022   32.1201   46.0430 H   0  0  0  0  0  0  0  0  0  0  0  0
   57.5623   32.2227   46.7925 H   0  0  0  0  0  0  0  0  0  0  0  0
   60.1607   28.5031   45.6973 H   0  0  0  0  0  0  0  0  0  0  0  0
   59.6830   26.4232   46.9856 H   0  0  0  0  0  0  0  0  0  0  0  0
   57.3532   25.5497   47.1377 H   0  0  0  0  0  0  0  0  0  0  0  0
   56.2671   24.2434   43.7753 H   0  0  0  0  0  0  0  0  0  0  0  0
   57.8173   22.2604   43.9793 H   0  0  0  0  0  0  0  0  0  0  0  0
   55.1597   23.7958   47.9805 H   0  0  0  0  0  0  0  0  0  0  0  0
  1  2  1  0
  2  3  1  0
  3  4  1  0
  4  5  2  0
  4  6  2  0
  4  7  1  0
  7  8  1  0
  8  9  2  0
  9 10  1  0
 10 11  2  0
 11 12  1  0
 12 13  1  0
 13 14  1  0
 14 15  2  0
 14 16  1  0
 16 17  2  0
 17 18  1  0
 18 19  2  0
 19 20  1  0
 20 21  1  0
 21 22  2  0
 22 23  1  0
 23 24  2  0
 12 25  2  0
 25 26  1  0
 25  8  1  0
 24 16  1  0
 23 19  1  0
  1 27  1  0
  1 28  1  0
  1 29  1  0
  2 30  1  0
  2 31  1  0
  3 32  1  0
  3 33  1  0
  9 34  1  0
 10 35  1  0
 11 36  1  0
 17 37  1  0
 18 38  1  0
 24 39  1  0
M  CHG  3   7  -1  13  -1  20  -1
M  END
>  <UniqueID>  (74) 
72

>  <SMILES>  (74) 
CCCS(=O)(=O)[N-]c1cccc([N-]C(=O)c2ccc3[n-]nnc3c2)c1F

>  <Energy>  (74) 
85.57231381838072

>  <Genealogy>  (74) 
CCCS(=O)(=O)[N-]c1cccc([N-]C(=O)c2ccc3[n-]nnc3c2)c1F (protonated)
CCCS(=O)(=O)[N-]c1cccc([N-]C(=O)c2ccc3[n-]nnc3c2)c1F (3D coordinates assigned)
CCCS(=O)(=O)[N-]c1cccc([N-]C(=O)c2ccc3[n-]nnc3c2)c1F (optimized conformer: 85.57231381838072 kcal/mol)

>  <smiles>  (74) 
CCCS(=O)(=O)Nc1cccc(NC(=O)c2ccc3[nH]nnc3c2)c1F

>  <score_type>  (74) 
oracle

>  <origin>  (74) 
adg

>  <m_score__min__energy>  (74) 
-13.32

>  <m_primary>  (74) 
energy

$$$$
74:0
     RDKit          3D

 33 34  0  0  0  0  0  0  0  0999 V2000
   60.5754   28.7927   46.8437 H   0  0  0  0  0  0  0  0  0  0  0  0
   59.5700   28.7700   46.3980 C   0  0  0  0  0  0  0  0  0  0  0  0
   58.9120   29.9270   46.1540 N   0  0  0  0  0  0  0  0  0  0  0  0
   57.6690   29.9340   45.6080 C   0  0  0  0  0  0  0  0  0  0  0  0
   57.0530   31.0580   45.3750 N   0  0  0  0  0  0  0  0  0  0  0  0
   57.6610   32.2360   44.7590 C   0  0  0  0  0  0  0  0  0  0  0  0
   58.3880   31.9124   43.9996 H   0  0  0  0  0  0  0  0  0  0  0  0
   56.8695   32.8417   44.2937 H   0  0  0  0  0  0  0  0  0  0  0  0
   58.3670   33.0720   45.7970 C   0  0  0  0  0  0  0  0  0  0  0  0
   58.2240   32.7500   47.1580 C   0  0  0  0  0  0  0  0  0  0  0  0
   57.5883   31.9032   47.4561 H   0  0  0  0  0  0  0  0  0  0  0  0
   58.8860   33.5010   48.1350 C   0  0  0  0  0  0  0  0  0  0  0  0
   58.7708   33.2430   49.1981 H   0  0  0  0  0  0  0  0  0  0  0  0
   59.6930   34.5780   47.7620 C   0  0  0  0  0  0  0  0  0  0  0  0
   60.2109   35.1692   48.5316 H   0  0  0  0  0  0  0  0  0  0  0  0
   59.8430   34.9050   46.4120 C   0  0  0  0  0  0  0  0  0  0  0  0
   60.4811   35.7523   46.1208 H   0  0  0  0  0  0  0  0  0  0  0  0
   59.1840   34.1580   45.4290 C   0  0  0  0  0  0  0  0  0  0  0  0
   59.3480   34.4960   44.1250 F   0  0  0  0  0  0  0  0  0  0  0  0
   57.0530   28.7140   45.2940 C   0  0  0  0  0  0  0  0  0  0  0  0
   55.9010   28.7210   44.7740 O   0  0  0  0  0  0  0  0  0  0  0  0
   57.6980   27.5260   45.5510 N   0  0  0  0  0  0  0  0  0  0  0  0
   57.0340   26.2510   45.2060 C   0  0  0  0  0  0  0  0  0  0  0  0
   56.5916   26.3332   44.2022 H   0  0  0  0  0  0  0  0  0  0  0  0
   57.7811   25.4438   45.2260 H   0  0  0  0  0  0  0  0  0  0  0  0
   55.9540   25.9370   46.1970 C   0  0  0  0  0  0  0  0  0  0  0  0
   54.7790   26.3440   46.0040 O   0  0  0  0  0  0  0  0  0  0  0  0
   56.2410   25.1740   47.3220 O   0  0  0  0  0  0  0  0  0  0  0  0
   58.9710   27.5430   46.0830 C   0  0  0  0  0  0  0  0  0  0  0  0
   59.7390   26.2740   46.3710 C   0  0  0  0  0  0  0  0  0  0  0  0
   59.8230   26.1352   47.4590 H   0  0  0  0  0  0  0  0  0  0  0  0
   59.2082   25.4165   45.9318 H   0  0  0  0  0  0  0  0  0  0  0  0
   60.7449   26.3465   45.9318 H   0  0  0  0  0  0  0  0  0  0  0  0
  1  2  1  0
  2  3  1  0
  3  4  1  0
  4  5  2  0
  5  6  1  0
  6  7  1  0
  6  8  1  0
  6  9  1  0
  9 10  2  0
 10 11  1  0
 10 12  1  0
 12 13  1  0
 12 14  2  0
 14 15  1  0
 14 16  1  0
 16 17  1  0
 16 18  2  0
 18 19  1  0
  4 20  1  0
 20 21  2  0
 20 22  1  0
 22 23  1  0
 23 24  1  0
 23 25  1  0
 23 26  1  0
 26 27  2  0
 26 28  1  0
 22 29  1  0
 29 30  1  0
 30 31  1  0
 30 32  1  0
 30 33  1  0
 29  2  2  0
 18  9  1  0
M  CHG  2   3  -1  28  -1
M  END
>  <UniqueID>  (75) 
73

>  <SMILES>  (75) 
Cc1c[n-]/c(=N\Cc2ccccc2F)c(=O)n1CC(=O)[O-]

>  <Energy>  (75) 
38.91567888995877

>  <Genealogy>  (75) 
Cc1c[n-]c(=NCc2ccccc2F)c(=O)n1CC(=O)[O-] (protonated)
Cc1c[n-]/c(=N\Cc2ccccc2F)c(=O)n1CC(=O)[O-] (cis-trans isomerization)
Cc1c[n-]/c(=N\Cc2ccccc2F)c(=O)n1CC(=O)[O-] (3D coordinates assigned)
Cc1c[n-]/c(=N\Cc2ccccc2F)c(=O)n1CC(=O)[O-] (optimized conformer: 38.91567888995877 kcal/mol)

>  <smiles>  (75) 
Cc1c[nH]c(=NCc2ccccc2F)c(=O)n1CC(=O)O

>  <score_type>  (75) 
oracle

>  <origin>  (75) 
adg

>  <m_score__min__energy>  (75) 
-11.5

>  <m_primary>  (75) 
energy

$$$$
75:0
     RDKit          3D

 32 33  0  0  0  0  0  0  0  0999 V2000
   58.7380   25.7040   47.9070 O   0  0  0  0  0  0  0  0  0  0  0  0
   59.2730   26.1680   46.8660 C   0  0  0  0  0  0  0  0  0  0  0  0
   59.6680   25.2220   45.7620 C   0  0  0  0  0  0  0  0  0  0  0  0
   58.4820   24.4520   45.2400 C   0  0  0  0  0  0  0  0  0  0  0  0
   58.0660   23.2700   45.8770 C   0  0  0  0  0  0  0  0  0  0  0  0
   56.9760   22.5480   45.3810 C   0  0  0  0  0  0  0  0  0  0  0  0
   56.2870   23.0060   44.2540 C   0  0  0  0  0  0  0  0  0  0  0  0
   55.2060   22.2860   43.7610 O   0  0  0  0  0  0  0  0  0  0  0  0
   56.6850   24.1890   43.6250 C   0  0  0  0  0  0  0  0  0  0  0  0
   57.7750   24.9130   44.1160 C   0  0  0  0  0  0  0  0  0  0  0  0
   59.4750   27.5830   46.7660 N   0  0  0  0  0  0  0  0  0  0  0  0
   58.6730   28.4570   45.9660 C   0  0  0  0  0  0  0  0  0  0  0  0
   59.2980   29.5210   45.3020 C   0  0  0  0  0  0  0  0  0  0  0  0
   58.5490   30.4110   44.5330 C   0  0  0  0  0  0  0  0  0  0  0  0
   57.1710   30.2380   44.4070 C   0  0  0  0  0  0  0  0  0  0  0  0
   56.5360   29.1640   45.0390 C   0  0  0  0  0  0  0  0  0  0  0  0
   55.1610   29.0080   44.8890 O   0  0  0  0  0  0  0  0  0  0  0  0
   57.2800   28.2520   45.8160 C   0  0  0  0  0  0  0  0  0  0  0  0
   56.5760   27.0870   46.4670 C   0  0  0  0  0  0  0  0  0  0  0  0
   55.5250   26.6570   45.6490 O   0  0  0  0  0  0  0  0  0  0  0  0
   60.1091   25.8006   44.9370 H   0  0  0  0  0  0  0  0  0  0  0  0
   60.3934   24.5022   46.1690 H   0  0  0  0  0  0  0  0  0  0  0  0
   58.6001   22.9115   46.7693 H   0  0  0  0  0  0  0  0  0  0  0  0
   56.6604   21.6188   45.8780 H   0  0  0  0  0  0  0  0  0  0  0  0
   56.1390   24.5511   42.7414 H   0  0  0  0  0  0  0  0  0  0  0  0
   58.0806   25.8467   43.6212 H   0  0  0  0  0  0  0  0  0  0  0  0
   60.3864   29.6550   45.3879 H   0  0  0  0  0  0  0  0  0  0  0  0
   59.0458   31.2507   44.0250 H   0  0  0  0  0  0  0  0  0  0  0  0
   56.5816   30.9484   43.8087 H   0  0  0  0  0  0  0  0  0  0  0  0
   57.2893   26.2620   46.6105 H   0  0  0  0  0  0  0  0  0  0  0  0
   56.1751   27.4010   47.4420 H   0  0  0  0  0  0  0  0  0  0  0  0
   55.1280   27.4770   45.2550 H   0  0  0  0  0  0  0  0  0  0  0  0
  1  2  2  0
  2  3  1  0
  3  4  1  0
  4  5  2  0
  5  6  1  0
  6  7  2  0
  7  8  1  0
  7  9  1  0
  9 10  2  0
  2 11  1  0
 11 12  1  0
 12 13  2  0
 13 14  1  0
 14 15  2  0
 15 16  1  0
 16 17  1  0
 16 18  2  0
 18 19  1  0
 19 20  1  0
 10  4  1  0
 18 12  1  0
  3 21  1  0
  3 22  1  0
  5 23  1  0
  6 24  1  0
  9 25  1  0
 10 26  1  0
 13 27  1  0
 14 28  1  0
 15 29  1  0
 19 30  1  0
 19 31  1  0
 20 32  1  0
M  CHG  3   8  -1  11  -1  17  -1
M  END
>  <UniqueID>  (76) 
74

>  <SMILES>  (76) 
O=C(Cc1ccc([O-])cc1)[N-]c1cccc([O-])c1CO

>  <Energy>  (76) 
37.882602825109046

>  <Genealogy>  (76) 
O=C(Cc1ccc([O-])cc1)[N-]c1cccc([O-])c1CO (protonated)
O=C(Cc1ccc([O-])cc1)[N-]c1cccc([O-])c1CO (3D coordinates assigned)
O=C(Cc1ccc([O-])cc1)[N-]c1cccc([O-])c1CO (optimized conformer: 37.882602825109046 kcal/mol)

>  <smiles>  (76) 
O=C(Cc1ccc(O)cc1)Nc1cccc(O)c1CO

>  <score_type>  (76) 
oracle

>  <origin>  (76) 
adg

>  <m_score__min__energy>  (76) 
-12.460000000000001

>  <m_primary>  (76) 
energy

$$$$
76:0
     RDKit          3D

 43 46  0  0  0  0  0  0  0  0999 V2000
   58.2720   32.4950   47.1150 O   0  0  0  0  0  0  0  0  0  0  0  0
   58.4960   31.3030   46.7630 C   0  0  0  0  0  0  0  0  0  0  0  0
   57.8880   30.8100   45.6140 C   0  0  0  0  0  0  0  0  0  0  0  0
   57.0650   31.6100   44.8790 N   0  0  0  0  0  0  0  0  0  0  0  0
   56.4610   31.1730   43.7450 C   0  0  0  0  0  0  0  0  0  0  0  0
   56.6790   29.8730   43.3010 C   0  0  0  0  0  0  0  0  0  0  0  0
   57.5160   29.0280   44.0290 C   0  0  0  0  0  0  0  0  0  0  0  0
   58.1420   29.4840   45.2140 C   0  0  0  0  0  0  0  0  0  0  0  0
   58.9780   28.6910   45.9730 N   0  0  0  0  0  0  0  0  0  0  0  0
   59.2930   27.2980   45.5670 C   0  0  0  0  0  0  0  0  0  0  0  0
   58.1590   26.3610   45.9080 C   0  0  0  0  0  0  0  0  0  0  0  0
   58.4270   25.0370   46.2970 C   0  0  0  0  0  0  0  0  0  0  0  0
   57.3770   24.1640   46.5970 C   0  0  0  0  0  0  0  0  0  0  0  0
   56.0530   24.5990   46.5000 C   0  0  0  0  0  0  0  0  0  0  0  0
   55.7750   25.9080   46.0960 C   0  0  0  0  0  0  0  0  0  0  0  0
   54.4580   26.3380   45.9920 O   0  0  0  0  0  0  0  0  0  0  0  0
   56.8230   26.7850   45.7950 C   0  0  0  0  0  0  0  0  0  0  0  0
   59.5650   29.2090   47.1080 C   0  0  0  0  0  0  0  0  0  0  0  0
   60.3380   28.4860   47.7980 O   0  0  0  0  0  0  0  0  0  0  0  0
   59.3300   30.5070   47.4980 N   0  0  0  0  0  0  0  0  0  0  0  0
   60.0080   31.0710   48.6870 C   0  0  0  0  0  0  0  0  0  0  0  0
   61.2120   31.8920   48.2740 C   0  0  0  0  0  0  0  0  0  0  0  0
   62.2770   31.2480   47.6180 C   0  0  0  0  0  0  0  0  0  0  0  0
   63.3990   31.9680   47.2030 C   0  0  0  0  0  0  0  0  0  0  0  0
   63.4770   33.3400   47.4420 C   0  0  0  0  0  0  0  0  0  0  0  0
   62.4340   33.9940   48.0990 C   0  0  0  0  0  0  0  0  0  0  0  0
   61.3020   33.2840   48.5190 C   0  0  0  0  0  0  0  0  0  0  0  0
   60.0390   34.1820   49.3570 Cl  0  0  0  0  0  0  0  0  0  0  0  0
   55.8004   31.8455   43.1781 H   0  0  0  0  0  0  0  0  0  0  0  0
   56.1942   29.5137   42.3813 H   0  0  0  0  0  0  0  0  0  0  0  0
   57.6911   27.9997   43.6799 H   0  0  0  0  0  0  0  0  0  0  0  0
   59.4666   27.2712   44.4811 H   0  0  0  0  0  0  0  0  0  0  0  0
   60.1912   26.9709   46.1112 H   0  0  0  0  0  0  0  0  0  0  0  0
   59.4673   24.6863   46.3657 H   0  0  0  0  0  0  0  0  0  0  0  0
   57.5939   23.1321   46.9102 H   0  0  0  0  0  0  0  0  0  0  0  0
   55.2291   23.9113   46.7416 H   0  0  0  0  0  0  0  0  0  0  0  0
   56.6006   27.8115   45.4682 H   0  0  0  0  0  0  0  0  0  0  0  0
   59.3028   31.7135   49.2346 H   0  0  0  0  0  0  0  0  0  0  0  0
   60.3457   30.2438   49.3287 H   0  0  0  0  0  0  0  0  0  0  0  0
   62.2252   30.1654   47.4300 H   0  0  0  0  0  0  0  0  0  0  0  0
   64.2224   31.4526   46.6869 H   0  0  0  0  0  0  0  0  0  0  0  0
   64.3606   33.9064   47.1126 H   0  0  0  0  0  0  0  0  0  0  0  0
   62.5013   35.0755   48.2885 H   0  0  0  0  0  0  0  0  0  0  0  0
  1  2  2  0
  2  3  1  0
  3  4  2  0
  4  5  1  0
  5  6  2  0
  6  7  1  0
  7  8  2  0
  8  9  1  0
  9 10  1  0
 10 11  1  0
 11 12  2  0
 12 13  1  0
 13 14  2  0
 14 15  1  0
 15 16  1  0
 15 17  2  0
  9 18  1  0
 18 19  2  0
 18 20  1  0
 20 21  1  0
 21 22  1  0
 22 23  2  0
 23 24  1  0
 24 25  2  0
 25 26  1  0
 26 27  2  0
 27 28  1  0
 20  2  1  0
 27 22  1  0
  8  3  1  0
 17 11  1  0
  5 29  1  0
  6 30  1  0
  7 31  1  0
 10 32  1  0
 10 33  1  0
 12 34  1  0
 13 35  1  0
 14 36  1  0
 17 37  1  0
 21 38  1  0
 21 39  1  0
 23 40  1  0
 24 41  1  0
 25 42  1  0
 26 43  1  0
M  CHG  1  16  -1
M  END
>  <UniqueID>  (77) 
75

>  <SMILES>  (77) 
O=c1c2ncccc2n(Cc2cccc([O-])c2)c(=O)n1Cc1ccccc1Cl

>  <Energy>  (77) 
63.9169926565524

>  <Genealogy>  (77) 
O=c1c2ncccc2n(Cc2cccc([O-])c2)c(=O)n1Cc1ccccc1Cl (protonated)
O=c1c2ncccc2n(Cc2cccc([O-])c2)c(=O)n1Cc1ccccc1Cl (3D coordinates assigned)
O=c1c2ncccc2n(Cc2cccc([O-])c2)c(=O)n1Cc1ccccc1Cl (optimized conformer: 63.9169926565524 kcal/mol)

>  <smiles>  (77) 
O=c1c2ncccc2n(Cc2cccc(O)c2)c(=O)n1Cc1ccccc1Cl

>  <score_type>  (77) 
oracle

>  <origin>  (77) 
adg

>  <m_score__min__energy>  (77) 
-12.99

>  <m_primary>  (77) 
energy

$$$$
77:0
     RDKit          3D

 14 14  0  0  0  0  0  0  0  0999 V2000
   51.2340   29.3000   48.6440 O   0  0  0  0  0  0  0  0  0  0  0  0
   52.2190   29.7280   49.3020 C   0  0  0  0  0  0  0  0  0  0  0  0
   52.0370   30.3670   50.6180 C   0  0  0  0  0  0  0  0  0  0  0  0
   52.4630   29.7320   51.7990 C   0  0  0  0  0  0  0  0  0  0  0  0
   52.2810   30.3540   53.0380 C   0  0  0  0  0  0  0  0  0  0  0  0
   51.6750   31.6120   53.1090 C   0  0  0  0  0  0  0  0  0  0  0  0
   51.2500   32.2500   51.9400 C   0  0  0  0  0  0  0  0  0  0  0  0
   50.6480   33.5010   52.0120 O   0  0  0  0  0  0  0  0  0  0  0  0
   51.4300   31.6300   50.6980 C   0  0  0  0  0  0  0  0  0  0  0  0
   53.2325   29.6232   48.8876 H   0  0  0  0  0  0  0  0  0  0  0  0
   52.9410   28.7426   51.7475 H   0  0  0  0  0  0  0  0  0  0  0  0
   52.6151   29.8528   53.9584 H   0  0  0  0  0  0  0  0  0  0  0  0
   51.5327   32.0997   54.0847 H   0  0  0  0  0  0  0  0  0  0  0  0
   51.0941   32.1350   49.7803 H   0  0  0  0  0  0  0  0  0  0  0  0
  1  2  2  0
  2  3  1  0
  3  4  2  0
  4  5  1  0
  5  6  2  0
  6  7  1  0
  7  8  1  0
  7  9  2  0
  9  3  1  0
  2 10  1  0
  4 11  1  0
  5 12  1  0
  6 13  1  0
  9 14  1  0
M  CHG  1   8  -1
M  END
>  <UniqueID>  (78) 
76

>  <SMILES>  (78) 
O=Cc1cccc([O-])c1

>  <Energy>  (78) 
12.63769974343083

>  <Genealogy>  (78) 
O=Cc1cccc([O-])c1 (protonated)
O=Cc1cccc([O-])c1 (3D coordinates assigned)
O=Cc1cccc([O-])c1 (optimized conformer: 12.63769974343083 kcal/mol)

>  <smiles>  (78) 
O=Cc1cccc(O)c1

>  <score_type>  (78) 
oracle

>  <origin>  (78) 
adg

>  <m_score__min__energy>  (78) 
-9.4100000000000001

>  <m_primary>  (78) 
energy

$$$$
78:0
     RDKit          3D

 64 68  0  0  1  0  0  0  0  0999 V2000
   56.7460   33.7180   45.6520 N   0  0  0  0  0  0  0  0  0  0  0  0
   57.5470   32.9330   46.5240 C   0  0  0  0  0  0  0  0  0  0  0  0
   57.5860   33.2420   47.7470 O   0  0  0  0  0  0  0  0  0  0  0  0
   58.3040   31.8050   46.0350 C   0  0  0  0  0  0  0  0  0  0  0  0
   59.5980   31.5390   46.4240 C   0  0  0  0  0  0  0  0  0  0  0  0
   60.3480   30.4920   45.9900 C   0  0  0  0  0  0  0  0  0  0  0  0
   59.7690   29.5890   45.0600 C   0  0  0  0  0  0  0  0  0  0  0  0
   58.4920   29.8550   44.6830 C   0  0  0  0  0  0  0  0  0  0  0  0
   57.8810   29.0220   43.7850 C   0  0  0  0  0  0  0  0  0  0  0  0
   58.3850   27.9640   43.3950 N   0  0  0  0  0  0  0  0  0  0  0  0
   58.1410   26.6500   43.7590 C   0  0  0  0  0  0  0  0  0  0  0  0
   58.2740   26.3200   45.2010 C   0  0  0  0  0  0  0  0  0  0  0  0
   57.7090   25.1710   45.7590 C   0  0  0  0  0  0  0  0  0  0  0  0
   57.8360   24.8610   47.0990 C   0  0  0  0  0  0  0  0  0  0  0  0
   58.5310   25.6700   47.9670 C   0  0  0  0  0  0  0  0  0  0  0  0
   59.0980   26.8100   47.4430 C   0  0  0  0  0  0  0  0  0  0  0  0
   59.8330   27.7020   48.2740 N   0  0  0  0  0  0  0  0  0  0  0  0
   59.3030   28.9310   48.7560 C   0  0  0  0  0  0  0  0  0  0  0  0
   58.1530   29.3370   48.4960 O   0  0  0  0  0  0  0  0  0  0  0  0
   60.1880   29.7100   49.5870 N   0  0  0  0  0  0  0  0  0  0  0  0
   59.7700   30.9560   50.1270 C   0  0  0  0  0  0  0  0  0  0  0  0
   58.5690   30.9970   50.8070 C   0  0  0  0  0  0  0  0  0  0  0  0
   58.1440   32.2170   51.3440 C   0  0  0  0  0  0  0  0  0  0  0  0
   58.9400   33.3280   51.1740 C   0  0  0  0  0  0  0  0  0  0  0  0
   60.1420   33.3060   50.4990 C   0  0  0  0  0  0  0  0  0  0  0  0
   60.5610   32.0850   49.9650 C   0  0  0  0  0  0  0  0  0  0  0  0
   61.7960   32.0320   49.2630 N   0  0  0  0  0  0  0  0  0  0  0  0
   62.9390   31.2630   49.7180 C   0  0  0  0  0  0  0  0  0  0  0  0
   64.1340   32.1880   49.5680 C   0  0  0  0  0  0  0  0  0  0  0  0
   64.3870   32.4870   48.2540 O   0  0  0  0  0  0  0  0  0  0  0  0
   63.3150   32.4430   47.4040 C   0  0  0  0  0  0  0  0  0  0  0  0
   61.9890   32.7710   48.0060 C   0  0  0  0  0  0  0  0  0  0  0  0
   58.9660   27.1090   46.1140 C   0  0  0  0  0  0  0  0  0  0  0  0
   56.6140   29.3050   43.4000 N   0  0  0  0  0  0  0  0  0  0  0  0
   55.9120   30.3550   43.8510 C   0  0  0  0  0  0  0  0  0  0  0  0
   56.4910   31.1820   44.7360 N   0  0  0  0  0  0  0  0  0  0  0  0
   57.7480   30.9240   45.1340 C   0  0  0  0  0  0  0  0  0  0  0  0
   55.9490   33.3160   45.0990 H   0  0  0  0  0  0  0  0  0  0  0  0
   57.0000   34.7440   45.5920 H   0  0  0  0  0  0  0  0  0  0  0  0
   60.0618   32.2294   47.1438 H   0  0  0  0  0  0  0  0  0  0  0  0
   61.3774   30.3479   46.3501 H   0  0  0  0  0  0  0  0  0  0  0  0
   60.3231   28.7236   44.6674 H   0  0  0  0  0  0  0  0  0  0  0  0
   57.1125   26.4057   43.4550 H   0  0  0  0  0  0  0  0  0  0  0  0
   58.9220   26.0615   43.2553 H   0  0  0  0  0  0  0  0  0  0  0  0
   57.1427   24.4886   45.1081 H   0  0  0  0  0  0  0  0  0  0  0  0
   57.3685   23.9420   47.4822 H   0  0  0  0  0  0  0  0  0  0  0  0
   58.6296   25.4175   49.0331 H   0  0  0  0  0  0  0  0  0  0  0  0
   60.8200   27.3980   48.5230 H   0  0  0  0  0  0  0  0  0  0  0  0
   61.1520   29.3830   49.8140 H   0  0  0  0  0  0  0  0  0  0  0  0
   57.9589   30.0892   50.9241 H   0  0  0  0  0  0  0  0  0  0  0  0
   57.1925   32.2875   51.8914 H   0  0  0  0  0  0  0  0  0  0  0  0
   58.5987   34.2834   51.5992 H   0  0  0  0  0  0  0  0  0  0  0  0
   60.7488   34.2164   50.3851 H   0  0  0  0  0  0  0  0  0  0  0  0
   62.8103   30.9683   50.7699 H   0  0  0  0  0  0  0  0  0  0  0  0
   63.0645   30.3360   49.1393 H   0  0  0  0  0  0  0  0  0  0  0  0
   63.9314   33.1220   50.1127 H   0  0  0  0  0  0  0  0  0  0  0  0
   65.0165   31.6741   49.9768 H   0  0  0  0  0  0  0  0  0  0  0  0
   63.5014   33.1588   46.5899 H   0  0  0  0  0  0  0  0  0  0  0  0
   63.2404   31.3962   47.0745 H   0  0  0  0  0  0  0  0  0  0  0  0
   61.9415   33.8508   48.2102 H   0  0  0  0  0  0  0  0  0  0  0  0
   61.1968   32.4830   47.2992 H   0  0  0  0  0  0  0  0  0  0  0  0
   59.4370   28.0318   45.7444 H   0  0  0  0  0  0  0  0  0  0  0  0
   56.1200   28.6900   42.7120 H   0  0  0  0  0  0  0  0  0  0  0  0
   54.8840   30.5347   43.5033 H   0  0  0  0  0  0  0  0  0  0  0  0
  1  2  1  0
  2  3  2  0
  2  4  1  0
  4  5  2  0
  5  6  1  0
  6  7  2  0
  7  8  1  0
  8  9  1  0
  9 10  2  0
 10 11  1  0
 11 12  1  0
 12 13  2  0
 13 14  1  0
 14 15  2  0
 15 16  1  0
 16 17  1  0
 17 18  1  0
 18 19  2  0
 18 20  1  0
 20 21  1  0
 21 22  2  0
 22 23  1  0
 23 24  2  0
 24 25  1  0
 25 26  2  0
 26 27  1  0
 27 28  1  0
 28 29  1  0
 29 30  1  0
 30 31  1  0
 31 32  1  0
 16 33  2  0
  9 34  1  0
 34 35  1  0
 35 36  2  0
 36 37  1  0
 37  4  1  0
 37  8  2  0
 33 12  1  0
 26 21  1  0
 32 27  1  0
  1 38  1  0
  1 39  1  0
  5 40  1  0
  6 41  1  0
  7 42  1  0
 11 43  1  0
 11 44  1  0
 13 45  1  0
 14 46  1  0
 15 47  1  0
 17 48  1  0
 20 49  1  0
 22 50  1  0
 23 51  1  0
 24 52  1  0
 25 53  1  0
 28 54  1  0
 28 55  1  0
 29 56  1  0
 29 57  1  0
 31 58  1  0
 31 59  1  0
 32 60  1  0
 32 61  1  0
 33 62  1  0
 34 63  1  0
 35 64  1  0
M  END
>  <smiles>  (79) 
NC(=O)c1cccc2c(=NCc3cccc(NC(=O)Nc4ccccc4N4CCOCC4)c3)[nH]cnc12

>  <score_type>  (79) 
oracle

>  <origin>  (79) 
adg

>  <m_score__min__energy>  (79) 
-10.859999999999999

>  <m_primary>  (79) 
energy

$$$$
79:0
     RDKit          3D

 36 38  0  0  0  0  0  0  0  0999 V2000
   52.9110   22.8870   44.9810 O   0  0  0  0  0  0  0  0  0  0  0  0
   53.8480   23.6990   45.2020 C   0  0  0  0  0  0  0  0  0  0  0  0
   55.1510   23.3390   45.1810 N   0  0  0  0  0  0  0  0  0  0  0  0
   55.7980   24.4900   45.4590 C   0  0  0  0  0  0  0  0  0  0  0  0
   57.2830   24.6000   45.6170 C   0  0  0  0  0  0  0  0  0  0  0  0
   57.7290   26.0090   45.3370 C   0  0  0  0  0  0  0  0  0  0  0  0
   58.0630   26.8670   46.3950 C   0  0  0  0  0  0  0  0  0  0  0  0
   58.4450   28.1890   46.1400 C   0  0  0  0  0  0  0  0  0  0  0  0
   58.4870   28.6720   44.8190 C   0  0  0  0  0  0  0  0  0  0  0  0
   58.8610   29.9860   44.5040 O   0  0  0  0  0  0  0  0  0  0  0  0
   57.7710   31.2880   44.2900 S   0  0  0  0  0  0  0  0  0  0  0  0
   57.7080   31.6420   42.8300 O   0  0  0  0  0  0  0  0  0  0  0  0
   56.4060   30.8950   44.7800 O   0  0  0  0  0  0  0  0  0  0  0  0
   58.3350   32.6790   45.2050 C   0  0  0  0  0  0  0  0  0  0  0  0
   58.8180   33.8150   44.5380 C   0  0  0  0  0  0  0  0  0  0  0  0
   59.2740   34.9170   45.2690 C   0  0  0  0  0  0  0  0  0  0  0  0
   59.2520   34.8880   46.6670 C   0  0  0  0  0  0  0  0  0  0  0  0
   58.7760   33.7570   47.3350 C   0  0  0  0  0  0  0  0  0  0  0  0
   58.3210   32.6530   46.6070 C   0  0  0  0  0  0  0  0  0  0  0  0
   58.1400   27.8160   43.7670 C   0  0  0  0  0  0  0  0  0  0  0  0
   57.7590   26.4950   44.0210 C   0  0  0  0  0  0  0  0  0  0  0  0
   54.8750   25.4930   45.6550 C   0  0  0  0  0  0  0  0  0  0  0  0
   55.1510   26.8140   45.9860 O   0  0  0  0  0  0  0  0  0  0  0  0
   53.6410   24.9990   45.4870 N   0  0  0  0  0  0  0  0  0  0  0  0
   57.5606   24.3281   46.6461 H   0  0  0  0  0  0  0  0  0  0  0  0
   57.7725   23.9190   44.9052 H   0  0  0  0  0  0  0  0  0  0  0  0
   58.0245   26.4989   47.4308 H   0  0  0  0  0  0  0  0  0  0  0  0
   58.7133   28.8528   46.9751 H   0  0  0  0  0  0  0  0  0  0  0  0
   58.8381   33.8391   43.4384 H   0  0  0  0  0  0  0  0  0  0  0  0
   59.6502   35.8072   44.7437 H   0  0  0  0  0  0  0  0  0  0  0  0
   59.6095   35.7558   47.2408 H   0  0  0  0  0  0  0  0  0  0  0  0
   58.7591   33.7349   48.4346 H   0  0  0  0  0  0  0  0  0  0  0  0
   57.9512   31.7620   47.1355 H   0  0  0  0  0  0  0  0  0  0  0  0
   58.1673   28.1860   42.7314 H   0  0  0  0  0  0  0  0  0  0  0  0
   57.4818   25.8344   43.1863 H   0  0  0  0  0  0  0  0  0  0  0  0
   52.7310   25.5050   45.5680 H   0  0  0  0  0  0  0  0  0  0  0  0
  1  2  2  0
  2  3  1  0
  3  4  1  0
  4  5  1  0
  5  6  1  0
  6  7  2  0
  7  8  1  0
  8  9  2  0
  9 10  1  0
 10 11  1  0
 11 12  2  0
 11 13  2  0
 11 14  1  0
 14 15  2  0
 15 16  1  0
 16 17  2  0
 17 18  1  0
 18 19  2  0
  9 20  1  0
 20 21  2  0
  4 22  2  0
 22 23  1  0
 22 24  1  0
 24  2  1  0
 21  6  1  0
 19 14  1  0
  5 25  1  0
  5 26  1  0
  7 27  1  0
  8 28  1  0
 15 29  1  0
 16 30  1  0
 17 31  1  0
 18 32  1  0
 19 33  1  0
 20 34  1  0
 21 35  1  0
 24 36  1  0
M  CHG  2   3  -1  23  -1
M  END
>  <UniqueID>  (80) 
77

>  <SMILES>  (80) 
O=c1[n-]c(Cc2ccc(OS(=O)(=O)c3ccccc3)cc2)c([O-])[nH]1

>  <Energy>  (80) 
68.61347578103234

>  <Genealogy>  (80) 
O=c1[n-]c(Cc2ccc(OS(=O)(=O)c3ccccc3)cc2)c([O-])[nH]1 (protonated)
O=c1[n-]c(Cc2ccc(OS(=O)(=O)c3ccccc3)cc2)c([O-])[nH]1 (3D coordinates assigned)
O=c1[n-]c(Cc2ccc(OS(=O)(=O)c3ccccc3)cc2)c([O-])[nH]1 (optimized conformer: 68.61347578103234 kcal/mol)

>  <smiles>  (80) 
O=c1[nH]c(O)c(Cc2ccc(OS(=O)(=O)c3ccccc3)cc2)[nH]1

>  <score_type>  (80) 
oracle

>  <origin>  (80) 
adg

>  <m_score__min__energy>  (80) 
-14.32

>  <m_primary>  (80) 
energy

$$$$
80:0
     RDKit          3D

 52 55  0  0  0  0  0  0  0  0999 V2000
   58.9120   29.0570   46.8240 O   0  0  0  0  0  0  0  0  0  0  0  0
   57.9370   28.8210   46.0610 C   0  0  0  0  0  0  0  0  0  0  0  0
   57.0170   27.7650   46.3730 N   0  0  0  0  0  0  0  0  0  0  0  0
   57.0380   26.4270   45.8550 C   0  0  0  0  0  0  0  0  0  0  0  0
   55.8240   25.7400   45.7250 C   0  0  0  0  0  0  0  0  0  0  0  0
   55.7970   24.4410   45.2100 C   0  0  0  0  0  0  0  0  0  0  0  0
   56.9840   23.8190   44.8020 C   0  0  0  0  0  0  0  0  0  0  0  0
   56.9630   22.1730   44.1760 S   0  0  0  0  0  0  0  0  0  0  0  0
   58.3380   21.8170   43.6880 O   0  0  0  0  0  0  0  0  0  0  0  0
   56.0030   22.0560   43.0250 O   0  0  0  0  0  0  0  0  0  0  0  0
   56.5000   21.0700   45.4330 N   0  0  0  0  0  0  0  0  0  0  0  0
   56.1050   21.4420   46.6110 C   0  0  0  0  0  0  0  0  0  0  0  0
   54.7810   21.4700   46.9300 N   0  0  0  0  0  0  0  0  0  0  0  0
   54.3640   21.8630   48.1600 C   0  0  0  0  0  0  0  0  0  0  0  0
   55.2990   22.2450   49.1220 C   0  0  0  0  0  0  0  0  0  0  0  0
   56.6510   22.2100   48.7820 C   0  0  0  0  0  0  0  0  0  0  0  0
   57.0280   21.8130   47.5380 N   0  0  0  0  0  0  0  0  0  0  0  0
   58.1980   24.5090   44.9110 C   0  0  0  0  0  0  0  0  0  0  0  0
   58.2260   25.8090   45.4250 C   0  0  0  0  0  0  0  0  0  0  0  0
   57.6790   29.6960   44.8930 C   0  0  0  0  0  0  0  0  0  0  0  0
   56.9300   29.1830   43.8170 C   0  0  0  0  0  0  0  0  0  0  0  0
   56.6030   29.9910   42.7260 C   0  0  0  0  0  0  0  0  0  0  0  0
   57.0190   31.3210   42.6920 C   0  0  0  0  0  0  0  0  0  0  0  0
   57.7750   31.8440   43.7400 C   0  0  0  0  0  0  0  0  0  0  0  0
   58.1210   31.0450   44.8450 C   0  0  0  0  0  0  0  0  0  0  0  0
   58.9720   31.5830   45.8720 N   0  0  0  0  0  0  0  0  0  0  0  0
   59.1310   33.2870   46.1470 S   0  0  0  0  0  0  0  0  0  0  0  0
   59.2690   33.9950   44.8290 O   0  0  0  0  0  0  0  0  0  0  0  0
   57.9010   33.7970   46.8450 O   0  0  0  0  0  0  0  0  0  0  0  0
   60.5740   33.6000   47.1100 C   0  0  0  0  0  0  0  0  0  0  0  0
   61.8470   33.5480   46.5220 C   0  0  0  0  0  0  0  0  0  0  0  0
   62.9870   33.8200   47.2860 C   0  0  0  0  0  0  0  0  0  0  0  0
   62.8610   34.1440   48.6390 C   0  0  0  0  0  0  0  0  0  0  0  0
   61.5960   34.2000   49.2300 C   0  0  0  0  0  0  0  0  0  0  0  0
   60.4530   33.9290   48.4710 C   0  0  0  0  0  0  0  0  0  0  0  0
   59.2340   33.9910   49.0600 F   0  0  0  0  0  0  0  0  0  0  0  0
   54.8857   26.2262   46.0303 H   0  0  0  0  0  0  0  0  0  0  0  0
   54.8402   23.9051   45.1247 H   0  0  0  0  0  0  0  0  0  0  0  0
   53.2902   21.8803   48.3981 H   0  0  0  0  0  0  0  0  0  0  0  0
   54.9779   22.5659   50.1240 H   0  0  0  0  0  0  0  0  0  0  0  0
   57.4119   22.5035   49.5202 H   0  0  0  0  0  0  0  0  0  0  0  0
   59.1331   24.0262   44.5909 H   0  0  0  0  0  0  0  0  0  0  0  0
   59.1810   26.3506   45.4933 H   0  0  0  0  0  0  0  0  0  0  0  0
   56.5987   28.1342   43.8359 H   0  0  0  0  0  0  0  0  0  0  0  0
   56.0164   29.5774   41.8924 H   0  0  0  0  0  0  0  0  0  0  0  0
   56.7503   31.9588   41.8370 H   0  0  0  0  0  0  0  0  0  0  0  0
   58.1046   32.8928   43.7025 H   0  0  0  0  0  0  0  0  0  0  0  0
   59.4680   30.9400   46.5270 H   0  0  0  0  0  0  0  0  0  0  0  0
   61.9489   33.2926   45.4569 H   0  0  0  0  0  0  0  0  0  0  0  0
   63.9831   33.7787   46.8211 H   0  0  0  0  0  0  0  0  0  0  0  0
   63.7581   34.3552   49.2395 H   0  0  0  0  0  0  0  0  0  0  0  0
   61.4989   34.4579   50.2949 H   0  0  0  0  0  0  0  0  0  0  0  0
  1  2  2  0
  2  3  1  0
  3  4  1  0
  4  5  2  0
  5  6  1  0
  6  7  2  0
  7  8  1  0
  8  9  2  0
  8 10  2  0
  8 11  1  0
 11 12  2  3
 12 13  1  0
 13 14  2  0
 14 15  1  0
 15 16  2  0
 16 17  1  0
  7 18  1  0
 18 19  2  0
  2 20  1  0
 20 21  2  0
 21 22  1  0
 22 23  2  0
 23 24  1  0
 24 25  2  0
 25 26  1  0
 26 27  1  0
 27 28  2  0
 27 29  2  0
 27 30  1  0
 30 31  2  0
 31 32  1  0
 32 33  2  0
 33 34  1  0
 34 35  2  0
 35 36  1  0
 19  4  1  0
 25 20  1  0
 35 30  1  0
 17 12  1  0
  5 37  1  0
  6 38  1  0
 14 39  1  0
 15 40  1  0
 16 41  1  0
 18 42  1  0
 19 43  1  0
 21 44  1  0
 22 45  1  0
 23 46  1  0
 24 47  1  0
 26 48  1  0
 31 49  1  0
 32 50  1  0
 33 51  1  0
 34 52  1  0
M  CHG  2   3  -1  17  -1
M  END
>  <UniqueID>  (81) 
78

>  <SMILES>  (81) 
O=C([N-]c1ccc(S(=O)(=O)N=c2nccc[n-]2)cc1)c1ccccc1NS(=O)(=O)c1ccccc1F

>  <Energy>  (81) 
73.05799106871584

>  <Genealogy>  (81) 
O=C([N-]c1ccc(S(=O)(=O)N=c2nccc[n-]2)cc1)c1ccccc1NS(=O)(=O)c1ccccc1F (protonated)
O=C([N-]c1ccc(S(=O)(=O)N=c2nccc[n-]2)cc1)c1ccccc1NS(=O)(=O)c1ccccc1F (3D coordinates assigned)
O=C([N-]c1ccc(S(=O)(=O)N=c2nccc[n-]2)cc1)c1ccccc1NS(=O)(=O)c1ccccc1F (optimized conformer: 73.05799106871584 kcal/mol)

>  <smiles>  (81) 
O=C(Nc1ccc(S(=O)(=O)N=c2nccc[nH]2)cc1)c1ccccc1NS(=O)(=O)c1ccccc1F

>  <score_type>  (81) 
oracle

>  <origin>  (81) 
adg

>  <m_score__min__energy>  (81) 
-13.199999999999999

>  <m_primary>  (81) 
energy

$$$$
81:0
     RDKit          3D

 43 45  0  0  0  0  0  0  0  0999 V2000
   63.4200   33.8020   45.9810 N   0  0  0  0  0  0  0  0  0  0  0  0
   62.7070   33.8290   46.8930 C   0  0  0  0  0  0  0  0  0  0  0  0
   61.8170   33.8620   48.0270 C   0  0  0  0  0  0  0  0  0  0  0  0
   62.3600   33.8360   49.3190 C   0  0  0  0  0  0  0  0  0  0  0  0
   61.5190   33.7930   50.4350 C   0  0  0  0  0  0  0  0  0  0  0  0
   60.1330   33.7630   50.2660 C   0  0  0  0  0  0  0  0  0  0  0  0
   59.5830   33.7920   48.9810 C   0  0  0  0  0  0  0  0  0  0  0  0
   60.4140   33.8650   47.8570 C   0  0  0  0  0  0  0  0  0  0  0  0
   59.8230   33.9190   46.5860 O   0  0  0  0  0  0  0  0  0  0  0  0
   59.0600   32.8810   46.0330 C   0  0  0  0  0  0  0  0  0  0  0  0
   59.5480   31.5690   46.0990 C   0  0  0  0  0  0  0  0  0  0  0  0
   58.8310   30.5180   45.5160 C   0  0  0  0  0  0  0  0  0  0  0  0
   57.6080   30.7700   44.8810 C   0  0  0  0  0  0  0  0  0  0  0  0
   56.7350   29.4820   44.0590 S   0  0  0  0  0  0  0  0  0  0  0  0
   57.7120   28.6010   43.3330 O   0  0  0  0  0  0  0  0  0  0  0  0
   55.7490   30.0470   43.0740 O   0  0  0  0  0  0  0  0  0  0  0  0
   55.8870   28.5520   45.2460 N   0  0  0  0  0  0  0  0  0  0  0  0
   56.3480   27.2650   45.6590 C   0  0  0  0  0  0  0  0  0  0  0  0
   55.6150   26.5220   46.3650 O   0  0  0  0  0  0  0  0  0  0  0  0
   57.7470   26.8420   45.3440 C   0  0  0  0  0  0  0  0  0  0  0  0
   58.6560   27.2590   46.4680 C   0  0  0  0  0  0  0  0  0  0  0  0
   58.2290   28.2090   47.4110 C   0  0  0  0  0  0  0  0  0  0  0  0
   59.0400   28.5290   48.5060 C   0  0  0  0  0  0  0  0  0  0  0  0
   60.2800   27.9050   48.6660 C   0  0  0  0  0  0  0  0  0  0  0  0
   61.0610   28.2090   49.7320 F   0  0  0  0  0  0  0  0  0  0  0  0
   60.7130   26.9620   47.7300 C   0  0  0  0  0  0  0  0  0  0  0  0
   59.9020   26.6320   46.6390 C   0  0  0  0  0  0  0  0  0  0  0  0
   57.0930   32.0720   44.8610 C   0  0  0  0  0  0  0  0  0  0  0  0
   57.8140   33.1230   45.4290 C   0  0  0  0  0  0  0  0  0  0  0  0
   63.4514   33.8495   49.4553 H   0  0  0  0  0  0  0  0  0  0  0  0
   61.9494   33.7828   51.4472 H   0  0  0  0  0  0  0  0  0  0  0  0
   59.4733   33.7165   51.1450 H   0  0  0  0  0  0  0  0  0  0  0  0
   58.4911   33.7573   48.8525 H   0  0  0  0  0  0  0  0  0  0  0  0
   60.4994   31.3642   46.6116 H   0  0  0  0  0  0  0  0  0  0  0  0
   59.2282   29.4930   45.5564 H   0  0  0  0  0  0  0  0  0  0  0  0
   57.7833   25.7487   45.2280 H   0  0  0  0  0  0  0  0  0  0  0  0
   58.0748   27.3183   44.4082 H   0  0  0  0  0  0  0  0  0  0  0  0
   57.2539   28.7030   47.2883 H   0  0  0  0  0  0  0  0  0  0  0  0
   58.7007   29.2729   49.2418 H   0  0  0  0  0  0  0  0  0  0  0  0
   61.6935   26.4783   47.8513 H   0  0  0  0  0  0  0  0  0  0  0  0
   60.2408   25.8790   45.9123 H   0  0  0  0  0  0  0  0  0  0  0  0
   56.1157   32.2671   44.3954 H   0  0  0  0  0  0  0  0  0  0  0  0
   57.4060   34.1442   45.4040 H   0  0  0  0  0  0  0  0  0  0  0  0
  1  2  3  0
  2  3  1  0
  3  4  2  0
  4  5  1  0
  5  6  2  0
  6  7  1  0
  7  8  2  0
  8  9  1  0
  9 10  1  0
 10 11  2  0
 11 12  1  0
 12 13  2  0
 13 14  1  0
 14 15  2  0
 14 16  2  0
 14 17  1  0
 17 18  1  0
 18 19  2  0
 18 20  1  0
 20 21  1  0
 21 22  2  0
 22 23  1  0
 23 24  2  0
 24 25  1  0
 24 26  1  0
 26 27  2  0
 13 28  1  0
 28 29  2  0
  8  3  1  0
 29 10  1  0
 27 21  1  0
  4 30  1  0
  5 31  1  0
  6 32  1  0
  7 33  1  0
 11 34  1  0
 12 35  1  0
 20 36  1  0
 20 37  1  0
 22 38  1  0
 23 39  1  0
 26 40  1  0
 27 41  1  0
 28 42  1  0
 29 43  1  0
M  CHG  1  17  -1
M  END
>  <UniqueID>  (82) 
79

>  <SMILES>  (82) 
N#Cc1ccccc1Oc1ccc(S(=O)(=O)[N-]C(=O)Cc2ccc(F)cc2)cc1

>  <Energy>  (82) 
49.81440058584586

>  <Genealogy>  (82) 
N#Cc1ccccc1Oc1ccc(S(=O)(=O)[N-]C(=O)Cc2ccc(F)cc2)cc1 (protonated)
N#Cc1ccccc1Oc1ccc(S(=O)(=O)[N-]C(=O)Cc2ccc(F)cc2)cc1 (3D coordinates assigned)
N#Cc1ccccc1Oc1ccc(S(=O)(=O)[N-]C(=O)Cc2ccc(F)cc2)cc1 (optimized conformer: 49.81440058584586 kcal/mol)

>  <smiles>  (82) 
N#Cc1ccccc1Oc1ccc(S(=O)(=O)NC(=O)Cc2ccc(F)cc2)cc1

>  <score_type>  (82) 
oracle

>  <origin>  (82) 
adg

>  <m_score__min__energy>  (82) 
-10.73

>  <m_primary>  (82) 
energy

$$$$
82:0
     RDKit          3D

 55 58  0  0  0  0  0  0  0  0999 V2000
   55.2650   29.4480   44.8770 N   0  0  0  0  0  0  0  0  0  0  0  0
   56.2260   29.7710   43.8730 C   0  0  0  0  0  0  0  0  0  0  0  0
   56.4090   28.9690   42.9180 O   0  0  0  0  0  0  0  0  0  0  0  0
   57.0000   31.0320   43.9500 C   0  0  0  0  0  0  0  0  0  0  0  0
   57.5080   31.6340   42.7850 C   0  0  0  0  0  0  0  0  0  0  0  0
   58.2380   32.8230   42.8620 C   0  0  0  0  0  0  0  0  0  0  0  0
   58.4710   33.4260   44.0980 C   0  0  0  0  0  0  0  0  0  0  0  0
   57.9750   32.8420   45.2730 C   0  0  0  0  0  0  0  0  0  0  0  0
   58.2330   33.4780   46.6150 C   0  0  0  0  0  0  0  0  0  0  0  0
   59.6700   33.7840   46.7720 N   0  0  0  0  0  0  0  0  0  0  0  0
   59.9770   34.2520   48.1400 C   0  0  0  0  0  0  0  0  0  0  0  0
   59.2120   33.3970   49.1450 C   0  0  0  0  0  0  0  0  0  0  0  0
   59.8260   32.1230   49.3350 O   0  0  0  0  0  0  0  0  0  0  0  0
   59.7410   31.0900   48.3980 C   0  0  0  0  0  0  0  0  0  0  0  0
   59.4160   29.8130   48.8650 C   0  0  0  0  0  0  0  0  0  0  0  0
   59.2850   28.7420   47.9800 C   0  0  0  0  0  0  0  0  0  0  0  0
   59.4850   28.9300   46.6040 C   0  0  0  0  0  0  0  0  0  0  0  0
   59.3520   27.8020   45.6500 C   0  0  0  0  0  0  0  0  0  0  0  0
   60.2660   26.9340   45.5900 O   0  0  0  0  0  0  0  0  0  0  0  0
   58.2110   27.6930   44.7830 N   0  0  0  0  0  0  0  0  0  0  0  0
   58.0250   26.5620   43.8770 C   0  0  0  0  0  0  0  0  0  0  0  0
   57.2400   25.4730   44.5550 C   0  0  0  0  0  0  0  0  0  0  0  0
   56.9520   24.2830   43.8670 C   0  0  0  0  0  0  0  0  0  0  0  0
   56.2400   23.2590   44.4990 C   0  0  0  0  0  0  0  0  0  0  0  0
   55.8160   23.4140   45.8220 C   0  0  0  0  0  0  0  0  0  0  0  0
   56.1030   24.5920   46.5140 C   0  0  0  0  0  0  0  0  0  0  0  0
   56.8140   25.6200   45.8870 C   0  0  0  0  0  0  0  0  0  0  0  0
   59.8520   30.2040   46.1380 C   0  0  0  0  0  0  0  0  0  0  0  0
   59.9870   31.2940   47.0180 C   0  0  0  0  0  0  0  0  0  0  0  0
   60.4850   32.6010   46.4220 C   0  0  0  0  0  0  0  0  0  0  0  0
   57.2400   31.6480   45.1940 C   0  0  0  0  0  0  0  0  0  0  0  0
   55.3840   28.6060   45.4810 H   0  0  0  0  0  0  0  0  0  0  0  0
   57.3294   31.1654   41.8059 H   0  0  0  0  0  0  0  0  0  0  0  0
   58.6305   33.2853   41.9443 H   0  0  0  0  0  0  0  0  0  0  0  0
   59.0455   34.3625   44.1515 H   0  0  0  0  0  0  0  0  0  0  0  0
   57.6535   34.4098   46.6920 H   0  0  0  0  0  0  0  0  0  0  0  0
   57.9288   32.7773   47.4065 H   0  0  0  0  0  0  0  0  0  0  0  0
   61.0573   34.1611   48.3264 H   0  0  0  0  0  0  0  0  0  0  0  0
   59.6777   35.3051   48.2466 H   0  0  0  0  0  0  0  0  0  0  0  0
   59.1809   33.9244   50.1098 H   0  0  0  0  0  0  0  0  0  0  0  0
   58.1984   33.2319   48.7508 H   0  0  0  0  0  0  0  0  0  0  0  0
   59.2618   29.6506   49.9420 H   0  0  0  0  0  0  0  0  0  0  0  0
   59.0234   27.7447   48.3633 H   0  0  0  0  0  0  0  0  0  0  0  0
   57.5170   28.4710   44.7330 H   0  0  0  0  0  0  0  0  0  0  0  0
   57.4801   26.8992   42.9829 H   0  0  0  0  0  0  0  0  0  0  0  0
   59.0110   26.1670   43.5910 H   0  0  0  0  0  0  0  0  0  0  0  0
   57.2878   24.1561   42.8272 H   0  0  0  0  0  0  0  0  0  0  0  0
   56.0133   22.3305   43.9546 H   0  0  0  0  0  0  0  0  0  0  0  0
   55.2560   22.6075   46.3180 H   0  0  0  0  0  0  0  0  0  0  0  0
   55.7690   24.7119   47.5552 H   0  0  0  0  0  0  0  0  0  0  0  0
   57.0405   26.5454   46.4368 H   0  0  0  0  0  0  0  0  0  0  0  0
   60.0375   30.3522   45.0639 H   0  0  0  0  0  0  0  0  0  0  0  0
   61.5111   32.7727   46.7793 H   0  0  0  0  0  0  0  0  0  0  0  0
   60.4231   32.4904   45.3293 H   0  0  0  0  0  0  0  0  0  0  0  0
   56.8475   31.1888   46.1133 H   0  0  0  0  0  0  0  0  0  0  0  0
  1  2  1  0
  2  3  2  0
  2  4  1  0
  4  5  2  0
  5  6  1  0
  6  7  2  0
  7  8  1  0
  8  9  1  0
  9 10  1  0
 10 11  1  0
 11 12  1  0
 12 13  1  0
 13 14  1  0
 14 15  2  0
 15 16  1  0
 16 17  2  0
 17 18  1  0
 18 19  2  0
 18 20  1  0
 20 21  1  0
 21 22  1  0
 22 23  2  0
 23 24  1  0
 24 25  2  0
 25 26  1  0
 26 27  2  0
 17 28  1  0
 28 29  2  0
 29 30  1  0
  8 31  2  0
 31  4  1  0
 30 10  1  0
 29 14  1  0
 27 22  1  0
  1 32  1  0
  5 33  1  0
  6 34  1  0
  7 35  1  0
  9 36  1  0
  9 37  1  0
 11 38  1  0
 11 39  1  0
 12 40  1  0
 12 41  1  0
 15 42  1  0
 16 43  1  0
 20 44  1  0
 21 45  1  0
 21 46  1  0
 23 47  1  0
 24 48  1  0
 25 49  1  0
 26 50  1  0
 27 51  1  0
 28 52  1  0
 30 53  1  0
 30 54  1  0
 31 55  1  0
M  CHG  1   1  -1
M  END
>  <UniqueID>  (83) 
80

>  <SMILES>  (83) 
[NH-]C(=O)c1cccc(CN2CCOc3ccc(C(=O)NCc4ccccc4)cc3C2)c1

>  <Energy>  (83) 
74.15796061501908

>  <Genealogy>  (83) 
[NH-]C(=O)c1cccc(CN2CCOc3ccc(C(=O)NCc4ccccc4)cc3C2)c1 (protonated)
[NH-]C(=O)c1cccc(CN2CCOc3ccc(C(=O)NCc4ccccc4)cc3C2)c1 (3D coordinates assigned)
[NH-]C(=O)c1cccc(CN2CCOc3ccc(C(=O)NCc4ccccc4)cc3C2)c1 (nonaromatic ring conformer: 74.15796061501908 kcal/mol)

>  <smiles>  (83) 
NC(=O)c1cccc(CN2CCOc3ccc(C(=O)NCc4ccccc4)cc3C2)c1

>  <score_type>  (83) 
oracle

>  <origin>  (83) 
adg

>  <m_score__min__energy>  (83) 
-10.92

>  <m_primary>  (83) 
energy

$$$$
83:0
     RDKit          3D

 47 49  0  0  0  0  0  0  0  0999 V2000
   59.0780   27.6097   44.4250 H   0  0  0  0  0  0  0  0  0  0  0  0
   58.5180   29.0310   45.8690 C   0  0  0  0  0  0  0  0  0  0  0  0
   57.0840   30.6750   44.7850 N   0  0  0  0  0  0  0  0  0  0  0  0
   56.5910   31.9400   45.0240 O   0  0  0  0  0  0  0  0  0  0  0  0
   57.3530   33.0910   44.6940 C   0  0  0  0  0  0  0  0  0  0  0  0
   56.6764   33.9442   44.5386 H   0  0  0  0  0  0  0  0  0  0  0  0
   57.9232   32.8964   43.7736 H   0  0  0  0  0  0  0  0  0  0  0  0
   58.3080   33.4090   45.8100 C   0  0  0  0  0  0  0  0  0  0  0  0
   58.0230   33.0100   47.1250 C   0  0  0  0  0  0  0  0  0  0  0  0
   57.1106   32.4334   47.3374 H   0  0  0  0  0  0  0  0  0  0  0  0
   58.8950   33.3430   48.1660 C   0  0  0  0  0  0  0  0  0  0  0  0
   58.6754   33.0108   49.1914 H   0  0  0  0  0  0  0  0  0  0  0  0
   60.0490   34.0990   47.9090 C   0  0  0  0  0  0  0  0  0  0  0  0
   61.0010   34.4230   49.0210 C   0  0  0  0  0  0  0  0  0  0  0  0
   60.5056   34.2544   49.9886 H   0  0  0  0  0  0  0  0  0  0  0  0
   61.8873   33.7759   48.9451 H   0  0  0  0  0  0  0  0  0  0  0  0
   61.3085   35.4764   48.9451 H   0  0  0  0  0  0  0  0  0  0  0  0
   60.3340   34.4960   46.5930 C   0  0  0  0  0  0  0  0  0  0  0  0
   61.2470   35.0713   46.3797 H   0  0  0  0  0  0  0  0  0  0  0  0
   59.4620   34.1630   45.5530 C   0  0  0  0  0  0  0  0  0  0  0  0
   59.6820   34.4941   44.5274 H   0  0  0  0  0  0  0  0  0  0  0  0
   58.3940   27.8330   45.2570 C   0  0  0  0  0  0  0  0  0  0  0  0
   58.9600   29.0970   47.2810 C   0  0  0  0  0  0  0  0  0  0  0  0
   58.3330   28.4260   48.1440 O   0  0  0  0  0  0  0  0  0  0  0  0
   60.1290   29.9070   47.7080 C   0  0  0  0  0  0  0  0  0  0  0  0
   61.0040   30.4430   46.7460 C   0  0  0  0  0  0  0  0  0  0  0  0
   60.8265   30.2497   45.6778 H   0  0  0  0  0  0  0  0  0  0  0  0
   62.0980   31.2200   47.1390 C   0  0  0  0  0  0  0  0  0  0  0  0
   62.7819   31.6288   46.3806 H   0  0  0  0  0  0  0  0  0  0  0  0
   62.3240   31.4780   48.4930 C   0  0  0  0  0  0  0  0  0  0  0  0
   63.1877   32.0859   48.8004 H   0  0  0  0  0  0  0  0  0  0  0  0
   61.4530   30.9640   49.4570 C   0  0  0  0  0  0  0  0  0  0  0  0
   61.6290   31.1717   50.5228 H   0  0  0  0  0  0  0  0  0  0  0  0
   60.3580   30.1860   49.0690 C   0  0  0  0  0  0  0  0  0  0  0  0
   59.6714   29.7895   49.8315 H   0  0  0  0  0  0  0  0  0  0  0  0
   58.2680   30.3120   45.1700 C   0  0  0  0  0  0  0  0  0  0  0  0
   59.1181   30.9807   44.9698 H   0  0  0  0  0  0  0  0  0  0  0  0
   57.4010   26.8000   45.6290 C   0  0  0  0  0  0  0  0  0  0  0  0
   56.0180   27.0640   45.6230 C   0  0  0  0  0  0  0  0  0  0  0  0
   55.5330   28.3090   45.2410 O   0  0  0  0  0  0  0  0  0  0  0  0
   55.1380   26.0890   45.9750 N   0  0  0  0  0  0  0  0  0  0  0  0
   55.5480   24.8410   46.3190 C   0  0  0  0  0  0  0  0  0  0  0  0
   54.6980   23.9700   46.6440 O   0  0  0  0  0  0  0  0  0  0  0  0
   56.9080   24.5240   46.3080 C   0  0  0  0  0  0  0  0  0  0  0  0
   57.2441   23.5114   46.5758 H   0  0  0  0  0  0  0  0  0  0  0  0
   57.8370   25.5040   45.9540 C   0  0  0  0  0  0  0  0  0  0  0  0
   59.1920   25.1900   45.9440 O   0  0  0  0  0  0  0  0  0  0  0  0
  1  2  1  0
  2  3  2  0
  3  4  1  0
  4  5  1  0
  5  6  1  0
  5  7  1  0
  5  8  1  0
  8  9  2  0
  9 10  1  0
  9 11  1  0
 11 12  1  0
 11 13  2  0
 13 14  1  0
 14 15  1  0
 14 16  1  0
 14 17  1  0
 13 18  1  0
 18 19  1  0
 18 20  2  0
 20 21  1  0
  2 22  1  0
 22 23  1  0
 23 24  2  0
 23 25  1  0
 25 26  2  0
 26 27  1  0
 26 28  1  0
 28 29  1  0
 28 30  2  0
 30 31  1  0
 30 32  1  0
 32 33  1  0
 32 34  2  0
 34 35  1  0
 22 36  2  0
 36 37  1  0
 36 38  1  0
 38 39  2  0
 39 40  1  0
 39 41  1  0
 41 42  1  0
 42 43  2  0
 42 44  1  0
 44 45  1  0
 44 46  2  0
 46 47  1  0
 20  8  1  0
 34 25  1  0
 46 38  1  0
M  CHG  3  40  -1  41  -1  47  -1
M  END
>  <UniqueID>  (84) 
81

>  <SMILES>  (84) 
Cc1ccc(CON=C/C(=C\c2c([O-])cc(=O)[n-]c2[O-])C(=O)c2ccccc2)cc1

>  <Energy>  (84) 
64.56362882319286

>  <Genealogy>  (84) 
Cc1ccc(CON=CC(=Cc2c([O-])cc(=O)[n-]c2[O-])C(=O)c2ccccc2)cc1 (protonated)
Cc1ccc(CON=C/C(=C\c2c([O-])cc(=O)[n-]c2[O-])C(=O)c2ccccc2)cc1 (cis-trans isomerization)
Cc1ccc(CON=C/C(=C\c2c([O-])cc(=O)[n-]c2[O-])C(=O)c2ccccc2)cc1 (3D coordinates assigned)
Cc1ccc(CON=C/C(=C\c2c([O-])cc(=O)[n-]c2[O-])C(=O)c2ccccc2)cc1 (optimized conformer: 64.56362882319286 kcal/mol)

>  <smiles>  (84) 
Cc1ccc(CON=CC(=Cc2c(O)cc(=O)[nH]c2O)C(=O)c2ccccc2)cc1

>  <score_type>  (84) 
oracle

>  <origin>  (84) 
adg

>  <m_score__min__energy>  (84) 
-16.149999999999999

>  <m_primary>  (84) 
energy

$$$$
84:0
     RDKit          3D

 38 41  0  0  0  0  0  0  0  0999 V2000
   60.3380   35.2310   45.8090 H   0  0  0  0  0  0  0  0  0  0  0  0
   59.4290   35.1500   45.3690 O   0  0  0  0  0  0  0  0  0  0  0  0
   58.8600   33.9250   45.0190 C   0  0  0  0  0  0  0  0  0  0  0  0
   58.7330   33.6230   43.7070 N   0  0  0  0  0  0  0  0  0  0  0  0
   58.2060   32.4490   43.2850 C   0  0  0  0  0  0  0  0  0  0  0  0
   58.1310   32.2350   42.0440 O   0  0  0  0  0  0  0  0  0  0  0  0
   57.7630   31.5130   44.1930 N   0  0  0  0  0  0  0  0  0  0  0  0
   57.1900   30.2140   43.7400 C   0  0  2  0  0  0  0  0  0  0  0  0
   57.3779   30.1811   42.6567 H   0  0  0  0  0  0  0  0  0  0  0  0
   55.6690   30.1180   44.0230 C   0  0  0  0  0  0  0  0  0  0  0  0
   55.3184   31.0300   44.5283 H   0  0  0  0  0  0  0  0  0  0  0  0
   55.0968   30.0147   43.0892 H   0  0  0  0  0  0  0  0  0  0  0  0
   55.4810   28.9650   44.8830 N   0  0  0  0  0  0  0  0  0  0  0  0
   56.7280   28.3370   45.0990 C   0  0  0  0  0  0  0  0  0  0  0  0
   56.8470   27.3010   45.8030 O   0  0  0  0  0  0  0  0  0  0  0  0
   57.8610   29.0080   44.4310 C   0  0  0  0  0  0  0  0  0  0  0  0
   58.6121   29.3392   45.1632 H   0  0  0  0  0  0  0  0  0  0  0  0
   58.4023   28.3533   43.7322 H   0  0  0  0  0  0  0  0  0  0  0  0
   57.8560   31.7940   45.5380 C   0  0  0  0  0  0  0  0  0  0  0  0
   57.4060   30.9810   46.3930 O   0  0  0  0  0  0  0  0  0  0  0  0
   58.4380   32.9980   45.9820 C   0  0  0  0  0  0  0  0  0  0  0  0
   58.5660   33.3030   47.4270 C   0  0  0  0  0  0  0  0  0  0  0  0
   57.9456   32.7259   48.1284 H   0  0  0  0  0  0  0  0  0  0  0  0
   59.3850   34.2330   47.9390 C   0  0  0  0  0  0  0  0  0  0  0  0
   59.0698   35.2841   47.8632 H   0  0  0  0  0  0  0  0  0  0  0  0
   60.6820   33.9540   48.5990 C   0  0  0  0  0  0  0  0  0  0  0  0
   60.7940   33.7360   49.9930 C   0  0  0  0  0  0  0  0  0  0  0  0
   59.8952   33.7794   50.6257 H   0  0  0  0  0  0  0  0  0  0  0  0
   62.0510   33.4630   50.5790 C   0  0  0  0  0  0  0  0  0  0  0  0
   62.1258   33.3121   51.6660 H   0  0  0  0  0  0  0  0  0  0  0  0
   63.2060   33.3830   49.7820 C   0  0  0  0  0  0  0  0  0  0  0  0
   64.1909   33.1766   50.2262 H   0  0  0  0  0  0  0  0  0  0  0  0
   63.0600   33.5740   48.4110 C   0  0  0  0  0  0  0  0  0  0  0  0
   64.0180   33.5370   47.4730 N   0  0  0  0  0  0  0  0  0  0  0  0
   63.3270   33.7920   46.3330 C   0  0  0  0  0  0  0  0  0  0  0  0
   63.8059   33.8378   45.3438 H   0  0  0  0  0  0  0  0  0  0  0  0
   61.9950   33.9860   46.5150 N   0  0  0  0  0  0  0  0  0  0  0  0
   61.8520   33.8400   47.8420 C   0  0  0  0  0  0  0  0  0  0  0  0
  1  2  1  0
  2  3  1  0
  3  4  1  0
  4  5  1  0
  5  6  2  0
  5  7  1  0
  7  8  1  0
  8  9  1  6
  8 10  1  0
 10 11  1  0
 10 12  1  0
 10 13  1  0
 13 14  1  0
 14 15  2  0
 14 16  1  0
 16 17  1  0
 16 18  1  0
  7 19  1  0
 19 20  2  0
 19 21  1  0
 21 22  1  0
 22 23  1  0
 22 24  2  0
 24 25  1  0
 24 26  1  0
 26 27  2  0
 27 28  1  0
 27 29  1  0
 29 30  1  0
 29 31  2  0
 31 32  1  0
 31 33  1  0
 33 34  1  0
 34 35  1  0
 35 36  1  0
 35 37  2  0
 37 38  1  0
 21  3  2  0
 38 26  1  0
 16  8  1  0
 38 33  2  0
M  CHG  3   4  -1  13  -1  34  -1
M  END
>  <UniqueID>  (85) 
82

>  <SMILES>  (85) 
O=C1C[C@H](n2c(=O)[n-]c(O)c(/C=C\c3cccc4[n-]cnc34)c2=O)C[N-]1

>  <Energy>  (85) 
104.47530612956808

>  <Genealogy>  (85) 
O=C1CC(n2c(=O)[n-]c(O)c(C=Cc3cccc4[n-]cnc34)c2=O)C[N-]1 (protonated)
O=C1C[C@H](n2c(=O)[n-]c(O)c(C=Cc3cccc4[n-]cnc34)c2=O)C[N-]1 (chirality)
O=C1C[C@H](n2c(=O)[n-]c(O)c(/C=C\c3cccc4[n-]cnc34)c2=O)C[N-]1 (cis-trans isomerization)
O=C1C[C@H](n2c(=O)[n-]c(O)c(/C=C\c3cccc4[n-]cnc34)c2=O)C[N-]1 (3D coordinates assigned)
O=C1C[C@H](n2c(=O)[n-]c(O)c(/C=C\c3cccc4[n-]cnc34)c2=O)C[N-]1 (nonaromatic ring conformer: 104.47530612956808 kcal/mol)

>  <smiles>  (85) 
O=C1CC(n2c(=O)[nH]c(O)c(C=Cc3cccc4[nH]cnc34)c2=O)CN1

>  <score_type>  (85) 
oracle

>  <origin>  (85) 
adg

>  <m_score__min__energy>  (85) 
-12.68

>  <m_primary>  (85) 
energy

$$$$
85:0
     RDKit          3D

 50 51  0  0  0  0  0  0  0  0999 V2000
   59.9230   28.7790   44.5880 C   0  0  0  0  0  0  0  0  0  0  0  0
   58.4770   28.8610   44.8310 C   0  0  0  0  0  0  0  0  0  0  0  0
   57.7900   30.0140   44.5470 C   0  0  0  0  0  0  0  0  0  0  0  0
   58.3860   31.2660   44.0520 C   0  0  0  0  0  0  0  0  0  0  0  0
   58.6710   32.2640   45.1150 C   0  0  0  0  0  0  0  0  0  0  0  0
   58.1260   33.5350   44.9000 C   0  0  0  0  0  0  0  0  0  0  0  0
   58.3090   34.5690   45.7900 C   0  0  0  0  0  0  0  0  0  0  0  0
   59.0580   34.3010   46.9140 C   0  0  0  0  0  0  0  0  0  0  0  0
   59.2450   35.3480   47.8180 O   0  0  0  0  0  0  0  0  0  0  0  0
   59.6140   33.0430   47.1590 C   0  0  0  0  0  0  0  0  0  0  0  0
   60.3950   32.9080   48.3970 C   0  0  0  0  0  0  0  0  0  0  0  0
   59.5170   32.9910   49.5780 C   0  0  0  0  0  0  0  0  0  0  0  0
   59.3270   34.0200   50.2660 O   0  0  0  0  0  0  0  0  0  0  0  0
   58.8020   31.8170   50.0080 N   0  0  0  0  0  0  0  0  0  0  0  0
   57.9290   31.8090   51.1510 C   0  0  0  0  0  0  0  0  0  0  0  0
   58.9450   30.5720   49.2680 C   0  0  0  0  0  0  0  0  0  0  0  0
   59.4000   32.0480   46.2360 C   0  0  0  0  0  0  0  0  0  0  0  0
   56.4520   29.9900   44.7770 N   0  0  0  0  0  0  0  0  0  0  0  0
   55.8300   28.9300   45.2470 N   0  0  0  0  0  0  0  0  0  0  0  0
   56.4830   27.7660   45.5410 C   0  0  0  0  0  0  0  0  0  0  0  0
   55.7970   26.8210   45.9820 O   0  0  0  0  0  0  0  0  0  0  0  0
   57.8460   27.7140   45.3320 C   0  0  0  0  0  0  0  0  0  0  0  0
   58.5810   26.4740   45.6420 C   0  0  0  0  0  0  0  0  0  0  0  0
   57.9670   25.2710   44.9700 C   0  0  0  0  0  0  0  0  0  0  0  0
   58.6050   26.3070   47.1510 C   0  0  0  0  0  0  0  0  0  0  0  0
   60.4554   28.7488   45.5501 H   0  0  0  0  0  0  0  0  0  0  0  0
   60.1475   27.8667   44.0159 H   0  0  0  0  0  0  0  0  0  0  0  0
   60.2492   29.6601   44.0159 H   0  0  0  0  0  0  0  0  0  0  0  0
   59.3312   31.0218   43.5450 H   0  0  0  0  0  0  0  0  0  0  0  0
   57.6477   31.7236   43.3771 H   0  0  0  0  0  0  0  0  0  0  0  0
   57.5327   33.7133   43.9911 H   0  0  0  0  0  0  0  0  0  0  0  0
   57.8764   35.5645   45.6114 H   0  0  0  0  0  0  0  0  0  0  0  0
   58.9510   35.2150   48.7670 H   0  0  0  0  0  0  0  0  0  0  0  0
   60.9081   31.9350   48.3961 H   0  0  0  0  0  0  0  0  0  0  0  0
   61.1288   33.7261   48.4434 H   0  0  0  0  0  0  0  0  0  0  0  0
   58.5306   31.8145   52.0719 H   0  0  0  0  0  0  0  0  0  0  0  0
   57.2861   32.7013   51.1276 H   0  0  0  0  0  0  0  0  0  0  0  0
   57.3026   30.9051   51.1276 H   0  0  0  0  0  0  0  0  0  0  0  0
   59.0412   29.7345   49.9746 H   0  0  0  0  0  0  0  0  0  0  0  0
   58.0587   30.4178   48.6351 H   0  0  0  0  0  0  0  0  0  0  0  0
   59.8432   30.6228   48.6351 H   0  0  0  0  0  0  0  0  0  0  0  0
   59.8313   31.0515   46.4117 H   0  0  0  0  0  0  0  0  0  0  0  0
   54.7780   28.9680   45.4080 H   0  0  0  0  0  0  0  0  0  0  0  0
   59.6068   26.5506   45.2522 H   0  0  0  0  0  0  0  0  0  0  0  0
   57.6077   24.5671   45.7352 H   0  0  0  0  0  0  0  0  0  0  0  0
   57.1228   25.5926   44.3424 H   0  0  0  0  0  0  0  0  0  0  0  0
   58.7227   24.7760   44.3424 H   0  0  0  0  0  0  0  0  0  0  0  0
   58.4642   27.2869   47.6306 H   0  0  0  0  0  0  0  0  0  0  0  0
   57.7951   25.6288   47.4578 H   0  0  0  0  0  0  0  0  0  0  0  0
   59.5731   25.8843   47.4578 H   0  0  0  0  0  0  0  0  0  0  0  0
  1  2  1  0
  2  3  1  0
  3  4  1  0
  4  5  1  0
  5  6  2  0
  6  7  1  0
  7  8  2  0
  8  9  1  0
  8 10  1  0
 10 11  1  0
 11 12  1  0
 12 13  2  0
 12 14  1  0
 14 15  1  0
 14 16  1  0
 10 17  2  0
  3 18  2  0
 18 19  1  0
 19 20  1  0
 20 21  2  0
 20 22  1  0
 22 23  1  0
 23 24  1  0
 23 25  1  0
 22  2  2  0
 17  5  1  0
  1 26  1  0
  1 27  1  0
  1 28  1  0
  4 29  1  0
  4 30  1  0
  6 31  1  0
  7 32  1  0
  9 33  1  0
 11 34  1  0
 11 35  1  0
 15 36  1  0
 15 37  1  0
 15 38  1  0
 16 39  1  0
 16 40  1  0
 16 41  1  0
 17 42  1  0
 19 43  1  0
 23 44  1  0
 24 45  1  0
 24 46  1  0
 24 47  1  0
 25 48  1  0
 25 49  1  0
 25 50  1  0
M  END
>  <smiles>  (86) 
Cc1c(Cc2ccc(O)c(CC(=O)N(C)C)c2)n[nH]c(=O)c1C(C)C

>  <score_type>  (86) 
oracle

>  <origin>  (86) 
adg

>  <m_score__min__energy>  (86) 
-8.5500000000000007

>  <m_primary>  (86) 
energy

$$$$
86:0
     RDKit          3D

 43 45  0  0  0  0  0  0  0  0999 V2000
   55.5210   29.0000   44.9130 O   0  0  0  0  0  0  0  0  0  0  0  0
   56.4700   29.7460   44.5530 C   0  0  0  0  0  0  0  0  0  0  0  0
   57.7640   29.1560   44.1450 C   0  0  0  0  0  0  0  0  0  0  0  0
   58.9370   29.6470   44.5670 C   0  0  0  0  0  0  0  0  0  0  0  0
   59.3940   29.5740   45.9750 C   0  0  0  0  0  0  0  0  0  0  0  0
   58.5770   28.9390   46.9230 C   0  0  0  0  0  0  0  0  0  0  0  0
   58.9870   28.8430   48.2550 C   0  0  0  0  0  0  0  0  0  0  0  0
   60.2200   29.3740   48.6310 C   0  0  0  0  0  0  0  0  0  0  0  0
   61.0150   29.9700   47.7030 N   0  0  0  0  0  0  0  0  0  0  0  0
   60.6390   30.0800   46.4010 C   0  0  0  0  0  0  0  0  0  0  0  0
   56.2880   31.1670   44.6110 N   0  0  0  0  0  0  0  0  0  0  0  0
   57.2990   32.1400   44.9080 C   0  0  0  0  0  0  0  0  0  0  0  0
   57.8350   32.9000   43.8610 C   0  0  0  0  0  0  0  0  0  0  0  0
   58.8310   33.8470   44.1150 C   0  0  0  0  0  0  0  0  0  0  0  0
   59.3100   34.0290   45.4150 C   0  0  0  0  0  0  0  0  0  0  0  0
   58.8100   33.2490   46.4670 C   0  0  0  0  0  0  0  0  0  0  0  0
   59.4170   33.4740   48.1120 S   0  0  0  0  0  0  0  0  0  0  0  0
   59.2880   34.9240   48.4860 O   0  0  0  0  0  0  0  0  0  0  0  0
   58.5670   32.6730   49.0580 O   0  0  0  0  0  0  0  0  0  0  0  0
   61.0850   32.9860   48.2950 N   0  0  0  0  0  0  0  0  0  0  0  0
   61.8350   33.1090   47.0460 C   0  0  0  0  0  0  0  0  0  0  0  0
   63.2940   33.2730   47.4400 C   0  0  0  0  0  0  0  0  0  0  0  0
   63.2700   33.7490   48.8850 C   0  0  0  0  0  0  0  0  0  0  0  0
   61.7980   33.8170   49.2630 C   0  0  0  0  0  0  0  0  0  0  0  0
   57.8090   32.3020   46.2090 C   0  0  0  0  0  0  0  0  0  0  0  0
   57.7630   28.2853   43.4728 H   0  0  0  0  0  0  0  0  0  0  0  0
   59.5954   30.1296   43.8298 H   0  0  0  0  0  0  0  0  0  0  0  0
   57.6096   28.5150   46.6159 H   0  0  0  0  0  0  0  0  0  0  0  0
   58.3430   28.3531   49.0002 H   0  0  0  0  0  0  0  0  0  0  0  0
   60.5497   29.3108   49.6785 H   0  0  0  0  0  0  0  0  0  0  0  0
   61.3093   30.5660   45.6767 H   0  0  0  0  0  0  0  0  0  0  0  0
   57.4704   32.7510   42.8339 H   0  0  0  0  0  0  0  0  0  0  0  0
   59.2385   34.4500   43.2902 H   0  0  0  0  0  0  0  0  0  0  0  0
   60.0821   34.7869   45.6136 H   0  0  0  0  0  0  0  0  0  0  0  0
   61.7052   32.2050   46.4329 H   0  0  0  0  0  0  0  0  0  0  0  0
   61.4828   33.9640   46.4502 H   0  0  0  0  0  0  0  0  0  0  0  0
   63.8248   32.3129   47.3596 H   0  0  0  0  0  0  0  0  0  0  0  0
   63.8182   33.9831   46.7835 H   0  0  0  0  0  0  0  0  0  0  0  0
   63.8015   33.0372   49.5337 H   0  0  0  0  0  0  0  0  0  0  0  0
   63.7684   34.7224   49.0036 H   0  0  0  0  0  0  0  0  0  0  0  0
   61.6483   33.4286   50.2812 H   0  0  0  0  0  0  0  0  0  0  0  0
   61.4295   34.8533   49.2471 H   0  0  0  0  0  0  0  0  0  0  0  0
   57.4197   31.6814   47.0295 H   0  0  0  0  0  0  0  0  0  0  0  0
  1  2  2  0
  2  3  1  0
  3  4  2  3
  4  5  1  0
  5  6  2  0
  6  7  1  0
  7  8  2  0
  8  9  1  0
  9 10  2  0
  2 11  1  0
 11 12  1  0
 12 13  2  0
 13 14  1  0
 14 15  2  0
 15 16  1  0
 16 17  1  0
 17 18  2  0
 17 19  2  0
 17 20  1  0
 20 21  1  0
 21 22  1  0
 22 23  1  0
 23 24  1  0
 16 25  2  0
 10  5  1  0
 25 12  1  0
 24 20  1  0
  3 26  1  0
  4 27  1  0
  6 28  1  0
  7 29  1  0
  8 30  1  0
 10 31  1  0
 13 32  1  0
 14 33  1  0
 15 34  1  0
 21 35  1  0
 21 36  1  0
 22 37  1  0
 22 38  1  0
 23 39  1  0
 23 40  1  0
 24 41  1  0
 24 42  1  0
 25 43  1  0
M  CHG  1  11  -1
M  END
>  <UniqueID>  (87) 
83

>  <SMILES>  (87) 
O=C(C=Cc1cccnc1)[N-]c1cccc(S(=O)(=O)N2CCCC2)c1

>  <Energy>  (87) 
51.712338353209226

>  <Genealogy>  (87) 
O=C(C=Cc1cccnc1)[N-]c1cccc(S(=O)(=O)N2CCCC2)c1 (protonated)
O=C(C=Cc1cccnc1)[N-]c1cccc(S(=O)(=O)N2CCCC2)c1 (3D coordinates assigned)
O=C(C=Cc1cccnc1)[N-]c1cccc(S(=O)(=O)N2CCCC2)c1 (nonaromatic ring conformer: 51.712338353209226 kcal/mol)

>  <smiles>  (87) 
O=C(C=Cc1cccnc1)Nc1cccc(S(=O)(=O)N2CCCC2)c1

>  <score_type>  (87) 
oracle

>  <origin>  (87) 
adg

>  <m_score__min__energy>  (87) 
-11.140000000000001

>  <m_primary>  (87) 
energy

$$$$
87:0
     RDKit          3D

 55 58  0  0  0  0  0  0  0  0999 V2000
   51.1970   24.4640   44.7040 N   0  0  0  0  0  0  0  0  0  0  0  0
   52.1950   23.5090   45.0820 C   0  0  0  0  0  0  0  0  0  0  0  0
   51.8350   22.3210   45.3040 O   0  0  0  0  0  0  0  0  0  0  0  0
   53.6310   23.8770   45.2150 C   0  0  0  0  0  0  0  0  0  0  0  0
   54.6610   22.9580   44.9380 C   0  0  0  0  0  0  0  0  0  0  0  0
   56.0000   23.3460   45.0270 C   0  0  0  0  0  0  0  0  0  0  0  0
   56.3330   24.6540   45.3860 C   0  0  0  0  0  0  0  0  0  0  0  0
   55.3300   25.5800   45.6810 C   0  0  0  0  0  0  0  0  0  0  0  0
   55.6990   26.9320   45.9980 N   0  0  0  0  0  0  0  0  0  0  0  0
   57.0270   27.3580   46.3210 C   0  0  0  0  0  0  0  0  0  0  0  0
   57.8800   26.5070   46.6860 O   0  0  0  0  0  0  0  0  0  0  0  0
   57.3990   28.7360   46.2320 N   0  0  0  0  0  0  0  0  0  0  0  0
   57.3150   29.4920   45.0190 C   0  0  0  0  0  0  0  0  0  0  0  0
   56.6700   28.9670   43.8870 C   0  0  0  0  0  0  0  0  0  0  0  0
   56.5020   29.7560   42.7460 C   0  0  0  0  0  0  0  0  0  0  0  0
   56.9980   31.0620   42.7180 C   0  0  0  0  0  0  0  0  0  0  0  0
   57.6780   31.5780   43.8280 C   0  0  0  0  0  0  0  0  0  0  0  0
   58.3870   33.2240   43.7760 S   0  0  0  0  0  0  0  0  0  0  0  0
   58.6750   33.2540   45.5460 C   0  0  0  0  0  0  0  0  0  0  0  0
   59.9860   33.1990   46.0300 C   0  0  0  0  0  0  0  0  0  0  0  0
   60.2280   33.1790   47.4050 C   0  0  0  0  0  0  0  0  0  0  0  0
   59.1510   33.1790   48.3110 C   0  0  0  0  0  0  0  0  0  0  0  0
   59.3590   33.1300   49.7310 N   0  0  0  0  0  0  0  0  0  0  0  0
   58.8710   32.1220   50.6260 C   0  0  0  0  0  0  0  0  0  0  0  0
   57.7680   32.3020   51.2040 O   0  0  0  0  0  0  0  0  0  0  0  0
   59.6020   30.9160   50.8850 N   0  0  0  0  0  0  0  0  0  0  0  0
   59.8820   29.8820   49.9310 C   0  0  0  0  0  0  0  0  0  0  0  0
   59.7020   30.0870   48.5510 C   0  0  0  0  0  0  0  0  0  0  0  0
   59.9510   29.0470   47.6500 C   0  0  0  0  0  0  0  0  0  0  0  0
   60.3800   27.8010   48.1150 C   0  0  0  0  0  0  0  0  0  0  0  0
   60.6040   26.7930   47.2370 F   0  0  0  0  0  0  0  0  0  0  0  0
   60.5600   27.5920   49.4860 C   0  0  0  0  0  0  0  0  0  0  0  0
   60.9750   26.3830   49.9410 F   0  0  0  0  0  0  0  0  0  0  0  0
   60.2990   28.6260   50.3920 C   0  0  0  0  0  0  0  0  0  0  0  0
   57.8440   33.2690   47.8210 C   0  0  0  0  0  0  0  0  0  0  0  0
   57.6030   33.3060   46.4430 C   0  0  0  0  0  0  0  0  0  0  0  0
   57.8190   30.7980   44.9830 C   0  0  0  0  0  0  0  0  0  0  0  0
   53.9810   25.1910   45.5810 C   0  0  0  0  0  0  0  0  0  0  0  0
   51.4330   25.4250   44.3820 H   0  0  0  0  0  0  0  0  0  0  0  0
   50.1940   24.1760   44.6720 H   0  0  0  0  0  0  0  0  0  0  0  0
   54.4095   21.9268   44.6493 H   0  0  0  0  0  0  0  0  0  0  0  0
   56.7961   22.6177   44.8133 H   0  0  0  0  0  0  0  0  0  0  0  0
   57.3895   24.9561   45.4366 H   0  0  0  0  0  0  0  0  0  0  0  0
   56.2963   27.9325   43.8987 H   0  0  0  0  0  0  0  0  0  0  0  0
   55.9785   29.3484   41.8686 H   0  0  0  0  0  0  0  0  0  0  0  0
   56.8542   31.6854   41.8232 H   0  0  0  0  0  0  0  0  0  0  0  0
   60.8297   33.1714   45.3247 H   0  0  0  0  0  0  0  0  0  0  0  0
   61.2618   33.1632   47.7806 H   0  0  0  0  0  0  0  0  0  0  0  0
   59.3651   31.0663   48.1803 H   0  0  0  0  0  0  0  0  0  0  0  0
   59.8087   29.2103   46.5715 H   0  0  0  0  0  0  0  0  0  0  0  0
   60.4217   28.4521   51.4712 H   0  0  0  0  0  0  0  0  0  0  0  0
   56.9991   33.3110   48.5242 H   0  0  0  0  0  0  0  0  0  0  0  0
   56.5721   33.3759   46.0658 H   0  0  0  0  0  0  0  0  0  0  0  0
   58.3278   31.2132   45.8655 H   0  0  0  0  0  0  0  0  0  0  0  0
   53.1885   25.9242   45.7918 H   0  0  0  0  0  0  0  0  0  0  0  0
  1  2  1  0
  2  3  2  0
  2  4  1  0
  4  5  2  0
  5  6  1  0
  6  7  2  0
  7  8  1  0
  8  9  1  0
  9 10  1  0
 10 11  2  0
 10 12  1  0
 12 13  1  0
 13 14  2  0
 14 15  1  0
 15 16  2  0
 16 17  1  0
 17 18  1  0
 18 19  1  0
 19 20  2  0
 20 21  1  0
 21 22  2  0
 22 23  1  0
 23 24  1  0
 24 25  2  0
 24 26  1  0
 26 27  1  0
 27 28  2  0
 28 29  1  0
 29 30  2  0
 30 31  1  0
 30 32  1  0
 32 33  1  0
 32 34  2  0
 22 35  1  0
 35 36  2  0
 17 37  2  0
  8 38  2  0
 38  4  1  0
 37 13  1  0
 36 19  1  0
 34 27  1  0
  1 39  1  0
  1 40  1  0
  5 41  1  0
  6 42  1  0
  7 43  1  0
 14 44  1  0
 15 45  1  0
 16 46  1  0
 20 47  1  0
 21 48  1  0
 28 49  1  0
 29 50  1  0
 34 51  1  0
 35 52  1  0
 36 53  1  0
 37 54  1  0
 38 55  1  0
M  CHG  4   9  -1  12  -1  23  -1  26  -1
M  END
>  <UniqueID>  (88) 
84

>  <SMILES>  (88) 
NC(=O)c1cccc([N-]C(=O)[N-]c2cccc(Sc3ccc([N-]C(=O)[N-]c4ccc(F)c(F)c4)cc3)c2)c1

>  <Energy>  (88) 
67.98759931332883

>  <Genealogy>  (88) 
NC(=O)c1cccc([N-]C(=O)[N-]c2cccc(Sc3ccc([N-]C(=O)[N-]c4ccc(F)c(F)c4)cc3)c2)c1 (protonated)
NC(=O)c1cccc([N-]C(=O)[N-]c2cccc(Sc3ccc([N-]C(=O)[N-]c4ccc(F)c(F)c4)cc3)c2)c1 (3D coordinates assigned)
NC(=O)c1cccc([N-]C(=O)[N-]c2cccc(Sc3ccc([N-]C(=O)[N-]c4ccc(F)c(F)c4)cc3)c2)c1 (optimized conformer: 67.98759931332883 kcal/mol)

>  <smiles>  (88) 
NC(=O)c1cccc(NC(=O)Nc2cccc(Sc3ccc(NC(=O)Nc4ccc(F)c(F)c4)cc3)c2)c1

>  <score_type>  (88) 
oracle

>  <origin>  (88) 
adg

>  <m_score__min__energy>  (88) 
-16.09

>  <m_primary>  (88) 
energy

$$$$
88:0
     RDKit          3D

 39 40  0  0  0  0  0  0  0  0999 V2000
   51.8630   24.3700   44.9300 C   0  0  0  0  0  0  0  0  0  0  0  0
   53.1060   23.5470   45.2530 C   0  0  0  0  0  0  0  0  0  0  0  0
   54.0740   24.3470   46.0000 N   0  0  0  0  0  0  0  0  0  0  0  0
   55.3790   23.8630   46.3420 C   0  0  0  0  0  0  0  0  0  0  0  0
   55.7540   22.7230   45.9550 O   0  0  0  0  0  0  0  0  0  0  0  0
   56.2690   24.7130   47.0750 N   0  0  0  0  0  0  0  0  0  0  0  0
   57.1220   25.7320   46.5280 C   0  0  0  0  0  0  0  0  0  0  0  0
   58.5230   25.6230   46.5710 C   0  0  0  0  0  0  0  0  0  0  0  0
   59.3230   26.6450   46.0590 C   0  0  0  0  0  0  0  0  0  0  0  0
   58.7380   27.7870   45.5090 C   0  0  0  0  0  0  0  0  0  0  0  0
   57.3440   27.9220   45.4720 C   0  0  0  0  0  0  0  0  0  0  0  0
   56.6500   29.4010   44.7960 S   0  0  0  0  0  0  0  0  0  0  0  0
   56.9890   29.4620   43.3330 O   0  0  0  0  0  0  0  0  0  0  0  0
   55.1530   29.4030   44.9260 O   0  0  0  0  0  0  0  0  0  0  0  0
   57.3180   30.8030   45.5830 N   0  0  0  0  0  0  0  0  0  0  0  0
   57.5340   31.8950   44.6340 C   0  0  0  0  0  0  0  0  0  0  0  0
   58.2430   33.0450   45.2880 C   0  0  0  0  0  0  0  0  0  0  0  0
   58.5040   33.0320   46.6670 C   0  0  0  0  0  0  0  0  0  0  0  0
   59.1720   34.1130   47.2460 C   0  0  0  0  0  0  0  0  0  0  0  0
   59.5690   35.1910   46.4530 C   0  0  0  0  0  0  0  0  0  0  0  0
   59.2890   35.1710   45.0850 C   0  0  0  0  0  0  0  0  0  0  0  0
   58.6390   34.1100   44.5390 N   0  0  0  0  0  0  0  0  0  0  0  0
   56.5350   26.8930   45.9980 C   0  0  0  0  0  0  0  0  0  0  0  0
   55.1500   27.0130   45.9990 O   0  0  0  0  0  0  0  0  0  0  0  0
   51.3811   24.6891   45.8659 H   0  0  0  0  0  0  0  0  0  0  0  0
   52.1516   25.2561   44.3456 H   0  0  0  0  0  0  0  0  0  0  0  0
   51.1599   23.7583   44.3456 H   0  0  0  0  0  0  0  0  0  0  0  0
   52.8150   22.6750   45.8572 H   0  0  0  0  0  0  0  0  0  0  0  0
   53.5691   23.2201   44.3103 H   0  0  0  0  0  0  0  0  0  0  0  0
   53.8230   25.3290   46.2520 H   0  0  0  0  0  0  0  0  0  0  0  0
   58.9900   24.7289   47.0098 H   0  0  0  0  0  0  0  0  0  0  0  0
   60.4185   26.5506   46.0888 H   0  0  0  0  0  0  0  0  0  0  0  0
   59.3755   28.5858   45.1022 H   0  0  0  0  0  0  0  0  0  0  0  0
   58.1432   31.5272   43.7952 H   0  0  0  0  0  0  0  0  0  0  0  0
   56.5551   32.2457   44.2752 H   0  0  0  0  0  0  0  0  0  0  0  0
   58.1858   32.1795   47.2850 H   0  0  0  0  0  0  0  0  0  0  0  0
   59.3850   34.1150   48.3252 H   0  0  0  0  0  0  0  0  0  0  0  0
   60.0963   36.0464   46.9005 H   0  0  0  0  0  0  0  0  0  0  0  0
   59.5949   36.0148   44.4490 H   0  0  0  0  0  0  0  0  0  0  0  0
  1  2  1  0
  2  3  1  0
  3  4  1  0
  4  5  2  0
  4  6  1  0
  6  7  1  0
  7  8  2  0
  8  9  1  0
  9 10  2  0
 10 11  1  0
 11 12  1  0
 12 13  2  0
 12 14  2  0
 12 15  1  0
 15 16  1  0
 16 17  1  0
 17 18  2  0
 18 19  1  0
 19 20  2  0
 20 21  1  0
 21 22  2  0
 11 23  2  0
 23 24  1  0
 23  7  1  0
 22 17  1  0
  1 25  1  0
  1 26  1  0
  1 27  1  0
  2 28  1  0
  2 29  1  0
  3 30  1  0
  8 31  1  0
  9 32  1  0
 10 33  1  0
 16 34  1  0
 16 35  1  0
 18 36  1  0
 19 37  1  0
 20 38  1  0
 21 39  1  0
M  CHG  3   6  -1  15  -1  24  -1
M  END
>  <UniqueID>  (89) 
85

>  <SMILES>  (89) 
CCNC(=O)[N-]c1cccc(S(=O)(=O)[N-]Cc2ccccn2)c1[O-]

>  <Energy>  (89) 
38.203567301730274

>  <Genealogy>  (89) 
CCNC(=O)[N-]c1cccc(S(=O)(=O)[N-]Cc2ccccn2)c1[O-] (protonated)
CCNC(=O)[N-]c1cccc(S(=O)(=O)[N-]Cc2ccccn2)c1[O-] (3D coordinates assigned)
CCNC(=O)[N-]c1cccc(S(=O)(=O)[N-]Cc2ccccn2)c1[O-] (optimized conformer: 38.203567301730274 kcal/mol)

>  <smiles>  (89) 
CCNC(=O)Nc1cccc(S(=O)(=O)NCc2ccccn2)c1O

>  <score_type>  (89) 
oracle

>  <origin>  (89) 
adg

>  <m_score__min__energy>  (89) 
-16.43

>  <m_primary>  (89) 
energy

$$$$
89:0
     RDKit          3D

 57 60  0  0  0  0  0  0  0  0999 V2000
   54.0710   26.3630   46.3740 H   0  0  0  0  0  0  0  0  0  0  0  0
   55.0070   26.4930   46.0130 O   0  0  0  0  0  0  0  0  0  0  0  0
   56.0370   25.6360   46.3920 C   0  0  0  0  0  0  0  0  0  0  0  0
   55.8520   24.5230   47.1200 N   0  0  0  0  0  0  0  0  0  0  0  0
   57.0920   23.9940   47.1740 C   0  0  0  0  0  0  0  0  0  0  0  0
   57.3440   22.9170   47.7760 O   0  0  0  0  0  0  0  0  0  0  0  0
   58.0390   24.7030   46.5230 N   0  0  0  0  0  0  0  0  0  0  0  0
   57.3650   25.7630   46.0470 C   0  0  0  0  0  0  0  0  0  0  0  0
   57.9810   26.7940   45.1940 C   0  0  0  0  0  0  0  0  0  0  0  0
   58.7619   26.4795   44.4859 H   0  0  0  0  0  0  0  0  0  0  0  0
   57.6480   28.0920   45.2280 C   0  0  0  0  0  0  0  0  0  0  0  0
   56.5300   28.7350   44.6870 C   0  0  0  0  0  0  0  0  0  0  0  0
   55.7417   28.2436   44.0979 H   0  0  0  0  0  0  0  0  0  0  0  0
   56.5630   30.0540   44.9970 N   0  0  0  0  0  0  0  0  0  0  0  0
   57.6580   30.2490   45.7110 N   0  0  0  0  0  0  0  0  0  0  0  0
   58.1080   31.4070   46.2500 C   0  0  0  0  0  0  0  0  0  0  0  0
   57.4440   32.5130   46.0890 N   0  0  0  0  0  0  0  0  0  0  0  0
   57.7720   33.7680   46.7610 C   0  0  0  0  0  0  0  0  0  0  0  0
   57.9314   33.5701   47.8312 H   0  0  0  0  0  0  0  0  0  0  0  0
   56.9366   34.4684   46.6142 H   0  0  0  0  0  0  0  0  0  0  0  0
   59.0470   34.4030   46.1730 C   0  0  2  0  0  0  0  0  0  0  0  0
   58.7159   35.3409   45.7031 H   0  0  0  0  0  0  0  0  0  0  0  0
   59.6290   33.5630   45.1230 N   0  0  0  0  0  0  0  0  0  0  0  0
   58.8830   33.1290   44.5400 H   0  0  0  0  0  0  0  0  0  0  0  0
   60.1650   32.7840   45.5710 H   0  0  0  0  0  0  0  0  0  0  0  0
   60.0920   34.8760   47.2270 C   0  0  0  0  0  0  0  0  0  0  0  0
   59.5338   35.1767   48.1259 H   0  0  0  0  0  0  0  0  0  0  0  0
   60.6500   35.6737   46.7148 H   0  0  0  0  0  0  0  0  0  0  0  0
   61.1900   33.8740   47.6820 C   0  0  0  0  0  0  0  0  0  0  0  0
   60.7308   32.8746   47.6978 H   0  0  0  0  0  0  0  0  0  0  0  0
   61.6930   34.2710   49.0790 C   0  0  0  0  0  0  0  0  0  0  0  0
   61.0730   33.7817   49.8447 H   0  0  0  0  0  0  0  0  0  0  0  0
   62.7394   33.9527   49.1961 H   0  0  0  0  0  0  0  0  0  0  0  0
   61.6265   35.3627   49.1961 H   0  0  0  0  0  0  0  0  0  0  0  0
   62.3820   33.8130   46.7140 C   0  0  0  0  0  0  0  0  0  0  0  0
   63.3188   33.7651   47.2885 H   0  0  0  0  0  0  0  0  0  0  0  0
   62.2943   32.9182   46.0803 H   0  0  0  0  0  0  0  0  0  0  0  0
   62.3861   34.7121   46.0803 H   0  0  0  0  0  0  0  0  0  0  0  0
   59.2700   31.3730   46.9630 N   0  0  0  0  0  0  0  0  0  0  0  0
   59.9530   30.1960   47.1340 C   0  0  0  0  0  0  0  0  0  0  0  0
   61.0560   30.1600   47.8210 N   0  0  0  0  0  0  0  0  0  0  0  0
   61.2760   30.8630   49.0860 C   0  0  0  0  0  0  0  0  0  0  0  0
   62.0307   30.3197   49.6736 H   0  0  0  0  0  0  0  0  0  0  0  0
   61.6228   31.8834   48.8658 H   0  0  0  0  0  0  0  0  0  0  0  0
   59.9980   30.9490   49.8820 C   0  0  0  0  0  0  0  0  0  0  0  0
   59.4650   29.7980   50.4830 C   0  0  0  0  0  0  0  0  0  0  0  0
   59.9914   28.8367   50.3889 H   0  0  0  0  0  0  0  0  0  0  0  0
   58.2670   29.8690   51.2010 C   0  0  0  0  0  0  0  0  0  0  0  0
   57.8545   28.9646   51.6720 H   0  0  0  0  0  0  0  0  0  0  0  0
   57.5930   31.0880   51.3210 C   0  0  0  0  0  0  0  0  0  0  0  0
   56.0870   31.1750   52.2160 Cl  0  0  0  0  0  0  0  0  0  0  0  0
   58.1200   32.2390   50.7270 C   0  0  0  0  0  0  0  0  0  0  0  0
   57.5909   33.1986   50.8231 H   0  0  0  0  0  0  0  0  0  0  0  0
   59.3190   32.1710   50.0110 C   0  0  0  0  0  0  0  0  0  0  0  0
   59.7320   33.0787   49.5468 H   0  0  0  0  0  0  0  0  0  0  0  0
   59.4730   29.0440   46.5830 N   0  0  0  0  0  0  0  0  0  0  0  0
   58.3210   29.1040   45.8740 C   0  0  0  0  0  0  0  0  0  0  0  0
  1  2  1  0
  2  3  1  0
  3  4  1  0
  4  5  1  0
  5  6  2  0
  5  7  1  0
  7  8  1  0
  8  9  1  0
  9 10  1  0
  9 11  2  0
 11 12  1  0
 12 13  1  0
 12 14  2  0
 14 15  1  0
 15 16  1  0
 16 17  2  3
 17 18  1  0
 18 19  1  0
 18 20  1  0
 18 21  1  0
 21 22  1  6
 21 23  1  0
 23 24  1  0
 23 25  1  0
 21 26  1  0
 26 27  1  0
 26 28  1  0
 26 29  1  0
 29 30  1  0
 29 31  1  0
 31 32  1  0
 31 33  1  0
 31 34  1  0
 29 35  1  0
 35 36  1  0
 35 37  1  0
 35 38  1  0
 16 39  1  0
 39 40  1  0
 40 41  2  0
 41 42  1  0
 42 43  1  0
 42 44  1  0
 42 45  1  0
 45 46  2  0
 46 47  1  0
 46 48  1  0
 48 49  1  0
 48 50  2  0
 50 51  1  0
 50 52  1  0
 52 53  1  0
 52 54  2  0
 54 55  1  0
 40 56  1  0
 56 57  2  0
  8  3  2  0
 57 11  1  0
 57 15  1  0
 54 45  1  0
M  CHG  3   4  -1   7  -1  39  -1
M  END
>  <UniqueID>  (90) 
86

>  <SMILES>  (90) 
CC(C)C[C@@H](N)CN=c1[n-]/c(=N\Cc2ccc(Cl)cc2)nc2/c(=C/c3[n-]c(=O)[n-]c3O)cnn12

>  <Energy>  (90) 
129.21567659612313

>  <Genealogy>  (90) 
CC(C)CC(N)CN=c1[n-]c(=NCc2ccc(Cl)cc2)nc2c(=Cc3[n-]c(=O)[n-]c3O)cnn12 (protonated)
CC(C)C[C@@H](N)CN=c1[n-]c(=NCc2ccc(Cl)cc2)nc2c(=Cc3[n-]c(=O)[n-]c3O)cnn12 (chirality)
CC(C)C[C@@H](N)CN=c1[n-]/c(=N\Cc2ccc(Cl)cc2)nc2/c(=C/c3[n-]c(=O)[n-]c3O)cnn12 (cis-trans isomerization)
CC(C)C[C@@H](N)CN=c1[n-]/c(=N\Cc2ccc(Cl)cc2)nc2/c(=C/c3[n-]c(=O)[n-]c3O)cnn12 (3D coordinates assigned)
CC(C)C[C@@H](N)CN=c1[n-]/c(=N\Cc2ccc(Cl)cc2)nc2/c(=C/c3[n-]c(=O)[n-]c3O)cnn12 (optimized conformer: 129.21567659612313 kcal/mol)

>  <smiles>  (90) 
CC(C)CC(N)CN=c1[nH]c(=NCc2ccc(Cl)cc2)nc2c(=Cc3[nH]c(=O)[nH]c3O)cnn12

>  <score_type>  (90) 
oracle

>  <origin>  (90) 
adg

>  <m_score__min__energy>  (90) 
-15.08

>  <m_primary>  (90) 
energy

$$$$
90:0
     RDKit          3D

 47 49  0  0  0  0  0  0  0  0999 V2000
   60.7790   26.2780   48.9560 O   0  0  0  0  0  0  0  0  0  0  0  0
   60.5180   27.3980   48.4390 C   0  0  0  0  0  0  0  0  0  0  0  0
   60.1910   27.5010   47.0480 N   0  0  0  0  0  0  0  0  0  0  0  0
   58.9340   27.9190   46.4950 C   0  0  0  0  0  0  0  0  0  0  0  0
   57.8760   27.0040   46.4730 C   0  0  0  0  0  0  0  0  0  0  0  0
   56.6420   27.3610   45.9240 C   0  0  0  0  0  0  0  0  0  0  0  0
   56.4570   28.6330   45.3750 C   0  0  0  0  0  0  0  0  0  0  0  0
   55.2190   28.9610   44.8340 O   0  0  0  0  0  0  0  0  0  0  0  0
   57.5190   29.5570   45.3670 C   0  0  0  0  0  0  0  0  0  0  0  0
   57.3310   31.1670   44.6530 S   0  0  0  0  0  0  0  0  0  0  0  0
   55.9200   31.6370   44.8730 O   0  0  0  0  0  0  0  0  0  0  0  0
   57.5630   31.0910   43.1700 O   0  0  0  0  0  0  0  0  0  0  0  0
   58.4360   32.3260   45.3520 N   0  0  0  0  0  0  0  0  0  0  0  0
   58.3990   33.5920   44.6020 C   0  0  0  0  0  0  0  0  0  0  0  0
   59.2070   34.6820   45.3350 C   0  0  0  0  0  0  0  0  0  0  0  0
   59.9720   34.1290   46.3890 O   0  0  0  0  0  0  0  0  0  0  0  0
   59.1100   33.5770   47.3690 C   0  0  0  0  0  0  0  0  0  0  0  0
   58.1130   32.5640   46.7650 C   0  0  0  0  0  0  0  0  0  0  0  0
   58.7550   29.1900   45.9230 C   0  0  0  0  0  0  0  0  0  0  0  0
   60.6050   28.6190   49.2550 C   0  0  0  0  0  0  0  0  0  0  0  0
   60.3980   28.5460   50.4970 O   0  0  0  0  0  0  0  0  0  0  0  0
   60.9240   29.8830   48.6520 N   0  0  0  0  0  0  0  0  0  0  0  0
   60.9810   31.1250   49.4210 C   0  0  0  0  0  0  0  0  0  0  0  0
   61.9070   32.1020   48.7630 C   0  0  0  0  0  0  0  0  0  0  0  0
   62.1810   33.3400   49.3630 C   0  0  0  0  0  0  0  0  0  0  0  0
   63.0650   34.2230   48.7400 C   0  0  0  0  0  0  0  0  0  0  0  0
   63.6690   33.8640   47.5330 C   0  0  0  0  0  0  0  0  0  0  0  0
   63.3780   32.6210   46.9670 C   0  0  0  0  0  0  0  0  0  0  0  0
   62.5140   31.7750   47.5890 N   0  0  0  0  0  0  0  0  0  0  0  0
   58.0167   25.9963   46.8910 H   0  0  0  0  0  0  0  0  0  0  0  0
   55.8128   26.6383   45.9238 H   0  0  0  0  0  0  0  0  0  0  0  0
   58.8306   33.4328   43.6028 H   0  0  0  0  0  0  0  0  0  0  0  0
   57.3534   33.9230   44.5171 H   0  0  0  0  0  0  0  0  0  0  0  0
   59.8836   35.1703   44.6182 H   0  0  0  0  0  0  0  0  0  0  0  0
   58.5022   35.4112   45.7611 H   0  0  0  0  0  0  0  0  0  0  0  0
   59.7190   33.0648   48.1284 H   0  0  0  0  0  0  0  0  0  0  0  0
   58.5292   34.4004   47.8102 H   0  0  0  0  0  0  0  0  0  0  0  0
   58.1766   31.6155   47.3184 H   0  0  0  0  0  0  0  0  0  0  0  0
   57.0937   32.9707   46.8398 H   0  0  0  0  0  0  0  0  0  0  0  0
   59.5914   29.9044   45.9107 H   0  0  0  0  0  0  0  0  0  0  0  0
   61.1360   29.9290   47.6290 H   0  0  0  0  0  0  0  0  0  0  0  0
   59.9734   31.5625   49.4789 H   0  0  0  0  0  0  0  0  0  0  0  0
   61.3542   30.9032   50.4317 H   0  0  0  0  0  0  0  0  0  0  0  0
   61.7037   33.6127   50.3158 H   0  0  0  0  0  0  0  0  0  0  0  0
   63.2851   35.1984   49.1984 H   0  0  0  0  0  0  0  0  0  0  0  0
   64.3663   34.5528   47.0337 H   0  0  0  0  0  0  0  0  0  0  0  0
   63.8481   32.3260   46.0173 H   0  0  0  0  0  0  0  0  0  0  0  0
  1  2  2  0
  2  3  1  0
  3  4  1  0
  4  5  2  0
  5  6  1  0
  6  7  2  0
  7  8  1  0
  7  9  1  0
  9 10  1  0
 10 11  2  0
 10 12  2  0
 10 13  1  0
 13 14  1  0
 14 15  1  0
 15 16  1  0
 16 17  1  0
 17 18  1  0
  9 19  2  0
  2 20  1  0
 20 21  2  0
 20 22  1  0
 22 23  1  0
 23 24  1  0
 24 25  2  0
 25 26  1  0
 26 27  2  0
 27 28  1  0
 28 29  2  0
 19  4  1  0
 29 24  1  0
 18 13  1  0
  5 30  1  0
  6 31  1  0
 14 32  1  0
 14 33  1  0
 15 34  1  0
 15 35  1  0
 17 36  1  0
 17 37  1  0
 18 38  1  0
 18 39  1  0
 19 40  1  0
 22 41  1  0
 23 42  1  0
 23 43  1  0
 25 44  1  0
 26 45  1  0
 27 46  1  0
 28 47  1  0
M  CHG  2   3  -1   8  -1
M  END
>  <UniqueID>  (91) 
87

>  <SMILES>  (91) 
O=C([N-]c1ccc([O-])c(S(=O)(=O)N2CCOCC2)c1)C(=O)NCc1ccccn1

>  <Energy>  (91) 
56.78622924998503

>  <Genealogy>  (91) 
O=C([N-]c1ccc([O-])c(S(=O)(=O)N2CCOCC2)c1)C(=O)NCc1ccccn1 (protonated)
O=C([N-]c1ccc([O-])c(S(=O)(=O)N2CCOCC2)c1)C(=O)NCc1ccccn1 (3D coordinates assigned)
O=C([N-]c1ccc([O-])c(S(=O)(=O)N2CCOCC2)c1)C(=O)NCc1ccccn1 (nonaromatic ring conformer: 56.78622924998503 kcal/mol)

>  <smiles>  (91) 
O=C(NCc1ccccn1)C(=O)Nc1ccc(O)c(S(=O)(=O)N2CCOCC2)c1

>  <score_type>  (91) 
oracle

>  <origin>  (91) 
adg

>  <m_score__min__energy>  (91) 
-12.56

>  <m_primary>  (91) 
energy

$$$$
91:0
     RDKit          3D

 54 57  0  0  0  0  0  0  0  0999 V2000
   57.2900   30.6240   51.2710 C   0  0  0  0  0  0  0  0  0  0  0  0
   57.1730   30.5300   52.7300 N   0  0  0  0  0  0  0  0  0  0  0  0
   58.1710   30.8830   53.6010 C   0  0  0  0  0  0  0  0  0  0  0  0
   59.5250   31.3860   53.1590 C   0  0  0  0  0  0  0  0  0  0  0  0
   59.5420   32.8850   52.9740 C   0  0  0  0  0  0  0  0  0  0  0  0
   59.4140   33.6410   53.9730 O   0  0  0  0  0  0  0  0  0  0  0  0
   59.5310   33.4730   51.6660 N   0  0  0  0  0  0  0  0  0  0  0  0
   60.6290   33.5130   50.7490 C   0  0  0  0  0  0  0  0  0  0  0  0
   61.9570   33.4390   51.1970 C   0  0  0  0  0  0  0  0  0  0  0  0
   63.0120   33.5130   50.2830 C   0  0  0  0  0  0  0  0  0  0  0  0
   62.7510   33.6840   48.9220 C   0  0  0  0  0  0  0  0  0  0  0  0
   61.4290   33.7990   48.4690 C   0  0  0  0  0  0  0  0  0  0  0  0
   61.0890   34.0070   46.7540 S   0  0  0  0  0  0  0  0  0  0  0  0
   60.2540   35.2440   46.5640 O   0  0  0  0  0  0  0  0  0  0  0  0
   62.3780   34.1800   45.9970 O   0  0  0  0  0  0  0  0  0  0  0  0
   60.2140   32.6160   46.1680 N   0  0  0  0  0  0  0  0  0  0  0  0
   58.7690   32.8260   46.2460 C   0  0  0  0  0  0  0  0  0  0  0  0
   58.1390   31.4480   46.3830 C   0  0  0  0  0  0  0  0  0  0  0  0
   59.2570   30.5420   46.8760 C   0  0  0  0  0  0  0  0  0  0  0  0
   60.4830   31.4350   46.9880 C   0  0  0  0  0  0  0  0  0  0  0  0
   60.3720   33.7190   49.3870 C   0  0  0  0  0  0  0  0  0  0  0  0
   57.8680   30.6870   54.9470 C   0  0  0  0  0  0  0  0  0  0  0  0
   56.3090   30.0700   55.0520 S   0  0  0  0  0  0  0  0  0  0  0  0
   56.0690   30.0780   53.3830 C   0  0  0  0  0  0  0  0  0  0  0  0
   55.0070   29.6430   52.7660 N   0  0  0  0  0  0  0  0  0  0  0  0
   53.8100   30.3880   52.4910 C   0  0  0  0  0  0  0  0  0  0  0  0
   52.8700   30.6720   53.4980 C   0  0  0  0  0  0  0  0  0  0  0  0
   51.7360   31.4380   53.2060 C   0  0  0  0  0  0  0  0  0  0  0  0
   51.5450   31.9440   51.9180 C   0  0  0  0  0  0  0  0  0  0  0  0
   50.4180   32.7030   51.6290 O   0  0  0  0  0  0  0  0  0  0  0  0
   52.4930   31.6910   50.9220 C   0  0  0  0  0  0  0  0  0  0  0  0
   53.6270   30.9260   51.2110 C   0  0  0  0  0  0  0  0  0  0  0  0
   58.1235   31.2936   51.0124 H   0  0  0  0  0  0  0  0  0  0  0  0
   57.4797   29.6243   50.8532 H   0  0  0  0  0  0  0  0  0  0  0  0
   56.3546   31.0246   50.8532 H   0  0  0  0  0  0  0  0  0  0  0  0
   60.2703   31.1143   53.9210 H   0  0  0  0  0  0  0  0  0  0  0  0
   59.7583   30.9225   52.1891 H   0  0  0  0  0  0  0  0  0  0  0  0
   62.1682   33.3225   52.2702 H   0  0  0  0  0  0  0  0  0  0  0  0
   64.0507   33.4363   50.6369 H   0  0  0  0  0  0  0  0  0  0  0  0
   63.5835   33.7285   48.2043 H   0  0  0  0  0  0  0  0  0  0  0  0
   58.5217   33.4456   47.1206 H   0  0  0  0  0  0  0  0  0  0  0  0
   58.3941   33.3478   45.3531 H   0  0  0  0  0  0  0  0  0  0  0  0
   57.3139   31.4722   47.1101 H   0  0  0  0  0  0  0  0  0  0  0  0
   57.7148   31.0949   45.4315 H   0  0  0  0  0  0  0  0  0  0  0  0
   59.0015   30.1148   47.8569 H   0  0  0  0  0  0  0  0  0  0  0  0
   59.4285   29.6965   46.1935 H   0  0  0  0  0  0  0  0  0  0  0  0
   60.6445   31.7288   48.0357 H   0  0  0  0  0  0  0  0  0  0  0  0
   61.3883   30.9118   46.6464 H   0  0  0  0  0  0  0  0  0  0  0  0
   59.3344   33.8186   49.0357 H   0  0  0  0  0  0  0  0  0  0  0  0
   58.5352   30.8998   55.7953 H   0  0  0  0  0  0  0  0  0  0  0  0
   53.0267   30.2909   54.5179 H   0  0  0  0  0  0  0  0  0  0  0  0
   50.9938   31.6420   53.9918 H   0  0  0  0  0  0  0  0  0  0  0  0
   52.3464   32.0945   49.9092 H   0  0  0  0  0  0  0  0  0  0  0  0
   54.3793   30.7458   50.4290 H   0  0  0  0  0  0  0  0  0  0  0  0
  1  2  1  0
  2  3  1  0
  3  4  1  0
  4  5  1  0
  5  6  2  0
  5  7  1  0
  7  8  1  0
  8  9  2  0
  9 10  1  0
 10 11  2  0
 11 12  1  0
 12 13  1  0
 13 14  2  0
 13 15  2  0
 13 16  1  0
 16 17  1  0
 17 18  1  0
 18 19  1  0
 19 20  1  0
 12 21  2  0
  3 22  2  0
 22 23  1  0
 23 24  1  0
 24 25  2  3
 25 26  1  0
 26 27  2  0
 27 28  1  0
 28 29  2  0
 29 30  1  0
 29 31  1  0
 31 32  2  0
 24  2  1  0
 32 26  1  0
 21  8  1  0
 20 16  1  0
  1 33  1  0
  1 34  1  0
  1 35  1  0
  4 36  1  0
  4 37  1  0
  9 38  1  0
 10 39  1  0
 11 40  1  0
 17 41  1  0
 17 42  1  0
 18 43  1  0
 18 44  1  0
 19 45  1  0
 19 46  1  0
 20 47  1  0
 20 48  1  0
 21 49  1  0
 22 50  1  0
 27 51  1  0
 28 52  1  0
 31 53  1  0
 32 54  1  0
M  CHG  2   7  -1  30  -1
M  END
>  <UniqueID>  (92) 
88

>  <SMILES>  (92) 
Cn1c(CC(=O)[N-]c2cccc(S(=O)(=O)N3CCCC3)c2)csc1=Nc1ccc([O-])cc1

>  <Energy>  (92) 
101.05700888000267

>  <Genealogy>  (92) 
Cn1c(CC(=O)[N-]c2cccc(S(=O)(=O)N3CCCC3)c2)csc1=Nc1ccc([O-])cc1 (protonated)
Cn1c(CC(=O)[N-]c2cccc(S(=O)(=O)N3CCCC3)c2)csc1=Nc1ccc([O-])cc1 (3D coordinates assigned)
Cn1c(CC(=O)[N-]c2cccc(S(=O)(=O)N3CCCC3)c2)csc1=Nc1ccc([O-])cc1 (nonaromatic ring conformer: 101.05700888000267 kcal/mol)

>  <smiles>  (92) 
Cn1c(CC(=O)Nc2cccc(S(=O)(=O)N3CCCC3)c2)csc1=Nc1ccc(O)cc1

>  <score_type>  (92) 
oracle

>  <origin>  (92) 
adg

>  <m_score__min__energy>  (92) 
-13.75

>  <m_primary>  (92) 
energy

$$$$
92:0
     RDKit          3D

 45 47  0  0  0  0  0  0  0  0999 V2000
   55.0990   24.8490   46.3370 O   0  0  0  0  0  0  0  0  0  0  0  0
   56.0770   25.6420   46.3800 C   0  0  0  0  0  0  0  0  0  0  0  0
   55.9190   26.9270   45.9650 N   0  0  0  0  0  0  0  0  0  0  0  0
   56.9410   27.8250   45.9890 C   0  0  0  0  0  0  0  0  0  0  0  0
   56.7210   29.1320   45.5610 O   0  0  0  0  0  0  0  0  0  0  0  0
   58.2120   27.4320   46.4520 C   0  0  0  0  0  0  0  0  0  0  0  0
   59.3760   28.3940   46.4520 C   0  0  0  0  0  0  0  0  0  0  0  0
   59.2590   29.3830   47.5920 C   0  0  0  0  0  0  0  0  0  0  0  0
   59.3940   28.9330   48.9160 C   0  0  0  0  0  0  0  0  0  0  0  0
   59.2570   29.8230   49.9840 C   0  0  0  0  0  0  0  0  0  0  0  0
   58.9850   31.1680   49.7420 C   0  0  0  0  0  0  0  0  0  0  0  0
   58.8480   31.6310   48.4320 C   0  0  0  0  0  0  0  0  0  0  0  0
   58.9780   30.7460   47.3470 C   0  0  0  0  0  0  0  0  0  0  0  0
   58.8370   31.1980   45.9940 N   0  0  0  0  0  0  0  0  0  0  0  0
   57.6440   32.3120   45.4130 S   0  0  0  0  0  0  0  0  0  0  0  0
   57.0290   33.0540   46.5670 O   0  0  0  0  0  0  0  0  0  0  0  0
   56.5790   31.5680   44.6570 O   0  0  0  0  0  0  0  0  0  0  0  0
   58.4330   33.4640   44.3030 C   0  0  0  0  0  0  0  0  0  0  0  0
   58.7790   34.7680   45.0260 C   0  0  0  0  0  0  0  0  0  0  0  0
   59.6830   34.4960   46.1990 C   0  0  0  0  0  0  0  0  0  0  0  0
   60.8860   33.7930   46.0220 C   0  0  0  0  0  0  0  0  0  0  0  0
   61.7040   33.5100   47.1220 C   0  0  0  0  0  0  0  0  0  0  0  0
   61.3210   33.9130   48.4030 C   0  0  0  0  0  0  0  0  0  0  0  0
   60.1190   34.6030   48.5880 C   0  0  0  0  0  0  0  0  0  0  0  0
   59.3010   34.8930   47.4920 C   0  0  0  0  0  0  0  0  0  0  0  0
   58.3850   26.1070   46.8860 C   0  0  0  0  0  0  0  0  0  0  0  0
   57.3190   25.2090   46.8500 C   0  0  0  0  0  0  0  0  0  0  0  0
   57.4980   23.8970   47.2770 O   0  0  0  0  0  0  0  0  0  0  0  0
   57.4380   29.8390   45.6630 H   0  0  0  0  0  0  0  0  0  0  0  0
   60.3121   27.8268   46.5618 H   0  0  0  0  0  0  0  0  0  0  0  0
   59.3728   28.9497   45.5027 H   0  0  0  0  0  0  0  0  0  0  0  0
   59.6091   27.8724   49.1131 H   0  0  0  0  0  0  0  0  0  0  0  0
   59.3640   29.4615   51.0174 H   0  0  0  0  0  0  0  0  0  0  0  0
   58.8780   31.8666   50.5850 H   0  0  0  0  0  0  0  0  0  0  0  0
   58.6371   32.6947   48.2475 H   0  0  0  0  0  0  0  0  0  0  0  0
   59.3569   33.0126   43.9122 H   0  0  0  0  0  0  0  0  0  0  0  0
   57.7391   33.6913   43.4803 H   0  0  0  0  0  0  0  0  0  0  0  0
   59.2886   35.4461   44.3257 H   0  0  0  0  0  0  0  0  0  0  0  0
   57.8500   35.2295   45.3920 H   0  0  0  0  0  0  0  0  0  0  0  0
   61.1861   33.4639   45.0162 H   0  0  0  0  0  0  0  0  0  0  0  0
   62.6507   32.9689   46.9771 H   0  0  0  0  0  0  0  0  0  0  0  0
   61.9646   33.6877   49.2661 H   0  0  0  0  0  0  0  0  0  0  0  0
   59.8165   34.9182   49.5976 H   0  0  0  0  0  0  0  0  0  0  0  0
   58.3550   35.4338   47.6421 H   0  0  0  0  0  0  0  0  0  0  0  0
   59.3666   25.7763   47.2562 H   0  0  0  0  0  0  0  0  0  0  0  0
  1  2  2  0
  2  3  1  0
  3  4  1  0
  4  5  1  0
  4  6  2  0
  6  7  1  0
  7  8  1  0
  8  9  2  0
  9 10  1  0
 10 11  2  0
 11 12  1  0
 12 13  2  0
 13 14  1  0
 14 15  1  0
 15 16  2  0
 15 17  2  0
 15 18  1  0
 18 19  1  0
 19 20  1  0
 20 21  2  0
 21 22  1  0
 22 23  2  0
 23 24  1  0
 24 25  2  0
  6 26  1  0
 26 27  2  0
 27 28  1  0
 27  2  1  0
 13  8  1  0
 25 20  1  0
  5 29  1  0
  7 30  1  0
  7 31  1  0
  9 32  1  0
 10 33  1  0
 11 34  1  0
 12 35  1  0
 18 36  1  0
 18 37  1  0
 19 38  1  0
 19 39  1  0
 21 40  1  0
 22 41  1  0
 23 42  1  0
 24 43  1  0
 25 44  1  0
 26 45  1  0
M  CHG  3   3  -1  14  -1  28  -1
M  END
>  <UniqueID>  (93) 
89

>  <SMILES>  (93) 
O=c1[n-]c(O)c(Cc2ccccc2[N-]S(=O)(=O)CCc2ccccc2)cc1[O-]

>  <Energy>  (93) 
42.8816078524376

>  <Genealogy>  (93) 
O=c1[n-]c(O)c(Cc2ccccc2[N-]S(=O)(=O)CCc2ccccc2)cc1[O-] (protonated)
O=c1[n-]c(O)c(Cc2ccccc2[N-]S(=O)(=O)CCc2ccccc2)cc1[O-] (3D coordinates assigned)
O=c1[n-]c(O)c(Cc2ccccc2[N-]S(=O)(=O)CCc2ccccc2)cc1[O-] (optimized conformer: 42.8816078524376 kcal/mol)

>  <smiles>  (93) 
O=c1[nH]c(O)c(Cc2ccccc2NS(=O)(=O)CCc2ccccc2)cc1O

>  <score_type>  (93) 
oracle

>  <origin>  (93) 
adg

>  <m_score__min__energy>  (93) 
-15.92

>  <m_primary>  (93) 
energy

$$$$
93:0
     RDKit          3D

 43 45  0  0  0  0  0  0  0  0999 V2000
   56.0730   25.9540   46.0130 C   0  0  0  0  0  0  0  0  0  0  0  0
   56.3790   27.3390   45.8860 O   0  0  0  0  0  0  0  0  0  0  0  0
   57.6620   27.8510   45.6320 C   0  0  0  0  0  0  0  0  0  0  0  0
   58.8170   27.2690   46.1920 C   0  0  0  0  0  0  0  0  0  0  0  0
   60.0790   27.8080   45.9310 C   0  0  0  0  0  0  0  0  0  0  0  0
   60.2040   28.9340   45.1170 C   0  0  0  0  0  0  0  0  0  0  0  0
   59.0680   29.5210   44.5560 C   0  0  0  0  0  0  0  0  0  0  0  0
   57.7960   28.9800   44.7990 C   0  0  0  0  0  0  0  0  0  0  0  0
   56.3760   29.7400   44.0700 S   0  0  0  0  0  0  0  0  0  0  0  0
   55.1490   28.9940   44.5100 O   0  0  0  0  0  0  0  0  0  0  0  0
   56.4630   29.7000   42.5700 O   0  0  0  0  0  0  0  0  0  0  0  0
   56.2410   31.3930   44.5770 N   0  0  0  0  0  0  0  0  0  0  0  0
   57.3240   32.2010   45.0590 C   0  0  0  0  0  0  0  0  0  0  0  0
   57.7800   32.0000   46.3660 C   0  0  0  0  0  0  0  0  0  0  0  0
   58.8390   32.7580   46.8730 C   0  0  0  0  0  0  0  0  0  0  0  0
   59.4740   33.7180   46.0660 C   0  0  0  0  0  0  0  0  0  0  0  0
   60.5470   34.5400   46.5570 N   0  0  0  0  0  0  0  0  0  0  0  0
   61.6200   34.1360   47.1730 C   0  0  0  0  0  0  0  0  0  0  0  0
   61.7290   34.2120   48.5290 N   0  0  0  0  0  0  0  0  0  0  0  0
   62.8390   33.7700   49.1780 C   0  0  0  0  0  0  0  0  0  0  0  0
   62.9140   33.8790   50.6690 C   0  0  0  0  0  0  0  0  0  0  0  0
   63.8920   33.2130   48.4410 C   0  0  0  0  0  0  0  0  0  0  0  0
   65.0420   32.7480   49.0780 O   0  0  0  0  0  0  0  0  0  0  0  0
   63.7600   33.1320   47.0520 C   0  0  0  0  0  0  0  0  0  0  0  0
   62.6320   33.5900   46.4490 N   0  0  0  0  0  0  0  0  0  0  0  0
   58.9950   33.9430   44.7690 C   0  0  0  0  0  0  0  0  0  0  0  0
   57.9350   33.1860   44.2620 C   0  0  0  0  0  0  0  0  0  0  0  0
   56.0142   25.6877   47.0787 H   0  0  0  0  0  0  0  0  0  0  0  0
   55.1072   25.7460   45.5292 H   0  0  0  0  0  0  0  0  0  0  0  0
   56.8612   25.3585   45.5292 H   0  0  0  0  0  0  0  0  0  0  0  0
   58.7240   26.3843   46.8390 H   0  0  0  0  0  0  0  0  0  0  0  0
   60.9755   27.3439   46.3679 H   0  0  0  0  0  0  0  0  0  0  0  0
   61.1983   29.3598   44.9169 H   0  0  0  0  0  0  0  0  0  0  0  0
   59.1706   30.4126   43.9199 H   0  0  0  0  0  0  0  0  0  0  0  0
   57.3012   31.2391   46.9999 H   0  0  0  0  0  0  0  0  0  0  0  0
   59.1772   32.6027   47.9082 H   0  0  0  0  0  0  0  0  0  0  0  0
   62.3468   33.0547   51.1259 H   0  0  0  0  0  0  0  0  0  0  0  0
   63.9651   33.8221   50.9884 H   0  0  0  0  0  0  0  0  0  0  0  0
   62.4852   34.8403   50.9884 H   0  0  0  0  0  0  0  0  0  0  0  0
   65.9370   32.7260   48.6030 H   0  0  0  0  0  0  0  0  0  0  0  0
   64.5694   32.6974   46.4470 H   0  0  0  0  0  0  0  0  0  0  0  0
   59.4568   34.7218   44.1444 H   0  0  0  0  0  0  0  0  0  0  0  0
   57.5775   33.3611   43.2366 H   0  0  0  0  0  0  0  0  0  0  0  0
  1  2  1  0
  2  3  1  0
  3  4  2  0
  4  5  1  0
  5  6  2  0
  6  7  1  0
  7  8  2  0
  8  9  1  0
  9 10  2  0
  9 11  2  0
  9 12  1  0
 12 13  1  0
 13 14  2  0
 14 15  1  0
 15 16  2  0
 16 17  1  0
 17 18  2  3
 18 19  1  0
 19 20  2  0
 20 21  1  0
 20 22  1  0
 22 23  1  0
 22 24  2  0
 24 25  1  0
 16 26  1  0
 26 27  2  0
  8  3  1  0
 27 13  1  0
 25 18  1  0
  1 28  1  0
  1 29  1  0
  1 30  1  0
  4 31  1  0
  5 32  1  0
  6 33  1  0
  7 34  1  0
 14 35  1  0
 15 36  1  0
 21 37  1  0
 21 38  1  0
 21 39  1  0
 23 40  1  0
 24 41  1  0
 26 42  1  0
 27 43  1  0
M  CHG  2  12  -1  25  -1
M  END
>  <UniqueID>  (94) 
90

>  <SMILES>  (94) 
COc1ccccc1S(=O)(=O)[N-]c1ccc(N=c2nc(C)c(O)c[n-]2)cc1

>  <Energy>  (94) 
54.777614088352294

>  <Genealogy>  (94) 
COc1ccccc1S(=O)(=O)[N-]c1ccc(N=c2nc(C)c(O)c[n-]2)cc1 (protonated)
COc1ccccc1S(=O)(=O)[N-]c1ccc(N=c2nc(C)c(O)c[n-]2)cc1 (3D coordinates assigned)
COc1ccccc1S(=O)(=O)[N-]c1ccc(N=c2nc(C)c(O)c[n-]2)cc1 (optimized conformer: 54.777614088352294 kcal/mol)

>  <smiles>  (94) 
COc1ccccc1S(=O)(=O)Nc1ccc(N=c2nc(C)c(O)c[nH]2)cc1

>  <score_type>  (94) 
oracle

>  <origin>  (94) 
adg

>  <m_score__min__energy>  (94) 
-10.94

>  <m_primary>  (94) 
energy

$$$$
94:0
     RDKit          3D

 45 46  0  0  1  0  0  0  0  0999 V2000
   57.8030   19.2150   46.8180 C   0  0  0  0  0  0  0  0  0  0  0  0
   57.8780   20.6250   46.5660 O   0  0  0  0  0  0  0  0  0  0  0  0
   58.9240   21.1820   45.8760 N   0  0  0  0  0  0  0  0  0  0  0  0
   58.8470   22.2900   45.2500 C   0  0  0  0  0  0  0  0  0  0  0  0
   57.7080   22.7780   44.5070 C   0  0  0  0  0  0  0  0  0  0  0  0
   57.5380   24.1590   44.3420 C   0  0  0  0  0  0  0  0  0  0  0  0
   58.2740   25.1350   44.8430 O   0  0  0  0  0  0  0  0  0  0  0  0
   58.3860   26.4160   45.0900 C   0  0  0  0  0  0  0  0  0  0  0  0
   58.5780   26.8950   46.3670 C   0  0  0  0  0  0  0  0  0  0  0  0
   58.7030   28.2540   46.6380 C   0  0  0  0  0  0  0  0  0  0  0  0
   58.6380   29.1840   45.6360 C   0  0  0  0  0  0  0  0  0  0  0  0
   58.7460   30.5810   45.8020 N   0  0  0  0  0  0  0  0  0  0  0  0
   57.7830   31.5410   45.4080 C   0  0  0  0  0  0  0  0  0  0  0  0
   56.7160   31.2500   44.8580 O   0  0  0  0  0  0  0  0  0  0  0  0
   58.0240   32.9450   45.6420 N   0  0  0  0  0  0  0  0  0  0  0  0
   57.0210   33.9120   45.2260 C   0  0  0  0  0  0  0  0  0  0  0  0
   59.2670   33.3580   46.2920 C   0  0  0  0  0  0  0  0  0  0  0  0
   58.4450   28.7120   44.3520 C   0  0  0  0  0  0  0  0  0  0  0  0
   58.3230   27.3810   44.0840 C   0  0  0  0  0  0  0  0  0  0  0  0
   58.1190   26.9370   42.6860 C   0  0  0  0  0  0  0  0  0  0  0  0
   56.4640   24.5330   43.5610 N   0  0  0  0  0  0  0  0  0  0  0  0
   55.6310   23.6690   42.9960 C   0  0  0  0  0  0  0  0  0  0  0  0
   55.8230   22.3690   43.1790 N   0  0  0  0  0  0  0  0  0  0  0  0
   56.8490   21.8710   43.9270 C   0  0  0  0  0  0  0  0  0  0  0  0
   56.9040   20.6090   44.0100 N   0  0  0  0  0  0  0  0  0  0  0  0
   57.7935   19.0365   47.9034 H   0  0  0  0  0  0  0  0  0  0  0  0
   56.8821   18.8113   46.3719 H   0  0  0  0  0  0  0  0  0  0  0  0
   58.6759   18.7159   46.3719 H   0  0  0  0  0  0  0  0  0  0  0  0
   59.7352   22.9383   45.2784 H   0  0  0  0  0  0  0  0  0  0  0  0
   58.6344   26.1793   47.2004 H   0  0  0  0  0  0  0  0  0  0  0  0
   58.8567   28.5866   47.6752 H   0  0  0  0  0  0  0  0  0  0  0  0
   59.6150   30.9800   46.2630 H   0  0  0  0  0  0  0  0  0  0  0  0
   56.5545   34.3618   46.1148 H   0  0  0  0  0  0  0  0  0  0  0  0
   57.4982   34.6995   44.6242 H   0  0  0  0  0  0  0  0  0  0  0  0
   56.2515   33.4063   44.6242 H   0  0  0  0  0  0  0  0  0  0  0  0
   59.1412   33.3162   47.3840 H   0  0  0  0  0  0  0  0  0  0  0  0
   60.0806   32.6819   45.9905 H   0  0  0  0  0  0  0  0  0  0  0  0
   59.5142   34.3866   45.9905 H   0  0  0  0  0  0  0  0  0  0  0  0
   58.3881   29.4312   43.5217 H   0  0  0  0  0  0  0  0  0  0  0  0
   57.6597   25.9375   42.6821 H   0  0  0  0  0  0  0  0  0  0  0  0
   57.4567   27.6469   42.1688 H   0  0  0  0  0  0  0  0  0  0  0  0
   59.0890   26.8969   42.1688 H   0  0  0  0  0  0  0  0  0  0  0  0
   56.2730   25.5600   43.3870 H   0  0  0  0  0  0  0  0  0  0  0  0
   54.7906   24.0263   42.3827 H   0  0  0  0  0  0  0  0  0  0  0  0
   57.4460   19.9380   44.5070 H   0  0  0  0  0  0  0  0  0  0  0  0
  1  2  1  0
  2  3  1  0
  3  4  2  0
  4  5  1  0
  5  6  2  0
  6  7  1  0
  7  8  1  0
  8  9  2  0
  9 10  1  0
 10 11  2  0
 11 12  1  0
 12 13  1  0
 13 14  2  0
 13 15  1  0
 15 16  1  0
 15 17  1  0
 11 18  1  0
 18 19  2  0
 19 20  1  0
  6 21  1  0
 21 22  1  0
 22 23  2  0
 23 24  1  0
 24 25  2  3
 24  5  1  0
 19  8  1  0
  1 26  1  0
  1 27  1  0
  1 28  1  0
  4 29  1  0
  9 30  1  0
 10 31  1  0
 12 32  1  0
 16 33  1  0
 16 34  1  0
 16 35  1  0
 17 36  1  0
 17 37  1  0
 17 38  1  0
 18 39  1  0
 20 40  1  0
 20 41  1  0
 20 42  1  0
 21 43  1  0
 22 44  1  0
 25 45  1  0
M  END
>  <smiles>  (95) 
CON=Cc1c(Oc2ccc(NC(=O)N(C)C)cc2C)[nH]cnc1=N

>  <score_type>  (95) 
oracle

>  <origin>  (95) 
adg

>  <m_score__min__energy>  (95) 
-7.1399999999999997

>  <m_primary>  (95) 
energy

$$$$
95:0
     RDKit          3D

 42 44  0  0  0  0  0  0  0  0999 V2000
   58.0980   24.5940   46.2120 N   0  0  0  0  0  0  0  0  0  0  0  0
   57.3820   25.8300   46.2840 C   0  0  0  0  0  0  0  0  0  0  0  0
   56.2600   25.8550   46.8520 O   0  0  0  0  0  0  0  0  0  0  0  0
   57.9550   27.0730   45.7170 C   0  0  0  0  0  0  0  0  0  0  0  0
   57.1050   27.9870   45.0670 C   0  0  0  0  0  0  0  0  0  0  0  0
   57.6130   29.1730   44.5210 C   0  0  0  0  0  0  0  0  0  0  0  0
   56.5430   30.3300   43.7360 S   0  0  0  0  0  0  0  0  0  0  0  0
   55.2450   30.4560   44.4840 O   0  0  0  0  0  0  0  0  0  0  0  0
   56.2550   29.8580   42.3390 O   0  0  0  0  0  0  0  0  0  0  0  0
   57.3100   31.8830   43.6650 N   0  0  0  0  0  0  0  0  0  0  0  0
   57.9530   32.5380   44.7650 C   0  0  0  0  0  0  0  0  0  0  0  0
   57.8960   32.0320   46.0740 C   0  0  0  0  0  0  0  0  0  0  0  0
   58.5560   32.6930   47.1140 C   0  0  0  0  0  0  0  0  0  0  0  0
   59.2820   33.8670   46.8610 C   0  0  0  0  0  0  0  0  0  0  0  0
   59.9800   34.5860   47.9830 C   0  0  0  0  0  0  0  0  0  0  0  0
   61.3980   34.1030   48.1160 C   0  0  0  0  0  0  0  0  0  0  0  0
   62.0780   33.5910   47.0010 C   0  0  0  0  0  0  0  0  0  0  0  0
   63.4040   33.1660   47.1390 C   0  0  0  0  0  0  0  0  0  0  0  0
   64.0260   33.2520   48.3450 N   0  0  0  0  0  0  0  0  0  0  0  0
   63.3940   33.7530   49.4390 C   0  0  0  0  0  0  0  0  0  0  0  0
   62.0700   34.1930   49.3440 C   0  0  0  0  0  0  0  0  0  0  0  0
   59.3120   34.3850   45.5550 C   0  0  0  0  0  0  0  0  0  0  0  0
   58.6570   33.7230   44.5170 C   0  0  0  0  0  0  0  0  0  0  0  0
   58.9800   29.4500   44.6180 C   0  0  0  0  0  0  0  0  0  0  0  0
   59.8340   28.5510   45.2570 C   0  0  0  0  0  0  0  0  0  0  0  0
   59.3350   27.3650   45.8050 C   0  0  0  0  0  0  0  0  0  0  0  0
   60.4660   26.3120   46.6510 Cl  0  0  0  0  0  0  0  0  0  0  0  0
   57.7050   23.7340   46.6530 H   0  0  0  0  0  0  0  0  0  0  0  0
   58.9970   24.5200   45.6890 H   0  0  0  0  0  0  0  0  0  0  0  0
   56.0300   27.7679   44.9868 H   0  0  0  0  0  0  0  0  0  0  0  0
   57.3298   31.1120   46.2816 H   0  0  0  0  0  0  0  0  0  0  0  0
   58.5060   32.2906   48.1365 H   0  0  0  0  0  0  0  0  0  0  0  0
   59.9834   35.6660   47.7742 H   0  0  0  0  0  0  0  0  0  0  0  0
   59.4453   34.3833   48.9227 H   0  0  0  0  0  0  0  0  0  0  0  0
   61.5729   33.5242   46.0261 H   0  0  0  0  0  0  0  0  0  0  0  0
   63.9442   32.7616   46.2703 H   0  0  0  0  0  0  0  0  0  0  0  0
   63.9248   33.8125   50.4006 H   0  0  0  0  0  0  0  0  0  0  0  0
   61.5592   34.6067   50.2260 H   0  0  0  0  0  0  0  0  0  0  0  0
   59.8558   35.3190   45.3501 H   0  0  0  0  0  0  0  0  0  0  0  0
   58.6935   34.1340   43.4973 H   0  0  0  0  0  0  0  0  0  0  0  0
   59.3831   30.3793   44.1893 H   0  0  0  0  0  0  0  0  0  0  0  0
   60.9081   28.7766   45.3304 H   0  0  0  0  0  0  0  0  0  0  0  0
  1  2  1  0
  2  3  2  0
  2  4  1  0
  4  5  2  0
  5  6  1  0
  6  7  1  0
  7  8  2  0
  7  9  2  0
  7 10  1  0
 10 11  1  0
 11 12  2  0
 12 13  1  0
 13 14  2  0
 14 15  1  0
 15 16  1  0
 16 17  2  0
 17 18  1  0
 18 19  2  0
 19 20  1  0
 20 21  2  0
 14 22  1  0
 22 23  2  0
  6 24  2  0
 24 25  1  0
 25 26  2  0
 26 27  1  0
 26  4  1  0
 23 11  1  0
 21 16  1  0
  1 28  1  0
  1 29  1  0
  5 30  1  0
 12 31  1  0
 13 32  1  0
 15 33  1  0
 15 34  1  0
 17 35  1  0
 18 36  1  0
 20 37  1  0
 21 38  1  0
 22 39  1  0
 23 40  1  0
 24 41  1  0
 25 42  1  0
M  CHG  1  10  -1
M  END
>  <UniqueID>  (96) 
91

>  <SMILES>  (96) 
NC(=O)c1cc(S(=O)(=O)[N-]c2ccc(Cc3ccncc3)cc2)ccc1Cl

>  <Energy>  (96) 
51.102401757285556

>  <Genealogy>  (96) 
NC(=O)c1cc(S(=O)(=O)[N-]c2ccc(Cc3ccncc3)cc2)ccc1Cl (protonated)
NC(=O)c1cc(S(=O)(=O)[N-]c2ccc(Cc3ccncc3)cc2)ccc1Cl (3D coordinates assigned)
NC(=O)c1cc(S(=O)(=O)[N-]c2ccc(Cc3ccncc3)cc2)ccc1Cl (optimized conformer: 51.102401757285556 kcal/mol)

>  <smiles>  (96) 
NC(=O)c1cc(S(=O)(=O)Nc2ccc(Cc3ccncc3)cc2)ccc1Cl

>  <score_type>  (96) 
oracle

>  <origin>  (96) 
adg

>  <m_score__min__energy>  (96) 
-10.710000000000001

>  <m_primary>  (96) 
energy

$$$$
96:0
     RDKit          3D

 21 22  0  0  0  0  0  0  0  0999 V2000
   59.9300   25.8630   45.7250 H   0  0  0  0  0  0  0  0  0  0  0  0
   59.4850   24.9630   45.8690 O   0  0  0  0  0  0  0  0  0  0  0  0
   58.1480   24.8790   46.2480 C   0  0  0  0  0  0  0  0  0  0  0  0
   57.7440   23.8490   47.0380 N   0  0  0  0  0  0  0  0  0  0  0  0
   56.4610   23.7520   47.4660 C   0  0  0  0  0  0  0  0  0  0  0  0
   56.1130   22.7870   48.1950 O   0  0  0  0  0  0  0  0  0  0  0  0
   55.5540   24.6990   47.1160 N   0  0  0  0  0  0  0  0  0  0  0  0
   55.9030   25.7460   46.3260 C   0  0  0  0  0  0  0  0  0  0  0  0
   54.9410   26.6920   45.9910 O   0  0  0  0  0  0  0  0  0  0  0  0
   57.2190   25.8590   45.8450 C   0  0  0  0  0  0  0  0  0  0  0  0
   57.5930   27.0100   44.9890 C   0  0  0  0  0  0  0  0  0  0  0  0
   57.4286   26.9370   43.9038 H   0  0  0  0  0  0  0  0  0  0  0  0
   58.1230   28.1350   45.4850 C   0  0  0  0  0  0  0  0  0  0  0  0
   58.9524   28.0480   46.2023 H   0  0  0  0  0  0  0  0  0  0  0  0
   57.6530   29.4860   45.1200 C   0  0  0  0  0  0  0  0  0  0  0  0
   58.4570   30.4980   45.0800 N   0  0  0  0  0  0  0  0  0  0  0  0
   57.6520   31.6170   44.7130 C   0  0  0  0  0  0  0  0  0  0  0  0
   58.1210   32.7770   44.5730 O   0  0  0  0  0  0  0  0  0  0  0  0
   56.2740   31.3150   44.5200 N   0  0  0  0  0  0  0  0  0  0  0  0
   56.2940   29.9240   44.7980 C   0  0  0  0  0  0  0  0  0  0  0  0
   55.2590   29.2070   44.8000 O   0  0  0  0  0  0  0  0  0  0  0  0
  1  2  1  0
  2  3  1  0
  3  4  2  0
  4  5  1  0
  5  6  2  0
  5  7  1  0
  7  8  1  0
  8  9  1  0
  8 10  2  0
 10 11  1  0
 11 12  1  0
 11 13  2  0
 13 14  1  0
 13 15  1  0
 15 16  2  0
 16 17  1  0
 17 18  2  0
 17 19  1  0
 19 20  1  0
 20 21  2  0
 10  3  1  0
 20 15  1  0
M  CHG  3   7  -1   9  -1  19  -1
M  END
>  <UniqueID>  (97) 
92

>  <SMILES>  (97) 
O=C1N=C(/C=C/c2c(O)nc(=O)[n-]c2[O-])C(=O)[N-]1

>  <Energy>  (97) 
54.514101874557525

>  <Genealogy>  (97) 
O=C1N=C(C=Cc2c(O)nc(=O)[n-]c2[O-])C(=O)[N-]1 (protonated)
O=C1N=C(/C=C/c2c(O)nc(=O)[n-]c2[O-])C(=O)[N-]1 (cis-trans isomerization)
O=C1N=C(/C=C/c2c(O)nc(=O)[n-]c2[O-])C(=O)[N-]1 (3D coordinates assigned)
O=C1N=C(/C=C/c2c(O)nc(=O)[n-]c2[O-])C(=O)[N-]1 (nonaromatic ring conformer: 54.514101874557525 kcal/mol)

>  <smiles>  (97) 
O=C1N=C(C=Cc2c(O)nc(=O)[nH]c2O)C(=O)N1

>  <score_type>  (97) 
oracle

>  <origin>  (97) 
adg

>  <m_score__min__energy>  (97) 
-13.27

>  <m_primary>  (97) 
energy

$$$$
