0:0
     RDKit          3D

 49 52  0  0  0  0  0  0  0  0999 V2000
   53.4450   23.0920   46.1990 C   0  0  0  0  0  0  0  0  0  0  0  0
   53.6070   23.7150   44.4970 S   0  0  0  0  0  0  0  0  0  0  0  0
   55.3710   23.4190   44.4400 C   0  0  0  0  0  0  0  0  0  0  0  0
   55.8720   22.4470   43.6330 N   0  0  0  0  0  0  0  0  0  0  0  0
   57.2090   22.2220   43.5640 C   0  0  0  0  0  0  0  0  0  0  0  0
   58.0860   22.9870   44.3330 C   0  0  0  0  0  0  0  0  0  0  0  0
   57.5540   23.9730   45.1800 C   0  0  0  0  0  0  0  0  0  0  0  0
   58.3690   24.7910   45.9730 O   0  0  0  0  0  0  0  0  0  0  0  0
   58.5430   26.1730   45.8050 C   0  0  0  0  0  0  0  0  0  0  0  0
   58.1470   26.7540   44.5960 C   0  0  0  0  0  0  0  0  0  0  0  0
   58.2760   28.1300   44.3960 C   0  0  0  0  0  0  0  0  0  0  0  0
   58.7790   28.9530   45.4110 C   0  0  0  0  0  0  0  0  0  0  0  0
   58.8920   30.3610   45.1570 N   0  0  0  0  0  0  0  0  0  0  0  0
   57.8400   31.3340   45.2030 C   0  0  0  0  0  0  0  0  0  0  0  0
   56.6540   31.0260   44.9100 O   0  0  0  0  0  0  0  0  0  0  0  0
   58.1660   32.7440   45.5840 C   0  0  0  0  0  0  0  0  0  0  0  0
   59.2900   32.9850   46.5430 C   0  0  0  0  0  0  0  0  0  0  0  0
   59.1730   33.8860   47.4170 O   0  0  0  0  0  0  0  0  0  0  0  0
   60.4470   32.1340   46.5150 N   0  0  0  0  0  0  0  0  0  0  0  0
   61.6750   32.4060   47.2130 C   0  0  0  0  0  0  0  0  0  0  0  0
   62.4550   33.5080   46.8270 C   0  0  0  0  0  0  0  0  0  0  0  0
   63.6390   33.8120   47.5060 C   0  0  0  0  0  0  0  0  0  0  0  0
   64.0490   33.0240   48.5840 C   0  0  0  0  0  0  0  0  0  0  0  0
   65.1950   33.3220   49.2450 F   0  0  0  0  0  0  0  0  0  0  0  0
   63.2710   31.9370   48.9920 C   0  0  0  0  0  0  0  0  0  0  0  0
   62.0840   31.6300   48.3170 C   0  0  0  0  0  0  0  0  0  0  0  0
   58.0120   33.7790   44.4790 C   0  0  0  0  0  0  0  0  0  0  0  0
   57.0090   33.7340   45.6230 C   0  0  0  0  0  0  0  0  0  0  0  0
   59.1880   28.3710   46.6250 C   0  0  0  0  0  0  0  0  0  0  0  0
   59.0560   26.9920   46.8280 C   0  0  0  0  0  0  0  0  0  0  0  0
   59.3900   26.4700   48.0340 F   0  0  0  0  0  0  0  0  0  0  0  0
   56.2100   24.1730   45.2010 N   0  0  0  0  0  0  0  0  0  0  0  0
   53.6565   23.9053   46.9088 H   0  0  0  0  0  0  0  0  0  0  0  0
   52.4211   22.7231   46.3585 H   0  0  0  0  0  0  0  0  0  0  0  0
   54.1595   22.2710   46.3585 H   0  0  0  0  0  0  0  0  0  0  0  0
   57.6009   21.4362   42.9015 H   0  0  0  0  0  0  0  0  0  0  0  0
   59.1720   22.8214   44.2772 H   0  0  0  0  0  0  0  0  0  0  0  0
   57.7310   26.1226   43.7971 H   0  0  0  0  0  0  0  0  0  0  0  0
   57.9799   28.5711   43.4328 H   0  0  0  0  0  0  0  0  0  0  0  0
   60.3660   31.2290   45.9990 H   0  0  0  0  0  0  0  0  0  0  0  0
   62.1322   34.1368   45.9842 H   0  0  0  0  0  0  0  0  0  0  0  0
   64.2479   34.6722   47.1910 H   0  0  0  0  0  0  0  0  0  0  0  0
   63.5922   31.3216   49.8453 H   0  0  0  0  0  0  0  0  0  0  0  0
   61.4684   30.7809   48.6487 H   0  0  0  0  0  0  0  0  0  0  0  0
   58.7241   34.6141   44.4046 H   0  0  0  0  0  0  0  0  0  0  0  0
   57.9423   33.7405   43.3819 H   0  0  0  0  0  0  0  0  0  0  0  0
   56.9965   34.5362   46.3755 H   0  0  0  0  0  0  0  0  0  0  0  0
   55.9147   33.6493   45.6954 H   0  0  0  0  0  0  0  0  0  0  0  0
   59.6136   29.0027   47.4186 H   0  0  0  0  0  0  0  0  0  0  0  0
  1  2  1  0
  2  3  1  0
  3  4  2  0
  4  5  1  0
  5  6  2  0
  6  7  1  0
  7  8  1  0
  8  9  1  0
  9 10  2  0
 10 11  1  0
 11 12  2  0
 12 13  1  0
 13 14  1  0
 14 15  2  0
 14 16  1  0
 16 17  1  0
 17 18  2  0
 17 19  1  0
 19 20  1  0
 20 21  2  0
 21 22  1  0
 22 23  2  0
 23 24  1  0
 23 25  1  0
 25 26  2  0
 16 27  1  0
 27 28  1  0
 12 29  1  0
 29 30  2  0
 30 31  1  0
  7 32  2  0
 32  3  1  0
 30  9  1  0
 28 16  1  0
 26 20  1  0
  1 33  1  0
  1 34  1  0
  1 35  1  0
  5 36  1  0
  6 37  1  0
 10 38  1  0
 11 39  1  0
 19 40  1  0
 21 41  1  0
 22 42  1  0
 25 43  1  0
 26 44  1  0
 27 45  1  0
 27 46  1  0
 28 47  1  0
 28 48  1  0
 29 49  1  0
M  CHG  1  13  -1
M  END
>  <UniqueID>  (1) 
1

>  <SMILES>  (1) 
CSc1nccc(Oc2ccc([N-]C(=O)C3(C(=O)Nc4ccc(F)cc4)CC3)cc2F)n1

>  <Energy>  (1) 
328.4892096153795

>  <Genealogy>  (1) 
CSc1nccc(Oc2ccc([N-]C(=O)C3(C(=O)Nc4ccc(F)cc4)CC3)cc2F)n1 (protonated)
CSc1nccc(Oc2ccc([N-]C(=O)C3(C(=O)Nc4ccc(F)cc4)CC3)cc2F)n1 (3D coordinates assigned)
CSc1nccc(Oc2ccc([N-]C(=O)C3(C(=O)Nc4ccc(F)cc4)CC3)cc2F)n1 (nonaromatic ring conformer: 328.4892096153795 kcal/mol)

>  <smiles>  (1) 
CSc1nccc(Oc2ccc(NC(=O)C3(C(=O)Nc4ccc(F)cc4)CC3)cc2F)n1

>  <score_type>  (1) 
oracle

>  <origin>  (1) 
adg

>  <m_score__min__energy>  (1) 
-9.5399999999999991

>  <m_primary>  (1) 
energy

$$$$
1:0
     RDKit          3D

 37 39  0  0  0  0  0  0  0  0999 V2000
   60.0350   28.2570   48.7140 O   0  0  0  0  0  0  0  0  0  0  0  0
   60.6620   29.1120   48.0330 C   0  0  0  0  0  0  0  0  0  0  0  0
   61.0280   30.4270   48.6460 C   0  0  0  0  0  0  0  0  0  0  0  0
   60.6090   31.5320   47.7630 N   0  0  0  0  0  0  0  0  0  0  0  0
   61.5440   32.3740   47.2130 C   0  0  0  0  0  0  0  0  0  0  0  0
   62.7700   32.2270   47.4670 O   0  0  0  0  0  0  0  0  0  0  0  0
   61.1760   33.3560   46.3990 O   0  0  0  0  0  0  0  0  0  0  0  0
   59.9100   33.5690   46.0700 C   0  0  0  0  0  0  0  0  0  0  0  0
   59.5820   34.6220   45.2090 C   0  0  0  0  0  0  0  0  0  0  0  0
   58.2480   34.8470   44.8560 C   0  0  0  0  0  0  0  0  0  0  0  0
   57.2390   34.0220   45.3600 C   0  0  0  0  0  0  0  0  0  0  0  0
   57.5590   32.9670   46.2210 C   0  0  0  0  0  0  0  0  0  0  0  0
   58.9000   32.7350   46.5830 C   0  0  0  0  0  0  0  0  0  0  0  0
   59.2860   31.6960   47.4410 C   0  0  0  0  0  0  0  0  0  0  0  0
   58.4120   30.9150   47.9120 O   0  0  0  0  0  0  0  0  0  0  0  0
   60.9820   28.8570   46.6620 N   0  0  0  0  0  0  0  0  0  0  0  0
   60.1400   29.2730   45.5460 C   0  0  0  0  0  0  0  0  0  0  0  0
   58.7970   28.5980   45.6240 C   0  0  0  0  0  0  0  0  0  0  0  0
   58.6860   27.2780   46.0870 C   0  0  0  0  0  0  0  0  0  0  0  0
   57.4370   26.6530   46.1370 C   0  0  0  0  0  0  0  0  0  0  0  0
   56.2900   27.3360   45.7200 C   0  0  0  0  0  0  0  0  0  0  0  0
   55.0560   26.7000   45.7740 O   0  0  0  0  0  0  0  0  0  0  0  0
   56.3930   28.6560   45.2480 C   0  0  0  0  0  0  0  0  0  0  0  0
   55.2660   29.3590   44.8240 O   0  0  0  0  0  0  0  0  0  0  0  0
   57.6450   29.2800   45.2000 C   0  0  0  0  0  0  0  0  0  0  0  0
   60.5245   30.5277   49.6188 H   0  0  0  0  0  0  0  0  0  0  0  0
   62.1186   30.4693   48.7830 H   0  0  0  0  0  0  0  0  0  0  0  0
   60.3738   35.2729   44.8098 H   0  0  0  0  0  0  0  0  0  0  0  0
   57.9920   35.6758   44.1796 H   0  0  0  0  0  0  0  0  0  0  0  0
   56.1909   34.2026   45.0791 H   0  0  0  0  0  0  0  0  0  0  0  0
   56.7629   32.3184   46.6154 H   0  0  0  0  0  0  0  0  0  0  0  0
   60.0006   30.3635   45.5836 H   0  0  0  0  0  0  0  0  0  0  0  0
   60.6294   28.9875   44.6031 H   0  0  0  0  0  0  0  0  0  0  0  0
   59.5849   26.7335   46.4116 H   0  0  0  0  0  0  0  0  0  0  0  0
   57.3557   25.6198   46.5058 H   0  0  0  0  0  0  0  0  0  0  0  0
   54.3930   28.8950   44.6060 H   0  0  0  0  0  0  0  0  0  0  0  0
   57.7271   30.3118   44.8276 H   0  0  0  0  0  0  0  0  0  0  0  0
  1  2  2  0
  2  3  1  0
  3  4  1  0
  4  5  1  0
  5  6  2  0
  5  7  1  0
  7  8  1  0
  8  9  2  0
  9 10  1  0
 10 11  2  0
 11 12  1  0
 12 13  2  0
 13 14  1  0
 14 15  2  0
  2 16  1  0
 16 17  1  0
 17 18  1  0
 18 19  2  0
 19 20  1  0
 20 21  2  0
 21 22  1  0
 21 23  1  0
 23 24  1  0
 23 25  2  0
 14  4  1  0
 25 18  1  0
 13  8  1  0
  3 26  1  0
  3 27  1  0
  9 28  1  0
 10 29  1  0
 11 30  1  0
 12 31  1  0
 17 32  1  0
 17 33  1  0
 19 34  1  0
 20 35  1  0
 24 36  1  0
 25 37  1  0
M  CHG  2  16  -1  22  -1
M  END
>  <UniqueID>  (2) 
2

>  <SMILES>  (2) 
O=C(Cn1c(=O)oc2ccccc2c1=O)[N-]Cc1ccc([O-])c(O)c1

>  <Energy>  (2) 
44.63170825812154

>  <Genealogy>  (2) 
O=C(Cn1c(=O)oc2ccccc2c1=O)[N-]Cc1ccc([O-])c(O)c1 (protonated)
O=C(Cn1c(=O)oc2ccccc2c1=O)[N-]Cc1ccc([O-])c(O)c1 (3D coordinates assigned)
O=C(Cn1c(=O)oc2ccccc2c1=O)[N-]Cc1ccc([O-])c(O)c1 (optimized conformer: 44.63170825812154 kcal/mol)

>  <smiles>  (2) 
O=C(Cn1c(=O)oc2ccccc2c1=O)NCc1ccc(O)c(O)c1

>  <score_type>  (2) 
oracle

>  <origin>  (2) 
adg

>  <m_score__min__energy>  (2) 
-12.51

>  <m_primary>  (2) 
energy

$$$$
2:0
     RDKit          3D

 58 61  0  0  0  0  0  0  0  0999 V2000
   58.0890   33.8080   46.7860 C   0  0  0  0  0  0  0  0  0  0  0  0
   57.6870   32.6680   46.2190 C   0  0  0  0  0  0  0  0  0  0  0  0
   58.6300   31.7870   45.4470 C   0  0  0  0  0  0  0  0  0  0  0  0
   58.4350   30.3830   45.8410 N   0  0  0  0  0  0  0  0  0  0  0  0
   58.7530   29.8470   47.0430 C   0  0  0  0  0  0  0  0  0  0  0  0
   59.2690   30.5950   48.2090 C   0  0  0  0  0  0  0  0  0  0  0  0
   58.4790   30.8790   49.1500 O   0  0  0  0  0  0  0  0  0  0  0  0
   60.6620   30.9510   48.3140 N   0  0  0  0  0  0  0  0  0  0  0  0
   61.2510   31.1160   49.6520 C   0  0  0  0  0  0  0  0  0  0  0  0
   62.7440   31.4500   49.5730 C   0  0  0  0  0  0  0  0  0  0  0  0
   62.9690   32.6190   48.5940 C   0  0  0  0  0  0  0  0  0  0  0  0
   64.4430   33.0950   48.5580 C   0  0  0  0  0  0  0  0  0  0  0  0
   65.1320   33.1060   49.9070 C   0  0  0  0  0  0  0  0  0  0  0  0
   66.2910   32.3360   50.1170 C   0  0  0  0  0  0  0  0  0  0  0  0
   66.9230   32.3370   51.3650 C   0  0  0  0  0  0  0  0  0  0  0  0
   66.3980   33.0940   52.4160 C   0  0  0  0  0  0  0  0  0  0  0  0
   65.2390   33.8480   52.2220 C   0  0  0  0  0  0  0  0  0  0  0  0
   64.6030   33.8500   50.9750 C   0  0  0  0  0  0  0  0  0  0  0  0
   62.3880   32.3310   47.1810 C   0  0  0  0  0  0  0  0  0  0  0  0
   61.5080   31.0710   47.1150 C   0  0  0  0  0  0  0  0  0  0  0  0
   58.5720   28.4820   47.0310 C   0  0  0  0  0  0  0  0  0  0  0  0
   58.1640   28.1400   45.7540 C   0  0  0  0  0  0  0  0  0  0  0  0
   57.9730   26.8610   45.3750 C   0  0  0  0  0  0  0  0  0  0  0  0
   57.3560   25.8050   46.1880 C   0  0  0  0  0  0  0  0  0  0  0  0
   58.0410   24.7630   46.6910 N   0  0  0  0  0  0  0  0  0  0  0  0
   57.0790   23.9990   47.2530 C   0  0  0  0  0  0  0  0  0  0  0  0
   57.3320   22.9190   47.8450 O   0  0  0  0  0  0  0  0  0  0  0  0
   55.8230   24.4750   47.1140 N   0  0  0  0  0  0  0  0  0  0  0  0
   56.0090   25.6100   46.4230 C   0  0  0  0  0  0  0  0  0  0  0  0
   54.9630   26.4260   45.9960 O   0  0  0  0  0  0  0  0  0  0  0  0
   58.0620   29.3470   45.0390 C   0  0  0  0  0  0  0  0  0  0  0  0
   57.5950   29.5050   43.7890 C   0  0  0  0  0  0  0  0  0  0  0  0
   57.3715   34.4279   47.3436 H   0  0  0  0  0  0  0  0  0  0  0  0
   59.1377   34.1273   46.6956 H   0  0  0  0  0  0  0  0  0  0  0  0
   56.6346   32.3642   46.3196 H   0  0  0  0  0  0  0  0  0  0  0  0
   58.4320   31.8951   44.3704 H   0  0  0  0  0  0  0  0  0  0  0  0
   59.6662   32.0850   45.6649 H   0  0  0  0  0  0  0  0  0  0  0  0
   60.7296   31.9322   50.1735 H   0  0  0  0  0  0  0  0  0  0  0  0
   61.1388   30.1671   50.1970 H   0  0  0  0  0  0  0  0  0  0  0  0
   63.1072   31.7353   50.5713 H   0  0  0  0  0  0  0  0  0  0  0  0
   63.2942   30.5671   49.2154 H   0  0  0  0  0  0  0  0  0  0  0  0
   62.3930   33.4683   48.9902 H   0  0  0  0  0  0  0  0  0  0  0  0
   65.0045   32.4245   47.8907 H   0  0  0  0  0  0  0  0  0  0  0  0
   64.4270   34.1370   48.2060 H   0  0  0  0  0  0  0  0  0  0  0  0
   66.7020   31.7304   49.2958 H   0  0  0  0  0  0  0  0  0  0  0  0
   67.8346   31.7410   51.5194 H   0  0  0  0  0  0  0  0  0  0  0  0
   66.8978   33.0958   53.3959 H   0  0  0  0  0  0  0  0  0  0  0  0
   64.8250   34.4415   53.0505 H   0  0  0  0  0  0  0  0  0  0  0  0
   63.6841   34.4372   50.8305 H   0  0  0  0  0  0  0  0  0  0  0  0
   61.7801   33.1947   46.8736 H   0  0  0  0  0  0  0  0  0  0  0  0
   63.2442   32.1584   46.5123 H   0  0  0  0  0  0  0  0  0  0  0  0
   60.8638   31.1291   46.2253 H   0  0  0  0  0  0  0  0  0  0  0  0
   62.1639   30.1896   47.0610 H   0  0  0  0  0  0  0  0  0  0  0  0
   58.7231   27.7942   47.8761 H   0  0  0  0  0  0  0  0  0  0  0  0
   58.3097   26.5828   44.3654 H   0  0  0  0  0  0  0  0  0  0  0  0
   54.0280   26.3270   46.3700 H   0  0  0  0  0  0  0  0  0  0  0  0
   57.5652   30.5067   43.3355 H   0  0  0  0  0  0  0  0  0  0  0  0
   57.2425   28.6326   43.2192 H   0  0  0  0  0  0  0  0  0  0  0  0
  1  2  2  0
  2  3  1  0
  3  4  1  0
  4  5  1  0
  5  6  1  0
  6  7  2  0
  6  8  1  0
  8  9  1  0
  9 10  1  0
 10 11  1  0
 11 12  1  0
 12 13  1  0
 13 14  2  0
 14 15  1  0
 15 16  2  0
 16 17  1  0
 17 18  2  0
 11 19  1  0
 19 20  1  0
  5 21  2  0
 21 22  1  0
 22 23  2  3
 23 24  1  0
 24 25  1  0
 25 26  1  0
 26 27  2  0
 26 28  1  0
 28 29  1  0
 29 30  1  0
 22 31  1  0
 31 32  2  0
 31  4  1  0
 20  8  1  0
 29 24  2  0
 18 13  1  0
  1 33  1  0
  1 34  1  0
  2 35  1  0
  3 36  1  0
  3 37  1  0
  9 38  1  0
  9 39  1  0
 10 40  1  0
 10 41  1  0
 11 42  1  0
 12 43  1  0
 12 44  1  0
 14 45  1  0
 15 46  1  0
 16 47  1  0
 17 48  1  0
 18 49  1  0
 19 50  1  0
 19 51  1  0
 20 52  1  0
 20 53  1  0
 21 54  1  0
 23 55  1  0
 30 56  1  0
 32 57  1  0
 32 58  1  0
M  CHG  2  25  -1  28  -1
M  END
>  <UniqueID>  (3) 
3

>  <SMILES>  (3) 
C=CCn1c(C(=O)N2CCC(Cc3ccccc3)CC2)cc(=Cc2[n-]c(=O)[n-]c2O)c1=C

>  <Energy>  (3) 
136.01294273723136

>  <Genealogy>  (3) 
C=CCn1c(C(=O)N2CCC(Cc3ccccc3)CC2)cc(=Cc2[n-]c(=O)[n-]c2O)c1=C (protonated)
C=CCn1c(C(=O)N2CCC(Cc3ccccc3)CC2)cc(=Cc2[n-]c(=O)[n-]c2O)c1=C (3D coordinates assigned)
C=CCn1c(C(=O)N2CCC(Cc3ccccc3)CC2)cc(=Cc2[n-]c(=O)[n-]c2O)c1=C (nonaromatic ring conformer: 136.01294273723136 kcal/mol)

>  <smiles>  (3) 
C=CCn1c(C(=O)N2CCC(Cc3ccccc3)CC2)cc(=Cc2[nH]c(=O)[nH]c2O)c1=C

>  <score_type>  (3) 
oracle

>  <origin>  (3) 
adg

>  <m_score__min__energy>  (3) 
-13.91

>  <m_primary>  (3) 
energy

$$$$
3:0
     RDKit          3D

 26 27  0  0  0  0  0  0  0  0999 V2000
   59.4110   27.1530   46.1470 C   0  0  0  0  0  0  0  0  0  0  0  0
   58.4480   27.9750   45.7290 C   0  0  0  0  0  0  0  0  0  0  0  0
   58.7050   29.2230   45.2810 N   0  0  0  0  0  0  0  0  0  0  0  0
   57.5110   29.7610   44.9520 C   0  0  0  0  0  0  0  0  0  0  0  0
   57.4070   31.0030   44.4510 C   0  0  0  0  0  0  0  0  0  0  0  0
   57.9790   32.2120   45.0720 C   0  0  0  0  0  0  0  0  0  0  0  0
   58.2300   33.3660   44.3110 C   0  0  0  0  0  0  0  0  0  0  0  0
   58.7240   34.5200   44.9260 C   0  0  0  0  0  0  0  0  0  0  0  0
   58.9500   34.5380   46.3040 C   0  0  0  0  0  0  0  0  0  0  0  0
   58.6740   33.4050   47.0760 C   0  0  0  0  0  0  0  0  0  0  0  0
   58.8920   33.4410   48.4520 O   0  0  0  0  0  0  0  0  0  0  0  0
   58.1780   32.2460   46.4610 C   0  0  0  0  0  0  0  0  0  0  0  0
   56.4980   28.8380   45.1750 C   0  0  0  0  0  0  0  0  0  0  0  0
   55.1450   28.9930   44.8990 O   0  0  0  0  0  0  0  0  0  0  0  0
   57.0860   27.6970   45.6820 C   0  0  0  0  0  0  0  0  0  0  0  0
   56.4010   26.4490   46.0610 C   0  0  0  0  0  0  0  0  0  0  0  0
   55.1460   26.3690   46.0210 O   0  0  0  0  0  0  0  0  0  0  0  0
   59.1564   26.1442   46.5041 H   0  0  0  0  0  0  0  0  0  0  0  0
   60.4601   27.4837   46.1348 H   0  0  0  0  0  0  0  0  0  0  0  0
   56.8544   31.1274   43.5080 H   0  0  0  0  0  0  0  0  0  0  0  0
   58.0372   33.3614   43.2280 H   0  0  0  0  0  0  0  0  0  0  0  0
   58.9351   35.4157   44.3234 H   0  0  0  0  0  0  0  0  0  0  0  0
   59.3460   35.4454   46.7833 H   0  0  0  0  0  0  0  0  0  0  0  0
   59.1050   32.6000   48.9760 H   0  0  0  0  0  0  0  0  0  0  0  0
   57.9440   31.3602   47.0697 H   0  0  0  0  0  0  0  0  0  0  0  0
   56.9924   25.5788   46.3820 H   0  0  0  0  0  0  0  0  0  0  0  0
  1  2  2  0
  2  3  1  0
  3  4  1  0
  4  5  2  3
  5  6  1  0
  6  7  2  0
  7  8  1  0
  8  9  2  0
  9 10  1  0
 10 11  1  0
 10 12  2  0
  4 13  1  0
 13 14  1  0
 13 15  2  0
 15 16  1  0
 16 17  2  0
 15  2  1  0
 12  6  1  0
  1 18  1  0
  1 19  1  0
  5 20  1  0
  7 21  1  0
  8 22  1  0
  9 23  1  0
 11 24  1  0
 12 25  1  0
 16 26  1  0
M  CHG  2   3  -1  14  -1
M  END
>  <UniqueID>  (4) 
4

>  <SMILES>  (4) 
C=c1[n-]c(=Cc2cccc(O)c2)c([O-])c1C=O

>  <Energy>  (4) 
61.63492671266494

>  <Genealogy>  (4) 
C=c1[n-]c(=Cc2cccc(O)c2)c([O-])c1C=O (protonated)
C=c1[n-]c(=Cc2cccc(O)c2)c([O-])c1C=O (3D coordinates assigned)
C=c1[n-]c(=Cc2cccc(O)c2)c([O-])c1C=O (optimized conformer: 61.63492671266494 kcal/mol)

>  <smiles>  (4) 
C=c1[nH]c(=Cc2cccc(O)c2)c(O)c1C=O

>  <score_type>  (4) 
oracle

>  <origin>  (4) 
adg

>  <m_score__min__energy>  (4) 
-11.380000000000001

>  <m_primary>  (4) 
energy

$$$$
4:0
     RDKit          3D

 48 50  0  0  0  0  0  0  0  0999 V2000
   55.0840   30.6750   44.4870 O   0  0  0  0  0  0  0  0  0  0  0  0
   56.0610   29.8880   44.3790 C   0  0  0  0  0  0  0  0  0  0  0  0
   57.3210   30.3710   43.7060 C   0  0  0  0  0  0  0  0  0  0  0  0
   57.8560   31.6110   44.3800 C   0  0  0  0  0  0  0  0  0  0  0  0
   58.3120   32.6890   43.6040 C   0  0  0  0  0  0  0  0  0  0  0  0
   58.8410   33.8290   44.2190 C   0  0  0  0  0  0  0  0  0  0  0  0
   58.9240   33.8990   45.6110 C   0  0  0  0  0  0  0  0  0  0  0  0
   58.4700   32.8330   46.3930 C   0  0  0  0  0  0  0  0  0  0  0  0
   57.9400   31.6860   45.7860 C   0  0  0  0  0  0  0  0  0  0  0  0
   57.5040   30.6220   46.5730 O   0  0  0  0  0  0  0  0  0  0  0  0
   55.9560   28.5840   44.9670 N   0  0  0  0  0  0  0  0  0  0  0  0
   57.0290   27.5980   45.0490 C   0  0  0  0  0  0  0  0  0  0  0  0
   57.0150   26.9180   46.3890 C   0  0  0  0  0  0  0  0  0  0  0  0
   56.0470   26.1690   46.6840 O   0  0  0  0  0  0  0  0  0  0  0  0
   58.0970   27.0460   47.3210 N   0  0  0  0  0  0  0  0  0  0  0  0
   58.9860   28.1650   47.4420 C   0  0  0  0  0  0  0  0  0  0  0  0
   58.9470   28.9400   48.6070 C   0  0  0  0  0  0  0  0  0  0  0  0
   59.7820   30.0530   48.7440 C   0  0  0  0  0  0  0  0  0  0  0  0
   60.6600   30.4150   47.7090 C   0  0  0  0  0  0  0  0  0  0  0  0
   61.5120   31.5680   47.8500 N   0  0  0  0  0  0  0  0  0  0  0  0
   61.0570   32.7170   48.6480 C   0  0  0  0  0  0  0  0  0  0  0  0
   61.6910   34.0450   48.1720 C   0  0  0  0  0  0  0  0  0  0  0  0
   62.5380   33.8860   47.0500 O   0  0  0  0  0  0  0  0  0  0  0  0
   63.5160   32.9110   47.3340 C   0  0  0  0  0  0  0  0  0  0  0  0
   62.8750   31.5250   47.3080 C   0  0  0  0  0  0  0  0  0  0  0  0
   60.6750   29.6540   46.5280 C   0  0  0  0  0  0  0  0  0  0  0  0
   59.8390   28.5420   46.3920 C   0  0  0  0  0  0  0  0  0  0  0  0
   58.0818   29.5781   43.7564 H   0  0  0  0  0  0  0  0  0  0  0  0
   57.0863   30.6158   42.6596 H   0  0  0  0  0  0  0  0  0  0  0  0
   58.2530   32.6368   42.5068 H   0  0  0  0  0  0  0  0  0  0  0  0
   59.1920   34.6714   43.6049 H   0  0  0  0  0  0  0  0  0  0  0  0
   59.3467   34.7932   46.0924 H   0  0  0  0  0  0  0  0  0  0  0  0
   58.5289   32.8945   47.4897 H   0  0  0  0  0  0  0  0  0  0  0  0
   56.6620   30.1040   46.3470 H   0  0  0  0  0  0  0  0  0  0  0  0
   56.8904   26.8451   44.2591 H   0  0  0  0  0  0  0  0  0  0  0  0
   57.9941   28.1095   44.9188 H   0  0  0  0  0  0  0  0  0  0  0  0
   58.2555   28.6718   49.4193 H   0  0  0  0  0  0  0  0  0  0  0  0
   59.7512   30.6489   49.6681 H   0  0  0  0  0  0  0  0  0  0  0  0
   59.9631   32.7962   48.5637 H   0  0  0  0  0  0  0  0  0  0  0  0
   61.3665   32.5488   49.6901 H   0  0  0  0  0  0  0  0  0  0  0  0
   60.8833   34.7423   47.9046 H   0  0  0  0  0  0  0  0  0  0  0  0
   62.3093   34.4272   48.9976 H   0  0  0  0  0  0  0  0  0  0  0  0
   64.3135   32.9605   46.5780 H   0  0  0  0  0  0  0  0  0  0  0  0
   63.9431   33.0991   48.3301 H   0  0  0  0  0  0  0  0  0  0  0  0
   62.8383   31.1646   46.2694 H   0  0  0  0  0  0  0  0  0  0  0  0
   63.4788   30.8469   47.9289 H   0  0  0  0  0  0  0  0  0  0  0  0
   61.3489   29.9350   45.7052 H   0  0  0  0  0  0  0  0  0  0  0  0
   59.8493   27.9598   45.4587 H   0  0  0  0  0  0  0  0  0  0  0  0
  1  2  2  0
  2  3  1  0
  3  4  1  0
  4  5  2  0
  5  6  1  0
  6  7  2  0
  7  8  1  0
  8  9  2  0
  9 10  1  0
  2 11  1  0
 11 12  1  0
 12 13  1  0
 13 14  2  0
 13 15  1  0
 15 16  1  0
 16 17  2  0
 17 18  1  0
 18 19  2  0
 19 20  1  0
 20 21  1  0
 21 22  1  0
 22 23  1  0
 23 24  1  0
 24 25  1  0
 19 26  1  0
 26 27  2  0
  9  4  1  0
 27 16  1  0
 25 20  1  0
  3 28  1  0
  3 29  1  0
  5 30  1  0
  6 31  1  0
  7 32  1  0
  8 33  1  0
 10 34  1  0
 12 35  1  0
 12 36  1  0
 17 37  1  0
 18 38  1  0
 21 39  1  0
 21 40  1  0
 22 41  1  0
 22 42  1  0
 24 43  1  0
 24 44  1  0
 25 45  1  0
 25 46  1  0
 26 47  1  0
 27 48  1  0
M  CHG  2  11  -1  15  -1
M  END
>  <UniqueID>  (5) 
5

>  <SMILES>  (5) 
O=C(Cc1ccccc1O)[N-]CC(=O)[N-]c1ccc(N2CCOCC2)cc1

>  <Energy>  (5) 
61.64960485943599

>  <Genealogy>  (5) 
O=C(Cc1ccccc1O)[N-]CC(=O)[N-]c1ccc(N2CCOCC2)cc1 (protonated)
O=C(Cc1ccccc1O)[N-]CC(=O)[N-]c1ccc(N2CCOCC2)cc1 (3D coordinates assigned)
O=C(Cc1ccccc1O)[N-]CC(=O)[N-]c1ccc(N2CCOCC2)cc1 (nonaromatic ring conformer: 61.64960485943599 kcal/mol)

>  <smiles>  (5) 
O=C(Cc1ccccc1O)NCC(=O)Nc1ccc(N2CCOCC2)cc1

>  <score_type>  (5) 
oracle

>  <origin>  (5) 
adg

>  <m_score__min__energy>  (5) 
-12.119999999999999

>  <m_primary>  (5) 
energy

$$$$
5:0
     RDKit          3D

 75 79  0  0  0  0  0  0  0  0999 V2000
   60.5330   30.6690   46.5280 C   0  0  0  0  0  0  0  0  0  0  0  0
   60.4960   30.0580   47.8980 C   0  0  0  0  0  0  0  0  0  0  0  0
   59.6130   29.0850   48.3340 C   0  0  0  0  0  0  0  0  0  0  0  0
   58.4850   28.4450   47.5770 C   0  0  0  0  0  0  0  0  0  0  0  0
   58.9750   27.3590   46.6510 C   0  0  0  0  0  0  0  0  0  0  0  0
   60.1860   27.0030   46.7080 O   0  0  0  0  0  0  0  0  0  0  0  0
   58.0830   26.6890   45.7280 N   0  0  0  0  0  0  0  0  0  0  0  0
   57.3300   25.5130   46.1860 C   0  0  0  0  0  0  0  0  0  0  0  0
   55.8610   25.7950   46.1430 C   0  0  0  0  0  0  0  0  0  0  0  0
   55.4440   26.9740   45.9900 O   0  0  0  0  0  0  0  0  0  0  0  0
   54.9510   24.7540   46.2870 O   0  0  0  0  0  0  0  0  0  0  0  0
   57.8790   27.1940   44.3590 C   0  0  0  0  0  0  0  0  0  0  0  0
   57.7850   28.6950   44.3610 C   0  0  0  0  0  0  0  0  0  0  0  0
   56.5480   29.3390   44.5030 C   0  0  0  0  0  0  0  0  0  0  0  0
   56.4790   30.7320   44.4730 C   0  0  0  0  0  0  0  0  0  0  0  0
   57.6520   31.4760   44.3120 C   0  0  0  0  0  0  0  0  0  0  0  0
   57.5750   32.8720   44.2820 O   0  0  0  0  0  0  0  0  0  0  0  0
   58.6920   33.7360   44.4970 C   0  0  0  0  0  0  0  0  0  0  0  0
   58.5110   34.5930   45.7550 C   0  0  0  0  0  0  0  0  0  0  0  0
   58.7200   33.8350   47.0370 C   0  0  0  0  0  0  0  0  0  0  0  0
   58.1340   32.6080   47.3330 C   0  0  0  0  0  0  0  0  0  0  0  0
   58.3670   32.1500   48.5920 N   0  0  0  0  0  0  0  0  0  0  0  0
   59.1360   33.0020   49.3150 C   0  0  0  0  0  0  0  0  0  0  0  0
   59.5250   32.7840   50.7640 C   0  0  0  0  0  0  0  0  0  0  0  0
   59.2830   31.4330   51.0970 O   0  0  0  0  0  0  0  0  0  0  0  0
   58.6900   33.6990   51.7040 C   0  0  0  0  0  0  0  0  0  0  0  0
   59.0430   33.4460   53.1760 C   0  0  0  0  0  0  0  0  0  0  0  0
   60.5330   33.4260   53.3820 C   0  0  0  0  0  0  0  0  0  0  0  0
   60.9850   33.2000   54.4940 O   0  0  0  0  0  0  0  0  0  0  0  0
   61.4630   33.7530   52.2460 C   0  0  0  0  0  0  0  0  0  0  0  0
   61.0540   33.0620   50.9260 C   0  0  0  0  0  0  0  0  0  0  0  0
   59.5300   34.3730   48.4160 S   0  0  0  0  0  0  0  0  0  0  0  0
   58.8480   30.8340   44.1900 N   0  0  0  0  0  0  0  0  0  0  0  0
   58.9390   29.4780   44.2110 C   0  0  0  0  0  0  0  0  0  0  0  0
   59.9260   28.8850   49.6650 C   0  0  0  0  0  0  0  0  0  0  0  0
   60.9630   29.6750   50.0030 N   0  0  0  0  0  0  0  0  0  0  0  0
   61.3140   30.3720   48.9300 N   0  0  0  0  0  0  0  0  0  0  0  0
   62.4040   31.3070   48.9360 C   0  0  0  0  0  0  0  0  0  0  0  0
   63.4010   31.2130   49.9210 C   0  0  0  0  0  0  0  0  0  0  0  0
   64.4780   32.1050   49.9210 C   0  0  0  0  0  0  0  0  0  0  0  0
   64.5770   33.0850   48.9290 C   0  0  0  0  0  0  0  0  0  0  0  0
   63.6010   33.1690   47.9320 C   0  0  0  0  0  0  0  0  0  0  0  0
   62.5200   32.2830   47.9320 C   0  0  0  0  0  0  0  0  0  0  0  0
   60.5993   31.7634   46.6163 H   0  0  0  0  0  0  0  0  0  0  0  0
   61.4099   30.2914   45.9817 H   0  0  0  0  0  0  0  0  0  0  0  0
   59.6169   30.4000   45.9817 H   0  0  0  0  0  0  0  0  0  0  0  0
   57.7773   28.0069   48.2961 H   0  0  0  0  0  0  0  0  0  0  0  0
   57.9999   29.2209   46.9666 H   0  0  0  0  0  0  0  0  0  0  0  0
   57.5559   24.6585   45.5311 H   0  0  0  0  0  0  0  0  0  0  0  0
   57.6218   25.2788   47.2204 H   0  0  0  0  0  0  0  0  0  0  0  0
   58.7261   26.8850   43.7290 H   0  0  0  0  0  0  0  0  0  0  0  0
   56.9408   26.7788   43.9623 H   0  0  0  0  0  0  0  0  0  0  0  0
   55.6315   28.7458   44.6381 H   0  0  0  0  0  0  0  0  0  0  0  0
   55.5093   31.2412   44.5752 H   0  0  0  0  0  0  0  0  0  0  0  0
   59.5994   33.1245   44.6096 H   0  0  0  0  0  0  0  0  0  0  0  0
   58.7762   34.4100   43.6317 H   0  0  0  0  0  0  0  0  0  0  0  0
   59.2347   35.4206   45.7187 H   0  0  0  0  0  0  0  0  0  0  0  0
   57.4694   34.9467   45.7564 H   0  0  0  0  0  0  0  0  0  0  0  0
   57.5280   32.0506   46.6035 H   0  0  0  0  0  0  0  0  0  0  0  0
   59.2200   30.9140   50.2520 H   0  0  0  0  0  0  0  0  0  0  0  0
   58.8988   34.7511   51.4600 H   0  0  0  0  0  0  0  0  0  0  0  0
   57.6238   33.4726   51.5560 H   0  0  0  0  0  0  0  0  0  0  0  0
   58.6062   34.2456   53.7923 H   0  0  0  0  0  0  0  0  0  0  0  0
   58.6376   32.4660   53.4681 H   0  0  0  0  0  0  0  0  0  0  0  0
   61.4591   34.8418   52.0897 H   0  0  0  0  0  0  0  0  0  0  0  0
   62.4636   33.3860   52.5182 H   0  0  0  0  0  0  0  0  0  0  0  0
   61.3726   33.7054   50.0926 H   0  0  0  0  0  0  0  0  0  0  0  0
   61.5432   32.0768   50.9340 H   0  0  0  0  0  0  0  0  0  0  0  0
   59.9211   28.9930   44.1100 H   0  0  0  0  0  0  0  0  0  0  0  0
   59.4091   28.1894   50.3424 H   0  0  0  0  0  0  0  0  0  0  0  0
   63.3343   30.4347   50.6954 H   0  0  0  0  0  0  0  0  0  0  0  0
   65.2486   32.0354   50.7029 H   0  0  0  0  0  0  0  0  0  0  0  0
   65.4220   33.7892   48.9331 H   0  0  0  0  0  0  0  0  0  0  0  0
   63.6838   33.9339   47.1458 H   0  0  0  0  0  0  0  0  0  0  0  0
   61.7569   32.3501   47.1426 H   0  0  0  0  0  0  0  0  0  0  0  0
  1  2  1  0
  2  3  2  0
  3  4  1  0
  4  5  1  0
  5  6  2  0
  5  7  1  0
  7  8  1  0
  8  9  1  0
  9 10  2  0
  9 11  1  0
  7 12  1  0
 12 13  1  0
 13 14  2  0
 14 15  1  0
 15 16  2  0
 16 17  1  0
 17 18  1  0
 18 19  1  0
 19 20  1  0
 20 21  2  0
 21 22  1  0
 22 23  2  0
 23 24  1  0
 24 25  1  0
 24 26  1  0
 26 27  1  0
 27 28  1  0
 28 29  2  0
 28 30  1  0
 30 31  1  0
 23 32  1  0
 16 33  1  0
 33 34  2  0
  3 35  1  0
 35 36  2  0
 36 37  1  0
 37 38  1  0
 38 39  2  0
 39 40  1  0
 40 41  2  0
 41 42  1  0
 42 43  2  0
 37  2  1  0
 43 38  1  0
 34 13  1  0
 32 20  1  0
 31 24  1  0
  1 44  1  0
  1 45  1  0
  1 46  1  0
  4 47  1  0
  4 48  1  0
  8 49  1  0
  8 50  1  0
 12 51  1  0
 12 52  1  0
 14 53  1  0
 15 54  1  0
 18 55  1  0
 18 56  1  0
 19 57  1  0
 19 58  1  0
 21 59  1  0
 25 60  1  0
 26 61  1  0
 26 62  1  0
 27 63  1  0
 27 64  1  0
 30 65  1  0
 30 66  1  0
 31 67  1  0
 31 68  1  0
 34 69  1  0
 35 70  1  0
 39 71  1  0
 40 72  1  0
 41 73  1  0
 42 74  1  0
 43 75  1  0
M  CHG  1  11  -1
M  END
>  <UniqueID>  (6) 
6

>  <SMILES>  (6) 
Cc1c(CC(=O)N(CC(=O)[O-])Cc2ccc(OCCc3cnc(C4(O)CCC(=O)CC4)s3)nc2)cnn1-c1ccccc1

>  <Energy>  (6) 
143.19818456604105

>  <Genealogy>  (6) 
Cc1c(CC(=O)N(CC(=O)[O-])Cc2ccc(OCCc3cnc(C4(O)CCC(=O)CC4)s3)nc2)cnn1-c1ccccc1 (protonated)
Cc1c(CC(=O)N(CC(=O)[O-])Cc2ccc(OCCc3cnc(C4(O)CCC(=O)CC4)s3)nc2)cnn1-c1ccccc1 (3D coordinates assigned)
Cc1c(CC(=O)N(CC(=O)[O-])Cc2ccc(OCCc3cnc(C4(O)CCC(=O)CC4)s3)nc2)cnn1-c1ccccc1 (nonaromatic ring conformer: 143.19818456604105 kcal/mol)

>  <smiles>  (6) 
Cc1c(CC(=O)N(CC(=O)O)Cc2ccc(OCCc3cnc(C4(O)CCC(=O)CC4)s3)nc2)cnn1-c1ccccc1

>  <score_type>  (6) 
oracle

>  <origin>  (6) 
adg

>  <m_score__min__energy>  (6) 
-13.15

>  <m_primary>  (6) 
energy

$$$$
6:0
     RDKit          3D

 54 57  0  0  0  0  0  0  0  0999 V2000
   55.0920   24.7677   45.9853 H   0  0  0  0  0  0  0  0  0  0  0  0
   55.8120   25.5620   45.7390 C   0  0  0  0  0  0  0  0  0  0  0  0
   55.5210   26.8720   45.6490 N   0  0  0  0  0  0  0  0  0  0  0  0
   56.6220   27.5390   45.3300 N   0  0  0  0  0  0  0  0  0  0  0  0
   56.5810   29.0100   45.2470 C   0  0  0  0  0  0  0  0  0  0  0  0
   55.5673   29.3649   45.4847 H   0  0  0  0  0  0  0  0  0  0  0  0
   57.3990   29.6950   46.3720 C   0  0  0  0  0  0  0  0  0  0  0  0
   56.7302   29.8698   47.2276 H   0  0  0  0  0  0  0  0  0  0  0  0
   58.2321   29.0188   46.6143 H   0  0  0  0  0  0  0  0  0  0  0  0
   58.0220   31.0350   45.9670 C   0  0  0  0  0  0  0  0  0  0  0  0
   58.0549   31.6965   46.8452 H   0  0  0  0  0  0  0  0  0  0  0  0
   59.0372   30.8489   45.5867 H   0  0  0  0  0  0  0  0  0  0  0  0
   57.2360   31.6820   44.9070 N   0  0  0  0  0  0  0  0  0  0  0  0
   57.8410   33.3000   44.6460 S   0  0  0  0  0  0  0  0  0  0  0  0
   56.7000   34.2800   44.6480 O   0  0  0  0  0  0  0  0  0  0  0  0
   58.5410   33.3800   43.3160 O   0  0  0  0  0  0  0  0  0  0  0  0
   58.9540   33.7360   45.9410 C   0  0  0  0  0  0  0  0  0  0  0  0
   60.3250   33.8390   45.6700 C   0  0  0  0  0  0  0  0  0  0  0  0
   60.7013   33.6332   44.6571 H   0  0  0  0  0  0  0  0  0  0  0  0
   61.2160   34.2030   46.6850 C   0  0  0  0  0  0  0  0  0  0  0  0
   62.2921   34.2792   46.4703 H   0  0  0  0  0  0  0  0  0  0  0  0
   60.7400   34.4700   47.9720 C   0  0  0  0  0  0  0  0  0  0  0  0
   61.4415   34.7556   48.7698 H   0  0  0  0  0  0  0  0  0  0  0  0
   59.3720   34.3740   48.2450 C   0  0  0  0  0  0  0  0  0  0  0  0
   58.9980   34.5852   49.2577 H   0  0  0  0  0  0  0  0  0  0  0  0
   58.4790   34.0100   47.2330 C   0  0  0  0  0  0  0  0  0  0  0  0
   57.4029   33.9382   47.4495 H   0  0  0  0  0  0  0  0  0  0  0  0
   57.3800   30.9090   43.6620 C   0  0  0  0  0  0  0  0  0  0  0  0
   56.8735   31.4471   42.8472 H   0  0  0  0  0  0  0  0  0  0  0  0
   58.4534   30.7951   43.4501 H   0  0  0  0  0  0  0  0  0  0  0  0
   56.7640   29.5060   43.7920 C   0  0  0  0  0  0  0  0  0  0  0  0
   55.7762   29.5198   43.3083 H   0  0  0  0  0  0  0  0  0  0  0  0
   57.4712   28.8117   43.3146 H   0  0  0  0  0  0  0  0  0  0  0  0
   57.6340   26.6270   45.2000 C   0  0  0  0  0  0  0  0  0  0  0  0
   58.8940   26.8250   44.9150 N   0  0  0  0  0  0  0  0  0  0  0  0
   59.7440   27.9620   45.0930 C   0  0  0  0  0  0  0  0  0  0  0  0
   60.3400   28.4510   44.1000 O   0  0  0  0  0  0  0  0  0  0  0  0
   60.0770   28.4340   46.4580 C   0  0  0  0  0  0  0  0  0  0  0  0
   60.7170   29.6720   46.6500 C   0  0  0  0  0  0  0  0  0  0  0  0
   60.9915   30.2848   45.7787 H   0  0  0  0  0  0  0  0  0  0  0  0
   61.0070   30.1300   47.9380 C   0  0  0  0  0  0  0  0  0  0  0  0
   61.5052   31.1016   48.0713 H   0  0  0  0  0  0  0  0  0  0  0  0
   60.6700   29.3650   49.0590 C   0  0  0  0  0  0  0  0  0  0  0  0
   60.9830   29.8760   50.3290 O   0  0  0  0  0  0  0  0  0  0  0  0
   60.5400   31.1300   50.8440 C   0  0  0  0  0  0  0  0  0  0  0  0
   60.4000   31.0570   52.2190 F   0  0  0  0  0  0  0  0  0  0  0  0
   59.3130   31.4340   50.2870 F   0  0  0  0  0  0  0  0  0  0  0  0
   61.4400   32.1270   50.5140 F   0  0  0  0  0  0  0  0  0  0  0  0
   60.0340   28.1230   48.8730 C   0  0  0  0  0  0  0  0  0  0  0  0
   59.7660   27.5100   49.7461 H   0  0  0  0  0  0  0  0  0  0  0  0
   59.7410   27.6640   47.5860 C   0  0  0  0  0  0  0  0  0  0  0  0
   59.2432   26.6920   47.4540 H   0  0  0  0  0  0  0  0  0  0  0  0
   57.1470   25.3680   45.4760 C   0  0  0  0  0  0  0  0  0  0  0  0
   57.7029   24.4189   45.4841 H   0  0  0  0  0  0  0  0  0  0  0  0
  1  2  1  0
  2  3  1  0
  3  4  1  0
  4  5  1  0
  5  6  1  0
  5  7  1  0
  7  8  1  0
  7  9  1  0
  7 10  1  0
 10 11  1  0
 10 12  1  0
 10 13  1  0
 13 14  1  0
 14 15  2  0
 14 16  2  0
 14 17  1  0
 17 18  2  0
 18 19  1  0
 18 20  1  0
 20 21  1  0
 20 22  2  0
 22 23  1  0
 22 24  1  0
 24 25  1  0
 24 26  2  0
 26 27  1  0
 13 28  1  0
 28 29  1  0
 28 30  1  0
 28 31  1  0
 31 32  1  0
 31 33  1  0
  4 34  1  0
 34 35  2  0
 35 36  1  0
 36 37  2  0
 36 38  1  0
 38 39  2  0
 39 40  1  0
 39 41  1  0
 41 42  1  0
 41 43  2  0
 43 44  1  0
 44 45  1  0
 45 46  1  0
 45 47  1  0
 45 48  1  0
 43 49  1  0
 49 50  1  0
 49 51  2  0
 51 52  1  0
 34 53  1  0
 53 54  1  0
 53  2  2  0
 31  5  1  0
 51 38  1  0
 26 17  1  0
M  CHG  1   3  -1
M  END
>  <UniqueID>  (7) 
7

>  <SMILES>  (7) 
O=C(/N=c1/cc[n-]n1C1CCN(S(=O)(=O)c2ccccc2)CC1)c1ccc(OC(F)(F)F)cc1

>  <Energy>  (7) 
116.5025292115673

>  <Genealogy>  (7) 
O=C(N=c1cc[n-]n1C1CCN(S(=O)(=O)c2ccccc2)CC1)c1ccc(OC(F)(F)F)cc1 (protonated)
O=C(/N=c1/cc[n-]n1C1CCN(S(=O)(=O)c2ccccc2)CC1)c1ccc(OC(F)(F)F)cc1 (cis-trans isomerization)
O=C(/N=c1/cc[n-]n1C1CCN(S(=O)(=O)c2ccccc2)CC1)c1ccc(OC(F)(F)F)cc1 (3D coordinates assigned)
O=C(/N=c1/cc[n-]n1C1CCN(S(=O)(=O)c2ccccc2)CC1)c1ccc(OC(F)(F)F)cc1 (nonaromatic ring conformer: 116.5025292115673 kcal/mol)

>  <smiles>  (7) 
O=C(N=c1cc[nH]n1C1CCN(S(=O)(=O)c2ccccc2)CC1)c1ccc(OC(F)(F)F)cc1

>  <score_type>  (7) 
oracle

>  <origin>  (7) 
adg

>  <m_score__min__energy>  (7) 
-10.84

>  <m_primary>  (7) 
energy

$$$$
7:0
     RDKit          3D

 39 41  0  0  0  0  0  0  0  0999 V2000
   59.9170   28.3500   45.9230 C   0  0  0  0  0  0  0  0  0  0  0  0
   58.7250   28.8660   45.5510 C   0  0  0  0  0  0  0  0  0  0  0  0
   58.4980   30.2660   45.6680 C   0  0  0  0  0  0  0  0  0  0  0  0
   59.7330   31.4140   46.3080 S   0  0  0  0  0  0  0  0  0  0  0  0
   58.5350   32.7670   46.5190 C   0  0  0  0  0  0  0  0  0  0  0  0
   59.0330   33.9870   45.8180 C   0  0  0  0  0  0  0  0  0  0  0  0
   58.3070   34.5490   44.9550 O   0  0  0  0  0  0  0  0  0  0  0  0
   60.2480   34.6060   46.2540 N   0  0  0  0  0  0  0  0  0  0  0  0
   61.2250   34.1260   46.9760 C   0  0  0  0  0  0  0  0  0  0  0  0
   62.4030   33.8980   46.3300 N   0  0  0  0  0  0  0  0  0  0  0  0
   63.4880   33.3540   46.9360 C   0  0  0  0  0  0  0  0  0  0  0  0
   63.4270   32.9970   48.2770 C   0  0  0  0  0  0  0  0  0  0  0  0
   62.2620   33.2460   48.9950 C   0  0  0  0  0  0  0  0  0  0  0  0
   61.1500   33.8470   48.3770 C   0  0  0  0  0  0  0  0  0  0  0  0
   59.9980   34.2410   49.2690 C   0  0  0  0  0  0  0  0  0  0  0  0
   57.3110   30.7990   45.2850 N   0  0  0  0  0  0  0  0  0  0  0  0
   56.3180   30.0280   44.7940 C   0  0  0  0  0  0  0  0  0  0  0  0
   55.2290   30.5530   44.4440 O   0  0  0  0  0  0  0  0  0  0  0  0
   56.4940   28.6940   44.6760 N   0  0  0  0  0  0  0  0  0  0  0  0
   57.6500   28.0680   45.0320 C   0  0  0  0  0  0  0  0  0  0  0  0
   57.7210   26.7230   44.8750 C   0  0  0  0  0  0  0  0  0  0  0  0
   57.1460   25.7350   45.8200 C   0  0  0  0  0  0  0  0  0  0  0  0
   57.7920   24.6770   46.3460 N   0  0  0  0  0  0  0  0  0  0  0  0
   56.8620   24.0990   47.1360 C   0  0  0  0  0  0  0  0  0  0  0  0
   57.0940   23.0620   47.8090 O   0  0  0  0  0  0  0  0  0  0  0  0
   55.6640   24.7210   47.1480 N   0  0  0  0  0  0  0  0  0  0  0  0
   55.8610   25.7530   46.3120 C   0  0  0  0  0  0  0  0  0  0  0  0
   54.8860   26.6940   46.0040 O   0  0  0  0  0  0  0  0  0  0  0  0
   60.0997   27.2688   45.8354 H   0  0  0  0  0  0  0  0  0  0  0  0
   60.7047   29.0111   46.3134 H   0  0  0  0  0  0  0  0  0  0  0  0
   57.5661   32.4687   46.0920 H   0  0  0  0  0  0  0  0  0  0  0  0
   58.4125   32.9843   47.5904 H   0  0  0  0  0  0  0  0  0  0  0  0
   64.4153   33.1957   46.3659 H   0  0  0  0  0  0  0  0  0  0  0  0
   64.2906   32.5225   48.7658 H   0  0  0  0  0  0  0  0  0  0  0  0
   62.2094   32.9698   50.0585 H   0  0  0  0  0  0  0  0  0  0  0  0
   60.2981   34.1384   50.3223 H   0  0  0  0  0  0  0  0  0  0  0  0
   59.7188   35.2857   49.0674 H   0  0  0  0  0  0  0  0  0  0  0  0
   59.1375   33.5861   49.0674 H   0  0  0  0  0  0  0  0  0  0  0  0
   58.2410   26.3381   43.9853 H   0  0  0  0  0  0  0  0  0  0  0  0
  1  2  2  0
  2  3  1  0
  3  4  1  0
  4  5  1  0
  5  6  1  0
  6  7  2  0
  6  8  1  0
  8  9  2  3
  9 10  1  0
 10 11  1  0
 11 12  2  0
 12 13  1  0
 13 14  2  0
 14 15  1  0
  3 16  2  0
 16 17  1  0
 17 18  2  0
 17 19  1  0
 19 20  1  0
 20 21  2  3
 21 22  1  0
 22 23  1  0
 23 24  1  0
 24 25  2  0
 24 26  1  0
 26 27  1  0
 27 28  1  0
 20  2  1  0
 27 22  2  0
 14  9  1  0
  1 29  1  0
  1 30  1  0
  5 31  1  0
  5 32  1  0
 11 33  1  0
 12 34  1  0
 13 35  1  0
 15 36  1  0
 15 37  1  0
 15 38  1  0
 21 39  1  0
M  CHG  5  10  -1  19  -1  23  -1  26  -1  28  -1
M  END
>  <UniqueID>  (8) 
8

>  <SMILES>  (8) 
C=c1c(SCC(=O)N=c2[n-]cccc2C)nc(=O)[n-]c1=Cc1[n-]c(=O)[n-]c1[O-]

>  <Energy>  (8) 
95.76348050490729

>  <Genealogy>  (8) 
C=c1c(SCC(=O)N=c2[n-]cccc2C)nc(=O)[n-]c1=Cc1[n-]c(=O)[n-]c1[O-] (protonated)
C=c1c(SCC(=O)N=c2[n-]cccc2C)nc(=O)[n-]c1=Cc1[n-]c(=O)[n-]c1[O-] (3D coordinates assigned)
C=c1c(SCC(=O)N=c2[n-]cccc2C)nc(=O)[n-]c1=Cc1[n-]c(=O)[n-]c1[O-] (optimized conformer: 95.76348050490729 kcal/mol)

>  <smiles>  (8) 
C=c1c(SCC(=O)N=c2[nH]cccc2C)nc(=O)[nH]c1=Cc1[nH]c(=O)[nH]c1O

>  <score_type>  (8) 
oracle

>  <origin>  (8) 
adg

>  <m_score__min__energy>  (8) 
-18.59

>  <m_primary>  (8) 
energy

$$$$
8:0
     RDKit          3D

 78 82  0  0  0  0  0  0  0  0999 V2000
   62.4200   33.9680   46.3940 C   0  0  0  0  0  0  0  0  0  0  0  0
   61.1650   34.5100   46.7920 O   0  0  0  0  0  0  0  0  0  0  0  0
   59.9170   34.0190   46.3760 C   0  0  0  0  0  0  0  0  0  0  0  0
   59.4250   34.2490   45.0750 C   0  0  0  0  0  0  0  0  0  0  0  0
   58.1710   33.7560   44.6970 C   0  0  0  0  0  0  0  0  0  0  0  0
   57.3970   33.0370   45.6080 C   0  0  0  0  0  0  0  0  0  0  0  0
   57.8770   32.7950   46.8990 C   0  0  0  0  0  0  0  0  0  0  0  0
   59.1350   33.2830   47.2940 C   0  0  0  0  0  0  0  0  0  0  0  0
   59.6210   33.0610   48.7010 C   0  0  0  0  0  0  0  0  0  0  0  0
   60.9300   32.4130   48.6540 N   0  0  0  0  0  0  0  0  0  0  0  0
   61.3570   31.3500   47.7960 C   0  0  0  0  0  0  0  0  0  0  0  0
   62.5670   31.3390   47.4440 O   0  0  0  0  0  0  0  0  0  0  0  0
   60.4470   30.3030   47.2620 C   0  0  0  0  0  0  0  0  0  0  0  0
   59.8980   30.3450   46.0200 N   0  0  0  0  0  0  0  0  0  0  0  0
   59.3760   29.1270   45.7980 C   0  0  0  0  0  0  0  0  0  0  0  0
   58.7710   28.6800   44.6250 C   0  0  0  0  0  0  0  0  0  0  0  0
   58.3890   27.3290   44.5490 C   0  0  0  0  0  0  0  0  0  0  0  0
   58.6540   26.4420   45.6260 C   0  0  0  0  0  0  0  0  0  0  0  0
   58.2790   24.9850   45.5330 C   0  0  0  0  0  0  0  0  0  0  0  0
   57.4100   24.6970   44.3020 C   0  0  0  0  0  0  0  0  0  0  0  0
   56.0040   24.5420   44.6680 N   0  0  0  0  0  0  0  0  0  0  0  0
   55.3040   25.2620   45.6680 C   0  0  0  0  0  0  0  0  0  0  0  0
   55.7660   26.2880   46.2370 O   0  0  0  0  0  0  0  0  0  0  0  0
   54.0260   24.7170   45.9700 N   0  0  0  0  0  0  0  0  0  0  0  0
   53.8480   23.5290   45.1230 C   0  0  0  0  0  0  0  0  0  0  0  0
   52.6490   23.7290   44.1860 C   0  0  0  0  0  0  0  0  0  0  0  0
   53.6750   22.2830   46.0010 C   0  0  0  0  0  0  0  0  0  0  0  0
   55.1340   23.4680   44.3400 C   0  0  0  0  0  0  0  0  0  0  0  0
   55.4190   22.5860   43.4870 O   0  0  0  0  0  0  0  0  0  0  0  0
   59.2790   26.9310   46.7930 C   0  0  0  0  0  0  0  0  0  0  0  0
   59.5940   28.2920   46.8640 C   0  0  0  0  0  0  0  0  0  0  0  0
   60.2380   29.0370   47.8420 C   0  0  0  0  0  0  0  0  0  0  0  0
   60.6970   28.5510   49.2020 C   0  0  0  0  0  0  0  0  0  0  0  0
   60.0920   29.3480   50.3640 C   0  0  0  0  0  0  0  0  0  0  0  0
   60.7650   29.0340   51.6200 N   0  0  0  0  0  0  0  0  0  0  0  0
   61.9510   29.6860   52.0910 C   0  0  0  0  0  0  0  0  0  0  0  0
   62.0110   30.0330   53.3020 O   0  0  0  0  0  0  0  0  0  0  0  0
   63.1170   29.9900   51.1880 C   0  0  0  0  0  0  0  0  0  0  0  0
   63.1350   31.4530   50.8170 C   0  0  0  0  0  0  0  0  0  0  0  0
   62.2210   32.3500   51.4020 C   0  0  0  0  0  0  0  0  0  0  0  0
   62.2550   33.7090   51.0720 C   0  0  0  0  0  0  0  0  0  0  0  0
   63.1980   34.1840   50.1550 C   0  0  0  0  0  0  0  0  0  0  0  0
   64.0980   33.2960   49.5550 C   0  0  0  0  0  0  0  0  0  0  0  0
   64.0660   31.9360   49.8810 C   0  0  0  0  0  0  0  0  0  0  0  0
   63.0093   33.7135   47.2873 H   0  0  0  0  0  0  0  0  0  0  0  0
   62.2540   33.0614   45.7936 H   0  0  0  0  0  0  0  0  0  0  0  0
   62.9662   34.7104   45.7936 H   0  0  0  0  0  0  0  0  0  0  0  0
   60.0295   34.8185   44.3538 H   0  0  0  0  0  0  0  0  0  0  0  0
   57.7948   33.9359   43.6791 H   0  0  0  0  0  0  0  0  0  0  0  0
   56.4075   32.6598   45.3104 H   0  0  0  0  0  0  0  0  0  0  0  0
   57.2664   32.2191   47.6100 H   0  0  0  0  0  0  0  0  0  0  0  0
   59.7061   34.0277   49.2189 H   0  0  0  0  0  0  0  0  0  0  0  0
   58.9089   32.4226   49.2444 H   0  0  0  0  0  0  0  0  0  0  0  0
   59.9710   31.1020   45.3040 H   0  0  0  0  0  0  0  0  0  0  0  0
   58.5971   29.3650   43.7820 H   0  0  0  0  0  0  0  0  0  0  0  0
   57.8806   26.9559   43.6477 H   0  0  0  0  0  0  0  0  0  0  0  0
   59.1982   24.3843   45.4682 H   0  0  0  0  0  0  0  0  0  0  0  0
   57.6981   24.7239   46.4299 H   0  0  0  0  0  0  0  0  0  0  0  0
   57.5055   25.5324   43.5928 H   0  0  0  0  0  0  0  0  0  0  0  0
   57.7552   23.7574   43.8460 H   0  0  0  0  0  0  0  0  0  0  0  0
   51.7380   23.8810   44.7835 H   0  0  0  0  0  0  0  0  0  0  0  0
   52.8226   24.6106   43.5515 H   0  0  0  0  0  0  0  0  0  0  0  0
   52.5270   22.8388   43.5515 H   0  0  0  0  0  0  0  0  0  0  0  0
   53.7153   22.5731   47.0613 H   0  0  0  0  0  0  0  0  0  0  0  0
   52.7032   21.8147   45.7856 H   0  0  0  0  0  0  0  0  0  0  0  0
   54.4824   21.5677   45.7856 H   0  0  0  0  0  0  0  0  0  0  0  0
   59.5135   26.2560   47.6293 H   0  0  0  0  0  0  0  0  0  0  0  0
   60.4060   27.4960   49.3128 H   0  0  0  0  0  0  0  0  0  0  0  0
   61.7878   28.6856   49.2462 H   0  0  0  0  0  0  0  0  0  0  0  0
   60.1995   30.4230   50.1573 H   0  0  0  0  0  0  0  0  0  0  0  0
   59.0298   29.0780   50.4586 H   0  0  0  0  0  0  0  0  0  0  0  0
   64.0526   29.7376   51.7085 H   0  0  0  0  0  0  0  0  0  0  0  0
   63.0191   29.3926   50.2695 H   0  0  0  0  0  0  0  0  0  0  0  0
   61.4763   31.9803   52.1223 H   0  0  0  0  0  0  0  0  0  0  0  0
   61.5393   34.4047   51.5343 H   0  0  0  0  0  0  0  0  0  0  0  0
   63.2323   35.2548   49.9055 H   0  0  0  0  0  0  0  0  0  0  0  0
   64.8322   33.6683   48.8254 H   0  0  0  0  0  0  0  0  0  0  0  0
   64.7724   31.2415   49.4028 H   0  0  0  0  0  0  0  0  0  0  0  0
  1  2  1  0
  2  3  1  0
  3  4  2  0
  4  5  1  0
  5  6  2  0
  6  7  1  0
  7  8  2  0
  8  9  1  0
  9 10  1  0
 10 11  1  0
 11 12  2  0
 11 13  1  0
 13 14  1  0
 14 15  1  0
 15 16  2  0
 16 17  1  0
 17 18  2  0
 18 19  1  0
 19 20  1  0
 20 21  1  0
 21 22  1  0
 22 23  2  0
 22 24  1  0
 24 25  1  0
 25 26  1  0
 25 27  1  0
 25 28  1  0
 28 29  2  0
 18 30  1  0
 30 31  2  0
 31 32  1  0
 32 33  1  0
 33 34  1  0
 34 35  1  0
 35 36  1  0
 36 37  2  0
 36 38  1  0
 38 39  1  0
 39 40  2  0
 40 41  1  0
 41 42  2  0
 42 43  1  0
 43 44  2  0
  8  3  1  0
 32 13  2  0
 44 39  1  0
 31 15  1  0
 28 21  1  0
  1 45  1  0
  1 46  1  0
  1 47  1  0
  4 48  1  0
  5 49  1  0
  6 50  1  0
  7 51  1  0
  9 52  1  0
  9 53  1  0
 14 54  1  0
 16 55  1  0
 17 56  1  0
 19 57  1  0
 19 58  1  0
 20 59  1  0
 20 60  1  0
 26 61  1  0
 26 62  1  0
 26 63  1  0
 27 64  1  0
 27 65  1  0
 27 66  1  0
 30 67  1  0
 33 68  1  0
 33 69  1  0
 34 70  1  0
 34 71  1  0
 38 72  1  0
 38 73  1  0
 40 74  1  0
 41 75  1  0
 42 76  1  0
 43 77  1  0
 44 78  1  0
M  CHG  3  10  -1  24  -1  35  -1
M  END
>  <UniqueID>  (9) 
9

>  <SMILES>  (9) 
COc1ccccc1C[N-]C(=O)c1[nH]c2ccc(CCN3C(=O)[N-]C(C)(C)C3=O)cc2c1CC[N-]C(=O)Cc1ccccc1

>  <Energy>  (9) 
127.67323476596667

>  <Genealogy>  (9) 
COc1ccccc1C[N-]C(=O)c1[nH]c2ccc(CCN3C(=O)[N-]C(C)(C)C3=O)cc2c1CC[N-]C(=O)Cc1ccccc1 (protonated)
COc1ccccc1C[N-]C(=O)c1[nH]c2ccc(CCN3C(=O)[N-]C(C)(C)C3=O)cc2c1CC[N-]C(=O)Cc1ccccc1 (3D coordinates assigned)
COc1ccccc1C[N-]C(=O)c1[nH]c2ccc(CCN3C(=O)[N-]C(C)(C)C3=O)cc2c1CC[N-]C(=O)Cc1ccccc1 (nonaromatic ring conformer: 127.67323476596667 kcal/mol)

>  <smiles>  (9) 
COc1ccccc1CNC(=O)c1[nH]c2ccc(CCN3C(=O)NC(C)(C)C3=O)cc2c1CCNC(=O)Cc1ccccc1

>  <score_type>  (9) 
oracle

>  <origin>  (9) 
adg

>  <m_score__min__energy>  (9) 
-14.57

>  <m_primary>  (9) 
energy

$$$$
9:0
     RDKit          3D

 47 50  0  0  0  0  0  0  0  0999 V2000
   64.6880   30.2200   51.6000 H   0  0  0  0  0  0  0  0  0  0  0  0
   64.9180   30.8850   50.8710 O   0  0  0  0  0  0  0  0  0  0  0  0
   63.9410   31.4040   50.0230 C   0  0  0  0  0  0  0  0  0  0  0  0
   64.2850   32.3230   49.0210 C   0  0  0  0  0  0  0  0  0  0  0  0
   65.3327   32.6355   48.8996 H   0  0  0  0  0  0  0  0  0  0  0  0
   63.3000   32.8430   48.1760 C   0  0  0  0  0  0  0  0  0  0  0  0
   63.5761   33.5596   47.3884 H   0  0  0  0  0  0  0  0  0  0  0  0
   61.9600   32.4540   48.3290 C   0  0  0  0  0  0  0  0  0  0  0  0
   60.9210   32.9880   47.4180 C   0  0  0  0  0  0  0  0  0  0  0  0
   60.7450   34.3760   47.3440 C   0  0  0  0  0  0  0  0  0  0  0  0
   61.3399   35.0451   47.9831 H   0  0  0  0  0  0  0  0  0  0  0  0
   59.8090   34.9030   46.4530 C   0  0  0  0  0  0  0  0  0  0  0  0
   59.6500   36.1480   46.3720 O   0  0  0  0  0  0  0  0  0  0  0  0
   59.0860   34.0970   45.6840 O   0  0  0  0  0  0  0  0  0  0  0  0
   59.2010   32.7730   45.7220 C   0  0  0  0  0  0  0  0  0  0  0  0
   58.3940   31.9940   44.8890 C   0  0  0  0  0  0  0  0  0  0  0  0
   57.6824   32.4852   44.2090 H   0  0  0  0  0  0  0  0  0  0  0  0
   58.4790   30.5920   44.9080 C   0  0  0  0  0  0  0  0  0  0  0  0
   57.5240   29.7980   44.0450 C   0  0  0  0  0  0  0  0  0  0  0  0
   57.7525   28.7265   44.1434 H   0  0  0  0  0  0  0  0  0  0  0  0
   57.6415   30.1159   42.9985 H   0  0  0  0  0  0  0  0  0  0  0  0
   56.1100   30.0410   44.4690 C   0  0  0  0  0  0  0  0  0  0  0  0
   55.6540   31.2140   44.5070 O   0  0  0  0  0  0  0  0  0  0  0  0
   55.3060   28.9770   44.8560 O   0  0  0  0  0  0  0  0  0  0  0  0
   59.3840   29.9690   45.8010 C   0  0  0  0  0  0  0  0  0  0  0  0
   59.5010   28.5030   45.9070 C   0  0  0  0  0  0  0  0  0  0  0  0
   59.9898   27.9393   45.0987 H   0  0  0  0  0  0  0  0  0  0  0  0
   59.0220   27.8470   46.9710 C   0  0  0  0  0  0  0  0  0  0  0  0
   59.3830   28.1489   47.9653 H   0  0  0  0  0  0  0  0  0  0  0  0
   58.0360   26.7390   46.8990 C   0  0  0  0  0  0  0  0  0  0  0  0
   58.3510   25.4080   47.2400 C   0  0  0  0  0  0  0  0  0  0  0  0
   59.3657   25.1579   47.5834 H   0  0  0  0  0  0  0  0  0  0  0  0
   57.3830   24.4030   47.1450 C   0  0  0  0  0  0  0  0  0  0  0  0
   57.7050   23.0920   47.4800 O   0  0  0  0  0  0  0  0  0  0  0  0
   56.0920   24.7120   46.7090 C   0  0  0  0  0  0  0  0  0  0  0  0
   55.3297   23.9217   46.6422 H   0  0  0  0  0  0  0  0  0  0  0  0
   55.7700   26.0250   46.3580 C   0  0  0  0  0  0  0  0  0  0  0  0
   54.4870   26.3310   45.9220 O   0  0  0  0  0  0  0  0  0  0  0  0
   56.7360   27.0320   46.4480 C   0  0  0  0  0  0  0  0  0  0  0  0
   56.4771   28.0626   46.1636 H   0  0  0  0  0  0  0  0  0  0  0  0
   60.1780   30.7520   46.6510 C   0  0  0  0  0  0  0  0  0  0  0  0
   60.8554   30.2619   47.3658 H   0  0  0  0  0  0  0  0  0  0  0  0
   60.1190   32.1570   46.6010 C   0  0  0  0  0  0  0  0  0  0  0  0
   61.6220   31.5220   49.3240 C   0  0  0  0  0  0  0  0  0  0  0  0
   60.5771   31.1977   49.4379 H   0  0  0  0  0  0  0  0  0  0  0  0
   62.6080   31.0040   50.1710 C   0  0  0  0  0  0  0  0  0  0  0  0
   62.2580   30.0890   51.1570 O   0  0  0  0  0  0  0  0  0  0  0  0
  1  2  1  0
  2  3  1  0
  3  4  2  0
  4  5  1  0
  4  6  1  0
  6  7  1  0
  6  8  2  0
  8  9  1  0
  9 10  2  0
 10 11  1  0
 10 12  1  0
 12 13  2  0
 12 14  1  0
 14 15  1  0
 15 16  2  0
 16 17  1  0
 16 18  1  0
 18 19  1  0
 19 20  1  0
 19 21  1  0
 19 22  1  0
 22 23  2  0
 22 24  1  0
 18 25  2  0
 25 26  1  0
 26 27  1  0
 26 28  2  0
 28 29  1  0
 28 30  1  0
 30 31  2  0
 31 32  1  0
 31 33  1  0
 33 34  1  0
 33 35  2  0
 35 36  1  0
 35 37  1  0
 37 38  1  0
 37 39  2  0
 39 40  1  0
 25 41  1  0
 41 42  1  0
 41 43  2  0
  8 44  1  0
 44 45  1  0
 44 46  2  0
 46 47  1  0
 46  3  1  0
 43  9  1  0
 43 15  1  0
 39 30  1  0
M  CHG  4  24  -1  34  -1  38  -1  47  -1
M  END
>  <UniqueID>  (10) 
10

>  <SMILES>  (10) 
O=C([O-])Cc1cc2oc(=O)cc(-c3ccc(O)c([O-])c3)c2cc1/C=C/c1cc([O-])cc([O-])c1

>  <Energy>  (10) 
73.06835913040018

>  <Genealogy>  (10) 
O=C([O-])Cc1cc2oc(=O)cc(-c3ccc(O)c([O-])c3)c2cc1C=Cc1cc([O-])cc([O-])c1 (protonated)
O=C([O-])Cc1cc2oc(=O)cc(-c3ccc(O)c([O-])c3)c2cc1/C=C/c1cc([O-])cc([O-])c1 (cis-trans isomerization)
O=C([O-])Cc1cc2oc(=O)cc(-c3ccc(O)c([O-])c3)c2cc1/C=C/c1cc([O-])cc([O-])c1 (3D coordinates assigned)
O=C([O-])Cc1cc2oc(=O)cc(-c3ccc(O)c([O-])c3)c2cc1/C=C/c1cc([O-])cc([O-])c1 (optimized conformer: 73.06835913040018 kcal/mol)

>  <smiles>  (10) 
O=C(O)Cc1cc2oc(=O)cc(-c3ccc(O)c(O)c3)c2cc1C=Cc1cc(O)cc(O)c1

>  <score_type>  (10) 
oracle

>  <origin>  (10) 
adg

>  <m_score__min__energy>  (10) 
-18.390000000000001

>  <m_primary>  (10) 
energy

$$$$
10:0
     RDKit          3D

 57 60  0  0  0  0  0  0  0  0999 V2000
   54.3600   26.7070   46.7500 H   0  0  0  0  0  0  0  0  0  0  0  0
   55.1530   26.5840   46.1340 O   0  0  0  0  0  0  0  0  0  0  0  0
   56.1350   25.6330   46.3960 C   0  0  0  0  0  0  0  0  0  0  0  0
   55.9410   24.5740   47.1990 N   0  0  0  0  0  0  0  0  0  0  0  0
   57.1170   23.9160   47.1160 C   0  0  0  0  0  0  0  0  0  0  0  0
   57.3380   22.8420   47.7340 O   0  0  0  0  0  0  0  0  0  0  0  0
   58.0340   24.4930   46.3100 N   0  0  0  0  0  0  0  0  0  0  0  0
   57.4130   25.6020   45.8760 C   0  0  0  0  0  0  0  0  0  0  0  0
   57.9930   26.5200   44.8850 C   0  0  0  0  0  0  0  0  0  0  0  0
   58.5258   26.0675   44.0356 H   0  0  0  0  0  0  0  0  0  0  0  0
   57.9310   27.8670   44.9230 C   0  0  0  0  0  0  0  0  0  0  0  0
   57.6860   28.6290   43.7970 C   0  0  0  0  0  0  0  0  0  0  0  0
   57.5751   28.2585   42.7672 H   0  0  0  0  0  0  0  0  0  0  0  0
   57.6070   29.9410   44.2090 C   0  0  0  0  0  0  0  0  0  0  0  0
   57.3800   31.0970   43.2810 C   0  0  0  0  0  0  0  0  0  0  0  0
   57.2008   32.0094   43.8688 H   0  0  0  0  0  0  0  0  0  0  0  0
   58.2676   31.2378   42.6468 H   0  0  0  0  0  0  0  0  0  0  0  0
   56.5050   30.8917   42.6468 H   0  0  0  0  0  0  0  0  0  0  0  0
   57.8340   30.0380   45.5410 N   0  0  0  0  0  0  0  0  0  0  0  0
   57.8860   31.3000   46.3010 C   0  0  0  0  0  0  0  0  0  0  0  0
   57.4693   32.1097   45.6840 H   0  0  0  0  0  0  0  0  0  0  0  0
   57.2991   31.1797   47.2235 H   0  0  0  0  0  0  0  0  0  0  0  0
   59.3060   31.6440   46.6740 C   0  0  0  0  0  0  0  0  0  0  0  0
   59.6230   32.9230   47.1570 C   0  0  0  0  0  0  0  0  0  0  0  0
   58.8295   33.6763   47.2703 H   0  0  0  0  0  0  0  0  0  0  0  0
   60.9400   33.2460   47.4950 C   0  0  0  0  0  0  0  0  0  0  0  0
   61.1786   34.2555   47.8611 H   0  0  0  0  0  0  0  0  0  0  0  0
   61.9610   32.2890   47.3700 C   0  0  0  0  0  0  0  0  0  0  0  0
   63.3570   32.6270   47.7210 C   0  0  0  0  0  0  0  0  0  0  0  0
   64.1340   33.0420   46.8190 O   0  0  0  0  0  0  0  0  0  0  0  0
   63.8510   32.4850   49.0670 N   0  0  0  0  0  0  0  0  0  0  0  0
   63.4810   31.3020   49.8610 C   0  0  0  0  0  0  0  0  0  0  0  0
   62.5276   31.4969   50.3738 H   0  0  0  0  0  0  0  0  0  0  0  0
   63.3852   30.4411   49.1830 H   0  0  0  0  0  0  0  0  0  0  0  0
   64.5560   30.9830   50.9060 C   0  0  0  0  0  0  0  0  0  0  0  0
   64.2139   30.1400   51.5244 H   0  0  0  0  0  0  0  0  0  0  0  0
   65.4863   30.7294   50.3766 H   0  0  0  0  0  0  0  0  0  0  0  0
   64.8360   32.1960   51.8220 C   0  0  0  0  0  0  0  0  0  0  0  0
   64.0141   32.2470   52.5513 H   0  0  0  0  0  0  0  0  0  0  0  0
   66.1610   31.9980   52.5690 C   0  0  0  0  0  0  0  0  0  0  0  0
   65.9782   32.0253   53.6534 H   0  0  0  0  0  0  0  0  0  0  0  0
   66.5948   31.0251   52.2947 H   0  0  0  0  0  0  0  0  0  0  0  0
   66.8602   32.8016   52.2947 H   0  0  0  0  0  0  0  0  0  0  0  0
   64.8160   33.5510   51.0630 C   0  0  0  0  0  0  0  0  0  0  0  0
   63.8776   34.0730   51.3016 H   0  0  0  0  0  0  0  0  0  0  0  0
   65.6974   34.1237   51.3873 H   0  0  0  0  0  0  0  0  0  0  0  0
   64.9100   33.3850   49.5420 C   0  0  0  0  0  0  0  0  0  0  0  0
   64.7956   34.3676   49.0609 H   0  0  0  0  0  0  0  0  0  0  0  0
   65.8898   32.9553   49.2862 H   0  0  0  0  0  0  0  0  0  0  0  0
   61.6460   31.0160   46.8720 C   0  0  0  0  0  0  0  0  0  0  0  0
   62.4409   30.2659   46.7480 H   0  0  0  0  0  0  0  0  0  0  0  0
   60.3280   30.6940   46.5320 C   0  0  0  0  0  0  0  0  0  0  0  0
   60.0916   29.6896   46.1509 H   0  0  0  0  0  0  0  0  0  0  0  0
   58.0620   28.7720   45.9920 C   0  0  0  0  0  0  0  0  0  0  0  0
   58.4550   28.4810   47.2440 C   0  0  0  0  0  0  0  0  0  0  0  0
   58.5196   29.2780   47.9994 H   0  0  0  0  0  0  0  0  0  0  0  0
   58.7120   27.4459   47.5132 H   0  0  0  0  0  0  0  0  0  0  0  0
  1  2  1  0
  2  3  1  0
  3  4  1  0
  4  5  1  0
  5  6  2  0
  5  7  1  0
  7  8  1  0
  8  9  1  0
  9 10  1  0
  9 11  2  0
 11 12  1  0
 12 13  1  0
 12 14  2  0
 14 15  1  0
 15 16  1  0
 15 17  1  0
 15 18  1  0
 14 19  1  0
 19 20  1  0
 20 21  1  0
 20 22  1  0
 20 23  1  0
 23 24  2  0
 24 25  1  0
 24 26  1  0
 26 27  1  0
 26 28  2  0
 28 29  1  0
 29 30  2  0
 29 31  1  0
 31 32  1  0
 32 33  1  0
 32 34  1  0
 32 35  1  0
 35 36  1  0
 35 37  1  0
 35 38  1  0
 38 39  1  0
 38 40  1  0
 40 41  1  0
 40 42  1  0
 40 43  1  0
 38 44  1  0
 44 45  1  0
 44 46  1  0
 44 47  1  0
 47 48  1  0
 47 49  1  0
 28 50  1  0
 50 51  1  0
 50 52  2  0
 52 53  1  0
 19 54  1  0
 54 55  2  0
 55 56  1  0
 55 57  1  0
  8  3  2  0
 54 11  1  0
 52 23  1  0
 47 31  1  0
M  CHG  2   4  -1   7  -1
M  END
>  <UniqueID>  (11) 
11

>  <SMILES>  (11) 
C=c1/c(=C\c2[n-]c(=O)[n-]c2O)cc(C)n1Cc1ccc(C(=O)N2CCC(C)CC2)cc1

>  <Energy>  (11) 
133.21345397439782

>  <Genealogy>  (11) 
C=c1c(=Cc2[n-]c(=O)[n-]c2O)cc(C)n1Cc1ccc(C(=O)N2CCC(C)CC2)cc1 (protonated)
C=c1/c(=C\c2[n-]c(=O)[n-]c2O)cc(C)n1Cc1ccc(C(=O)N2CCC(C)CC2)cc1 (cis-trans isomerization)
C=c1/c(=C\c2[n-]c(=O)[n-]c2O)cc(C)n1Cc1ccc(C(=O)N2CCC(C)CC2)cc1 (3D coordinates assigned)
C=c1/c(=C\c2[n-]c(=O)[n-]c2O)cc(C)n1Cc1ccc(C(=O)N2CCC(C)CC2)cc1 (nonaromatic ring conformer: 133.21345397439782 kcal/mol)

>  <smiles>  (11) 
C=c1c(=Cc2[nH]c(=O)[nH]c2O)cc(C)n1Cc1ccc(C(=O)N2CCC(C)CC2)cc1

>  <score_type>  (11) 
oracle

>  <origin>  (11) 
adg

>  <m_score__min__energy>  (11) 
-14.550000000000001

>  <m_primary>  (11) 
energy

$$$$
11:0
     RDKit          3D

 62 65  0  0  0  0  0  0  0  0999 V2000
   56.5030   20.3480   46.7170 C   0  0  0  0  0  0  0  0  0  0  0  0
   56.5430   21.1430   45.4380 C   0  0  0  0  0  0  0  0  0  0  0  0
   56.6330   20.4600   44.2110 C   0  0  0  0  0  0  0  0  0  0  0  0
   56.6740   21.1650   43.0070 C   0  0  0  0  0  0  0  0  0  0  0  0
   56.6250   22.5580   43.0090 C   0  0  0  0  0  0  0  0  0  0  0  0
   56.5360   23.2530   44.2170 C   0  0  0  0  0  0  0  0  0  0  0  0
   56.4920   22.5620   45.4420 C   0  0  0  0  0  0  0  0  0  0  0  0
   56.4090   23.3560   46.7250 C   0  0  0  0  0  0  0  0  0  0  0  0
   57.2030   24.5810   46.6300 N   0  0  0  0  0  0  0  0  0  0  0  0
   56.6290   25.8430   46.2540 C   0  0  0  0  0  0  0  0  0  0  0  0
   55.3990   25.9210   45.9850 O   0  0  0  0  0  0  0  0  0  0  0  0
   57.4450   27.0670   46.1850 C   0  0  0  0  0  0  0  0  0  0  0  0
   58.2400   27.5980   47.1880 C   0  0  0  0  0  0  0  0  0  0  0  0
   58.7890   28.7490   46.6620 C   0  0  0  0  0  0  0  0  0  0  0  0
   58.3070   28.8410   45.3710 C   0  0  0  0  0  0  0  0  0  0  0  0
   58.6160   29.9290   44.3920 C   0  0  0  0  0  0  0  0  0  0  0  0
   57.2420   31.0700   44.2080 S   0  0  0  0  0  0  0  0  0  0  0  0
   55.9780   30.3230   44.5240 O   0  0  0  0  0  0  0  0  0  0  0  0
   57.1670   31.5370   42.7800 O   0  0  0  0  0  0  0  0  0  0  0  0
   57.3430   32.4590   45.2690 N   0  0  0  0  0  0  0  0  0  0  0  0
   58.0750   33.5700   44.6340 C   0  0  0  0  0  0  0  0  0  0  0  0
   58.5210   34.5980   45.6810 C   0  0  0  0  0  0  0  0  0  0  0  0
   59.4500   34.0140   46.6810 N   0  0  0  0  0  0  0  0  0  0  0  0
   60.8550   34.3590   46.3730 C   0  0  0  0  0  0  0  0  0  0  0  0
   61.7870   33.8430   47.4390 C   0  0  0  0  0  0  0  0  0  0  0  0
   61.5630   34.1440   48.7920 C   0  0  0  0  0  0  0  0  0  0  0  0
   62.4530   33.6910   49.7710 C   0  0  0  0  0  0  0  0  0  0  0  0
   63.5720   32.9380   49.4060 C   0  0  0  0  0  0  0  0  0  0  0  0
   63.8030   32.6380   48.0620 C   0  0  0  0  0  0  0  0  0  0  0  0
   62.9150   33.0890   47.0800 C   0  0  0  0  0  0  0  0  0  0  0  0
   59.2800   32.5500   46.8580 C   0  0  0  0  0  0  0  0  0  0  0  0
   57.8310   32.1000   46.6200 C   0  0  0  0  0  0  0  0  0  0  0  0
   57.5080   27.8300   45.1180 O   0  0  0  0  0  0  0  0  0  0  0  0
   56.5375   21.0339   47.5763 H   0  0  0  0  0  0  0  0  0  0  0  0
   55.5741   19.7599   46.7543 H   0  0  0  0  0  0  0  0  0  0  0  0
   57.3681   19.6697   46.7543 H   0  0  0  0  0  0  0  0  0  0  0  0
   56.6714   19.3607   44.2006 H   0  0  0  0  0  0  0  0  0  0  0  0
   56.7452   20.6199   42.0542 H   0  0  0  0  0  0  0  0  0  0  0  0
   56.6565   23.1103   42.0582 H   0  0  0  0  0  0  0  0  0  0  0  0
   56.4999   24.3524   44.2108 H   0  0  0  0  0  0  0  0  0  0  0  0
   55.3589   23.6209   46.9179 H   0  0  0  0  0  0  0  0  0  0  0  0
   56.8059   22.7413   47.5464 H   0  0  0  0  0  0  0  0  0  0  0  0
   58.2070   24.5320   46.9120 H   0  0  0  0  0  0  0  0  0  0  0  0
   58.4002   27.1867   48.1955 H   0  0  0  0  0  0  0  0  0  0  0  0
   59.4705   29.4495   47.1669 H   0  0  0  0  0  0  0  0  0  0  0  0
   59.4966   30.4859   44.7448 H   0  0  0  0  0  0  0  0  0  0  0  0
   58.8081   29.4643   43.4136 H   0  0  0  0  0  0  0  0  0  0  0  0
   58.9619   33.1705   44.1204 H   0  0  0  0  0  0  0  0  0  0  0  0
   57.4070   34.0666   43.9149 H   0  0  0  0  0  0  0  0  0  0  0  0
   59.0289   35.4282   45.1683 H   0  0  0  0  0  0  0  0  0  0  0  0
   57.6248   34.9456   46.2157 H   0  0  0  0  0  0  0  0  0  0  0  0
   61.1313   33.9113   45.4069 H   0  0  0  0  0  0  0  0  0  0  0  0
   60.9445   35.4546   46.3314 H   0  0  0  0  0  0  0  0  0  0  0  0
   60.6843   34.7383   49.0830 H   0  0  0  0  0  0  0  0  0  0  0  0
   62.2719   33.9278   50.8298 H   0  0  0  0  0  0  0  0  0  0  0  0
   64.2707   32.5816   50.1772 H   0  0  0  0  0  0  0  0  0  0  0  0
   64.6847   32.0461   47.7751 H   0  0  0  0  0  0  0  0  0  0  0  0
   63.1014   32.8518   46.0222 H   0  0  0  0  0  0  0  0  0  0  0  0
   59.9344   32.0287   46.1439 H   0  0  0  0  0  0  0  0  0  0  0  0
   59.5433   32.3032   47.8971 H   0  0  0  0  0  0  0  0  0  0  0  0
   57.7768   31.0075   46.7364 H   0  0  0  0  0  0  0  0  0  0  0  0
   57.1948   32.6158   47.3543 H   0  0  0  0  0  0  0  0  0  0  0  0
  1  2  1  0
  2  3  2  0
  3  4  1  0
  4  5  2  0
  5  6  1  0
  6  7  2  0
  7  8  1  0
  8  9  1  0
  9 10  1  0
 10 11  2  0
 10 12  1  0
 12 13  2  0
 13 14  1  0
 14 15  2  0
 15 16  1  0
 16 17  1  0
 17 18  2  0
 17 19  2  0
 17 20  1  0
 20 21  1  0
 21 22  1  0
 22 23  1  0
 23 24  1  0
 24 25  1  0
 25 26  2  0
 26 27  1  0
 27 28  2  0
 28 29  1  0
 29 30  2  0
 23 31  1  0
 31 32  1  0
 15 33  1  0
  7  2  1  0
 33 12  1  0
 32 20  1  0
 30 25  1  0
  1 34  1  0
  1 35  1  0
  1 36  1  0
  3 37  1  0
  4 38  1  0
  5 39  1  0
  6 40  1  0
  8 41  1  0
  8 42  1  0
  9 43  1  0
 13 44  1  0
 14 45  1  0
 16 46  1  0
 16 47  1  0
 21 48  1  0
 21 49  1  0
 22 50  1  0
 22 51  1  0
 24 52  1  0
 24 53  1  0
 26 54  1  0
 27 55  1  0
 28 56  1  0
 29 57  1  0
 30 58  1  0
 31 59  1  0
 31 60  1  0
 32 61  1  0
 32 62  1  0
M  END
>  <UniqueID>  (12) 
12

>  <SMILES>  (12) 
Cc1ccccc1CNC(=O)c1ccc(CS(=O)(=O)N2CCN(Cc3ccccc3)CC2)o1

>  <Energy>  (12) 
93.59876436865044

>  <Genealogy>  (12) 
Cc1ccccc1CNC(=O)c1ccc(CS(=O)(=O)N2CCN(Cc3ccccc3)CC2)o1 (3D coordinates assigned)
Cc1ccccc1CNC(=O)c1ccc(CS(=O)(=O)N2CCN(Cc3ccccc3)CC2)o1 (nonaromatic ring conformer: 93.59876436865044 kcal/mol)

>  <smiles>  (12) 
Cc1ccccc1CNC(=O)c1ccc(CS(=O)(=O)N2CCN(Cc3ccccc3)CC2)o1

>  <score_type>  (12) 
oracle

>  <origin>  (12) 
adg

>  <m_score__min__energy>  (12) 
-10.27

>  <m_primary>  (12) 
energy

$$$$
12:0
     RDKit          3D

 52 54  0  0  0  0  0  0  0  0999 V2000
   61.7980   33.7910   46.3850 C   0  0  0  0  0  0  0  0  0  0  0  0
   60.7370   33.7770   47.4890 C   0  0  2  0  0  0  0  0  0  0  0  0
   60.3270   32.4020   47.7840 N   0  0  0  0  0  0  0  0  0  0  0  0
   61.2820   31.3660   48.0560 C   0  0  0  0  0  0  0  0  0  0  0  0
   62.5060   31.5440   47.8080 O   0  0  0  0  0  0  0  0  0  0  0  0
   60.8390   30.0860   48.6950 C   0  0  0  0  0  0  0  0  0  0  0  0
   59.7430   29.4590   47.8780 C   0  0  0  0  0  0  0  0  0  0  0  0
   59.2910   28.1670   48.1790 C   0  0  0  0  0  0  0  0  0  0  0  0
   58.3000   27.5670   47.4000 C   0  0  0  0  0  0  0  0  0  0  0  0
   57.7420   28.2490   46.3060 C   0  0  0  0  0  0  0  0  0  0  0  0
   56.7180   27.6330   45.5090 N   0  0  0  0  0  0  0  0  0  0  0  0
   56.1040   26.3680   45.7750 C   0  0  0  0  0  0  0  0  0  0  0  0
   54.9930   26.3400   46.3660 O   0  0  0  0  0  0  0  0  0  0  0  0
   56.7010   25.1070   45.3030 C   0  0  0  0  0  0  0  0  0  0  0  0
   56.0580   24.2410   44.4900 N   0  0  0  0  0  0  0  0  0  0  0  0
   56.9290   23.2280   44.3630 C   0  0  0  0  0  0  0  0  0  0  0  0
   56.6750   22.0370   43.6020 C   0  0  0  0  0  0  0  0  0  0  0  0
   56.4700   21.0760   42.9900 N   0  0  0  0  0  0  0  0  0  0  0  0
   58.0620   23.4890   45.0920 C   0  0  0  0  0  0  0  0  0  0  0  0
   57.9220   24.6810   45.6970 N   0  0  0  0  0  0  0  0  0  0  0  0
   58.1780   29.5590   46.0080 C   0  0  0  0  0  0  0  0  0  0  0  0
   57.6240   30.3130   44.8590 C   0  0  0  0  0  0  0  0  0  0  0  0
   57.2290   29.6810   43.7440 C   0  0  0  0  0  0  0  0  0  0  0  0
   56.6590   30.4730   42.6060 C   0  0  0  0  0  0  0  0  0  0  0  0
   57.5180   31.7190   42.3580 C   0  0  0  0  0  0  0  0  0  0  0  0
   57.8070   32.5270   43.6500 C   0  0  0  0  0  0  0  0  0  0  0  0
   57.4150   31.8040   44.9590 C   0  0  0  0  0  0  0  0  0  0  0  0
   59.1930   30.1430   46.7820 C   0  0  0  0  0  0  0  0  0  0  0  0
   59.5390   34.5810   47.0740 C   0  0  0  0  0  0  0  0  0  0  0  0
   59.7070   35.8230   46.3900 N   0  0  0  0  0  0  0  0  0  0  0  0
   58.3800   34.1670   47.3420 O   0  0  0  0  0  0  0  0  0  0  0  0
   62.7997   33.8042   46.8393 H   0  0  0  0  0  0  0  0  0  0  0  0
   61.6901   32.8914   45.7613 H   0  0  0  0  0  0  0  0  0  0  0  0
   61.6664   34.6875   45.7613 H   0  0  0  0  0  0  0  0  0  0  0  0
   61.1745   34.2247   48.3935 H   0  0  0  0  0  0  0  0  0  0  0  0
   59.3170   32.2100   47.9770 H   0  0  0  0  0  0  0  0  0  0  0  0
   61.6917   29.3936   48.7541 H   0  0  0  0  0  0  0  0  0  0  0  0
   60.4613   30.2976   49.7062 H   0  0  0  0  0  0  0  0  0  0  0  0
   59.7194   27.6228   49.0336 H   0  0  0  0  0  0  0  0  0  0  0  0
   57.9533   26.5522   47.6448 H   0  0  0  0  0  0  0  0  0  0  0  0
   58.9402   22.8310   45.1686 H   0  0  0  0  0  0  0  0  0  0  0  0
   57.3227   28.5879   43.6650 H   0  0  0  0  0  0  0  0  0  0  0  0
   56.6468   29.8514   41.6985 H   0  0  0  0  0  0  0  0  0  0  0  0
   55.6338   30.7829   42.8570 H   0  0  0  0  0  0  0  0  0  0  0  0
   58.4767   31.4019   41.9218 H   0  0  0  0  0  0  0  0  0  0  0  0
   56.9538   32.3762   41.6800 H   0  0  0  0  0  0  0  0  0  0  0  0
   58.8850   32.7430   43.6863 H   0  0  0  0  0  0  0  0  0  0  0  0
   57.1881   33.4348   43.5964 H   0  0  0  0  0  0  0  0  0  0  0  0
   58.0322   32.1959   45.7809 H   0  0  0  0  0  0  0  0  0  0  0  0
   56.3466   31.9881   45.1449 H   0  0  0  0  0  0  0  0  0  0  0  0
   59.5616   31.1476   46.5271 H   0  0  0  0  0  0  0  0  0  0  0  0
   59.4960   36.7300   46.8600 H   0  0  0  0  0  0  0  0  0  0  0  0
  1  2  1  0
  2  3  1  0
  3  4  1  0
  4  5  2  0
  4  6  1  0
  6  7  1  0
  7  8  2  0
  8  9  1  0
  9 10  2  0
 10 11  1  0
 11 12  1  0
 12 13  2  0
 12 14  1  0
 14 15  2  0
 15 16  1  0
 16 17  1  0
 17 18  3  0
 16 19  2  0
 19 20  1  0
 10 21  1  0
 21 22  1  0
 22 23  2  0
 23 24  1  0
 24 25  1  0
 25 26  1  0
 26 27  1  0
 21 28  2  0
  2 29  1  0
 29 30  1  0
 29 31  2  0
 28  7  1  0
 20 14  1  0
 27 22  1  0
  1 32  1  0
  1 33  1  0
  1 34  1  0
  2 35  1  1
  3 36  1  0
  6 37  1  0
  6 38  1  0
  8 39  1  0
  9 40  1  0
 19 41  1  0
 23 42  1  0
 24 43  1  0
 24 44  1  0
 25 45  1  0
 25 46  1  0
 26 47  1  0
 26 48  1  0
 27 49  1  0
 27 50  1  0
 28 51  1  0
 30 52  1  0
M  CHG  3  11  -1  20  -1  30  -1
M  END
>  <UniqueID>  (13) 
13

>  <SMILES>  (13) 
C[C@H](NC(=O)Cc1ccc([N-]C(=O)c2nc(C#N)c[n-]2)c(C2=CCCCC2)c1)C([NH-])=O

>  <Energy>  (13) 
83.4163153951247

>  <Genealogy>  (13) 
CC(NC(=O)Cc1ccc([N-]C(=O)c2nc(C#N)c[n-]2)c(C2=CCCCC2)c1)C([NH-])=O (protonated)
C[C@H](NC(=O)Cc1ccc([N-]C(=O)c2nc(C#N)c[n-]2)c(C2=CCCCC2)c1)C([NH-])=O (chirality)
C[C@H](NC(=O)Cc1ccc([N-]C(=O)c2nc(C#N)c[n-]2)c(C2=CCCCC2)c1)C([NH-])=O (3D coordinates assigned)
C[C@H](NC(=O)Cc1ccc([N-]C(=O)c2nc(C#N)c[n-]2)c(C2=CCCCC2)c1)C([NH-])=O (nonaromatic ring conformer: 83.4163153951247 kcal/mol)

>  <smiles>  (13) 
CC(NC(=O)Cc1ccc(NC(=O)c2nc(C#N)c[nH]2)c(C2=CCCCC2)c1)C(N)=O

>  <score_type>  (13) 
oracle

>  <origin>  (13) 
adg

>  <m_score__min__energy>  (13) 
-14.699999999999999

>  <m_primary>  (13) 
energy

$$$$
13:0
     RDKit          3D

 69 72  0  0  0  0  0  0  0  0999 V2000
   55.1060   29.4500   43.9580 O   0  0  0  0  0  0  0  0  0  0  0  0
   56.1420   29.7540   44.6050 C   0  0  0  0  0  0  0  0  0  0  0  0
   56.4130   31.1390   44.8460 N   0  0  0  0  0  0  0  0  0  0  0  0
   57.3870   31.9370   44.1090 C   0  0  0  0  0  0  0  0  0  0  0  0
   57.7600   33.1650   44.8930 C   0  0  0  0  0  0  0  0  0  0  0  0
   57.2840   34.2800   44.5410 O   0  0  0  0  0  0  0  0  0  0  0  0
   58.6960   33.1050   45.9940 N   0  0  0  0  0  0  0  0  0  0  0  0
   59.5360   31.9170   46.2220 C   0  0  0  0  0  0  0  0  0  0  0  0
   60.9380   32.3240   46.6940 C   0  0  0  0  0  0  0  0  0  0  0  0
   60.8510   33.2900   47.8960 C   0  0  0  0  0  0  0  0  0  0  0  0
   62.1760   33.6630   48.4640 N   0  0  0  0  0  0  0  0  0  0  0  0
   63.2200   32.6110   48.3980 C   0  0  0  0  0  0  0  0  0  0  0  0
   64.5230   33.0880   49.0410 C   0  0  0  0  0  0  0  0  0  0  0  0
   64.3830   33.2390   50.8610 S   0  0  0  0  0  0  0  0  0  0  0  0
   62.5830   33.5510   50.9550 C   0  0  0  0  0  0  0  0  0  0  0  0
   62.0830   34.3770   49.7640 C   0  0  0  0  0  0  0  0  0  0  0  0
   60.0210   34.5280   47.5110 C   0  0  0  0  0  0  0  0  0  0  0  0
   58.6170   34.1100   47.0670 C   0  0  0  0  0  0  0  0  0  0  0  0
   57.0340   28.6860   45.1040 C   0  0  0  0  0  0  0  0  0  0  0  0
   57.0600   28.4330   46.3360 O   0  0  0  0  0  0  0  0  0  0  0  0
   57.8950   27.9350   44.2370 N   0  0  0  0  0  0  0  0  0  0  0  0
   59.2460   27.4650   44.5430 C   0  0  0  0  0  0  0  0  0  0  0  0
   60.1090   28.6590   45.0010 C   0  0  0  0  0  0  0  0  0  0  0  0
   60.0770   28.8140   46.5260 C   0  0  0  0  0  0  0  0  0  0  0  0
   60.6510   27.6290   47.2170 N   0  0  0  0  0  0  0  0  0  0  0  0
   60.1750   27.5400   48.6130 C   0  0  0  0  0  0  0  0  0  0  0  0
   60.0650   28.9100   49.2300 C   0  0  0  0  0  0  0  0  0  0  0  0
   61.1820   29.5180   49.8300 C   0  0  0  0  0  0  0  0  0  0  0  0
   61.0630   30.7790   50.4220 C   0  0  0  0  0  0  0  0  0  0  0  0
   59.8300   31.4370   50.4250 C   0  0  0  0  0  0  0  0  0  0  0  0
   58.7140   30.8340   49.8390 C   0  0  0  0  0  0  0  0  0  0  0  0
   58.8280   29.5740   49.2460 C   0  0  0  0  0  0  0  0  0  0  0  0
   60.4480   26.3490   46.4880 C   0  0  0  0  0  0  0  0  0  0  0  0
   59.1830   26.3570   45.6190 C   0  0  0  0  0  0  0  0  0  0  0  0
   58.2890   31.3334   43.9302 H   0  0  0  0  0  0  0  0  0  0  0  0
   56.9431   32.2465   43.1513 H   0  0  0  0  0  0  0  0  0  0  0  0
   59.0662   31.2850   46.9900 H   0  0  0  0  0  0  0  0  0  0  0  0
   59.6291   31.3639   45.2757 H   0  0  0  0  0  0  0  0  0  0  0  0
   61.4934   31.4233   46.9942 H   0  0  0  0  0  0  0  0  0  0  0  0
   61.4550   32.8338   45.8676 H   0  0  0  0  0  0  0  0  0  0  0  0
   60.3403   32.7513   48.7078 H   0  0  0  0  0  0  0  0  0  0  0  0
   62.8631   31.7167   48.9299 H   0  0  0  0  0  0  0  0  0  0  0  0
   63.4163   32.3791   47.3408 H   0  0  0  0  0  0  0  0  0  0  0  0
   65.3189   32.3661   48.8058 H   0  0  0  0  0  0  0  0  0  0  0  0
   64.7535   34.0847   48.6366 H   0  0  0  0  0  0  0  0  0  0  0  0
   62.0549   32.5861   50.9654 H   0  0  0  0  0  0  0  0  0  0  0  0
   62.3835   34.1221   51.8737 H   0  0  0  0  0  0  0  0  0  0  0  0
   61.0299   34.6408   49.9413 H   0  0  0  0  0  0  0  0  0  0  0  0
   62.7300   35.2637   49.6921 H   0  0  0  0  0  0  0  0  0  0  0  0
   59.9423   35.1968   48.3808 H   0  0  0  0  0  0  0  0  0  0  0  0
   60.5190   35.0479   46.6793 H   0  0  0  0  0  0  0  0  0  0  0  0
   58.0778   33.6824   47.9251 H   0  0  0  0  0  0  0  0  0  0  0  0
   58.0842   34.9948   46.6886 H   0  0  0  0  0  0  0  0  0  0  0  0
   59.7100   27.0313   43.6449 H   0  0  0  0  0  0  0  0  0  0  0  0
   61.1479   28.4952   44.6788 H   0  0  0  0  0  0  0  0  0  0  0  0
   59.7026   29.5759   44.5492 H   0  0  0  0  0  0  0  0  0  0  0  0
   60.6591   29.7047   46.8050 H   0  0  0  0  0  0  0  0  0  0  0  0
   59.0263   28.9131   46.8361 H   0  0  0  0  0  0  0  0  0  0  0  0
   59.1863   27.0580   48.6267 H   0  0  0  0  0  0  0  0  0  0  0  0
   60.8977   26.9488   49.1945 H   0  0  0  0  0  0  0  0  0  0  0  0
   62.1524   28.9999   49.8336 H   0  0  0  0  0  0  0  0  0  0  0  0
   61.9404   31.2535   50.8857 H   0  0  0  0  0  0  0  0  0  0  0  0
   59.7380   32.4301   50.8889 H   0  0  0  0  0  0  0  0  0  0  0  0
   57.7438   31.3523   49.8446 H   0  0  0  0  0  0  0  0  0  0  0  0
   57.9458   29.1007   48.7902 H   0  0  0  0  0  0  0  0  0  0  0  0
   61.3190   26.1709   45.8401 H   0  0  0  0  0  0  0  0  0  0  0  0
   60.3305   25.5538   47.2389 H   0  0  0  0  0  0  0  0  0  0  0  0
   59.0837   25.3806   45.1222 H   0  0  0  0  0  0  0  0  0  0  0  0
   58.3174   26.5537   46.2687 H   0  0  0  0  0  0  0  0  0  0  0  0
  1  2  2  0
  2  3  1  0
  3  4  1  0
  4  5  1  0
  5  6  2  0
  5  7  1  0
  7  8  1  0
  8  9  1  0
  9 10  1  0
 10 11  1  0
 11 12  1  0
 12 13  1  0
 13 14  1  0
 14 15  1  0
 15 16  1  0
 10 17  1  0
 17 18  1  0
  2 19  1  0
 19 20  2  0
 19 21  1  0
 21 22  1  0
 22 23  1  0
 23 24  1  0
 24 25  1  0
 25 26  1  0
 26 27  1  0
 27 28  2  0
 28 29  1  0
 29 30  2  0
 30 31  1  0
 31 32  2  0
 25 33  1  0
 33 34  1  0
 18  7  1  0
 34 22  1  0
 16 11  1  0
 32 27  1  0
  4 35  1  0
  4 36  1  0
  8 37  1  0
  8 38  1  0
  9 39  1  0
  9 40  1  0
 10 41  1  0
 12 42  1  0
 12 43  1  0
 13 44  1  0
 13 45  1  0
 15 46  1  0
 15 47  1  0
 16 48  1  0
 16 49  1  0
 17 50  1  0
 17 51  1  0
 18 52  1  0
 18 53  1  0
 22 54  1  0
 23 55  1  0
 23 56  1  0
 24 57  1  0
 24 58  1  0
 26 59  1  0
 26 60  1  0
 28 61  1  0
 29 62  1  0
 30 63  1  0
 31 64  1  0
 32 65  1  0
 33 66  1  0
 33 67  1  0
 34 68  1  0
 34 69  1  0
M  CHG  2   3  -1  21  -1
M  END
>  <UniqueID>  (14) 
14

>  <SMILES>  (14) 
O=C([N-]CC(=O)N1CCC(N2CCSCC2)CC1)C(=O)[N-]C1CCN(Cc2ccccc2)CC1

>  <Energy>  (14) 
90.13716539109676

>  <Genealogy>  (14) 
O=C([N-]CC(=O)N1CCC(N2CCSCC2)CC1)C(=O)[N-]C1CCN(Cc2ccccc2)CC1 (protonated)
O=C([N-]CC(=O)N1CCC(N2CCSCC2)CC1)C(=O)[N-]C1CCN(Cc2ccccc2)CC1 (3D coordinates assigned)
O=C([N-]CC(=O)N1CCC(N2CCSCC2)CC1)C(=O)[N-]C1CCN(Cc2ccccc2)CC1 (nonaromatic ring conformer: 90.13716539109676 kcal/mol)

>  <smiles>  (14) 
O=C(NCC(=O)N1CCC(N2CCSCC2)CC1)C(=O)NC1CCN(Cc2ccccc2)CC1

>  <score_type>  (14) 
oracle

>  <origin>  (14) 
adg

>  <m_score__min__energy>  (14) 
-12.300000000000001

>  <m_primary>  (14) 
energy

$$$$
14:0
     RDKit          3D

 49 51  0  0  0  0  0  0  0  0999 V2000
   53.4140   24.3800   45.4080 C   0  0  0  0  0  0  0  0  0  0  0  0
   54.8170   24.5780   45.9810 C   0  0  2  0  0  0  0  0  0  0  0  0
   55.1740   25.9920   45.9210 N   0  0  0  0  0  0  0  0  0  0  0  0
   56.4990   26.4560   45.6420 C   0  0  0  0  0  0  0  0  0  0  0  0
   57.0750   26.1140   44.5740 O   0  0  0  0  0  0  0  0  0  0  0  0
   57.1930   27.3510   46.6450 C   0  0  1  0  0  0  0  0  0  0  0  0
   58.2420   26.5790   47.4810 C   0  0  0  0  0  0  0  0  0  0  0  0
   59.6390   26.7120   47.0010 N   0  0  0  0  0  0  0  0  0  0  0  0
   60.6090   27.2570   47.9730 C   0  0  0  0  0  0  0  0  0  0  0  0
   60.3620   28.7000   48.2950 C   0  0  0  0  0  0  0  0  0  0  0  0
   59.6890   29.1780   49.4030 C   0  0  0  0  0  0  0  0  0  0  0  0
   59.6980   30.5510   49.2760 C   0  0  0  0  0  0  0  0  0  0  0  0
   60.3740   30.8230   48.1030 C   0  0  0  0  0  0  0  0  0  0  0  0
   60.7580   29.7000   47.5430 O   0  0  0  0  0  0  0  0  0  0  0  0
   59.8490   27.1020   45.5930 C   0  0  0  0  0  0  0  0  0  0  0  0
   59.0380   28.3360   45.1490 C   0  0  0  0  0  0  0  0  0  0  0  0
   57.7980   28.6250   46.0210 C   0  0  1  0  0  0  0  0  0  0  0  0
   56.7580   29.4350   45.2820 C   0  0  0  0  0  0  0  0  0  0  0  0
   55.5120   28.8360   44.9320 N   0  0  0  0  0  0  0  0  0  0  0  0
   56.9980   30.6220   44.9280 O   0  0  0  0  0  0  0  0  0  0  0  0
   55.8240   23.7480   45.2140 C   0  0  0  0  0  0  0  0  0  0  0  0
   55.6220   23.4490   43.8540 C   0  0  0  0  0  0  0  0  0  0  0  0
   56.5570   22.6830   43.1520 C   0  0  0  0  0  0  0  0  0  0  0  0
   57.6970   22.2030   43.8010 C   0  0  0  0  0  0  0  0  0  0  0  0
   57.9020   22.4850   45.1540 C   0  0  0  0  0  0  0  0  0  0  0  0
   56.9710   23.2520   45.8610 C   0  0  0  0  0  0  0  0  0  0  0  0
   52.6924   24.2782   46.2320 H   0  0  0  0  0  0  0  0  0  0  0  0
   53.1444   25.2490   44.7898 H   0  0  0  0  0  0  0  0  0  0  0  0
   53.3954   23.4703   44.7898 H   0  0  0  0  0  0  0  0  0  0  0  0
   54.8262   24.2473   47.0301 H   0  0  0  0  0  0  0  0  0  0  0  0
   56.4015   27.6933   47.3279 H   0  0  0  0  0  0  0  0  0  0  0  0
   58.1982   26.9525   48.5147 H   0  0  0  0  0  0  0  0  0  0  0  0
   57.9844   25.5131   47.3938 H   0  0  0  0  0  0  0  0  0  0  0  0
   60.5406   26.6730   48.9026 H   0  0  0  0  0  0  0  0  0  0  0  0
   61.6081   27.1860   47.5184 H   0  0  0  0  0  0  0  0  0  0  0  0
   59.2404   28.5875   50.2155 H   0  0  0  0  0  0  0  0  0  0  0  0
   59.2560   31.2820   49.9691 H   0  0  0  0  0  0  0  0  0  0  0  0
   60.5621   31.8287   47.6991 H   0  0  0  0  0  0  0  0  0  0  0  0
   60.9174   27.3230   45.4523 H   0  0  0  0  0  0  0  0  0  0  0  0
   59.5023   26.2589   44.9774 H   0  0  0  0  0  0  0  0  0  0  0  0
   59.6986   29.2148   45.1866 H   0  0  0  0  0  0  0  0  0  0  0  0
   58.6688   28.1235   44.1348 H   0  0  0  0  0  0  0  0  0  0  0  0
   58.1555   29.2411   46.8592 H   0  0  0  0  0  0  0  0  0  0  0  0
   54.6120   29.3440   45.0850 H   0  0  0  0  0  0  0  0  0  0  0  0
   54.7230   23.8202   43.3402 H   0  0  0  0  0  0  0  0  0  0  0  0
   56.3949   22.4580   42.0875 H   0  0  0  0  0  0  0  0  0  0  0  0
   58.4336   21.6028   43.2467 H   0  0  0  0  0  0  0  0  0  0  0  0
   58.7983   22.1026   45.6644 H   0  0  0  0  0  0  0  0  0  0  0  0
   57.1357   23.4685   46.9268 H   0  0  0  0  0  0  0  0  0  0  0  0
  1  2  1  0
  2  3  1  0
  3  4  1  0
  4  5  2  0
  4  6  1  0
  6  7  1  0
  7  8  1  0
  8  9  1  0
  9 10  1  0
 10 11  2  0
 11 12  1  0
 12 13  2  0
 13 14  1  0
  8 15  1  0
 15 16  1  0
 16 17  1  0
 17 18  1  0
 18 19  1  0
 18 20  2  0
  2 21  1  0
 21 22  2  0
 22 23  1  0
 23 24  2  0
 24 25  1  0
 25 26  2  0
 17  6  1  0
 26 21  1  0
 14 10  1  0
  1 27  1  0
  1 28  1  0
  1 29  1  0
  2 30  1  1
  6 31  1  1
  7 32  1  0
  7 33  1  0
  9 34  1  0
  9 35  1  0
 11 36  1  0
 12 37  1  0
 13 38  1  0
 15 39  1  0
 15 40  1  0
 16 41  1  0
 16 42  1  0
 17 43  1  1
 19 44  1  0
 22 45  1  0
 23 46  1  0
 24 47  1  0
 25 48  1  0
 26 49  1  0
M  CHG  2   3  -1  19  -1
M  END
>  <UniqueID>  (15) 
15

>  <SMILES>  (15) 
C[C@H]([N-]C(=O)[C@H]1CN(Cc2ccco2)CCC1C([NH-])=O)c1ccccc1

>  <Energy>  (15) 
86.07196593767088

>  <Genealogy>  (15) 
CC([N-]C(=O)C1CN(Cc2ccco2)CCC1C([NH-])=O)c1ccccc1 (protonated)
C[C@H]([N-]C(=O)[C@H]1CN(Cc2ccco2)CCC1C([NH-])=O)c1ccccc1 (chirality)
C[C@H]([N-]C(=O)[C@H]1CN(Cc2ccco2)CCC1C([NH-])=O)c1ccccc1 (3D coordinates assigned)
C[C@H]([N-]C(=O)[C@H]1CN(Cc2ccco2)CCC1C([NH-])=O)c1ccccc1 (nonaromatic ring conformer: 86.07196593767088 kcal/mol)

>  <smiles>  (15) 
CC(NC(=O)C1CN(Cc2ccco2)CCC1C(N)=O)c1ccccc1

>  <score_type>  (15) 
oracle

>  <origin>  (15) 
adg

>  <m_score__min__energy>  (15) 
-12.43

>  <m_primary>  (15) 
energy

$$$$
15:0
     RDKit          3D

 48 51  0  0  0  0  0  0  0  0999 V2000
   54.3940   27.1060   46.3710 H   0  0  0  0  0  0  0  0  0  0  0  0
   55.1270   26.6660   45.8270 O   0  0  0  0  0  0  0  0  0  0  0  0
   56.0100   25.7570   46.4030 C   0  0  0  0  0  0  0  0  0  0  0  0
   55.6170   24.6190   46.9980 N   0  0  0  0  0  0  0  0  0  0  0  0
   56.7860   24.0610   47.3770 C   0  0  0  0  0  0  0  0  0  0  0  0
   56.8480   22.9570   47.9770 O   0  0  0  0  0  0  0  0  0  0  0  0
   57.8850   24.7740   47.0540 N   0  0  0  0  0  0  0  0  0  0  0  0
   57.3820   25.8700   46.4540 C   0  0  0  0  0  0  0  0  0  0  0  0
   58.1940   26.9060   45.7980 C   0  0  0  0  0  0  0  0  0  0  0  0
   58.2519   26.8782   44.6999 H   0  0  0  0  0  0  0  0  0  0  0  0
   58.8730   27.8860   46.4250 C   0  0  0  0  0  0  0  0  0  0  0  0
   58.8900   28.0190   47.8010 C   0  0  0  0  0  0  0  0  0  0  0  0
   58.4217   27.3396   48.5284 H   0  0  0  0  0  0  0  0  0  0  0  0
   59.6040   29.1630   48.0910 C   0  0  0  0  0  0  0  0  0  0  0  0
   59.7890   29.6900   49.4630 C   0  0  0  0  0  0  0  0  0  0  0  0
   58.8390   30.5400   50.0490 C   0  0  0  0  0  0  0  0  0  0  0  0
   57.9304   30.8101   49.4908 H   0  0  0  0  0  0  0  0  0  0  0  0
   59.0380   31.0460   51.3360 C   0  0  0  0  0  0  0  0  0  0  0  0
   58.2813   31.7030   51.7895 H   0  0  0  0  0  0  0  0  0  0  0  0
   60.2040   30.7180   52.0550 C   0  0  0  0  0  0  0  0  0  0  0  0
   60.4500   31.1980   53.3500 O   0  0  0  0  0  0  0  0  0  0  0  0
   61.7000   31.7190   53.7910 C   0  0  0  0  0  0  0  0  0  0  0  0
   61.7254   31.7296   54.8907 H   0  0  0  0  0  0  0  0  0  0  0  0
   62.5156   31.0859   53.4115 H   0  0  0  0  0  0  0  0  0  0  0  0
   61.8245   32.7439   53.4115 H   0  0  0  0  0  0  0  0  0  0  0  0
   61.1590   29.8860   51.4620 C   0  0  0  0  0  0  0  0  0  0  0  0
   62.0753   29.6282   52.0133 H   0  0  0  0  0  0  0  0  0  0  0  0
   60.9590   29.3790   50.1740 C   0  0  0  0  0  0  0  0  0  0  0  0
   61.7224   28.7332   49.7156 H   0  0  0  0  0  0  0  0  0  0  0  0
   60.0540   29.7380   46.9470 N   0  0  0  0  0  0  0  0  0  0  0  0
   60.8150   30.9950   46.8370 C   0  0  0  0  0  0  0  0  0  0  0  0
   61.3779   31.1491   47.7694 H   0  0  0  0  0  0  0  0  0  0  0  0
   61.4853   30.9046   45.9695 H   0  0  0  0  0  0  0  0  0  0  0  0
   59.9230   32.1950   46.6050 C   0  0  0  0  0  0  0  0  0  0  0  0
   60.2940   33.4950   47.0080 C   0  0  0  0  0  0  0  0  0  0  0  0
   61.2698   33.6615   47.4877 H   0  0  0  0  0  0  0  0  0  0  0  0
   59.4280   34.5730   46.8010 C   0  0  0  0  0  0  0  0  0  0  0  0
   59.7285   35.5854   47.1089 H   0  0  0  0  0  0  0  0  0  0  0  0
   58.1820   34.3670   46.2040 C   0  0  0  0  0  0  0  0  0  0  0  0
   57.5029   35.2168   46.0405 H   0  0  0  0  0  0  0  0  0  0  0  0
   57.7990   33.0820   45.8150 C   0  0  0  0  0  0  0  0  0  0  0  0
   56.8168   32.9201   45.3470 H   0  0  0  0  0  0  0  0  0  0  0  0
   58.6610   32.0010   46.0190 C   0  0  0  0  0  0  0  0  0  0  0  0
   58.3488   30.9900   45.7183 H   0  0  0  0  0  0  0  0  0  0  0  0
   59.6400   28.9490   45.9190 C   0  0  0  0  0  0  0  0  0  0  0  0
   60.0360   29.1230   44.6490 C   0  0  0  0  0  0  0  0  0  0  0  0
   60.6375   30.0026   44.3760 H   0  0  0  0  0  0  0  0  0  0  0  0
   59.7592   28.3860   43.8807 H   0  0  0  0  0  0  0  0  0  0  0  0
  1  2  1  0
  2  3  1  0
  3  4  1  0
  4  5  1  0
  5  6  2  0
  5  7  1  0
  7  8  1  0
  8  9  1  0
  9 10  1  0
  9 11  2  0
 11 12  1  0
 12 13  1  0
 12 14  2  0
 14 15  1  0
 15 16  2  0
 16 17  1  0
 16 18  1  0
 18 19  1  0
 18 20  2  0
 20 21  1  0
 21 22  1  0
 22 23  1  0
 22 24  1  0
 22 25  1  0
 20 26  1  0
 26 27  1  0
 26 28  2  0
 28 29  1  0
 14 30  1  0
 30 31  1  0
 31 32  1  0
 31 33  1  0
 31 34  1  0
 34 35  2  0
 35 36  1  0
 35 37  1  0
 37 38  1  0
 37 39  2  0
 39 40  1  0
 39 41  1  0
 41 42  1  0
 41 43  2  0
 43 44  1  0
 30 45  1  0
 45 46  2  0
 46 47  1  0
 46 48  1  0
  8  3  2  0
 45 11  1  0
 28 15  1  0
 43 34  1  0
M  CHG  2   4  -1   7  -1
M  END
>  <UniqueID>  (16) 
16

>  <SMILES>  (16) 
C=c1/c(=C\c2[n-]c(=O)[n-]c2O)cc(-c2ccc(OC)cc2)n1Cc1ccccc1

>  <Energy>  (16) 
126.62823549099603

>  <Genealogy>  (16) 
C=c1c(=Cc2[n-]c(=O)[n-]c2O)cc(-c2ccc(OC)cc2)n1Cc1ccccc1 (protonated)
C=c1/c(=C\c2[n-]c(=O)[n-]c2O)cc(-c2ccc(OC)cc2)n1Cc1ccccc1 (cis-trans isomerization)
C=c1/c(=C\c2[n-]c(=O)[n-]c2O)cc(-c2ccc(OC)cc2)n1Cc1ccccc1 (3D coordinates assigned)
C=c1/c(=C\c2[n-]c(=O)[n-]c2O)cc(-c2ccc(OC)cc2)n1Cc1ccccc1 (optimized conformer: 126.62823549099603 kcal/mol)

>  <smiles>  (16) 
C=c1c(=Cc2[nH]c(=O)[nH]c2O)cc(-c2ccc(OC)cc2)n1Cc1ccccc1

>  <score_type>  (16) 
oracle

>  <origin>  (16) 
adg

>  <m_score__min__energy>  (16) 
-12.57

>  <m_primary>  (16) 
energy

$$$$
16:0
     RDKit          3D

 44 46  0  0  0  0  0  0  0  0999 V2000
   58.3390   33.0960   43.6560 C   0  0  0  0  0  0  0  0  0  0  0  0
   58.5630   33.2190   45.1420 C   0  0  0  0  0  0  0  0  0  0  0  0
   59.0200   34.4390   45.6870 C   0  0  0  0  0  0  0  0  0  0  0  0
   59.2700   35.5300   44.8560 O   0  0  0  0  0  0  0  0  0  0  0  0
   59.2230   34.5590   47.0680 C   0  0  0  0  0  0  0  0  0  0  0  0
   58.9600   33.4830   47.9150 C   0  0  0  0  0  0  0  0  0  0  0  0
   58.4880   32.2800   47.3920 C   0  0  0  0  0  0  0  0  0  0  0  0
   58.2880   32.1340   46.0120 C   0  0  0  0  0  0  0  0  0  0  0  0
   57.7680   30.8480   45.5000 C   0  0  0  0  0  0  0  0  0  0  0  0
   56.6650   30.8470   44.8890 O   0  0  0  0  0  0  0  0  0  0  0  0
   58.4980   29.6100   45.6690 N   0  0  0  0  0  0  0  0  0  0  0  0
   59.3520   29.4520   46.8500 C   0  0  0  0  0  0  0  0  0  0  0  0
   58.3460   28.4940   44.7200 C   0  0  0  0  0  0  0  0  0  0  0  0
   57.3400   27.5090   45.2240 C   0  0  0  0  0  0  0  0  0  0  0  0
   56.0860   27.8390   45.5830 N   0  0  0  0  0  0  0  0  0  0  0  0
   55.5080   26.7270   46.0000 N   0  0  0  0  0  0  0  0  0  0  0  0
   56.4240   25.7490   45.8740 C   0  0  0  0  0  0  0  0  0  0  0  0
   56.1930   24.3390   46.3080 C   0  0  0  0  0  0  0  0  0  0  0  0
   56.5160   23.3940   45.1830 C   0  0  0  0  0  0  0  0  0  0  0  0
   56.0130   23.6390   43.8930 C   0  0  0  0  0  0  0  0  0  0  0  0
   56.2770   22.7460   42.8510 C   0  0  0  0  0  0  0  0  0  0  0  0
   57.0330   21.5960   43.0890 C   0  0  0  0  0  0  0  0  0  0  0  0
   57.5260   21.3360   44.3700 C   0  0  0  0  0  0  0  0  0  0  0  0
   57.2680   22.2270   45.4170 C   0  0  0  0  0  0  0  0  0  0  0  0
   57.7400   21.9460   46.6580 F   0  0  0  0  0  0  0  0  0  0  0  0
   57.6010   26.1980   45.3960 N   0  0  0  0  0  0  0  0  0  0  0  0
   57.3886   32.5741   43.4704 H   0  0  0  0  0  0  0  0  0  0  0  0
   58.3002   34.0993   43.2067 H   0  0  0  0  0  0  0  0  0  0  0  0
   59.1648   32.5248   43.2067 H   0  0  0  0  0  0  0  0  0  0  0  0
   60.0010   36.2010   45.0640 H   0  0  0  0  0  0  0  0  0  0  0  0
   59.5918   35.5071   47.4864 H   0  0  0  0  0  0  0  0  0  0  0  0
   59.1253   33.5836   48.9979 H   0  0  0  0  0  0  0  0  0  0  0  0
   58.2709   31.4391   48.0671 H   0  0  0  0  0  0  0  0  0  0  0  0
   58.7440   29.5645   47.7598 H   0  0  0  0  0  0  0  0  0  0  0  0
   59.8130   28.4533   46.8382 H   0  0  0  0  0  0  0  0  0  0  0  0
   60.1398   30.2196   46.8382 H   0  0  0  0  0  0  0  0  0  0  0  0
   58.0114   28.8880   43.7490 H   0  0  0  0  0  0  0  0  0  0  0  0
   59.3158   27.9865   44.6105 H   0  0  0  0  0  0  0  0  0  0  0  0
   56.8380   24.1130   47.1699 H   0  0  0  0  0  0  0  0  0  0  0  0
   55.1367   24.2168   46.5897 H   0  0  0  0  0  0  0  0  0  0  0  0
   55.4086   24.5382   43.7031 H   0  0  0  0  0  0  0  0  0  0  0  0
   55.8889   22.9491   41.8420 H   0  0  0  0  0  0  0  0  0  0  0  0
   57.2403   20.8946   42.2674 H   0  0  0  0  0  0  0  0  0  0  0  0
   58.1187   20.4281   44.5558 H   0  0  0  0  0  0  0  0  0  0  0  0
  1  2  1  0
  2  3  2  0
  3  4  1  0
  3  5  1  0
  5  6  2  0
  6  7  1  0
  7  8  2  0
  8  9  1  0
  9 10  2  0
  9 11  1  0
 11 12  1  0
 11 13  1  0
 13 14  1  0
 14 15  2  0
 15 16  1  0
 16 17  1  0
 17 18  1  0
 18 19  1  0
 19 20  2  0
 20 21  1  0
 21 22  2  0
 22 23  1  0
 23 24  2  0
 24 25  1  0
 17 26  2  0
  8  2  1  0
 26 14  1  0
 24 19  1  0
  1 27  1  0
  1 28  1  0
  1 29  1  0
  4 30  1  0
  5 31  1  0
  6 32  1  0
  7 33  1  0
 12 34  1  0
 12 35  1  0
 12 36  1  0
 13 37  1  0
 13 38  1  0
 18 39  1  0
 18 40  1  0
 20 41  1  0
 21 42  1  0
 22 43  1  0
 23 44  1  0
M  CHG  1  16  -1
M  END
>  <UniqueID>  (17) 
17

>  <SMILES>  (17) 
Cc1c(O)cccc1C(=O)N(C)Cc1n[n-]c(Cc2ccccc2F)n1

>  <Energy>  (17) 
76.85153561775655

>  <Genealogy>  (17) 
Cc1c(O)cccc1C(=O)N(C)Cc1n[n-]c(Cc2ccccc2F)n1 (protonated)
Cc1c(O)cccc1C(=O)N(C)Cc1n[n-]c(Cc2ccccc2F)n1 (3D coordinates assigned)
Cc1c(O)cccc1C(=O)N(C)Cc1n[n-]c(Cc2ccccc2F)n1 (optimized conformer: 76.85153561775655 kcal/mol)

>  <smiles>  (17) 
Cc1c(O)cccc1C(=O)N(C)Cc1n[nH]c(Cc2ccccc2F)n1

>  <score_type>  (17) 
oracle

>  <origin>  (17) 
adg

>  <m_score__min__energy>  (17) 
-11.039999999999999

>  <m_primary>  (17) 
energy

$$$$
17:0
     RDKit          3D

 48 50  0  0  0  0  0  0  0  0999 V2000
   56.8300   22.5900   49.0550 C   0  0  0  0  0  0  0  0  0  0  0  0
   56.8950   23.0060   47.6600 N   0  0  0  0  0  0  0  0  0  0  0  0
   56.1850   24.1230   47.1090 C   0  0  0  0  0  0  0  0  0  0  0  0
   54.9390   24.0350   46.9580 O   0  0  0  0  0  0  0  0  0  0  0  0
   56.8660   25.3820   46.7410 C   0  0  0  0  0  0  0  0  0  0  0  0
   58.2530   25.5080   46.9170 C   0  0  0  0  0  0  0  0  0  0  0  0
   58.9050   26.6890   46.5570 C   0  0  0  0  0  0  0  0  0  0  0  0
   58.1840   27.7490   46.0070 C   0  0  0  0  0  0  0  0  0  0  0  0
   56.7970   27.6350   45.8060 C   0  0  0  0  0  0  0  0  0  0  0  0
   56.0240   28.7020   45.2380 N   0  0  0  0  0  0  0  0  0  0  0  0
   56.6040   29.8540   44.0800 S   0  0  0  0  0  0  0  0  0  0  0  0
   55.4480   30.4720   43.3440 O   0  0  0  0  0  0  0  0  0  0  0  0
   57.5140   29.1640   43.1030 O   0  0  0  0  0  0  0  0  0  0  0  0
   57.4800   31.1190   44.9330 C   0  0  0  0  0  0  0  0  0  0  0  0
   56.9880   32.4290   44.9180 C   0  0  0  0  0  0  0  0  0  0  0  0
   57.6730   33.4430   45.5880 C   0  0  0  0  0  0  0  0  0  0  0  0
   58.8560   33.1650   46.2810 C   0  0  0  0  0  0  0  0  0  0  0  0
   59.7390   34.6190   47.1680 Br  0  0  0  0  0  0  0  0  0  0  0  0
   59.3600   31.8470   46.3050 C   0  0  0  0  0  0  0  0  0  0  0  0
   60.8580   31.4560   47.1600 S   0  0  0  0  0  0  0  0  0  0  0  0
   61.3600   30.1290   46.6640 O   0  0  0  0  0  0  0  0  0  0  0  0
   61.9010   32.5000   46.8720 O   0  0  0  0  0  0  0  0  0  0  0  0
   60.5330   31.3820   48.8800 N   0  0  0  0  0  0  0  0  0  0  0  0
   59.1370   30.9990   49.1540 C   0  0  0  0  0  0  0  0  0  0  0  0
   58.8800   29.4940   48.9040 C   0  0  0  0  0  0  0  0  0  0  0  0
   60.0640   28.7150   48.8610 O   0  0  0  0  0  0  0  0  0  0  0  0
   60.9480   29.1140   49.8820 C   0  0  0  0  0  0  0  0  0  0  0  0
   61.5040   30.5190   49.5880 C   0  0  0  0  0  0  0  0  0  0  0  0
   58.6650   30.8330   45.6250 C   0  0  0  0  0  0  0  0  0  0  0  0
   56.1440   26.4470   46.1710 C   0  0  0  0  0  0  0  0  0  0  0  0
   54.7690   26.3350   45.9790 O   0  0  0  0  0  0  0  0  0  0  0  0
   56.9669   23.4663   49.7057 H   0  0  0  0  0  0  0  0  0  0  0  0
   55.8496   22.1335   49.2562 H   0  0  0  0  0  0  0  0  0  0  0  0
   57.6244   21.8562   49.2562 H   0  0  0  0  0  0  0  0  0  0  0  0
   58.8291   24.6721   47.3406 H   0  0  0  0  0  0  0  0  0  0  0  0
   59.9905   26.7839   46.7075 H   0  0  0  0  0  0  0  0  0  0  0  0
   58.7029   28.6783   45.7293 H   0  0  0  0  0  0  0  0  0  0  0  0
   56.0587   32.6598   44.3765 H   0  0  0  0  0  0  0  0  0  0  0  0
   57.2795   34.4701   45.5712 H   0  0  0  0  0  0  0  0  0  0  0  0
   58.9077   31.2269   50.2054 H   0  0  0  0  0  0  0  0  0  0  0  0
   58.4917   31.5684   48.4689 H   0  0  0  0  0  0  0  0  0  0  0  0
   58.2412   29.1112   49.7136 H   0  0  0  0  0  0  0  0  0  0  0  0
   58.4016   29.4082   47.9172 H   0  0  0  0  0  0  0  0  0  0  0  0
   60.4106   29.1298   50.8417 H   0  0  0  0  0  0  0  0  0  0  0  0
   61.7843   28.4010   49.9303 H   0  0  0  0  0  0  0  0  0  0  0  0
   61.7706   30.9983   50.5415 H   0  0  0  0  0  0  0  0  0  0  0  0
   62.3799   30.3988   48.9335 H   0  0  0  0  0  0  0  0  0  0  0  0
   59.0546   29.8044   45.6357 H   0  0  0  0  0  0  0  0  0  0  0  0
  1  2  1  0
  2  3  1  0
  3  4  2  0
  3  5  1  0
  5  6  2  0
  6  7  1  0
  7  8  2  0
  8  9  1  0
  9 10  1  0
 10 11  1  0
 11 12  2  0
 11 13  2  0
 11 14  1  0
 14 15  2  0
 15 16  1  0
 16 17  2  0
 17 18  1  0
 17 19  1  0
 19 20  1  0
 20 21  2  0
 20 22  2  0
 20 23  1  0
 23 24  1  0
 24 25  1  0
 25 26  1  0
 26 27  1  0
 27 28  1  0
 19 29  2  0
  9 30  2  0
 30 31  1  0
 30  5  1  0
 29 14  1  0
 28 23  1  0
  1 32  1  0
  1 33  1  0
  1 34  1  0
  6 35  1  0
  7 36  1  0
  8 37  1  0
 15 38  1  0
 16 39  1  0
 24 40  1  0
 24 41  1  0
 25 42  1  0
 25 43  1  0
 27 44  1  0
 27 45  1  0
 28 46  1  0
 28 47  1  0
 29 48  1  0
M  CHG  3   2  -1  10  -1  31  -1
M  END
>  <UniqueID>  (18) 
18

>  <SMILES>  (18) 
C[N-]C(=O)c1cccc([N-]S(=O)(=O)c2ccc(Br)c(S(=O)(=O)N3CCOCC3)c2)c1[O-]

>  <Energy>  (18) 
70.49341816820562

>  <Genealogy>  (18) 
C[N-]C(=O)c1cccc([N-]S(=O)(=O)c2ccc(Br)c(S(=O)(=O)N3CCOCC3)c2)c1[O-] (protonated)
C[N-]C(=O)c1cccc([N-]S(=O)(=O)c2ccc(Br)c(S(=O)(=O)N3CCOCC3)c2)c1[O-] (3D coordinates assigned)
C[N-]C(=O)c1cccc([N-]S(=O)(=O)c2ccc(Br)c(S(=O)(=O)N3CCOCC3)c2)c1[O-] (nonaromatic ring conformer: 70.49341816820562 kcal/mol)

>  <smiles>  (18) 
CNC(=O)c1cccc(NS(=O)(=O)c2ccc(Br)c(S(=O)(=O)N3CCOCC3)c2)c1O

>  <score_type>  (18) 
oracle

>  <origin>  (18) 
adg

>  <m_score__min__energy>  (18) 
-17.16

>  <m_primary>  (18) 
energy

$$$$
18:0
     RDKit          3D

 49 51  0  0  0  0  0  0  0  0999 V2000
   63.4150   33.7090   46.3630 C   0  0  0  0  0  0  0  0  0  0  0  0
   62.7350   32.7810   47.3420 C   0  0  0  0  0  0  0  0  0  0  0  0
   63.4240   32.3270   48.4960 C   0  0  0  0  0  0  0  0  0  0  0  0
   64.7610   32.7820   48.7770 N   0  0  0  0  0  0  0  0  0  0  0  0
   65.5030   32.6610   50.3420 S   0  0  0  0  0  0  0  0  0  0  0  0
   64.6530   33.7130   51.4980 C   0  0  0  0  0  0  0  0  0  0  0  0
   66.9370   33.0980   50.2390 O   0  0  0  0  0  0  0  0  0  0  0  0
   65.4700   31.2350   50.8210 O   0  0  0  0  0  0  0  0  0  0  0  0
   62.7700   31.4580   49.3870 C   0  0  0  0  0  0  0  0  0  0  0  0
   61.4620   31.0460   49.1480 C   0  0  0  0  0  0  0  0  0  0  0  0
   60.7790   31.5000   48.0240 C   0  0  0  0  0  0  0  0  0  0  0  0
   61.4050   32.3630   47.1100 C   0  0  0  0  0  0  0  0  0  0  0  0
   60.7050   32.8510   45.9930 O   0  0  0  0  0  0  0  0  0  0  0  0
   59.3090   32.8520   45.8470 C   0  0  0  0  0  0  0  0  0  0  0  0
   58.5630   33.8070   46.5380 C   0  0  0  0  0  0  0  0  0  0  0  0
   57.1760   33.8200   46.4090 C   0  0  0  0  0  0  0  0  0  0  0  0
   56.5580   32.9240   45.5960 N   0  0  0  0  0  0  0  0  0  0  0  0
   57.2460   32.0000   44.8730 C   0  0  0  0  0  0  0  0  0  0  0  0
   56.5680   31.1820   44.1170 N   0  0  0  0  0  0  0  0  0  0  0  0
   56.3370   29.7740   44.2920 C   0  0  0  0  0  0  0  0  0  0  0  0
   55.3230   29.3530   44.9100 O   0  0  0  0  0  0  0  0  0  0  0  0
   57.3920   28.8030   43.8670 C   0  0  0  0  0  0  0  0  0  0  0  0
   58.4320   28.6620   44.9440 C   0  0  0  0  0  0  0  0  0  0  0  0
   58.0490   28.4800   46.2840 C   0  0  0  0  0  0  0  0  0  0  0  0
   59.0190   28.3320   47.2800 C   0  0  0  0  0  0  0  0  0  0  0  0
   60.3750   28.3450   46.9440 C   0  0  0  0  0  0  0  0  0  0  0  0
   60.7640   28.5120   45.6120 C   0  0  0  0  0  0  0  0  0  0  0  0
   59.7980   28.6680   44.6140 C   0  0  0  0  0  0  0  0  0  0  0  0
   58.6520   31.9480   44.9950 C   0  0  0  0  0  0  0  0  0  0  0  0
   63.9773   34.4764   46.9152 H   0  0  0  0  0  0  0  0  0  0  0  0
   64.1059   33.1323   45.7305 H   0  0  0  0  0  0  0  0  0  0  0  0
   62.6570   34.1940   45.7305 H   0  0  0  0  0  0  0  0  0  0  0  0
   65.3660   33.1370   48.0050 H   0  0  0  0  0  0  0  0  0  0  0  0
   64.9013   33.4057   52.5246 H   0  0  0  0  0  0  0  0  0  0  0  0
   64.9647   34.7563   51.3421 H   0  0  0  0  0  0  0  0  0  0  0  0
   63.5675   33.6274   51.3421 H   0  0  0  0  0  0  0  0  0  0  0  0
   63.2979   31.0996   50.2831 H   0  0  0  0  0  0  0  0  0  0  0  0
   60.9667   30.3592   49.8501 H   0  0  0  0  0  0  0  0  0  0  0  0
   59.7409   31.1805   47.8500 H   0  0  0  0  0  0  0  0  0  0  0  0
   59.0665   34.5446   47.1802 H   0  0  0  0  0  0  0  0  0  0  0  0
   56.5799   34.5573   46.9666 H   0  0  0  0  0  0  0  0  0  0  0  0
   56.9292   27.8231   43.6782 H   0  0  0  0  0  0  0  0  0  0  0  0
   57.8729   29.1740   42.9499 H   0  0  0  0  0  0  0  0  0  0  0  0
   56.9820   28.4539   46.5502 H   0  0  0  0  0  0  0  0  0  0  0  0
   58.7142   28.2052   48.3293 H   0  0  0  0  0  0  0  0  0  0  0  0
   61.1369   28.2237   47.7281 H   0  0  0  0  0  0  0  0  0  0  0  0
   61.8320   28.5207   45.3487 H   0  0  0  0  0  0  0  0  0  0  0  0
   60.1081   28.7959   43.5664 H   0  0  0  0  0  0  0  0  0  0  0  0
   59.2295   31.2042   44.4264 H   0  0  0  0  0  0  0  0  0  0  0  0
  1  2  1  0
  2  3  2  0
  3  4  1  0
  4  5  1  0
  5  6  1  0
  5  7  2  0
  5  8  2  0
  3  9  1  0
  9 10  2  0
 10 11  1  0
 11 12  2  0
 12 13  1  0
 13 14  1  0
 14 15  1  0
 15 16  2  0
 16 17  1  0
 17 18  1  0
 18 19  2  3
 19 20  1  0
 20 21  2  0
 20 22  1  0
 22 23  1  0
 23 24  2  0
 24 25  1  0
 25 26  2  0
 26 27  1  0
 27 28  2  0
 18 29  1  0
 12  2  1  0
 29 14  2  0
 28 23  1  0
  1 30  1  0
  1 31  1  0
  1 32  1  0
  4 33  1  0
  6 34  1  0
  6 35  1  0
  6 36  1  0
  9 37  1  0
 10 38  1  0
 11 39  1  0
 15 40  1  0
 16 41  1  0
 22 42  1  0
 22 43  1  0
 24 44  1  0
 25 45  1  0
 26 46  1  0
 27 47  1  0
 28 48  1  0
 29 49  1  0
M  CHG  1  17  -1
M  END
>  <UniqueID>  (19) 
19

>  <SMILES>  (19) 
Cc1c(NS(C)(=O)=O)cccc1Oc1cc[n-]c(=NC(=O)Cc2ccccc2)c1

>  <Energy>  (19) 
65.50326617600452

>  <Genealogy>  (19) 
Cc1c(NS(C)(=O)=O)cccc1Oc1cc[n-]c(=NC(=O)Cc2ccccc2)c1 (protonated)
Cc1c(NS(C)(=O)=O)cccc1Oc1cc[n-]c(=NC(=O)Cc2ccccc2)c1 (3D coordinates assigned)
Cc1c(NS(C)(=O)=O)cccc1Oc1cc[n-]c(=NC(=O)Cc2ccccc2)c1 (optimized conformer: 65.50326617600452 kcal/mol)

>  <smiles>  (19) 
Cc1c(NS(C)(=O)=O)cccc1Oc1cc[nH]c(=NC(=O)Cc2ccccc2)c1

>  <score_type>  (19) 
oracle

>  <origin>  (19) 
adg

>  <m_score__min__energy>  (19) 
-11.119999999999999

>  <m_primary>  (19) 
energy

$$$$
19:0
     RDKit          3D

 68 71  0  0  0  0  0  0  0  0999 V2000
   58.9330   29.4140   52.1980 C   0  0  0  0  0  0  0  0  0  0  0  0
   59.9080   30.2690   51.8180 C   0  0  0  0  0  0  0  0  0  0  0  0
   59.5720   31.5890   51.7280 N   0  0  0  0  0  0  0  0  0  0  0  0
   60.2970   32.6300   51.2480 C   0  0  0  0  0  0  0  0  0  0  0  0
   59.5630   33.8260   50.7700 C   0  0  0  0  0  0  0  0  0  0  0  0
   58.8870   34.5060   51.5860 O   0  0  0  0  0  0  0  0  0  0  0  0
   59.6590   34.2650   49.4100 N   0  0  0  0  0  0  0  0  0  0  0  0
   59.1580   33.5260   48.2910 C   0  0  0  0  0  0  0  0  0  0  0  0
   58.9980   32.1410   48.3830 C   0  0  0  0  0  0  0  0  0  0  0  0
   58.5300   31.4110   47.2840 C   0  0  0  0  0  0  0  0  0  0  0  0
   58.2450   32.0620   46.0730 C   0  0  0  0  0  0  0  0  0  0  0  0
   57.7090   31.1370   44.6670 S   0  0  0  0  0  0  0  0  0  0  0  0
   56.2060   31.0490   44.6850 O   0  0  0  0  0  0  0  0  0  0  0  0
   58.1460   31.8330   43.4030 O   0  0  0  0  0  0  0  0  0  0  0  0
   58.4030   29.5330   44.7020 N   0  0  0  0  0  0  0  0  0  0  0  0
   57.6130   28.6360   45.5770 C   0  0  0  0  0  0  0  0  0  0  0  0
   58.4790   27.9210   46.6250 C   0  0  0  0  0  0  0  0  0  0  0  0
   59.5880   27.2920   46.0110 O   0  0  0  0  0  0  0  0  0  0  0  0
   60.4170   28.2150   45.3060 C   0  0  0  0  0  0  0  0  0  0  0  0
   59.8200   29.6230   45.0910 C   0  0  0  0  0  0  0  0  0  0  0  0
   58.4800   33.4420   45.9590 C   0  0  0  0  0  0  0  0  0  0  0  0
   58.9530   34.1630   47.0580 C   0  0  0  0  0  0  0  0  0  0  0  0
   61.6680   32.7640   51.4310 C   0  0  0  0  0  0  0  0  0  0  0  0
   62.5800   31.7780   51.8020 C   0  0  0  0  0  0  0  0  0  0  0  0
   63.8780   32.2820   52.3400 C   0  0  0  0  0  0  0  0  0  0  0  0
   64.4100   31.7020   53.3260 O   0  0  0  0  0  0  0  0  0  0  0  0
   64.5630   33.3980   51.7500 N   0  0  0  0  0  0  0  0  0  0  0  0
   64.8400   33.5110   50.4840 C   0  0  0  0  0  0  0  0  0  0  0  0
   64.9180   32.2900   49.6110 C   0  0  0  0  0  0  0  0  0  0  0  0
   64.0960   32.3890   48.3850 N   0  0  0  0  0  0  0  0  0  0  0  0
   62.8760   31.5630   48.4550 C   0  0  0  0  0  0  0  0  0  0  0  0
   62.1110   31.6720   47.1280 C   0  0  0  0  0  0  0  0  0  0  0  0
   61.7820   33.0210   46.8480 O   0  0  0  0  0  0  0  0  0  0  0  0
   62.9630   33.7950   46.7240 C   0  0  0  0  0  0  0  0  0  0  0  0
   63.7600   33.7820   48.0340 C   0  0  0  0  0  0  0  0  0  0  0  0
   62.4180   30.4000   51.5020 C   0  0  0  0  0  0  0  0  0  0  0  0
   63.5380   29.6640   51.2880 C   0  0  0  0  0  0  0  0  0  0  0  0
   61.1630   29.7270   51.4440 C   0  0  0  0  0  0  0  0  0  0  0  0
   61.1680   28.5100   51.0940 O   0  0  0  0  0  0  0  0  0  0  0  0
   59.1482   28.3389   52.2871 H   0  0  0  0  0  0  0  0  0  0  0  0
   57.9241   29.7931   52.4183 H   0  0  0  0  0  0  0  0  0  0  0  0
   58.5790   31.8330   51.9430 H   0  0  0  0  0  0  0  0  0  0  0  0
   59.2406   31.6224   49.3223 H   0  0  0  0  0  0  0  0  0  0  0  0
   58.3851   30.3239   47.3694 H   0  0  0  0  0  0  0  0  0  0  0  0
   56.8507   29.2338   46.0982 H   0  0  0  0  0  0  0  0  0  0  0  0
   57.1569   27.8647   44.9390 H   0  0  0  0  0  0  0  0  0  0  0  0
   58.8412   28.6573   47.3576 H   0  0  0  0  0  0  0  0  0  0  0  0
   57.8690   27.1542   47.1250 H   0  0  0  0  0  0  0  0  0  0  0  0
   61.3537   28.3279   45.8715 H   0  0  0  0  0  0  0  0  0  0  0  0
   60.5512   27.7897   44.3005 H   0  0  0  0  0  0  0  0  0  0  0  0
   59.9022   30.1968   46.0259 H   0  0  0  0  0  0  0  0  0  0  0  0
   60.3769   30.1243   44.2857 H   0  0  0  0  0  0  0  0  0  0  0  0
   58.2916   33.9550   45.0044 H   0  0  0  0  0  0  0  0  0  0  0  0
   59.1661   35.2373   46.9559 H   0  0  0  0  0  0  0  0  0  0  0  0
   62.0830   33.7688   51.2628 H   0  0  0  0  0  0  0  0  0  0  0  0
   65.0182   34.5059   50.0499 H   0  0  0  0  0  0  0  0  0  0  0  0
   65.9669   32.1391   49.3160 H   0  0  0  0  0  0  0  0  0  0  0  0
   64.5248   31.4466   50.1976 H   0  0  0  0  0  0  0  0  0  0  0  0
   63.1528   30.5136   48.6342 H   0  0  0  0  0  0  0  0  0  0  0  0
   62.2380   31.9180   49.2778 H   0  0  0  0  0  0  0  0  0  0  0  0
   62.7393   31.2777   46.3158 H   0  0  0  0  0  0  0  0  0  0  0  0
   61.1805   31.0908   47.2079 H   0  0  0  0  0  0  0  0  0  0  0  0
   63.5853   33.3776   45.9187 H   0  0  0  0  0  0  0  0  0  0  0  0
   62.6827   34.8329   46.4910 H   0  0  0  0  0  0  0  0  0  0  0  0
   64.6856   34.3627   47.9071 H   0  0  0  0  0  0  0  0  0  0  0  0
   63.1567   34.2298   48.8375 H   0  0  0  0  0  0  0  0  0  0  0  0
   63.4555   28.5926   51.0528 H   0  0  0  0  0  0  0  0  0  0  0  0
   64.5283   30.1389   51.3497 H   0  0  0  0  0  0  0  0  0  0  0  0
  1  2  2  0
  2  3  1  0
  3  4  2  0
  4  5  1  0
  5  6  2  0
  5  7  1  0
  7  8  1  0
  8  9  2  0
  9 10  1  0
 10 11  2  0
 11 12  1  0
 12 13  2  0
 12 14  2  0
 12 15  1  0
 15 16  1  0
 16 17  1  0
 17 18  1  0
 18 19  1  0
 19 20  1  0
 11 21  1  0
 21 22  2  0
  4 23  1  0
 23 24  2  0
 24 25  1  0
 25 26  2  0
 25 27  1  0
 27 28  2  3
 28 29  1  0
 29 30  1  0
 30 31  1  0
 31 32  1  0
 32 33  1  0
 33 34  1  0
 34 35  1  0
 24 36  1  0
 36 37  2  0
 36 38  1  0
 38 39  2  0
 38  2  1  0
 22  8  1  0
 35 30  1  0
 20 15  1  0
  1 40  1  0
  1 41  1  0
  3 42  1  0
  9 43  1  0
 10 44  1  0
 16 45  1  0
 16 46  1  0
 17 47  1  0
 17 48  1  0
 19 49  1  0
 19 50  1  0
 20 51  1  0
 20 52  1  0
 21 53  1  0
 22 54  1  0
 23 55  1  0
 28 56  1  0
 29 57  1  0
 29 58  1  0
 31 59  1  0
 31 60  1  0
 32 61  1  0
 32 62  1  0
 34 63  1  0
 34 64  1  0
 35 65  1  0
 35 66  1  0
 37 67  1  0
 37 68  1  0
M  CHG  2   3   1   7  -1
M  END
>  <UniqueID>  (20) 
20

>  <SMILES>  (20) 
C=c1[nH+]c(C(=O)[N-]c2ccc(S(=O)(=O)N3CCOCC3)cc2)cc(C(=O)N=CCN2CCOCC2)c(=C)c1=O

>  <Energy>  (20) 
150.31721014896488

>  <Genealogy>  (20) 
C=c1[nH+]c(C(=O)[N-]c2ccc(S(=O)(=O)N3CCOCC3)cc2)cc(C(=O)N=CCN2CCOCC2)c(=C)c1=O (protonated)
C=c1[nH+]c(C(=O)[N-]c2ccc(S(=O)(=O)N3CCOCC3)cc2)cc(C(=O)N=CCN2CCOCC2)c(=C)c1=O (3D coordinates assigned)
C=c1[nH+]c(C(=O)[N-]c2ccc(S(=O)(=O)N3CCOCC3)cc2)cc(C(=O)N=CCN2CCOCC2)c(=C)c1=O (nonaromatic ring conformer: 150.31721014896488 kcal/mol)

>  <smiles>  (20) 
C=c1nc(C(=O)Nc2ccc(S(=O)(=O)N3CCOCC3)cc2)cc(C(=O)N=CCN2CCOCC2)c(=C)c1=O

>  <score_type>  (20) 
oracle

>  <origin>  (20) 
adg

>  <m_score__min__energy>  (20) 
-10.73

>  <m_primary>  (20) 
energy

$$$$
20:0
     RDKit          3D

 55 58  0  0  0  0  0  0  0  0999 V2000
   55.1250   29.0190   44.4950 O   0  0  0  0  0  0  0  0  0  0  0  0
   56.2970   29.3240   44.8400 C   0  0  0  0  0  0  0  0  0  0  0  0
   56.7980   30.6280   44.5100 N   0  0  0  0  0  0  0  0  0  0  0  0
   57.5900   31.4750   45.3980 C   0  0  0  0  0  0  0  0  0  0  0  0
   57.3750   32.9570   45.0630 C   0  0  0  0  0  0  0  0  0  0  0  0
   58.0460   33.8960   45.9920 N   0  0  0  0  0  0  0  0  0  0  0  0
   59.2650   34.5740   45.5090 C   0  0  0  0  0  0  0  0  0  0  0  0
   60.5570   33.8870   45.9630 C   0  0  0  0  0  0  0  0  0  0  0  0
   60.4930   33.5590   47.3900 N   0  0  0  0  0  0  0  0  0  0  0  0
   61.7080   33.5490   48.1640 C   0  0  0  0  0  0  0  0  0  0  0  0
   61.7300   34.0530   49.4760 C   0  0  0  0  0  0  0  0  0  0  0  0
   62.9160   34.0430   50.2160 C   0  0  0  0  0  0  0  0  0  0  0  0
   64.0890   33.5340   49.6540 C   0  0  0  0  0  0  0  0  0  0  0  0
   64.0780   33.0310   48.3510 C   0  0  0  0  0  0  0  0  0  0  0  0
   62.8940   33.0380   47.6070 C   0  0  0  0  0  0  0  0  0  0  0  0
   59.3080   32.8560   47.8870 C   0  0  0  0  0  0  0  0  0  0  0  0
   58.0280   33.5610   47.4280 C   0  0  0  0  0  0  0  0  0  0  0  0
   57.1010   28.3520   45.6080 C   0  0  0  0  0  0  0  0  0  0  0  0
   58.4100   28.6890   45.9840 C   0  0  0  0  0  0  0  0  0  0  0  0
   59.1740   27.8230   46.7800 C   0  0  0  0  0  0  0  0  0  0  0  0
   60.5100   28.2690   47.3050 C   0  0  0  0  0  0  0  0  0  0  0  0
   60.3090   29.1610   48.4900 C   0  0  0  0  0  0  0  0  0  0  0  0
   61.1600   30.1570   48.9070 C   0  0  0  0  0  0  0  0  0  0  0  0
   60.5950   30.8090   49.9370 N   0  0  0  0  0  0  0  0  0  0  0  0
   59.4070   30.1880   50.1080 C   0  0  0  0  0  0  0  0  0  0  0  0
   59.1900   29.1820   49.2350 N   0  0  0  0  0  0  0  0  0  0  0  0
   58.6330   26.5910   47.1720 C   0  0  0  0  0  0  0  0  0  0  0  0
   57.3470   26.2280   46.7680 C   0  0  0  0  0  0  0  0  0  0  0  0
   56.5680   27.1030   46.0030 C   0  0  0  0  0  0  0  0  0  0  0  0
   55.2650   26.7150   45.6820 O   0  0  0  0  0  0  0  0  0  0  0  0
   57.2857   31.2917   46.4391 H   0  0  0  0  0  0  0  0  0  0  0  0
   58.6544   31.2317   45.2647 H   0  0  0  0  0  0  0  0  0  0  0  0
   57.7610   33.1405   44.0494 H   0  0  0  0  0  0  0  0  0  0  0  0
   56.2949   33.1460   45.1501 H   0  0  0  0  0  0  0  0  0  0  0  0
   59.2446   34.5888   44.4093 H   0  0  0  0  0  0  0  0  0  0  0  0
   59.2663   35.5879   45.9355 H   0  0  0  0  0  0  0  0  0  0  0  0
   60.6965   32.9614   45.3852 H   0  0  0  0  0  0  0  0  0  0  0  0
   61.4010   34.5719   45.7941 H   0  0  0  0  0  0  0  0  0  0  0  0
   60.8096   34.4572   49.9226 H   0  0  0  0  0  0  0  0  0  0  0  0
   62.9254   34.4368   51.2430 H   0  0  0  0  0  0  0  0  0  0  0  0
   65.0214   33.5293   50.2375 H   0  0  0  0  0  0  0  0  0  0  0  0
   65.0018   32.6289   47.9096 H   0  0  0  0  0  0  0  0  0  0  0  0
   62.8902   32.6418   46.5808 H   0  0  0  0  0  0  0  0  0  0  0  0
   59.3110   31.8259   47.5013 H   0  0  0  0  0  0  0  0  0  0  0  0
   59.3346   32.8519   48.9867 H   0  0  0  0  0  0  0  0  0  0  0  0
   57.1719   32.8987   47.6241 H   0  0  0  0  0  0  0  0  0  0  0  0
   57.9494   34.5044   47.9881 H   0  0  0  0  0  0  0  0  0  0  0  0
   58.8423   29.6439   45.6505 H   0  0  0  0  0  0  0  0  0  0  0  0
   61.0985   27.3891   47.6042 H   0  0  0  0  0  0  0  0  0  0  0  0
   61.0471   28.8199   46.5188 H   0  0  0  0  0  0  0  0  0  0  0  0
   62.1432   30.3832   48.4688 H   0  0  0  0  0  0  0  0  0  0  0  0
   58.6845   30.4756   50.8860 H   0  0  0  0  0  0  0  0  0  0  0  0
   59.2236   25.9078   47.8001 H   0  0  0  0  0  0  0  0  0  0  0  0
   56.9426   25.2457   47.0535 H   0  0  0  0  0  0  0  0  0  0  0  0
   54.7540   27.0960   44.8970 H   0  0  0  0  0  0  0  0  0  0  0  0
  1  2  2  0
  2  3  1  0
  3  4  1  0
  4  5  1  0
  5  6  1  0
  6  7  1  0
  7  8  1  0
  8  9  1  0
  9 10  1  0
 10 11  2  0
 11 12  1  0
 12 13  2  0
 13 14  1  0
 14 15  2  0
  9 16  1  0
 16 17  1  0
  2 18  1  0
 18 19  2  0
 19 20  1  0
 20 21  1  0
 21 22  1  0
 22 23  2  0
 23 24  1  0
 24 25  1  0
 25 26  2  0
 20 27  2  0
 27 28  1  0
 28 29  2  0
 29 30  1  0
 17  6  1  0
 29 18  1  0
 15 10  1  0
 26 22  1  0
  4 31  1  0
  4 32  1  0
  5 33  1  0
  5 34  1  0
  7 35  1  0
  7 36  1  0
  8 37  1  0
  8 38  1  0
 11 39  1  0
 12 40  1  0
 13 41  1  0
 14 42  1  0
 15 43  1  0
 16 44  1  0
 16 45  1  0
 17 46  1  0
 17 47  1  0
 19 48  1  0
 21 49  1  0
 21 50  1  0
 23 51  1  0
 25 52  1  0
 27 53  1  0
 28 54  1  0
 30 55  1  0
M  CHG  2   3  -1  24  -1
M  END
>  <UniqueID>  (21) 
21

>  <SMILES>  (21) 
O=C([N-]CCN1CCN(c2ccccc2)CC1)c1cc(Cc2c[n-]cn2)ccc1O

>  <Energy>  (21) 
99.91719602190653

>  <Genealogy>  (21) 
O=C([N-]CCN1CCN(c2ccccc2)CC1)c1cc(Cc2c[n-]cn2)ccc1O (protonated)
O=C([N-]CCN1CCN(c2ccccc2)CC1)c1cc(Cc2c[n-]cn2)ccc1O (3D coordinates assigned)
O=C([N-]CCN1CCN(c2ccccc2)CC1)c1cc(Cc2c[n-]cn2)ccc1O (nonaromatic ring conformer: 99.91719602190653 kcal/mol)

>  <smiles>  (21) 
O=C(NCCN1CCN(c2ccccc2)CC1)c1cc(Cc2c[nH]cn2)ccc1O

>  <score_type>  (21) 
oracle

>  <origin>  (21) 
adg

>  <m_score__min__energy>  (21) 
-12.59

>  <m_primary>  (21) 
energy

$$$$
21:0
     RDKit          3D

 54 57  0  0  1  0  0  0  0  0999 V2000
   56.6610   24.3750   44.2550 C   0  0  0  0  0  0  0  0  0  0  0  0
   57.6130   25.4450   44.4680 N   0  0  0  0  0  0  0  0  0  0  0  0
   57.4950   26.0780   45.7330 C   0  0  0  0  0  0  0  0  0  0  0  0
   57.0280   27.5180   45.6910 C   0  0  0  0  0  0  0  0  0  0  0  0
   57.7970   28.3190   44.7680 N   0  0  0  0  0  0  0  0  0  0  0  0
   57.9560   29.7160   44.9390 C   0  0  0  0  0  0  0  0  0  0  0  0
   58.5990   30.2690   46.0200 C   0  0  0  0  0  0  0  0  0  0  0  0
   58.7340   31.6490   46.1720 C   0  0  0  0  0  0  0  0  0  0  0  0
   58.2190   32.4860   45.2290 C   0  0  0  0  0  0  0  0  0  0  0  0
   58.2690   33.9420   45.2680 C   0  0  0  0  0  0  0  0  0  0  0  0
   57.2370   34.5310   44.7830 O   0  0  0  0  0  0  0  0  0  0  0  0
   59.2920   34.7250   45.7540 N   0  0  0  0  0  0  0  0  0  0  0  0
   59.8790   34.5920   46.8660 C   0  0  0  0  0  0  0  0  0  0  0  0
   59.2710   34.8370   48.0560 N   0  0  0  0  0  0  0  0  0  0  0  0
   60.1340   34.5930   49.0400 N   0  0  0  0  0  0  0  0  0  0  0  0
   61.2900   34.1950   48.4920 C   0  0  0  0  0  0  0  0  0  0  0  0
   62.4950   33.8290   49.0490 C   0  0  0  0  0  0  0  0  0  0  0  0
   63.5490   33.4630   48.2450 C   0  0  0  0  0  0  0  0  0  0  0  0
   64.8260   33.0790   48.7070 N   0  0  0  0  0  0  0  0  0  0  0  0
   65.2220   32.5910   50.2860 S   0  0  0  0  0  0  0  0  0  0  0  0
   66.9840   32.5060   50.4460 C   0  0  0  0  0  0  0  0  0  0  0  0
   64.6050   31.2630   50.6790 O   0  0  0  0  0  0  0  0  0  0  0  0
   64.6990   33.5760   51.3220 O   0  0  0  0  0  0  0  0  0  0  0  0
   63.3670   33.4730   46.8680 C   0  0  0  0  0  0  0  0  0  0  0  0
   62.1730   33.8330   46.2730 C   0  0  0  0  0  0  0  0  0  0  0  0
   61.1490   34.1900   47.1170 C   0  0  0  0  0  0  0  0  0  0  0  0
   57.5600   31.9430   44.1190 C   0  0  0  0  0  0  0  0  0  0  0  0
   57.4390   30.5700   43.9890 C   0  0  0  0  0  0  0  0  0  0  0  0
   58.4040   27.6200   43.6420 C   0  0  0  0  0  0  0  0  0  0  0  0
   57.7680   26.3040   43.3540 C   0  0  0  0  0  0  0  0  0  0  0  0
   56.3185   23.9901   45.2269 H   0  0  0  0  0  0  0  0  0  0  0  0
   55.7996   24.7580   43.6882 H   0  0  0  0  0  0  0  0  0  0  0  0
   57.1416   23.5640   43.6882 H   0  0  0  0  0  0  0  0  0  0  0  0
   56.7753   25.5040   46.3352 H   0  0  0  0  0  0  0  0  0  0  0  0
   58.5082   26.0974   46.1609 H   0  0  0  0  0  0  0  0  0  0  0  0
   55.9725   27.5383   45.3819 H   0  0  0  0  0  0  0  0  0  0  0  0
   57.1616   27.9435   46.6965 H   0  0  0  0  0  0  0  0  0  0  0  0
   59.0198   29.6037   46.7884 H   0  0  0  0  0  0  0  0  0  0  0  0
   59.2543   32.0596   47.0499 H   0  0  0  0  0  0  0  0  0  0  0  0
   58.2750   35.1720   48.2100 H   0  0  0  0  0  0  0  0  0  0  0  0
   59.9210   34.7030   50.0590 H   0  0  0  0  0  0  0  0  0  0  0  0
   62.6151   33.8294   50.1424 H   0  0  0  0  0  0  0  0  0  0  0  0
   65.6190   33.0930   47.9910 H   0  0  0  0  0  0  0  0  0  0  0  0
   67.2552   32.4929   51.5120 H   0  0  0  0  0  0  0  0  0  0  0  0
   67.3523   31.5890   49.9627 H   0  0  0  0  0  0  0  0  0  0  0  0
   67.4388   33.3833   49.9627 H   0  0  0  0  0  0  0  0  0  0  0  0
   64.2095   33.1818   46.2235 H   0  0  0  0  0  0  0  0  0  0  0  0
   62.0486   33.8338   45.1801 H   0  0  0  0  0  0  0  0  0  0  0  0
   57.1385   32.6075   43.3504 H   0  0  0  0  0  0  0  0  0  0  0  0
   56.9213   30.1536   43.1123 H   0  0  0  0  0  0  0  0  0  0  0  0
   58.3144   28.2543   42.7478 H   0  0  0  0  0  0  0  0  0  0  0  0
   59.4534   27.4239   43.9073 H   0  0  0  0  0  0  0  0  0  0  0  0
   56.7703   26.4950   42.9320 H   0  0  0  0  0  0  0  0  0  0  0  0
   58.4492   25.7840   42.6644 H   0  0  0  0  0  0  0  0  0  0  0  0
  1  2  1  0
  2  3  1  0
  3  4  1  0
  4  5  1  0
  5  6  1  0
  6  7  2  0
  7  8  1  0
  8  9  2  0
  9 10  1  0
 10 11  2  0
 10 12  1  0
 12 13  2  0
 13 14  1  0
 14 15  1  0
 15 16  1  0
 16 17  2  0
 17 18  1  0
 18 19  1  0
 19 20  1  0
 20 21  1  0
 20 22  2  0
 20 23  2  0
 18 24  2  0
 24 25  1  0
 25 26  2  0
  9 27  1  0
 27 28  2  0
  5 29  1  0
 29 30  1  0
 30  2  1  0
 28  6  1  0
 26 13  1  0
 26 16  1  0
  1 31  1  0
  1 32  1  0
  1 33  1  0
  3 34  1  0
  3 35  1  0
  4 36  1  0
  4 37  1  0
  7 38  1  0
  8 39  1  0
 14 40  1  0
 15 41  1  0
 17 42  1  0
 19 43  1  0
 21 44  1  0
 21 45  1  0
 21 46  1  0
 24 47  1  0
 25 48  1  0
 27 49  1  0
 28 50  1  0
 29 51  1  0
 29 52  1  0
 30 53  1  0
 30 54  1  0
M  END
>  <smiles>  (22) 
CN1CCN(c2ccc(C(=O)N=c3[nH][nH]c4cc(NS(C)(=O)=O)ccc34)cc2)CC1

>  <score_type>  (22) 
oracle

>  <origin>  (22) 
adg

>  <m_score__min__energy>  (22) 
-9.8599999999999994

>  <m_primary>  (22) 
energy

$$$$
22:0
     RDKit          3D

 59 63  0  0  0  0  0  0  0  0999 V2000
   57.9590   31.3260   43.0150 C   0  0  0  0  0  0  0  0  0  0  0  0
   57.2350   30.3620   43.8350 N   0  0  0  0  0  0  0  0  0  0  0  0
   55.9240   30.4060   44.1440 C   0  0  0  0  0  0  0  0  0  0  0  0
   55.5240   29.3390   44.8660 N   0  0  0  0  0  0  0  0  0  0  0  0
   56.6370   28.5900   45.0060 C   0  0  0  0  0  0  0  0  0  0  0  0
   57.6890   29.2110   44.3670 C   0  0  0  0  0  0  0  0  0  0  0  0
   59.0860   28.6700   44.2430 C   0  0  0  0  0  0  0  0  0  0  0  0
   59.6660   28.4290   45.5630 N   0  0  0  0  0  0  0  0  0  0  0  0
   59.8800   27.1610   46.1880 C   0  0  0  0  0  0  0  0  0  0  0  0
   59.7570   26.0500   45.6080 O   0  0  0  0  0  0  0  0  0  0  0  0
   60.2670   27.3530   47.5790 C   0  0  0  0  0  0  0  0  0  0  0  0
   60.5330   26.4580   48.4230 O   0  0  0  0  0  0  0  0  0  0  0  0
   60.2840   28.7910   47.7840 C   0  0  0  0  0  0  0  0  0  0  0  0
   60.5910   29.5350   48.9210 C   0  0  0  0  0  0  0  0  0  0  0  0
   60.5380   30.9390   48.8330 C   0  0  0  0  0  0  0  0  0  0  0  0
   60.9340   31.9090   50.2510 S   0  0  0  0  0  0  0  0  0  0  0  0
   61.1890   30.9590   51.3880 O   0  0  0  0  0  0  0  0  0  0  0  0
   59.7700   32.7910   50.6060 O   0  0  0  0  0  0  0  0  0  0  0  0
   62.3640   32.8840   49.9370 N   0  0  1  0  0  0  0  0  0  0  0  0
   63.4960   32.0200   49.5660 C   0  0  0  0  0  0  0  0  0  0  0  0
   63.5090   31.9060   48.0440 C   0  0  0  0  0  0  0  0  0  0  0  0
   62.6200   33.0330   47.5400 C   0  0  0  0  0  0  0  0  0  0  0  0
   62.2460   33.8160   48.7950 C   0  0  1  0  0  0  0  0  0  0  0  0
   60.8940   34.5530   48.6730 C   0  0  0  0  0  0  0  0  0  0  0  0
   60.6100   34.8670   47.3080 O   0  0  0  0  0  0  0  0  0  0  0  0
   59.4640   34.4720   46.5990 C   0  0  0  0  0  0  0  0  0  0  0  0
   59.3270   34.6520   45.2060 C   0  0  0  0  0  0  0  0  0  0  0  0
   58.1590   34.2390   44.5560 C   0  0  0  0  0  0  0  0  0  0  0  0
   57.1210   33.6510   45.2830 C   0  0  0  0  0  0  0  0  0  0  0  0
   57.2490   33.4750   46.6620 C   0  0  0  0  0  0  0  0  0  0  0  0
   58.4130   33.8850   47.3160 C   0  0  0  0  0  0  0  0  0  0  0  0
   60.1880   31.5580   47.6100 C   0  0  0  0  0  0  0  0  0  0  0  0
   59.8850   30.7840   46.4770 C   0  0  0  0  0  0  0  0  0  0  0  0
   59.9310   29.3940   46.5900 C   0  0  0  0  0  0  0  0  0  0  0  0
   58.4913   32.0348   43.6663 H   0  0  0  0  0  0  0  0  0  0  0  0
   58.6841   30.7959   42.3800 H   0  0  0  0  0  0  0  0  0  0  0  0
   57.2478   31.8746   42.3800 H   0  0  0  0  0  0  0  0  0  0  0  0
   55.2530   31.2231   43.8405 H   0  0  0  0  0  0  0  0  0  0  0  0
   56.6961   27.6333   45.5456 H   0  0  0  0  0  0  0  0  0  0  0  0
   59.0584   27.7239   43.6826 H   0  0  0  0  0  0  0  0  0  0  0  0
   59.7057   29.4090   43.7141 H   0  0  0  0  0  0  0  0  0  0  0  0
   60.8676   29.0385   49.8628 H   0  0  0  0  0  0  0  0  0  0  0  0
   62.5950   33.4160   50.8090 H   0  0  0  0  0  0  0  0  0  0  0  0
   64.4386   32.4652   49.9170 H   0  0  0  0  0  0  0  0  0  0  0  0
   63.3918   31.0268   50.0273 H   0  0  0  0  0  0  0  0  0  0  0  0
   64.5328   32.0235   47.6592 H   0  0  0  0  0  0  0  0  0  0  0  0
   63.1489   30.9227   47.7071 H   0  0  0  0  0  0  0  0  0  0  0  0
   63.1671   33.6724   46.8316 H   0  0  0  0  0  0  0  0  0  0  0  0
   61.7365   32.6595   47.0016 H   0  0  0  0  0  0  0  0  0  0  0  0
   62.9388   34.6548   48.9577 H   0  0  0  0  0  0  0  0  0  0  0  0
   60.0949   33.9090   49.0690 H   0  0  0  0  0  0  0  0  0  0  0  0
   60.9494   35.4899   49.2468 H   0  0  0  0  0  0  0  0  0  0  0  0
   60.1402   35.1180   44.6301 H   0  0  0  0  0  0  0  0  0  0  0  0
   58.0577   34.3776   43.4695 H   0  0  0  0  0  0  0  0  0  0  0  0
   56.2038   33.3270   44.7694 H   0  0  0  0  0  0  0  0  0  0  0  0
   56.4315   33.0125   47.2346 H   0  0  0  0  0  0  0  0  0  0  0  0
   58.5054   33.7459   48.4032 H   0  0  0  0  0  0  0  0  0  0  0  0
   60.1527   32.6555   47.5454 H   0  0  0  0  0  0  0  0  0  0  0  0
   59.6178   31.2627   45.5233 H   0  0  0  0  0  0  0  0  0  0  0  0
  1  2  1  0
  2  3  1  0
  3  4  2  0
  4  5  1  0
  5  6  2  0
  6  7  1  0
  7  8  1  0
  8  9  1  0
  9 10  2  0
  9 11  1  0
 11 12  2  0
 11 13  1  0
 13 14  2  0
 14 15  1  0
 15 16  1  0
 16 17  2  0
 16 18  2  0
 16 19  1  0
 19 20  1  0
 20 21  1  0
 21 22  1  0
 22 23  1  0
 23 24  1  0
 24 25  1  0
 25 26  1  0
 26 27  2  0
 27 28  1  0
 28 29  2  0
 29 30  1  0
 30 31  2  0
 15 32  2  0
 32 33  1  0
 33 34  2  0
  6  2  1  0
 34  8  1  0
 34 13  1  0
 23 19  1  0
 31 26  1  0
  1 35  1  0
  1 36  1  0
  1 37  1  0
  3 38  1  0
  5 39  1  0
  7 40  1  0
  7 41  1  0
 14 42  1  0
 19 43  1  1
 20 44  1  0
 20 45  1  0
 21 46  1  0
 21 47  1  0
 22 48  1  0
 22 49  1  0
 23 50  1  1
 24 51  1  0
 24 52  1  0
 27 53  1  0
 28 54  1  0
 29 55  1  0
 30 56  1  0
 31 57  1  0
 32 58  1  0
 33 59  1  0
M  CHG  1  19   1
M  END
>  <UniqueID>  (23) 
22

>  <SMILES>  (23) 
Cn1cncc1CN1C(=O)C(=O)c2cc(S(=O)(=O)[N@H+]3CCC[C@H]3COc3ccccc3)ccc21

>  <Energy>  (23) 
129.36241210513802

>  <Genealogy>  (23) 
Cn1cncc1CN1C(=O)C(=O)c2cc(S(=O)(=O)[NH+]3CCCC3COc3ccccc3)ccc21 (protonated)
Cn1cncc1CN1C(=O)C(=O)c2cc(S(=O)(=O)[N@H+]3CCC[C@H]3COc3ccccc3)ccc21 (chirality)
Cn1cncc1CN1C(=O)C(=O)c2cc(S(=O)(=O)[N@H+]3CCC[C@H]3COc3ccccc3)ccc21 (3D coordinates assigned)
Cn1cncc1CN1C(=O)C(=O)c2cc(S(=O)(=O)[N@H+]3CCC[C@H]3COc3ccccc3)ccc21 (nonaromatic ring conformer: 129.36241210513802 kcal/mol)

>  <smiles>  (23) 
Cn1cncc1CN1C(=O)C(=O)c2cc(S(=O)(=O)N3CCCC3COc3ccccc3)ccc21

>  <score_type>  (23) 
oracle

>  <origin>  (23) 
adg

>  <m_score__min__energy>  (23) 
-8.0099999999999998

>  <m_primary>  (23) 
energy

$$$$
23:0
     RDKit          3D

 56 59  0  0  0  0  0  0  0  0999 V2000
   57.4950   32.1640   50.2720 O   0  0  0  0  0  0  0  0  0  0  0  0
   57.1320   31.7430   51.4000 C   0  0  0  0  0  0  0  0  0  0  0  0
   57.2500   32.6620   52.5850 C   0  0  0  0  0  0  0  0  0  0  0  0
   58.4150   32.2780   53.4720 C   0  0  0  0  0  0  0  0  0  0  0  0
   59.4040   33.2560   53.7110 C   0  0  0  0  0  0  0  0  0  0  0  0
   60.5210   32.9690   54.4910 C   0  0  0  0  0  0  0  0  0  0  0  0
   60.6790   31.7010   55.0430 C   0  0  0  0  0  0  0  0  0  0  0  0
   59.7170   30.7160   54.8190 C   0  0  0  0  0  0  0  0  0  0  0  0
   58.5770   30.9790   54.0330 C   0  0  0  0  0  0  0  0  0  0  0  0
   57.6390   29.9010   53.7960 N   0  0  0  0  0  0  0  0  0  0  0  0
   58.3470   28.6100   53.7210 C   0  0  0  0  0  0  0  0  0  0  0  0
   59.3610   28.5860   52.5950 C   0  0  0  0  0  0  0  0  0  0  0  0
   60.4290   27.6730   52.6400 C   0  0  0  0  0  0  0  0  0  0  0  0
   61.3280   27.5850   51.5750 C   0  0  0  0  0  0  0  0  0  0  0  0
   61.1710   28.4010   50.4510 C   0  0  0  0  0  0  0  0  0  0  0  0
   60.1170   29.3270   50.3930 C   0  0  0  0  0  0  0  0  0  0  0  0
   59.9590   30.2090   49.2170 C   0  0  0  0  0  0  0  0  0  0  0  0
   59.4460   29.7490   48.1590 O   0  0  0  0  0  0  0  0  0  0  0  0
   60.3240   31.5970   49.2740 N   0  0  0  0  0  0  0  0  0  0  0  0
   61.3010   32.1290   48.5970 C   0  0  0  0  0  0  0  0  0  0  0  0
   61.0960   33.0720   47.6530 N   0  0  0  0  0  0  0  0  0  0  0  0
   62.2620   33.4330   47.0450 C   0  0  0  0  0  0  0  0  0  0  0  0
   63.3990   32.7650   47.4920 C   0  0  0  0  0  0  0  0  0  0  0  0
   62.9310   31.6900   48.6960 S   0  0  0  0  0  0  0  0  0  0  0  0
   59.2060   29.4030   51.4590 C   0  0  0  0  0  0  0  0  0  0  0  0
   56.5120   30.4510   51.4820 N   0  0  0  0  0  0  0  0  0  0  0  0
   55.0910   30.0720   52.4020 S   0  0  0  0  0  0  0  0  0  0  0  0
   55.1530   30.7870   53.7160 O   0  0  0  0  0  0  0  0  0  0  0  0
   55.0560   28.5920   52.6600 O   0  0  0  0  0  0  0  0  0  0  0  0
   53.6380   30.5310   51.5160 C   0  0  0  0  0  0  0  0  0  0  0  0
   53.1800   29.7470   50.4460 C   0  0  0  0  0  0  0  0  0  0  0  0
   52.0090   30.1000   49.7660 C   0  0  0  0  0  0  0  0  0  0  0  0
   51.2890   31.2370   50.1560 C   0  0  0  0  0  0  0  0  0  0  0  0
   51.7410   32.0220   51.2260 C   0  0  0  0  0  0  0  0  0  0  0  0
   51.0200   33.1500   51.6220 O   0  0  0  0  0  0  0  0  0  0  0  0
   52.9170   31.6710   51.9030 C   0  0  0  0  0  0  0  0  0  0  0  0
   57.3985   33.6910   52.2257 H   0  0  0  0  0  0  0  0  0  0  0  0
   56.3258   32.5827   53.1762 H   0  0  0  0  0  0  0  0  0  0  0  0
   59.2907   34.2594   53.2748 H   0  0  0  0  0  0  0  0  0  0  0  0
   61.2794   33.7451   54.6712 H   0  0  0  0  0  0  0  0  0  0  0  0
   61.5636   31.4754   55.6567 H   0  0  0  0  0  0  0  0  0  0  0  0
   59.8502   29.7183   55.2628 H   0  0  0  0  0  0  0  0  0  0  0  0
   56.9580   29.8820   54.5880 H   0  0  0  0  0  0  0  0  0  0  0  0
   57.0830   30.0480   52.9340 H   0  0  0  0  0  0  0  0  0  0  0  0
   58.8689   28.4348   54.6733 H   0  0  0  0  0  0  0  0  0  0  0  0
   57.6027   27.8239   53.5262 H   0  0  0  0  0  0  0  0  0  0  0  0
   60.5573   27.0243   53.5190 H   0  0  0  0  0  0  0  0  0  0  0  0
   62.1632   26.8706   51.6208 H   0  0  0  0  0  0  0  0  0  0  0  0
   61.8749   28.3175   49.6098 H   0  0  0  0  0  0  0  0  0  0  0  0
   62.3016   34.1987   46.2562 H   0  0  0  0  0  0  0  0  0  0  0  0
   64.4240   32.9147   47.1219 H   0  0  0  0  0  0  0  0  0  0  0  0
   58.3631   30.1078   51.4059 H   0  0  0  0  0  0  0  0  0  0  0  0
   53.7430   28.8526   50.1410 H   0  0  0  0  0  0  0  0  0  0  0  0
   51.6540   29.4852   48.9258 H   0  0  0  0  0  0  0  0  0  0  0  0
   50.3681   31.5140   49.6220 H   0  0  0  0  0  0  0  0  0  0  0  0
   53.2752   32.2900   52.7388 H   0  0  0  0  0  0  0  0  0  0  0  0
  1  2  2  0
  2  3  1  0
  3  4  1  0
  4  5  2  0
  5  6  1  0
  6  7  2  0
  7  8  1  0
  8  9  2  0
  9 10  1  0
 10 11  1  0
 11 12  1  0
 12 13  2  0
 13 14  1  0
 14 15  2  0
 15 16  1  0
 16 17  1  0
 17 18  2  0
 17 19  1  0
 19 20  2  3
 20 21  1  0
 21 22  1  0
 22 23  2  0
 23 24  1  0
 16 25  2  0
  2 26  1  0
 26 27  1  0
 27 28  2  0
 27 29  2  0
 27 30  1  0
 30 31  2  0
 31 32  1  0
 32 33  2  0
 33 34  1  0
 34 35  1  0
 34 36  2  0
  9  4  1  0
 25 12  1  0
 36 30  1  0
 24 20  1  0
  3 37  1  0
  3 38  1  0
  5 39  1  0
  6 40  1  0
  7 41  1  0
  8 42  1  0
 10 43  1  0
 10 44  1  0
 11 45  1  0
 11 46  1  0
 13 47  1  0
 14 48  1  0
 15 49  1  0
 22 50  1  0
 23 51  1  0
 25 52  1  0
 31 53  1  0
 32 54  1  0
 33 55  1  0
 36 56  1  0
M  CHG  4  10   1  21  -1  26  -1  35  -1
M  END
>  <UniqueID>  (24) 
23

>  <SMILES>  (24) 
O=C(Cc1ccccc1[NH2+]Cc1cccc(C(=O)N=c2[n-]ccs2)c1)[N-]S(=O)(=O)c1cccc([O-])c1

>  <Energy>  (24) 
103.45818460526908

>  <Genealogy>  (24) 
O=C(Cc1ccccc1[NH2+]Cc1cccc(C(=O)N=c2[n-]ccs2)c1)[N-]S(=O)(=O)c1cccc([O-])c1 (protonated)
O=C(Cc1ccccc1[NH2+]Cc1cccc(C(=O)N=c2[n-]ccs2)c1)[N-]S(=O)(=O)c1cccc([O-])c1 (3D coordinates assigned)
O=C(Cc1ccccc1[NH2+]Cc1cccc(C(=O)N=c2[n-]ccs2)c1)[N-]S(=O)(=O)c1cccc([O-])c1 (optimized conformer: 103.45818460526908 kcal/mol)

>  <smiles>  (24) 
O=C(Cc1ccccc1NCc1cccc(C(=O)N=c2[nH]ccs2)c1)NS(=O)(=O)c1cccc(O)c1

>  <score_type>  (24) 
oracle

>  <origin>  (24) 
adg

>  <m_score__min__energy>  (24) 
-15.17

>  <m_primary>  (24) 
energy

$$$$
24:0
     RDKit          3D

 40 42  0  0  1  0  0  0  0  0999 V2000
   56.6660   30.1920   42.5000 O   0  0  0  0  0  0  0  0  0  0  0  0
   56.7330   30.1980   44.0030 S   0  0  0  0  0  0  0  0  0  0  0  0
   55.3090   30.1790   44.4940 O   0  0  0  0  0  0  0  0  0  0  0  0
   57.6070   28.7880   44.4790 N   0  0  0  0  0  0  0  0  0  0  0  0
   58.0710   28.5860   45.6290 C   0  0  0  0  0  0  0  0  0  0  0  0
   57.6960   27.9680   46.7250 N   0  0  0  0  0  0  0  0  0  0  0  0
   58.5190   28.0150   47.7130 N   0  0  0  0  0  0  0  0  0  0  0  0
   59.5350   28.4840   47.8650 C   0  0  0  0  0  0  0  0  0  0  0  0
   60.7160   28.7680   48.7320 C   0  0  0  0  0  0  0  0  0  0  0  0
   60.4520   29.8660   49.5330 O   0  0  0  0  0  0  0  0  0  0  0  0
   60.6420   31.1720   49.2250 C   0  0  0  0  0  0  0  0  0  0  0  0
   59.8920   32.2410   49.6440 C   0  0  0  0  0  0  0  0  0  0  0  0
   60.1650   33.5540   49.2710 C   0  0  0  0  0  0  0  0  0  0  0  0
   61.2310   33.8160   48.4420 C   0  0  0  0  0  0  0  0  0  0  0  0
   62.0070   32.7650   48.0000 C   0  0  0  0  0  0  0  0  0  0  0  0
   63.1490   33.1060   47.1050 C   0  0  0  0  0  0  0  0  0  0  0  0
   63.7710   31.9030   46.7710 O   0  0  0  0  0  0  0  0  0  0  0  0
   61.7150   31.4810   48.3840 C   0  0  0  0  0  0  0  0  0  0  0  0
   59.7670   29.2790   46.1210 S   0  0  0  0  0  0  0  0  0  0  0  0
   57.5510   31.6580   44.5610 C   0  0  0  0  0  0  0  0  0  0  0  0
   57.9610   32.6140   43.6450 C   0  0  0  0  0  0  0  0  0  0  0  0
   58.5940   33.7360   44.1290 C   0  0  0  0  0  0  0  0  0  0  0  0
   58.8320   33.9390   45.4840 C   0  0  0  0  0  0  0  0  0  0  0  0
   59.6400   35.3840   46.0410 Cl  0  0  0  0  0  0  0  0  0  0  0  0
   58.4030   32.9570   46.3550 C   0  0  0  0  0  0  0  0  0  0  0  0
   57.7670   31.8190   45.9260 C   0  0  0  0  0  0  0  0  0  0  0  0
   56.7580   27.4550   46.7880 H   0  0  0  0  0  0  0  0  0  0  0  0
   60.9229   27.8935   49.3664 H   0  0  0  0  0  0  0  0  0  0  0  0
   61.5906   28.9797   48.0993 H   0  0  0  0  0  0  0  0  0  0  0  0
   59.0342   32.0519   50.3061 H   0  0  0  0  0  0  0  0  0  0  0  0
   59.5326   34.3764   49.6367 H   0  0  0  0  0  0  0  0  0  0  0  0
   61.4609   34.8474   48.1365 H   0  0  0  0  0  0  0  0  0  0  0  0
   62.7823   33.6077   46.1974 H   0  0  0  0  0  0  0  0  0  0  0  0
   63.8520   33.7891   47.6042 H   0  0  0  0  0  0  0  0  0  0  0  0
   64.7560   32.0000   46.7030 H   0  0  0  0  0  0  0  0  0  0  0  0
   62.3503   30.6620   48.0156 H   0  0  0  0  0  0  0  0  0  0  0  0
   57.7863   32.4803   42.5672 H   0  0  0  0  0  0  0  0  0  0  0  0
   58.9254   34.5040   43.4146 H   0  0  0  0  0  0  0  0  0  0  0  0
   58.5775   33.0919   47.4327 H   0  0  0  0  0  0  0  0  0  0  0  0
   57.4363   31.0534   46.6433 H   0  0  0  0  0  0  0  0  0  0  0  0
  1  2  2  0
  2  3  2  0
  2  4  1  0
  4  5  2  0
  5  6  1  0
  6  7  1  0
  7  8  2  0
  8  9  1  0
  9 10  1  0
 10 11  1  0
 11 12  2  0
 12 13  1  0
 13 14  2  0
 14 15  1  0
 15 16  1  0
 16 17  1  0
 15 18  2  0
  8 19  1  0
  2 20  1  0
 20 21  2  0
 21 22  1  0
 22 23  2  0
 23 24  1  0
 23 25  1  0
 25 26  2  0
 19  5  1  0
 26 20  1  0
 18 11  1  0
  6 27  1  0
  9 28  1  0
  9 29  1  0
 12 30  1  0
 13 31  1  0
 14 32  1  0
 16 33  1  0
 16 34  1  0
 17 35  1  0
 18 36  1  0
 21 37  1  0
 22 38  1  0
 25 39  1  0
 26 40  1  0
M  END
>  <smiles>  (25) 
O=S(=O)(N=c1[nH]nc(COc2cccc(CO)c2)s1)c1ccc(Cl)cc1

>  <score_type>  (25) 
oracle

>  <origin>  (25) 
adg

>  <m_score__min__energy>  (25) 
-9.8000000000000007

>  <m_primary>  (25) 
energy

$$$$
25:0
     RDKit          3D

 56 59  0  0  0  0  0  0  0  0999 V2000
   58.1470   26.9190   43.7540 C   0  0  0  0  0  0  0  0  0  0  0  0
   57.7200   26.4890   44.9430 C   0  0  0  0  0  0  0  0  0  0  0  0
   56.9850   27.3900   45.8980 C   0  0  0  0  0  0  0  0  0  0  0  0
   57.2200   28.8090   45.5690 N   0  0  0  0  0  0  0  0  0  0  0  0
   58.3920   29.4230   45.9240 C   0  0  0  0  0  0  0  0  0  0  0  0
   58.6410   30.7310   45.6080 C   0  0  0  0  0  0  0  0  0  0  0  0
   57.6800   31.4650   44.9190 C   0  0  0  0  0  0  0  0  0  0  0  0
   57.9280   33.2010   44.5350 S   0  0  0  0  0  0  0  0  0  0  0  0
   57.3950   33.8150   46.1730 C   0  0  0  0  0  0  0  0  0  0  0  0
   58.4820   33.6940   47.1970 C   0  0  0  0  0  0  0  0  0  0  0  0
   58.2450   33.0860   48.2770 O   0  0  0  0  0  0  0  0  0  0  0  0
   59.7620   34.2990   46.9630 N   0  0  0  0  0  0  0  0  0  0  0  0
   60.9390   34.0360   47.7490 C   0  0  0  0  0  0  0  0  0  0  0  0
   60.8870   34.2060   49.1390 C   0  0  0  0  0  0  0  0  0  0  0  0
   62.0230   33.9950   49.9240 C   0  0  0  0  0  0  0  0  0  0  0  0
   63.2430   33.6310   49.3290 C   0  0  0  0  0  0  0  0  0  0  0  0
   64.4110   33.4080   50.1420 N   0  0  0  0  0  0  0  0  0  0  0  0
   64.6360   34.2210   51.3420 C   0  0  0  0  0  0  0  0  0  0  0  0
   66.0720   34.0450   51.8410 C   0  0  0  0  0  0  0  0  0  0  0  0
   66.9430   33.9570   50.7340 O   0  0  0  0  0  0  0  0  0  0  0  0
   66.7950   32.7010   50.0900 C   0  0  0  0  0  0  0  0  0  0  0  0
   65.3220   32.2900   49.8560 C   0  0  0  0  0  0  0  0  0  0  0  0
   63.3000   33.4710   47.9360 C   0  0  0  0  0  0  0  0  0  0  0  0
   62.1620   33.6780   47.1510 C   0  0  0  0  0  0  0  0  0  0  0  0
   56.5270   30.8450   44.5550 N   0  0  0  0  0  0  0  0  0  0  0  0
   56.2880   29.5400   44.8660 C   0  0  0  0  0  0  0  0  0  0  0  0
   55.2010   29.0180   44.4990 O   0  0  0  0  0  0  0  0  0  0  0  0
   60.0050   31.1590   46.0030 C   0  0  0  0  0  0  0  0  0  0  0  0
   60.5730   29.9440   46.7560 C   0  0  0  0  0  0  0  0  0  0  0  0
   59.5420   28.8060   46.6400 C   0  0  0  0  0  0  0  0  0  0  0  0
   58.6813   26.2329   43.0804 H   0  0  0  0  0  0  0  0  0  0  0  0
   57.9646   27.9596   43.4475 H   0  0  0  0  0  0  0  0  0  0  0  0
   57.9110   25.4453   45.2334 H   0  0  0  0  0  0  0  0  0  0  0  0
   55.9072   27.1793   45.8349 H   0  0  0  0  0  0  0  0  0  0  0  0
   57.3545   27.1993   46.9164 H   0  0  0  0  0  0  0  0  0  0  0  0
   57.1102   34.8734   46.0804 H   0  0  0  0  0  0  0  0  0  0  0  0
   56.5441   33.2025   46.5058 H   0  0  0  0  0  0  0  0  0  0  0  0
   59.8260   35.0200   46.2100 H   0  0  0  0  0  0  0  0  0  0  0  0
   59.9431   34.5083   49.6162 H   0  0  0  0  0  0  0  0  0  0  0  0
   61.9622   34.1146   51.0158 H   0  0  0  0  0  0  0  0  0  0  0  0
   64.4630   35.2801   51.1005 H   0  0  0  0  0  0  0  0  0  0  0  0
   63.9409   33.8959   52.1301 H   0  0  0  0  0  0  0  0  0  0  0  0
   66.3535   34.9080   52.4623 H   0  0  0  0  0  0  0  0  0  0  0  0
   66.1437   33.1254   52.4403 H   0  0  0  0  0  0  0  0  0  0  0  0
   67.3008   32.7496   49.1144 H   0  0  0  0  0  0  0  0  0  0  0  0
   67.2370   31.9451   50.7558 H   0  0  0  0  0  0  0  0  0  0  0  0
   65.1965   31.9830   48.8072 H   0  0  0  0  0  0  0  0  0  0  0  0
   65.0787   31.4578   50.5330 H   0  0  0  0  0  0  0  0  0  0  0  0
   64.2473   33.1805   47.4582 H   0  0  0  0  0  0  0  0  0  0  0  0
   62.2226   33.5604   46.0590 H   0  0  0  0  0  0  0  0  0  0  0  0
   60.6144   31.3896   45.1167 H   0  0  0  0  0  0  0  0  0  0  0  0
   60.0012   32.0727   46.6155 H   0  0  0  0  0  0  0  0  0  0  0  0
   61.5270   29.6343   46.3044 H   0  0  0  0  0  0  0  0  0  0  0  0
   60.7585   30.1934   47.8112 H   0  0  0  0  0  0  0  0  0  0  0  0
   59.9537   27.9645   46.0636 H   0  0  0  0  0  0  0  0  0  0  0  0
   59.2560   28.3965   47.6201 H   0  0  0  0  0  0  0  0  0  0  0  0
  1  2  2  0
  2  3  1  0
  3  4  1  0
  4  5  1  0
  5  6  2  0
  6  7  1  0
  7  8  1  0
  8  9  1  0
  9 10  1  0
 10 11  2  0
 10 12  1  0
 12 13  1  0
 13 14  2  0
 14 15  1  0
 15 16  2  0
 16 17  1  0
 17 18  1  0
 18 19  1  0
 19 20  1  0
 20 21  1  0
 21 22  1  0
 16 23  1  0
 23 24  2  0
  7 25  2  0
 25 26  1  0
 26 27  2  0
  6 28  1  0
 28 29  1  0
 29 30  1  0
 26  4  1  0
 30  5  1  0
 24 13  1  0
 22 17  1  0
  1 31  1  0
  1 32  1  0
  2 33  1  0
  3 34  1  0
  3 35  1  0
  9 36  1  0
  9 37  1  0
 12 38  1  0
 14 39  1  0
 15 40  1  0
 18 41  1  0
 18 42  1  0
 19 43  1  0
 19 44  1  0
 21 45  1  0
 21 46  1  0
 22 47  1  0
 22 48  1  0
 23 49  1  0
 24 50  1  0
 28 51  1  0
 28 52  1  0
 29 53  1  0
 29 54  1  0
 30 55  1  0
 30 56  1  0
M  END
>  <UniqueID>  (26) 
24

>  <SMILES>  (26) 
C=CCn1c2c(c(SCC(=O)Nc3ccc(N4CCOCC4)cc3)nc1=O)CCC2

>  <Energy>  (26) 
73.69382279818203

>  <Genealogy>  (26) 
C=CCn1c2c(c(SCC(=O)Nc3ccc(N4CCOCC4)cc3)nc1=O)CCC2 (3D coordinates assigned)
C=CCn1c2c(c(SCC(=O)Nc3ccc(N4CCOCC4)cc3)nc1=O)CCC2 (nonaromatic ring conformer: 73.69382279818203 kcal/mol)

>  <smiles>  (26) 
C=CCn1c2c(c(SCC(=O)Nc3ccc(N4CCOCC4)cc3)nc1=O)CCC2

>  <score_type>  (26) 
oracle

>  <origin>  (26) 
adg

>  <m_score__min__energy>  (26) 
-9.0199999999999996

>  <m_primary>  (26) 
energy

$$$$
26:0
     RDKit          3D

 41 44  0  0  0  0  0  0  0  0999 V2000
   59.1990   26.8460   46.0990 C   0  0  0  0  0  0  0  0  0  0  0  0
   57.9030   27.0710   45.8430 C   0  0  0  0  0  0  0  0  0  0  0  0
   57.4110   28.1490   45.1160 C   0  0  0  0  0  0  0  0  0  0  0  0
   58.1880   29.2490   44.4440 C   0  0  0  0  0  0  0  0  0  0  0  0
   58.0340   30.5300   45.2030 C   0  0  0  0  0  0  0  0  0  0  0  0
   57.2320   31.5390   44.8080 N   0  0  0  0  0  0  0  0  0  0  0  0
   57.4120   32.5330   45.7050 C   0  0  0  0  0  0  0  0  0  0  0  0
   56.6550   33.8210   45.6260 C   0  0  0  0  0  0  0  0  0  0  0  0
   58.3490   32.1700   46.6720 C   0  0  0  0  0  0  0  0  0  0  0  0
   58.8550   32.9440   47.8270 C   0  0  0  0  0  0  0  0  0  0  0  0
   58.3930   32.7070   48.9750 O   0  0  0  0  0  0  0  0  0  0  0  0
   59.8940   34.0180   47.6700 C   0  0  0  0  0  0  0  0  0  0  0  0
   60.6990   33.9380   46.3790 C   0  0  0  0  0  0  0  0  0  0  0  0
   59.6330   35.0030   46.5410 C   0  0  0  0  0  0  0  0  0  0  0  0
   58.7300   30.8890   46.3360 C   0  0  0  0  0  0  0  0  0  0  0  0
   59.6610   30.1040   47.0050 O   0  0  0  0  0  0  0  0  0  0  0  0
   56.0420   28.1070   45.2630 C   0  0  0  0  0  0  0  0  0  0  0  0
   55.1530   29.0330   44.7310 O   0  0  0  0  0  0  0  0  0  0  0  0
   55.6480   27.0560   46.0020 N   0  0  0  0  0  0  0  0  0  0  0  0
   56.7750   26.3930   46.3420 C   0  0  0  0  0  0  0  0  0  0  0  0
   56.7050   25.2540   47.0550 C   0  0  0  0  0  0  0  0  0  0  0  0
   55.8500   24.0950   46.7510 C   0  0  0  0  0  0  0  0  0  0  0  0
   54.6800   24.1870   46.0970 N   0  0  0  0  0  0  0  0  0  0  0  0
   54.3160   22.8970   45.9260 C   0  0  0  0  0  0  0  0  0  0  0  0
   53.2450   22.5660   45.3560 O   0  0  0  0  0  0  0  0  0  0  0  0
   55.1960   21.9910   46.4050 N   0  0  0  0  0  0  0  0  0  0  0  0
   56.1700   22.7660   46.9100 C   0  0  0  0  0  0  0  0  0  0  0  0
   57.3350   22.2670   47.4780 O   0  0  0  0  0  0  0  0  0  0  0  0
   59.4990   25.9645   46.6846 H   0  0  0  0  0  0  0  0  0  0  0  0
   59.9628   27.5429   45.7236 H   0  0  0  0  0  0  0  0  0  0  0  0
   59.2523   28.9730   44.4094 H   0  0  0  0  0  0  0  0  0  0  0  0
   57.8023   29.3884   43.4233 H   0  0  0  0  0  0  0  0  0  0  0  0
   56.4417   34.1839   46.6423 H   0  0  0  0  0  0  0  0  0  0  0  0
   57.2577   34.5682   45.0888 H   0  0  0  0  0  0  0  0  0  0  0  0
   55.7090   33.6580   45.0888 H   0  0  0  0  0  0  0  0  0  0  0  0
   60.1351   34.1042   48.7398 H   0  0  0  0  0  0  0  0  0  0  0  0
   61.7622   34.2202   46.3756 H   0  0  0  0  0  0  0  0  0  0  0  0
   60.9054   33.1508   45.6390 H   0  0  0  0  0  0  0  0  0  0  0  0
   59.9232   36.0580   46.6543 H   0  0  0  0  0  0  0  0  0  0  0  0
   58.7462   35.3077   45.9659 H   0  0  0  0  0  0  0  0  0  0  0  0
   57.3453   25.1824   47.9466 H   0  0  0  0  0  0  0  0  0  0  0  0
  1  2  2  0
  2  3  1  0
  3  4  1  0
  4  5  1  0
  5  6  1  0
  6  7  1  0
  7  8  1  0
  7  9  2  0
  9 10  1  0
 10 11  2  0
 10 12  1  0
 12 13  1  0
 13 14  1  0
  9 15  1  0
 15 16  1  0
  3 17  2  0
 17 18  1  0
 17 19  1  0
 19 20  1  0
 20 21  2  3
 21 22  1  0
 22 23  1  0
 23 24  1  0
 24 25  2  0
 24 26  1  0
 26 27  1  0
 27 28  1  0
 20  2  1  0
 27 22  2  0
 15  5  2  0
 14 12  1  0
  1 29  1  0
  1 30  1  0
  4 31  1  0
  4 32  1  0
  8 33  1  0
  8 34  1  0
  8 35  1  0
 12 36  1  0
 13 37  1  0
 13 38  1  0
 14 39  1  0
 14 40  1  0
 21 41  1  0
M  CHG  7   6  -1  16  -1  18  -1  19  -1  23  -1  26  -1  28  -1
M  END
>  <UniqueID>  (27) 
25

>  <SMILES>  (27) 
C=c1c(Cc2[n-]c(C)c(C(=O)C3CC3)c2[O-])c([O-])[n-]c1=Cc1[n-]c(=O)[n-]c1[O-]

>  <Energy>  (27) 
401.71236074306216

>  <Genealogy>  (27) 
C=c1c(Cc2[n-]c(C)c(C(=O)C3CC3)c2[O-])c([O-])[n-]c1=Cc1[n-]c(=O)[n-]c1[O-] (protonated)
C=c1c(Cc2[n-]c(C)c(C(=O)C3CC3)c2[O-])c([O-])[n-]c1=Cc1[n-]c(=O)[n-]c1[O-] (3D coordinates assigned)
C=c1c(Cc2[n-]c(C)c(C(=O)C3CC3)c2[O-])c([O-])[n-]c1=Cc1[n-]c(=O)[n-]c1[O-] (nonaromatic ring conformer: 401.71236074306216 kcal/mol)

>  <smiles>  (27) 
C=c1c(Cc2[nH]c(C)c(C(=O)C3CC3)c2O)c(O)[nH]c1=Cc1[nH]c(=O)[nH]c1O

>  <score_type>  (27) 
oracle

>  <origin>  (27) 
adg

>  <m_score__min__energy>  (27) 
-20.690000000000001

>  <m_primary>  (27) 
energy

$$$$
27:0
     RDKit          3D

 39 41  0  0  0  0  0  0  0  0999 V2000
   58.6540   28.4250   47.8000 O   0  0  0  0  0  0  0  0  0  0  0  0
   58.0730   27.8990   46.8140 C   0  0  0  0  0  0  0  0  0  0  0  0
   58.3790   28.3860   45.4270 C   0  0  0  0  0  0  0  0  0  0  0  0
   57.9510   29.7890   45.2780 N   0  0  0  0  0  0  0  0  0  0  0  0
   58.8220   30.8070   45.5720 C   0  0  0  0  0  0  0  0  0  0  0  0
   60.1200   30.5180   45.9880 O   0  0  0  0  0  0  0  0  0  0  0  0
   58.4170   32.1500   45.4570 C   0  0  0  0  0  0  0  0  0  0  0  0
   59.3580   33.2810   45.8130 C   0  0  0  0  0  0  0  0  0  0  0  0
   59.5310   33.3750   47.3070 C   0  0  0  0  0  0  0  0  0  0  0  0
   58.6860   32.6510   48.1650 C   0  0  0  0  0  0  0  0  0  0  0  0
   58.8670   32.7140   49.5510 C   0  0  0  0  0  0  0  0  0  0  0  0
   59.8930   33.4940   50.0880 C   0  0  0  0  0  0  0  0  0  0  0  0
   60.7400   34.2140   49.2420 C   0  0  0  0  0  0  0  0  0  0  0  0
   60.5630   34.1550   47.8570 C   0  0  0  0  0  0  0  0  0  0  0  0
   57.0960   32.4040   45.0570 C   0  0  0  0  0  0  0  0  0  0  0  0
   56.6720   33.5840   44.9380 O   0  0  0  0  0  0  0  0  0  0  0  0
   56.2600   31.3720   44.7930 N   0  0  0  0  0  0  0  0  0  0  0  0
   56.6650   30.0820   44.9030 C   0  0  0  0  0  0  0  0  0  0  0  0
   55.8370   29.1630   44.6580 O   0  0  0  0  0  0  0  0  0  0  0  0
   57.0140   26.9620   47.0420 N   0  0  0  0  0  0  0  0  0  0  0  0
   56.7750   25.8520   46.3980 C   0  0  0  0  0  0  0  0  0  0  0  0
   57.8210   25.0080   46.1800 N   0  0  0  0  0  0  0  0  0  0  0  0
   57.6840   23.8230   45.5300 C   0  0  0  0  0  0  0  0  0  0  0  0
   56.4350   23.4300   45.0540 C   0  0  0  0  0  0  0  0  0  0  0  0
   55.3420   24.2730   45.2360 C   0  0  0  0  0  0  0  0  0  0  0  0
   55.4960   25.4970   45.8950 C   0  0  0  0  0  0  0  0  0  0  0  0
   54.3960   26.3390   45.9960 O   0  0  0  0  0  0  0  0  0  0  0  0
   59.4618   28.3146   45.2467 H   0  0  0  0  0  0  0  0  0  0  0  0
   57.8372   27.7645   44.6989 H   0  0  0  0  0  0  0  0  0  0  0  0
   60.3370   33.0975   45.3463 H   0  0  0  0  0  0  0  0  0  0  0  0
   58.9327   34.2262   45.4445 H   0  0  0  0  0  0  0  0  0  0  0  0
   57.8791   32.0323   47.7454 H   0  0  0  0  0  0  0  0  0  0  0  0
   58.2002   32.1483   50.2184 H   0  0  0  0  0  0  0  0  0  0  0  0
   60.0345   33.5416   51.1778 H   0  0  0  0  0  0  0  0  0  0  0  0
   61.5476   34.8284   49.6667 H   0  0  0  0  0  0  0  0  0  0  0  0
   61.2341   34.7213   47.1945 H   0  0  0  0  0  0  0  0  0  0  0  0
   58.5592   23.1738   45.3795 H   0  0  0  0  0  0  0  0  0  0  0  0
   56.3138   22.4649   44.5403 H   0  0  0  0  0  0  0  0  0  0  0  0
   54.3523   23.9749   44.8596 H   0  0  0  0  0  0  0  0  0  0  0  0
  1  2  2  0
  2  3  1  0
  3  4  1  0
  4  5  1  0
  5  6  1  0
  5  7  2  0
  7  8  1  0
  8  9  1  0
  9 10  2  0
 10 11  1  0
 11 12  2  0
 12 13  1  0
 13 14  2  0
  7 15  1  0
 15 16  2  0
 15 17  1  0
 17 18  1  0
 18 19  2  0
  2 20  1  0
 20 21  2  3
 21 22  1  0
 22 23  1  0
 23 24  2  0
 24 25  1  0
 25 26  2  0
 26 27  1  0
 18  4  1  0
 26 21  1  0
 14  9  1  0
  3 28  1  0
  3 29  1  0
  8 30  1  0
  8 31  1  0
 10 32  1  0
 11 33  1  0
 12 34  1  0
 13 35  1  0
 14 36  1  0
 23 37  1  0
 24 38  1  0
 25 39  1  0
M  CHG  4   6  -1  17  -1  22  -1  27  -1
M  END
>  <UniqueID>  (28) 
26

>  <SMILES>  (28) 
O=C(Cn1c([O-])c(Cc2ccccc2)c(=O)[n-]c1=O)N=c1[n-]cccc1[O-]

>  <Energy>  (28) 
58.97317691397178

>  <Genealogy>  (28) 
O=C(Cn1c([O-])c(Cc2ccccc2)c(=O)[n-]c1=O)N=c1[n-]cccc1[O-] (protonated)
O=C(Cn1c([O-])c(Cc2ccccc2)c(=O)[n-]c1=O)N=c1[n-]cccc1[O-] (3D coordinates assigned)
O=C(Cn1c([O-])c(Cc2ccccc2)c(=O)[n-]c1=O)N=c1[n-]cccc1[O-] (optimized conformer: 58.97317691397178 kcal/mol)

>  <smiles>  (28) 
O=C(Cn1c(O)c(Cc2ccccc2)c(=O)[nH]c1=O)N=c1[nH]cccc1O

>  <score_type>  (28) 
oracle

>  <origin>  (28) 
adg

>  <m_score__min__energy>  (28) 
-16.5

>  <m_primary>  (28) 
energy

$$$$
28:0
     RDKit          3D

 57 60  0  0  0  0  0  0  0  0999 V2000
   56.1070   26.5880   45.6230 C   0  0  0  0  0  0  0  0  0  0  0  0
   57.6480   26.5200   45.4810 C   0  0  0  0  0  0  0  0  0  0  0  0
   58.0970   25.1280   45.9600 C   0  0  0  0  0  0  0  0  0  0  0  0
   58.6080   25.0330   47.1120 O   0  0  0  0  0  0  0  0  0  0  0  0
   58.0290   23.8770   45.1420 C   0  0  0  0  0  0  0  0  0  0  0  0
   59.0680   22.9340   45.2560 C   0  0  0  0  0  0  0  0  0  0  0  0
   59.0540   21.7590   44.5000 C   0  0  0  0  0  0  0  0  0  0  0  0
   58.0060   21.5100   43.6130 C   0  0  0  0  0  0  0  0  0  0  0  0
   56.9700   22.4350   43.4780 C   0  0  0  0  0  0  0  0  0  0  0  0
   55.9300   22.1740   42.5870 O   0  0  0  0  0  0  0  0  0  0  0  0
   56.9810   23.6160   44.2350 C   0  0  0  0  0  0  0  0  0  0  0  0
   58.3380   27.6720   46.2950 C   0  0  0  0  0  0  0  0  0  0  0  0
   59.0720   28.7130   45.4300 C   0  0  0  0  0  0  0  0  0  0  0  0
   58.2650   29.1830   44.2830 N   0  0  0  0  0  0  0  0  0  0  0  0
   57.2330   30.1710   44.6640 C   0  0  0  0  0  0  0  0  0  0  0  0
   57.8670   31.4110   45.2410 C   0  0  0  0  0  0  0  0  0  0  0  0
   58.1910   32.4890   44.4040 C   0  0  0  0  0  0  0  0  0  0  0  0
   58.8020   33.6300   44.9290 C   0  0  0  0  0  0  0  0  0  0  0  0
   59.0990   33.7020   46.2950 C   0  0  0  0  0  0  0  0  0  0  0  0
   59.9040   35.1580   46.9640 S   0  0  0  0  0  0  0  0  0  0  0  0
   61.3060   34.2160   47.5670 C   0  0  0  0  0  0  0  0  0  0  0  0
   62.2950   33.7790   46.6750 C   0  0  0  0  0  0  0  0  0  0  0  0
   63.3910   33.0520   47.1480 C   0  0  0  0  0  0  0  0  0  0  0  0
   63.5020   32.7580   48.5100 C   0  0  0  0  0  0  0  0  0  0  0  0
   62.5140   33.1900   49.4010 C   0  0  0  0  0  0  0  0  0  0  0  0
   61.4160   33.9170   48.9310 C   0  0  0  0  0  0  0  0  0  0  0  0
   58.7730   32.6320   47.1360 C   0  0  0  0  0  0  0  0  0  0  0  0
   58.1610   31.4900   46.6130 C   0  0  0  0  0  0  0  0  0  0  0  0
   57.7250   28.0880   43.4340 C   0  0  0  0  0  0  0  0  0  0  0  0
   58.0090   26.6730   43.9730 C   0  0  0  0  0  0  0  0  0  0  0  0
   55.8372   26.5999   46.6893 H   0  0  0  0  0  0  0  0  0  0  0  0
   55.7343   27.5035   45.1403 H   0  0  0  0  0  0  0  0  0  0  0  0
   55.6551   25.7089   45.1403 H   0  0  0  0  0  0  0  0  0  0  0  0
   59.9010   23.1245   45.9487 H   0  0  0  0  0  0  0  0  0  0  0  0
   59.8704   21.0292   44.6042 H   0  0  0  0  0  0  0  0  0  0  0  0
   57.9965   20.5838   43.0197 H   0  0  0  0  0  0  0  0  0  0  0  0
   56.0110   22.3880   41.5990 H   0  0  0  0  0  0  0  0  0  0  0  0
   56.1651   24.3448   44.1202 H   0  0  0  0  0  0  0  0  0  0  0  0
   57.5635   28.1932   46.8769 H   0  0  0  0  0  0  0  0  0  0  0  0
   59.1019   27.1950   46.9266 H   0  0  0  0  0  0  0  0  0  0  0  0
   59.3227   29.5788   46.0605 H   0  0  0  0  0  0  0  0  0  0  0  0
   59.9713   28.2277   45.0230 H   0  0  0  0  0  0  0  0  0  0  0  0
   56.6498   30.4454   43.7726 H   0  0  0  0  0  0  0  0  0  0  0  0
   56.5789   29.7220   45.4259 H   0  0  0  0  0  0  0  0  0  0  0  0
   57.9628   32.4355   43.3293 H   0  0  0  0  0  0  0  0  0  0  0  0
   59.0502   34.4734   44.2679 H   0  0  0  0  0  0  0  0  0  0  0  0
   62.2085   34.0082   45.6026 H   0  0  0  0  0  0  0  0  0  0  0  0
   64.1673   32.7107   46.4474 H   0  0  0  0  0  0  0  0  0  0  0  0
   64.3660   32.1871   48.8810 H   0  0  0  0  0  0  0  0  0  0  0  0
   62.6010   32.9575   50.4726 H   0  0  0  0  0  0  0  0  0  0  0  0
   60.6386   34.2541   49.6324 H   0  0  0  0  0  0  0  0  0  0  0  0
   58.9990   32.6901   48.2110 H   0  0  0  0  0  0  0  0  0  0  0  0
   57.9085   30.6502   47.2771 H   0  0  0  0  0  0  0  0  0  0  0  0
   56.6351   28.2159   43.3578 H   0  0  0  0  0  0  0  0  0  0  0  0
   58.2318   28.1633   42.4606 H   0  0  0  0  0  0  0  0  0  0  0  0
   57.4154   25.9502   43.3940 H   0  0  0  0  0  0  0  0  0  0  0  0
   59.0885   26.4886   43.8695 H   0  0  0  0  0  0  0  0  0  0  0  0
  1  2  1  0
  2  3  1  0
  3  4  2  0
  3  5  1  0
  5  6  2  0
  6  7  1  0
  7  8  2  0
  8  9  1  0
  9 10  1  0
  9 11  2  0
  2 12  1  0
 12 13  1  0
 13 14  1  0
 14 15  1  0
 15 16  1  0
 16 17  2  0
 17 18  1  0
 18 19  2  0
 19 20  1  0
 20 21  1  0
 21 22  2  0
 22 23  1  0
 23 24  2  0
 24 25  1  0
 25 26  2  0
 19 27  1  0
 27 28  2  0
 14 29  1  0
 29 30  1  0
 30  2  1  0
 11  5  1  0
 28 16  1  0
 26 21  1  0
  1 31  1  0
  1 32  1  0
  1 33  1  0
  6 34  1  0
  7 35  1  0
  8 36  1  0
 10 37  1  0
 11 38  1  0
 12 39  1  0
 12 40  1  0
 13 41  1  0
 13 42  1  0
 15 43  1  0
 15 44  1  0
 17 45  1  0
 18 46  1  0
 22 47  1  0
 23 48  1  0
 24 49  1  0
 25 50  1  0
 26 51  1  0
 27 52  1  0
 28 53  1  0
 29 54  1  0
 29 55  1  0
 30 56  1  0
 30 57  1  0
M  END
>  <UniqueID>  (29) 
27

>  <SMILES>  (29) 
CC1(C(=O)c2cccc(O)c2)CCN(Cc2ccc(Sc3ccccc3)cc2)CC1

>  <Energy>  (29) 
75.259666501721

>  <Genealogy>  (29) 
CC1(C(=O)c2cccc(O)c2)CCN(Cc2ccc(Sc3ccccc3)cc2)CC1 (3D coordinates assigned)
CC1(C(=O)c2cccc(O)c2)CCN(Cc2ccc(Sc3ccccc3)cc2)CC1 (nonaromatic ring conformer: 75.259666501721 kcal/mol)

>  <smiles>  (29) 
CC1(C(=O)c2cccc(O)c2)CCN(Cc2ccc(Sc3ccccc3)cc2)CC1

>  <score_type>  (29) 
oracle

>  <origin>  (29) 
adg

>  <m_score__min__energy>  (29) 
-10.18

>  <m_primary>  (29) 
energy

$$$$
29:0
     RDKit          3D

 75 78  0  0  0  0  0  0  0  0999 V2000
   57.2470   31.3980   51.6830 C   0  0  0  0  0  0  0  0  0  0  0  0
   58.2840   32.1700   50.9120 C   0  0  0  0  0  0  0  0  0  0  0  0
   58.1210   32.3700   49.5360 C   0  0  0  0  0  0  0  0  0  0  0  0
   59.0780   33.0800   48.7920 C   0  0  0  0  0  0  0  0  0  0  0  0
   60.2270   33.5760   49.4560 C   0  0  0  0  0  0  0  0  0  0  0  0
   60.3540   33.3630   50.7940 N   0  0  0  0  0  0  0  0  0  0  0  0
   59.4410   32.6770   51.5330 C   0  0  0  0  0  0  0  0  0  0  0  0
   59.6910   32.5070   53.0030 C   0  0  0  0  0  0  0  0  0  0  0  0
   61.2920   34.4360   48.8040 C   0  0  0  0  0  0  0  0  0  0  0  0
   62.0220   33.8580   47.5750 C   0  0  0  0  0  0  0  0  0  0  0  0
   61.0990   33.7290   46.3560 C   0  0  0  0  0  0  0  0  0  0  0  0
   59.6920   34.2590   46.6620 C   0  0  0  0  0  0  0  0  0  0  0  0
   58.8650   33.2760   47.3810 N   0  0  0  0  0  0  0  0  0  0  0  0
   58.1680   32.2640   46.6210 C   0  0  0  0  0  0  0  0  0  0  0  0
   57.0710   32.5520   46.0700 O   0  0  0  0  0  0  0  0  0  0  0  0
   58.7250   30.8970   46.4530 C   0  0  0  0  0  0  0  0  0  0  0  0
   59.2750   30.4870   45.2270 C   0  0  0  0  0  0  0  0  0  0  0  0
   59.7990   29.2000   45.0780 C   0  0  0  0  0  0  0  0  0  0  0  0
   59.8040   28.3020   46.1550 C   0  0  0  0  0  0  0  0  0  0  0  0
   60.3780   26.9170   45.9750 C   0  0  0  0  0  0  0  0  0  0  0  0
   59.3060   25.8800   45.8570 N   0  0  1  0  0  0  0  0  0  0  0  0
   58.5050   26.1200   44.6280 C   0  0  0  0  0  0  0  0  0  0  0  0
   57.2330   26.9710   44.8690 C   0  0  0  0  0  0  0  0  0  0  0  0
   56.4440   26.5060   46.0570 C   0  0  0  0  0  0  0  0  0  0  0  0
   57.0360   26.2510   47.1440 O   0  0  0  0  0  0  0  0  0  0  0  0
   55.0340   26.2900   45.9370 N   0  0  0  0  0  0  0  0  0  0  0  0
   54.3640   24.7370   45.5710 S   0  0  0  0  0  0  0  0  0  0  0  0
   55.2050   24.0570   44.1580 C   0  0  0  0  0  0  0  0  0  0  0  0
   54.5450   23.8160   46.7460 O   0  0  0  0  0  0  0  0  0  0  0  0
   52.8990   24.8800   45.2560 O   0  0  0  0  0  0  0  0  0  0  0  0
   59.8810   24.5090   45.8520 C   0  0  0  0  0  0  0  0  0  0  0  0
   58.8340   23.4450   45.6070 C   0  0  0  0  0  0  0  0  0  0  0  0
   57.7460   23.3020   46.4870 C   0  0  0  0  0  0  0  0  0  0  0  0
   56.7840   22.3130   46.2620 C   0  0  0  0  0  0  0  0  0  0  0  0
   56.8900   21.4700   45.1510 C   0  0  0  0  0  0  0  0  0  0  0  0
   55.6690   20.2420   44.8650 Cl  0  0  0  0  0  0  0  0  0  0  0  0
   57.9620   21.6130   44.2640 C   0  0  0  0  0  0  0  0  0  0  0  0
   58.9330   22.5930   44.4930 C   0  0  0  0  0  0  0  0  0  0  0  0
   59.2680   28.7090   47.3850 C   0  0  0  0  0  0  0  0  0  0  0  0
   58.7350   29.9940   47.5330 C   0  0  0  0  0  0  0  0  0  0  0  0
   57.4205   31.5272   52.7615 H   0  0  0  0  0  0  0  0  0  0  0  0
   56.2450   31.7718   51.4254 H   0  0  0  0  0  0  0  0  0  0  0  0
   57.3177   30.3309   51.4254 H   0  0  0  0  0  0  0  0  0  0  0  0
   57.2315   31.9657   49.0306 H   0  0  0  0  0  0  0  0  0  0  0  0
   58.9121   33.0367   53.5711 H   0  0  0  0  0  0  0  0  0  0  0  0
   59.6671   31.4372   53.2577 H   0  0  0  0  0  0  0  0  0  0  0  0
   60.6771   32.9226   53.2577 H   0  0  0  0  0  0  0  0  0  0  0  0
   60.8109   35.3741   48.4901 H   0  0  0  0  0  0  0  0  0  0  0  0
   62.0744   34.5408   49.5701 H   0  0  0  0  0  0  0  0  0  0  0  0
   62.8591   34.5229   47.3159 H   0  0  0  0  0  0  0  0  0  0  0  0
   62.3755   32.8499   47.8373 H   0  0  0  0  0  0  0  0  0  0  0  0
   61.5251   34.3053   45.5216 H   0  0  0  0  0  0  0  0  0  0  0  0
   61.0187   32.6639   46.0931 H   0  0  0  0  0  0  0  0  0  0  0  0
   59.7825   35.1641   47.2806 H   0  0  0  0  0  0  0  0  0  0  0  0
   59.1989   34.4736   45.7024 H   0  0  0  0  0  0  0  0  0  0  0  0
   59.2934   31.1850   44.3770 H   0  0  0  0  0  0  0  0  0  0  0  0
   60.2113   28.8886   44.1069 H   0  0  0  0  0  0  0  0  0  0  0  0
   60.9899   26.9016   45.0610 H   0  0  0  0  0  0  0  0  0  0  0  0
   60.9843   26.6812   46.8620 H   0  0  0  0  0  0  0  0  0  0  0  0
   58.6500   25.9520   46.6700 H   0  0  0  0  0  0  0  0  0  0  0  0
   59.1391   26.6429   43.8970 H   0  0  0  0  0  0  0  0  0  0  0  0
   58.1698   25.1368   44.2661 H   0  0  0  0  0  0  0  0  0  0  0  0
   57.5343   28.0161   45.0334 H   0  0  0  0  0  0  0  0  0  0  0  0
   56.5908   26.8685   43.9819 H   0  0  0  0  0  0  0  0  0  0  0  0
   56.0187   23.3991   44.4972 H   0  0  0  0  0  0  0  0  0  0  0  0
   54.4934   23.4774   43.5517 H   0  0  0  0  0  0  0  0  0  0  0  0
   55.6228   24.8742   43.5517 H   0  0  0  0  0  0  0  0  0  0  0  0
   60.6399   24.4472   45.0581 H   0  0  0  0  0  0  0  0  0  0  0  0
   60.3194   24.3257   46.8441 H   0  0  0  0  0  0  0  0  0  0  0  0
   57.6518   23.9708   47.3553 H   0  0  0  0  0  0  0  0  0  0  0  0
   55.9419   22.1975   46.9602 H   0  0  0  0  0  0  0  0  0  0  0  0
   58.0413   20.9546   43.3863 H   0  0  0  0  0  0  0  0  0  0  0  0
   59.7789   22.6978   43.7977 H   0  0  0  0  0  0  0  0  0  0  0  0
   59.2666   28.0144   48.2380 H   0  0  0  0  0  0  0  0  0  0  0  0
   58.3193   30.3021   48.5037 H   0  0  0  0  0  0  0  0  0  0  0  0
  1  2  1  0
  2  3  2  0
  3  4  1  0
  4  5  2  0
  5  6  1  0
  6  7  2  0
  7  8  1  0
  5  9  1  0
  9 10  1  0
 10 11  1  0
 11 12  1  0
 12 13  1  0
 13 14  1  0
 14 15  2  0
 14 16  1  0
 16 17  2  0
 17 18  1  0
 18 19  2  0
 19 20  1  0
 20 21  1  0
 21 22  1  0
 22 23  1  0
 23 24  1  0
 24 25  2  0
 24 26  1  0
 26 27  1  0
 27 28  1  0
 27 29  2  0
 27 30  2  0
 21 31  1  0
 31 32  1  0
 32 33  2  0
 33 34  1  0
 34 35  2  0
 35 36  1  0
 35 37  1  0
 37 38  2  0
 19 39  1  0
 39 40  2  0
  7  2  1  0
 40 16  1  0
 13  4  1  0
 38 32  1  0
  1 41  1  0
  1 42  1  0
  1 43  1  0
  3 44  1  0
  8 45  1  0
  8 46  1  0
  8 47  1  0
  9 48  1  0
  9 49  1  0
 10 50  1  0
 10 51  1  0
 11 52  1  0
 11 53  1  0
 12 54  1  0
 12 55  1  0
 17 56  1  0
 18 57  1  0
 20 58  1  0
 20 59  1  0
 21 60  1  1
 22 61  1  0
 22 62  1  0
 23 63  1  0
 23 64  1  0
 28 65  1  0
 28 66  1  0
 28 67  1  0
 31 68  1  0
 31 69  1  0
 33 70  1  0
 34 71  1  0
 37 72  1  0
 38 73  1  0
 39 74  1  0
 40 75  1  0
M  CHG  2  21   1  26  -1
M  END
>  <UniqueID>  (30) 
28

>  <SMILES>  (30) 
Cc1cc2c(nc1C)CCCCN2C(=O)c1ccc(C[N@@H+](CCC(=O)[N-]S(C)(=O)=O)Cc2ccc(Cl)cc2)cc1

>  <Energy>  (30) 
94.72658568960041

>  <Genealogy>  (30) 
Cc1cc2c(nc1C)CCCCN2C(=O)c1ccc(C[NH+](CCC(=O)[N-]S(C)(=O)=O)Cc2ccc(Cl)cc2)cc1 (protonated)
Cc1cc2c(nc1C)CCCCN2C(=O)c1ccc(C[N@@H+](CCC(=O)[N-]S(C)(=O)=O)Cc2ccc(Cl)cc2)cc1 (chirality)
Cc1cc2c(nc1C)CCCCN2C(=O)c1ccc(C[N@@H+](CCC(=O)[N-]S(C)(=O)=O)Cc2ccc(Cl)cc2)cc1 (3D coordinates assigned)
Cc1cc2c(nc1C)CCCCN2C(=O)c1ccc(C[N@@H+](CCC(=O)[N-]S(C)(=O)=O)Cc2ccc(Cl)cc2)cc1 (nonaromatic ring conformer: 94.72658568960041 kcal/mol)

>  <smiles>  (30) 
Cc1cc2c(nc1C)CCCCN2C(=O)c1ccc(CN(CCC(=O)NS(C)(=O)=O)Cc2ccc(Cl)cc2)cc1

>  <score_type>  (30) 
oracle

>  <origin>  (30) 
adg

>  <m_score__min__energy>  (30) 
-8.0899999999999999

>  <m_primary>  (30) 
energy

$$$$
30:0
     RDKit          3D

 31 32  0  0  0  0  0  0  0  0999 V2000
   58.5458   21.2645   43.2721 H   0  0  0  0  0  0  0  0  0  0  0  0
   57.4520   21.2340   43.3850 C   0  0  0  0  0  0  0  0  0  0  0  0
   56.8639   20.4791   42.8425 H   0  0  0  0  0  0  0  0  0  0  0  0
   56.8370   22.1150   44.1820 C   0  0  0  0  0  0  0  0  0  0  0  0
   55.4850   22.0510   44.3000 N   0  0  0  0  0  0  0  0  0  0  0  0
   54.8030   22.9220   45.0830 C   0  0  0  0  0  0  0  0  0  0  0  0
   53.5500   22.8450   45.1630 O   0  0  0  0  0  0  0  0  0  0  0  0
   55.4690   23.8740   45.7800 N   0  0  0  0  0  0  0  0  0  0  0  0
   56.8240   23.9920   45.7310 C   0  0  0  0  0  0  0  0  0  0  0  0
   57.3840   24.9690   46.4760 C   0  0  0  0  0  0  0  0  0  0  0  0
   57.8554   24.6649   47.4222 H   0  0  0  0  0  0  0  0  0  0  0  0
   57.4240   26.4060   46.1420 C   0  0  0  0  0  0  0  0  0  0  0  0
   58.5630   27.1770   46.4210 C   0  0  0  0  0  0  0  0  0  0  0  0
   59.4537   26.7001   46.8560 H   0  0  0  0  0  0  0  0  0  0  0  0
   58.5710   28.5470   46.1490 C   0  0  0  0  0  0  0  0  0  0  0  0
   59.4754   29.1396   46.3513 H   0  0  0  0  0  0  0  0  0  0  0  0
   57.4270   29.1740   45.6170 C   0  0  0  0  0  0  0  0  0  0  0  0
   57.3850   30.5480   45.3210 O   0  0  0  0  0  0  0  0  0  0  0  0
   57.8090   31.1500   44.0980 C   0  0  0  0  0  0  0  0  0  0  0  0
   57.7721   32.2444   44.2030 H   0  0  0  0  0  0  0  0  0  0  0  0
   58.8357   30.8205   43.8804 H   0  0  0  0  0  0  0  0  0  0  0  0
   56.9060   30.7280   42.9450 C   0  0  0  0  0  0  0  0  0  0  0  0
   55.9780   30.2943   43.3459 H   0  0  0  0  0  0  0  0  0  0  0  0
   56.6639   31.6062   42.3285 H   0  0  0  0  0  0  0  0  0  0  0  0
   57.4244   29.9789   42.3285 H   0  0  0  0  0  0  0  0  0  0  0  0
   56.2840   28.4040   45.3650 C   0  0  0  0  0  0  0  0  0  0  0  0
   55.1410   29.0030   44.8460 O   0  0  0  0  0  0  0  0  0  0  0  0
   56.2780   27.0310   45.6370 C   0  0  0  0  0  0  0  0  0  0  0  0
   55.3684   26.4404   45.4530 H   0  0  0  0  0  0  0  0  0  0  0  0
   57.5490   23.1070   44.8890 C   0  0  0  0  0  0  0  0  0  0  0  0
   58.7980   23.2160   44.7390 O   0  0  0  0  0  0  0  0  0  0  0  0
  1  2  1  0
  2  3  1  0
  2  4  2  0
  4  5  1  0
  5  6  1  0
  6  7  2  0
  6  8  1  0
  8  9  1  0
  9 10  2  0
 10 11  1  0
 10 12  1  0
 12 13  2  0
 13 14  1  0
 13 15  1  0
 15 16  1  0
 15 17  2  0
 17 18  1  0
 18 19  1  0
 19 20  1  0
 19 21  1  0
 19 22  1  0
 22 23  1  0
 22 24  1  0
 22 25  1  0
 17 26  1  0
 26 27  1  0
 26 28  2  0
 28 29  1  0
  9 30  1  0
 30 31  2  0
 30  4  1  0
 28 12  1  0
M  CHG  3   5  -1   8  -1  27  -1
M  END
>  <UniqueID>  (31) 
29

>  <SMILES>  (31) 
C=c1[n-]c(=O)[n-]/c(=C/c2ccc(OCC)c([O-])c2)c1=O

>  <Energy>  (31) 
44.50387417507091

>  <Genealogy>  (31) 
C=c1[n-]c(=O)[n-]c(=Cc2ccc(OCC)c([O-])c2)c1=O (protonated)
C=c1[n-]c(=O)[n-]/c(=C/c2ccc(OCC)c([O-])c2)c1=O (cis-trans isomerization)
C=c1[n-]c(=O)[n-]/c(=C/c2ccc(OCC)c([O-])c2)c1=O (3D coordinates assigned)
C=c1[n-]c(=O)[n-]/c(=C/c2ccc(OCC)c([O-])c2)c1=O (optimized conformer: 44.50387417507091 kcal/mol)

>  <smiles>  (31) 
C=c1[nH]c(=O)[nH]c(=Cc2ccc(OCC)c(O)c2)c1=O

>  <score_type>  (31) 
oracle

>  <origin>  (31) 
adg

>  <m_score__min__energy>  (31) 
-12.890000000000001

>  <m_primary>  (31) 
energy

$$$$
31:0
     RDKit          3D

 32 33  0  0  0  0  0  0  0  0999 V2000
   61.1520   34.1390   46.3710 C   0  0  0  0  0  0  0  0  0  0  0  0
   59.9540   34.9270   45.9670 C   0  0  0  0  0  0  0  0  0  0  0  0
   59.6060   35.9240   46.6540 O   0  0  0  0  0  0  0  0  0  0  0  0
   59.1710   34.4810   44.8930 O   0  0  0  0  0  0  0  0  0  0  0  0
   58.5620   33.2200   44.8020 C   0  0  0  0  0  0  0  0  0  0  0  0
   57.9900   32.7480   43.6100 C   0  0  0  0  0  0  0  0  0  0  0  0
   57.3990   31.4830   43.5640 C   0  0  0  0  0  0  0  0  0  0  0  0
   57.3700   30.6620   44.7040 C   0  0  0  0  0  0  0  0  0  0  0  0
   56.7030   29.3390   44.6150 C   0  0  0  0  0  0  0  0  0  0  0  0
   55.4560   29.2720   44.7870 O   0  0  0  0  0  0  0  0  0  0  0  0
   57.4610   28.0600   44.3650 C   0  0  0  0  0  0  0  0  0  0  0  0
   57.9290   27.4340   45.6490 C   0  0  0  0  0  0  0  0  0  0  0  0
   58.8020   28.0290   46.3360 O   0  0  0  0  0  0  0  0  0  0  0  0
   57.3760   26.1480   46.1220 C   0  0  0  0  0  0  0  0  0  0  0  0
   58.2800   24.7930   46.5700 S   0  0  0  0  0  0  0  0  0  0  0  0
   56.9130   23.8860   46.9290 C   0  0  0  0  0  0  0  0  0  0  0  0
   56.9370   22.6990   47.3430 O   0  0  0  0  0  0  0  0  0  0  0  0
   55.7680   24.5710   46.7230 N   0  0  0  0  0  0  0  0  0  0  0  0
   56.0240   25.8280   46.2750 C   0  0  0  0  0  0  0  0  0  0  0  0
   54.9960   26.7180   45.9910 O   0  0  0  0  0  0  0  0  0  0  0  0
   57.9820   31.1190   45.8910 C   0  0  0  0  0  0  0  0  0  0  0  0
   58.0330   30.3090   47.0240 O   0  0  0  0  0  0  0  0  0  0  0  0
   58.5690   32.3930   45.9280 C   0  0  0  0  0  0  0  0  0  0  0  0
   61.2119   34.0996   47.4687 H   0  0  0  0  0  0  0  0  0  0  0  0
   61.0708   33.1174   45.9713 H   0  0  0  0  0  0  0  0  0  0  0  0
   62.0579   34.6181   45.9713 H   0  0  0  0  0  0  0  0  0  0  0  0
   58.0072   33.3772   42.7079 H   0  0  0  0  0  0  0  0  0  0  0  0
   56.9514   31.1257   42.6249 H   0  0  0  0  0  0  0  0  0  0  0  0
   56.8024   27.3512   43.8416 H   0  0  0  0  0  0  0  0  0  0  0  0
   58.3455   28.2978   43.7558 H   0  0  0  0  0  0  0  0  0  0  0  0
   57.9700   29.2990   46.9600 H   0  0  0  0  0  0  0  0  0  0  0  0
   59.0414   32.7456   46.8567 H   0  0  0  0  0  0  0  0  0  0  0  0
  1  2  1  0
  2  3  2  0
  2  4  1  0
  4  5  1  0
  5  6  2  0
  6  7  1  0
  7  8  2  0
  8  9  1  0
  9 10  2  0
  9 11  1  0
 11 12  1  0
 12 13  2  0
 12 14  1  0
 14 15  1  0
 15 16  1  0
 16 17  2  0
 16 18  1  0
 18 19  1  0
 19 20  1  0
  8 21  1  0
 21 22  1  0
 21 23  2  0
 23  5  1  0
 19 14  2  0
  1 24  1  0
  1 25  1  0
  1 26  1  0
  6 27  1  0
  7 28  1  0
 11 29  1  0
 11 30  1  0
 22 31  1  0
 23 32  1  0
M  CHG  2  18  -1  20  -1
M  END
>  <UniqueID>  (32) 
30

>  <SMILES>  (32) 
CC(=O)Oc1ccc(C(=O)CC(=O)c2sc(=O)[n-]c2[O-])c(O)c1

>  <Energy>  (32) 
69.18748421777781

>  <Genealogy>  (32) 
CC(=O)Oc1ccc(C(=O)CC(=O)c2sc(=O)[n-]c2[O-])c(O)c1 (protonated)
CC(=O)Oc1ccc(C(=O)CC(=O)c2sc(=O)[n-]c2[O-])c(O)c1 (3D coordinates assigned)
CC(=O)Oc1ccc(C(=O)CC(=O)c2sc(=O)[n-]c2[O-])c(O)c1 (optimized conformer: 69.18748421777781 kcal/mol)

>  <smiles>  (32) 
CC(=O)Oc1ccc(C(=O)CC(=O)c2sc(=O)[nH]c2O)c(O)c1

>  <score_type>  (32) 
oracle

>  <origin>  (32) 
adg

>  <m_score__min__energy>  (32) 
-14.050000000000001

>  <m_primary>  (32) 
energy

$$$$
32:0
     RDKit          3D

 52 55  0  0  0  0  0  0  0  0999 V2000
   59.6470   36.0840   46.3150 N   0  0  0  0  0  0  0  0  0  0  0  0
   59.2250   34.7260   46.1410 C   0  0  0  0  0  0  0  0  0  0  0  0
   58.8490   34.2800   44.8670 C   0  0  0  0  0  0  0  0  0  0  0  0
   58.4400   32.9600   44.6690 C   0  0  0  0  0  0  0  0  0  0  0  0
   58.3830   32.0620   45.7480 C   0  0  0  0  0  0  0  0  0  0  0  0
   57.9430   30.6600   45.5400 C   0  0  0  0  0  0  0  0  0  0  0  0
   57.0770   30.3300   44.4800 C   0  0  0  0  0  0  0  0  0  0  0  0
   56.6600   29.0090   44.2900 C   0  0  0  0  0  0  0  0  0  0  0  0
   57.1000   28.0040   45.1550 C   0  0  0  0  0  0  0  0  0  0  0  0
   57.9590   28.3180   46.2100 C   0  0  0  0  0  0  0  0  0  0  0  0
   58.3800   29.6370   46.4040 C   0  0  0  0  0  0  0  0  0  0  0  0
   58.7520   32.5120   47.0270 C   0  0  0  0  0  0  0  0  0  0  0  0
   59.1990   33.8310   47.2280 C   0  0  0  0  0  0  0  0  0  0  0  0
   59.5870   34.2870   48.5340 N   0  0  0  0  0  0  0  0  0  0  0  0
   60.0530   33.4660   49.6150 C   0  0  0  0  0  0  0  0  0  0  0  0
   61.2720   33.5210   49.9300 O   0  0  0  0  0  0  0  0  0  0  0  0
   59.1600   32.5270   50.3320 C   0  0  0  0  0  0  0  0  0  0  0  0
   58.2290   33.0130   51.2660 C   0  0  0  0  0  0  0  0  0  0  0  0
   57.3770   32.1340   51.9410 C   0  0  0  0  0  0  0  0  0  0  0  0
   57.4450   30.7540   51.6970 C   0  0  0  0  0  0  0  0  0  0  0  0
   56.5650   29.7960   52.4530 C   0  0  0  0  0  0  0  0  0  0  0  0
   55.2540   29.7270   51.8190 N   0  0  0  0  0  0  0  0  0  0  0  0
   54.3650   30.8430   51.7310 C   0  0  0  0  0  0  0  0  0  0  0  0
   54.6290   31.9200   52.3320 O   0  0  0  0  0  0  0  0  0  0  0  0
   53.0720   30.6970   50.9990 C   0  0  0  0  0  0  0  0  0  0  0  0
   52.0030   31.4480   51.7300 C   0  0  0  0  0  0  0  0  0  0  0  0
   51.7180   31.2780   53.0330 N   0  0  0  0  0  0  0  0  0  0  0  0
   50.6380   32.0690   53.2210 C   0  0  0  0  0  0  0  0  0  0  0  0
   50.0700   32.1850   54.3370 O   0  0  0  0  0  0  0  0  0  0  0  0
   50.2120   32.7180   52.1160 N   0  0  0  0  0  0  0  0  0  0  0  0
   51.0820   32.3090   51.1800 C   0  0  0  0  0  0  0  0  0  0  0  0
   51.0280   32.7010   49.8490 O   0  0  0  0  0  0  0  0  0  0  0  0
   58.3860   30.2640   50.7790 C   0  0  0  0  0  0  0  0  0  0  0  0
   59.2410   31.1410   50.1060 C   0  0  0  0  0  0  0  0  0  0  0  0
   59.6050   36.5360   47.2560 H   0  0  0  0  0  0  0  0  0  0  0  0
   60.0020   36.6540   45.5160 H   0  0  0  0  0  0  0  0  0  0  0  0
   58.8763   34.9759   44.0156 H   0  0  0  0  0  0  0  0  0  0  0  0
   58.1603   32.6205   43.6608 H   0  0  0  0  0  0  0  0  0  0  0  0
   56.7260   31.1171   43.7964 H   0  0  0  0  0  0  0  0  0  0  0  0
   55.9844   28.7607   43.4582 H   0  0  0  0  0  0  0  0  0  0  0  0
   56.7698   26.9655   45.0049 H   0  0  0  0  0  0  0  0  0  0  0  0
   58.3053   27.5258   46.8901 H   0  0  0  0  0  0  0  0  0  0  0  0
   59.0570   29.8775   47.2369 H   0  0  0  0  0  0  0  0  0  0  0  0
   58.6906   31.8237   47.8829 H   0  0  0  0  0  0  0  0  0  0  0  0
   58.1703   34.0928   51.4673 H   0  0  0  0  0  0  0  0  0  0  0  0
   56.6497   32.5262   52.6671 H   0  0  0  0  0  0  0  0  0  0  0  0
   57.0253   28.7970   52.4503 H   0  0  0  0  0  0  0  0  0  0  0  0
   56.4502   30.1474   53.4890 H   0  0  0  0  0  0  0  0  0  0  0  0
   53.1772   31.1036   49.9823 H   0  0  0  0  0  0  0  0  0  0  0  0
   52.8001   29.6328   50.9393 H   0  0  0  0  0  0  0  0  0  0  0  0
   58.4512   29.1827   50.5878 H   0  0  0  0  0  0  0  0  0  0  0  0
   59.9816   30.7452   49.3955 H   0  0  0  0  0  0  0  0  0  0  0  0
  1  2  1  0
  2  3  2  0
  3  4  1  0
  4  5  2  0
  5  6  1  0
  6  7  2  0
  7  8  1  0
  8  9  2  0
  9 10  1  0
 10 11  2  0
  5 12  1  0
 12 13  2  0
 13 14  1  0
 14 15  1  0
 15 16  2  0
 15 17  1  0
 17 18  2  0
 18 19  1  0
 19 20  2  0
 20 21  1  0
 21 22  1  0
 22 23  1  0
 23 24  2  0
 23 25  1  0
 25 26  1  0
 26 27  1  0
 27 28  1  0
 28 29  2  0
 28 30  1  0
 30 31  1  0
 31 32  1  0
 20 33  1  0
 33 34  2  0
 13  2  1  0
 34 17  1  0
 11  6  1  0
 31 26  2  0
  1 35  1  0
  1 36  1  0
  3 37  1  0
  4 38  1  0
  7 39  1  0
  8 40  1  0
  9 41  1  0
 10 42  1  0
 11 43  1  0
 12 44  1  0
 18 45  1  0
 19 46  1  0
 21 47  1  0
 21 48  1  0
 25 49  1  0
 25 50  1  0
 33 51  1  0
 34 52  1  0
M  CHG  5  14  -1  22  -1  27  -1  30  -1  32  -1
M  END
>  <UniqueID>  (33) 
31

>  <SMILES>  (33) 
Nc1ccc(-c2ccccc2)cc1[N-]C(=O)c1ccc(C[N-]C(=O)Cc2[n-]c(=O)[n-]c2[O-])cc1

>  <Energy>  (33) 
91.8689528196528

>  <Genealogy>  (33) 
Nc1ccc(-c2ccccc2)cc1[N-]C(=O)c1ccc(C[N-]C(=O)Cc2[n-]c(=O)[n-]c2[O-])cc1 (protonated)
Nc1ccc(-c2ccccc2)cc1[N-]C(=O)c1ccc(C[N-]C(=O)Cc2[n-]c(=O)[n-]c2[O-])cc1 (3D coordinates assigned)
Nc1ccc(-c2ccccc2)cc1[N-]C(=O)c1ccc(C[N-]C(=O)Cc2[n-]c(=O)[n-]c2[O-])cc1 (optimized conformer: 91.8689528196528 kcal/mol)

>  <smiles>  (33) 
Nc1ccc(-c2ccccc2)cc1NC(=O)c1ccc(CNC(=O)Cc2[nH]c(=O)[nH]c2O)cc1

>  <score_type>  (33) 
oracle

>  <origin>  (33) 
adg

>  <m_score__min__energy>  (33) 
-21.02

>  <m_primary>  (33) 
energy

$$$$
33:0
     RDKit          3D

 34 35  0  0  1  0  0  0  0  0999 V2000
   56.8770   30.8850   42.9670 N   0  0  0  0  0  0  0  0  0  0  0  0
   56.7010   29.9300   43.8380 C   0  0  0  0  0  0  0  0  0  0  0  0
   57.6920   29.1370   44.2590 N   0  0  0  0  0  0  0  0  0  0  0  0
   57.1730   28.2560   45.1580 C   0  0  0  0  0  0  0  0  0  0  0  0
   58.1640   27.0450   45.9780 S   0  0  0  0  0  0  0  0  0  0  0  0
   57.1700   25.8070   46.8140 C   0  0  0  0  0  0  0  0  0  0  0  0
   56.1510   25.2680   45.8420 C   0  0  1  0  0  0  0  0  0  0  0  0
   55.0280   26.0670   45.8750 O   0  0  0  0  0  0  0  0  0  0  0  0
   56.6720   25.2170   44.4350 C   0  0  0  0  0  0  0  0  0  0  0  0
   56.9070   23.8620   43.9100 C   0  0  0  0  0  0  0  0  0  0  0  0
   56.9630   22.7590   44.6230 C   0  0  0  0  0  0  0  0  0  0  0  0
   57.2520   21.2140   43.8460 S   0  0  0  0  0  0  0  0  0  0  0  0
   56.9760   19.9850   45.0200 N   0  0  0  0  0  0  0  0  0  0  0  0
   56.2910   21.0310   42.7140 O   0  0  0  0  0  0  0  0  0  0  0  0
   58.6440   21.1600   43.2880 O   0  0  0  0  0  0  0  0  0  0  0  0
   56.7770   22.8530   46.0940 C   0  0  0  0  0  0  0  0  0  0  0  0
   55.7450   23.9150   46.3670 C   0  0  0  0  0  0  0  0  0  0  0  0
   55.8710   28.5590   45.2420 N   0  0  0  0  0  0  0  0  0  0  0  0
   55.5630   29.5740   44.4480 N   0  0  0  0  0  0  0  0  0  0  0  0
   56.9770   31.8580   43.3390 H   0  0  0  0  0  0  0  0  0  0  0  0
   57.8160   24.9887   47.1647 H   0  0  0  0  0  0  0  0  0  0  0  0
   56.6612   26.2567   47.6794 H   0  0  0  0  0  0  0  0  0  0  0  0
   54.7750   26.3450   46.7790 H   0  0  0  0  0  0  0  0  0  0  0  0
   55.9404   25.7146   43.7814 H   0  0  0  0  0  0  0  0  0  0  0  0
   57.6521   25.7162   44.4506 H   0  0  0  0  0  0  0  0  0  0  0  0
   57.0484   23.7636   42.8236 H   0  0  0  0  0  0  0  0  0  0  0  0
   57.7160   19.2740   44.9740 H   0  0  0  0  0  0  0  0  0  0  0  0
   56.0120   19.6290   45.0100 H   0  0  0  0  0  0  0  0  0  0  0  0
   56.4310   21.8863   46.4888 H   0  0  0  0  0  0  0  0  0  0  0  0
   57.7280   23.1104   46.5832 H   0  0  0  0  0  0  0  0  0  0  0  0
   54.8005   23.6199   45.8866 H   0  0  0  0  0  0  0  0  0  0  0  0
   55.6364   24.0006   47.4583 H   0  0  0  0  0  0  0  0  0  0  0  0
   55.1540   28.0840   45.8210 H   0  0  0  0  0  0  0  0  0  0  0  0
   54.6380   30.0100   44.3170 H   0  0  0  0  0  0  0  0  0  0  0  0
  1  2  2  3
  2  3  1  0
  3  4  2  0
  4  5  1  0
  5  6  1  0
  6  7  1  0
  7  8  1  6
  7  9  1  0
  9 10  1  0
 10 11  2  0
 11 12  1  0
 12 13  1  0
 12 14  2  0
 12 15  2  0
 11 16  1  0
 16 17  1  0
  4 18  1  0
 18 19  1  0
 19  2  1  0
 17  7  1  0
  1 20  1  0
  6 21  1  0
  6 22  1  0
  8 23  1  0
  9 24  1  0
  9 25  1  0
 10 26  1  0
 13 27  1  0
 13 28  1  0
 16 29  1  0
 16 30  1  0
 17 31  1  0
 17 32  1  0
 18 33  1  0
 19 34  1  0
M  END
>  <smiles>  (34) 
N=c1nc(SCC2(O)CC=C(S(N)(=O)=O)CC2)[nH][nH]1

>  <score_type>  (34) 
oracle

>  <origin>  (34) 
adg

>  <m_score__min__energy>  (34) 
-8.6500000000000004

>  <m_primary>  (34) 
energy

$$$$
34:0
     RDKit          3D

 47 50  0  0  0  0  0  0  0  0999 V2000
   59.0800   29.0230   49.5020 O   0  0  0  0  0  0  0  0  0  0  0  0
   58.8980   29.9780   48.7010 C   0  0  0  0  0  0  0  0  0  0  0  0
   58.6330   31.3090   49.1730 N   0  0  0  0  0  0  0  0  0  0  0  0
   58.3270   31.7180   50.3750 C   0  0  0  0  0  0  0  0  0  0  0  0
   57.4310   31.0360   51.2250 C   0  0  0  0  0  0  0  0  0  0  0  0
   57.1590   31.5520   52.4950 C   0  0  0  0  0  0  0  0  0  0  0  0
   57.7460   32.7060   52.9090 N   0  0  0  0  0  0  0  0  0  0  0  0
   58.5980   33.3940   52.1040 C   0  0  0  0  0  0  0  0  0  0  0  0
   58.8970   32.9160   50.8250 C   0  0  0  0  0  0  0  0  0  0  0  0
   59.0530   29.7530   47.2590 C   0  0  0  0  0  0  0  0  0  0  0  0
   60.1760   30.0450   46.5050 C   0  0  0  0  0  0  0  0  0  0  0  0
   59.8650   29.6770   45.2130 C   0  0  0  0  0  0  0  0  0  0  0  0
   58.5740   29.1850   45.2650 C   0  0  0  0  0  0  0  0  0  0  0  0
   57.7770   28.6950   44.0980 C   0  0  0  0  0  0  0  0  0  0  0  0
   56.3010   29.7370   43.8340 S   0  0  0  0  0  0  0  0  0  0  0  0
   57.1070   31.2570   44.3300 C   0  0  0  0  0  0  0  0  0  0  0  0
   57.0210   31.6770   45.6180 N   0  0  0  0  0  0  0  0  0  0  0  0
   57.6600   32.7990   46.0350 C   0  0  0  0  0  0  0  0  0  0  0  0
   57.5670   33.1510   47.2420 O   0  0  0  0  0  0  0  0  0  0  0  0
   58.4250   33.5490   45.1230 C   0  0  0  0  0  0  0  0  0  0  0  0
   59.2180   34.7560   45.5560 C   0  0  0  0  0  0  0  0  0  0  0  0
   60.2500   34.3600   46.5770 C   0  0  0  0  0  0  0  0  0  0  0  0
   61.4810   33.8150   46.1740 C   0  0  0  0  0  0  0  0  0  0  0  0
   62.4520   33.4840   47.1240 C   0  0  0  0  0  0  0  0  0  0  0  0
   62.2050   33.7030   48.4830 C   0  0  0  0  0  0  0  0  0  0  0  0
   60.9870   34.2540   48.8920 C   0  0  0  0  0  0  0  0  0  0  0  0
   60.0130   34.5830   47.9440 C   0  0  0  0  0  0  0  0  0  0  0  0
   58.4940   33.0940   43.7990 C   0  0  0  0  0  0  0  0  0  0  0  0
   57.8370   31.9650   43.4300 N   0  0  0  0  0  0  0  0  0  0  0  0
   58.1160   29.2420   46.4950 O   0  0  0  0  0  0  0  0  0  0  0  0
   56.9500   30.1050   50.8906 H   0  0  0  0  0  0  0  0  0  0  0  0
   56.4656   31.0210   53.1637 H   0  0  0  0  0  0  0  0  0  0  0  0
   57.5310   33.0760   53.8610 H   0  0  0  0  0  0  0  0  0  0  0  0
   59.0536   34.3298   52.4601 H   0  0  0  0  0  0  0  0  0  0  0  0
   59.5794   33.4801   50.1722 H   0  0  0  0  0  0  0  0  0  0  0  0
   61.1209   30.4804   46.8622 H   0  0  0  0  0  0  0  0  0  0  0  0
   60.5099   29.7580   44.3256 H   0  0  0  0  0  0  0  0  0  0  0  0
   58.4048   28.7244   43.1952 H   0  0  0  0  0  0  0  0  0  0  0  0
   57.4484   27.6656   44.3040 H   0  0  0  0  0  0  0  0  0  0  0  0
   59.7214   35.1932   44.6811 H   0  0  0  0  0  0  0  0  0  0  0  0
   58.5348   35.4932   46.0030 H   0  0  0  0  0  0  0  0  0  0  0  0
   61.6817   33.6479   45.1055 H   0  0  0  0  0  0  0  0  0  0  0  0
   63.4107   33.0511   46.8023 H   0  0  0  0  0  0  0  0  0  0  0  0
   62.9690   33.4417   49.2300 H   0  0  0  0  0  0  0  0  0  0  0  0
   60.7945   34.4290   49.9608 H   0  0  0  0  0  0  0  0  0  0  0  0
   59.0569   35.0184   48.2699 H   0  0  0  0  0  0  0  0  0  0  0  0
   59.0823   33.6535   43.0568 H   0  0  0  0  0  0  0  0  0  0  0  0
  1  2  2  0
  2  3  1  0
  3  4  2  3
  4  5  1  0
  5  6  2  0
  6  7  1  0
  7  8  1  0
  8  9  2  0
  2 10  1  0
 10 11  2  0
 11 12  1  0
 12 13  2  0
 13 14  1  0
 14 15  1  0
 15 16  1  0
 16 17  2  0
 17 18  1  0
 18 19  2  0
 18 20  1  0
 20 21  1  0
 21 22  1  0
 22 23  2  0
 23 24  1  0
 24 25  2  0
 25 26  1  0
 26 27  2  0
 20 28  2  0
 28 29  1  0
 13 30  1  0
  9  4  1  0
 30 10  1  0
 29 16  1  0
 27 22  1  0
  5 31  1  0
  6 32  1  0
  7 33  1  0
  8 34  1  0
  9 35  1  0
 11 36  1  0
 12 37  1  0
 14 38  1  0
 14 39  1  0
 21 40  1  0
 21 41  1  0
 23 42  1  0
 24 43  1  0
 25 44  1  0
 26 45  1  0
 27 46  1  0
 28 47  1  0
M  CHG  1  29  -1
M  END
>  <UniqueID>  (35) 
32

>  <SMILES>  (35) 
O=C(N=c1cc[nH]cc1)c1ccc(CSc2nc(=O)c(Cc3ccccc3)c[n-]2)o1

>  <Energy>  (35) 
78.93854086710557

>  <Genealogy>  (35) 
O=C(N=c1cc[nH]cc1)c1ccc(CSc2nc(=O)c(Cc3ccccc3)c[n-]2)o1 (protonated)
O=C(N=c1cc[nH]cc1)c1ccc(CSc2nc(=O)c(Cc3ccccc3)c[n-]2)o1 (3D coordinates assigned)
O=C(N=c1cc[nH]cc1)c1ccc(CSc2nc(=O)c(Cc3ccccc3)c[n-]2)o1 (optimized conformer: 78.93854086710557 kcal/mol)

>  <smiles>  (35) 
O=C(N=c1cc[nH]cc1)c1ccc(CSc2nc(=O)c(Cc3ccccc3)c[nH]2)o1

>  <score_type>  (35) 
oracle

>  <origin>  (35) 
adg

>  <m_score__min__energy>  (35) 
-11.029999999999999

>  <m_primary>  (35) 
energy

$$$$
35:0
     RDKit          3D

 38 40  0  0  0  0  0  0  0  0999 V2000
   60.5790   26.7700   46.0550 C   0  0  0  0  0  0  0  0  0  0  0  0
   59.9510   27.9170   46.3650 C   0  0  0  0  0  0  0  0  0  0  0  0
   60.6460   28.7880   47.1360 N   0  0  0  0  0  0  0  0  0  0  0  0
   60.1370   29.9670   47.5570 C   0  0  0  0  0  0  0  0  0  0  0  0
   60.8450   30.7030   48.2940 O   0  0  0  0  0  0  0  0  0  0  0  0
   58.8800   30.3490   47.1790 N   0  0  0  0  0  0  0  0  0  0  0  0
   58.3110   31.6240   47.6640 C   0  0  0  0  0  0  0  0  0  0  0  0
   58.6300   32.7370   46.7000 C   0  0  0  0  0  0  0  0  0  0  0  0
   57.9020   32.8680   45.5050 C   0  0  0  0  0  0  0  0  0  0  0  0
   58.2240   33.8740   44.5900 C   0  0  0  0  0  0  0  0  0  0  0  0
   59.2780   34.7530   44.8570 C   0  0  0  0  0  0  0  0  0  0  0  0
   60.0110   34.6270   46.0400 C   0  0  0  0  0  0  0  0  0  0  0  0
   59.6910   33.6220   46.9580 C   0  0  0  0  0  0  0  0  0  0  0  0
   58.1310   29.5260   46.3740 C   0  0  0  0  0  0  0  0  0  0  0  0
   57.0180   29.9440   45.9480 O   0  0  0  0  0  0  0  0  0  0  0  0
   58.6150   28.2440   45.9750 C   0  0  0  0  0  0  0  0  0  0  0  0
   57.8540   27.3870   45.2330 C   0  0  0  0  0  0  0  0  0  0  0  0
   57.4150   26.0350   45.6470 C   0  0  0  0  0  0  0  0  0  0  0  0
   58.3200   24.9570   45.6200 C   0  0  0  0  0  0  0  0  0  0  0  0
   57.8960   23.6720   45.9700 C   0  0  0  0  0  0  0  0  0  0  0  0
   58.7990   22.6150   45.9600 O   0  0  0  0  0  0  0  0  0  0  0  0
   56.5620   23.4480   46.3260 C   0  0  0  0  0  0  0  0  0  0  0  0
   55.6510   24.5070   46.3260 C   0  0  0  0  0  0  0  0  0  0  0  0
   56.0700   25.7970   45.9810 C   0  0  0  0  0  0  0  0  0  0  0  0
   55.1480   26.8390   45.9800 O   0  0  0  0  0  0  0  0  0  0  0  0
   60.0736   26.0172   45.4322 H   0  0  0  0  0  0  0  0  0  0  0  0
   61.5984   26.5840   46.4241 H   0  0  0  0  0  0  0  0  0  0  0  0
   57.2193   31.5235   47.7544 H   0  0  0  0  0  0  0  0  0  0  0  0
   58.7490   31.8622   48.6445 H   0  0  0  0  0  0  0  0  0  0  0  0
   57.0750   32.1756   45.2889 H   0  0  0  0  0  0  0  0  0  0  0  0
   57.6475   33.9744   43.6586 H   0  0  0  0  0  0  0  0  0  0  0  0
   59.5303   35.5441   44.1355 H   0  0  0  0  0  0  0  0  0  0  0  0
   60.8402   35.3188   46.2492 H   0  0  0  0  0  0  0  0  0  0  0  0
   60.2724   33.5235   47.8866 H   0  0  0  0  0  0  0  0  0  0  0  0
   57.5385   27.7323   44.2374 H   0  0  0  0  0  0  0  0  0  0  0  0
   59.3652   25.1267   45.3222 H   0  0  0  0  0  0  0  0  0  0  0  0
   56.2301   22.4374   46.6061 H   0  0  0  0  0  0  0  0  0  0  0  0
   54.6006   24.3264   46.5981 H   0  0  0  0  0  0  0  0  0  0  0  0
  1  2  2  0
  2  3  1  0
  3  4  1  0
  4  5  2  0
  4  6  1  0
  6  7  1  0
  7  8  1  0
  8  9  2  0
  9 10  1  0
 10 11  2  0
 11 12  1  0
 12 13  2  0
  6 14  1  0
 14 15  2  0
 14 16  1  0
 16 17  2  3
 17 18  1  0
 18 19  2  0
 19 20  1  0
 20 21  1  0
 20 22  2  0
 22 23  1  0
 23 24  2  0
 24 25  1  0
 16  2  1  0
 24 18  1  0
 13  8  1  0
  1 26  1  0
  1 27  1  0
  7 28  1  0
  7 29  1  0
  9 30  1  0
 10 31  1  0
 11 32  1  0
 12 33  1  0
 13 34  1  0
 17 35  1  0
 19 36  1  0
 22 37  1  0
 23 38  1  0
M  CHG  3   3  -1  21  -1  25  -1
M  END
>  <UniqueID>  (36) 
33

>  <SMILES>  (36) 
C=c1[n-]c(=O)n(Cc2ccccc2)c(=O)c1=Cc1cc([O-])ccc1[O-]

>  <Energy>  (36) 
65.87369111201755

>  <Genealogy>  (36) 
C=c1[n-]c(=O)n(Cc2ccccc2)c(=O)c1=Cc1cc([O-])ccc1[O-] (protonated)
C=c1[n-]c(=O)n(Cc2ccccc2)c(=O)c1=Cc1cc([O-])ccc1[O-] (3D coordinates assigned)
C=c1[n-]c(=O)n(Cc2ccccc2)c(=O)c1=Cc1cc([O-])ccc1[O-] (optimized conformer: 65.87369111201755 kcal/mol)

>  <smiles>  (36) 
C=c1[nH]c(=O)n(Cc2ccccc2)c(=O)c1=Cc1cc(O)ccc1O

>  <score_type>  (36) 
oracle

>  <origin>  (36) 
adg

>  <m_score__min__energy>  (36) 
-14.359999999999999

>  <m_primary>  (36) 
energy

$$$$
36:0
     RDKit          3D

 41 43  0  0  0  0  0  0  0  0999 V2000
   56.1140   29.8810   43.8840 C   0  0  0  0  0  0  0  0  0  0  0  0
   57.0400   30.5410   44.5940 C   0  0  0  0  0  0  0  0  0  0  0  0
   57.0350   31.9000   44.4880 N   0  0  0  0  0  0  0  0  0  0  0  0
   57.7690   32.7060   45.2920 C   0  0  0  0  0  0  0  0  0  0  0  0
   58.5430   32.1570   46.3160 C   0  0  0  0  0  0  0  0  0  0  0  0
   59.2950   33.0370   47.2370 C   0  0  0  0  0  0  0  0  0  0  0  0
   58.8710   34.2050   47.4520 O   0  0  0  0  0  0  0  0  0  0  0  0
   60.5070   32.5920   47.8770 N   0  0  0  0  0  0  0  0  0  0  0  0
   60.8420   33.0640   49.2260 C   0  0  0  0  0  0  0  0  0  0  0  0
   62.1330   33.8980   49.2050 C   0  0  0  0  0  0  0  0  0  0  0  0
   63.1870   33.3750   48.1880 C   0  0  0  0  0  0  0  0  0  0  0  0
   64.5440   33.4690   48.7300 N   0  0  0  0  0  0  0  0  0  0  0  0
   62.9020   31.9300   47.7430 C   0  0  0  0  0  0  0  0  0  0  0  0
   61.5080   31.8370   47.1040 C   0  0  0  0  0  0  0  0  0  0  0  0
   58.5800   30.7650   46.4560 C   0  0  0  0  0  0  0  0  0  0  0  0
   57.9090   29.9210   45.5470 C   0  0  0  0  0  0  0  0  0  0  0  0
   58.1620   28.5910   45.6380 C   0  0  0  0  0  0  0  0  0  0  0  0
   57.1920   27.5470   46.0190 C   0  0  0  0  0  0  0  0  0  0  0  0
   55.9050   27.5110   45.6240 N   0  0  0  0  0  0  0  0  0  0  0  0
   55.4610   26.3320   46.1120 C   0  0  0  0  0  0  0  0  0  0  0  0
   54.2760   25.9370   45.9580 O   0  0  0  0  0  0  0  0  0  0  0  0
   56.3900   25.6060   46.7690 N   0  0  0  0  0  0  0  0  0  0  0  0
   57.4830   26.3840   46.6890 C   0  0  0  0  0  0  0  0  0  0  0  0
   58.7230   26.0400   47.2150 O   0  0  0  0  0  0  0  0  0  0  0  0
   56.0669   28.7829   43.9277 H   0  0  0  0  0  0  0  0  0  0  0  0
   55.4013   30.4376   43.2577 H   0  0  0  0  0  0  0  0  0  0  0  0
   57.7552   33.7951   45.1378 H   0  0  0  0  0  0  0  0  0  0  0  0
   60.0174   33.6846   49.6065 H   0  0  0  0  0  0  0  0  0  0  0  0
   60.9953   32.1914   49.8780 H   0  0  0  0  0  0  0  0  0  0  0  0
   61.8752   34.9338   48.9390 H   0  0  0  0  0  0  0  0  0  0  0  0
   62.5831   33.8268   50.2062 H   0  0  0  0  0  0  0  0  0  0  0  0
   63.1102   34.0238   47.3030 H   0  0  0  0  0  0  0  0  0  0  0  0
   65.2250   33.0980   48.0280 H   0  0  0  0  0  0  0  0  0  0  0  0
   64.6070   32.8620   49.5800 H   0  0  0  0  0  0  0  0  0  0  0  0
   63.6598   31.6198   47.0085 H   0  0  0  0  0  0  0  0  0  0  0  0
   62.9387   31.2698   48.6221 H   0  0  0  0  0  0  0  0  0  0  0  0
   61.5546   32.2462   46.0840 H   0  0  0  0  0  0  0  0  0  0  0  0
   61.2057   30.7795   47.0889 H   0  0  0  0  0  0  0  0  0  0  0  0
   59.1428   30.3211   47.2904 H   0  0  0  0  0  0  0  0  0  0  0  0
   59.1853   28.2607   45.4062 H   0  0  0  0  0  0  0  0  0  0  0  0
   59.5750   26.4160   46.8140 H   0  0  0  0  0  0  0  0  0  0  0  0
  1  2  2  0
  2  3  1  0
  3  4  2  0
  4  5  1  0
  5  6  1  0
  6  7  2  0
  6  8  1  0
  8  9  1  0
  9 10  1  0
 10 11  1  0
 11 12  1  0
 11 13  1  0
 13 14  1  0
  5 15  2  0
 15 16  1  0
 16 17  2  3
 17 18  1  0
 18 19  1  0
 19 20  1  0
 20 21  2  0
 20 22  1  0
 22 23  1  0
 23 24  1  0
 16  2  1  0
 23 18  2  0
 14  8  1  0
  1 25  1  0
  1 26  1  0
  4 27  1  0
  9 28  1  0
  9 29  1  0
 10 30  1  0
 10 31  1  0
 11 32  1  0
 12 33  1  0
 12 34  1  0
 13 35  1  0
 13 36  1  0
 14 37  1  0
 14 38  1  0
 15 39  1  0
 17 40  1  0
 24 41  1  0
M  CHG  2  19  -1  22  -1
M  END
>  <UniqueID>  (37) 
34

>  <SMILES>  (37) 
C=c1ncc(C(=O)N2CCC(N)CC2)cc1=Cc1[n-]c(=O)[n-]c1O

>  <Energy>  (37) 
97.15195644655029

>  <Genealogy>  (37) 
C=c1ncc(C(=O)N2CCC(N)CC2)cc1=Cc1[n-]c(=O)[n-]c1O (protonated)
C=c1ncc(C(=O)N2CCC(N)CC2)cc1=Cc1[n-]c(=O)[n-]c1O (3D coordinates assigned)
C=c1ncc(C(=O)N2CCC(N)CC2)cc1=Cc1[n-]c(=O)[n-]c1O (nonaromatic ring conformer: 97.15195644655029 kcal/mol)

>  <smiles>  (37) 
C=c1ncc(C(=O)N2CCC(N)CC2)cc1=Cc1[nH]c(=O)[nH]c1O

>  <score_type>  (37) 
oracle

>  <origin>  (37) 
adg

>  <m_score__min__energy>  (37) 
-12.24

>  <m_primary>  (37) 
energy

$$$$
37:0
     RDKit          3D

 38 39  0  0  0  0  0  0  0  0999 V2000
   58.9570   27.3700   45.5680 O   0  0  0  0  0  0  0  0  0  0  0  0
   58.0440   28.1620   45.9160 C   0  0  0  0  0  0  0  0  0  0  0  0
   56.6380   27.8970   45.4490 C   0  0  0  0  0  0  0  0  0  0  0  0
   55.8920   29.1380   45.2620 N   0  0  0  0  0  0  0  0  0  0  0  0
   55.6060   29.7520   44.0020 C   0  0  0  0  0  0  0  0  0  0  0  0
   54.5740   29.3960   43.3650 O   0  0  0  0  0  0  0  0  0  0  0  0
   56.4920   30.7740   43.4260 C   0  0  0  0  0  0  0  0  0  0  0  0
   56.6500   30.8440   42.0340 C   0  0  0  0  0  0  0  0  0  0  0  0
   57.4990   31.8010   41.4710 C   0  0  0  0  0  0  0  0  0  0  0  0
   58.1810   32.7000   42.2940 C   0  0  0  0  0  0  0  0  0  0  0  0
   58.0310   32.6360   43.6820 C   0  0  0  0  0  0  0  0  0  0  0  0
   57.1870   31.6750   44.2550 C   0  0  0  0  0  0  0  0  0  0  0  0
   57.0410   31.6120   45.6380 O   0  0  0  0  0  0  0  0  0  0  0  0
   58.3890   29.3110   46.7000 N   0  0  0  0  0  0  0  0  0  0  0  0
   58.8280   29.2940   48.0940 C   0  0  0  0  0  0  0  0  0  0  0  0
   60.0320   30.1730   48.2880 C   0  0  0  0  0  0  0  0  0  0  0  0
   61.1780   29.6900   48.1280 O   0  0  0  0  0  0  0  0  0  0  0  0
   59.9150   31.5440   48.6910 N   0  0  0  0  0  0  0  0  0  0  0  0
   59.6950   32.6690   47.8310 C   0  0  0  0  0  0  0  0  0  0  0  0
   58.3970   33.1370   47.5670 C   0  0  0  0  0  0  0  0  0  0  0  0
   58.1990   34.2250   46.7140 C   0  0  0  0  0  0  0  0  0  0  0  0
   59.2920   34.8430   46.1020 C   0  0  0  0  0  0  0  0  0  0  0  0
   60.5830   34.3640   46.3340 C   0  0  0  0  0  0  0  0  0  0  0  0
   60.7900   33.2760   47.1890 C   0  0  0  0  0  0  0  0  0  0  0  0
   62.5810   32.6640   47.5010 Br  0  0  0  0  0  0  0  0  0  0  0  0
   56.6755   27.3552   44.4924 H   0  0  0  0  0  0  0  0  0  0  0  0
   56.1263   27.3000   46.2182 H   0  0  0  0  0  0  0  0  0  0  0  0
   56.1045   30.1441   41.3839 H   0  0  0  0  0  0  0  0  0  0  0  0
   57.6300   31.8461   40.3798 H   0  0  0  0  0  0  0  0  0  0  0  0
   58.8384   33.4610   41.8482 H   0  0  0  0  0  0  0  0  0  0  0  0
   58.5765   33.3414   44.3261 H   0  0  0  0  0  0  0  0  0  0  0  0
   56.9910   30.7280   46.1320 H   0  0  0  0  0  0  0  0  0  0  0  0
   58.0101   29.6572   48.7336 H   0  0  0  0  0  0  0  0  0  0  0  0
   59.0985   28.2627   48.3647 H   0  0  0  0  0  0  0  0  0  0  0  0
   57.5320   32.6439   48.0346 H   0  0  0  0  0  0  0  0  0  0  0  0
   57.1810   34.5957   46.5239 H   0  0  0  0  0  0  0  0  0  0  0  0
   59.1359   35.7060   45.4380 H   0  0  0  0  0  0  0  0  0  0  0  0
   61.4416   34.8445   45.8421 H   0  0  0  0  0  0  0  0  0  0  0  0
  1  2  2  0
  2  3  1  0
  3  4  1  0
  4  5  1  0
  5  6  2  0
  5  7  1  0
  7  8  2  0
  8  9  1  0
  9 10  2  0
 10 11  1  0
 11 12  2  0
 12 13  1  0
  2 14  1  0
 14 15  1  0
 15 16  1  0
 16 17  2  0
 16 18  1  0
 18 19  1  0
 19 20  2  0
 20 21  1  0
 21 22  2  0
 22 23  1  0
 23 24  2  0
 24 25  1  0
 12  7  1  0
 24 19  1  0
  3 26  1  0
  3 27  1  0
  8 28  1  0
  9 29  1  0
 10 30  1  0
 11 31  1  0
 13 32  1  0
 15 33  1  0
 15 34  1  0
 20 35  1  0
 21 36  1  0
 22 37  1  0
 23 38  1  0
M  CHG  3   4  -1  14  -1  18  -1
M  END
>  <UniqueID>  (38) 
35

>  <SMILES>  (38) 
O=C(C[N-]C(=O)c1ccccc1O)[N-]CC(=O)[N-]c1ccccc1Br

>  <Energy>  (38) 
44.766366868167765

>  <Genealogy>  (38) 
O=C(C[N-]C(=O)c1ccccc1O)[N-]CC(=O)[N-]c1ccccc1Br (protonated)
O=C(C[N-]C(=O)c1ccccc1O)[N-]CC(=O)[N-]c1ccccc1Br (3D coordinates assigned)
O=C(C[N-]C(=O)c1ccccc1O)[N-]CC(=O)[N-]c1ccccc1Br (optimized conformer: 44.766366868167765 kcal/mol)

>  <smiles>  (38) 
O=C(CNC(=O)c1ccccc1O)NCC(=O)Nc1ccccc1Br

>  <score_type>  (38) 
oracle

>  <origin>  (38) 
adg

>  <m_score__min__energy>  (38) 
-13.720000000000001

>  <m_primary>  (38) 
energy

$$$$
38:0
     RDKit          3D

 48 51  0  0  0  0  0  0  0  0999 V2000
   62.7790   34.2540   49.0570 O   0  0  0  0  0  0  0  0  0  0  0  0
   61.6060   33.8560   49.2940 C   0  0  0  0  0  0  0  0  0  0  0  0
   61.2050   33.5270   50.6350 N   0  0  0  0  0  0  0  0  0  0  0  0
   60.0360   33.1510   51.0770 C   0  0  0  0  0  0  0  0  0  0  0  0
   59.3280   33.8490   52.0800 C   0  0  0  0  0  0  0  0  0  0  0  0
   58.0750   33.3840   52.4870 C   0  0  0  0  0  0  0  0  0  0  0  0
   57.5290   32.2430   51.8990 C   0  0  0  0  0  0  0  0  0  0  0  0
   58.2440   31.5860   50.8980 C   0  0  0  0  0  0  0  0  0  0  0  0
   59.4620   32.0520   50.5130 N   0  0  0  0  0  0  0  0  0  0  0  0
   60.6670   33.6310   48.1690 C   0  0  0  0  0  0  0  0  0  0  0  0
   59.6900   34.5910   47.8480 C   0  0  0  0  0  0  0  0  0  0  0  0
   58.8020   34.3740   46.7900 C   0  0  0  0  0  0  0  0  0  0  0  0
   58.8790   33.1980   46.0340 C   0  0  0  0  0  0  0  0  0  0  0  0
   57.7790   32.9250   44.6870 S   0  0  0  0  0  0  0  0  0  0  0  0
   56.9340   34.1500   44.4830 O   0  0  0  0  0  0  0  0  0  0  0  0
   58.5510   32.6440   43.4270 O   0  0  0  0  0  0  0  0  0  0  0  0
   56.7650   31.5890   45.0330 O   0  0  0  0  0  0  0  0  0  0  0  0
   57.2120   30.2720   45.2050 C   0  0  0  0  0  0  0  0  0  0  0  0
   57.0410   29.3740   44.1440 C   0  0  0  0  0  0  0  0  0  0  0  0
   57.4530   28.0430   44.2650 C   0  0  0  0  0  0  0  0  0  0  0  0
   58.0600   27.5960   45.4480 C   0  0  0  0  0  0  0  0  0  0  0  0
   58.4640   26.1540   45.5970 C   0  0  0  0  0  0  0  0  0  0  0  0
   57.3220   25.2590   45.2260 C   0  0  0  0  0  0  0  0  0  0  0  0
   57.4100   23.9730   44.1420 S   0  0  0  0  0  0  0  0  0  0  0  0
   55.7630   23.6590   44.2540 C   0  0  0  0  0  0  0  0  0  0  0  0
   55.1720   22.7390   43.6310 O   0  0  0  0  0  0  0  0  0  0  0  0
   55.1250   24.5110   45.0850 N   0  0  0  0  0  0  0  0  0  0  0  0
   55.9940   25.4090   45.6230 C   0  0  0  0  0  0  0  0  0  0  0  0
   55.5740   26.4020   46.5020 O   0  0  0  0  0  0  0  0  0  0  0  0
   58.2320   28.4920   46.5150 C   0  0  0  0  0  0  0  0  0  0  0  0
   57.8150   29.8200   46.3950 C   0  0  0  0  0  0  0  0  0  0  0  0
   59.8480   32.2370   46.3470 C   0  0  0  0  0  0  0  0  0  0  0  0
   60.7350   32.4490   47.4050 C   0  0  0  0  0  0  0  0  0  0  0  0
   59.7597   34.7516   52.5371 H   0  0  0  0  0  0  0  0  0  0  0  0
   57.5187   33.9179   53.2715 H   0  0  0  0  0  0  0  0  0  0  0  0
   56.5469   31.8662   52.2208 H   0  0  0  0  0  0  0  0  0  0  0  0
   57.8222   30.6899   50.4194 H   0  0  0  0  0  0  0  0  0  0  0  0
   59.6242   35.5196   48.4339 H   0  0  0  0  0  0  0  0  0  0  0  0
   58.0399   35.1302   46.5506 H   0  0  0  0  0  0  0  0  0  0  0  0
   56.5786   29.7186   43.2073 H   0  0  0  0  0  0  0  0  0  0  0  0
   57.3005   27.3441   43.4294 H   0  0  0  0  0  0  0  0  0  0  0  0
   59.3190   25.9456   44.9370 H   0  0  0  0  0  0  0  0  0  0  0  0
   58.7446   25.9649   46.6437 H   0  0  0  0  0  0  0  0  0  0  0  0
   55.5230   26.2250   47.4980 H   0  0  0  0  0  0  0  0  0  0  0  0
   58.6973   28.1468   47.4500 H   0  0  0  0  0  0  0  0  0  0  0  0
   57.9584   30.5164   47.2344 H   0  0  0  0  0  0  0  0  0  0  0  0
   59.9110   31.3108   45.7570 H   0  0  0  0  0  0  0  0  0  0  0  0
   61.4922   31.6876   47.6435 H   0  0  0  0  0  0  0  0  0  0  0  0
  1  2  2  0
  2  3  1  0
  3  4  2  3
  4  5  1  0
  5  6  2  0
  6  7  1  0
  7  8  2  0
  8  9  1  0
  2 10  1  0
 10 11  2  0
 11 12  1  0
 12 13  2  0
 13 14  1  0
 14 15  2  0
 14 16  2  0
 14 17  1  0
 17 18  1  0
 18 19  2  0
 19 20  1  0
 20 21  2  0
 21 22  1  0
 22 23  1  0
 23 24  1  0
 24 25  1  0
 25 26  2  0
 25 27  1  0
 27 28  1  0
 28 29  1  0
 21 30  1  0
 30 31  2  0
 13 32  1  0
 32 33  2  0
  9  4  1  0
 33 10  1  0
 31 18  1  0
 28 23  2  0
  5 34  1  0
  6 35  1  0
  7 36  1  0
  8 37  1  0
 11 38  1  0
 12 39  1  0
 19 40  1  0
 20 41  1  0
 22 42  1  0
 22 43  1  0
 29 44  1  0
 30 45  1  0
 31 46  1  0
 32 47  1  0
 33 48  1  0
M  CHG  2   9  -1  27  -1
M  END
>  <UniqueID>  (39) 
36

>  <SMILES>  (39) 
O=C(N=c1cccc[n-]1)c1ccc(S(=O)(=O)Oc2ccc(Cc3sc(=O)[n-]c3O)cc2)cc1

>  <Energy>  (39) 
89.81500435096355

>  <Genealogy>  (39) 
O=C(N=c1cccc[n-]1)c1ccc(S(=O)(=O)Oc2ccc(Cc3sc(=O)[n-]c3O)cc2)cc1 (protonated)
O=C(N=c1cccc[n-]1)c1ccc(S(=O)(=O)Oc2ccc(Cc3sc(=O)[n-]c3O)cc2)cc1 (3D coordinates assigned)
O=C(N=c1cccc[n-]1)c1ccc(S(=O)(=O)Oc2ccc(Cc3sc(=O)[n-]c3O)cc2)cc1 (optimized conformer: 89.81500435096355 kcal/mol)

>  <smiles>  (39) 
O=C(N=c1cccc[nH]1)c1ccc(S(=O)(=O)Oc2ccc(Cc3sc(=O)[nH]c3O)cc2)cc1

>  <score_type>  (39) 
oracle

>  <origin>  (39) 
adg

>  <m_score__min__energy>  (39) 
-13.65

>  <m_primary>  (39) 
energy

$$$$
39:0
     RDKit          3D

 67 70  0  0  0  0  0  0  0  0999 V2000
   59.9400   33.4320   51.6880 C   0  0  0  0  0  0  0  0  0  0  0  0
   60.3050   32.0730   51.9130 O   0  0  0  0  0  0  0  0  0  0  0  0
   60.0690   31.0270   51.0070 C   0  0  0  0  0  0  0  0  0  0  0  0
   61.0720   30.1050   50.6520 C   0  0  0  0  0  0  0  0  0  0  0  0
   60.8020   29.0820   49.7440 C   0  0  0  0  0  0  0  0  0  0  0  0
   59.5260   28.9530   49.1790 C   0  0  0  0  0  0  0  0  0  0  0  0
   59.2500   27.8760   48.1630 C   0  0  0  0  0  0  0  0  0  0  0  0
   60.5520   27.3940   47.5260 C   0  0  0  0  0  0  0  0  0  0  0  0
   60.4170   25.9990   47.1290 N   0  0  0  0  0  0  0  0  0  0  0  0
   59.3710   25.5050   46.2860 C   0  0  0  0  0  0  0  0  0  0  0  0
   58.9500   24.3330   46.4700 O   0  0  0  0  0  0  0  0  0  0  0  0
   58.7320   26.3870   45.2370 C   0  0  0  0  0  0  0  0  0  0  0  0
   57.2550   26.0520   44.9570 C   0  0  0  0  0  0  0  0  0  0  0  0
   56.2810   26.9960   45.6070 C   0  0  0  0  0  0  0  0  0  0  0  0
   55.1500   26.5920   45.9930 O   0  0  0  0  0  0  0  0  0  0  0  0
   56.6780   28.3580   45.8080 N   0  0  0  0  0  0  0  0  0  0  0  0
   56.8790   29.3570   44.7960 C   0  0  0  0  0  0  0  0  0  0  0  0
   56.0400   29.4460   43.6690 C   0  0  0  0  0  0  0  0  0  0  0  0
   56.2720   30.4150   42.6900 C   0  0  0  0  0  0  0  0  0  0  0  0
   57.3470   31.2950   42.8170 C   0  0  0  0  0  0  0  0  0  0  0  0
   58.2010   31.2010   43.9190 C   0  0  0  0  0  0  0  0  0  0  0  0
   57.9770   30.2270   44.9130 C   0  0  0  0  0  0  0  0  0  0  0  0
   58.8220   30.0900   46.0310 O   0  0  0  0  0  0  0  0  0  0  0  0
   60.2460   30.1860   46.0060 C   0  0  0  0  0  0  0  0  0  0  0  0
   60.7090   31.2970   46.9020 C   0  0  0  0  0  0  0  0  0  0  0  0
   59.8860   32.3880   47.1850 C   0  0  0  0  0  0  0  0  0  0  0  0
   60.3600   33.3920   48.0320 C   0  0  0  0  0  0  0  0  0  0  0  0
   59.6090   34.3730   48.2910 O   0  0  0  0  0  0  0  0  0  0  0  0
   61.6240   33.3070   48.5650 N   0  0  0  0  0  0  0  0  0  0  0  0
   62.1030   34.2900   49.3960 C   0  0  0  0  0  0  0  0  0  0  0  0
   63.3910   34.2070   49.9330 C   0  0  0  0  0  0  0  0  0  0  0  0
   64.1960   33.1130   49.6230 C   0  0  0  0  0  0  0  0  0  0  0  0
   63.7090   32.1130   48.7860 C   0  0  0  0  0  0  0  0  0  0  0  0
   62.4160   32.2200   48.2610 C   0  0  0  0  0  0  0  0  0  0  0  0
   61.9510   31.2400   47.4430 N   0  0  0  0  0  0  0  0  0  0  0  0
   58.5250   29.8760   49.5220 C   0  0  0  0  0  0  0  0  0  0  0  0
   58.7890   30.9100   50.4420 C   0  0  0  0  0  0  0  0  0  0  0  0
   57.8060   31.8390   50.8190 O   0  0  0  0  0  0  0  0  0  0  0  0
   56.9350   31.6820   51.9340 C   0  0  0  0  0  0  0  0  0  0  0  0
   59.8036   33.9398   52.6542 H   0  0  0  0  0  0  0  0  0  0  0  0
   60.7347   33.9356   51.1181 H   0  0  0  0  0  0  0  0  0  0  0  0
   58.9999   33.4696   51.1181 H   0  0  0  0  0  0  0  0  0  0  0  0
   62.0755   30.1923   51.0940 H   0  0  0  0  0  0  0  0  0  0  0  0
   61.5956   28.3716   49.4693 H   0  0  0  0  0  0  0  0  0  0  0  0
   58.7547   27.0286   48.6595 H   0  0  0  0  0  0  0  0  0  0  0  0
   58.6005   28.2875   47.3764 H   0  0  0  0  0  0  0  0  0  0  0  0
   60.7742   28.0066   46.6398 H   0  0  0  0  0  0  0  0  0  0  0  0
   61.3708   27.4879   48.2546 H   0  0  0  0  0  0  0  0  0  0  0  0
   58.7918   27.4309   45.5787 H   0  0  0  0  0  0  0  0  0  0  0  0
   59.2815   26.2180   44.2992 H   0  0  0  0  0  0  0  0  0  0  0  0
   57.0933   26.0826   43.8694 H   0  0  0  0  0  0  0  0  0  0  0  0
   57.0674   25.0560   45.3846 H   0  0  0  0  0  0  0  0  0  0  0  0
   55.1967   28.7483   43.5587 H   0  0  0  0  0  0  0  0  0  0  0  0
   55.6059   30.4843   41.8174 H   0  0  0  0  0  0  0  0  0  0  0  0
   57.5224   32.0631   42.0494 H   0  0  0  0  0  0  0  0  0  0  0  0
   59.0528   31.8909   44.0113 H   0  0  0  0  0  0  0  0  0  0  0  0
   60.6798   29.2362   46.3519 H   0  0  0  0  0  0  0  0  0  0  0  0
   60.5723   30.3968   44.9769 H   0  0  0  0  0  0  0  0  0  0  0  0
   58.8791   32.4560   46.7474 H   0  0  0  0  0  0  0  0  0  0  0  0
   61.4659   35.1524   49.6418 H   0  0  0  0  0  0  0  0  0  0  0  0
   63.7665   35.0003   50.5960 H   0  0  0  0  0  0  0  0  0  0  0  0
   65.2121   33.0397   50.0379 H   0  0  0  0  0  0  0  0  0  0  0  0
   64.3365   31.2440   48.5387 H   0  0  0  0  0  0  0  0  0  0  0  0
   57.5264   29.7911   49.0687 H   0  0  0  0  0  0  0  0  0  0  0  0
   57.5101   31.7857   52.8660 H   0  0  0  0  0  0  0  0  0  0  0  0
   56.1516   32.4534   51.8988 H   0  0  0  0  0  0  0  0  0  0  0  0
   56.4703   30.6856   51.8988 H   0  0  0  0  0  0  0  0  0  0  0  0
  1  2  1  0
  2  3  1  0
  3  4  2  0
  4  5  1  0
  5  6  2  0
  6  7  1  0
  7  8  1  0
  8  9  1  0
  9 10  1  0
 10 11  2  0
 10 12  1  0
 12 13  1  0
 13 14  1  0
 14 15  2  0
 14 16  1  0
 16 17  1  0
 17 18  2  0
 18 19  1  0
 19 20  2  0
 20 21  1  0
 21 22  2  0
 22 23  1  0
 23 24  1  0
 24 25  1  0
 25 26  2  0
 26 27  1  0
 27 28  2  0
 27 29  1  0
 29 30  1  0
 30 31  2  0
 31 32  1  0
 32 33  2  0
 33 34  1  0
 34 35  2  0
  6 36  1  0
 36 37  2  0
 37 38  1  0
 38 39  1  0
 37  3  1  0
 22 17  1  0
 35 25  1  0
 34 29  1  0
  1 40  1  0
  1 41  1  0
  1 42  1  0
  4 43  1  0
  5 44  1  0
  7 45  1  0
  7 46  1  0
  8 47  1  0
  8 48  1  0
 12 49  1  0
 12 50  1  0
 13 51  1  0
 13 52  1  0
 18 53  1  0
 19 54  1  0
 20 55  1  0
 21 56  1  0
 24 57  1  0
 24 58  1  0
 26 59  1  0
 30 60  1  0
 31 61  1  0
 32 62  1  0
 33 63  1  0
 36 64  1  0
 39 65  1  0
 39 66  1  0
 39 67  1  0
M  CHG  2   9  -1  16  -1
M  END
>  <UniqueID>  (40) 
37

>  <SMILES>  (40) 
COc1ccc(CC[N-]C(=O)CCC(=O)[N-]c2ccccc2OCc2cc(=O)n3ccccc3n2)cc1OC

>  <Energy>  (40) 
73.3176883447728

>  <Genealogy>  (40) 
COc1ccc(CC[N-]C(=O)CCC(=O)[N-]c2ccccc2OCc2cc(=O)n3ccccc3n2)cc1OC (protonated)
COc1ccc(CC[N-]C(=O)CCC(=O)[N-]c2ccccc2OCc2cc(=O)n3ccccc3n2)cc1OC (3D coordinates assigned)
COc1ccc(CC[N-]C(=O)CCC(=O)[N-]c2ccccc2OCc2cc(=O)n3ccccc3n2)cc1OC (optimized conformer: 73.3176883447728 kcal/mol)

>  <smiles>  (40) 
COc1ccc(CCNC(=O)CCC(=O)Nc2ccccc2OCc2cc(=O)n3ccccc3n2)cc1OC

>  <score_type>  (40) 
oracle

>  <origin>  (40) 
adg

>  <m_score__min__energy>  (40) 
-11.67

>  <m_primary>  (40) 
energy

$$$$
40:0
     RDKit          3D

 70 74  0  0  0  0  0  0  0  0999 V2000
   58.9060   35.2730   53.5180 N   0  0  0  0  0  0  0  0  0  0  0  0
   58.6900   34.0050   52.8910 C   0  0  0  0  0  0  0  0  0  0  0  0
   59.0020   33.8260   51.5360 C   0  0  0  0  0  0  0  0  0  0  0  0
   58.7880   32.5890   50.9210 C   0  0  0  0  0  0  0  0  0  0  0  0
   58.2590   31.5110   51.6570 C   0  0  0  0  0  0  0  0  0  0  0  0
   58.0160   30.2310   51.0460 N   0  0  0  0  0  0  0  0  0  0  0  0
   59.0480   29.2700   50.7760 C   0  0  0  0  0  0  0  0  0  0  0  0
   59.2380   28.8340   49.4570 C   0  0  0  0  0  0  0  0  0  0  0  0
   60.2460   27.9150   49.1430 C   0  0  0  0  0  0  0  0  0  0  0  0
   60.4100   27.5320   47.8030 O   0  0  0  0  0  0  0  0  0  0  0  0
   59.6410   28.0450   46.7530 C   0  0  0  0  0  0  0  0  0  0  0  0
   59.8530   29.3560   46.2960 C   0  0  0  0  0  0  0  0  0  0  0  0
   61.2080   30.4620   47.0770 Br  0  0  0  0  0  0  0  0  0  0  0  0
   59.0800   29.8650   45.2480 C   0  0  0  0  0  0  0  0  0  0  0  0
   58.0820   29.0760   44.6550 C   0  0  0  0  0  0  0  0  0  0  0  0
   57.2750   29.6090   43.5020 C   0  0  0  0  0  0  0  0  0  0  0  0
   56.7020   30.9460   43.8480 C   0  0  0  0  0  0  0  0  0  0  0  0
   55.6080   31.0130   44.4700 O   0  0  0  0  0  0  0  0  0  0  0  0
   57.4120   32.1370   43.4780 N   0  0  0  0  0  0  0  0  0  0  0  0
   57.8230   33.2130   44.3860 C   0  0  1  0  0  0  0  0  0  0  0  0
   56.6790   33.7060   45.2680 C   0  0  0  0  0  0  0  0  0  0  0  0
   57.1340   33.4540   46.6990 C   0  0  0  0  0  0  0  0  0  0  0  0
   58.5910   33.2550   46.6840 N   0  0  0  0  0  0  0  0  0  0  0  0
   59.3700   34.4470   47.1050 C   0  0  0  0  0  0  0  0  0  0  0  0
   60.8000   34.1530   47.5270 C   0  0  0  0  0  0  0  0  0  0  0  0
   61.7860   33.8610   46.5670 C   0  0  0  0  0  0  0  0  0  0  0  0
   63.1070   33.6190   46.9590 C   0  0  0  0  0  0  0  0  0  0  0  0
   63.4510   33.6400   48.3130 C   0  0  0  0  0  0  0  0  0  0  0  0
   64.7340   33.4080   48.6930 F   0  0  0  0  0  0  0  0  0  0  0  0
   62.4720   33.8910   49.2780 C   0  0  0  0  0  0  0  0  0  0  0  0
   61.1520   34.1410   48.8890 C   0  0  0  0  0  0  0  0  0  0  0  0
   58.9300   32.7650   45.3420 C   0  0  0  0  0  0  0  0  0  0  0  0
   57.8830   27.7610   45.1070 C   0  0  0  0  0  0  0  0  0  0  0  0
   58.6610   27.2460   46.1480 C   0  0  0  0  0  0  0  0  0  0  0  0
   58.3650   25.4520   46.7450 Br  0  0  0  0  0  0  0  0  0  0  0  0
   61.0650   27.4150   50.1700 C   0  0  0  0  0  0  0  0  0  0  0  0
   60.8680   27.8270   51.4910 C   0  0  0  0  0  0  0  0  0  0  0  0
   59.8580   28.7440   51.8080 C   0  0  0  0  0  0  0  0  0  0  0  0
   59.6460   29.1030   53.1810 N   0  0  0  0  0  0  0  0  0  0  0  0
   57.9370   31.6990   53.0090 C   0  0  0  0  0  0  0  0  0  0  0  0
   58.1540   32.9360   53.6230 C   0  0  0  0  0  0  0  0  0  0  0  0
   58.4170   36.1310   53.1740 H   0  0  0  0  0  0  0  0  0  0  0  0
   59.5560   35.3650   54.3310 H   0  0  0  0  0  0  0  0  0  0  0  0
   59.4169   34.6624   50.9543 H   0  0  0  0  0  0  0  0  0  0  0  0
   59.0340   32.4569   49.8570 H   0  0  0  0  0  0  0  0  0  0  0  0
   57.0650   30.0470   50.6480 H   0  0  0  0  0  0  0  0  0  0  0  0
   58.5865   29.2191   48.6587 H   0  0  0  0  0  0  0  0  0  0  0  0
   59.2549   30.8890   44.8864 H   0  0  0  0  0  0  0  0  0  0  0  0
   57.9241   29.7091   42.6196 H   0  0  0  0  0  0  0  0  0  0  0  0
   56.4529   28.9109   43.2859 H   0  0  0  0  0  0  0  0  0  0  0  0
   58.1723   34.0157   43.7199 H   0  0  0  0  0  0  0  0  0  0  0  0
   56.5015   34.7791   45.1039 H   0  0  0  0  0  0  0  0  0  0  0  0
   55.7354   33.1879   45.0416 H   0  0  0  0  0  0  0  0  0  0  0  0
   56.8819   34.3199   47.3289 H   0  0  0  0  0  0  0  0  0  0  0  0
   56.6311   32.5658   47.1092 H   0  0  0  0  0  0  0  0  0  0  0  0
   59.3996   35.1526   46.2617 H   0  0  0  0  0  0  0  0  0  0  0  0
   58.8614   34.8540   47.9914 H   0  0  0  0  0  0  0  0  0  0  0  0
   61.5166   33.8227   45.5012 H   0  0  0  0  0  0  0  0  0  0  0  0
   63.8759   33.4119   46.2001 H   0  0  0  0  0  0  0  0  0  0  0  0
   62.7398   33.8920   50.3449 H   0  0  0  0  0  0  0  0  0  0  0  0
   60.3837   34.3295   49.6534 H   0  0  0  0  0  0  0  0  0  0  0  0
   59.8940   33.1873   45.0221 H   0  0  0  0  0  0  0  0  0  0  0  0
   59.0148   31.6683   45.3439 H   0  0  0  0  0  0  0  0  0  0  0  0
   57.1106   27.1329   44.6392 H   0  0  0  0  0  0  0  0  0  0  0  0
   61.8639   26.6969   49.9333 H   0  0  0  0  0  0  0  0  0  0  0  0
   61.5118   27.4276   52.2885 H   0  0  0  0  0  0  0  0  0  0  0  0
   60.4430   29.2340   53.8450 H   0  0  0  0  0  0  0  0  0  0  0  0
   58.6810   29.2900   53.5390 H   0  0  0  0  0  0  0  0  0  0  0  0
   57.5110   30.8678   53.5900 H   0  0  0  0  0  0  0  0  0  0  0  0
   57.9031   33.0713   54.6854 H   0  0  0  0  0  0  0  0  0  0  0  0
  1  2  1  0
  2  3  2  0
  3  4  1  0
  4  5  2  0
  5  6  1  0
  6  7  1  0
  7  8  2  0
  8  9  1  0
  9 10  1  0
 10 11  1  0
 11 12  2  0
 12 13  1  0
 12 14  1  0
 14 15  2  0
 15 16  1  0
 16 17  1  0
 17 18  2  0
 17 19  1  0
 19 20  1  0
 20 21  1  0
 21 22  1  0
 22 23  1  0
 23 24  1  0
 24 25  1  0
 25 26  2  0
 26 27  1  0
 27 28  2  0
 28 29  1  0
 28 30  1  0
 30 31  2  0
 23 32  1  0
 15 33  1  0
 33 34  2  0
 34 35  1  0
  9 36  2  0
 36 37  1  0
 37 38  2  0
 38 39  1  0
  5 40  1  0
 40 41  2  0
 41  2  1  0
 38  7  1  0
 34 11  1  0
 32 20  1  0
 31 25  1  0
  1 42  1  0
  1 43  1  0
  3 44  1  0
  4 45  1  0
  6 46  1  0
  8 47  1  0
 14 48  1  0
 16 49  1  0
 16 50  1  0
 20 51  1  6
 21 52  1  0
 21 53  1  0
 22 54  1  0
 22 55  1  0
 24 56  1  0
 24 57  1  0
 26 58  1  0
 27 59  1  0
 30 60  1  0
 31 61  1  0
 32 62  1  0
 32 63  1  0
 33 64  1  0
 36 65  1  0
 37 66  1  0
 39 67  1  0
 39 68  1  0
 40 69  1  0
 41 70  1  0
M  CHG  1  19  -1
M  END
>  <UniqueID>  (41) 
38

>  <SMILES>  (41) 
Nc1ccc(Nc2cc(Oc3c(Br)cc(CC(=O)[N-][C@H]4CCN(Cc5ccc(F)cc5)C4)cc3Br)ccc2N)cc1

>  <Energy>  (41) 
95.13402873750032

>  <Genealogy>  (41) 
Nc1ccc(Nc2cc(Oc3c(Br)cc(CC(=O)[N-]C4CCN(Cc5ccc(F)cc5)C4)cc3Br)ccc2N)cc1 (protonated)
Nc1ccc(Nc2cc(Oc3c(Br)cc(CC(=O)[N-][C@H]4CCN(Cc5ccc(F)cc5)C4)cc3Br)ccc2N)cc1 (chirality)
Nc1ccc(Nc2cc(Oc3c(Br)cc(CC(=O)[N-][C@H]4CCN(Cc5ccc(F)cc5)C4)cc3Br)ccc2N)cc1 (3D coordinates assigned)
Nc1ccc(Nc2cc(Oc3c(Br)cc(CC(=O)[N-][C@H]4CCN(Cc5ccc(F)cc5)C4)cc3Br)ccc2N)cc1 (nonaromatic ring conformer: 95.13402873750032 kcal/mol)

>  <smiles>  (41) 
Nc1ccc(Nc2cc(Oc3c(Br)cc(CC(=O)NC4CCN(Cc5ccc(F)cc5)C4)cc3Br)ccc2N)cc1

>  <score_type>  (41) 
oracle

>  <origin>  (41) 
adg

>  <m_score__min__energy>  (41) 
-11.42

>  <m_primary>  (41) 
energy

$$$$
41:0
     RDKit          3D

 51 53  0  0  0  0  0  0  0  0999 V2000
   54.8130   26.1610   45.9780 N   0  0  0  0  0  0  0  0  0  0  0  0
   56.4560   25.6230   46.0690 S   0  0  0  0  0  0  0  0  0  0  0  0
   56.6750   24.9030   47.3740 O   0  0  0  0  0  0  0  0  0  0  0  0
   56.7310   24.6730   44.9380 O   0  0  0  0  0  0  0  0  0  0  0  0
   57.5360   27.0110   45.9600 C   0  0  0  0  0  0  0  0  0  0  0  0
   58.8520   26.9180   46.4310 C   0  0  0  0  0  0  0  0  0  0  0  0
   59.6960   28.0320   46.3780 C   0  0  0  0  0  0  0  0  0  0  0  0
   59.2300   29.2430   45.8580 C   0  0  0  0  0  0  0  0  0  0  0  0
   57.9110   29.3530   45.3790 C   0  0  0  0  0  0  0  0  0  0  0  0
   57.4190   30.6510   44.8580 C   0  0  0  0  0  0  0  0  0  0  0  0
   56.1790   30.8240   44.7020 O   0  0  0  0  0  0  0  0  0  0  0  0
   58.3320   31.7130   44.5310 N   0  0  0  0  0  0  0  0  0  0  0  0
   57.9210   32.9050   43.7880 C   0  0  0  0  0  0  0  0  0  0  0  0
   57.7120   34.0990   44.7270 C   0  0  0  0  0  0  0  0  0  0  0  0
   57.9890   33.7260   46.1630 C   0  0  0  0  0  0  0  0  0  0  0  0
   57.0740   33.1410   46.8130 O   0  0  0  0  0  0  0  0  0  0  0  0
   59.2600   34.0050   46.8000 N   0  0  0  0  0  0  0  0  0  0  0  0
   60.5280   33.8480   46.0630 C   0  0  0  0  0  0  0  0  0  0  0  0
   61.7400   33.7900   46.9600 C   0  0  0  0  0  0  0  0  0  0  0  0
   61.6670   33.7690   48.3050 C   0  0  0  0  0  0  0  0  0  0  0  0
   62.9050   33.6620   49.1260 C   0  0  0  0  0  0  0  0  0  0  0  0
   64.0080   32.9230   48.6540 C   0  0  0  0  0  0  0  0  0  0  0  0
   65.1710   32.8180   49.4280 C   0  0  0  0  0  0  0  0  0  0  0  0
   65.2440   33.4410   50.6740 C   0  0  0  0  0  0  0  0  0  0  0  0
   64.1540   34.1720   51.1550 C   0  0  0  0  0  0  0  0  0  0  0  0
   62.9900   34.2790   50.3930 C   0  0  0  0  0  0  0  0  0  0  0  0
   60.3220   33.7620   48.9860 C   0  0  0  0  0  0  0  0  0  0  0  0
   59.2950   34.5400   48.1660 C   0  0  0  0  0  0  0  0  0  0  0  0
   57.0660   28.2280   45.4430 C   0  0  0  0  0  0  0  0  0  0  0  0
   54.7680   27.0890   46.4560 H   0  0  0  0  0  0  0  0  0  0  0  0
   59.2221   25.9676   46.8431 H   0  0  0  0  0  0  0  0  0  0  0  0
   60.7295   27.9550   46.7466 H   0  0  0  0  0  0  0  0  0  0  0  0
   59.8985   30.1158   45.8229 H   0  0  0  0  0  0  0  0  0  0  0  0
   59.3360   31.6350   44.8080 H   0  0  0  0  0  0  0  0  0  0  0  0
   58.7011   33.1574   43.0547 H   0  0  0  0  0  0  0  0  0  0  0  0
   56.9685   32.6889   43.2820 H   0  0  0  0  0  0  0  0  0  0  0  0
   58.3926   34.9108   44.4305 H   0  0  0  0  0  0  0  0  0  0  0  0
   56.6630   34.4208   44.6493 H   0  0  0  0  0  0  0  0  0  0  0  0
   60.4799   32.9156   45.4813 H   0  0  0  0  0  0  0  0  0  0  0  0
   60.6418   34.7337   45.4207 H   0  0  0  0  0  0  0  0  0  0  0  0
   62.7348   33.7635   46.4913 H   0  0  0  0  0  0  0  0  0  0  0  0
   63.9557   32.4265   47.6738 H   0  0  0  0  0  0  0  0  0  0  0  0
   66.0296   32.2423   49.0519 H   0  0  0  0  0  0  0  0  0  0  0  0
   66.1595   33.3570   51.2781 H   0  0  0  0  0  0  0  0  0  0  0  0
   64.2140   34.6642   52.1369 H   0  0  0  0  0  0  0  0  0  0  0  0
   62.1328   34.8480   50.7821 H   0  0  0  0  0  0  0  0  0  0  0  0
   59.9805   32.7225   49.0992 H   0  0  0  0  0  0  0  0  0  0  0  0
   60.4230   34.2412   49.9710 H   0  0  0  0  0  0  0  0  0  0  0  0
   58.3017   34.4361   48.6270 H   0  0  0  0  0  0  0  0  0  0  0  0
   59.5744   35.6036   48.1384 H   0  0  0  0  0  0  0  0  0  0  0  0
   56.0288   28.3040   45.0847 H   0  0  0  0  0  0  0  0  0  0  0  0
  1  2  1  0
  2  3  2  0
  2  4  2  0
  2  5  1  0
  5  6  2  0
  6  7  1  0
  7  8  2  0
  8  9  1  0
  9 10  1  0
 10 11  2  0
 10 12  1  0
 12 13  1  0
 13 14  1  0
 14 15  1  0
 15 16  2  0
 15 17  1  0
 17 18  1  0
 18 19  1  0
 19 20  2  0
 20 21  1  0
 21 22  2  0
 22 23  1  0
 23 24  2  0
 24 25  1  0
 25 26  2  0
 20 27  1  0
 27 28  1  0
  9 29  2  0
 29  5  1  0
 28 17  1  0
 26 21  1  0
  1 30  1  0
  6 31  1  0
  7 32  1  0
  8 33  1  0
 12 34  1  0
 13 35  1  0
 13 36  1  0
 14 37  1  0
 14 38  1  0
 18 39  1  0
 18 40  1  0
 19 41  1  0
 22 42  1  0
 23 43  1  0
 24 44  1  0
 25 45  1  0
 26 46  1  0
 27 47  1  0
 27 48  1  0
 28 49  1  0
 28 50  1  0
 29 51  1  0
M  CHG  1   1  -1
M  END
>  <UniqueID>  (42) 
39

>  <SMILES>  (42) 
[NH-]S(=O)(=O)c1cccc(C(=O)NCCC(=O)N2CC=C(c3ccccc3)CC2)c1

>  <Energy>  (42) 
57.325956219502515

>  <Genealogy>  (42) 
[NH-]S(=O)(=O)c1cccc(C(=O)NCCC(=O)N2CC=C(c3ccccc3)CC2)c1 (protonated)
[NH-]S(=O)(=O)c1cccc(C(=O)NCCC(=O)N2CC=C(c3ccccc3)CC2)c1 (3D coordinates assigned)
[NH-]S(=O)(=O)c1cccc(C(=O)NCCC(=O)N2CC=C(c3ccccc3)CC2)c1 (nonaromatic ring conformer: 57.325956219502515 kcal/mol)

>  <smiles>  (42) 
NS(=O)(=O)c1cccc(C(=O)NCCC(=O)N2CC=C(c3ccccc3)CC2)c1

>  <score_type>  (42) 
oracle

>  <origin>  (42) 
adg

>  <m_score__min__energy>  (42) 
-13.24

>  <m_primary>  (42) 
energy

$$$$
42:0
     RDKit          3D

 67 72  0  0  0  0  0  0  0  0999 V2000
   50.6380   22.8180   45.5520 C   0  0  0  0  0  0  0  0  0  0  0  0
   51.7920   22.1150   46.1930 C   0  0  0  0  0  0  0  0  0  0  0  0
   51.5920   21.2870   47.3030 C   0  0  0  0  0  0  0  0  0  0  0  0
   52.6820   20.6280   47.8720 C   0  0  0  0  0  0  0  0  0  0  0  0
   53.9640   20.7990   47.3380 C   0  0  0  0  0  0  0  0  0  0  0  0
   55.0650   20.1180   47.9520 N   0  0  0  0  0  0  0  0  0  0  0  0
   56.1280   20.7620   48.6620 C   0  0  0  0  0  0  0  0  0  0  0  0
   57.0200   21.3580   48.0050 O   0  0  0  0  0  0  0  0  0  0  0  0
   56.1830   20.7210   50.1000 N   0  0  0  0  0  0  0  0  0  0  0  0
   57.2150   21.3420   50.8850 C   0  0  0  0  0  0  0  0  0  0  0  0
   57.7010   20.7580   52.0650 C   0  0  0  0  0  0  0  0  0  0  0  0
   58.6870   21.4060   52.8120 C   0  0  0  0  0  0  0  0  0  0  0  0
   59.1700   22.6450   52.3840 C   0  0  0  0  0  0  0  0  0  0  0  0
   60.1610   23.2930   53.1290 O   0  0  0  0  0  0  0  0  0  0  0  0
   60.6080   24.5860   52.8350 C   0  0  0  0  0  0  0  0  0  0  0  0
   61.8030   24.7280   52.1290 C   0  0  0  0  0  0  0  0  0  0  0  0
   62.2690   25.9880   51.7670 C   0  0  0  0  0  0  0  0  0  0  0  0
   61.5540   27.1440   52.1090 C   0  0  0  0  0  0  0  0  0  0  0  0
   62.0690   28.4480   51.6290 C   0  0  0  0  0  0  0  0  0  0  0  0
   61.4890   29.0900   50.5300 C   0  0  0  0  0  0  0  0  0  0  0  0
   61.9570   30.2990   50.1250 N   0  0  0  0  0  0  0  0  0  0  0  0
   62.9780   30.9170   50.7820 C   0  0  0  0  0  0  0  0  0  0  0  0
   63.4420   32.0650   50.3810 N   0  0  0  0  0  0  0  0  0  0  0  0
   63.1490   32.7310   49.1410 C   0  0  0  0  0  0  0  0  0  0  0  0
   64.0920   32.8170   48.0980 C   0  0  0  0  0  0  0  0  0  0  0  0
   63.7530   33.4400   46.8930 C   0  0  0  0  0  0  0  0  0  0  0  0
   62.4710   33.9630   46.7110 C   0  0  0  0  0  0  0  0  0  0  0  0
   61.5200   33.8530   47.7290 C   0  0  0  0  0  0  0  0  0  0  0  0
   61.8550   33.2300   48.9350 C   0  0  0  0  0  0  0  0  0  0  0  0
   63.5510   30.3090   51.8530 N   0  0  0  0  0  0  0  0  0  0  0  0
   63.1150   29.1000   52.2920 C   0  0  0  0  0  0  0  0  0  0  0  0
   60.3680   27.0270   52.8800 C   0  0  0  0  0  0  0  0  0  0  0  0
   59.6600   28.1630   53.3290 C   0  0  0  0  0  0  0  0  0  0  0  0
   58.5040   28.0230   54.1000 C   0  0  0  0  0  0  0  0  0  0  0  0
   58.0420   26.7570   54.4490 C   0  0  0  0  0  0  0  0  0  0  0  0
   58.7330   25.6190   54.0340 C   0  0  0  0  0  0  0  0  0  0  0  0
   59.8940   25.7340   53.2440 C   0  0  0  0  0  0  0  0  0  0  0  0
   58.6720   23.2070   51.2470 N   0  0  0  0  0  0  0  0  0  0  0  0
   57.7130   22.5950   50.5040 C   0  0  0  0  0  0  0  0  0  0  0  0
   54.1200   21.5920   46.1780 C   0  0  0  0  0  0  0  0  0  0  0  0
   55.4440   21.7500   45.4920 C   0  0  0  0  0  0  0  0  0  0  0  0
   53.0370   22.2300   45.6550 N   0  0  0  0  0  0  0  0  0  0  0  0
   49.9755   23.2216   46.3319 H   0  0  0  0  0  0  0  0  0  0  0  0
   51.0121   23.6418   44.9263 H   0  0  0  0  0  0  0  0  0  0  0  0
   50.0776   22.1077   44.9263 H   0  0  0  0  0  0  0  0  0  0  0  0
   50.5839   21.1568   47.7234 H   0  0  0  0  0  0  0  0  0  0  0  0
   52.5333   19.9723   48.7426 H   0  0  0  0  0  0  0  0  0  0  0  0
   55.3780   20.3030   50.6160 H   0  0  0  0  0  0  0  0  0  0  0  0
   57.3048   19.7887   52.4018 H   0  0  0  0  0  0  0  0  0  0  0  0
   59.0801   20.9446   53.7299 H   0  0  0  0  0  0  0  0  0  0  0  0
   62.3830   23.8342   51.8557 H   0  0  0  0  0  0  0  0  0  0  0  0
   63.2105   26.0781   51.2053 H   0  0  0  0  0  0  0  0  0  0  0  0
   60.6538   28.6157   49.9937 H   0  0  0  0  0  0  0  0  0  0  0  0
   65.0980   32.3928   48.2319 H   0  0  0  0  0  0  0  0  0  0  0  0
   64.4974   33.5183   46.0870 H   0  0  0  0  0  0  0  0  0  0  0  0
   62.2097   34.4617   45.7660 H   0  0  0  0  0  0  0  0  0  0  0  0
   60.5075   34.2567   47.5814 H   0  0  0  0  0  0  0  0  0  0  0  0
   61.0985   33.1307   49.7273 H   0  0  0  0  0  0  0  0  0  0  0  0
   63.5847   28.6325   53.1700 H   0  0  0  0  0  0  0  0  0  0  0  0
   60.0226   29.1684   53.0689 H   0  0  0  0  0  0  0  0  0  0  0  0
   57.9562   28.9169   54.4329 H   0  0  0  0  0  0  0  0  0  0  0  0
   57.1291   26.6540   55.0540 H   0  0  0  0  0  0  0  0  0  0  0  0
   58.3685   24.6230   54.3259 H   0  0  0  0  0  0  0  0  0  0  0  0
   57.3257   23.0857   49.5989 H   0  0  0  0  0  0  0  0  0  0  0  0
   56.2389   21.8449   46.2465 H   0  0  0  0  0  0  0  0  0  0  0  0
   55.6386   20.8687   44.8632 H   0  0  0  0  0  0  0  0  0  0  0  0
   55.4258   22.6523   44.8632 H   0  0  0  0  0  0  0  0  0  0  0  0
  1  2  1  0
  2  3  2  0
  3  4  1  0
  4  5  2  0
  5  6  1  0
  6  7  1  0
  7  8  2  0
  7  9  1  0
  9 10  1  0
 10 11  2  0
 11 12  1  0
 12 13  2  0
 13 14  1  0
 14 15  1  0
 15 16  2  0
 16 17  1  0
 17 18  2  0
 18 19  1  0
 19 20  1  0
 20 21  2  0
 21 22  1  0
 22 23  2  3
 23 24  1  0
 24 25  2  0
 25 26  1  0
 26 27  2  0
 27 28  1  0
 28 29  2  0
 22 30  1  0
 30 31  1  0
 18 32  1  0
 32 33  2  0
 33 34  1  0
 34 35  2  0
 35 36  1  0
 36 37  2  0
 13 38  1  0
 38 39  2  0
  5 40  1  0
 40 41  1  0
 40 42  2  0
 42  2  1  0
 39 10  1  0
 37 15  1  0
 31 19  2  0
 37 32  1  0
 29 24  1  0
  1 43  1  0
  1 44  1  0
  1 45  1  0
  3 46  1  0
  4 47  1  0
  9 48  1  0
 11 49  1  0
 12 50  1  0
 16 51  1  0
 17 52  1  0
 20 53  1  0
 25 54  1  0
 26 55  1  0
 27 56  1  0
 28 57  1  0
 29 58  1  0
 31 59  1  0
 33 60  1  0
 34 61  1  0
 35 62  1  0
 36 63  1  0
 39 64  1  0
 41 65  1  0
 41 66  1  0
 41 67  1  0
M  CHG  2   6  -1  30  -1
M  END
>  <UniqueID>  (43) 
40

>  <SMILES>  (43) 
Cc1ccc([N-]C(=O)Nc2ccc(Oc3ccc(-c4cnc(=Nc5ccccc5)[n-]c4)c4ccccc34)nc2)c(C)n1

>  <Energy>  (43) 
113.29954125188641

>  <Genealogy>  (43) 
Cc1ccc([N-]C(=O)Nc2ccc(Oc3ccc(-c4cnc(=Nc5ccccc5)[n-]c4)c4ccccc34)nc2)c(C)n1 (protonated)
Cc1ccc([N-]C(=O)Nc2ccc(Oc3ccc(-c4cnc(=Nc5ccccc5)[n-]c4)c4ccccc34)nc2)c(C)n1 (3D coordinates assigned)
Cc1ccc([N-]C(=O)Nc2ccc(Oc3ccc(-c4cnc(=Nc5ccccc5)[n-]c4)c4ccccc34)nc2)c(C)n1 (optimized conformer: 113.29954125188641 kcal/mol)

>  <smiles>  (43) 
Cc1ccc(NC(=O)Nc2ccc(Oc3ccc(-c4cnc(=Nc5ccccc5)[nH]c4)c4ccccc34)nc2)c(C)n1

>  <score_type>  (43) 
oracle

>  <origin>  (43) 
adg

>  <m_score__min__energy>  (43) 
-11.99

>  <m_primary>  (43) 
energy

$$$$
43:0
     RDKit          3D

 59 62  0  0  0  0  0  0  0  0999 V2000
   61.3350   26.7450   49.9440 O   0  0  0  0  0  0  0  0  0  0  0  0
   60.4470   27.2550   49.2120 C   0  0  0  0  0  0  0  0  0  0  0  0
   60.4120   28.7380   48.9960 C   0  0  0  0  0  0  0  0  0  0  0  0
   61.1470   29.4520   50.1390 C   0  0  0  0  0  0  0  0  0  0  0  0
   60.2100   30.2350   51.0060 C   0  0  0  0  0  0  0  0  0  0  0  0
   60.5740   31.1080   52.0260 C   0  0  0  0  0  0  0  0  0  0  0  0
   59.4830   31.7720   52.5980 C   0  0  0  0  0  0  0  0  0  0  0  0
   58.2630   31.4230   52.0250 C   0  0  0  0  0  0  0  0  0  0  0  0
   56.9290   32.0020   52.3810 C   0  0  0  0  0  0  0  0  0  0  0  0
   55.9070   30.9080   52.5310 C   0  0  0  0  0  0  0  0  0  0  0  0
   56.2190   29.7380   53.2460 C   0  0  0  0  0  0  0  0  0  0  0  0
   55.2700   28.7180   53.3750 C   0  0  0  0  0  0  0  0  0  0  0  0
   54.0090   28.8550   52.7840 C   0  0  0  0  0  0  0  0  0  0  0  0
   53.6980   30.0070   52.0550 C   0  0  0  0  0  0  0  0  0  0  0  0
   54.6440   31.0300   51.9240 C   0  0  0  0  0  0  0  0  0  0  0  0
   58.5370   30.3070   50.7950 S   0  0  0  0  0  0  0  0  0  0  0  0
   59.5230   26.4240   48.4980 N   0  0  0  0  0  0  0  0  0  0  0  0
   59.5910   26.1710   47.0630 C   0  0  0  0  0  0  0  0  0  0  0  0
   58.4150   26.8360   46.4120 C   0  0  0  0  0  0  0  0  0  0  0  0
   58.5640   28.1150   45.9770 N   0  0  0  0  0  0  0  0  0  0  0  0
   57.5400   28.8590   45.4770 C   0  0  0  0  0  0  0  0  0  0  0  0
   57.7930   30.2660   45.0720 C   0  0  0  0  0  0  0  0  0  0  0  0
   56.8380   30.9740   44.6610 O   0  0  0  0  0  0  0  0  0  0  0  0
   59.1000   30.8610   45.1350 N   0  0  0  0  0  0  0  0  0  0  0  0
   60.1170   30.5500   46.1330 C   0  0  0  0  0  0  0  0  0  0  0  0
   60.1110   31.5830   47.2240 C   0  0  0  0  0  0  0  0  0  0  0  0
   58.8950   32.0900   47.7110 C   0  0  0  0  0  0  0  0  0  0  0  0
   58.8910   33.0050   48.7660 C   0  0  0  0  0  0  0  0  0  0  0  0
   60.0970   33.4310   49.3330 C   0  0  0  0  0  0  0  0  0  0  0  0
   60.0860   34.3090   50.3660 F   0  0  0  0  0  0  0  0  0  0  0  0
   61.3120   32.9450   48.8400 C   0  0  0  0  0  0  0  0  0  0  0  0
   61.3220   32.0300   47.7850 C   0  0  0  0  0  0  0  0  0  0  0  0
   56.2590   28.2770   45.3880 C   0  0  0  0  0  0  0  0  0  0  0  0
   55.1770   28.9950   44.8890 O   0  0  0  0  0  0  0  0  0  0  0  0
   56.0670   26.9640   45.8380 C   0  0  0  0  0  0  0  0  0  0  0  0
   54.8010   26.3900   45.7850 O   0  0  0  0  0  0  0  0  0  0  0  0
   57.1430   26.2370   46.3610 C   0  0  0  0  0  0  0  0  0  0  0  0
   56.9420   24.9440   46.8350 O   0  0  0  0  0  0  0  0  0  0  0  0
   60.9021   28.9788   48.0411 H   0  0  0  0  0  0  0  0  0  0  0  0
   59.3652   29.0752   48.9733 H   0  0  0  0  0  0  0  0  0  0  0  0
   61.6580   28.6994   50.7575 H   0  0  0  0  0  0  0  0  0  0  0  0
   61.8657   30.1556   49.6936 H   0  0  0  0  0  0  0  0  0  0  0  0
   61.6140   31.2609   52.3501 H   0  0  0  0  0  0  0  0  0  0  0  0
   59.5797   32.4977   53.4189 H   0  0  0  0  0  0  0  0  0  0  0  0
   57.0138   32.5517   53.3300 H   0  0  0  0  0  0  0  0  0  0  0  0
   56.6090   32.6824   51.5781 H   0  0  0  0  0  0  0  0  0  0  0  0
   57.2121   29.6244   53.7052 H   0  0  0  0  0  0  0  0  0  0  0  0
   55.5154   27.8076   53.9415 H   0  0  0  0  0  0  0  0  0  0  0  0
   53.2615   28.0554   52.8930 H   0  0  0  0  0  0  0  0  0  0  0  0
   52.7091   30.1092   51.5842 H   0  0  0  0  0  0  0  0  0  0  0  0
   54.3991   31.9323   51.3445 H   0  0  0  0  0  0  0  0  0  0  0  0
   60.5251   26.5854   46.6560 H   0  0  0  0  0  0  0  0  0  0  0  0
   59.5709   25.0887   46.8673 H   0  0  0  0  0  0  0  0  0  0  0  0
   59.9079   29.5616   46.5681 H   0  0  0  0  0  0  0  0  0  0  0  0
   61.1045   30.5475   45.6484 H   0  0  0  0  0  0  0  0  0  0  0  0
   57.9450   31.7660   47.2610 H   0  0  0  0  0  0  0  0  0  0  0  0
   57.9366   33.3920   49.1524 H   0  0  0  0  0  0  0  0  0  0  0  0
   62.2601   33.2835   49.2833 H   0  0  0  0  0  0  0  0  0  0  0  0
   62.2792   31.6575   47.3913 H   0  0  0  0  0  0  0  0  0  0  0  0
  1  2  2  0
  2  3  1  0
  3  4  1  0
  4  5  1  0
  5  6  2  0
  6  7  1  0
  7  8  2  0
  8  9  1  0
  9 10  1  0
 10 11  2  0
 11 12  1  0
 12 13  2  0
 13 14  1  0
 14 15  2  0
  8 16  1  0
  2 17  1  0
 17 18  1  0
 18 19  1  0
 19 20  2  0
 20 21  1  0
 21 22  1  0
 22 23  2  0
 22 24  1  0
 24 25  1  0
 25 26  1  0
 26 27  2  0
 27 28  1  0
 28 29  2  0
 29 30  1  0
 29 31  1  0
 31 32  2  0
 21 33  2  0
 33 34  1  0
 33 35  1  0
 35 36  1  0
 35 37  2  0
 37 38  1  0
 16  5  1  0
 37 19  1  0
 15 10  1  0
 32 26  1  0
  3 39  1  0
  3 40  1  0
  4 41  1  0
  4 42  1  0
  6 43  1  0
  7 44  1  0
  9 45  1  0
  9 46  1  0
 11 47  1  0
 12 48  1  0
 13 49  1  0
 14 50  1  0
 15 51  1  0
 18 52  1  0
 18 53  1  0
 25 54  1  0
 25 55  1  0
 27 56  1  0
 28 57  1  0
 31 58  1  0
 32 59  1  0
M  CHG  5  17  -1  24  -1  34  -1  36  -1  38  -1
M  END
>  <UniqueID>  (44) 
41

>  <SMILES>  (44) 
O=C(CCc1ccc(Cc2ccccc2)s1)[N-]Cc1nc(C(=O)[N-]Cc2ccc(F)cc2)c([O-])c([O-])c1[O-]

>  <Energy>  (44) 
80.4387026776157

>  <Genealogy>  (44) 
O=C(CCc1ccc(Cc2ccccc2)s1)[N-]Cc1nc(C(=O)[N-]Cc2ccc(F)cc2)c([O-])c([O-])c1[O-] (protonated)
O=C(CCc1ccc(Cc2ccccc2)s1)[N-]Cc1nc(C(=O)[N-]Cc2ccc(F)cc2)c([O-])c([O-])c1[O-] (3D coordinates assigned)
O=C(CCc1ccc(Cc2ccccc2)s1)[N-]Cc1nc(C(=O)[N-]Cc2ccc(F)cc2)c([O-])c([O-])c1[O-] (optimized conformer: 80.4387026776157 kcal/mol)

>  <smiles>  (44) 
O=C(CCc1ccc(Cc2ccccc2)s1)NCc1nc(C(=O)NCc2ccc(F)cc2)c(O)c(O)c1O

>  <score_type>  (44) 
oracle

>  <origin>  (44) 
adg

>  <m_score__min__energy>  (44) 
-19.800000000000001

>  <m_primary>  (44) 
energy

$$$$
44:0
     RDKit          3D

 39 42  0  0  0  0  0  0  0  0999 V2000
   55.9190   28.0090   45.2610 N   0  0  0  0  0  0  0  0  0  0  0  0
   56.6160   27.1080   46.1190 C   0  0  0  0  0  0  0  0  0  0  0  0
   56.0920   25.9900   46.3750 O   0  0  0  0  0  0  0  0  0  0  0  0
   57.9360   27.4650   46.7070 C   0  0  0  0  0  0  0  0  0  0  0  0
   58.1830   28.7980   47.0890 C   0  0  0  0  0  0  0  0  0  0  0  0
   59.4240   29.1940   47.6310 C   0  0  0  0  0  0  0  0  0  0  0  0
   59.6230   30.6520   48.0660 C   0  0  1  0  0  0  0  0  0  0  0  0
   58.8750   31.6550   47.1780 C   0  0  0  0  0  0  0  0  0  0  0  0
   58.1050   32.6810   47.7690 C   0  0  0  0  0  0  0  0  0  0  0  0
   57.3740   33.5720   46.9800 C   0  0  0  0  0  0  0  0  0  0  0  0
   57.3750   33.4430   45.5900 C   0  0  0  0  0  0  0  0  0  0  0  0
   56.6480   34.3320   44.8080 O   0  0  0  0  0  0  0  0  0  0  0  0
   58.1020   32.4130   44.9880 C   0  0  0  0  0  0  0  0  0  0  0  0
   58.8350   31.5190   45.7720 C   0  0  0  0  0  0  0  0  0  0  0  0
   59.2600   30.7600   49.5330 C   0  0  0  0  0  0  0  0  0  0  0  0
   58.1140   30.5090   49.9920 O   0  0  0  0  0  0  0  0  0  0  0  0
   60.3340   31.1820   50.3690 N   0  0  0  0  0  0  0  0  0  0  0  0
   61.4100   31.3580   49.4650 C   0  0  0  0  0  0  0  0  0  0  0  0
   61.0670   31.0750   48.1570 C   0  0  0  0  0  0  0  0  0  0  0  0
   62.0040   31.2080   47.1270 C   0  0  0  0  0  0  0  0  0  0  0  0
   63.3040   31.6290   47.4490 C   0  0  0  0  0  0  0  0  0  0  0  0
   63.6500   31.9130   48.7840 C   0  0  0  0  0  0  0  0  0  0  0  0
   64.9090   32.3190   49.0820 F   0  0  0  0  0  0  0  0  0  0  0  0
   62.6950   31.7790   49.8050 C   0  0  0  0  0  0  0  0  0  0  0  0
   63.0160   32.0530   51.0940 F   0  0  0  0  0  0  0  0  0  0  0  0
   60.4040   28.2050   47.8420 C   0  0  0  0  0  0  0  0  0  0  0  0
   60.1730   26.8830   47.4680 C   0  0  0  0  0  0  0  0  0  0  0  0
   58.9560   26.5060   46.8980 C   0  0  0  0  0  0  0  0  0  0  0  0
   58.7790   25.1750   46.5340 O   0  0  0  0  0  0  0  0  0  0  0  0
   55.1680   28.6330   45.6310 H   0  0  0  0  0  0  0  0  0  0  0  0
   57.3890   29.5486   46.9617 H   0  0  0  0  0  0  0  0  0  0  0  0
   58.0807   32.7796   48.8643 H   0  0  0  0  0  0  0  0  0  0  0  0
   56.7957   34.3779   47.4554 H   0  0  0  0  0  0  0  0  0  0  0  0
   58.0972   32.3057   43.8933 H   0  0  0  0  0  0  0  0  0  0  0  0
   59.3876   30.6995   45.2893 H   0  0  0  0  0  0  0  0  0  0  0  0
   61.7278   30.9871   46.0854 H   0  0  0  0  0  0  0  0  0  0  0  0
   64.0564   31.7376   46.6540 H   0  0  0  0  0  0  0  0  0  0  0  0
   61.3623   28.4792   48.3072 H   0  0  0  0  0  0  0  0  0  0  0  0
   60.9580   26.1283   47.6236 H   0  0  0  0  0  0  0  0  0  0  0  0
  1  2  1  0
  2  3  2  0
  2  4  1  0
  4  5  2  0
  5  6  1  0
  7  6  1  6
  7  8  1  0
  8  9  2  0
  9 10  1  0
 10 11  2  0
 11 12  1  0
 11 13  1  0
 13 14  2  0
  7 15  1  0
 15 16  2  0
 15 17  1  0
 17 18  1  0
 18 19  2  0
 19 20  1  0
 20 21  2  0
 21 22  1  0
 22 23  1  0
 22 24  2  0
 24 25  1  0
  6 26  2  0
 26 27  1  0
 27 28  2  0
 28 29  1  0
 28  4  1  0
 19  7  1  0
 14  8  1  0
 24 18  1  0
  1 30  1  0
  5 31  1  0
  9 32  1  0
 10 33  1  0
 13 34  1  0
 14 35  1  0
 20 36  1  0
 21 37  1  0
 26 38  1  0
 27 39  1  0
M  CHG  4   1  -1  12  -1  17  -1  29  -1
M  END
>  <UniqueID>  (45) 
42

>  <SMILES>  (45) 
[NH-]C(=O)c1cc([C@@]2(c3ccc([O-])cc3)C(=O)[N-]c3c2ccc(F)c3F)ccc1[O-]

>  <Energy>  (45) 
72.73630764578053

>  <Genealogy>  (45) 
[NH-]C(=O)c1cc(C2(c3ccc([O-])cc3)C(=O)[N-]c3c2ccc(F)c3F)ccc1[O-] (protonated)
[NH-]C(=O)c1cc([C@@]2(c3ccc([O-])cc3)C(=O)[N-]c3c2ccc(F)c3F)ccc1[O-] (chirality)
[NH-]C(=O)c1cc([C@@]2(c3ccc([O-])cc3)C(=O)[N-]c3c2ccc(F)c3F)ccc1[O-] (3D coordinates assigned)
[NH-]C(=O)c1cc([C@@]2(c3ccc([O-])cc3)C(=O)[N-]c3c2ccc(F)c3F)ccc1[O-] (nonaromatic ring conformer: 72.73630764578053 kcal/mol)

>  <smiles>  (45) 
NC(=O)c1cc(C2(c3ccc(O)cc3)C(=O)Nc3c2ccc(F)c3F)ccc1O

>  <score_type>  (45) 
oracle

>  <origin>  (45) 
adg

>  <m_score__min__energy>  (45) 
-13.16

>  <m_primary>  (45) 
energy

$$$$
45:0
     RDKit          3D

 49 51  0  0  0  0  0  0  0  0999 V2000
   50.2570   34.5650   53.8610 C   0  0  0  0  0  0  0  0  0  0  0  0
   50.5180   33.0650   53.9600 C   0  0  0  0  0  0  0  0  0  0  0  0
   50.0920   32.3440   52.6800 C   0  0  0  0  0  0  0  0  0  0  0  0
   51.1080   32.5290   51.6530 N   0  0  0  0  0  0  0  0  0  0  0  0
   51.8130   31.4350   51.0560 C   0  0  0  0  0  0  0  0  0  0  0  0
   51.3880   30.9180   49.9860 O   0  0  0  0  0  0  0  0  0  0  0  0
   53.0360   30.9140   51.6820 C   0  0  0  0  0  0  0  0  0  0  0  0
   53.1300   29.6400   52.2430 C   0  0  0  0  0  0  0  0  0  0  0  0
   54.6890   29.4580   52.8460 S   0  0  0  0  0  0  0  0  0  0  0  0
   55.1710   30.9980   52.3750 C   0  0  0  0  0  0  0  0  0  0  0  0
   56.5490   31.5560   52.5360 C   0  0  0  0  0  0  0  0  0  0  0  0
   57.4750   30.8910   51.6770 O   0  0  0  0  0  0  0  0  0  0  0  0
   58.3020   31.5190   50.7320 C   0  0  0  0  0  0  0  0  0  0  0  0
   58.9590   32.6950   51.1140 C   0  0  0  0  0  0  0  0  0  0  0  0
   59.7960   33.3640   50.2170 C   0  0  0  0  0  0  0  0  0  0  0  0
   59.9810   32.8640   48.9250 C   0  0  0  0  0  0  0  0  0  0  0  0
   59.3300   31.6870   48.5230 C   0  0  0  0  0  0  0  0  0  0  0  0
   59.5040   31.1680   47.1170 C   0  0  0  0  0  0  0  0  0  0  0  0
   59.2210   29.6630   47.0170 C   0  0  0  0  0  0  0  0  0  0  0  0
   57.9960   29.3740   46.1940 C   0  0  0  0  0  0  0  0  0  0  0  0
   57.4860   30.3240   45.3030 C   0  0  0  0  0  0  0  0  0  0  0  0
   56.3340   30.0080   44.5810 C   0  0  0  0  0  0  0  0  0  0  0  0
   55.8350   30.8470   43.7870 O   0  0  0  0  0  0  0  0  0  0  0  0
   55.7490   28.7900   44.7340 N   0  0  0  0  0  0  0  0  0  0  0  0
   56.2660   27.8700   45.5930 C   0  0  0  0  0  0  0  0  0  0  0  0
   55.7010   26.7160   45.7290 N   0  0  0  0  0  0  0  0  0  0  0  0
   57.3760   28.1670   46.3160 N   0  0  0  0  0  0  0  0  0  0  0  0
   58.4930   31.0150   49.4310 C   0  0  0  0  0  0  0  0  0  0  0  0
   54.1720   31.6590   51.7530 N   0  0  0  0  0  0  0  0  0  0  0  0
   50.1827   34.9918   54.8721 H   0  0  0  0  0  0  0  0  0  0  0  0
   51.0849   35.0463   53.3198 H   0  0  0  0  0  0  0  0  0  0  0  0
   49.3152   34.7384   53.3198 H   0  0  0  0  0  0  0  0  0  0  0  0
   51.5926   32.8979   54.1253 H   0  0  0  0  0  0  0  0  0  0  0  0
   49.9297   32.6636   54.7983 H   0  0  0  0  0  0  0  0  0  0  0  0
   49.9724   31.2703   52.8873 H   0  0  0  0  0  0  0  0  0  0  0  0
   49.1367   32.7600   52.3275 H   0  0  0  0  0  0  0  0  0  0  0  0
   52.3275   28.8888   52.2836 H   0  0  0  0  0  0  0  0  0  0  0  0
   56.5342   32.6275   52.2879 H   0  0  0  0  0  0  0  0  0  0  0  0
   56.8680   31.4054   53.5779 H   0  0  0  0  0  0  0  0  0  0  0  0
   58.8151   33.0955   52.1284 H   0  0  0  0  0  0  0  0  0  0  0  0
   60.3100   34.2854   50.5282 H   0  0  0  0  0  0  0  0  0  0  0  0
   60.6389   33.3945   48.2209 H   0  0  0  0  0  0  0  0  0  0  0  0
   58.8101   31.7041   46.4528 H   0  0  0  0  0  0  0  0  0  0  0  0
   60.5502   31.3359   46.8214 H   0  0  0  0  0  0  0  0  0  0  0  0
   60.0865   29.1690   46.5513 H   0  0  0  0  0  0  0  0  0  0  0  0
   59.0451   29.2819   48.0338 H   0  0  0  0  0  0  0  0  0  0  0  0
   57.9814   31.2977   45.1743 H   0  0  0  0  0  0  0  0  0  0  0  0
   55.2770   26.4170   46.6360 H   0  0  0  0  0  0  0  0  0  0  0  0
   57.9841   30.0896   49.1232 H   0  0  0  0  0  0  0  0  0  0  0  0
  1  2  1  0
  2  3  1  0
  3  4  1  0
  4  5  1  0
  5  6  2  0
  5  7  1  0
  7  8  2  0
  8  9  1  0
  9 10  1  0
 10 11  1  0
 11 12  1  0
 12 13  1  0
 13 14  2  0
 14 15  1  0
 15 16  2  0
 16 17  1  0
 17 18  1  0
 18 19  1  0
 19 20  1  0
 20 21  2  0
 21 22  1  0
 22 23  2  0
 22 24  1  0
 24 25  1  0
 25 26  2  3
 25 27  1  0
 17 28  2  0
 10 29  2  0
 29  7  1  0
 28 13  1  0
 27 20  1  0
  1 30  1  0
  1 31  1  0
  1 32  1  0
  2 33  1  0
  2 34  1  0
  3 35  1  0
  3 36  1  0
  8 37  1  0
 11 38  1  0
 11 39  1  0
 14 40  1  0
 15 41  1  0
 16 42  1  0
 18 43  1  0
 18 44  1  0
 19 45  1  0
 19 46  1  0
 21 47  1  0
 26 48  1  0
 28 49  1  0
M  CHG  3   4  -1  24  -1  27  -1
M  END
>  <UniqueID>  (46) 
43

>  <SMILES>  (46) 
CCC[N-]C(=O)c1csc(COc2cccc(CCc3cc(=O)[n-]c(=N)[n-]3)c2)n1

>  <Energy>  (46) 
64.01071572081977

>  <Genealogy>  (46) 
CCC[N-]C(=O)c1csc(COc2cccc(CCc3cc(=O)[n-]c(=N)[n-]3)c2)n1 (protonated)
CCC[N-]C(=O)c1csc(COc2cccc(CCc3cc(=O)[n-]c(=N)[n-]3)c2)n1 (3D coordinates assigned)
CCC[N-]C(=O)c1csc(COc2cccc(CCc3cc(=O)[n-]c(=N)[n-]3)c2)n1 (optimized conformer: 64.01071572081977 kcal/mol)

>  <smiles>  (46) 
CCCNC(=O)c1csc(COc2cccc(CCc3cc(=O)[nH]c(=N)[nH]3)c2)n1

>  <score_type>  (46) 
oracle

>  <origin>  (46) 
adg

>  <m_score__min__energy>  (46) 
-15.06

>  <m_primary>  (46) 
energy

$$$$
46:0
     RDKit          3D

 53 56  0  0  0  0  0  0  0  0999 V2000
   59.8600   27.0840   48.3700 C   0  0  0  0  0  0  0  0  0  0  0  0
   59.8920   28.1770   47.5920 C   0  0  0  0  0  0  0  0  0  0  0  0
   59.2160   28.3540   46.3730 C   0  0  0  0  0  0  0  0  0  0  0  0
   58.5660   27.4770   45.5850 C   0  0  0  0  0  0  0  0  0  0  0  0
   57.3000   26.8010   45.9160 C   0  0  0  0  0  0  0  0  0  0  0  0
   57.2050   25.5220   46.3240 N   0  0  0  0  0  0  0  0  0  0  0  0
   55.8730   25.3060   46.3670 C   0  0  0  0  0  0  0  0  0  0  0  0
   55.3770   24.2070   46.7260 O   0  0  0  0  0  0  0  0  0  0  0  0
   55.1160   26.3570   45.9880 N   0  0  0  0  0  0  0  0  0  0  0  0
   56.0330   27.2930   45.6920 C   0  0  0  0  0  0  0  0  0  0  0  0
   55.7090   28.5640   45.2270 O   0  0  0  0  0  0  0  0  0  0  0  0
   59.3480   29.6900   46.0510 C   0  0  0  0  0  0  0  0  0  0  0  0
   60.1390   30.2660   47.0220 C   0  0  0  0  0  0  0  0  0  0  0  0
   60.5640   31.6810   46.9890 C   0  0  0  0  0  0  0  0  0  0  0  0
   61.7840   31.9590   47.1440 O   0  0  0  0  0  0  0  0  0  0  0  0
   59.6240   32.7350   46.7050 N   0  0  0  0  0  0  0  0  0  0  0  0
   60.1070   33.9500   46.0240 C   0  0  0  0  0  0  0  0  0  0  0  0
   58.9990   34.9990   45.8280 C   0  0  0  0  0  0  0  0  0  0  0  0
   57.7180   34.3380   45.3990 C   0  0  0  0  0  0  0  0  0  0  0  0
   57.0240   34.8520   44.5360 O   0  0  0  0  0  0  0  0  0  0  0  0
   57.2690   33.0610   46.0570 C   0  0  0  0  0  0  0  0  0  0  0  0
   58.2310   32.6590   47.1780 C   0  0  0  0  0  0  0  0  0  0  0  0
   60.4850   29.3480   47.9600 N   0  0  0  0  0  0  0  0  0  0  0  0
   61.1880   29.6220   49.2270 C   0  0  0  0  0  0  0  0  0  0  0  0
   60.5080   30.7330   49.9880 C   0  0  0  0  0  0  0  0  0  0  0  0
   61.2300   31.8770   50.3670 C   0  0  0  0  0  0  0  0  0  0  0  0
   60.6010   32.9150   51.0590 C   0  0  0  0  0  0  0  0  0  0  0  0
   59.2380   32.8280   51.3790 C   0  0  0  0  0  0  0  0  0  0  0  0
   58.5730   33.9250   52.1570 C   0  0  0  0  0  0  0  0  0  0  0  0
   58.5220   31.6740   51.0310 C   0  0  0  0  0  0  0  0  0  0  0  0
   59.1510   30.6350   50.3380 C   0  0  0  0  0  0  0  0  0  0  0  0
   60.4334   27.0599   49.3084 H   0  0  0  0  0  0  0  0  0  0  0  0
   59.2604   26.2122   48.0693 H   0  0  0  0  0  0  0  0  0  0  0  0
   59.0195   27.2454   44.6100 H   0  0  0  0  0  0  0  0  0  0  0  0
   54.7830   28.9530   45.3580 H   0  0  0  0  0  0  0  0  0  0  0  0
   58.9050   30.1994   45.1825 H   0  0  0  0  0  0  0  0  0  0  0  0
   60.9114   34.3959   46.6275 H   0  0  0  0  0  0  0  0  0  0  0  0
   60.4645   33.6530   45.0270 H   0  0  0  0  0  0  0  0  0  0  0  0
   58.8321   35.5308   46.7763 H   0  0  0  0  0  0  0  0  0  0  0  0
   59.3132   35.7067   45.0467 H   0  0  0  0  0  0  0  0  0  0  0  0
   56.2640   33.2072   46.4795 H   0  0  0  0  0  0  0  0  0  0  0  0
   57.2545   32.2616   45.3016 H   0  0  0  0  0  0  0  0  0  0  0  0
   58.0994   33.3404   48.0314 H   0  0  0  0  0  0  0  0  0  0  0  0
   58.0123   31.6256   47.4851 H   0  0  0  0  0  0  0  0  0  0  0  0
   61.1888   28.7108   49.8432 H   0  0  0  0  0  0  0  0  0  0  0  0
   62.2187   29.9309   48.9985 H   0  0  0  0  0  0  0  0  0  0  0  0
   62.2983   31.9561   50.1171 H   0  0  0  0  0  0  0  0  0  0  0  0
   61.1771   33.8044   51.3542 H   0  0  0  0  0  0  0  0  0  0  0  0
   58.6893   33.7332   53.2339 H   0  0  0  0  0  0  0  0  0  0  0  0
   59.0391   34.8886   51.9038 H   0  0  0  0  0  0  0  0  0  0  0  0
   57.5030   33.9575   51.9038 H   0  0  0  0  0  0  0  0  0  0  0  0
   57.4602   31.5854   51.3044 H   0  0  0  0  0  0  0  0  0  0  0  0
   58.5797   29.7354   50.0652 H   0  0  0  0  0  0  0  0  0  0  0  0
  1  2  2  0
  2  3  1  0
  3  4  2  3
  4  5  1  0
  5  6  1  0
  6  7  1  0
  7  8  2  0
  7  9  1  0
  9 10  1  0
 10 11  1  0
  3 12  1  0
 12 13  2  0
 13 14  1  0
 14 15  2  0
 14 16  1  0
 16 17  1  0
 17 18  1  0
 18 19  1  0
 19 20  2  0
 19 21  1  0
 21 22  1  0
 13 23  1  0
 23 24  1  0
 24 25  1  0
 25 26  2  0
 26 27  1  0
 27 28  2  0
 28 29  1  0
 28 30  1  0
 30 31  2  0
 23  2  1  0
 31 25  1  0
 10  5  2  0
 22 16  1  0
  1 32  1  0
  1 33  1  0
  4 34  1  0
 11 35  1  0
 12 36  1  0
 17 37  1  0
 17 38  1  0
 18 39  1  0
 18 40  1  0
 21 41  1  0
 21 42  1  0
 22 43  1  0
 22 44  1  0
 24 45  1  0
 24 46  1  0
 26 47  1  0
 27 48  1  0
 29 49  1  0
 29 50  1  0
 29 51  1  0
 30 52  1  0
 31 53  1  0
M  CHG  2   6  -1   9  -1
M  END
>  <UniqueID>  (47) 
44

>  <SMILES>  (47) 
C=c1c(=Cc2[n-]c(=O)[n-]c2O)cc(C(=O)N2CCC(=O)CC2)n1Cc1ccc(C)cc1

>  <Energy>  (47) 
127.23534170786641

>  <Genealogy>  (47) 
C=c1c(=Cc2[n-]c(=O)[n-]c2O)cc(C(=O)N2CCC(=O)CC2)n1Cc1ccc(C)cc1 (protonated)
C=c1c(=Cc2[n-]c(=O)[n-]c2O)cc(C(=O)N2CCC(=O)CC2)n1Cc1ccc(C)cc1 (3D coordinates assigned)
C=c1c(=Cc2[n-]c(=O)[n-]c2O)cc(C(=O)N2CCC(=O)CC2)n1Cc1ccc(C)cc1 (nonaromatic ring conformer: 127.23534170786641 kcal/mol)

>  <smiles>  (47) 
C=c1c(=Cc2[nH]c(=O)[nH]c2O)cc(C(=O)N2CCC(=O)CC2)n1Cc1ccc(C)cc1

>  <score_type>  (47) 
oracle

>  <origin>  (47) 
adg

>  <m_score__min__energy>  (47) 
-13.32

>  <m_primary>  (47) 
energy

$$$$
47:0
     RDKit          3D

 43 45  0  0  0  0  0  0  0  0999 V2000
   59.2720   34.2250   54.4420 C   0  0  0  0  0  0  0  0  0  0  0  0
   58.2880   33.4590   53.7530 O   0  0  0  0  0  0  0  0  0  0  0  0
   58.3670   33.0980   52.3990 C   0  0  0  0  0  0  0  0  0  0  0  0
   59.4100   33.5470   51.5640 C   0  0  0  0  0  0  0  0  0  0  0  0
   59.4740   33.1470   50.2250 C   0  0  0  0  0  0  0  0  0  0  0  0
   60.5770   33.5800   49.4160 N   0  0  0  0  0  0  0  0  0  0  0  0
   60.8400   33.1620   48.0700 C   0  0  0  0  0  0  0  0  0  0  0  0
   61.9120   32.5460   47.8280 O   0  0  0  0  0  0  0  0  0  0  0  0
   59.8730   33.3960   46.9710 C   0  0  0  0  0  0  0  0  0  0  0  0
   59.8230   34.6340   46.3050 C   0  0  0  0  0  0  0  0  0  0  0  0
   58.9170   34.8390   45.2610 C   0  0  0  0  0  0  0  0  0  0  0  0
   58.0450   33.8180   44.8780 C   0  0  0  0  0  0  0  0  0  0  0  0
   58.0690   32.5880   45.5430 C   0  0  0  0  0  0  0  0  0  0  0  0
   57.1900   31.5800   45.1550 O   0  0  0  0  0  0  0  0  0  0  0  0
   58.9770   32.3800   46.5920 C   0  0  0  0  0  0  0  0  0  0  0  0
   58.4450   32.3550   49.6920 C   0  0  0  0  0  0  0  0  0  0  0  0
   57.4060   31.9110   50.5090 C   0  0  0  0  0  0  0  0  0  0  0  0
   57.3810   32.2480   51.8730 C   0  0  0  0  0  0  0  0  0  0  0  0
   56.3440   31.7580   52.7360 N   0  0  0  0  0  0  0  0  0  0  0  0
   55.4030   30.7250   52.4090 C   0  0  0  0  0  0  0  0  0  0  0  0
   55.8380   29.6350   51.9550 O   0  0  0  0  0  0  0  0  0  0  0  0
   53.9400   30.9230   52.5500 C   0  0  0  0  0  0  0  0  0  0  0  0
   53.2290   30.3180   53.6040 C   0  0  0  0  0  0  0  0  0  0  0  0
   51.8470   30.4980   53.7190 C   0  0  0  0  0  0  0  0  0  0  0  0
   51.1640   31.2890   52.7920 C   0  0  0  0  0  0  0  0  0  0  0  0
   51.8630   31.9090   51.7530 C   0  0  0  0  0  0  0  0  0  0  0  0
   51.1840   32.7020   50.8360 O   0  0  0  0  0  0  0  0  0  0  0  0
   53.2460   31.7330   51.6340 C   0  0  0  0  0  0  0  0  0  0  0  0
   59.1295   34.1140   55.5271 H   0  0  0  0  0  0  0  0  0  0  0  0
   60.2748   33.8675   54.1655 H   0  0  0  0  0  0  0  0  0  0  0  0
   59.1714   35.2849   54.1655 H   0  0  0  0  0  0  0  0  0  0  0  0
   60.1812   34.2185   51.9692 H   0  0  0  0  0  0  0  0  0  0  0  0
   60.5011   35.4455   46.6078 H   0  0  0  0  0  0  0  0  0  0  0  0
   58.8907   35.8072   44.7396 H   0  0  0  0  0  0  0  0  0  0  0  0
   57.3377   33.9814   44.0515 H   0  0  0  0  0  0  0  0  0  0  0  0
   57.4910   30.8120   44.5660 H   0  0  0  0  0  0  0  0  0  0  0  0
   58.9884   31.4160   47.1217 H   0  0  0  0  0  0  0  0  0  0  0  0
   58.4583   32.0837   48.6261 H   0  0  0  0  0  0  0  0  0  0  0  0
   56.6013   31.2934   50.0834 H   0  0  0  0  0  0  0  0  0  0  0  0
   53.7635   29.7005   54.3409 H   0  0  0  0  0  0  0  0  0  0  0  0
   51.2969   30.0160   54.5406 H   0  0  0  0  0  0  0  0  0  0  0  0
   50.0758   31.4238   52.8800 H   0  0  0  0  0  0  0  0  0  0  0  0
   53.7930   32.2308   50.8198 H   0  0  0  0  0  0  0  0  0  0  0  0
  1  2  1  0
  2  3  1  0
  3  4  2  0
  4  5  1  0
  5  6  1  0
  6  7  1  0
  7  8  2  0
  7  9  1  0
  9 10  2  0
 10 11  1  0
 11 12  2  0
 12 13  1  0
 13 14  1  0
 13 15  2  0
  5 16  2  0
 16 17  1  0
 17 18  2  0
 18 19  1  0
 19 20  1  0
 20 21  2  0
 20 22  1  0
 22 23  2  0
 23 24  1  0
 24 25  2  0
 25 26  1  0
 26 27  1  0
 26 28  2  0
 18  3  1  0
 28 22  1  0
 15  9  1  0
  1 29  1  0
  1 30  1  0
  1 31  1  0
  4 32  1  0
 10 33  1  0
 11 34  1  0
 12 35  1  0
 14 36  1  0
 15 37  1  0
 16 38  1  0
 17 39  1  0
 23 40  1  0
 24 41  1  0
 25 42  1  0
 28 43  1  0
M  CHG  3   6  -1  19  -1  27  -1
M  END
>  <UniqueID>  (48) 
45

>  <SMILES>  (48) 
COc1cc([N-]C(=O)c2cccc(O)c2)ccc1[N-]C(=O)c1cccc([O-])c1

>  <Energy>  (48) 
57.7772810409588

>  <Genealogy>  (48) 
COc1cc([N-]C(=O)c2cccc(O)c2)ccc1[N-]C(=O)c1cccc([O-])c1 (protonated)
COc1cc([N-]C(=O)c2cccc(O)c2)ccc1[N-]C(=O)c1cccc([O-])c1 (3D coordinates assigned)
COc1cc([N-]C(=O)c2cccc(O)c2)ccc1[N-]C(=O)c1cccc([O-])c1 (optimized conformer: 57.7772810409588 kcal/mol)

>  <smiles>  (48) 
COc1cc(NC(=O)c2cccc(O)c2)ccc1NC(=O)c1cccc(O)c1

>  <score_type>  (48) 
oracle

>  <origin>  (48) 
adg

>  <m_score__min__energy>  (48) 
-13.73

>  <m_primary>  (48) 
energy

$$$$
48:0
     RDKit          3D

 49 51  0  0  1  0  0  0  0  0999 V2000
   56.9970   30.4510   51.9220 C   0  0  0  0  0  0  0  0  0  0  0  0
   58.1960   30.7920   51.0780 C   0  0  0  0  0  0  0  0  0  0  0  0
   59.0370   29.8050   50.7330 N   0  0  0  0  0  0  0  0  0  0  0  0
   60.0940   30.1620   49.9770 C   0  0  0  0  0  0  0  0  0  0  0  0
   60.9630   29.2940   49.5900 N   0  0  0  0  0  0  0  0  0  0  0  0
   60.6300   28.2150   48.6820 C   0  0  0  0  0  0  0  0  0  0  0  0
   59.6340   28.6180   47.6520 C   0  0  0  0  0  0  0  0  0  0  0  0
   58.5090   27.8650   47.3820 C   0  0  0  0  0  0  0  0  0  0  0  0
   57.5760   28.2260   46.4290 C   0  0  0  0  0  0  0  0  0  0  0  0
   57.7490   29.3880   45.6990 C   0  0  0  0  0  0  0  0  0  0  0  0
   56.5480   29.8220   44.4980 S   0  0  0  0  0  0  0  0  0  0  0  0
   56.9230   29.1870   42.9460 N   0  0  0  0  0  0  0  0  0  0  0  0
   55.1720   29.3490   44.8720 O   0  0  0  0  0  0  0  0  0  0  0  0
   56.4790   31.3260   44.4360 O   0  0  0  0  0  0  0  0  0  0  0  0
   58.8660   30.1690   45.9470 C   0  0  0  0  0  0  0  0  0  0  0  0
   59.8030   29.7900   46.9130 C   0  0  0  0  0  0  0  0  0  0  0  0
   60.3040   31.4700   49.5760 C   0  0  0  0  0  0  0  0  0  0  0  0
   59.3950   32.4320   49.9700 C   0  0  0  0  0  0  0  0  0  0  0  0
   59.6480   33.8210   49.5250 C   0  0  0  0  0  0  0  0  0  0  0  0
   60.4650   33.8970   48.2620 C   0  0  0  0  0  0  0  0  0  0  0  0
   59.4540   33.9880   47.1470 C   0  0  0  0  0  0  0  0  0  0  0  0
   58.1970   33.4840   47.2640 C   0  0  0  0  0  0  0  0  0  0  0  0
   57.2470   33.5530   46.2510 C   0  0  0  0  0  0  0  0  0  0  0  0
   57.6290   34.1780   45.0620 C   0  0  0  0  0  0  0  0  0  0  0  0
   58.9070   34.6910   44.9440 C   0  0  0  0  0  0  0  0  0  0  0  0
   59.8370   34.6080   45.9690 C   0  0  0  0  0  0  0  0  0  0  0  0
   58.3410   32.0700   50.7250 N   0  0  0  0  0  0  0  0  0  0  0  0
   57.2642   30.5270   52.9863 H   0  0  0  0  0  0  0  0  0  0  0  0
   56.1796   31.1523   51.6982 H   0  0  0  0  0  0  0  0  0  0  0  0
   56.6710   29.4245   51.6982 H   0  0  0  0  0  0  0  0  0  0  0  0
   61.5486   27.8866   48.1738 H   0  0  0  0  0  0  0  0  0  0  0  0
   60.1831   27.4054   49.2776 H   0  0  0  0  0  0  0  0  0  0  0  0
   58.3483   26.9370   47.9504 H   0  0  0  0  0  0  0  0  0  0  0  0
   56.6964   27.5899   46.2510 H   0  0  0  0  0  0  0  0  0  0  0  0
   56.6560   28.2040   42.8070 H   0  0  0  0  0  0  0  0  0  0  0  0
   57.9510   29.3360   42.7700 H   0  0  0  0  0  0  0  0  0  0  0  0
   59.0174   31.0978   45.3775 H   0  0  0  0  0  0  0  0  0  0  0  0
   60.6843   30.4233   47.0928 H   0  0  0  0  0  0  0  0  0  0  0  0
   61.1742   31.7368   48.9582 H   0  0  0  0  0  0  0  0  0  0  0  0
   58.6806   34.3131   49.3463 H   0  0  0  0  0  0  0  0  0  0  0  0
   60.2235   34.3201   50.3186 H   0  0  0  0  0  0  0  0  0  0  0  0
   61.1103   34.7878   48.2722 H   0  0  0  0  0  0  0  0  0  0  0  0
   61.1292   33.0277   48.1471 H   0  0  0  0  0  0  0  0  0  0  0  0
   57.9168   32.9962   48.2092 H   0  0  0  0  0  0  0  0  0  0  0  0
   56.2384   33.1335   46.3805 H   0  0  0  0  0  0  0  0  0  0  0  0
   56.9187   34.2613   44.2263 H   0  0  0  0  0  0  0  0  0  0  0  0
   59.1966   35.1826   44.0035 H   0  0  0  0  0  0  0  0  0  0  0  0
   60.8491   35.0223   45.8502 H   0  0  0  0  0  0  0  0  0  0  0  0
   57.6730   32.8080   51.0090 H   0  0  0  0  0  0  0  0  0  0  0  0
  1  2  1  0
  2  3  2  0
  3  4  1  0
  4  5  2  0
  5  6  1  0
  6  7  1  0
  7  8  2  0
  8  9  1  0
  9 10  2  0
 10 11  1  0
 11 12  1  0
 11 13  2  0
 11 14  2  0
 10 15  1  0
 15 16  2  0
  4 17  1  0
 17 18  2  0
 18 19  1  0
 19 20  1  0
 20 21  1  0
 21 22  2  0
 22 23  1  0
 23 24  2  0
 24 25  1  0
 25 26  2  0
 18 27  1  0
 27  2  1  0
 16  7  1  0
 26 21  1  0
  1 28  1  0
  1 29  1  0
  1 30  1  0
  6 31  1  0
  6 32  1  0
  8 33  1  0
  9 34  1  0
 12 35  1  0
 12 36  1  0
 15 37  1  0
 16 38  1  0
 17 39  1  0
 19 40  1  0
 19 41  1  0
 20 42  1  0
 20 43  1  0
 22 44  1  0
 23 45  1  0
 24 46  1  0
 25 47  1  0
 26 48  1  0
 27 49  1  0
M  END
>  <smiles>  (49) 
Cc1nc(=NCc2ccc(S(N)(=O)=O)cc2)cc(CCc2ccccc2)[nH]1

>  <score_type>  (49) 
oracle

>  <origin>  (49) 
adg

>  <m_score__min__energy>  (49) 
-9.6400000000000006

>  <m_primary>  (49) 
energy

$$$$
49:0
     RDKit          3D

 69 73  0  0  0  0  0  0  0  0999 V2000
   60.7160   29.9240   45.9770 O   0  0  0  0  0  0  0  0  0  0  0  0
   60.8360   29.3310   47.0830 C   0  0  0  0  0  0  0  0  0  0  0  0
   60.5370   27.8620   47.1640 C   0  0  0  0  0  0  0  0  0  0  0  0
   59.0920   27.6090   46.8340 C   0  0  0  0  0  0  0  0  0  0  0  0
   58.5000   26.3790   47.1480 C   0  0  0  0  0  0  0  0  0  0  0  0
   57.1710   26.1080   46.7860 C   0  0  0  0  0  0  0  0  0  0  0  0
   56.5570   24.7630   47.1320 C   0  0  0  0  0  0  0  0  0  0  0  0
   55.3460   24.4100   46.3590 N   0  0  0  0  0  0  0  0  0  0  0  0
   55.5730   24.0760   44.9530 C   0  0  0  0  0  0  0  0  0  0  0  0
   54.3220   23.3410   44.4910 C   0  0  0  0  0  0  0  0  0  0  0  0
   53.6260   22.8780   45.7660 C   0  0  0  0  0  0  0  0  0  0  0  0
   54.5330   23.3230   46.9020 C   0  0  0  0  0  0  0  0  0  0  0  0
   56.4500   27.0680   46.0410 C   0  0  0  0  0  0  0  0  0  0  0  0
   55.1460   26.7900   45.6380 O   0  0  0  0  0  0  0  0  0  0  0  0
   57.0410   28.3040   45.7110 C   0  0  0  0  0  0  0  0  0  0  0  0
   56.3250   29.2910   44.8620 C   0  0  0  0  0  0  0  0  0  0  0  0
   55.1340   29.0560   44.5190 O   0  0  0  0  0  0  0  0  0  0  0  0
   56.9790   30.5240   44.3630 C   0  0  0  0  0  0  0  0  0  0  0  0
   57.5190   31.4680   45.2560 C   0  0  0  0  0  0  0  0  0  0  0  0
   58.1290   32.6290   44.7720 C   0  0  0  0  0  0  0  0  0  0  0  0
   58.1990   32.8630   43.3970 C   0  0  0  0  0  0  0  0  0  0  0  0
   57.6550   31.9390   42.5020 C   0  0  0  0  0  0  0  0  0  0  0  0
   57.0430   30.7760   42.9820 C   0  0  0  0  0  0  0  0  0  0  0  0
   58.3590   28.5650   46.1240 C   0  0  0  0  0  0  0  0  0  0  0  0
   61.2920   30.0460   48.2400 N   0  0  0  0  0  0  0  0  0  0  0  0
   61.6530   31.4310   48.1690 C   0  0  0  0  0  0  0  0  0  0  0  0
   62.7780   31.8100   47.4250 C   0  0  0  0  0  0  0  0  0  0  0  0
   63.1190   33.1590   47.2990 C   0  0  0  0  0  0  0  0  0  0  0  0
   62.3450   34.1380   47.9230 C   0  0  0  0  0  0  0  0  0  0  0  0
   61.2350   33.7700   48.6880 C   0  0  0  0  0  0  0  0  0  0  0  0
   60.8850   32.4160   48.8240 C   0  0  0  0  0  0  0  0  0  0  0  0
   59.8110   32.0430   49.6990 N   0  0  0  0  0  0  0  0  0  0  0  0
   59.3270   33.0400   50.6580 C   0  0  0  0  0  0  0  0  0  0  0  0
   58.5180   32.3600   51.7670 C   0  0  0  0  0  0  0  0  0  0  0  0
   57.5380   31.4900   51.2310 O   0  0  0  0  0  0  0  0  0  0  0  0
   58.1650   30.4370   50.5250 C   0  0  0  0  0  0  0  0  0  0  0  0
   58.8950   30.9760   49.2940 C   0  0  0  0  0  0  0  0  0  0  0  0
   61.1736   27.3213   46.4482 H   0  0  0  0  0  0  0  0  0  0  0  0
   60.7395   27.5096   48.1861 H   0  0  0  0  0  0  0  0  0  0  0  0
   59.0834   25.6163   47.6846 H   0  0  0  0  0  0  0  0  0  0  0  0
   57.3146   23.9860   46.9526 H   0  0  0  0  0  0  0  0  0  0  0  0
   56.2410   24.8312   48.1834 H   0  0  0  0  0  0  0  0  0  0  0  0
   55.7193   24.9916   44.3611 H   0  0  0  0  0  0  0  0  0  0  0  0
   56.4744   23.4586   44.8252 H   0  0  0  0  0  0  0  0  0  0  0  0
   53.6682   24.0167   43.9200 H   0  0  0  0  0  0  0  0  0  0  0  0
   54.5662   22.4963   43.8301 H   0  0  0  0  0  0  0  0  0  0  0  0
   52.6357   23.3481   45.8569 H   0  0  0  0  0  0  0  0  0  0  0  0
   53.4636   21.7901   45.7728 H   0  0  0  0  0  0  0  0  0  0  0  0
   53.9343   23.6804   47.7528 H   0  0  0  0  0  0  0  0  0  0  0  0
   55.1569   22.4953   47.2703 H   0  0  0  0  0  0  0  0  0  0  0  0
   57.4608   31.2915   46.3402 H   0  0  0  0  0  0  0  0  0  0  0  0
   58.5547   33.3596   45.4755 H   0  0  0  0  0  0  0  0  0  0  0  0
   58.6828   33.7755   43.0186 H   0  0  0  0  0  0  0  0  0  0  0  0
   57.7077   32.1257   41.4192 H   0  0  0  0  0  0  0  0  0  0  0  0
   56.6093   30.0544   42.2740 H   0  0  0  0  0  0  0  0  0  0  0  0
   58.8202   29.5347   45.8854 H   0  0  0  0  0  0  0  0  0  0  0  0
   61.5840   29.5050   49.0860 H   0  0  0  0  0  0  0  0  0  0  0  0
   63.3960   31.0415   46.9376 H   0  0  0  0  0  0  0  0  0  0  0  0
   63.9992   33.4498   46.7068 H   0  0  0  0  0  0  0  0  0  0  0  0
   62.6088   35.2002   47.8127 H   0  0  0  0  0  0  0  0  0  0  0  0
   60.6325   34.5439   49.1860 H   0  0  0  0  0  0  0  0  0  0  0  0
   60.1864   33.5624   51.1036 H   0  0  0  0  0  0  0  0  0  0  0  0
   58.6811   33.7588   50.1325 H   0  0  0  0  0  0  0  0  0  0  0  0
   59.2015   31.7800   52.4046 H   0  0  0  0  0  0  0  0  0  0  0  0
   58.0072   33.1396   52.3512 H   0  0  0  0  0  0  0  0  0  0  0  0
   58.8896   29.9392   51.1862 H   0  0  0  0  0  0  0  0  0  0  0  0
   57.3962   29.7218   50.1973 H   0  0  0  0  0  0  0  0  0  0  0  0
   59.4652   30.1631   48.8206 H   0  0  0  0  0  0  0  0  0  0  0  0
   58.1614   31.3744   48.5777 H   0  0  0  0  0  0  0  0  0  0  0  0
  1  2  2  0
  2  3  1  0
  3  4  1  0
  4  5  2  0
  5  6  1  0
  6  7  1  0
  7  8  1  0
  8  9  1  0
  9 10  1  0
 10 11  1  0
 11 12  1  0
  6 13  2  0
 13 14  1  0
 13 15  1  0
 15 16  1  0
 16 17  2  0
 16 18  1  0
 18 19  2  0
 19 20  1  0
 20 21  2  0
 21 22  1  0
 22 23  2  0
 15 24  2  0
  2 25  1  0
 25 26  1  0
 26 27  2  0
 27 28  1  0
 28 29  2  0
 29 30  1  0
 30 31  2  0
 31 32  1  0
 32 33  1  0
 33 34  1  0
 34 35  1  0
 35 36  1  0
 36 37  1  0
 24  4  1  0
 31 26  1  0
 37 32  1  0
 12  8  1  0
 23 18  1  0
  3 38  1  0
  3 39  1  0
  5 40  1  0
  7 41  1  0
  7 42  1  0
  9 43  1  0
  9 44  1  0
 10 45  1  0
 10 46  1  0
 11 47  1  0
 11 48  1  0
 12 49  1  0
 12 50  1  0
 19 51  1  0
 20 52  1  0
 21 53  1  0
 22 54  1  0
 23 55  1  0
 24 56  1  0
 25 57  1  0
 27 58  1  0
 28 59  1  0
 29 60  1  0
 30 61  1  0
 33 62  1  0
 33 63  1  0
 34 64  1  0
 34 65  1  0
 36 66  1  0
 36 67  1  0
 37 68  1  0
 37 69  1  0
M  CHG  1  14  -1
M  END
>  <UniqueID>  (50) 
46

>  <SMILES>  (50) 
O=C(Cc1cc(CN2CCCC2)c([O-])c(C(=O)c2ccccc2)c1)Nc1ccccc1N1CCOCC1

>  <Energy>  (50) 
93.48939965847467

>  <Genealogy>  (50) 
O=C(Cc1cc(CN2CCCC2)c([O-])c(C(=O)c2ccccc2)c1)Nc1ccccc1N1CCOCC1 (protonated)
O=C(Cc1cc(CN2CCCC2)c([O-])c(C(=O)c2ccccc2)c1)Nc1ccccc1N1CCOCC1 (3D coordinates assigned)
O=C(Cc1cc(CN2CCCC2)c([O-])c(C(=O)c2ccccc2)c1)Nc1ccccc1N1CCOCC1 (nonaromatic ring conformer: 93.48939965847467 kcal/mol)

>  <smiles>  (50) 
O=C(Cc1cc(CN2CCCC2)c(O)c(C(=O)c2ccccc2)c1)Nc1ccccc1N1CCOCC1

>  <score_type>  (50) 
oracle

>  <origin>  (50) 
adg

>  <m_score__min__energy>  (50) 
-14.26

>  <m_primary>  (50) 
energy

$$$$
50:0
     RDKit          3D

 54 56  0  0  0  0  0  0  0  0999 V2000
   65.2000   32.6580   50.4920 C   0  0  0  0  0  0  0  0  0  0  0  0
   64.0070   33.0880   49.6880 C   0  0  0  0  0  0  0  0  0  0  0  0
   62.7660   33.2520   50.3030 C   0  0  0  0  0  0  0  0  0  0  0  0
   61.6320   33.6200   49.5620 C   0  0  0  0  0  0  0  0  0  0  0  0
   60.3410   33.8180   50.3150 C   0  0  0  0  0  0  0  0  0  0  0  0
   61.7300   33.7690   48.1480 C   0  0  0  0  0  0  0  0  0  0  0  0
   60.2760   34.1550   47.1680 S   0  0  0  0  0  0  0  0  0  0  0  0
   60.6720   35.0180   46.0020 O   0  0  0  0  0  0  0  0  0  0  0  0
   59.3240   34.9830   47.9880 O   0  0  0  0  0  0  0  0  0  0  0  0
   59.4760   32.7150   46.5440 N   0  0  2  0  0  0  0  0  0  0  0  0
   58.3770   33.0830   45.6180 C   0  0  0  0  0  0  0  0  0  0  0  0
   57.4280   31.9070   45.2870 C   0  0  0  0  0  0  0  0  0  0  0  0
   58.0490   30.5420   45.6250 C   0  0  2  0  0  0  0  0  0  0  0  0
   57.1290   29.3960   45.2630 C   0  0  0  0  0  0  0  0  0  0  0  0
   55.9650   29.6660   44.8620 O   0  0  0  0  0  0  0  0  0  0  0  0
   57.5140   28.0160   45.4110 N   0  0  0  0  0  0  0  0  0  0  0  0
   56.5700   26.9950   45.8340 C   0  0  0  0  0  0  0  0  0  0  0  0
   57.2430   25.6600   45.5440 C   0  0  0  0  0  0  0  0  0  0  0  0
   58.7170   25.9760   45.3070 C   0  0  0  0  0  0  0  0  0  0  0  0
   58.7680   27.4520   44.9380 C   0  0  0  0  0  0  0  0  0  0  0  0
   58.5340   30.4710   47.0880 C   0  0  0  0  0  0  0  0  0  0  0  0
   58.9890   31.8410   47.6300 C   0  0  0  0  0  0  0  0  0  0  0  0
   63.0080   33.6390   47.5340 C   0  0  0  0  0  0  0  0  0  0  0  0
   63.2280   33.8460   46.0570 C   0  0  0  0  0  0  0  0  0  0  0  0
   64.1200   33.2720   48.3090 C   0  0  0  0  0  0  0  0  0  0  0  0
   64.9689   32.7413   51.5642 H   0  0  0  0  0  0  0  0  0  0  0  0
   65.4480   31.6139   50.2504 H   0  0  0  0  0  0  0  0  0  0  0  0
   66.0571   33.3038   50.2504 H   0  0  0  0  0  0  0  0  0  0  0  0
   62.6743   33.0902   51.3872 H   0  0  0  0  0  0  0  0  0  0  0  0
   60.5390   33.7876   51.3966 H   0  0  0  0  0  0  0  0  0  0  0  0
   59.9072   34.7932   50.0489 H   0  0  0  0  0  0  0  0  0  0  0  0
   59.6349   33.0177   50.0489 H   0  0  0  0  0  0  0  0  0  0  0  0
   60.2050   32.1910   46.0040 H   0  0  0  0  0  0  0  0  0  0  0  0
   57.7863   33.8871   46.0811 H   0  0  0  0  0  0  0  0  0  0  0  0
   58.8428   33.3983   44.6727 H   0  0  0  0  0  0  0  0  0  0  0  0
   56.5009   32.0269   45.8667 H   0  0  0  0  0  0  0  0  0  0  0  0
   57.2314   31.9281   44.2049 H   0  0  0  0  0  0  0  0  0  0  0  0
   58.9452   30.4331   44.9965 H   0  0  0  0  0  0  0  0  0  0  0  0
   56.3581   27.0913   46.9091 H   0  0  0  0  0  0  0  0  0  0  0  0
   55.6103   27.0874   45.3045 H   0  0  0  0  0  0  0  0  0  0  0  0
   57.1307   24.9808   46.4019 H   0  0  0  0  0  0  0  0  0  0  0  0
   56.7922   25.1618   44.6730 H   0  0  0  0  0  0  0  0  0  0  0  0
   59.3010   25.7886   46.2201 H   0  0  0  0  0  0  0  0  0  0  0  0
   59.1452   25.3445   44.5146 H   0  0  0  0  0  0  0  0  0  0  0  0
   59.6201   27.9421   45.4317 H   0  0  0  0  0  0  0  0  0  0  0  0
   58.8972   27.5970   43.8553 H   0  0  0  0  0  0  0  0  0  0  0  0
   57.7094   30.1006   47.7148 H   0  0  0  0  0  0  0  0  0  0  0  0
   59.4021   29.7961   47.1184 H   0  0  0  0  0  0  0  0  0  0  0  0
   58.1385   32.3292   48.1282 H   0  0  0  0  0  0  0  0  0  0  0  0
   59.8142   31.6764   48.3385 H   0  0  0  0  0  0  0  0  0  0  0  0
   64.0215   34.5926   45.9056 H   0  0  0  0  0  0  0  0  0  0  0  0
   63.5270   32.8941   45.5939 H   0  0  0  0  0  0  0  0  0  0  0  0
   62.2960   34.2023   45.5939 H   0  0  0  0  0  0  0  0  0  0  0  0
   65.0955   33.1272   47.8217 H   0  0  0  0  0  0  0  0  0  0  0  0
  1  2  1  0
  2  3  2  0
  3  4  1  0
  4  5  1  0
  4  6  2  0
  6  7  1  0
  7  8  2  0
  7  9  2  0
  7 10  1  0
 10 11  1  0
 11 12  1  0
 12 13  1  0
 13 14  1  0
 14 15  2  0
 14 16  1  0
 16 17  1  0
 17 18  1  0
 18 19  1  0
 19 20  1  0
 13 21  1  0
 21 22  1  0
  6 23  1  0
 23 24  1  0
 23 25  2  0
 25  2  1  0
 22 10  1  0
 20 16  1  0
  1 26  1  0
  1 27  1  0
  1 28  1  0
  3 29  1  0
  5 30  1  0
  5 31  1  0
  5 32  1  0
 10 33  1  6
 11 34  1  0
 11 35  1  0
 12 36  1  0
 12 37  1  0
 13 38  1  6
 17 39  1  0
 17 40  1  0
 18 41  1  0
 18 42  1  0
 19 43  1  0
 19 44  1  0
 20 45  1  0
 20 46  1  0
 21 47  1  0
 21 48  1  0
 22 49  1  0
 22 50  1  0
 24 51  1  0
 24 52  1  0
 24 53  1  0
 25 54  1  0
M  CHG  1  10   1
M  END
>  <UniqueID>  (51) 
47

>  <SMILES>  (51) 
Cc1cc(C)c(S(=O)(=O)[NH+]2CCC(C(=O)N3CCCC3)CC2)c(C)c1

>  <Energy>  (51) 
69.29281304130417

>  <Genealogy>  (51) 
Cc1cc(C)c(S(=O)(=O)[NH+]2CCC(C(=O)N3CCCC3)CC2)c(C)c1 (protonated)
Cc1cc(C)c(S(=O)(=O)[NH+]2CCC(C(=O)N3CCCC3)CC2)c(C)c1 (3D coordinates assigned)
Cc1cc(C)c(S(=O)(=O)[NH+]2CCC(C(=O)N3CCCC3)CC2)c(C)c1 (nonaromatic ring conformer: 69.29281304130417 kcal/mol)

>  <smiles>  (51) 
Cc1cc(C)c(S(=O)(=O)N2CCC(C(=O)N3CCCC3)CC2)c(C)c1

>  <score_type>  (51) 
oracle

>  <origin>  (51) 
adg

>  <m_score__min__energy>  (51) 
-7.3300000000000001

>  <m_primary>  (51) 
energy

$$$$
51:0
     RDKit          3D

 31 33  0  0  0  0  0  0  0  0999 V2000
   55.8770   31.2536   44.1799 H   0  0  0  0  0  0  0  0  0  0  0  0
   56.1990   30.2030   44.2310 C   0  0  0  0  0  0  0  0  0  0  0  0
   55.6175   29.4238   43.7164 H   0  0  0  0  0  0  0  0  0  0  0  0
   57.3010   29.8720   44.9210 C   0  0  0  0  0  0  0  0  0  0  0  0
   57.8550   28.5910   45.0920 C   0  0  0  0  0  0  0  0  0  0  0  0
   57.3730   27.3700   44.7830 C   0  0  0  0  0  0  0  0  0  0  0  0
   57.0614   27.2006   43.7417 H   0  0  0  0  0  0  0  0  0  0  0  0
   57.2280   26.2410   45.7240 C   0  0  0  0  0  0  0  0  0  0  0  0
   55.9880   25.9350   46.3090 C   0  0  0  0  0  0  0  0  0  0  0  0
   54.8500   26.6670   45.9890 O   0  0  0  0  0  0  0  0  0  0  0  0
   55.8950   24.9170   47.2030 N   0  0  0  0  0  0  0  0  0  0  0  0
   56.9890   24.1950   47.5600 C   0  0  0  0  0  0  0  0  0  0  0  0
   56.8770   23.2530   48.3860 O   0  0  0  0  0  0  0  0  0  0  0  0
   58.2020   24.4920   47.0290 N   0  0  0  0  0  0  0  0  0  0  0  0
   58.3480   25.4990   46.1300 C   0  0  0  0  0  0  0  0  0  0  0  0
   59.4900   25.7520   45.6620 O   0  0  0  0  0  0  0  0  0  0  0  0
   59.0920   28.7780   45.6920 C   0  0  0  0  0  0  0  0  0  0  0  0
   59.8243   27.9954   45.9396 H   0  0  0  0  0  0  0  0  0  0  0  0
   59.2290   30.1320   45.9190 C   0  0  0  0  0  0  0  0  0  0  0  0
   60.4120   30.7750   46.5730 C   0  0  0  0  0  0  0  0  0  0  0  0
   60.3037   30.7161   47.6661 H   0  0  0  0  0  0  0  0  0  0  0  0
   61.3297   30.2516   46.2668 H   0  0  0  0  0  0  0  0  0  0  0  0
   60.4719   31.8298   46.2668 H   0  0  0  0  0  0  0  0  0  0  0  0
   58.1460   30.7890   45.4530 N   0  0  0  0  0  0  0  0  0  0  0  0
   57.9480   32.1830   45.5040 N   0  0  0  0  0  0  0  0  0  0  0  0
   57.8870   33.0380   44.4700 C   0  0  0  0  0  0  0  0  0  0  0  0
   58.0278   32.7587   43.4154 H   0  0  0  0  0  0  0  0  0  0  0  0
   57.6290   34.2860   44.9070 N   0  0  0  0  0  0  0  0  0  0  0  0
   57.5190   34.2250   46.2300 N   0  0  0  0  0  0  0  0  0  0  0  0
   57.7090   32.9390   46.5870 C   0  0  0  0  0  0  0  0  0  0  0  0
   57.6732   32.5624   47.6199 H   0  0  0  0  0  0  0  0  0  0  0  0
  1  2  1  0
  2  3  1  0
  2  4  2  0
  4  5  1  0
  5  6  2  0
  6  7  1  0
  6  8  1  0
  8  9  2  0
  9 10  1  0
  9 11  1  0
 11 12  1  0
 12 13  2  0
 12 14  1  0
 14 15  1  0
 15 16  2  0
  5 17  1  0
 17 18  1  0
 17 19  2  0
 19 20  1  0
 20 21  1  0
 20 22  1  0
 20 23  1  0
 19 24  1  0
 24 25  1  0
 25 26  1  0
 26 27  1  0
 26 28  2  0
 28 29  1  0
 29 30  2  0
 30 31  1  0
 24  4  1  0
 30 25  1  0
 15  8  1  0
M  CHG  3  10  -1  11  -1  14  -1
M  END
>  <UniqueID>  (52) 
48

>  <SMILES>  (52) 
C=c1/c(=C\c2c([O-])[n-]c(=O)[n-]c2=O)cc(C)n1-n1cnnc1

>  <Energy>  (52) 
117.92244139991632

>  <Genealogy>  (52) 
C=c1c(=Cc2c([O-])[n-]c(=O)[n-]c2=O)cc(C)n1-n1cnnc1 (protonated)
C=c1/c(=C\c2c([O-])[n-]c(=O)[n-]c2=O)cc(C)n1-n1cnnc1 (cis-trans isomerization)
C=c1/c(=C\c2c([O-])[n-]c(=O)[n-]c2=O)cc(C)n1-n1cnnc1 (3D coordinates assigned)
C=c1/c(=C\c2c([O-])[n-]c(=O)[n-]c2=O)cc(C)n1-n1cnnc1 (optimized conformer: 117.92244139991632 kcal/mol)

>  <smiles>  (52) 
C=c1c(=Cc2c(O)[nH]c(=O)[nH]c2=O)cc(C)n1-n1cnnc1

>  <score_type>  (52) 
oracle

>  <origin>  (52) 
adg

>  <m_score__min__energy>  (52) 
-14.619999999999999

>  <m_primary>  (52) 
energy

$$$$
52:0
     RDKit          3D

 49 51  0  0  0  0  0  0  0  0999 V2000
   59.6720   31.3720   46.3710 C   0  0  0  0  0  0  0  0  0  0  0  0
   59.4590   32.7950   45.9580 C   0  0  0  0  0  0  0  0  0  0  0  0
   58.5000   33.2010   45.0360 C   0  0  0  0  0  0  0  0  0  0  0  0
   57.5820   32.3500   44.2630 C   0  0  0  0  0  0  0  0  0  0  0  0
   57.4520   32.5540   43.0290 O   0  0  0  0  0  0  0  0  0  0  0  0
   56.8210   31.3060   44.8790 N   0  0  0  0  0  0  0  0  0  0  0  0
   56.5110   29.7550   44.1580 S   0  0  0  0  0  0  0  0  0  0  0  0
   55.9330   29.9010   42.7790 O   0  0  0  0  0  0  0  0  0  0  0  0
   55.5390   29.0010   45.0210 O   0  0  0  0  0  0  0  0  0  0  0  0
   58.0360   28.8330   44.0560 C   0  0  0  0  0  0  0  0  0  0  0  0
   58.1600   27.8840   45.2160 C   0  0  0  0  0  0  0  0  0  0  0  0
   57.4150   26.6920   45.2380 C   0  0  0  0  0  0  0  0  0  0  0  0
   57.5630   25.7890   46.2940 C   0  0  0  0  0  0  0  0  0  0  0  0
   58.4550   26.0670   47.3340 C   0  0  0  0  0  0  0  0  0  0  0  0
   59.2010   27.2480   47.3180 C   0  0  0  0  0  0  0  0  0  0  0  0
   59.0570   28.1550   46.2610 C   0  0  0  0  0  0  0  0  0  0  0  0
   58.5270   34.5760   44.9960 C   0  0  0  0  0  0  0  0  0  0  0  0
   59.5320   34.9510   45.8610 C   0  0  0  0  0  0  0  0  0  0  0  0
   59.8930   36.2720   46.1170 O   0  0  0  0  0  0  0  0  0  0  0  0
   60.1260   33.8790   46.4400 N   0  0  0  0  0  0  0  0  0  0  0  0
   61.2340   33.9900   47.4170 C   0  0  0  0  0  0  0  0  0  0  0  0
   62.6570   33.8300   46.8010 C   0  0  0  0  0  0  0  0  0  0  0  0
   63.3910   32.5160   47.1200 C   0  0  0  0  0  0  0  0  0  0  0  0
   63.2030   32.0890   48.5700 C   0  0  0  0  0  0  0  0  0  0  0  0
   61.7210   31.8900   48.8720 C   0  0  0  0  0  0  0  0  0  0  0  0
   60.9480   33.2000   48.7210 C   0  0  0  0  0  0  0  0  0  0  0  0
   59.6818   31.3064   47.4690 H   0  0  0  0  0  0  0  0  0  0  0  0
   58.8571   30.7490   45.9737 H   0  0  0  0  0  0  0  0  0  0  0  0
   60.6336   31.0149   45.9737 H   0  0  0  0  0  0  0  0  0  0  0  0
   58.0498   28.2599   43.1172 H   0  0  0  0  0  0  0  0  0  0  0  0
   58.8793   29.5387   44.0838 H   0  0  0  0  0  0  0  0  0  0  0  0
   56.7130   26.4694   44.4209 H   0  0  0  0  0  0  0  0  0  0  0  0
   56.9769   24.8582   46.3071 H   0  0  0  0  0  0  0  0  0  0  0  0
   58.5695   25.3556   48.1651 H   0  0  0  0  0  0  0  0  0  0  0  0
   59.9025   27.4657   48.1369 H   0  0  0  0  0  0  0  0  0  0  0  0
   59.6484   29.0824   46.2496 H   0  0  0  0  0  0  0  0  0  0  0  0
   57.8818   35.2372   44.3989 H   0  0  0  0  0  0  0  0  0  0  0  0
   59.3650   36.8400   46.7670 H   0  0  0  0  0  0  0  0  0  0  0  0
   61.2637   35.0398   47.7442 H   0  0  0  0  0  0  0  0  0  0  0  0
   62.5597   33.9033   45.7078 H   0  0  0  0  0  0  0  0  0  0  0  0
   63.2659   34.6254   47.2556 H   0  0  0  0  0  0  0  0  0  0  0  0
   63.0006   31.7240   46.4641 H   0  0  0  0  0  0  0  0  0  0  0  0
   64.4657   32.6806   46.9532 H   0  0  0  0  0  0  0  0  0  0  0  0
   63.7393   31.1443   48.7432 H   0  0  0  0  0  0  0  0  0  0  0  0
   63.6019   32.8734   49.2300 H   0  0  0  0  0  0  0  0  0  0  0  0
   61.3086   31.1469   48.1736 H   0  0  0  0  0  0  0  0  0  0  0  0
   61.6197   31.5422   49.9106 H   0  0  0  0  0  0  0  0  0  0  0  0
   59.8735   32.9660   48.7482 H   0  0  0  0  0  0  0  0  0  0  0  0
   61.2785   33.8461   49.5476 H   0  0  0  0  0  0  0  0  0  0  0  0
  1  2  1  0
  2  3  2  0
  3  4  1  0
  4  5  2  0
  4  6  1  0
  6  7  1  0
  7  8  2  0
  7  9  2  0
  7 10  1  0
 10 11  1  0
 11 12  2  0
 12 13  1  0
 13 14  2  0
 14 15  1  0
 15 16  2  0
  3 17  1  0
 17 18  2  0
 18 19  1  0
 18 20  1  0
 20 21  1  0
 21 22  1  0
 22 23  1  0
 23 24  1  0
 24 25  1  0
 25 26  1  0
 20  2  1  0
 26 21  1  0
 16 11  1  0
  1 27  1  0
  1 28  1  0
  1 29  1  0
 10 30  1  0
 10 31  1  0
 12 32  1  0
 13 33  1  0
 14 34  1  0
 15 35  1  0
 16 36  1  0
 17 37  1  0
 19 38  1  0
 21 39  1  0
 22 40  1  0
 22 41  1  0
 23 42  1  0
 23 43  1  0
 24 44  1  0
 24 45  1  0
 25 46  1  0
 25 47  1  0
 26 48  1  0
 26 49  1  0
M  CHG  1   6  -1
M  END
>  <UniqueID>  (53) 
49

>  <SMILES>  (53) 
Cc1c(C(=O)[N-]S(=O)(=O)Cc2ccccc2)cc(O)n1C1CCCCC1

>  <Energy>  (53) 
85.31000189984678

>  <Genealogy>  (53) 
Cc1c(C(=O)[N-]S(=O)(=O)Cc2ccccc2)cc(O)n1C1CCCCC1 (protonated)
Cc1c(C(=O)[N-]S(=O)(=O)Cc2ccccc2)cc(O)n1C1CCCCC1 (3D coordinates assigned)
Cc1c(C(=O)[N-]S(=O)(=O)Cc2ccccc2)cc(O)n1C1CCCCC1 (nonaromatic ring conformer: 85.31000189984678 kcal/mol)

>  <smiles>  (53) 
Cc1c(C(=O)NS(=O)(=O)Cc2ccccc2)cc(O)n1C1CCCCC1

>  <score_type>  (53) 
oracle

>  <origin>  (53) 
adg

>  <m_score__min__energy>  (53) 
-10.609999999999999

>  <m_primary>  (53) 
energy

$$$$
53:0
     RDKit          3D

 39 41  0  0  0  0  0  0  0  0999 V2000
   60.6280   29.6780   45.8400 H   0  0  0  0  0  0  0  0  0  0  0  0
   59.8360   29.9220   45.2610 O   0  0  0  0  0  0  0  0  0  0  0  0
   58.6010   29.2870   45.3910 C   0  0  0  0  0  0  0  0  0  0  0  0
   58.3780   28.1390   46.1340 C   0  0  0  0  0  0  0  0  0  0  0  0
   59.3700   27.3960   46.9370 C   0  0  0  0  0  0  0  0  0  0  0  0
   59.1970   26.1680   47.1580 O   0  0  0  0  0  0  0  0  0  0  0  0
   60.5720   28.0200   47.4080 N   0  0  0  0  0  0  0  0  0  0  0  0
   60.6480   29.2020   47.9430 C   0  0  0  0  0  0  0  0  0  0  0  0
   61.4690   30.1570   47.4590 N   0  0  0  0  0  0  0  0  0  0  0  0
   61.4120   31.2930   48.2070 C   0  0  0  0  0  0  0  0  0  0  0  0
   62.1960   32.5120   47.8480 C   0  0  0  0  0  0  0  0  0  0  0  0
   62.5234   33.0211   48.7665 H   0  0  0  0  0  0  0  0  0  0  0  0
   63.0765   32.2207   47.2565 H   0  0  0  0  0  0  0  0  0  0  0  0
   61.5657   33.1923   47.2565 H   0  0  0  0  0  0  0  0  0  0  0  0
   60.5390   31.2490   49.2910 C   0  0  0  0  0  0  0  0  0  0  0  0
   60.3473   32.0672   50.0008 H   0  0  0  0  0  0  0  0  0  0  0  0
   59.8290   29.7240   49.3240 S   0  0  0  0  0  0  0  0  0  0  0  0
   57.0240   27.8640   46.0330 C   0  0  0  0  0  0  0  0  0  0  0  0
   56.4804   27.0300   46.5009 H   0  0  0  0  0  0  0  0  0  0  0  0
   56.4970   28.8510   45.2250 C   0  0  0  0  0  0  0  0  0  0  0  0
   55.1550   28.9600   44.8800 O   0  0  0  0  0  0  0  0  0  0  0  0
   57.4530   29.7100   44.8190 N   0  0  0  0  0  0  0  0  0  0  0  0
   57.2520   30.9110   44.0040 C   0  0  0  0  0  0  0  0  0  0  0  0
   58.2202   31.2440   43.6019 H   0  0  0  0  0  0  0  0  0  0  0  0
   56.5649   30.6747   43.1781 H   0  0  0  0  0  0  0  0  0  0  0  0
   56.6460   32.0290   44.8550 C   0  0  0  0  0  0  0  0  0  0  0  0
   56.0073   32.6609   44.2203 H   0  0  0  0  0  0  0  0  0  0  0  0
   56.0513   31.5776   45.6628 H   0  0  0  0  0  0  0  0  0  0  0  0
   57.7300   32.8760   45.4650 C   0  0  0  0  0  0  0  0  0  0  0  0
   57.9380   32.8700   46.8540 C   0  0  0  0  0  0  0  0  0  0  0  0
   57.3228   32.2239   47.4975 H   0  0  0  0  0  0  0  0  0  0  0  0
   58.9250   33.6830   47.4220 C   0  0  0  0  0  0  0  0  0  0  0  0
   59.0903   33.6689   48.5094 H   0  0  0  0  0  0  0  0  0  0  0  0
   59.7010   34.5130   46.6080 C   0  0  0  0  0  0  0  0  0  0  0  0
   60.4783   35.1499   47.0555 H   0  0  0  0  0  0  0  0  0  0  0  0
   59.4910   34.5350   45.2270 C   0  0  0  0  0  0  0  0  0  0  0  0
   60.1014   35.1905   44.5885 H   0  0  0  0  0  0  0  0  0  0  0  0
   58.5050   33.7240   44.6560 C   0  0  0  0  0  0  0  0  0  0  0  0
   58.3356   33.7501   43.5694 H   0  0  0  0  0  0  0  0  0  0  0  0
  1  2  1  0
  2  3  1  0
  3  4  2  0
  4  5  1  0
  5  6  2  0
  5  7  1  0
  7  8  2  0
  8  9  1  0
  9 10  1  0
 10 11  1  0
 11 12  1  0
 11 13  1  0
 11 14  1  0
 10 15  2  0
 15 16  1  0
 15 17  1  0
  4 18  1  0
 18 19  1  0
 18 20  2  0
 20 21  1  0
 20 22  1  0
 22 23  1  0
 23 24  1  0
 23 25  1  0
 23 26  1  0
 26 27  1  0
 26 28  1  0
 26 29  1  0
 29 30  2  0
 30 31  1  0
 30 32  1  0
 32 33  1  0
 32 34  2  0
 34 35  1  0
 34 36  1  0
 36 37  1  0
 36 38  2  0
 38 39  1  0
 22  3  1  0
 38 29  1  0
 17  8  1  0
M  CHG  2   9  -1  21  -1
M  END
>  <UniqueID>  (54) 
50

>  <SMILES>  (54) 
Cc1cs/c(=N\C(=O)c2cc([O-])n(CCc3ccccc3)c2O)[n-]1

>  <Energy>  (54) 
101.51415026585173

>  <Genealogy>  (54) 
Cc1csc(=NC(=O)c2cc([O-])n(CCc3ccccc3)c2O)[n-]1 (protonated)
Cc1cs/c(=N\C(=O)c2cc([O-])n(CCc3ccccc3)c2O)[n-]1 (cis-trans isomerization)
Cc1cs/c(=N\C(=O)c2cc([O-])n(CCc3ccccc3)c2O)[n-]1 (3D coordinates assigned)
Cc1cs/c(=N\C(=O)c2cc([O-])n(CCc3ccccc3)c2O)[n-]1 (optimized conformer: 101.51415026585173 kcal/mol)

>  <smiles>  (54) 
Cc1csc(=NC(=O)c2cc(O)n(CCc3ccccc3)c2O)[nH]1

>  <score_type>  (54) 
oracle

>  <origin>  (54) 
adg

>  <m_score__min__energy>  (54) 
-10.92

>  <m_primary>  (54) 
energy

$$$$
54:0
     RDKit          3D

 75 79  0  0  0  0  0  0  0  0999 V2000
   57.9400   29.3190   52.9410 N   0  0  0  0  0  0  0  0  0  0  0  0
   57.6790   30.4260   52.0750 C   0  0  0  0  0  0  0  0  0  0  0  0
   56.6500   30.3960   51.3450 O   0  0  0  0  0  0  0  0  0  0  0  0
   58.5960   31.5900   52.0040 C   0  0  0  0  0  0  0  0  0  0  0  0
   58.5750   32.5940   52.9870 C   0  0  0  0  0  0  0  0  0  0  0  0
   59.4420   33.6850   52.9020 C   0  0  0  0  0  0  0  0  0  0  0  0
   60.3350   33.7940   51.8360 C   0  0  0  0  0  0  0  0  0  0  0  0
   60.3660   32.8120   50.8320 C   0  0  0  0  0  0  0  0  0  0  0  0
   61.3350   32.9420   49.6700 C   0  0  1  0  0  0  0  0  0  0  0  0
   62.2790   31.7120   49.5790 C   0  0  0  0  0  0  0  0  0  0  0  0
   62.9620   31.5980   48.1880 C   0  0  2  0  0  0  0  0  0  0  0  0
   63.7440   32.8750   47.8510 C   0  0  0  0  0  0  0  0  0  0  0  0
   62.7320   33.7460   47.0910 C   0  0  0  0  0  0  0  0  0  0  0  0
   61.4470   32.9100   47.0870 C   0  0  2  0  0  0  0  0  0  0  0  0
   60.5890   33.2460   48.3400 C   0  0  0  0  0  0  0  0  0  0  0  0
   61.9570   31.5340   47.1260 N   0  0  0  0  0  0  0  0  0  0  0  0
   60.9880   30.4200   47.2120 C   0  0  0  0  0  0  0  0  0  0  0  0
   60.8940   29.6850   45.8730 C   0  0  0  0  0  0  0  0  0  0  0  0
   59.6340   30.0360   45.1790 N   0  0  0  0  0  0  0  0  0  0  0  0
   58.8920   31.1200   45.8550 C   0  0  0  0  0  0  0  0  0  0  0  0
   58.4230   32.1950   44.8460 C   0  0  0  0  0  0  0  0  0  0  0  0
   56.9800   32.6300   45.1050 C   0  0  0  0  0  0  0  0  0  0  0  0
   57.0520   33.8470   46.0210 C   0  0  0  0  0  0  0  0  0  0  0  0
   58.4950   34.3460   45.9900 C   0  0  0  0  0  0  0  0  0  0  0  0
   59.2370   33.4780   44.9820 C   0  0  0  0  0  0  0  0  0  0  0  0
   58.6070   28.6310   45.0080 S   0  0  0  0  0  0  0  0  0  0  0  0
   59.4420   27.4480   44.6000 O   0  0  0  0  0  0  0  0  0  0  0  0
   57.5840   28.8870   43.9360 O   0  0  0  0  0  0  0  0  0  0  0  0
   57.7690   28.2680   46.5460 C   0  0  0  0  0  0  0  0  0  0  0  0
   58.7680   28.0640   47.6510 C   0  0  0  0  0  0  0  0  0  0  0  0
   59.7000   27.0160   47.5790 C   0  0  0  0  0  0  0  0  0  0  0  0
   60.6510   26.8490   48.5900 C   0  0  0  0  0  0  0  0  0  0  0  0
   60.6840   27.7320   49.6730 C   0  0  0  0  0  0  0  0  0  0  0  0
   59.7690   28.7850   49.7440 C   0  0  0  0  0  0  0  0  0  0  0  0
   58.8150   28.9540   48.7360 C   0  0  0  0  0  0  0  0  0  0  0  0
   59.4920   31.7130   50.9260 C   0  0  0  0  0  0  0  0  0  0  0  0
   57.2480   28.5400   53.0140 H   0  0  0  0  0  0  0  0  0  0  0  0
   58.8500   29.2150   53.4410 H   0  0  0  0  0  0  0  0  0  0  0  0
   57.8709   32.5198   53.8289 H   0  0  0  0  0  0  0  0  0  0  0  0
   59.4208   34.4627   53.6797 H   0  0  0  0  0  0  0  0  0  0  0  0
   61.0189   34.6538   51.7812 H   0  0  0  0  0  0  0  0  0  0  0  0
   61.9840   33.8098   49.8592 H   0  0  0  0  0  0  0  0  0  0  0  0
   61.6913   30.8001   49.7609 H   0  0  0  0  0  0  0  0  0  0  0  0
   63.0692   31.8362   50.3341 H   0  0  0  0  0  0  0  0  0  0  0  0
   63.6016   30.7045   48.2398 H   0  0  0  0  0  0  0  0  0  0  0  0
   64.6136   32.6445   47.2180 H   0  0  0  0  0  0  0  0  0  0  0  0
   64.1417   33.3747   48.7466 H   0  0  0  0  0  0  0  0  0  0  0  0
   63.0760   33.9381   46.0640 H   0  0  0  0  0  0  0  0  0  0  0  0
   62.5918   34.7330   47.5559 H   0  0  0  0  0  0  0  0  0  0  0  0
   60.7909   33.0921   46.2231 H   0  0  0  0  0  0  0  0  0  0  0  0
   59.6671   32.6469   48.3075 H   0  0  0  0  0  0  0  0  0  0  0  0
   60.3711   34.3240   48.3172 H   0  0  0  0  0  0  0  0  0  0  0  0
   61.3159   29.7145   47.9897 H   0  0  0  0  0  0  0  0  0  0  0  0
   59.9981   30.8289   47.4630 H   0  0  0  0  0  0  0  0  0  0  0  0
   61.7477   29.9718   45.2414 H   0  0  0  0  0  0  0  0  0  0  0  0
   60.9089   28.6010   46.0591 H   0  0  0  0  0  0  0  0  0  0  0  0
   58.0120   30.6924   46.3577 H   0  0  0  0  0  0  0  0  0  0  0  0
   59.5631   31.5977   46.5840 H   0  0  0  0  0  0  0  0  0  0  0  0
   58.5391   31.7274   43.8571 H   0  0  0  0  0  0  0  0  0  0  0  0
   56.4875   32.8958   44.1580 H   0  0  0  0  0  0  0  0  0  0  0  0
   56.3970   31.8192   45.5661 H   0  0  0  0  0  0  0  0  0  0  0  0
   56.3729   34.6329   45.6588 H   0  0  0  0  0  0  0  0  0  0  0  0
   56.7498   33.5849   47.0457 H   0  0  0  0  0  0  0  0  0  0  0  0
   58.5249   35.4001   45.6771 H   0  0  0  0  0  0  0  0  0  0  0  0
   58.9580   34.2797   46.9856 H   0  0  0  0  0  0  0  0  0  0  0  0
   59.3036   33.9922   44.0118 H   0  0  0  0  0  0  0  0  0  0  0  0
   60.2647   33.2679   45.3131 H   0  0  0  0  0  0  0  0  0  0  0  0
   57.1077   29.1078   46.8056 H   0  0  0  0  0  0  0  0  0  0  0  0
   57.1797   27.3474   46.4229 H   0  0  0  0  0  0  0  0  0  0  0  0
   59.6817   26.3241   46.7241 H   0  0  0  0  0  0  0  0  0  0  0  0
   61.3740   26.0219   48.5331 H   0  0  0  0  0  0  0  0  0  0  0  0
   61.4307   27.5976   50.4695 H   0  0  0  0  0  0  0  0  0  0  0  0
   59.7991   29.4823   50.5942 H   0  0  0  0  0  0  0  0  0  0  0  0
   58.0988   29.7870   48.7931 H   0  0  0  0  0  0  0  0  0  0  0  0
   59.5095   30.9385   50.1451 H   0  0  0  0  0  0  0  0  0  0  0  0
  1  2  1  0
  2  3  2  0
  2  4  1  0
  4  5  2  0
  5  6  1  0
  6  7  2  0
  7  8  1  0
  8  9  1  0
  9 10  1  0
 10 11  1  0
 11 12  1  0
 12 13  1  0
 13 14  1  0
 14 15  1  0
 14 16  1  0
 16 17  1  0
 17 18  1  0
 18 19  1  0
 19 20  1  0
 20 21  1  0
 21 22  1  0
 22 23  1  0
 23 24  1  0
 24 25  1  0
 19 26  1  0
 26 27  2  0
 26 28  2  0
 26 29  1  0
 29 30  1  0
 30 31  2  0
 31 32  1  0
 32 33  2  0
 33 34  1  0
 34 35  2  0
  8 36  2  0
 36  4  1  0
 15  9  1  0
 25 21  1  0
 35 30  1  0
 16 11  1  0
  1 37  1  0
  1 38  1  0
  5 39  1  0
  6 40  1  0
  7 41  1  0
  9 42  1  1
 10 43  1  0
 10 44  1  0
 11 45  1  1
 12 46  1  0
 12 47  1  0
 13 48  1  0
 13 49  1  0
 14 50  1  6
 15 51  1  0
 15 52  1  0
 17 53  1  0
 17 54  1  0
 18 55  1  0
 18 56  1  0
 20 57  1  0
 20 58  1  0
 21 59  1  0
 22 60  1  0
 22 61  1  0
 23 62  1  0
 23 63  1  0
 24 64  1  0
 24 65  1  0
 25 66  1  0
 25 67  1  0
 29 68  1  0
 29 69  1  0
 31 70  1  0
 32 71  1  0
 33 72  1  0
 34 73  1  0
 35 74  1  0
 36 75  1  0
M  END
>  <UniqueID>  (55) 
51

>  <SMILES>  (55) 
NC(=O)c1cccc(C2C[C@H]3CC[C@@H](C2)N3CCN(CC2CCCC2)S(=O)(=O)Cc2ccccc2)c1

>  <Energy>  (55) 
89.32899531372573

>  <Genealogy>  (55) 
NC(=O)c1cccc(C2C[C@H]3CC[C@@H](C2)N3CCN(CC2CCCC2)S(=O)(=O)Cc2ccccc2)c1 (chirality)
NC(=O)c1cccc(C2C[C@H]3CC[C@@H](C2)N3CCN(CC2CCCC2)S(=O)(=O)Cc2ccccc2)c1 (3D coordinates assigned)
NC(=O)c1cccc(C2C[C@H]3CC[C@@H](C2)N3CCN(CC2CCCC2)S(=O)(=O)Cc2ccccc2)c1 (nonaromatic ring conformer: 89.32899531372573 kcal/mol)

>  <smiles>  (55) 
NC(=O)c1cccc(C2CC3CCC(C2)N3CCN(CC2CCCC2)S(=O)(=O)Cc2ccccc2)c1

>  <score_type>  (55) 
oracle

>  <origin>  (55) 
adg

>  <m_score__min__energy>  (55) 
-11.130000000000001

>  <m_primary>  (55) 
energy

$$$$
55:0
     RDKit          3D

 35 37  0  0  0  0  0  0  0  0999 V2000
   58.1750   26.6550   47.3930 O   0  0  0  0  0  0  0  0  0  0  0  0
   57.3200   27.2260   46.6630 C   0  0  0  0  0  0  0  0  0  0  0  0
   56.1190   26.5330   46.2950 N   0  0  0  0  0  0  0  0  0  0  0  0
   56.0290   25.3320   45.5140 C   0  0  0  0  0  0  0  0  0  0  0  0
   54.9110   24.4790   45.5820 C   0  0  0  0  0  0  0  0  0  0  0  0
   54.8750   23.3040   44.8230 C   0  0  0  0  0  0  0  0  0  0  0  0
   55.9570   22.9650   44.0040 C   0  0  0  0  0  0  0  0  0  0  0  0
   55.9200   21.7980   43.2510 O   0  0  0  0  0  0  0  0  0  0  0  0
   57.0800   23.7960   43.9520 C   0  0  0  0  0  0  0  0  0  0  0  0
   57.1180   24.9700   44.7110 C   0  0  0  0  0  0  0  0  0  0  0  0
   57.5280   28.6370   46.2360 C   0  0  0  0  0  0  0  0  0  0  0  0
   56.6280   29.2690   45.3600 C   0  0  0  0  0  0  0  0  0  0  0  0
   55.5270   28.5880   44.8480 O   0  0  0  0  0  0  0  0  0  0  0  0
   56.8370   30.5560   44.9890 N   0  0  0  0  0  0  0  0  0  0  0  0
   57.9010   31.2650   45.4350 C   0  0  0  0  0  0  0  0  0  0  0  0
   58.0350   32.4640   45.0660 O   0  0  0  0  0  0  0  0  0  0  0  0
   58.8080   30.6880   46.2820 N   0  0  0  0  0  0  0  0  0  0  0  0
   59.9390   31.4500   46.7520 C   0  0  0  0  0  0  0  0  0  0  0  0
   59.7630   32.7560   47.2370 C   0  0  0  0  0  0  0  0  0  0  0  0
   60.8610   33.4930   47.6920 C   0  0  0  0  0  0  0  0  0  0  0  0
   62.1410   32.9300   47.6670 C   0  0  0  0  0  0  0  0  0  0  0  0
   63.2310   33.6630   48.1200 O   0  0  0  0  0  0  0  0  0  0  0  0
   62.3240   31.6300   47.1870 C   0  0  0  0  0  0  0  0  0  0  0  0
   61.2280   30.8910   46.7310 C   0  0  0  0  0  0  0  0  0  0  0  0
   58.6370   29.3880   46.6880 C   0  0  0  0  0  0  0  0  0  0  0  0
   59.4750   28.8610   47.4710 O   0  0  0  0  0  0  0  0  0  0  0  0
   54.0633   24.7370   46.2337 H   0  0  0  0  0  0  0  0  0  0  0  0
   53.9947   22.6461   44.8705 H   0  0  0  0  0  0  0  0  0  0  0  0
   57.9343   23.5263   43.3137 H   0  0  0  0  0  0  0  0  0  0  0  0
   58.0094   25.6136   44.6771 H   0  0  0  0  0  0  0  0  0  0  0  0
   55.1450   27.7800   45.3250 H   0  0  0  0  0  0  0  0  0  0  0  0
   58.7574   33.2012   47.2591 H   0  0  0  0  0  0  0  0  0  0  0  0
   60.7178   34.5161   48.0698 H   0  0  0  0  0  0  0  0  0  0  0  0
   63.3311   31.1879   47.1680 H   0  0  0  0  0  0  0  0  0  0  0  0
   61.3755   29.8681   46.3544 H   0  0  0  0  0  0  0  0  0  0  0  0
  1  2  2  0
  2  3  1  0
  3  4  1  0
  4  5  2  0
  5  6  1  0
  6  7  2  0
  7  8  1  0
  7  9  1  0
  9 10  2  0
  2 11  1  0
 11 12  2  0
 12 13  1  0
 12 14  1  0
 14 15  1  0
 15 16  2  0
 15 17  1  0
 17 18  1  0
 18 19  2  0
 19 20  1  0
 20 21  2  0
 21 22  1  0
 21 23  1  0
 23 24  2  0
 17 25  1  0
 25 26  2  0
 10  4  1  0
 25 11  1  0
 24 18  1  0
  5 27  1  0
  6 28  1  0
  9 29  1  0
 10 30  1  0
 13 31  1  0
 19 32  1  0
 20 33  1  0
 23 34  1  0
 24 35  1  0
M  CHG  4   3  -1   8  -1  14  -1  22  -1
M  END
>  <UniqueID>  (56) 
52

>  <SMILES>  (56) 
O=C([N-]c1ccc([O-])cc1)c1c(O)[n-]c(=O)n(-c2ccc([O-])cc2)c1=O

>  <Energy>  (56) 
56.996280888779374

>  <Genealogy>  (56) 
O=C([N-]c1ccc([O-])cc1)c1c(O)[n-]c(=O)n(-c2ccc([O-])cc2)c1=O (protonated)
O=C([N-]c1ccc([O-])cc1)c1c(O)[n-]c(=O)n(-c2ccc([O-])cc2)c1=O (3D coordinates assigned)
O=C([N-]c1ccc([O-])cc1)c1c(O)[n-]c(=O)n(-c2ccc([O-])cc2)c1=O (optimized conformer: 56.996280888779374 kcal/mol)

>  <smiles>  (56) 
O=C(Nc1ccc(O)cc1)c1c(O)[nH]c(=O)n(-c2ccc(O)cc2)c1=O

>  <score_type>  (56) 
oracle

>  <origin>  (56) 
adg

>  <m_score__min__energy>  (56) 
-13.359999999999999

>  <m_primary>  (56) 
energy

$$$$
56:0
     RDKit          3D

 64 67  0  0  0  0  0  0  0  0999 V2000
   59.5260   29.2570   45.4620 O   0  0  0  0  0  0  0  0  0  0  0  0
   59.5020   28.4840   46.4550 C   0  0  0  0  0  0  0  0  0  0  0  0
   60.3600   28.8000   47.6440 C   0  0  0  0  0  0  0  0  0  0  0  0
   59.5260   29.2910   48.7330 N   0  0  0  0  0  0  0  0  0  0  0  0
   59.8550   30.3520   49.6410 C   0  0  0  0  0  0  0  0  0  0  0  0
   61.0340   30.7950   49.6390 O   0  0  0  0  0  0  0  0  0  0  0  0
   58.8920   30.9110   50.6120 C   0  0  0  0  0  0  0  0  0  0  0  0
   58.8610   32.2280   51.0320 C   0  0  0  0  0  0  0  0  0  0  0  0
   57.7720   32.3290   51.8690 C   0  0  0  0  0  0  0  0  0  0  0  0
   57.3510   33.5090   52.4690 O   0  0  0  0  0  0  0  0  0  0  0  0
   57.1420   31.1410   52.0000 N   0  0  0  0  0  0  0  0  0  0  0  0
   55.8690   30.9030   52.7060 C   0  0  0  0  0  0  0  0  0  0  0  0
   55.8660   29.5720   53.4590 C   0  0  0  0  0  0  0  0  0  0  0  0
   54.4180   29.0850   53.4700 C   0  0  0  0  0  0  0  0  0  0  0  0
   53.6340   30.0000   52.5350 C   0  0  0  0  0  0  0  0  0  0  0  0
   54.6690   30.7990   51.7660 C   0  0  0  0  0  0  0  0  0  0  0  0
   57.8030   30.2800   51.1940 C   0  0  0  0  0  0  0  0  0  0  0  0
   58.6320   27.3450   46.4240 N   0  0  0  0  0  0  0  0  0  0  0  0
   57.7380   26.9840   45.3270 C   0  0  0  0  0  0  0  0  0  0  0  0
   56.3110   27.3680   45.6240 C   0  0  0  0  0  0  0  0  0  0  0  0
   55.5820   26.5490   46.2420 O   0  0  0  0  0  0  0  0  0  0  0  0
   55.7340   28.6070   45.1910 N   0  0  0  0  0  0  0  0  0  0  0  0
   56.3970   29.6820   44.5140 C   0  0  0  0  0  0  0  0  0  0  0  0
   56.3340   29.7390   43.1160 C   0  0  0  0  0  0  0  0  0  0  0  0
   56.9410   30.7910   42.4230 C   0  0  0  0  0  0  0  0  0  0  0  0
   57.6010   31.8010   43.1250 C   0  0  0  0  0  0  0  0  0  0  0  0
   57.6510   31.7700   44.5250 C   0  0  0  0  0  0  0  0  0  0  0  0
   58.4410   33.0800   45.3990 S   0  0  0  0  0  0  0  0  0  0  0  0
   57.4110   34.1270   45.7220 O   0  0  0  0  0  0  0  0  0  0  0  0
   59.5000   33.7030   44.5310 O   0  0  0  0  0  0  0  0  0  0  0  0
   59.1410   32.4380   46.8720 N   0  0  0  0  0  0  0  0  0  0  0  0
   60.5920   32.1850   46.7270 C   0  0  0  0  0  0  0  0  0  0  0  0
   61.4560   33.3200   47.3080 C   0  0  0  0  0  0  0  0  0  0  0  0
   60.7920   34.5580   47.1790 O   0  0  0  0  0  0  0  0  0  0  0  0
   59.6630   34.5990   48.0350 C   0  0  0  0  0  0  0  0  0  0  0  0
   58.8390   33.2880   48.0360 C   0  0  0  0  0  0  0  0  0  0  0  0
   57.0360   30.7150   45.2180 C   0  0  0  0  0  0  0  0  0  0  0  0
   60.8862   27.8899   47.9678 H   0  0  0  0  0  0  0  0  0  0  0  0
   61.0938   29.5722   47.3696 H   0  0  0  0  0  0  0  0  0  0  0  0
   59.5615   33.0296   50.7548 H   0  0  0  0  0  0  0  0  0  0  0  0
   55.7845   31.7703   53.3773 H   0  0  0  0  0  0  0  0  0  0  0  0
   56.5087   28.8425   52.9444 H   0  0  0  0  0  0  0  0  0  0  0  0
   56.2539   29.6917   54.4814 H   0  0  0  0  0  0  0  0  0  0  0  0
   54.3660   28.0458   53.1132 H   0  0  0  0  0  0  0  0  0  0  0  0
   54.0016   29.1130   54.4878 H   0  0  0  0  0  0  0  0  0  0  0  0
   53.0201   29.4042   51.8435 H   0  0  0  0  0  0  0  0  0  0  0  0
   52.9516   30.6573   53.0937 H   0  0  0  0  0  0  0  0  0  0  0  0
   54.9487   30.2777   50.8387 H   0  0  0  0  0  0  0  0  0  0  0  0
   54.2899   31.7883   51.4699 H   0  0  0  0  0  0  0  0  0  0  0  0
   57.5182   29.2311   51.0245 H   0  0  0  0  0  0  0  0  0  0  0  0
   58.0649   27.5039   44.4144 H   0  0  0  0  0  0  0  0  0  0  0  0
   57.7799   25.8928   45.1943 H   0  0  0  0  0  0  0  0  0  0  0  0
   55.8040   28.9517   42.5600 H   0  0  0  0  0  0  0  0  0  0  0  0
   56.8984   30.8226   41.3243 H   0  0  0  0  0  0  0  0  0  0  0  0
   58.0835   32.6240   42.5773 H   0  0  0  0  0  0  0  0  0  0  0  0
   60.8401   31.2505   47.2516 H   0  0  0  0  0  0  0  0  0  0  0  0
   60.8111   32.1191   45.6511 H   0  0  0  0  0  0  0  0  0  0  0  0
   61.6481   33.1208   48.3726 H   0  0  0  0  0  0  0  0  0  0  0  0
   62.4057   33.3648   46.7548 H   0  0  0  0  0  0  0  0  0  0  0  0
   60.0108   34.7921   49.0605 H   0  0  0  0  0  0  0  0  0  0  0  0
   59.0027   35.3952   47.6607 H   0  0  0  0  0  0  0  0  0  0  0  0
   59.0688   32.7263   48.9535 H   0  0  0  0  0  0  0  0  0  0  0  0
   57.7741   33.5594   47.9876 H   0  0  0  0  0  0  0  0  0  0  0  0
   57.0549   30.6978   46.3177 H   0  0  0  0  0  0  0  0  0  0  0  0
  1  2  2  0
  2  3  1  0
  3  4  1  0
  4  5  1  0
  5  6  2  0
  5  7  1  0
  7  8  1  0
  8  9  2  0
  9 10  1  0
  9 11  1  0
 11 12  1  0
 12 13  1  0
 13 14  1  0
 14 15  1  0
 15 16  1  0
 11 17  1  0
  2 18  1  0
 18 19  1  0
 19 20  1  0
 20 21  2  0
 20 22  1  0
 22 23  1  0
 23 24  2  0
 24 25  1  0
 25 26  2  0
 26 27  1  0
 27 28  1  0
 28 29  2  0
 28 30  2  0
 28 31  1  0
 31 32  1  0
 32 33  1  0
 33 34  1  0
 34 35  1  0
 35 36  1  0
 27 37  2  0
 17  7  2  0
 37 23  1  0
 16 12  1  0
 36 31  1  0
  3 38  1  0
  3 39  1  0
  8 40  1  0
 12 41  1  0
 13 42  1  0
 13 43  1  0
 14 44  1  0
 14 45  1  0
 15 46  1  0
 15 47  1  0
 16 48  1  0
 16 49  1  0
 17 50  1  0
 19 51  1  0
 19 52  1  0
 24 53  1  0
 25 54  1  0
 26 55  1  0
 32 56  1  0
 32 57  1  0
 33 58  1  0
 33 59  1  0
 35 60  1  0
 35 61  1  0
 36 62  1  0
 36 63  1  0
 37 64  1  0
M  CHG  4   4  -1  10  -1  18  -1  22  -1
M  END
>  <UniqueID>  (57) 
53

>  <SMILES>  (57) 
O=C(C[N-]C(=O)c1cc([O-])n(C2CCCC2)c1)[N-]CC(=O)[N-]c1cccc(S(=O)(=O)N2CCOCC2)c1

>  <Energy>  (57) 
109.44691346702663

>  <Genealogy>  (57) 
O=C(C[N-]C(=O)c1cc([O-])n(C2CCCC2)c1)[N-]CC(=O)[N-]c1cccc(S(=O)(=O)N2CCOCC2)c1 (protonated)
O=C(C[N-]C(=O)c1cc([O-])n(C2CCCC2)c1)[N-]CC(=O)[N-]c1cccc(S(=O)(=O)N2CCOCC2)c1 (3D coordinates assigned)
O=C(C[N-]C(=O)c1cc([O-])n(C2CCCC2)c1)[N-]CC(=O)[N-]c1cccc(S(=O)(=O)N2CCOCC2)c1 (nonaromatic ring conformer: 109.44691346702663 kcal/mol)

>  <smiles>  (57) 
O=C(CNC(=O)c1cc(O)n(C2CCCC2)c1)NCC(=O)Nc1cccc(S(=O)(=O)N2CCOCC2)c1

>  <score_type>  (57) 
oracle

>  <origin>  (57) 
adg

>  <m_score__min__energy>  (57) 
-16.52

>  <m_primary>  (57) 
energy

$$$$
57:0
     RDKit          3D

 60 64  0  0  0  0  0  0  0  0999 V2000
   59.4030   29.4320   44.7380 C   0  0  0  0  0  0  0  0  0  0  0  0
   59.3690   28.9670   45.9970 C   0  0  0  0  0  0  0  0  0  0  0  0
   58.7580   27.7780   46.4340 C   0  0  0  0  0  0  0  0  0  0  0  0
   57.9350   26.9200   45.7970 C   0  0  0  0  0  0  0  0  0  0  0  0
   57.2930   25.7440   46.4020 C   0  0  0  0  0  0  0  0  0  0  0  0
   57.9550   24.6790   46.8910 N   0  0  0  0  0  0  0  0  0  0  0  0
   56.9640   23.8230   47.2200 C   0  0  0  0  0  0  0  0  0  0  0  0
   57.1860   22.6930   47.7280 O   0  0  0  0  0  0  0  0  0  0  0  0
   55.7160   24.2670   46.9510 N   0  0  0  0  0  0  0  0  0  0  0  0
   55.9450   25.4800   46.4200 C   0  0  0  0  0  0  0  0  0  0  0  0
   54.9440   26.3320   45.9620 O   0  0  0  0  0  0  0  0  0  0  0  0
   59.1500   27.5990   47.7490 C   0  0  0  0  0  0  0  0  0  0  0  0
   59.9190   28.6890   48.0840 C   0  0  0  0  0  0  0  0  0  0  0  0
   60.5270   28.8950   49.4110 C   0  0  0  0  0  0  0  0  0  0  0  0
   61.1860   27.9410   49.9030 O   0  0  0  0  0  0  0  0  0  0  0  0
   60.3940   30.1550   50.1280 N   0  0  0  0  0  0  0  0  0  0  0  0
   61.5190   30.8880   50.4140 C   0  0  0  0  0  0  0  0  0  0  0  0
   61.4460   32.0840   51.1260 C   0  0  0  0  0  0  0  0  0  0  0  0
   60.2080   32.5560   51.5590 C   0  0  0  0  0  0  0  0  0  0  0  0
   60.1160   33.7520   52.2890 C   0  0  0  0  0  0  0  0  0  0  0  0
   58.8710   34.2140   52.7250 C   0  0  0  0  0  0  0  0  0  0  0  0
   57.7130   33.4890   52.4340 C   0  0  0  0  0  0  0  0  0  0  0  0
   57.7940   32.2990   51.7080 C   0  0  0  0  0  0  0  0  0  0  0  0
   59.0420   31.8170   51.2620 C   0  0  0  0  0  0  0  0  0  0  0  0
   59.1580   30.6140   50.5340 C   0  0  0  0  0  0  0  0  0  0  0  0
   58.1100   29.9680   50.2490 O   0  0  0  0  0  0  0  0  0  0  0  0
   60.0540   29.5290   47.0310 N   0  0  0  0  0  0  0  0  0  0  0  0
   60.9180   30.7220   47.0080 C   0  0  0  0  0  0  0  0  0  0  0  0
   60.2200   31.9140   47.6750 C   0  0  0  0  0  0  0  0  0  0  0  0
   59.4850   32.7100   46.6690 N   0  0  0  0  0  0  0  0  0  0  0  0
   60.1250   34.0270   46.4510 C   0  0  0  0  0  0  0  0  0  0  0  0
   59.2580   34.9680   45.5830 C   0  0  0  0  0  0  0  0  0  0  0  0
   58.1500   34.2030   44.8530 C   0  0  0  0  0  0  0  0  0  0  0  0
   57.2630   33.4380   45.8480 C   0  0  0  0  0  0  0  0  0  0  0  0
   58.0660   32.8730   47.0370 C   0  0  0  0  0  0  0  0  0  0  0  0
   59.9141   30.3803   44.5156 H   0  0  0  0  0  0  0  0  0  0  0  0
   58.9198   28.8647   43.9289 H   0  0  0  0  0  0  0  0  0  0  0  0
   57.7266   27.1169   44.7350 H   0  0  0  0  0  0  0  0  0  0  0  0
   54.0220   26.3150   46.3810 H   0  0  0  0  0  0  0  0  0  0  0  0
   58.8959   26.7496   48.4001 H   0  0  0  0  0  0  0  0  0  0  0  0
   62.4995   30.5234   50.0738 H   0  0  0  0  0  0  0  0  0  0  0  0
   62.3615   32.6530   51.3453 H   0  0  0  0  0  0  0  0  0  0  0  0
   61.0256   34.3265   52.5182 H   0  0  0  0  0  0  0  0  0  0  0  0
   58.8029   35.1503   53.2984 H   0  0  0  0  0  0  0  0  0  0  0  0
   56.7348   33.8565   52.7776 H   0  0  0  0  0  0  0  0  0  0  0  0
   56.8779   31.7335   51.4824 H   0  0  0  0  0  0  0  0  0  0  0  0
   61.8507   30.5021   47.5481 H   0  0  0  0  0  0  0  0  0  0  0  0
   61.1334   30.9808   45.9608 H   0  0  0  0  0  0  0  0  0  0  0  0
   59.5124   31.5430   48.4310 H   0  0  0  0  0  0  0  0  0  0  0  0
   60.9798   32.5525   48.1494 H   0  0  0  0  0  0  0  0  0  0  0  0
   60.2939   34.5036   47.4279 H   0  0  0  0  0  0  0  0  0  0  0  0
   61.0712   33.8554   45.9168 H   0  0  0  0  0  0  0  0  0  0  0  0
   58.7986   35.7288   46.2313 H   0  0  0  0  0  0  0  0  0  0  0  0
   59.9079   35.4345   44.8280 H   0  0  0  0  0  0  0  0  0  0  0  0
   57.5289   34.9170   44.2923 H   0  0  0  0  0  0  0  0  0  0  0  0
   58.6158   33.4783   44.1690 H   0  0  0  0  0  0  0  0  0  0  0  0
   56.4939   34.1228   46.2346 H   0  0  0  0  0  0  0  0  0  0  0  0
   56.8138   32.5885   45.3126 H   0  0  0  0  0  0  0  0  0  0  0  0
   57.9897   33.5661   47.8878 H   0  0  0  0  0  0  0  0  0  0  0  0
   57.6537   31.8907   47.3110 H   0  0  0  0  0  0  0  0  0  0  0  0
  1  2  2  0
  2  3  1  0
  3  4  2  3
  4  5  1  0
  5  6  1  0
  6  7  1  0
  7  8  2  0
  7  9  1  0
  9 10  1  0
 10 11  1  0
  3 12  1  0
 12 13  2  0
 13 14  1  0
 14 15  2  0
 14 16  1  0
 16 17  1  0
 17 18  2  0
 18 19  1  0
 19 20  2  0
 20 21  1  0
 21 22  2  0
 22 23  1  0
 23 24  2  0
 24 25  1  0
 25 26  2  0
 13 27  1  0
 27 28  1  0
 28 29  1  0
 29 30  1  0
 30 31  1  0
 31 32  1  0
 32 33  1  0
 33 34  1  0
 34 35  1  0
 27  2  1  0
 35 30  1  0
 10  5  2  0
 25 16  1  0
 24 19  1  0
  1 36  1  0
  1 37  1  0
  4 38  1  0
 11 39  1  0
 12 40  1  0
 17 41  1  0
 18 42  1  0
 20 43  1  0
 21 44  1  0
 22 45  1  0
 23 46  1  0
 28 47  1  0
 28 48  1  0
 29 49  1  0
 29 50  1  0
 31 51  1  0
 31 52  1  0
 32 53  1  0
 32 54  1  0
 33 55  1  0
 33 56  1  0
 34 57  1  0
 34 58  1  0
 35 59  1  0
 35 60  1  0
M  CHG  2   6  -1   9  -1
M  END
>  <UniqueID>  (58) 
54

>  <SMILES>  (58) 
C=c1c(=Cc2[n-]c(=O)[n-]c2O)cc(C(=O)n2ccc3ccccc3c2=O)n1CCN1CCCCC1

>  <Energy>  (58) 
154.04557961518134

>  <Genealogy>  (58) 
C=c1c(=Cc2[n-]c(=O)[n-]c2O)cc(C(=O)n2ccc3ccccc3c2=O)n1CCN1CCCCC1 (protonated)
C=c1c(=Cc2[n-]c(=O)[n-]c2O)cc(C(=O)n2ccc3ccccc3c2=O)n1CCN1CCCCC1 (3D coordinates assigned)
C=c1c(=Cc2[n-]c(=O)[n-]c2O)cc(C(=O)n2ccc3ccccc3c2=O)n1CCN1CCCCC1 (nonaromatic ring conformer: 154.04557961518134 kcal/mol)

>  <smiles>  (58) 
C=c1c(=Cc2[nH]c(=O)[nH]c2O)cc(C(=O)n2ccc3ccccc3c2=O)n1CCN1CCCCC1

>  <score_type>  (58) 
oracle

>  <origin>  (58) 
adg

>  <m_score__min__energy>  (58) 
-14.23

>  <m_primary>  (58) 
energy

$$$$
58:0
     RDKit          3D

 39 41  0  0  0  0  0  0  0  0999 V2000
   60.2261   34.3394   49.5618 H   0  0  0  0  0  0  0  0  0  0  0  0
   59.7080   34.1140   48.6180 C   0  0  0  0  0  0  0  0  0  0  0  0
   59.9120   34.9250   47.4980 C   0  0  0  0  0  0  0  0  0  0  0  0
   60.5881   35.7903   47.5618 H   0  0  0  0  0  0  0  0  0  0  0  0
   59.2570   34.6370   46.2960 C   0  0  0  0  0  0  0  0  0  0  0  0
   59.4119   35.2823   45.4188 H   0  0  0  0  0  0  0  0  0  0  0  0
   58.4020   33.5260   46.2060 C   0  0  0  0  0  0  0  0  0  0  0  0
   57.6670   33.2470   44.9280 C   0  0  0  0  0  0  0  0  0  0  0  0
   57.4239   34.1963   44.4283 H   0  0  0  0  0  0  0  0  0  0  0  0
   56.7359   32.7039   45.1474 H   0  0  0  0  0  0  0  0  0  0  0  0
   58.4920   32.4590   44.0780 O   0  0  0  0  0  0  0  0  0  0  0  0
   58.0220   31.8680   42.9010 C   0  0  0  0  0  0  0  0  0  0  0  0
   58.5280   32.1760   41.7890 O   0  0  0  0  0  0  0  0  0  0  0  0
   57.0460   30.8200   42.9550 N   0  0  0  0  0  0  0  0  0  0  0  0
   57.0240   29.7490   43.7050 C   0  0  0  0  0  0  0  0  0  0  0  0
   55.9020   29.3440   44.4760 C   0  0  0  0  0  0  0  0  0  0  0  0
   54.8040   29.9570   44.4330 O   0  0  0  0  0  0  0  0  0  0  0  0
   55.9920   28.2280   45.2450 N   0  0  0  0  0  0  0  0  0  0  0  0
   57.1220   27.4760   45.2900 C   0  0  0  0  0  0  0  0  0  0  0  0
   57.1570   26.2340   46.1270 C   0  0  0  0  0  0  0  0  0  0  0  0
   58.1788   25.8266   46.1306 H   0  0  0  0  0  0  0  0  0  0  0  0
   56.8492   26.4832   47.1532 H   0  0  0  0  0  0  0  0  0  0  0  0
   56.2170   25.2090   45.5690 C   0  0  0  0  0  0  0  0  0  0  0  0
   54.9450   25.2080   45.9590 O   0  0  0  0  0  0  0  0  0  0  0  0
   54.0710   24.3120   45.5130 C   0  0  0  0  0  0  0  0  0  0  0  0
   52.8770   24.3510   45.9070 O   0  0  0  0  0  0  0  0  0  0  0  0
   54.4630   23.3540   44.6340 N   0  0  0  0  0  0  0  0  0  0  0  0
   55.7490   23.3010   44.2050 C   0  0  0  0  0  0  0  0  0  0  0  0
   56.1050   22.4080   43.3930 O   0  0  0  0  0  0  0  0  0  0  0  0
   56.6700   24.2380   44.6700 C   0  0  0  0  0  0  0  0  0  0  0  0
   57.7193   24.2146   44.3406 H   0  0  0  0  0  0  0  0  0  0  0  0
   58.2070   27.8360   44.4880 C   0  0  0  0  0  0  0  0  0  0  0  0
   59.1176   27.2189   44.4802 H   0  0  0  0  0  0  0  0  0  0  0  0
   58.1320   28.9530   43.7170 N   0  0  0  0  0  0  0  0  0  0  0  0
   58.9610   29.2090   43.1330 H   0  0  0  0  0  0  0  0  0  0  0  0
   58.1880   32.7270   47.3400 C   0  0  0  0  0  0  0  0  0  0  0  0
   57.5005   31.8701   47.2852 H   0  0  0  0  0  0  0  0  0  0  0  0
   58.8460   33.0170   48.5390 C   0  0  0  0  0  0  0  0  0  0  0  0
   58.6849   32.3806   49.4216 H   0  0  0  0  0  0  0  0  0  0  0  0
  1  2  1  0
  2  3  2  0
  3  4  1  0
  3  5  1  0
  5  6  1  0
  5  7  2  0
  7  8  1  0
  8  9  1  0
  8 10  1  0
  8 11  1  0
 11 12  1  0
 12 13  2  0
 12 14  1  0
 14 15  2  0
 15 16  1  0
 16 17  2  0
 16 18  1  0
 18 19  1  0
 19 20  1  0
 20 21  1  0
 20 22  1  0
 20 23  1  0
 23 24  1  0
 24 25  1  0
 25 26  2  0
 25 27  1  0
 27 28  1  0
 28 29  2  0
 28 30  1  0
 30 31  1  0
 19 32  2  0
 32 33  1  0
 32 34  1  0
 34 35  1  0
  7 36  1  0
 36 37  1  0
 36 38  2  0
 38 39  1  0
 38  2  1  0
 34 15  1  0
 30 23  2  0
M  CHG  2  18  -1  27  -1
M  END
>  <UniqueID>  (59) 
55

>  <SMILES>  (59) 
O=C(/N=c1/[nH]cc(Cc2cc(=O)[n-]c(=O)o2)[n-]c1=O)OCc1ccccc1

>  <Energy>  (59) 
51.54287623100974

>  <Genealogy>  (59) 
O=C(N=c1[nH]cc(Cc2cc(=O)[n-]c(=O)o2)[n-]c1=O)OCc1ccccc1 (protonated)
O=C(/N=c1/[nH]cc(Cc2cc(=O)[n-]c(=O)o2)[n-]c1=O)OCc1ccccc1 (cis-trans isomerization)
O=C(/N=c1/[nH]cc(Cc2cc(=O)[n-]c(=O)o2)[n-]c1=O)OCc1ccccc1 (3D coordinates assigned)
O=C(/N=c1/[nH]cc(Cc2cc(=O)[n-]c(=O)o2)[n-]c1=O)OCc1ccccc1 (optimized conformer: 51.54287623100974 kcal/mol)

>  <smiles>  (59) 
O=C(N=c1[nH]cc(Cc2cc(=O)[nH]c(=O)o2)[nH]c1=O)OCc1ccccc1

>  <score_type>  (59) 
oracle

>  <origin>  (59) 
adg

>  <m_score__min__energy>  (59) 
-12.960000000000001

>  <m_primary>  (59) 
energy

$$$$
59:0
     RDKit          3D

 37 39  0  0  0  0  0  0  0  0999 V2000
   51.7050   24.0260   44.2600 H   0  0  0  0  0  0  0  0  0  0  0  0
   52.4480   23.3330   44.5050 N   0  0  0  0  0  0  0  0  0  0  0  0
   53.5330   23.6930   45.1090 C   0  0  0  0  0  0  0  0  0  0  0  0
   54.4020   22.7510   45.5530 N   0  0  0  0  0  0  0  0  0  0  0  0
   55.5470   23.1210   46.1840 C   0  0  0  0  0  0  0  0  0  0  0  0
   56.5180   22.0750   46.6650 C   0  0  0  0  0  0  0  0  0  0  0  0
   56.5744   22.1322   47.7621 H   0  0  0  0  0  0  0  0  0  0  0  0
   56.1424   21.1028   46.3133 H   0  0  0  0  0  0  0  0  0  0  0  0
   57.8830   22.2330   46.1190 N   0  0  0  0  0  0  0  0  0  0  0  0
   58.3210   23.6370   46.0340 C   0  0  0  0  0  0  0  0  0  0  0  0
   57.7121   24.1652   45.2855 H   0  0  0  0  0  0  0  0  0  0  0  0
   58.1978   24.1168   47.0161 H   0  0  0  0  0  0  0  0  0  0  0  0
   59.8070   23.6950   45.6200 C   0  0  0  0  0  0  0  0  0  0  0  0
   59.9096   24.3806   44.7660 H   0  0  0  0  0  0  0  0  0  0  0  0
   60.3844   24.0450   46.4884 H   0  0  0  0  0  0  0  0  0  0  0  0
   60.3130   22.4230   45.2470 O   0  0  0  0  0  0  0  0  0  0  0  0
   59.4790   21.8450   44.2610 C   0  0  0  0  0  0  0  0  0  0  0  0
   59.3803   22.5448   43.4180 H   0  0  0  0  0  0  0  0  0  0  0  0
   59.9339   20.9008   43.9268 H   0  0  0  0  0  0  0  0  0  0  0  0
   58.0780   21.5410   44.8310 C   0  0  0  0  0  0  0  0  0  0  0  0
   57.3146   21.8834   44.1169 H   0  0  0  0  0  0  0  0  0  0  0  0
   57.9872   20.4567   44.9924 H   0  0  0  0  0  0  0  0  0  0  0  0
   55.8150   24.4390   46.3740 N   0  0  0  0  0  0  0  0  0  0  0  0
   54.9480   25.3870   45.9390 C   0  0  0  0  0  0  0  0  0  0  0  0
   55.2390   26.6430   46.1120 N   0  0  0  0  0  0  0  0  0  0  0  0
   56.4170   27.3020   45.6230 C   0  0  0  0  0  0  0  0  0  0  0  0
   57.6620   26.6900   45.8160 C   0  0  0  0  0  0  0  0  0  0  0  0
   57.7193   25.7151   46.3222 H   0  0  0  0  0  0  0  0  0  0  0  0
   58.8330   27.3110   45.3690 C   0  0  0  0  0  0  0  0  0  0  0  0
   59.8053   26.8163   45.5097 H   0  0  0  0  0  0  0  0  0  0  0  0
   58.7690   28.5590   44.7440 C   0  0  0  0  0  0  0  0  0  0  0  0
   59.6892   29.0415   44.3828 H   0  0  0  0  0  0  0  0  0  0  0  0
   57.5350   29.1940   44.5780 C   0  0  0  0  0  0  0  0  0  0  0  0
   57.4873   30.1798   44.0923 H   0  0  0  0  0  0  0  0  0  0  0  0
   56.3600   28.5810   45.0270 C   0  0  0  0  0  0  0  0  0  0  0  0
   55.1510   29.2570   44.9060 O   0  0  0  0  0  0  0  0  0  0  0  0
   53.8090   25.0090   45.2970 N   0  0  0  0  0  0  0  0  0  0  0  0
  1  2  1  0
  2  3  2  0
  3  4  1  0
  4  5  2  0
  5  6  1  0
  6  7  1  0
  6  8  1  0
  6  9  1  0
  9 10  1  0
 10 11  1  0
 10 12  1  0
 10 13  1  0
 13 14  1  0
 13 15  1  0
 13 16  1  0
 16 17  1  0
 17 18  1  0
 17 19  1  0
 17 20  1  0
 20 21  1  0
 20 22  1  0
  5 23  1  0
 23 24  1  0
 24 25  2  0
 25 26  1  0
 26 27  2  0
 27 28  1  0
 27 29  1  0
 29 30  1  0
 29 31  2  0
 31 32  1  0
 31 33  1  0
 33 34  1  0
 33 35  2  0
 35 36  1  0
 24 37  1  0
 37  3  1  0
 20  9  1  0
 35 26  1  0
M  CHG  3  23  -1  36  -1  37  -1
M  END
>  <UniqueID>  (60) 
56

>  <SMILES>  (60) 
[H]/N=c1/nc(CN2CCOCC2)[n-]/c(=N/c2ccccc2[O-])[n-]1

>  <Energy>  (60) 
57.816059088200575

>  <Genealogy>  (60) 
N=c1nc(CN2CCOCC2)[n-]c(=Nc2ccccc2[O-])[n-]1 (protonated)
[H]/N=c1/nc(CN2CCOCC2)[n-]/c(=N/c2ccccc2[O-])[n-]1 (cis-trans isomerization)
[H]/N=c1/nc(CN2CCOCC2)[n-]/c(=N/c2ccccc2[O-])[n-]1 (3D coordinates assigned)
[H]/N=c1/nc(CN2CCOCC2)[n-]/c(=N/c2ccccc2[O-])[n-]1 (nonaromatic ring conformer: 57.816059088200575 kcal/mol)

>  <smiles>  (60) 
N=c1nc(CN2CCOCC2)[nH]c(=Nc2ccccc2O)[nH]1

>  <score_type>  (60) 
oracle

>  <origin>  (60) 
adg

>  <m_score__min__energy>  (60) 
-13.51

>  <m_primary>  (60) 
energy

$$$$
60:0
     RDKit          3D

 58 61  0  0  0  0  0  0  0  0999 V2000
   62.4140   30.8070   51.6820 C   0  0  0  0  0  0  0  0  0  0  0  0
   61.7230   29.7210   50.9010 C   0  0  0  0  0  0  0  0  0  0  0  0
   61.9400   28.3830   51.2690 C   0  0  0  0  0  0  0  0  0  0  0  0
   61.2990   27.3450   50.5920 C   0  0  0  0  0  0  0  0  0  0  0  0
   60.4190   27.6220   49.5450 C   0  0  0  0  0  0  0  0  0  0  0  0
   59.7690   26.5320   48.8760 N   0  0  0  0  0  0  0  0  0  0  0  0
   59.8570   26.2140   47.4800 C   0  0  0  0  0  0  0  0  0  0  0  0
   60.9940   26.0540   46.9660 O   0  0  0  0  0  0  0  0  0  0  0  0
   58.6310   26.0150   46.6280 C   0  0  0  0  0  0  0  0  0  0  0  0
   58.2130   27.2880   46.0210 N   0  0  0  0  0  0  0  0  0  0  0  0
   59.1640   28.2080   45.6770 C   0  0  0  0  0  0  0  0  0  0  0  0
   58.8040   29.4300   45.1090 C   0  0  0  0  0  0  0  0  0  0  0  0
   57.4560   29.7230   44.8890 C   0  0  0  0  0  0  0  0  0  0  0  0
   57.0780   31.0310   44.3260 C   0  0  0  0  0  0  0  0  0  0  0  0
   56.5200   31.0880   43.1990 O   0  0  0  0  0  0  0  0  0  0  0  0
   57.3960   32.2420   45.0130 N   0  0  0  0  0  0  0  0  0  0  0  0
   58.2260   32.6700   46.1560 C   0  0  0  0  0  0  0  0  0  0  0  0
   58.0550   34.1360   45.9350 C   0  0  0  0  0  0  0  0  0  0  0  0
   57.2190   33.6860   44.7830 C   0  0  0  0  0  0  0  0  0  0  0  0
   56.4890   28.7570   45.2010 C   0  0  0  0  0  0  0  0  0  0  0  0
   55.1440   28.9820   44.9200 O   0  0  0  0  0  0  0  0  0  0  0  0
   56.8860   27.5390   45.7710 C   0  0  0  0  0  0  0  0  0  0  0  0
   56.0080   26.6750   46.0480 O   0  0  0  0  0  0  0  0  0  0  0  0
   60.2400   28.9500   49.1300 C   0  0  0  0  0  0  0  0  0  0  0  0
   60.8900   30.0060   49.7910 C   0  0  0  0  0  0  0  0  0  0  0  0
   60.5810   31.6620   49.2390 S   0  0  0  0  0  0  0  0  0  0  0  0
   59.2760   31.6720   48.4910 O   0  0  0  0  0  0  0  0  0  0  0  0
   60.4850   32.5990   50.4110 O   0  0  0  0  0  0  0  0  0  0  0  0
   61.8680   32.1920   48.1800 N   0  0  0  0  0  0  0  0  0  0  0  0
   63.0090   32.6830   48.9720 C   0  0  0  0  0  0  0  0  0  0  0  0
   64.0920   33.2790   48.0480 C   0  0  0  0  0  0  0  0  0  0  0  0
   63.7590   33.1130   46.6840 O   0  0  0  0  0  0  0  0  0  0  0  0
   62.5420   33.7820   46.4070 C   0  0  0  0  0  0  0  0  0  0  0  0
   61.3860   33.2530   47.2830 C   0  0  0  0  0  0  0  0  0  0  0  0
   62.2935   30.6176   52.7588 H   0  0  0  0  0  0  0  0  0  0  0  0
   63.4844   30.8163   51.4289 H   0  0  0  0  0  0  0  0  0  0  0  0
   61.9689   31.7806   51.4289 H   0  0  0  0  0  0  0  0  0  0  0  0
   62.6226   28.1510   52.0998 H   0  0  0  0  0  0  0  0  0  0  0  0
   61.4885   26.3019   50.8854 H   0  0  0  0  0  0  0  0  0  0  0  0
   58.8575   25.2912   45.8312 H   0  0  0  0  0  0  0  0  0  0  0  0
   57.8147   25.6383   47.2619 H   0  0  0  0  0  0  0  0  0  0  0  0
   60.2264   27.9817   45.8503 H   0  0  0  0  0  0  0  0  0  0  0  0
   59.5792   30.1608   44.8351 H   0  0  0  0  0  0  0  0  0  0  0  0
   57.8216   32.3363   47.1230 H   0  0  0  0  0  0  0  0  0  0  0  0
   59.2561   32.2864   46.1988 H   0  0  0  0  0  0  0  0  0  0  0  0
   57.5182   34.6763   46.7287 H   0  0  0  0  0  0  0  0  0  0  0  0
   58.8908   34.8457   45.8473 H   0  0  0  0  0  0  0  0  0  0  0  0
   56.1696   34.0040   44.8706 H   0  0  0  0  0  0  0  0  0  0  0  0
   57.4892   34.0708   43.7886 H   0  0  0  0  0  0  0  0  0  0  0  0
   59.5820   29.1676   48.2758 H   0  0  0  0  0  0  0  0  0  0  0  0
   62.6591   33.4600   49.6676 H   0  0  0  0  0  0  0  0  0  0  0  0
   63.4426   31.8407   49.5310 H   0  0  0  0  0  0  0  0  0  0  0  0
   64.1934   34.3530   48.2629 H   0  0  0  0  0  0  0  0  0  0  0  0
   65.0374   32.7501   48.2390 H   0  0  0  0  0  0  0  0  0  0  0  0
   62.6738   34.8565   46.6019 H   0  0  0  0  0  0  0  0  0  0  0  0
   62.2837   33.6007   45.3532 H   0  0  0  0  0  0  0  0  0  0  0  0
   60.9793   34.0793   47.8844 H   0  0  0  0  0  0  0  0  0  0  0  0
   60.6028   32.8404   46.6300 H   0  0  0  0  0  0  0  0  0  0  0  0
  1  2  1  0
  2  3  2  0
  3  4  1  0
  4  5  2  0
  5  6  1  0
  6  7  1  0
  7  8  2  0
  7  9  1  0
  9 10  1  0
 10 11  1  0
 11 12  2  0
 12 13  1  0
 13 14  1  0
 14 15  2  0
 14 16  1  0
 16 17  1  0
 17 18  1  0
 18 19  1  0
 13 20  2  0
 20 21  1  0
 20 22  1  0
 22 23  2  0
  5 24  1  0
 24 25  2  0
 25 26  1  0
 26 27  2  0
 26 28  2  0
 26 29  1  0
 29 30  1  0
 30 31  1  0
 31 32  1  0
 32 33  1  0
 33 34  1  0
 25  2  1  0
 34 29  1  0
 22 10  1  0
 19 16  1  0
  1 35  1  0
  1 36  1  0
  1 37  1  0
  3 38  1  0
  4 39  1  0
  9 40  1  0
  9 41  1  0
 11 42  1  0
 12 43  1  0
 17 44  1  0
 17 45  1  0
 18 46  1  0
 18 47  1  0
 19 48  1  0
 19 49  1  0
 24 50  1  0
 30 51  1  0
 30 52  1  0
 31 53  1  0
 31 54  1  0
 33 55  1  0
 33 56  1  0
 34 57  1  0
 34 58  1  0
M  CHG  2   6  -1  21  -1
M  END
>  <UniqueID>  (61) 
57

>  <SMILES>  (61) 
Cc1ccc([N-]C(=O)Cn2ccc(C(=O)N3CCC3)c([O-])c2=O)cc1S(=O)(=O)N1CCOCC1

>  <Energy>  (61) 
124.33156993454838

>  <Genealogy>  (61) 
Cc1ccc([N-]C(=O)Cn2ccc(C(=O)N3CCC3)c([O-])c2=O)cc1S(=O)(=O)N1CCOCC1 (protonated)
Cc1ccc([N-]C(=O)Cn2ccc(C(=O)N3CCC3)c([O-])c2=O)cc1S(=O)(=O)N1CCOCC1 (3D coordinates assigned)
Cc1ccc([N-]C(=O)Cn2ccc(C(=O)N3CCC3)c([O-])c2=O)cc1S(=O)(=O)N1CCOCC1 (nonaromatic ring conformer: 124.33156993454838 kcal/mol)

>  <smiles>  (61) 
Cc1ccc(NC(=O)Cn2ccc(C(=O)N3CCC3)c(O)c2=O)cc1S(=O)(=O)N1CCOCC1

>  <score_type>  (61) 
oracle

>  <origin>  (61) 
adg

>  <m_score__min__energy>  (61) 
-13.94

>  <m_primary>  (61) 
energy

$$$$
61:0
     RDKit          3D

 33 35  0  0  0  0  0  0  0  0999 V2000
   57.1760   24.5920   46.7970 C   0  0  0  0  0  0  0  0  0  0  0  0
   57.3830   25.7980   46.2700 C   0  0  0  0  0  0  0  0  0  0  0  0
   58.6080   26.3180   46.0030 N   0  0  0  0  0  0  0  0  0  0  0  0
   58.4280   27.5270   45.4880 N   0  0  0  0  0  0  0  0  0  0  0  0
   59.3700   28.4090   45.0700 C   0  0  0  0  0  0  0  0  0  0  0  0
   60.5970   28.1320   45.1440 O   0  0  0  0  0  0  0  0  0  0  0  0
   58.9390   29.6380   44.5520 C   0  0  0  0  0  0  0  0  0  0  0  0
   57.5500   29.9040   44.4900 C   0  0  0  0  0  0  0  0  0  0  0  0
   57.0550   31.1980   43.9170 C   0  0  0  0  0  0  0  0  0  0  0  0
   56.6440   32.0790   44.9590 O   0  0  0  0  0  0  0  0  0  0  0  0
   57.2640   33.3090   45.2170 C   0  0  0  0  0  0  0  0  0  0  0  0
   56.6730   34.3880   44.9330 O   0  0  0  0  0  0  0  0  0  0  0  0
   58.6130   33.3390   45.8240 C   0  0  0  0  0  0  0  0  0  0  0  0
   59.3820   34.5150   45.7870 C   0  0  0  0  0  0  0  0  0  0  0  0
   60.6570   34.5460   46.3610 C   0  0  0  0  0  0  0  0  0  0  0  0
   61.1780   33.4050   46.9770 C   0  0  0  0  0  0  0  0  0  0  0  0
   62.7770   33.4460   47.6970 Cl  0  0  0  0  0  0  0  0  0  0  0  0
   60.4210   32.2300   47.0210 C   0  0  0  0  0  0  0  0  0  0  0  0
   59.1460   32.1940   46.4470 C   0  0  0  0  0  0  0  0  0  0  0  0
   56.6520   28.9700   44.9240 N   0  0  0  0  0  0  0  0  0  0  0  0
   57.1160   27.7970   45.4170 C   0  0  0  0  0  0  0  0  0  0  0  0
   56.4120   26.7240   45.9040 C   0  0  0  0  0  0  0  0  0  0  0  0
   55.1600   26.6090   45.9960 O   0  0  0  0  0  0  0  0  0  0  0  0
   56.1500   24.2421   46.9837 H   0  0  0  0  0  0  0  0  0  0  0  0
   58.0311   23.9462   47.0454 H   0  0  0  0  0  0  0  0  0  0  0  0
   59.5350   25.8640   46.1660 H   0  0  0  0  0  0  0  0  0  0  0  0
   59.6676   30.3830   44.1997 H   0  0  0  0  0  0  0  0  0  0  0  0
   57.8631   31.6714   43.3401 H   0  0  0  0  0  0  0  0  0  0  0  0
   56.1940   30.9923   43.2640 H   0  0  0  0  0  0  0  0  0  0  0  0
   58.9784   35.4168   45.3034 H   0  0  0  0  0  0  0  0  0  0  0  0
   61.2513   35.4710   46.3275 H   0  0  0  0  0  0  0  0  0  0  0  0
   60.8291   31.3321   47.5081 H   0  0  0  0  0  0  0  0  0  0  0  0
   58.5563   31.2661   46.4824 H   0  0  0  0  0  0  0  0  0  0  0  0
  1  2  2  0
  2  3  1  0
  3  4  1  0
  4  5  1  0
  5  6  2  0
  5  7  1  0
  7  8  2  0
  8  9  1  0
  9 10  1  0
 10 11  1  0
 11 12  2  0
 11 13  1  0
 13 14  2  0
 14 15  1  0
 15 16  2  0
 16 17  1  0
 16 18  1  0
 18 19  2  0
  8 20  1  0
 20 21  2  0
 21 22  1  0
 22 23  2  0
 22  2  1  0
 21  4  1  0
 19 13  1  0
  1 24  1  0
  1 25  1  0
  3 26  1  0
  7 27  1  0
  9 28  1  0
  9 29  1  0
 14 30  1  0
 15 31  1  0
 18 32  1  0
 19 33  1  0
M  END
>  <UniqueID>  (62) 
58

>  <SMILES>  (62) 
C=c1[nH]n2c(=O)cc(COC(=O)c3ccc(Cl)cc3)nc2c1=O

>  <Energy>  (62) 
76.0612216264232

>  <Genealogy>  (62) 
C=c1[nH]n2c(=O)cc(COC(=O)c3ccc(Cl)cc3)nc2c1=O (3D coordinates assigned)
C=c1[nH]n2c(=O)cc(COC(=O)c3ccc(Cl)cc3)nc2c1=O (optimized conformer: 76.0612216264232 kcal/mol)

>  <smiles>  (62) 
C=c1[nH]n2c(=O)cc(COC(=O)c3ccc(Cl)cc3)nc2c1=O

>  <score_type>  (62) 
oracle

>  <origin>  (62) 
adg

>  <m_score__min__energy>  (62) 
-8.0199999999999996

>  <m_primary>  (62) 
energy

$$$$
62:0
     RDKit          3D

 38 39  0  0  1  0  0  0  0  0999 V2000
   61.5110   30.9220   47.3310 C   0  0  0  0  0  0  0  0  0  0  0  0
   60.3700   30.2730   47.5560 C   0  0  0  0  0  0  0  0  0  0  0  0
   60.3420   28.7900   47.7030 C   0  0  0  0  0  0  0  0  0  0  0  0
   59.9460   28.1090   46.4920 N   0  0  0  0  0  0  0  0  0  0  0  0
   58.7260   28.1860   46.0780 C   0  0  0  0  0  0  0  0  0  0  0  0
   57.8840   27.1250   46.3530 C   0  0  0  0  0  0  0  0  0  0  0  0
   56.5720   27.1430   45.9390 C   0  0  0  0  0  0  0  0  0  0  0  0
   55.7340   26.0710   46.2220 O   0  0  0  0  0  0  0  0  0  0  0  0
   56.1550   28.2320   45.2610 N   0  0  0  0  0  0  0  0  0  0  0  0
   56.9880   29.2750   44.9910 C   0  0  0  0  0  0  0  0  0  0  0  0
   56.4620   30.2520   44.3350 N   0  0  0  0  0  0  0  0  0  0  0  0
   57.3060   31.3960   44.0410 C   0  0  0  0  0  0  0  0  0  0  0  0
   56.7760   32.5250   44.9310 C   0  0  0  0  0  0  0  0  0  0  0  0
   57.8480   33.2410   45.6360 C   0  0  0  0  0  0  0  0  0  0  0  0
   58.4630   34.3010   44.9880 C   0  0  0  0  0  0  0  0  0  0  0  0
   59.4750   34.9900   45.6290 C   0  0  0  0  0  0  0  0  0  0  0  0
   59.8740   34.6330   46.9010 C   0  0  0  0  0  0  0  0  0  0  0  0
   59.2680   33.5710   47.5700 C   0  0  0  0  0  0  0  0  0  0  0  0
   58.2610   32.8960   46.9130 C   0  0  0  0  0  0  0  0  0  0  0  0
   58.2710   29.2550   45.3970 N   0  0  0  0  0  0  0  0  0  0  0  0
   61.5094   32.0169   47.2256 H   0  0  0  0  0  0  0  0  0  0  0  0
   62.4550   30.3631   47.2505 H   0  0  0  0  0  0  0  0  0  0  0  0
   59.4316   30.8415   47.6348 H   0  0  0  0  0  0  0  0  0  0  0  0
   61.3484   28.4468   47.9848 H   0  0  0  0  0  0  0  0  0  0  0  0
   59.5949   28.5503   48.4740 H   0  0  0  0  0  0  0  0  0  0  0  0
   58.2670   26.2566   46.9090 H   0  0  0  0  0  0  0  0  0  0  0  0
   54.8960   26.3190   46.7630 H   0  0  0  0  0  0  0  0  0  0  0  0
   55.1490   28.2340   44.9490 H   0  0  0  0  0  0  0  0  0  0  0  0
   58.3556   31.1737   44.2839 H   0  0  0  0  0  0  0  0  0  0  0  0
   57.2775   31.6650   42.9748 H   0  0  0  0  0  0  0  0  0  0  0  0
   56.2285   33.2420   44.3015 H   0  0  0  0  0  0  0  0  0  0  0  0
   56.1235   32.0708   45.6913 H   0  0  0  0  0  0  0  0  0  0  0  0
   58.1488   34.5906   43.9744 H   0  0  0  0  0  0  0  0  0  0  0  0
   59.9676   35.8317   45.1201 H   0  0  0  0  0  0  0  0  0  0  0  0
   60.6815   35.1944   47.3937 H   0  0  0  0  0  0  0  0  0  0  0  0
   59.5813   33.2822   48.5841 H   0  0  0  0  0  0  0  0  0  0  0  0
   57.7680   32.0538   47.4206 H   0  0  0  0  0  0  0  0  0  0  0  0
   58.8880   30.0420   45.1890 H   0  0  0  0  0  0  0  0  0  0  0  0
  1  2  2  0
  2  3  1  0
  3  4  1  0
  4  5  2  0
  5  6  1  0
  6  7  2  0
  7  8  1  0
  7  9  1  0
  9 10  1  0
 10 11  2  0
 11 12  1  0
 12 13  1  0
 13 14  1  0
 14 15  2  0
 15 16  1  0
 16 17  2  0
 17 18  1  0
 18 19  2  0
 10 20  1  0
 20  5  1  0
 19 14  1  0
  1 21  1  0
  1 22  1  0
  2 23  1  0
  3 24  1  0
  3 25  1  0
  6 26  1  0
  8 27  1  0
  9 28  1  0
 12 29  1  0
 12 30  1  0
 13 31  1  0
 13 32  1  0
 15 33  1  0
 16 34  1  0
 17 35  1  0
 18 36  1  0
 19 37  1  0
 20 38  1  0
M  END
>  <smiles>  (63) 
C=CCN=c1cc(O)[nH]c(=NCCc2ccccc2)[nH]1

>  <score_type>  (63) 
oracle

>  <origin>  (63) 
adg

>  <m_score__min__energy>  (63) 
-7.7199999999999998

>  <m_primary>  (63) 
energy

$$$$
63:0
     RDKit          3D

 45 47  0  0  0  0  0  0  0  0999 V2000
   62.7960   31.0960   50.8670 C   0  0  0  0  0  0  0  0  0  0  0  0
   61.8220   31.6460   49.9260 N   0  0  0  0  0  0  0  0  0  0  0  0
   61.0520   30.7920   49.0510 C   0  0  0  0  0  0  0  0  0  0  0  0
   60.9610   29.3860   49.3290 N   0  0  0  0  0  0  0  0  0  0  0  0
   60.4370   31.2640   47.9920 N   0  0  0  0  0  0  0  0  0  0  0  0
   60.5030   32.6550   47.4810 C   0  0  1  0  0  0  0  0  0  0  0  0
   61.8650   32.8080   46.7570 C   0  0  0  0  0  0  0  0  0  0  0  0
   59.3040   32.9150   46.5390 C   0  0  0  0  0  0  0  0  0  0  0  0
   58.6160   31.8040   45.9930 C   0  0  0  0  0  0  0  0  0  0  0  0
   57.4870   31.9710   45.1710 C   0  0  0  0  0  0  0  0  0  0  0  0
   56.8070   30.8550   44.5780 N   0  0  0  0  0  0  0  0  0  0  0  0
   56.6440   29.5510   45.1540 C   0  0  0  0  0  0  0  0  0  0  0  0
   55.5240   28.9720   45.1010 O   0  0  0  0  0  0  0  0  0  0  0  0
   57.8030   28.8580   45.7620 C   0  0  0  0  0  0  0  0  0  0  0  0
   58.5880   27.9680   45.0090 C   0  0  0  0  0  0  0  0  0  0  0  0
   59.6800   27.3250   45.5960 C   0  0  0  0  0  0  0  0  0  0  0  0
   59.9830   27.5760   46.9350 C   0  0  0  0  0  0  0  0  0  0  0  0
   60.9640   27.0050   47.4800 O   0  0  0  0  0  0  0  0  0  0  0  0
   59.2180   28.4400   47.6540 N   0  0  0  0  0  0  0  0  0  0  0  0
   58.1500   29.0790   47.1060 C   0  0  0  0  0  0  0  0  0  0  0  0
   57.0400   33.2580   44.8780 C   0  0  0  0  0  0  0  0  0  0  0  0
   57.6620   34.3640   45.4500 C   0  0  0  0  0  0  0  0  0  0  0  0
   58.7640   34.2050   46.2940 C   0  0  0  0  0  0  0  0  0  0  0  0
   59.2700   35.3220   46.8690 F   0  0  0  0  0  0  0  0  0  0  0  0
   60.3760   33.6760   48.6350 C   0  0  0  0  0  0  0  0  0  0  0  0
   61.5800   33.3560   49.8910 S   0  0  0  0  0  0  0  0  0  0  0  0
   62.8690   34.0540   49.5580 O   0  0  0  0  0  0  0  0  0  0  0  0
   61.0680   33.8320   51.2210 O   0  0  0  0  0  0  0  0  0  0  0  0
   62.4590   31.2863   51.8967 H   0  0  0  0  0  0  0  0  0  0  0  0
   62.8894   30.0118   50.7062 H   0  0  0  0  0  0  0  0  0  0  0  0
   63.7726   31.5760   50.7062 H   0  0  0  0  0  0  0  0  0  0  0  0
   60.4260   28.7490   48.6990 H   0  0  0  0  0  0  0  0  0  0  0  0
   61.4030   28.9600   50.1720 H   0  0  0  0  0  0  0  0  0  0  0  0
   59.9550   30.5660   47.3790 H   0  0  0  0  0  0  0  0  0  0  0  0
   62.6686   32.8983   47.5027 H   0  0  0  0  0  0  0  0  0  0  0  0
   62.0468   31.9246   46.1272 H   0  0  0  0  0  0  0  0  0  0  0  0
   61.8462   33.7097   46.1272 H   0  0  0  0  0  0  0  0  0  0  0  0
   58.9726   30.7878   46.2168 H   0  0  0  0  0  0  0  0  0  0  0  0
   58.3415   27.7773   43.9541 H   0  0  0  0  0  0  0  0  0  0  0  0
   60.2953   26.6275   45.0087 H   0  0  0  0  0  0  0  0  0  0  0  0
   57.5545   29.7726   47.7178 H   0  0  0  0  0  0  0  0  0  0  0  0
   56.1921   33.4004   44.1918 H   0  0  0  0  0  0  0  0  0  0  0  0
   57.2820   35.3737   45.2353 H   0  0  0  0  0  0  0  0  0  0  0  0
   60.5297   34.6902   48.2379 H   0  0  0  0  0  0  0  0  0  0  0  0
   59.3727   33.5862   49.0768 H   0  0  0  0  0  0  0  0  0  0  0  0
  1  2  1  0
  2  3  1  0
  3  4  1  0
  3  5  2  0
  5  6  1  0
  6  7  1  6
  6  8  1  0
  8  9  2  0
  9 10  1  0
 10 11  1  0
 11 12  1  0
 12 13  2  0
 12 14  1  0
 14 15  1  0
 15 16  2  0
 16 17  1  0
 17 18  2  0
 17 19  1  0
 19 20  1  0
 10 21  2  0
 21 22  1  0
 22 23  2  0
 23 24  1  0
  6 25  1  0
 25 26  1  0
 26 27  2  0
 26 28  2  0
 26  2  1  0
 23  8  1  0
 20 14  2  0
  1 29  1  0
  1 30  1  0
  1 31  1  0
  4 32  1  0
  4 33  1  0
  5 34  1  0
  7 35  1  0
  7 36  1  0
  7 37  1  0
  9 38  1  0
 15 39  1  0
 16 40  1  0
 20 41  1  0
 21 42  1  0
 22 43  1  0
 25 44  1  0
 25 45  1  0
M  CHG  3   5   1  11  -1  19  -1
M  END
>  <UniqueID>  (64) 
59

>  <SMILES>  (64) 
CN1C(N)=[NH+][C@@](C)(c2cc([N-]C(=O)c3ccc(=O)[n-]c3)ccc2F)CS1(=O)=O

>  <Energy>  (64) 
59.890469647604824

>  <Genealogy>  (64) 
CN1C(N)=[NH+]C(C)(c2cc([N-]C(=O)c3ccc(=O)[n-]c3)ccc2F)CS1(=O)=O (protonated)
CN1C(N)=[NH+][C@@](C)(c2cc([N-]C(=O)c3ccc(=O)[n-]c3)ccc2F)CS1(=O)=O (chirality)
CN1C(N)=[NH+][C@@](C)(c2cc([N-]C(=O)c3ccc(=O)[n-]c3)ccc2F)CS1(=O)=O (3D coordinates assigned)
CN1C(N)=[NH+][C@@](C)(c2cc([N-]C(=O)c3ccc(=O)[n-]c3)ccc2F)CS1(=O)=O (nonaromatic ring conformer: 59.890469647604824 kcal/mol)

>  <smiles>  (64) 
CN1C(N)=NC(C)(c2cc(NC(=O)c3ccc(=O)[nH]c3)ccc2F)CS1(=O)=O

>  <score_type>  (64) 
oracle

>  <origin>  (64) 
adg

>  <m_score__min__energy>  (64) 
-10.34

>  <m_primary>  (64) 
energy

$$$$
64:0
     RDKit          3D

 38 40  0  0  0  0  0  0  0  0999 V2000
   55.8400   29.7130   46.0320 H   0  0  0  0  0  0  0  0  0  0  0  0
   55.6800   29.7770   45.0340 O   0  0  0  0  0  0  0  0  0  0  0  0
   56.4710   30.5780   44.2120 C   0  0  0  0  0  0  0  0  0  0  0  0
   56.3490   30.4570   42.8200 C   0  0  0  0  0  0  0  0  0  0  0  0
   55.6912   29.6857   42.3930 H   0  0  0  0  0  0  0  0  0  0  0  0
   57.0570   31.3090   41.9760 C   0  0  0  0  0  0  0  0  0  0  0  0
   56.9646   31.2127   40.8841 H   0  0  0  0  0  0  0  0  0  0  0  0
   57.8830   32.2840   42.5290 C   0  0  0  0  0  0  0  0  0  0  0  0
   58.4318   32.9764   41.8737 H   0  0  0  0  0  0  0  0  0  0  0  0
   58.0110   32.3800   43.8780 N   0  0  0  0  0  0  0  0  0  0  0  0
   57.3610   31.5510   44.7410 C   0  0  0  0  0  0  0  0  0  0  0  0
   57.5790   31.7150   46.0180 N   0  0  0  0  0  0  0  0  0  0  0  0
   58.4570   30.9770   46.8780 C   0  0  0  0  0  0  0  0  0  0  0  0
   59.1250   31.5910   47.7500 O   0  0  0  0  0  0  0  0  0  0  0  0
   58.6740   29.5350   46.6690 C   0  0  0  0  0  0  0  0  0  0  0  0
   57.7930   28.7420   46.1050 O   0  0  0  0  0  0  0  0  0  0  0  0
   58.2730   27.5200   46.0880 C   0  0  0  0  0  0  0  0  0  0  0  0
   57.5210   26.3640   45.5470 C   0  0  0  0  0  0  0  0  0  0  0  0
   58.0840   25.5000   44.5930 C   0  0  0  0  0  0  0  0  0  0  0  0
   59.1056   25.6798   44.2268 H   0  0  0  0  0  0  0  0  0  0  0  0
   57.3520   24.4130   44.1070 C   0  0  0  0  0  0  0  0  0  0  0  0
   57.7940   23.7486   43.3498 H   0  0  0  0  0  0  0  0  0  0  0  0
   56.0610   24.1680   44.5800 C   0  0  0  0  0  0  0  0  0  0  0  0
   55.4869   23.3158   44.1873 H   0  0  0  0  0  0  0  0  0  0  0  0
   55.4940   25.0010   45.5510 C   0  0  0  0  0  0  0  0  0  0  0  0
   54.1570   24.7320   45.9990 N   0  0  0  0  0  0  0  0  0  0  0  0
   53.5060   23.4560   46.0570 C   0  0  0  0  0  0  0  0  0  0  0  0
   52.8610   23.0570   45.0520 O   0  0  0  0  0  0  0  0  0  0  0  0
   53.5990   22.5620   47.2570 C   0  0  0  0  0  0  0  0  0  0  0  0
   53.5359   23.1690   48.1722 H   0  0  0  0  0  0  0  0  0  0  0  0
   52.7714   21.8376   47.2396 H   0  0  0  0  0  0  0  0  0  0  0  0
   54.5580   22.0235   47.2396 H   0  0  0  0  0  0  0  0  0  0  0  0
   56.2160   26.1160   46.0080 C   0  0  0  0  0  0  0  0  0  0  0  0
   55.7556   26.8022   46.7341 H   0  0  0  0  0  0  0  0  0  0  0  0
   59.5370   27.5100   46.6600 C   0  0  0  0  0  0  0  0  0  0  0  0
   60.1993   26.6412   46.7889 H   0  0  0  0  0  0  0  0  0  0  0  0
   59.7930   28.8130   47.0340 C   0  0  0  0  0  0  0  0  0  0  0  0
   60.7008   29.1973   47.5220 H   0  0  0  0  0  0  0  0  0  0  0  0
  1  2  1  0
  2  3  1  0
  3  4  2  0
  4  5  1  0
  4  6  1  0
  6  7  1  0
  6  8  2  0
  8  9  1  0
  8 10  1  0
 10 11  1  0
 11 12  2  0
 12 13  1  0
 13 14  2  0
 13 15  1  0
 15 16  1  0
 16 17  1  0
 17 18  1  0
 18 19  2  0
 19 20  1  0
 19 21  1  0
 21 22  1  0
 21 23  2  0
 23 24  1  0
 23 25  1  0
 25 26  1  0
 26 27  1  0
 27 28  2  0
 27 29  1  0
 29 30  1  0
 29 31  1  0
 29 32  1  0
 25 33  2  0
 33 34  1  0
 17 35  2  0
 35 36  1  0
 35 37  1  0
 37 38  1  0
 11  3  1  0
 37 15  2  0
 33 18  1  0
M  CHG  2  10  -1  26  -1
M  END
>  <UniqueID>  (65) 
60

>  <SMILES>  (65) 
CC(=O)[N-]c1cccc(-c2ccc(C(=O)/N=c3/[n-]cccc3O)o2)c1

>  <Energy>  (65) 
81.06172331945444

>  <Genealogy>  (65) 
CC(=O)[N-]c1cccc(-c2ccc(C(=O)N=c3[n-]cccc3O)o2)c1 (protonated)
CC(=O)[N-]c1cccc(-c2ccc(C(=O)/N=c3/[n-]cccc3O)o2)c1 (cis-trans isomerization)
CC(=O)[N-]c1cccc(-c2ccc(C(=O)/N=c3/[n-]cccc3O)o2)c1 (3D coordinates assigned)
CC(=O)[N-]c1cccc(-c2ccc(C(=O)/N=c3/[n-]cccc3O)o2)c1 (optimized conformer: 81.06172331945444 kcal/mol)

>  <smiles>  (65) 
CC(=O)Nc1cccc(-c2ccc(C(=O)N=c3[nH]cccc3O)o2)c1

>  <score_type>  (65) 
oracle

>  <origin>  (65) 
adg

>  <m_score__min__energy>  (65) 
-11.720000000000001

>  <m_primary>  (65) 
energy

$$$$
65:0
     RDKit          3D

 38 40  0  0  0  0  0  0  0  0999 V2000
   58.8310   24.4230   46.1070 O   0  0  0  0  0  0  0  0  0  0  0  0
   58.1120   25.3950   45.7520 C   0  0  0  0  0  0  0  0  0  0  0  0
   57.2780   25.2810   44.5150 C   0  0  0  0  0  0  0  0  0  0  0  0
   55.9760   24.5710   44.8170 C   0  0  0  0  0  0  0  0  0  0  0  0
   54.9670   25.1540   45.6200 C   0  0  0  0  0  0  0  0  0  0  0  0
   55.0970   26.4250   46.1810 O   0  0  0  0  0  0  0  0  0  0  0  0
   53.8230   24.4640   45.8640 N   0  0  0  0  0  0  0  0  0  0  0  0
   53.6280   23.2160   45.3710 C   0  0  0  0  0  0  0  0  0  0  0  0
   52.5530   22.6050   45.6130 O   0  0  0  0  0  0  0  0  0  0  0  0
   54.5880   22.6240   44.6210 N   0  0  0  0  0  0  0  0  0  0  0  0
   55.7510   23.2620   44.3390 C   0  0  0  0  0  0  0  0  0  0  0  0
   56.6210   22.6710   43.6460 O   0  0  0  0  0  0  0  0  0  0  0  0
   58.0180   26.5720   46.5640 N   0  0  0  0  0  0  0  0  0  0  0  0
   57.8300   27.9190   46.1030 C   0  0  0  0  0  0  0  0  0  0  0  0
   56.8790   28.2460   45.1190 C   0  0  0  0  0  0  0  0  0  0  0  0
   56.7150   29.5740   44.7140 C   0  0  0  0  0  0  0  0  0  0  0  0
   57.4930   30.5930   45.2880 C   0  0  0  0  0  0  0  0  0  0  0  0
   57.3450   31.9380   44.9190 O   0  0  0  0  0  0  0  0  0  0  0  0
   58.0560   33.0150   45.4680 C   0  0  0  0  0  0  0  0  0  0  0  0
   58.8200   33.8880   44.6710 C   0  0  0  0  0  0  0  0  0  0  0  0
   59.5260   34.9410   45.2600 C   0  0  0  0  0  0  0  0  0  0  0  0
   59.4880   35.1230   46.6450 C   0  0  0  0  0  0  0  0  0  0  0  0
   58.7490   34.2460   47.4440 C   0  0  0  0  0  0  0  0  0  0  0  0
   58.0410   33.1920   46.8590 C   0  0  0  0  0  0  0  0  0  0  0  0
   58.4050   30.2700   46.2990 C   0  0  0  0  0  0  0  0  0  0  0  0
   58.5710   28.9430   46.7040 C   0  0  0  0  0  0  0  0  0  0  0  0
   57.0603   26.2886   44.1311 H   0  0  0  0  0  0  0  0  0  0  0  0
   57.8336   24.7007   43.7636 H   0  0  0  0  0  0  0  0  0  0  0  0
   55.8700   26.7030   46.7700 H   0  0  0  0  0  0  0  0  0  0  0  0
   56.2629   27.4547   44.6671 H   0  0  0  0  0  0  0  0  0  0  0  0
   55.9724   29.8223   43.9414 H   0  0  0  0  0  0  0  0  0  0  0  0
   58.8617   33.7413   43.5816 H   0  0  0  0  0  0  0  0  0  0  0  0
   60.1126   35.6277   44.6320 H   0  0  0  0  0  0  0  0  0  0  0  0
   60.0392   35.9558   47.1061 H   0  0  0  0  0  0  0  0  0  0  0  0
   58.7245   34.3854   48.5349 H   0  0  0  0  0  0  0  0  0  0  0  0
   57.4694   32.4982   47.4929 H   0  0  0  0  0  0  0  0  0  0  0  0
   58.9948   31.0656   46.7778 H   0  0  0  0  0  0  0  0  0  0  0  0
   59.2894   28.7014   47.5011 H   0  0  0  0  0  0  0  0  0  0  0  0
  1  2  2  0
  2  3  1  0
  3  4  1  0
  4  5  2  0
  5  6  1  0
  5  7  1  0
  7  8  1  0
  8  9  2  0
  8 10  1  0
 10 11  1  0
 11 12  2  0
  2 13  1  0
 13 14  1  0
 14 15  2  0
 15 16  1  0
 16 17  2  0
 17 18  1  0
 18 19  1  0
 19 20  2  0
 20 21  1  0
 21 22  2  0
 22 23  1  0
 23 24  2  0
 17 25  1  0
 25 26  2  0
 11  4  1  0
 26 14  1  0
 24 19  1  0
  3 27  1  0
  3 28  1  0
  6 29  1  0
 15 30  1  0
 16 31  1  0
 20 32  1  0
 21 33  1  0
 22 34  1  0
 23 35  1  0
 24 36  1  0
 25 37  1  0
 26 38  1  0
M  CHG  3   7  -1  10  -1  13  -1
M  END
>  <UniqueID>  (66) 
61

>  <SMILES>  (66) 
O=C(Cc1c(O)[n-]c(=O)[n-]c1=O)[N-]c1ccc(Oc2ccccc2)cc1

>  <Energy>  (66) 
53.12735982871896

>  <Genealogy>  (66) 
O=C(Cc1c(O)[n-]c(=O)[n-]c1=O)[N-]c1ccc(Oc2ccccc2)cc1 (protonated)
O=C(Cc1c(O)[n-]c(=O)[n-]c1=O)[N-]c1ccc(Oc2ccccc2)cc1 (3D coordinates assigned)
O=C(Cc1c(O)[n-]c(=O)[n-]c1=O)[N-]c1ccc(Oc2ccccc2)cc1 (optimized conformer: 53.12735982871896 kcal/mol)

>  <smiles>  (66) 
O=C(Cc1c(O)[nH]c(=O)[nH]c1=O)Nc1ccc(Oc2ccccc2)cc1

>  <score_type>  (66) 
oracle

>  <origin>  (66) 
adg

>  <m_score__min__energy>  (66) 
-13.94

>  <m_primary>  (66) 
energy

$$$$
66:0
     RDKit          3D

 51 54  0  0  0  0  0  0  0  0999 V2000
   57.7750   27.0750   44.0610 O   0  0  0  0  0  0  0  0  0  0  0  0
   57.0830   27.8320   44.7940 C   0  0  0  0  0  0  0  0  0  0  0  0
   56.0400   27.2850   45.6230 N   0  0  0  0  0  0  0  0  0  0  0  0
   55.9010   26.0450   46.0000 C   0  0  0  0  0  0  0  0  0  0  0  0
   54.7370   25.3670   45.7870 N   0  0  0  0  0  0  0  0  0  0  0  0
   54.5750   24.0730   46.1710 C   0  0  0  0  0  0  0  0  0  0  0  0
   55.6170   23.3970   46.8060 C   0  0  0  0  0  0  0  0  0  0  0  0
   56.8230   24.0630   47.0350 C   0  0  0  0  0  0  0  0  0  0  0  0
   56.9730   25.3940   46.6320 C   0  0  0  0  0  0  0  0  0  0  0  0
   58.1740   26.0680   46.8520 O   0  0  0  0  0  0  0  0  0  0  0  0
   57.3490   29.2970   44.8230 C   0  0  0  0  0  0  0  0  0  0  0  0
   57.1070   30.0570   43.6600 C   0  0  0  0  0  0  0  0  0  0  0  0
   57.3380   31.4320   43.6410 C   0  0  0  0  0  0  0  0  0  0  0  0
   57.7940   32.0870   44.7900 C   0  0  0  0  0  0  0  0  0  0  0  0
   58.0470   33.5720   44.7730 C   0  0  0  0  0  0  0  0  0  0  0  0
   58.9710   33.9610   45.8950 C   0  0  0  0  0  0  0  0  0  0  0  0
   58.4620   34.2430   47.1720 C   0  0  0  0  0  0  0  0  0  0  0  0
   59.3420   34.5640   48.2080 C   0  0  0  0  0  0  0  0  0  0  0  0
   60.6820   34.5930   47.9790 N   0  0  0  0  0  0  0  0  0  0  0  0
   61.2040   34.3150   46.7560 C   0  0  0  0  0  0  0  0  0  0  0  0
   60.3590   33.9910   45.6910 C   0  0  0  0  0  0  0  0  0  0  0  0
   58.0480   31.3450   45.9510 C   0  0  0  0  0  0  0  0  0  0  0  0
   57.8430   29.9530   45.9800 C   0  0  0  0  0  0  0  0  0  0  0  0
   58.1570   29.1910   47.1550 N   0  0  0  0  0  0  0  0  0  0  0  0
   59.7000   28.4910   47.5280 S   0  0  0  0  0  0  0  0  0  0  0  0
   59.5180   27.4440   48.5890 O   0  0  0  0  0  0  0  0  0  0  0  0
   60.2960   27.8740   46.2940 O   0  0  0  0  0  0  0  0  0  0  0  0
   60.7850   29.7400   48.1270 C   0  0  0  0  0  0  0  0  0  0  0  0
   60.8780   30.0010   49.5020 C   0  0  0  0  0  0  0  0  0  0  0  0
   61.7310   31.0050   49.9700 C   0  0  0  0  0  0  0  0  0  0  0  0
   62.4900   31.7560   49.0680 C   0  0  0  0  0  0  0  0  0  0  0  0
   62.3970   31.5020   47.6960 C   0  0  0  0  0  0  0  0  0  0  0  0
   63.1300   32.2350   46.8210 F   0  0  0  0  0  0  0  0  0  0  0  0
   61.5460   30.4970   47.2250 C   0  0  0  0  0  0  0  0  0  0  0  0
   53.6215   23.5586   45.9808 H   0  0  0  0  0  0  0  0  0  0  0  0
   55.4902   22.3513   47.1228 H   0  0  0  0  0  0  0  0  0  0  0  0
   57.6542   23.5413   47.5319 H   0  0  0  0  0  0  0  0  0  0  0  0
   58.2580   27.0680   46.7010 H   0  0  0  0  0  0  0  0  0  0  0  0
   56.7306   29.5580   42.7549 H   0  0  0  0  0  0  0  0  0  0  0  0
   57.1609   32.0043   42.7184 H   0  0  0  0  0  0  0  0  0  0  0  0
   58.5060   33.8502   43.8128 H   0  0  0  0  0  0  0  0  0  0  0  0
   57.0895   34.0980   44.9015 H   0  0  0  0  0  0  0  0  0  0  0  0
   57.3779   34.2115   47.3557 H   0  0  0  0  0  0  0  0  0  0  0  0
   58.9507   34.7936   49.2101 H   0  0  0  0  0  0  0  0  0  0  0  0
   62.2930   34.3449   46.6038 H   0  0  0  0  0  0  0  0  0  0  0  0
   60.7787   33.7613   44.7005 H   0  0  0  0  0  0  0  0  0  0  0  0
   58.4130   31.8580   46.8530 H   0  0  0  0  0  0  0  0  0  0  0  0
   60.2785   29.4144   50.2137 H   0  0  0  0  0  0  0  0  0  0  0  0
   61.8049   31.2041   51.0493 H   0  0  0  0  0  0  0  0  0  0  0  0
   63.1601   32.5464   49.4372 H   0  0  0  0  0  0  0  0  0  0  0  0
   61.4736   30.3002   46.1452 H   0  0  0  0  0  0  0  0  0  0  0  0
  1  2  2  0
  2  3  1  0
  3  4  2  3
  4  5  1  0
  5  6  1  0
  6  7  2  0
  7  8  1  0
  8  9  2  0
  9 10  1  0
  2 11  1  0
 11 12  2  0
 12 13  1  0
 13 14  2  0
 14 15  1  0
 15 16  1  0
 16 17  2  0
 17 18  1  0
 18 19  2  0
 19 20  1  0
 20 21  2  0
 14 22  1  0
 22 23  2  0
 23 24  1  0
 24 25  1  0
 25 26  2  0
 25 27  2  0
 25 28  1  0
 28 29  2  0
 29 30  1  0
 30 31  2  0
 31 32  1  0
 32 33  1  0
 32 34  2  0
  9  4  1  0
 23 11  1  0
 34 28  1  0
 21 16  1  0
  6 35  1  0
  7 36  1  0
  8 37  1  0
 10 38  1  0
 12 39  1  0
 13 40  1  0
 15 41  1  0
 15 42  1  0
 17 43  1  0
 18 44  1  0
 20 45  1  0
 21 46  1  0
 22 47  1  0
 29 48  1  0
 30 49  1  0
 31 50  1  0
 34 51  1  0
M  CHG  2   5  -1  24  -1
M  END
>  <UniqueID>  (67) 
62

>  <SMILES>  (67) 
O=C(N=c1[n-]cccc1O)c1ccc(Cc2ccncc2)cc1[N-]S(=O)(=O)c1cccc(F)c1

>  <Energy>  (67) 
66.2080262227211

>  <Genealogy>  (67) 
O=C(N=c1[n-]cccc1O)c1ccc(Cc2ccncc2)cc1[N-]S(=O)(=O)c1cccc(F)c1 (protonated)
O=C(N=c1[n-]cccc1O)c1ccc(Cc2ccncc2)cc1[N-]S(=O)(=O)c1cccc(F)c1 (3D coordinates assigned)
O=C(N=c1[n-]cccc1O)c1ccc(Cc2ccncc2)cc1[N-]S(=O)(=O)c1cccc(F)c1 (optimized conformer: 66.2080262227211 kcal/mol)

>  <smiles>  (67) 
O=C(N=c1[nH]cccc1O)c1ccc(Cc2ccncc2)cc1NS(=O)(=O)c1cccc(F)c1

>  <score_type>  (67) 
oracle

>  <origin>  (67) 
adg

>  <m_score__min__energy>  (67) 
-13.15

>  <m_primary>  (67) 
energy

$$$$
67:0
     RDKit          3D

 42 44  0  0  0  0  0  0  0  0999 V2000
   59.5840   34.1890   46.3120 C   0  0  0  0  0  0  0  0  0  0  0  0
   60.7340   33.3220   46.7500 C   0  0  0  0  0  0  0  0  0  0  0  0
   62.0400   33.8370   46.6850 C   0  0  0  0  0  0  0  0  0  0  0  0
   63.1340   33.0560   47.0610 C   0  0  0  0  0  0  0  0  0  0  0  0
   62.9400   31.7490   47.5020 C   0  0  0  0  0  0  0  0  0  0  0  0
   61.6510   31.2200   47.5780 C   0  0  0  0  0  0  0  0  0  0  0  0
   60.5350   31.9930   47.2090 C   0  0  0  0  0  0  0  0  0  0  0  0
   59.1600   31.3730   47.3120 C   0  0  0  0  0  0  0  0  0  0  0  0
   59.1230   29.6690   46.6490 S   0  0  0  0  0  0  0  0  0  0  0  0
   58.2520   30.0910   45.1300 C   0  0  0  0  0  0  0  0  0  0  0  0
   58.4480   31.3620   44.5730 C   0  0  0  0  0  0  0  0  0  0  0  0
   57.7800   31.7300   43.4030 C   0  0  0  0  0  0  0  0  0  0  0  0
   56.9260   30.8250   42.7730 C   0  0  0  0  0  0  0  0  0  0  0  0
   56.7320   29.5510   43.3130 C   0  0  0  0  0  0  0  0  0  0  0  0
   57.3830   29.1720   44.5030 C   0  0  0  0  0  0  0  0  0  0  0  0
   57.2150   27.8470   45.0380 N   0  0  0  0  0  0  0  0  0  0  0  0
   57.6950   26.6550   44.3950 C   0  0  0  0  0  0  0  0  0  0  0  0
   58.1380   26.6970   43.2160 O   0  0  0  0  0  0  0  0  0  0  0  0
   57.6030   25.3320   45.1000 C   0  0  0  0  0  0  0  0  0  0  0  0
   56.1840   24.8540   45.2120 C   0  0  0  0  0  0  0  0  0  0  0  0
   55.7760   23.5870   45.0040 N   0  0  0  0  0  0  0  0  0  0  0  0
   54.4580   23.6330   45.2970 C   0  0  0  0  0  0  0  0  0  0  0  0
   53.7100   22.6240   45.2080 O   0  0  0  0  0  0  0  0  0  0  0  0
   54.0060   24.8410   45.6950 N   0  0  0  0  0  0  0  0  0  0  0  0
   55.1130   25.5990   45.6430 C   0  0  0  0  0  0  0  0  0  0  0  0
   55.1480   26.9430   45.9980 O   0  0  0  0  0  0  0  0  0  0  0  0
   59.0629   34.5818   47.1975 H   0  0  0  0  0  0  0  0  0  0  0  0
   59.9650   35.0265   45.7092 H   0  0  0  0  0  0  0  0  0  0  0  0
   58.8837   33.5922   45.7092 H   0  0  0  0  0  0  0  0  0  0  0  0
   62.2018   34.8669   46.3340 H   0  0  0  0  0  0  0  0  0  0  0  0
   64.1505   33.4731   47.0090 H   0  0  0  0  0  0  0  0  0  0  0  0
   63.8043   31.1329   47.7908 H   0  0  0  0  0  0  0  0  0  0  0  0
   61.5060   30.1880   47.9300 H   0  0  0  0  0  0  0  0  0  0  0  0
   58.8602   31.3486   48.3701 H   0  0  0  0  0  0  0  0  0  0  0  0
   58.4670   31.9841   46.7151 H   0  0  0  0  0  0  0  0  0  0  0  0
   59.1314   32.0733   45.0598 H   0  0  0  0  0  0  0  0  0  0  0  0
   57.9275   32.7339   42.9782 H   0  0  0  0  0  0  0  0  0  0  0  0
   56.4041   31.1148   41.8491 H   0  0  0  0  0  0  0  0  0  0  0  0
   56.0656   28.8385   42.8047 H   0  0  0  0  0  0  0  0  0  0  0  0
   56.6580   27.7320   45.9150 H   0  0  0  0  0  0  0  0  0  0  0  0
   58.1854   24.5879   44.5369 H   0  0  0  0  0  0  0  0  0  0  0  0
   58.0007   25.4599   46.1176 H   0  0  0  0  0  0  0  0  0  0  0  0
  1  2  1  0
  2  3  2  0
  3  4  1  0
  4  5  2  0
  5  6  1  0
  6  7  2  0
  7  8  1  0
  8  9  1  0
  9 10  1  0
 10 11  2  0
 11 12  1  0
 12 13  2  0
 13 14  1  0
 14 15  2  0
 15 16  1  0
 16 17  1  0
 17 18  2  0
 17 19  1  0
 19 20  1  0
 20 21  1  0
 21 22  1  0
 22 23  2  0
 22 24  1  0
 24 25  1  0
 25 26  1  0
  7  2  1  0
 15 10  1  0
 25 20  2  0
  1 27  1  0
  1 28  1  0
  1 29  1  0
  3 30  1  0
  4 31  1  0
  5 32  1  0
  6 33  1  0
  8 34  1  0
  8 35  1  0
 11 36  1  0
 12 37  1  0
 13 38  1  0
 14 39  1  0
 16 40  1  0
 19 41  1  0
 19 42  1  0
M  CHG  3  21  -1  24  -1  26  -1
M  END
>  <UniqueID>  (68) 
63

>  <SMILES>  (68) 
Cc1ccccc1CSc1ccccc1NC(=O)Cc1[n-]c(=O)[n-]c1[O-]

>  <Energy>  (68) 
70.300111122532

>  <Genealogy>  (68) 
Cc1ccccc1CSc1ccccc1NC(=O)Cc1[n-]c(=O)[n-]c1[O-] (protonated)
Cc1ccccc1CSc1ccccc1NC(=O)Cc1[n-]c(=O)[n-]c1[O-] (3D coordinates assigned)
Cc1ccccc1CSc1ccccc1NC(=O)Cc1[n-]c(=O)[n-]c1[O-] (optimized conformer: 70.300111122532 kcal/mol)

>  <smiles>  (68) 
Cc1ccccc1CSc1ccccc1NC(=O)Cc1[nH]c(=O)[nH]c1O

>  <score_type>  (68) 
oracle

>  <origin>  (68) 
adg

>  <m_score__min__energy>  (68) 
-17.219999999999999

>  <m_primary>  (68) 
energy

$$$$
68:0
     RDKit          3D

 39 41  0  0  0  0  0  0  0  0999 V2000
   54.7910   26.3410   45.8190 O   0  0  0  0  0  0  0  0  0  0  0  0
   55.8910   25.9970   46.3320 C   0  0  0  0  0  0  0  0  0  0  0  0
   55.9950   24.7510   47.0350 N   0  0  0  0  0  0  0  0  0  0  0  0
   55.3960   23.5010   46.6590 C   0  0  0  0  0  0  0  0  0  0  0  0
   54.1880   23.4390   45.9400 C   0  0  0  0  0  0  0  0  0  0  0  0
   53.6390   22.2350   45.6280 N   0  0  0  0  0  0  0  0  0  0  0  0
   54.2220   21.0640   45.9990 C   0  0  0  0  0  0  0  0  0  0  0  0
   55.4070   21.0760   46.7330 C   0  0  0  0  0  0  0  0  0  0  0  0
   55.9930   22.3000   47.0720 C   0  0  0  0  0  0  0  0  0  0  0  0
   57.0590   22.3170   47.7420 O   0  0  0  0  0  0  0  0  0  0  0  0
   57.0870   26.8550   46.1590 C   0  0  0  0  0  0  0  0  0  0  0  0
   58.2280   26.6570   46.9570 C   0  0  0  0  0  0  0  0  0  0  0  0
   59.3540   27.4660   46.7930 C   0  0  0  0  0  0  0  0  0  0  0  0
   59.3610   28.4780   45.8310 C   0  0  0  0  0  0  0  0  0  0  0  0
   60.4720   29.2430   45.6870 F   0  0  0  0  0  0  0  0  0  0  0  0
   58.2360   28.6910   45.0150 C   0  0  0  0  0  0  0  0  0  0  0  0
   58.2690   29.7320   44.0210 N   0  0  0  0  0  0  0  0  0  0  0  0
   57.2110   31.1080   44.0270 S   0  0  0  0  0  0  0  0  0  0  0  0
   55.8790   30.7100   44.5960 O   0  0  0  0  0  0  0  0  0  0  0  0
   57.0180   31.5850   42.6150 O   0  0  0  0  0  0  0  0  0  0  0  0
   57.8930   32.3860   45.0300 C   0  0  0  0  0  0  0  0  0  0  0  0
   58.0930   32.1660   46.4000 C   0  0  0  0  0  0  0  0  0  0  0  0
   58.6510   33.1690   47.1980 C   0  0  0  0  0  0  0  0  0  0  0  0
   59.0100   34.3950   46.6320 C   0  0  0  0  0  0  0  0  0  0  0  0
   58.8090   34.6210   45.2670 C   0  0  0  0  0  0  0  0  0  0  0  0
   58.2500   33.6190   44.4670 C   0  0  0  0  0  0  0  0  0  0  0  0
   57.0980   27.8800   45.1960 C   0  0  0  0  0  0  0  0  0  0  0  0
   53.6864   24.3674   45.6295 H   0  0  0  0  0  0  0  0  0  0  0  0
   53.7582   20.1065   45.7197 H   0  0  0  0  0  0  0  0  0  0  0  0
   55.8772   20.1311   47.0429 H   0  0  0  0  0  0  0  0  0  0  0  0
   58.2333   25.8599   47.7150 H   0  0  0  0  0  0  0  0  0  0  0  0
   60.2400   27.3053   47.4248 H   0  0  0  0  0  0  0  0  0  0  0  0
   58.8930   29.6270   43.1890 H   0  0  0  0  0  0  0  0  0  0  0  0
   57.8102   31.2020   46.8480 H   0  0  0  0  0  0  0  0  0  0  0  0
   58.8076   32.9929   48.2725 H   0  0  0  0  0  0  0  0  0  0  0  0
   59.4509   35.1827   47.2606 H   0  0  0  0  0  0  0  0  0  0  0  0
   59.0905   35.5869   44.8222 H   0  0  0  0  0  0  0  0  0  0  0  0
   58.0902   33.7990   43.3937 H   0  0  0  0  0  0  0  0  0  0  0  0
   56.2059   28.0509   44.5756 H   0  0  0  0  0  0  0  0  0  0  0  0
  1  2  2  0
  2  3  1  0
  3  4  1  0
  4  5  2  0
  5  6  1  0
  6  7  1  0
  7  8  2  0
  8  9  1  0
  9 10  2  0
  2 11  1  0
 11 12  2  0
 12 13  1  0
 13 14  2  0
 14 15  1  0
 14 16  1  0
 16 17  1  0
 17 18  1  0
 18 19  2  0
 18 20  2  0
 18 21  1  0
 21 22  2  0
 22 23  1  0
 23 24  2  0
 24 25  1  0
 25 26  2  0
 16 27  2  0
  9  4  1  0
 27 11  1  0
 26 21  1  0
  5 28  1  0
  7 29  1  0
  8 30  1  0
 12 31  1  0
 13 32  1  0
 17 33  1  0
 22 34  1  0
 23 35  1  0
 24 36  1  0
 25 37  1  0
 26 38  1  0
 27 39  1  0
M  CHG  2   3  -1   6  -1
M  END
>  <UniqueID>  (69) 
64

>  <SMILES>  (69) 
O=C([N-]c1c[n-]ccc1=O)c1ccc(F)c(NS(=O)(=O)c2ccccc2)c1

>  <Energy>  (69) 
50.90101402804115

>  <Genealogy>  (69) 
O=C([N-]c1c[n-]ccc1=O)c1ccc(F)c(NS(=O)(=O)c2ccccc2)c1 (protonated)
O=C([N-]c1c[n-]ccc1=O)c1ccc(F)c(NS(=O)(=O)c2ccccc2)c1 (3D coordinates assigned)
O=C([N-]c1c[n-]ccc1=O)c1ccc(F)c(NS(=O)(=O)c2ccccc2)c1 (optimized conformer: 50.90101402804115 kcal/mol)

>  <smiles>  (69) 
O=C(Nc1c[nH]ccc1=O)c1ccc(F)c(NS(=O)(=O)c2ccccc2)c1

>  <score_type>  (69) 
oracle

>  <origin>  (69) 
adg

>  <m_score__min__energy>  (69) 
-13.380000000000001

>  <m_primary>  (69) 
energy

$$$$
69:0
     RDKit          3D

 44 46  0  0  0  0  0  0  0  0999 V2000
   55.2440   28.6250   45.6360 H   0  0  0  0  0  0  0  0  0  0  0  0
   55.1530   29.3430   44.8820 N   0  0  0  0  0  0  0  0  0  0  0  0
   56.7050   29.4850   44.1320 S   0  0  0  0  0  0  0  0  0  0  0  0
   57.6020   28.3870   44.6280 O   0  0  0  0  0  0  0  0  0  0  0  0
   56.5350   29.3590   42.6440 O   0  0  0  0  0  0  0  0  0  0  0  0
   57.4230   31.0460   44.5180 C   0  0  0  0  0  0  0  0  0  0  0  0
   57.6830   31.3940   45.8490 C   0  0  0  0  0  0  0  0  0  0  0  0
   57.4292   30.6930   46.6578 H   0  0  0  0  0  0  0  0  0  0  0  0
   58.2640   32.6290   46.1550 C   0  0  0  0  0  0  0  0  0  0  0  0
   58.4603   32.8951   47.2041 H   0  0  0  0  0  0  0  0  0  0  0  0
   58.5990   33.5330   45.1310 C   0  0  0  0  0  0  0  0  0  0  0  0
   59.2150   34.8420   45.4550 C   0  0  0  0  0  0  0  0  0  0  0  0
   59.3340   35.7170   44.5530 O   0  0  0  0  0  0  0  0  0  0  0  0
   59.6680   35.1080   46.7930 N   0  0  0  0  0  0  0  0  0  0  0  0
   60.3450   34.2950   47.5500 C   0  0  0  0  0  0  0  0  0  0  0  0
   61.6240   33.9250   47.3210 N   0  0  0  0  0  0  0  0  0  0  0  0
   62.0740   33.0680   48.2770 C   0  0  0  0  0  0  0  0  0  0  0  0
   63.4910   32.5470   48.2780 C   0  0  2  0  0  0  0  0  0  0  0  0
   63.4744   31.4949   48.5985 H   0  0  0  0  0  0  0  0  0  0  0  0
   64.3650   33.3390   49.2740 C   0  0  0  0  0  0  0  0  0  0  0  0
   64.9715   34.0671   48.7155 H   0  0  0  0  0  0  0  0  0  0  0  0
   63.6987   33.8461   49.9873 H   0  0  0  0  0  0  0  0  0  0  0  0
   65.2840   32.4320   50.0520 C   0  0  0  0  0  0  0  0  0  0  0  0
   64.7680   31.3150   50.7310 C   0  0  0  0  0  0  0  0  0  0  0  0
   63.6944   31.0836   50.6688 H   0  0  0  0  0  0  0  0  0  0  0  0
   65.6150   30.4960   51.4860 C   0  0  0  0  0  0  0  0  0  0  0  0
   65.2073   29.6186   52.0095 H   0  0  0  0  0  0  0  0  0  0  0  0
   66.9780   30.7910   51.5760 C   0  0  0  0  0  0  0  0  0  0  0  0
   67.6421   30.1456   52.1696 H   0  0  0  0  0  0  0  0  0  0  0  0
   67.4980   31.9060   50.9120 C   0  0  0  0  0  0  0  0  0  0  0  0
   68.5706   32.1387   50.9855 H   0  0  0  0  0  0  0  0  0  0  0  0
   66.6560   32.7250   50.1550 C   0  0  0  0  0  0  0  0  0  0  0  0
   67.0682   33.6034   49.6369 H   0  0  0  0  0  0  0  0  0  0  0  0
   64.0580   32.6190   46.9280 N   0  0  0  0  0  0  0  0  0  0  0  0
   64.9460   33.1730   46.9270 H   0  0  0  0  0  0  0  0  0  0  0  0
   63.3720   33.0700   46.2790 H   0  0  0  0  0  0  0  0  0  0  0  0
   64.2580   31.6550   46.5750 H   0  0  0  0  0  0  0  0  0  0  0  0
   61.1510   32.7630   49.2770 C   0  0  0  0  0  0  0  0  0  0  0  0
   61.3250   32.0987   50.1363 H   0  0  0  0  0  0  0  0  0  0  0  0
   59.7250   33.5890   48.9390 S   0  0  0  0  0  0  0  0  0  0  0  0
   58.3430   33.1720   43.7950 C   0  0  0  0  0  0  0  0  0  0  0  0
   58.6030   33.8664   42.9825 H   0  0  0  0  0  0  0  0  0  0  0  0
   57.7610   31.9380   43.4930 C   0  0  0  0  0  0  0  0  0  0  0  0
   57.5674   31.6660   42.4449 H   0  0  0  0  0  0  0  0  0  0  0  0
  1  2  1  0
  2  3  1  0
  3  4  2  0
  3  5  2  0
  3  6  1  0
  6  7  2  0
  7  8  1  0
  7  9  1  0
  9 10  1  0
  9 11  2  0
 11 12  1  0
 12 13  2  0
 12 14  1  0
 14 15  2  0
 15 16  1  0
 16 17  1  0
 17 18  1  0
 18 19  1  1
 18 20  1  0
 20 21  1  0
 20 22  1  0
 20 23  1  0
 23 24  2  0
 24 25  1  0
 24 26  1  0
 26 27  1  0
 26 28  2  0
 28 29  1  0
 28 30  1  0
 30 31  1  0
 30 32  2  0
 32 33  1  0
 18 34  1  0
 34 35  1  0
 34 36  1  0
 34 37  1  0
 17 38  2  0
 38 39  1  0
 38 40  1  0
 11 41  1  0
 41 42  1  0
 41 43  2  0
 43 44  1  0
 43  6  1  0
 40 15  1  0
 32 23  1  0
M  CHG  3   2  -1  16  -1  34   1
M  END
>  <UniqueID>  (70) 
65

>  <SMILES>  (70) 
[NH-]S(=O)(=O)c1ccc(C(=O)/N=c2\[n-]c([C@@H]([NH3+])Cc3ccccc3)cs2)cc1

>  <Energy>  (70) 
74.69056422087158

>  <Genealogy>  (70) 
[NH-]S(=O)(=O)c1ccc(C(=O)N=c2[n-]c(C([NH3+])Cc3ccccc3)cs2)cc1 (protonated)
[NH-]S(=O)(=O)c1ccc(C(=O)N=c2[n-]c([C@@H]([NH3+])Cc3ccccc3)cs2)cc1 (chirality)
[NH-]S(=O)(=O)c1ccc(C(=O)/N=c2\[n-]c([C@@H]([NH3+])Cc3ccccc3)cs2)cc1 (cis-trans isomerization)
[NH-]S(=O)(=O)c1ccc(C(=O)/N=c2\[n-]c([C@@H]([NH3+])Cc3ccccc3)cs2)cc1 (3D coordinates assigned)
[NH-]S(=O)(=O)c1ccc(C(=O)/N=c2\[n-]c([C@@H]([NH3+])Cc3ccccc3)cs2)cc1 (optimized conformer: 74.69056422087158 kcal/mol)

>  <smiles>  (70) 
NC(Cc1ccccc1)c1csc(=NC(=O)c2ccc(S(N)(=O)=O)cc2)[nH]1

>  <score_type>  (70) 
oracle

>  <origin>  (70) 
adg

>  <m_score__min__energy>  (70) 
-11.48

>  <m_primary>  (70) 
energy

$$$$
70:0
     RDKit          3D

 36 38  0  0  0  0  0  0  0  0999 V2000
   60.2170   22.0180   45.5760 N   0  0  0  0  0  0  0  0  0  0  0  0
   58.6550   22.7590   45.5360 S   0  0  0  0  0  0  0  0  0  0  0  0
   57.7500   22.0730   46.5200 O   0  0  0  0  0  0  0  0  0  0  0  0
   58.0680   22.6150   44.1600 O   0  0  0  0  0  0  0  0  0  0  0  0
   58.7990   24.4650   45.9480 C   0  0  0  0  0  0  0  0  0  0  0  0
   60.0610   25.0730   46.0020 C   0  0  0  0  0  0  0  0  0  0  0  0
   60.1770   26.4260   46.3400 C   0  0  0  0  0  0  0  0  0  0  0  0
   59.0310   27.1780   46.6320 C   0  0  0  0  0  0  0  0  0  0  0  0
   59.1540   28.8860   47.0460 S   0  0  0  0  0  0  0  0  0  0  0  0
   60.5930   29.2920   47.1980 O   0  0  0  0  0  0  0  0  0  0  0  0
   58.4440   29.0870   48.3560 O   0  0  0  0  0  0  0  0  0  0  0  0
   58.4190   29.8600   45.7990 N   0  0  0  0  0  0  0  0  0  0  0  0
   57.6000   29.2160   44.7640 C   0  0  0  0  0  0  0  0  0  0  0  0
   56.3030   29.9530   44.6020 C   0  0  0  0  0  0  0  0  0  0  0  0
   55.2700   29.3480   44.2090 O   0  0  0  0  0  0  0  0  0  0  0  0
   56.2600   31.3640   44.8260 N   0  0  0  0  0  0  0  0  0  0  0  0
   57.4020   32.0450   45.3530 C   0  0  0  0  0  0  0  0  0  0  0  0
   57.4280   33.4430   45.4000 C   0  0  0  0  0  0  0  0  0  0  0  0
   58.5570   34.1040   45.8930 C   0  0  0  0  0  0  0  0  0  0  0  0
   59.6630   33.3710   46.3340 C   0  0  0  0  0  0  0  0  0  0  0  0
   59.6370   31.9730   46.3000 C   0  0  0  0  0  0  0  0  0  0  0  0
   58.4980   31.3000   45.8260 C   0  0  0  0  0  0  0  0  0  0  0  0
   57.7710   26.5680   46.5880 C   0  0  0  0  0  0  0  0  0  0  0  0
   57.6550   25.2160   46.2490 C   0  0  0  0  0  0  0  0  0  0  0  0
   60.7790   22.4510   44.8090 H   0  0  0  0  0  0  0  0  0  0  0  0
   60.0850   21.0140   45.3210 H   0  0  0  0  0  0  0  0  0  0  0  0
   60.9630   24.4846   45.7780 H   0  0  0  0  0  0  0  0  0  0  0  0
   61.1690   26.8999   46.3765 H   0  0  0  0  0  0  0  0  0  0  0  0
   58.1461   29.2259   43.8092 H   0  0  0  0  0  0  0  0  0  0  0  0
   57.3903   28.1786   45.0638 H   0  0  0  0  0  0  0  0  0  0  0  0
   56.5608   34.0217   45.0493 H   0  0  0  0  0  0  0  0  0  0  0  0
   58.5752   35.2031   45.9340 H   0  0  0  0  0  0  0  0  0  0  0  0
   60.5550   33.8947   46.7083 H   0  0  0  0  0  0  0  0  0  0  0  0
   60.5098   31.3992   46.6449 H   0  0  0  0  0  0  0  0  0  0  0  0
   56.8697   27.1541   46.8208 H   0  0  0  0  0  0  0  0  0  0  0  0
   56.6633   24.7411   46.2186 H   0  0  0  0  0  0  0  0  0  0  0  0
  1  2  1  0
  2  3  2  0
  2  4  2  0
  2  5  1  0
  5  6  2  0
  6  7  1  0
  7  8  2  0
  8  9  1  0
  9 10  2  0
  9 11  2  0
  9 12  1  0
 12 13  1  0
 13 14  1  0
 14 15  2  0
 14 16  1  0
 16 17  1  0
 17 18  2  0
 18 19  1  0
 19 20  2  0
 20 21  1  0
 21 22  2  0
  8 23  1  0
 23 24  2  0
 24  5  1  0
 22 12  1  0
 22 17  1  0
  1 25  1  0
  1 26  1  0
  6 27  1  0
  7 28  1  0
 13 29  1  0
 13 30  1  0
 18 31  1  0
 19 32  1  0
 20 33  1  0
 21 34  1  0
 23 35  1  0
 24 36  1  0
M  CHG  1  16  -1
M  END
>  <UniqueID>  (71) 
66

>  <SMILES>  (71) 
NS(=O)(=O)c1ccc(S(=O)(=O)N2CC(=O)[N-]c3ccccc32)cc1

>  <Energy>  (71) 
42.73033945876885

>  <Genealogy>  (71) 
NS(=O)(=O)c1ccc(S(=O)(=O)N2CC(=O)[N-]c3ccccc32)cc1 (protonated)
NS(=O)(=O)c1ccc(S(=O)(=O)N2CC(=O)[N-]c3ccccc32)cc1 (3D coordinates assigned)
NS(=O)(=O)c1ccc(S(=O)(=O)N2CC(=O)[N-]c3ccccc32)cc1 (nonaromatic ring conformer: 42.73033945876885 kcal/mol)

>  <smiles>  (71) 
NS(=O)(=O)c1ccc(S(=O)(=O)N2CC(=O)Nc3ccccc32)cc1

>  <score_type>  (71) 
oracle

>  <origin>  (71) 
adg

>  <m_score__min__energy>  (71) 
-10.49

>  <m_primary>  (71) 
energy

$$$$
71:0
     RDKit          3D

 56 58  0  0  0  0  0  0  0  0999 V2000
   53.5540   29.0040   53.0180 C   0  0  0  0  0  0  0  0  0  0  0  0
   54.0780   30.3960   52.6540 C   0  0  0  0  0  0  0  0  0  0  0  0
   53.5720   30.8320   51.2760 C   0  0  0  0  0  0  0  0  0  0  0  0
   55.5820   30.4280   52.6980 C   0  0  0  0  0  0  0  0  0  0  0  0
   56.3570   30.2870   51.6010 N   0  0  0  0  0  0  0  0  0  0  0  0
   57.6840   30.3390   51.9000 C   0  0  0  0  0  0  0  0  0  0  0  0
   58.7100   30.1820   50.8540 C   0  0  0  0  0  0  0  0  0  0  0  0
   58.3690   29.7290   49.7280 O   0  0  0  0  0  0  0  0  0  0  0  0
   60.0870   30.5270   51.0950 N   0  0  0  0  0  0  0  0  0  0  0  0
   61.1510   29.8060   50.4150 C   0  0  0  0  0  0  0  0  0  0  0  0
   61.4980   30.5120   49.1030 C   0  0  0  0  0  0  0  0  0  0  0  0
   61.3900   31.9880   49.1550 N   0  0  0  0  0  0  0  0  0  0  0  0
   61.8320   32.7150   47.9800 C   0  0  0  0  0  0  0  0  0  0  0  0
   62.5380   32.1280   47.1130 O   0  0  0  0  0  0  0  0  0  0  0  0
   61.4550   34.1530   47.7180 C   0  0  0  0  0  0  0  0  0  0  0  0
   59.9430   34.3390   47.5670 C   0  0  0  0  0  0  0  0  0  0  0  0
   59.4890   34.8890   45.8790 S   0  0  0  0  0  0  0  0  0  0  0  0
   58.6830   33.3550   45.4080 C   0  0  0  0  0  0  0  0  0  0  0  0
   58.6820   32.2660   46.2840 C   0  0  0  0  0  0  0  0  0  0  0  0
   58.0360   31.0770   45.9300 C   0  0  0  0  0  0  0  0  0  0  0  0
   57.3800   30.9640   44.6900 C   0  0  0  0  0  0  0  0  0  0  0  0
   56.6800   29.7140   44.2990 C   0  0  0  0  0  0  0  0  0  0  0  0
   57.2090   28.8400   43.2990 N   0  0  0  0  0  0  0  0  0  0  0  0
   55.6000   29.4010   44.8700 O   0  0  0  0  0  0  0  0  0  0  0  0
   57.4120   32.0560   43.8040 C   0  0  0  0  0  0  0  0  0  0  0  0
   58.0630   33.2420   44.1600 C   0  0  0  0  0  0  0  0  0  0  0  0
   60.7370   32.7270   50.2620 C   0  0  0  0  0  0  0  0  0  0  0  0
   60.4460   31.8780   51.5020 C   0  0  0  0  0  0  0  0  0  0  0  0
   57.9770   30.5030   53.2530 C   0  0  0  0  0  0  0  0  0  0  0  0
   56.5200   30.6010   54.0860 S   0  0  0  0  0  0  0  0  0  0  0  0
   53.5154   28.9014   54.1125 H   0  0  0  0  0  0  0  0  0  0  0  0
   52.5445   28.8717   52.6015 H   0  0  0  0  0  0  0  0  0  0  0  0
   54.2257   28.2389   52.6015 H   0  0  0  0  0  0  0  0  0  0  0  0
   53.6929   31.1068   53.4000 H   0  0  0  0  0  0  0  0  0  0  0  0
   52.7439   31.5456   51.3984 H   0  0  0  0  0  0  0  0  0  0  0  0
   54.3906   31.3122   50.7199 H   0  0  0  0  0  0  0  0  0  0  0  0
   53.2181   29.9514   50.7199 H   0  0  0  0  0  0  0  0  0  0  0  0
   62.0416   29.7752   51.0599 H   0  0  0  0  0  0  0  0  0  0  0  0
   60.8150   28.7812   50.1985 H   0  0  0  0  0  0  0  0  0  0  0  0
   62.5329   30.2520   48.8358 H   0  0  0  0  0  0  0  0  0  0  0  0
   60.7638   30.1697   48.3588 H   0  0  0  0  0  0  0  0  0  0  0  0
   61.8050   34.7693   48.5592 H   0  0  0  0  0  0  0  0  0  0  0  0
   61.9276   34.4579   46.7727 H   0  0  0  0  0  0  0  0  0  0  0  0
   59.4440   33.3811   47.7754 H   0  0  0  0  0  0  0  0  0  0  0  0
   59.6219   35.1154   48.2770 H   0  0  0  0  0  0  0  0  0  0  0  0
   59.1913   32.3443   47.2558 H   0  0  0  0  0  0  0  0  0  0  0  0
   58.0407   30.2247   46.6253 H   0  0  0  0  0  0  0  0  0  0  0  0
   58.1670   28.9640   42.9050 H   0  0  0  0  0  0  0  0  0  0  0  0
   56.6630   28.0000   43.0030 H   0  0  0  0  0  0  0  0  0  0  0  0
   56.9210   31.9768   42.8229 H   0  0  0  0  0  0  0  0  0  0  0  0
   58.0871   34.0874   43.4566 H   0  0  0  0  0  0  0  0  0  0  0  0
   61.3967   33.5556   50.5591 H   0  0  0  0  0  0  0  0  0  0  0  0
   59.7641   33.0702   49.8803 H   0  0  0  0  0  0  0  0  0  0  0  0
   61.3415   31.8425   52.1399 H   0  0  0  0  0  0  0  0  0  0  0  0
   59.6119   32.3245   52.0632 H   0  0  0  0  0  0  0  0  0  0  0  0
   58.9821   30.5584   53.6964 H   0  0  0  0  0  0  0  0  0  0  0  0
  1  2  1  0
  2  3  1  0
  2  4  1  0
  4  5  2  0
  5  6  1  0
  6  7  1  0
  7  8  2  0
  7  9  1  0
  9 10  1  0
 10 11  1  0
 11 12  1  0
 12 13  1  0
 13 14  2  0
 13 15  1  0
 15 16  1  0
 16 17  1  0
 17 18  1  0
 18 19  2  0
 19 20  1  0
 20 21  2  0
 21 22  1  0
 22 23  1  0
 22 24  2  0
 21 25  1  0
 25 26  2  0
 12 27  1  0
 27 28  1  0
  6 29  2  0
 29 30  1  0
 30  4  1  0
 28  9  1  0
 26 18  1  0
  1 31  1  0
  1 32  1  0
  1 33  1  0
  2 34  1  0
  3 35  1  0
  3 36  1  0
  3 37  1  0
 10 38  1  0
 10 39  1  0
 11 40  1  0
 11 41  1  0
 15 42  1  0
 15 43  1  0
 16 44  1  0
 16 45  1  0
 19 46  1  0
 20 47  1  0
 23 48  1  0
 23 49  1  0
 25 50  1  0
 26 51  1  0
 27 52  1  0
 27 53  1  0
 28 54  1  0
 28 55  1  0
 29 56  1  0
M  END
>  <UniqueID>  (72) 
67

>  <SMILES>  (72) 
CC(C)c1nc(C(=O)N2CCN(C(=O)CCSc3ccc(C(N)=O)cc3)CC2)cs1

>  <Energy>  (72) 
81.49230514034883

>  <Genealogy>  (72) 
CC(C)c1nc(C(=O)N2CCN(C(=O)CCSc3ccc(C(N)=O)cc3)CC2)cs1 (3D coordinates assigned)
CC(C)c1nc(C(=O)N2CCN(C(=O)CCSc3ccc(C(N)=O)cc3)CC2)cs1 (nonaromatic ring conformer: 81.49230514034883 kcal/mol)

>  <smiles>  (72) 
CC(C)c1nc(C(=O)N2CCN(C(=O)CCSc3ccc(C(N)=O)cc3)CC2)cs1

>  <score_type>  (72) 
oracle

>  <origin>  (72) 
adg

>  <m_score__min__energy>  (72) 
-9.3399999999999999

>  <m_primary>  (72) 
energy

$$$$
72:0
     RDKit          3D

 71 75  0  0  0  0  0  0  0  0999 V2000
   62.8470   23.5730   52.5340 H   0  0  0  0  0  0  0  0  0  0  0  0
   62.9000   24.3850   51.9650 O   0  0  0  0  0  0  0  0  0  0  0  0
   62.7770   25.4830   52.8270 C   0  0  0  0  0  0  0  0  0  0  0  0
   63.7609   25.7186   53.2587 H   0  0  0  0  0  0  0  0  0  0  0  0
   62.0665   25.2334   53.6288 H   0  0  0  0  0  0  0  0  0  0  0  0
   62.2660   26.6790   52.0710 C   0  0  0  0  0  0  0  0  0  0  0  0
   62.5790   27.9730   52.5090 C   0  0  0  0  0  0  0  0  0  0  0  0
   63.2488   28.1120   53.3704 H   0  0  0  0  0  0  0  0  0  0  0  0
   62.0420   29.0930   51.8540 C   0  0  0  0  0  0  0  0  0  0  0  0
   62.3610   30.4200   52.2920 N   0  0  0  0  0  0  0  0  0  0  0  0
   61.9960   31.5770   51.7990 C   0  0  0  0  0  0  0  0  0  0  0  0
   61.1190   32.3350   52.5850 C   0  0  0  0  0  0  0  0  0  0  0  0
   60.9061   32.0240   53.6184 H   0  0  0  0  0  0  0  0  0  0  0  0
   60.5140   33.4790   52.0700 C   0  0  0  0  0  0  0  0  0  0  0  0
   59.8061   34.0512   52.6876 H   0  0  0  0  0  0  0  0  0  0  0  0
   60.7960   33.8880   50.8100 N   0  0  0  0  0  0  0  0  0  0  0  0
   61.7010   33.2430   50.0300 C   0  0  0  0  0  0  0  0  0  0  0  0
   61.9870   33.7530   48.7580 C   0  0  0  0  0  0  0  0  0  0  0  0
   61.4176   34.6109   48.3709 H   0  0  0  0  0  0  0  0  0  0  0  0
   62.9920   33.1770   47.9790 C   0  0  0  0  0  0  0  0  0  0  0  0
   63.3530   33.8270   46.3900 Cl  0  0  0  0  0  0  0  0  0  0  0  0
   63.7410   32.1160   48.4860 C   0  0  0  0  0  0  0  0  0  0  0  0
   64.5565   31.6865   47.8857 H   0  0  0  0  0  0  0  0  0  0  0  0
   63.4620   31.5950   49.7520 C   0  0  0  0  0  0  0  0  0  0  0  0
   64.0906   30.7890   50.1585 H   0  0  0  0  0  0  0  0  0  0  0  0
   62.3800   32.0920   50.5180 C   0  0  0  0  0  0  0  0  0  0  0  0
   61.2550   28.9160   50.7120 C   0  0  0  0  0  0  0  0  0  0  0  0
   60.8859   29.7940   50.1616 H   0  0  0  0  0  0  0  0  0  0  0  0
   60.9320   27.6230   50.2620 C   0  0  0  0  0  0  0  0  0  0  0  0
   60.0490   27.4200   49.1470 N   0  0  0  0  0  0  0  0  0  0  0  0
   59.0200   27.5060   49.3090 H   0  0  0  0  0  0  0  0  0  0  0  0
   60.4950   27.0300   47.8390 C   0  0  0  0  0  0  0  0  0  0  0  0
   61.5410   26.3350   47.7150 O   0  0  0  0  0  0  0  0  0  0  0  0
   59.7150   27.4040   46.6360 C   0  0  0  0  0  0  0  0  0  0  0  0
   60.3410   28.0400   45.5480 C   0  0  0  0  0  0  0  0  0  0  0  0
   61.4145   28.2751   45.5969 H   0  0  0  0  0  0  0  0  0  0  0  0
   59.6090   28.3750   44.4060 C   0  0  0  0  0  0  0  0  0  0  0  0
   60.1142   28.8525   43.5534 H   0  0  0  0  0  0  0  0  0  0  0  0
   58.2330   28.1060   44.3400 C   0  0  0  0  0  0  0  0  0  0  0  0
   57.4480   28.4180   43.1260 C   0  0  0  0  0  0  0  0  0  0  0  0
   57.6548   27.8223   42.2247 H   0  0  0  0  0  0  0  0  0  0  0  0
   56.5050   29.3670   43.0330 C   0  0  0  0  0  0  0  0  0  0  0  0
   56.1558   29.6319   42.0241 H   0  0  0  0  0  0  0  0  0  0  0  0
   55.8960   30.0860   44.1680 C   0  0  0  0  0  0  0  0  0  0  0  0
   55.0620   29.4820   44.8940 O   0  0  0  0  0  0  0  0  0  0  0  0
   56.2830   31.4300   44.4810 N   0  0  0  0  0  0  0  0  0  0  0  0
   57.5450   32.0450   44.0750 C   0  0  0  0  0  0  0  0  0  0  0  0
   58.2185   31.2649   43.6905 H   0  0  0  0  0  0  0  0  0  0  0  0
   57.3369   32.7918   43.2946 H   0  0  0  0  0  0  0  0  0  0  0  0
   58.2170   32.7490   45.2600 C   0  0  0  0  0  0  0  0  0  0  0  0
   59.2629   32.9690   44.9998 H   0  0  0  0  0  0  0  0  0  0  0  0
   57.6650   33.6768   45.4711 H   0  0  0  0  0  0  0  0  0  0  0  0
   58.1900   31.9050   46.4710 N   0  0  0  0  0  0  0  0  0  0  0  0
   58.1720   32.6900   47.7160 C   0  0  0  0  0  0  0  0  0  0  0  0
   58.6492   33.6673   47.5511 H   0  0  0  0  0  0  0  0  0  0  0  0
   57.1385   32.8654   48.0492 H   0  0  0  0  0  0  0  0  0  0  0  0
   58.9490   31.9010   48.7650 C   0  0  0  0  0  0  0  0  0  0  0  0
   59.7438   32.5231   49.2025 H   0  0  0  0  0  0  0  0  0  0  0  0
   58.3012   31.5773   49.5930 H   0  0  0  0  0  0  0  0  0  0  0  0
   59.5480   30.7190   48.0260 C   0  0  0  0  0  0  0  0  0  0  0  0
   60.6123   30.6025   48.2785 H   0  0  0  0  0  0  0  0  0  0  0  0
   59.0590   29.7703   48.2923 H   0  0  0  0  0  0  0  0  0  0  0  0
   59.3810   31.0580   46.5600 C   0  0  0  0  0  0  0  0  0  0  0  0
   60.2637   31.6008   46.1910 H   0  0  0  0  0  0  0  0  0  0  0  0
   59.2747   30.1504   45.9477 H   0  0  0  0  0  0  0  0  0  0  0  0
   57.6150   27.4390   45.4070 C   0  0  0  0  0  0  0  0  0  0  0  0
   56.5466   27.1843   45.3460 H   0  0  0  0  0  0  0  0  0  0  0  0
   58.3460   27.0950   46.5480 C   0  0  0  0  0  0  0  0  0  0  0  0
   57.8472   26.5795   47.3820 H   0  0  0  0  0  0  0  0  0  0  0  0
   61.4190   26.5110   50.9650 C   0  0  0  0  0  0  0  0  0  0  0  0
   61.1341   25.4975   50.6461 H   0  0  0  0  0  0  0  0  0  0  0  0
  1  2  1  0
  2  3  1  0
  3  4  1  0
  3  5  1  0
  3  6  1  0
  6  7  2  0
  7  8  1  0
  7  9  1  0
  9 10  1  0
 10 11  2  0
 11 12  1  0
 12 13  1  0
 12 14  2  0
 14 15  1  0
 14 16  1  0
 16 17  1  0
 17 18  2  0
 18 19  1  0
 18 20  1  0
 20 21  1  0
 20 22  2  0
 22 23  1  0
 22 24  1  0
 24 25  1  0
 24 26  2  0
  9 27  2  0
 27 28  1  0
 27 29  1  0
 29 30  1  0
 30 31  1  0
 30 32  1  0
 32 33  2  0
 32 34  1  0
 34 35  2  0
 35 36  1  0
 35 37  1  0
 37 38  1  0
 37 39  2  0
 39 40  1  0
 40 41  1  0
 40 42  2  3
 42 43  1  0
 42 44  1  0
 44 45  2  0
 44 46  1  0
 46 47  1  0
 47 48  1  0
 47 49  1  0
 47 50  1  0
 50 51  1  0
 50 52  1  0
 50 53  1  0
 53 54  1  0
 54 55  1  0
 54 56  1  0
 54 57  1  0
 57 58  1  0
 57 59  1  0
 57 60  1  0
 60 61  1  0
 60 62  1  0
 60 63  1  0
 63 64  1  0
 63 65  1  0
 39 66  1  0
 66 67  1  0
 66 68  2  0
 68 69  1  0
 29 70  2  0
 70 71  1  0
 70  6  1  0
 26 11  1  0
 68 34  1  0
 26 17  1  0
 63 53  1  0
M  CHG  2  16  -1  46  -1
M  END
>  <UniqueID>  (73) 
68

>  <SMILES>  (73) 
O=C(C=Cc1ccc(C(=O)Nc2cc(CO)cc(/N=c3/cc[n-]c4cc(Cl)ccc34)c2)cc1)[N-]CCN1CCCC1

>  <Energy>  (73) 
110.51782873283531

>  <Genealogy>  (73) 
O=C(C=Cc1ccc(C(=O)Nc2cc(CO)cc(N=c3cc[n-]c4cc(Cl)ccc34)c2)cc1)[N-]CCN1CCCC1 (protonated)
O=C(C=Cc1ccc(C(=O)Nc2cc(CO)cc(/N=c3/cc[n-]c4cc(Cl)ccc34)c2)cc1)[N-]CCN1CCCC1 (cis-trans isomerization)
O=C(C=Cc1ccc(C(=O)Nc2cc(CO)cc(/N=c3/cc[n-]c4cc(Cl)ccc34)c2)cc1)[N-]CCN1CCCC1 (3D coordinates assigned)
O=C(C=Cc1ccc(C(=O)Nc2cc(CO)cc(/N=c3/cc[n-]c4cc(Cl)ccc34)c2)cc1)[N-]CCN1CCCC1 (nonaromatic ring conformer: 110.51782873283531 kcal/mol)

>  <smiles>  (73) 
O=C(C=Cc1ccc(C(=O)Nc2cc(CO)cc(N=c3cc[nH]c4cc(Cl)ccc34)c2)cc1)NCCN1CCCC1

>  <score_type>  (73) 
oracle

>  <origin>  (73) 
adg

>  <m_score__min__energy>  (73) 
-12.609999999999999

>  <m_primary>  (73) 
energy

$$$$
73:0
     RDKit          3D

 48 50  0  0  0  0  0  0  0  0999 V2000
   55.2030   29.5250   44.6990 O   0  0  0  0  0  0  0  0  0  0  0  0
   56.2490   30.1840   44.4580 C   0  0  0  0  0  0  0  0  0  0  0  0
   57.3540   29.5560   43.6690 C   0  0  0  0  0  0  0  0  0  0  0  0
   58.0120   28.5550   44.4400 O   0  0  0  0  0  0  0  0  0  0  0  0
   57.5000   28.0500   45.6420 C   0  0  0  0  0  0  0  0  0  0  0  0
   57.6430   28.6890   46.7190 O   0  0  0  0  0  0  0  0  0  0  0  0
   56.7930   26.7650   45.6480 C   0  0  0  0  0  0  0  0  0  0  0  0
   57.3450   25.5510   45.2810 C   0  0  0  0  0  0  0  0  0  0  0  0
   56.3480   24.6140   45.4390 C   0  0  0  0  0  0  0  0  0  0  0  0
   55.2490   25.3110   45.8920 C   0  0  0  0  0  0  0  0  0  0  0  0
   54.0110   24.7470   46.1840 O   0  0  0  0  0  0  0  0  0  0  0  0
   55.5050   26.6260   46.0240 N   0  0  0  0  0  0  0  0  0  0  0  0
   56.3580   31.5580   44.8510 N   0  0  0  0  0  0  0  0  0  0  0  0
   57.5410   32.2250   45.3150 C   0  0  0  0  0  0  0  0  0  0  0  0
   58.4050   31.5380   46.1750 C   0  0  0  0  0  0  0  0  0  0  0  0
   59.5570   32.1550   46.6680 C   0  0  0  0  0  0  0  0  0  0  0  0
   59.8540   33.4860   46.3180 C   0  0  0  0  0  0  0  0  0  0  0  0
   60.9970   34.1490   46.7860 O   0  0  0  0  0  0  0  0  0  0  0  0
   62.3250   33.8720   46.3490 C   0  0  0  0  0  0  0  0  0  0  0  0
   62.9570   32.8780   47.2810 C   0  0  0  0  0  0  0  0  0  0  0  0
   63.5800   31.9050   46.7760 O   0  0  0  0  0  0  0  0  0  0  0  0
   62.8400   32.9910   48.7190 N   0  0  0  0  0  0  0  0  0  0  0  0
   62.2160   34.1750   49.3330 C   0  0  0  0  0  0  0  0  0  0  0  0
   61.7330   33.8590   50.7520 C   0  0  0  0  0  0  0  0  0  0  0  0
   62.7590   33.2530   51.5100 O   0  0  0  0  0  0  0  0  0  0  0  0
   63.0590   31.9860   50.9630 C   0  0  0  0  0  0  0  0  0  0  0  0
   63.6750   32.1300   49.5690 C   0  0  0  0  0  0  0  0  0  0  0  0
   58.9770   34.1810   45.4750 C   0  0  0  0  0  0  0  0  0  0  0  0
   59.2390   35.4700   45.1400 F   0  0  0  0  0  0  0  0  0  0  0  0
   57.8240   33.5610   44.9820 C   0  0  0  0  0  0  0  0  0  0  0  0
   56.9349   29.0966   42.7616 H   0  0  0  0  0  0  0  0  0  0  0  0
   58.0838   30.3333   43.3985 H   0  0  0  0  0  0  0  0  0  0  0  0
   58.3728   25.3704   44.9332 H   0  0  0  0  0  0  0  0  0  0  0  0
   56.4151   23.5335   45.2440 H   0  0  0  0  0  0  0  0  0  0  0  0
   53.7770   24.4680   47.1290 H   0  0  0  0  0  0  0  0  0  0  0  0
   58.1748   30.5023   46.4655 H   0  0  0  0  0  0  0  0  0  0  0  0
   60.2348   31.5989   47.3323 H   0  0  0  0  0  0  0  0  0  0  0  0
   62.2976   33.4556   45.3312 H   0  0  0  0  0  0  0  0  0  0  0  0
   62.9137   34.8012   46.3469 H   0  0  0  0  0  0  0  0  0  0  0  0
   62.9533   34.9902   49.3758 H   0  0  0  0  0  0  0  0  0  0  0  0
   61.3505   34.4742   48.7236 H   0  0  0  0  0  0  0  0  0  0  0  0
   61.4254   34.7934   51.2442 H   0  0  0  0  0  0  0  0  0  0  0  0
   60.8848   33.1616   50.6875 H   0  0  0  0  0  0  0  0  0  0  0  0
   63.7723   31.4684   51.6212 H   0  0  0  0  0  0  0  0  0  0  0  0
   62.1272   31.4074   50.8796 H   0  0  0  0  0  0  0  0  0  0  0  0
   64.6766   32.5754   49.6609 H   0  0  0  0  0  0  0  0  0  0  0  0
   63.7415   31.1340   49.1069 H   0  0  0  0  0  0  0  0  0  0  0  0
   57.1363   34.1210   44.3313 H   0  0  0  0  0  0  0  0  0  0  0  0
  1  2  2  0
  2  3  1  0
  3  4  1  0
  4  5  1  0
  5  6  2  0
  5  7  1  0
  7  8  2  0
  8  9  1  0
  9 10  2  0
 10 11  1  0
 10 12  1  0
  2 13  1  0
 13 14  1  0
 14 15  2  0
 15 16  1  0
 16 17  2  0
 17 18  1  0
 18 19  1  0
 19 20  1  0
 20 21  2  0
 20 22  1  0
 22 23  1  0
 23 24  1  0
 24 25  1  0
 25 26  1  0
 26 27  1  0
 17 28  1  0
 28 29  1  0
 28 30  2  0
 12  7  1  0
 30 14  1  0
 27 22  1  0
  3 31  1  0
  3 32  1  0
  8 33  1  0
  9 34  1  0
 11 35  1  0
 15 36  1  0
 16 37  1  0
 19 38  1  0
 19 39  1  0
 23 40  1  0
 23 41  1  0
 24 42  1  0
 24 43  1  0
 26 44  1  0
 26 45  1  0
 27 46  1  0
 27 47  1  0
 30 48  1  0
M  CHG  2  12  -1  13  -1
M  END
>  <UniqueID>  (74) 
69

>  <SMILES>  (74) 
O=C(COC(=O)c1ccc(O)[n-]1)[N-]c1ccc(OCC(=O)N2CCOCC2)c(F)c1

>  <Energy>  (74) 
73.95029119695596

>  <Genealogy>  (74) 
O=C(COC(=O)c1ccc(O)[n-]1)[N-]c1ccc(OCC(=O)N2CCOCC2)c(F)c1 (protonated)
O=C(COC(=O)c1ccc(O)[n-]1)[N-]c1ccc(OCC(=O)N2CCOCC2)c(F)c1 (3D coordinates assigned)
O=C(COC(=O)c1ccc(O)[n-]1)[N-]c1ccc(OCC(=O)N2CCOCC2)c(F)c1 (nonaromatic ring conformer: 73.95029119695596 kcal/mol)

>  <smiles>  (74) 
O=C(COC(=O)c1ccc(O)[nH]1)Nc1ccc(OCC(=O)N2CCOCC2)c(F)c1

>  <score_type>  (74) 
oracle

>  <origin>  (74) 
adg

>  <m_score__min__energy>  (74) 
-11.390000000000001

>  <m_primary>  (74) 
energy

$$$$
74:0
     RDKit          3D

 50 52  0  0  0  0  0  0  0  0999 V2000
   52.4130   23.7160   44.9680 C   0  0  0  0  0  0  0  0  0  0  0  0
   52.5840   22.3160   45.3440 N   0  0  0  0  0  0  0  0  0  0  0  0
   54.1850   22.0700   45.9730 S   0  0  0  0  0  0  0  0  0  0  0  0
   54.1600   22.2320   47.4650 O   0  0  0  0  0  0  0  0  0  0  0  0
   54.6420   20.6750   45.6480 O   0  0  0  0  0  0  0  0  0  0  0  0
   55.2980   23.2540   45.2920 C   0  0  0  0  0  0  0  0  0  0  0  0
   55.9440   23.0140   44.0710 C   0  0  0  0  0  0  0  0  0  0  0  0
   56.8240   23.9620   43.5420 C   0  0  0  0  0  0  0  0  0  0  0  0
   57.0580   25.1680   44.2210 C   0  0  0  0  0  0  0  0  0  0  0  0
   58.0470   26.1590   43.6750 C   0  0  0  0  0  0  0  0  0  0  0  0
   57.7780   27.4880   44.2210 N   0  0  0  0  0  0  0  0  0  0  0  0
   58.5840   28.0620   45.2620 C   0  0  0  0  0  0  0  0  0  0  0  0
   59.3270   27.3160   45.9570 O   0  0  0  0  0  0  0  0  0  0  0  0
   58.5510   29.5180   45.5400 C   0  0  0  0  0  0  0  0  0  0  0  0
   58.5090   30.4370   44.4780 C   0  0  0  0  0  0  0  0  0  0  0  0
   58.4520   31.8120   44.7290 C   0  0  0  0  0  0  0  0  0  0  0  0
   58.4180   32.2900   46.0500 C   0  0  0  0  0  0  0  0  0  0  0  0
   58.3500   33.6910   46.3550 N   0  0  0  0  0  0  0  0  0  0  0  0
   59.6740   34.6550   46.9260 S   0  0  0  0  0  0  0  0  0  0  0  0
   59.9900   35.7170   45.9090 O   0  0  0  0  0  0  0  0  0  0  0  0
   59.2790   35.3190   48.2140 O   0  0  0  0  0  0  0  0  0  0  0  0
   61.0710   33.6250   47.2210 C   0  0  0  0  0  0  0  0  0  0  0  0
   62.2790   33.8390   46.5390 C   0  0  0  0  0  0  0  0  0  0  0  0
   63.3730   33.0000   46.7710 C   0  0  0  0  0  0  0  0  0  0  0  0
   63.2690   31.9500   47.6890 C   0  0  0  0  0  0  0  0  0  0  0  0
   62.0690   31.7360   48.3740 C   0  0  0  0  0  0  0  0  0  0  0  0
   61.9680   30.7150   49.2620 F   0  0  0  0  0  0  0  0  0  0  0  0
   60.9720   32.5700   48.1410 C   0  0  0  0  0  0  0  0  0  0  0  0
   58.4560   31.3760   47.1100 C   0  0  0  0  0  0  0  0  0  0  0  0
   58.5180   30.0020   46.8600 C   0  0  0  0  0  0  0  0  0  0  0  0
   56.4110   25.4060   45.4440 C   0  0  0  0  0  0  0  0  0  0  0  0
   55.5340   24.4540   45.9740 C   0  0  0  0  0  0  0  0  0  0  0  0
   52.3377   24.3329   45.8756 H   0  0  0  0  0  0  0  0  0  0  0  0
   53.2778   24.0440   44.3725 H   0  0  0  0  0  0  0  0  0  0  0  0
   51.4947   23.8262   44.3725 H   0  0  0  0  0  0  0  0  0  0  0  0
   55.7575   22.0761   43.5274 H   0  0  0  0  0  0  0  0  0  0  0  0
   57.3357   23.7622   42.5890 H   0  0  0  0  0  0  0  0  0  0  0  0
   59.0648   25.8496   43.9549 H   0  0  0  0  0  0  0  0  0  0  0  0
   57.9551   26.1939   42.5794 H   0  0  0  0  0  0  0  0  0  0  0  0
   56.9670   28.0210   43.8390 H   0  0  0  0  0  0  0  0  0  0  0  0
   58.5210   30.0721   43.4403 H   0  0  0  0  0  0  0  0  0  0  0  0
   58.4337   32.5219   43.8889 H   0  0  0  0  0  0  0  0  0  0  0  0
   62.3650   34.6679   45.8210 H   0  0  0  0  0  0  0  0  0  0  0  0
   64.3168   33.1659   46.2308 H   0  0  0  0  0  0  0  0  0  0  0  0
   64.1315   31.2923   47.8722 H   0  0  0  0  0  0  0  0  0  0  0  0
   60.0286   32.3990   48.6802 H   0  0  0  0  0  0  0  0  0  0  0  0
   58.4369   31.7418   48.1472 H   0  0  0  0  0  0  0  0  0  0  0  0
   58.5411   29.2943   47.7018 H   0  0  0  0  0  0  0  0  0  0  0  0
   56.5945   26.3446   45.9874 H   0  0  0  0  0  0  0  0  0  0  0  0
   55.0274   24.6488   46.9308 H   0  0  0  0  0  0  0  0  0  0  0  0
  1  2  1  0
  2  3  1  0
  3  4  2  0
  3  5  2  0
  3  6  1  0
  6  7  2  0
  7  8  1  0
  8  9  2  0
  9 10  1  0
 10 11  1  0
 11 12  1  0
 12 13  2  0
 12 14  1  0
 14 15  2  0
 15 16  1  0
 16 17  2  0
 17 18  1  0
 18 19  1  0
 19 20  2  0
 19 21  2  0
 19 22  1  0
 22 23  2  0
 23 24  1  0
 24 25  2  0
 25 26  1  0
 26 27  1  0
 26 28  2  0
 17 29  1  0
 29 30  2  0
  9 31  1  0
 31 32  2  0
 32  6  1  0
 30 14  1  0
 28 22  1  0
  1 33  1  0
  1 34  1  0
  1 35  1  0
  7 36  1  0
  8 37  1  0
 10 38  1  0
 10 39  1  0
 11 40  1  0
 15 41  1  0
 16 42  1  0
 23 43  1  0
 24 44  1  0
 25 45  1  0
 28 46  1  0
 29 47  1  0
 30 48  1  0
 31 49  1  0
 32 50  1  0
M  CHG  2   2  -1  18  -1
M  END
>  <UniqueID>  (75) 
70

>  <SMILES>  (75) 
C[N-]S(=O)(=O)c1ccc(CNC(=O)c2ccc([N-]S(=O)(=O)c3cccc(F)c3)cc2)cc1

>  <Energy>  (75) 
53.657371156260744

>  <Genealogy>  (75) 
C[N-]S(=O)(=O)c1ccc(CNC(=O)c2ccc([N-]S(=O)(=O)c3cccc(F)c3)cc2)cc1 (protonated)
C[N-]S(=O)(=O)c1ccc(CNC(=O)c2ccc([N-]S(=O)(=O)c3cccc(F)c3)cc2)cc1 (3D coordinates assigned)
C[N-]S(=O)(=O)c1ccc(CNC(=O)c2ccc([N-]S(=O)(=O)c3cccc(F)c3)cc2)cc1 (optimized conformer: 53.657371156260744 kcal/mol)

>  <smiles>  (75) 
CNS(=O)(=O)c1ccc(CNC(=O)c2ccc(NS(=O)(=O)c3cccc(F)c3)cc2)cc1

>  <score_type>  (75) 
oracle

>  <origin>  (75) 
adg

>  <m_score__min__energy>  (75) 
-11.449999999999999

>  <m_primary>  (75) 
energy

$$$$
75:0
     RDKit          3D

 53 55  0  0  1  0  0  0  0  0999 V2000
   59.8010   34.1410   49.6020 C   0  0  0  0  0  0  0  0  0  0  0  0
   59.3430   33.6020   48.2990 C   0  0  0  0  0  0  0  0  0  0  0  0
   58.9630   32.2860   48.1150 C   0  0  0  0  0  0  0  0  0  0  0  0
   58.5420   31.8360   46.8730 C   0  0  0  0  0  0  0  0  0  0  0  0
   58.1790   30.6170   46.6570 N   0  0  0  0  0  0  0  0  0  0  0  0
   57.6520   30.1760   45.0650 S   0  0  0  0  0  0  0  0  0  0  0  0
   56.2590   30.6600   44.8230 O   0  0  0  0  0  0  0  0  0  0  0  0
   58.5270   30.7980   44.0160 O   0  0  0  0  0  0  0  0  0  0  0  0
   57.6700   28.4350   44.8980 C   0  0  0  0  0  0  0  0  0  0  0  0
   58.0920   27.9020   43.7010 C   0  0  0  0  0  0  0  0  0  0  0  0
   58.1290   26.5390   43.5090 C   0  0  0  0  0  0  0  0  0  0  0  0
   57.7470   25.6360   44.5060 C   0  0  0  0  0  0  0  0  0  0  0  0
   57.8210   24.2650   44.2140 N   0  0  0  0  0  0  0  0  0  0  0  0
   56.8450   23.4830   43.5550 C   0  0  0  0  0  0  0  0  0  0  0  0
   55.7840   23.9750   43.1610 O   0  0  0  0  0  0  0  0  0  0  0  0
   57.0700   22.0320   43.3180 C   0  0  2  0  0  0  0  0  0  0  0  0
   56.2520   21.6140   42.2480 O   0  0  0  0  0  0  0  0  0  0  0  0
   56.8220   21.1770   44.5320 C   0  0  0  0  0  0  0  0  0  0  0  0
   56.2220   21.9290   45.6550 C   0  0  0  0  0  0  0  0  0  0  0  0
   54.9410   22.4210   45.6640 C   0  0  0  0  0  0  0  0  0  0  0  0
   54.4620   23.1260   46.7650 C   0  0  0  0  0  0  0  0  0  0  0  0
   55.2790   23.3340   47.8660 C   0  0  0  0  0  0  0  0  0  0  0  0
   56.5660   22.8470   47.8770 C   0  0  0  0  0  0  0  0  0  0  0  0
   57.3900   23.0600   48.9900 O   0  0  0  0  0  0  0  0  0  0  0  0
   57.0110   22.1580   46.7780 C   0  0  0  0  0  0  0  0  0  0  0  0
   57.3330   26.1960   45.6860 C   0  0  0  0  0  0  0  0  0  0  0  0
   57.2940   27.5690   45.8810 C   0  0  0  0  0  0  0  0  0  0  0  0
   58.5280   32.7450   45.8750 N   0  0  0  0  0  0  0  0  0  0  0  0
   58.9010   34.0280   46.0620 C   0  0  0  0  0  0  0  0  0  0  0  0
   58.8380   34.9290   44.8740 C   0  0  0  0  0  0  0  0  0  0  0  0
   59.3110   34.4780   47.2600 N   0  0  0  0  0  0  0  0  0  0  0  0
   59.3241   33.5797   50.4190 H   0  0  0  0  0  0  0  0  0  0  0  0
   60.8938   34.0400   49.6769 H   0  0  0  0  0  0  0  0  0  0  0  0
   59.5249   35.2032   49.6769 H   0  0  0  0  0  0  0  0  0  0  0  0
   58.9950   31.5873   48.9640 H   0  0  0  0  0  0  0  0  0  0  0  0
   58.4037   28.5736   42.8874 H   0  0  0  0  0  0  0  0  0  0  0  0
   58.4703   26.1476   42.5393 H   0  0  0  0  0  0  0  0  0  0  0  0
   58.6960   23.7370   44.5100 H   0  0  0  0  0  0  0  0  0  0  0  0
   58.1340   21.8999   43.0722 H   0  0  0  0  0  0  0  0  0  0  0  0
   56.1220   22.4170   41.6990 H   0  0  0  0  0  0  0  0  0  0  0  0
   56.1398   20.3607   44.2525 H   0  0  0  0  0  0  0  0  0  0  0  0
   57.7970   20.7985   44.8729 H   0  0  0  0  0  0  0  0  0  0  0  0
   54.2874   22.2571   44.7945 H   0  0  0  0  0  0  0  0  0  0  0  0
   53.4344   23.5184   46.7614 H   0  0  0  0  0  0  0  0  0  0  0  0
   54.8967   23.8907   48.7343 H   0  0  0  0  0  0  0  0  0  0  0  0
   56.9860   22.9300   49.9160 H   0  0  0  0  0  0  0  0  0  0  0  0
   58.0396   21.7682   46.7845 H   0  0  0  0  0  0  0  0  0  0  0  0
   57.0207   25.5340   46.5071 H   0  0  0  0  0  0  0  0  0  0  0  0
   56.9528   27.9666   46.8482 H   0  0  0  0  0  0  0  0  0  0  0  0
   58.7649   35.9739   45.2098 H   0  0  0  0  0  0  0  0  0  0  0  0
   59.7473   34.8012   44.2683 H   0  0  0  0  0  0  0  0  0  0  0  0
   57.9554   34.6759   44.2683 H   0  0  0  0  0  0  0  0  0  0  0  0
   59.6030   35.4920   47.3990 H   0  0  0  0  0  0  0  0  0  0  0  0
  1  2  1  0
  2  3  2  0
  3  4  1  0
  4  5  2  0
  5  6  1  0
  6  7  2  0
  6  8  2  0
  6  9  1  0
  9 10  2  0
 10 11  1  0
 11 12  2  0
 12 13  1  0
 13 14  1  0
 14 15  2  0
 14 16  1  0
 16 17  1  0
 16 18  1  0
 18 19  1  0
 19 20  2  0
 20 21  1  0
 21 22  2  0
 22 23  1  0
 23 24  1  0
 23 25  2  0
 12 26  1  0
 26 27  2  0
  4 28  1  0
 28 29  2  0
 29 30  1  0
 29 31  1  0
 31  2  1  0
 27  9  1  0
 25 19  1  0
  1 32  1  0
  1 33  1  0
  1 34  1  0
  3 35  1  0
 10 36  1  0
 11 37  1  0
 13 38  1  0
 16 39  1  6
 17 40  1  0
 18 41  1  0
 18 42  1  0
 20 43  1  0
 21 44  1  0
 22 45  1  0
 24 46  1  0
 25 47  1  0
 26 48  1  0
 27 49  1  0
 30 50  1  0
 30 51  1  0
 30 52  1  0
 31 53  1  0
M  END
>  <smiles>  (76) 
Cc1cc(=NS(=O)(=O)c2ccc(NC(=O)C(O)Cc3cccc(O)c3)cc2)nc(C)[nH]1

>  <score_type>  (76) 
oracle

>  <origin>  (76) 
adg

>  <m_score__min__energy>  (76) 
-11.140000000000001

>  <m_primary>  (76) 
energy

$$$$
76:0
     RDKit          3D

 53 56  0  0  0  0  0  0  0  0999 V2000
   55.2470   30.0930   45.6030 H   0  0  0  0  0  0  0  0  0  0  0  0
   55.4240   29.3630   44.9230 O   0  0  0  0  0  0  0  0  0  0  0  0
   56.1310   28.2110   45.2580 C   0  0  0  0  0  0  0  0  0  0  0  0
   55.5600   27.1330   45.8190 N   0  0  0  0  0  0  0  0  0  0  0  0
   56.6090   26.3030   46.0090 C   0  0  0  0  0  0  0  0  0  0  0  0
   56.4860   25.1660   46.5320 O   0  0  0  0  0  0  0  0  0  0  0  0
   57.8010   26.7940   45.6060 N   0  0  0  0  0  0  0  0  0  0  0  0
   57.4870   27.9990   45.1010 C   0  0  0  0  0  0  0  0  0  0  0  0
   58.4880   28.9620   44.6240 C   0  0  0  0  0  0  0  0  0  0  0  0
   59.2875   28.5734   43.9761 H   0  0  0  0  0  0  0  0  0  0  0  0
   58.5150   30.2800   44.9090 C   0  0  0  0  0  0  0  0  0  0  0  0
   59.0270   30.7730   46.0950 C   0  0  0  0  0  0  0  0  0  0  0  0
   59.5129   30.1883   46.8900 H   0  0  0  0  0  0  0  0  0  0  0  0
   58.8140   32.1360   46.0940 C   0  0  0  0  0  0  0  0  0  0  0  0
   59.1130   33.0240   47.2400 C   0  0  0  0  0  0  0  0  0  0  0  0
   58.5330   34.1410   47.3120 O   0  0  0  0  0  0  0  0  0  0  0  0
   60.0070   32.6180   48.2960 N   0  0  0  0  0  0  0  0  0  0  0  0
   59.8320   33.2020   49.6340 C   0  0  0  0  0  0  0  0  0  0  0  0
   60.0326   34.2823   49.5816 H   0  0  0  0  0  0  0  0  0  0  0  0
   58.7995   33.0112   49.9618 H   0  0  0  0  0  0  0  0  0  0  0  0
   60.7840   32.5680   50.6510 C   0  0  0  0  0  0  0  0  0  0  0  0
   60.7714   33.1556   51.5809 H   0  0  0  0  0  0  0  0  0  0  0  0
   60.4607   31.5383   50.8635 H   0  0  0  0  0  0  0  0  0  0  0  0
   62.1450   32.5500   50.1020 N   0  0  0  0  0  0  0  0  0  0  0  0
   63.2090   33.2310   50.7930 C   0  0  0  0  0  0  0  0  0  0  0  0
   62.9750   34.3340   51.3590 O   0  0  0  0  0  0  0  0  0  0  0  0
   64.5800   32.6760   50.8330 C   0  0  0  0  0  0  0  0  0  0  0  0
   64.7810   31.3070   51.0850 C   0  0  0  0  0  0  0  0  0  0  0  0
   63.9161   30.6489   51.2546 H   0  0  0  0  0  0  0  0  0  0  0  0
   66.0740   30.7790   51.1210 C   0  0  0  0  0  0  0  0  0  0  0  0
   66.2237   29.7092   51.3288 H   0  0  0  0  0  0  0  0  0  0  0  0
   67.1770   31.6050   50.8940 C   0  0  0  0  0  0  0  0  0  0  0  0
   68.1937   31.1867   50.9296 H   0  0  0  0  0  0  0  0  0  0  0  0
   66.9890   32.9660   50.6210 C   0  0  0  0  0  0  0  0  0  0  0  0
   68.1260   33.8140   50.3760 C   0  0  0  0  0  0  0  0  0  0  0  0
   69.0390   34.4970   50.1780 N   0  0  0  0  0  0  0  0  0  0  0  0
   65.6930   33.4980   50.5840 C   0  0  0  0  0  0  0  0  0  0  0  0
   65.5458   34.5646   50.3589 H   0  0  0  0  0  0  0  0  0  0  0  0
   62.3730   32.0540   48.7360 C   0  0  0  0  0  0  0  0  0  0  0  0
   62.8361   32.8543   48.1400 H   0  0  0  0  0  0  0  0  0  0  0  0
   63.0303   31.1742   48.7987 H   0  0  0  0  0  0  0  0  0  0  0  0
   61.0670   31.6230   48.0570 C   0  0  0  0  0  0  0  0  0  0  0  0
   61.2364   31.5279   46.9743 H   0  0  0  0  0  0  0  0  0  0  0  0
   60.7495   30.6576   48.4780 H   0  0  0  0  0  0  0  0  0  0  0  0
   58.2280   32.5190   44.9330 N   0  0  0  0  0  0  0  0  0  0  0  0
   57.9010   33.8930   44.5330 C   0  0  0  0  0  0  0  0  0  0  0  0
   57.7539   34.5111   45.4309 H   0  0  0  0  0  0  0  0  0  0  0  0
   58.7258   34.3067   43.9342 H   0  0  0  0  0  0  0  0  0  0  0  0
   56.9783   33.8908   43.9342 H   0  0  0  0  0  0  0  0  0  0  0  0
   58.0510   31.3940   44.1900 C   0  0  0  0  0  0  0  0  0  0  0  0
   57.5800   31.4090   42.9320 C   0  0  0  0  0  0  0  0  0  0  0  0
   57.2455   32.3550   42.4812 H   0  0  0  0  0  0  0  0  0  0  0  0
   57.5289   30.4753   42.3527 H   0  0  0  0  0  0  0  0  0  0  0  0
  1  2  1  0
  2  3  1  0
  3  4  1  0
  4  5  1  0
  5  6  2  0
  5  7  1  0
  7  8  1  0
  8  9  1  0
  9 10  1  0
  9 11  2  0
 11 12  1  0
 12 13  1  0
 12 14  2  0
 14 15  1  0
 15 16  2  0
 15 17  1  0
 17 18  1  0
 18 19  1  0
 18 20  1  0
 18 21  1  0
 21 22  1  0
 21 23  1  0
 21 24  1  0
 24 25  1  0
 25 26  2  0
 25 27  1  0
 27 28  2  0
 28 29  1  0
 28 30  1  0
 30 31  1  0
 30 32  2  0
 32 33  1  0
 32 34  1  0
 34 35  1  0
 35 36  3  0
 34 37  2  0
 37 38  1  0
 24 39  1  0
 39 40  1  0
 39 41  1  0
 39 42  1  0
 42 43  1  0
 42 44  1  0
 14 45  1  0
 45 46  1  0
 46 47  1  0
 46 48  1  0
 46 49  1  0
 45 50  1  0
 50 51  2  0
 51 52  1  0
 51 53  1  0
  8  3  2  0
 50 11  1  0
 42 17  1  0
 37 27  1  0
M  CHG  2   4  -1   7  -1
M  END
>  <UniqueID>  (77) 
71

>  <SMILES>  (77) 
C=c1/c(=C\c2[n-]c(=O)[n-]c2O)cc(C(=O)N2CCN(C(=O)c3cccc(C#N)c3)CC2)n1C

>  <Energy>  (77) 
136.26763404748237

>  <Genealogy>  (77) 
C=c1c(=Cc2[n-]c(=O)[n-]c2O)cc(C(=O)N2CCN(C(=O)c3cccc(C#N)c3)CC2)n1C (protonated)
C=c1/c(=C\c2[n-]c(=O)[n-]c2O)cc(C(=O)N2CCN(C(=O)c3cccc(C#N)c3)CC2)n1C (cis-trans isomerization)
C=c1/c(=C\c2[n-]c(=O)[n-]c2O)cc(C(=O)N2CCN(C(=O)c3cccc(C#N)c3)CC2)n1C (3D coordinates assigned)
C=c1/c(=C\c2[n-]c(=O)[n-]c2O)cc(C(=O)N2CCN(C(=O)c3cccc(C#N)c3)CC2)n1C (nonaromatic ring conformer: 136.26763404748237 kcal/mol)

>  <smiles>  (77) 
C=c1c(=Cc2[nH]c(=O)[nH]c2O)cc(C(=O)N2CCN(C(=O)c3cccc(C#N)c3)CC2)n1C

>  <score_type>  (77) 
oracle

>  <origin>  (77) 
adg

>  <m_score__min__energy>  (77) 
-14.1

>  <m_primary>  (77) 
energy

$$$$
77:0
     RDKit          3D

 57 59  0  0  0  0  0  0  0  0999 V2000
   55.9390   29.7390   43.2620 C   0  0  0  0  0  0  0  0  0  0  0  0
   57.0020   30.8080   43.4810 C   0  0  0  0  0  0  0  0  0  0  0  0
   56.9970   31.2580   44.8330 O   0  0  0  0  0  0  0  0  0  0  0  0
   57.7830   30.7390   45.8770 C   0  0  0  0  0  0  0  0  0  0  0  0
   57.9660   29.3550   46.0660 C   0  0  0  0  0  0  0  0  0  0  0  0
   58.7580   28.8710   47.1240 C   0  0  0  0  0  0  0  0  0  0  0  0
   58.9500   27.3820   47.3540 C   0  0  2  0  0  0  0  0  0  0  0  0
   60.3910   27.0280   47.7440 C   0  0  0  0  0  0  0  0  0  0  0  0
   58.5120   26.6050   46.1940 N   0  0  0  0  0  0  0  0  0  0  0  0
   57.1470   26.2810   45.9110 C   0  0  0  0  0  0  0  0  0  0  0  0
   56.2380   27.0470   46.3270 O   0  0  0  0  0  0  0  0  0  0  0  0
   56.8080   25.0430   45.1660 C   0  0  0  0  0  0  0  0  0  0  0  0
   57.8240   24.3080   44.5280 C   0  0  0  0  0  0  0  0  0  0  0  0
   57.5180   23.1430   43.8260 C   0  0  0  0  0  0  0  0  0  0  0  0
   56.1910   22.7130   43.7610 C   0  0  0  0  0  0  0  0  0  0  0  0
   55.8970   21.6610   43.1340 O   0  0  0  0  0  0  0  0  0  0  0  0
   55.2130   23.4320   44.3710 N   0  0  0  0  0  0  0  0  0  0  0  0
   55.4800   24.5750   45.0630 C   0  0  0  0  0  0  0  0  0  0  0  0
   54.4270   25.2760   45.6480 O   0  0  0  0  0  0  0  0  0  0  0  0
   59.3560   29.7900   47.9980 C   0  0  0  0  0  0  0  0  0  0  0  0
   59.1820   31.1610   47.8150 C   0  0  0  0  0  0  0  0  0  0  0  0
   58.3930   31.6450   46.7560 C   0  0  0  0  0  0  0  0  0  0  0  0
   58.1950   33.0190   46.5420 O   0  0  0  0  0  0  0  0  0  0  0  0
   59.2420   33.9650   46.3330 C   0  0  0  0  0  0  0  0  0  0  0  0
   59.9590   34.2520   47.6250 C   0  0  0  0  0  0  0  0  0  0  0  0
   59.3640   34.9210   48.5150 O   0  0  0  0  0  0  0  0  0  0  0  0
   61.3080   33.7880   47.8620 N   0  0  0  0  0  0  0  0  0  0  0  0
   62.0030   32.9580   46.8640 C   0  0  0  0  0  0  0  0  0  0  0  0
   63.5220   33.0540   47.0480 C   0  0  0  0  0  0  0  0  0  0  0  0
   63.8840   32.8070   48.3910 O   0  0  0  0  0  0  0  0  0  0  0  0
   63.3750   33.8370   49.2120 C   0  0  0  0  0  0  0  0  0  0  0  0
   61.8450   33.8160   49.2290 C   0  0  0  0  0  0  0  0  0  0  0  0
   55.5780   29.3760   44.2356 H   0  0  0  0  0  0  0  0  0  0  0  0
   55.0988   30.1679   42.6961 H   0  0  0  0  0  0  0  0  0  0  0  0
   56.3726   28.9013   42.6961 H   0  0  0  0  0  0  0  0  0  0  0  0
   57.9905   30.3872   43.2448 H   0  0  0  0  0  0  0  0  0  0  0  0
   56.7825   31.6628   42.8244 H   0  0  0  0  0  0  0  0  0  0  0  0
   57.4842   28.6442   45.3785 H   0  0  0  0  0  0  0  0  0  0  0  0
   58.3135   27.1110   48.2093 H   0  0  0  0  0  0  0  0  0  0  0  0
   60.4794   27.0063   48.8402 H   0  0  0  0  0  0  0  0  0  0  0  0
   60.6491   26.0397   47.3357 H   0  0  0  0  0  0  0  0  0  0  0  0
   61.0777   27.7842   47.3357 H   0  0  0  0  0  0  0  0  0  0  0  0
   58.8664   24.6548   44.5834 H   0  0  0  0  0  0  0  0  0  0  0  0
   58.3134   22.5686   43.3286 H   0  0  0  0  0  0  0  0  0  0  0  0
   54.5970   25.9640   46.3710 H   0  0  0  0  0  0  0  0  0  0  0  0
   59.9683   29.4257   48.8361 H   0  0  0  0  0  0  0  0  0  0  0  0
   59.6653   31.8695   48.5039 H   0  0  0  0  0  0  0  0  0  0  0  0
   59.9582   33.5572   45.6044 H   0  0  0  0  0  0  0  0  0  0  0  0
   58.8055   34.9005   45.9530 H   0  0  0  0  0  0  0  0  0  0  0  0
   61.6896   31.9104   46.9833 H   0  0  0  0  0  0  0  0  0  0  0  0
   61.7434   33.3199   45.8582 H   0  0  0  0  0  0  0  0  0  0  0  0
   64.0108   32.3109   46.4008 H   0  0  0  0  0  0  0  0  0  0  0  0
   63.8450   34.0703   46.7783 H   0  0  0  0  0  0  0  0  0  0  0  0
   63.7485   33.6981   50.2373 H   0  0  0  0  0  0  0  0  0  0  0  0
   63.7087   34.8047   48.8093 H   0  0  0  0  0  0  0  0  0  0  0  0
   61.5027   32.9210   49.7692 H   0  0  0  0  0  0  0  0  0  0  0  0
   61.4856   34.7269   49.7302 H   0  0  0  0  0  0  0  0  0  0  0  0
  1  2  1  0
  2  3  1  0
  3  4  1  0
  4  5  2  0
  5  6  1  0
  6  7  1  0
  7  8  1  0
  7  9  1  0
  9 10  1  0
 10 11  2  0
 10 12  1  0
 12 13  1  0
 13 14  2  0
 14 15  1  0
 15 16  2  0
 15 17  1  0
 17 18  1  0
 18 19  1  0
  6 20  2  0
 20 21  1  0
 21 22  2  0
 22 23  1  0
 23 24  1  0
 24 25  1  0
 25 26  2  0
 25 27  1  0
 27 28  1  0
 28 29  1  0
 29 30  1  0
 30 31  1  0
 31 32  1  0
 22  4  1  0
 32 27  1  0
 18 12  2  0
  1 33  1  0
  1 34  1  0
  1 35  1  0
  2 36  1  0
  2 37  1  0
  5 38  1  0
  7 39  1  1
  8 40  1  0
  8 41  1  0
  8 42  1  0
 13 43  1  0
 14 44  1  0
 19 45  1  0
 20 46  1  0
 21 47  1  0
 24 48  1  0
 24 49  1  0
 28 50  1  0
 28 51  1  0
 29 52  1  0
 29 53  1  0
 31 54  1  0
 31 55  1  0
 32 56  1  0
 32 57  1  0
M  CHG  2   9  -1  17  -1
M  END
>  <UniqueID>  (78) 
72

>  <SMILES>  (78) 
CCOc1cc([C@H](C)[N-]C(=O)c2ccc(=O)[n-]c2O)ccc1OCC(=O)N1CCOCC1

>  <Energy>  (78) 
65.76390282725532

>  <Genealogy>  (78) 
CCOc1cc(C(C)[N-]C(=O)c2ccc(=O)[n-]c2O)ccc1OCC(=O)N1CCOCC1 (protonated)
CCOc1cc([C@H](C)[N-]C(=O)c2ccc(=O)[n-]c2O)ccc1OCC(=O)N1CCOCC1 (chirality)
CCOc1cc([C@H](C)[N-]C(=O)c2ccc(=O)[n-]c2O)ccc1OCC(=O)N1CCOCC1 (3D coordinates assigned)
CCOc1cc([C@H](C)[N-]C(=O)c2ccc(=O)[n-]c2O)ccc1OCC(=O)N1CCOCC1 (nonaromatic ring conformer: 65.76390282725532 kcal/mol)

>  <smiles>  (78) 
CCOc1cc(C(C)NC(=O)c2ccc(=O)[nH]c2O)ccc1OCC(=O)N1CCOCC1

>  <score_type>  (78) 
oracle

>  <origin>  (78) 
adg

>  <m_score__min__energy>  (78) 
-12.94

>  <m_primary>  (78) 
energy

$$$$
78:0
     RDKit          3D

 53 56  0  0  0  0  0  0  0  0999 V2000
   59.5160   30.2300   49.0870 O   0  0  0  0  0  0  0  0  0  0  0  0
   58.7150   31.1700   49.3530 C   0  0  0  0  0  0  0  0  0  0  0  0
   58.2600   32.0370   48.3030 N   0  0  0  0  0  0  0  0  0  0  0  0
   58.7940   31.9410   46.9460 C   0  0  0  0  0  0  0  0  0  0  0  0
   58.9920   33.3060   46.3460 C   0  0  0  0  0  0  0  0  0  0  0  0
   58.5950   33.6690   45.0720 C   0  0  0  0  0  0  0  0  0  0  0  0
   58.9840   34.9820   44.8980 C   0  0  0  0  0  0  0  0  0  0  0  0
   59.6040   35.3710   46.0690 C   0  0  0  0  0  0  0  0  0  0  0  0
   59.6110   34.3500   46.9500 N   0  0  0  0  0  0  0  0  0  0  0  0
   60.1700   34.4110   48.3060 C   0  0  0  0  0  0  0  0  0  0  0  0
   61.5630   33.8430   48.3420 C   0  0  0  0  0  0  0  0  0  0  0  0
   62.1830   33.5500   49.5690 C   0  0  0  0  0  0  0  0  0  0  0  0
   63.4790   33.0280   49.5970 C   0  0  0  0  0  0  0  0  0  0  0  0
   64.1680   32.8010   48.4010 C   0  0  0  0  0  0  0  0  0  0  0  0
   63.5620   33.0980   47.1760 C   0  0  0  0  0  0  0  0  0  0  0  0
   62.2650   33.6190   47.1450 C   0  0  0  0  0  0  0  0  0  0  0  0
   58.2570   31.3740   50.7450 C   0  0  0  0  0  0  0  0  0  0  0  0
   58.8300   32.3600   51.5640 C   0  0  0  0  0  0  0  0  0  0  0  0
   58.3860   32.5020   52.8820 C   0  0  0  0  0  0  0  0  0  0  0  0
   57.3760   31.6730   53.3690 C   0  0  0  0  0  0  0  0  0  0  0  0
   56.8070   30.7140   52.5210 C   0  0  0  0  0  0  0  0  0  0  0  0
   55.7520   29.7750   53.0280 C   0  0  0  0  0  0  0  0  0  0  0  0
   54.6480   29.7390   52.1230 O   0  0  0  0  0  0  0  0  0  0  0  0
   53.4380   30.4360   52.2870 C   0  0  0  0  0  0  0  0  0  0  0  0
   52.6510   30.3360   53.4540 C   0  0  0  0  0  0  0  0  0  0  0  0
   51.4650   31.0700   53.5690 C   0  0  0  0  0  0  0  0  0  0  0  0
   51.0490   31.9010   52.5250 C   0  0  0  0  0  0  0  0  0  0  0  0
   51.8160   31.9940   51.3590 C   0  0  0  0  0  0  0  0  0  0  0  0
   51.3990   32.8150   50.3180 O   0  0  0  0  0  0  0  0  0  0  0  0
   53.0020   31.2600   51.2400 C   0  0  0  0  0  0  0  0  0  0  0  0
   57.2660   30.5870   51.2470 N   0  0  0  0  0  0  0  0  0  0  0  0
   57.5020   32.7300   48.5060 H   0  0  0  0  0  0  0  0  0  0  0  0
   59.7611   31.4178   46.9763 H   0  0  0  0  0  0  0  0  0  0  0  0
   58.0748   31.3866   46.3252 H   0  0  0  0  0  0  0  0  0  0  0  0
   58.0718   33.0356   44.3406 H   0  0  0  0  0  0  0  0  0  0  0  0
   58.8299   35.5989   44.0004 H   0  0  0  0  0  0  0  0  0  0  0  0
   60.0299   36.3679   46.2558 H   0  0  0  0  0  0  0  0  0  0  0  0
   60.2008   35.4601   48.6353 H   0  0  0  0  0  0  0  0  0  0  0  0
   59.5316   33.8152   48.9750 H   0  0  0  0  0  0  0  0  0  0  0  0
   61.6457   33.7324   50.5113 H   0  0  0  0  0  0  0  0  0  0  0  0
   63.9575   32.7956   50.5598 H   0  0  0  0  0  0  0  0  0  0  0  0
   65.1875   32.3885   48.4240 H   0  0  0  0  0  0  0  0  0  0  0  0
   64.1061   32.9216   46.2364 H   0  0  0  0  0  0  0  0  0  0  0  0
   61.7921   33.8545   46.1802 H   0  0  0  0  0  0  0  0  0  0  0  0
   59.6217   33.0153   51.1719 H   0  0  0  0  0  0  0  0  0  0  0  0
   58.8329   33.2668   53.5342 H   0  0  0  0  0  0  0  0  0  0  0  0
   57.0296   31.7711   54.4084 H   0  0  0  0  0  0  0  0  0  0  0  0
   56.1785   28.7654   53.1212 H   0  0  0  0  0  0  0  0  0  0  0  0
   55.4004   30.1261   54.0094 H   0  0  0  0  0  0  0  0  0  0  0  0
   52.9708   29.6789   54.2761 H   0  0  0  0  0  0  0  0  0  0  0  0
   50.8586   30.9927   54.4835 H   0  0  0  0  0  0  0  0  0  0  0  0
   50.1194   32.4813   52.6202 H   0  0  0  0  0  0  0  0  0  0  0  0
   53.5968   31.3304   50.3173 H   0  0  0  0  0  0  0  0  0  0  0  0
  1  2  2  0
  2  3  1  0
  3  4  1  0
  4  5  1  0
  5  6  2  0
  6  7  1  0
  7  8  2  0
  8  9  1  0
  9 10  1  0
 10 11  1  0
 11 12  2  0
 12 13  1  0
 13 14  2  0
 14 15  1  0
 15 16  2  0
  2 17  1  0
 17 18  2  0
 18 19  1  0
 19 20  2  0
 20 21  1  0
 21 22  1  0
 22 23  1  0
 23 24  1  0
 24 25  2  0
 25 26  1  0
 26 27  2  0
 27 28  1  0
 28 29  1  0
 28 30  2  0
 21 31  2  0
  9  5  1  0
 16 11  1  0
 31 17  1  0
 30 24  1  0
  3 32  1  0
  4 33  1  0
  4 34  1  0
  6 35  1  0
  7 36  1  0
  8 37  1  0
 10 38  1  0
 10 39  1  0
 12 40  1  0
 13 41  1  0
 14 42  1  0
 15 43  1  0
 16 44  1  0
 18 45  1  0
 19 46  1  0
 20 47  1  0
 22 48  1  0
 22 49  1  0
 25 50  1  0
 26 51  1  0
 27 52  1  0
 30 53  1  0
M  CHG  1  29  -1
M  END
>  <UniqueID>  (79) 
73

>  <SMILES>  (79) 
O=C(NCc1cccn1Cc1ccccc1)c1cccc(COc2cccc([O-])c2)n1

>  <Energy>  (79) 
78.32656280858772

>  <Genealogy>  (79) 
O=C(NCc1cccn1Cc1ccccc1)c1cccc(COc2cccc([O-])c2)n1 (protonated)
O=C(NCc1cccn1Cc1ccccc1)c1cccc(COc2cccc([O-])c2)n1 (3D coordinates assigned)
O=C(NCc1cccn1Cc1ccccc1)c1cccc(COc2cccc([O-])c2)n1 (optimized conformer: 78.32656280858772 kcal/mol)

>  <smiles>  (79) 
O=C(NCc1cccn1Cc1ccccc1)c1cccc(COc2cccc(O)c2)n1

>  <score_type>  (79) 
oracle

>  <origin>  (79) 
adg

>  <m_score__min__energy>  (79) 
-13.220000000000001

>  <m_primary>  (79) 
energy

$$$$
79:0
     RDKit          3D

 62 65  0  0  0  0  0  0  0  0999 V2000
   58.1180   32.0020   50.5870 C   0  0  0  0  0  0  0  0  0  0  0  0
   58.5850   30.9170   49.7900 O   0  0  0  0  0  0  0  0  0  0  0  0
   59.5650   29.9960   50.2000 C   0  0  0  0  0  0  0  0  0  0  0  0
   60.2760   30.1640   51.4060 C   0  0  0  0  0  0  0  0  0  0  0  0
   61.2150   29.2140   51.8130 C   0  0  0  0  0  0  0  0  0  0  0  0
   61.4550   28.0880   51.0290 C   0  0  0  0  0  0  0  0  0  0  0  0
   60.7670   27.9090   49.8280 C   0  0  0  0  0  0  0  0  0  0  0  0
   61.0370   26.8130   49.0740 F   0  0  0  0  0  0  0  0  0  0  0  0
   59.8310   28.8660   49.3930 C   0  0  0  0  0  0  0  0  0  0  0  0
   59.1240   28.6590   48.1060 C   0  0  0  0  0  0  0  0  0  0  0  0
   58.3020   29.5280   47.7130 O   0  0  0  0  0  0  0  0  0  0  0  0
   59.3740   27.5250   47.2640 N   0  0  0  0  0  0  0  0  0  0  0  0
   58.4300   26.5290   46.8380 C   0  0  0  0  0  0  0  0  0  0  0  0
   58.3360   25.2850   47.4880 C   0  0  0  0  0  0  0  0  0  0  0  0
   57.4450   24.3130   47.0280 C   0  0  0  0  0  0  0  0  0  0  0  0
   57.3680   23.0830   47.6690 O   0  0  0  0  0  0  0  0  0  0  0  0
   56.6290   24.5770   45.9270 C   0  0  0  0  0  0  0  0  0  0  0  0
   56.6870   25.8220   45.2970 C   0  0  0  0  0  0  0  0  0  0  0  0
   57.5690   26.8110   45.7560 C   0  0  0  0  0  0  0  0  0  0  0  0
   57.5880   28.0970   45.1120 N   0  0  0  0  0  0  0  0  0  0  0  0
   56.4220   28.9810   45.2380 C   0  0  0  0  0  0  0  0  0  0  0  0
   56.5710   30.2270   44.3590 C   0  0  0  0  0  0  0  0  0  0  0  0
   57.9060   30.8070   44.5470 N   0  0  0  0  0  0  0  0  0  0  0  0
   58.0790   32.2260   44.6650 C   0  0  0  0  0  0  0  0  0  0  0  0
   58.8800   32.8220   43.8930 O   0  0  0  0  0  0  0  0  0  0  0  0
   57.4140   32.9990   45.7700 C   0  0  0  0  0  0  0  0  0  0  0  0
   58.0720   32.7120   47.1270 C   0  0  0  0  0  0  0  0  0  0  0  0
   59.5750   32.8130   47.0530 C   0  0  0  0  0  0  0  0  0  0  0  0
   60.1950   34.0420   46.7780 C   0  0  0  0  0  0  0  0  0  0  0  0
   61.5900   34.1390   46.7490 C   0  0  0  0  0  0  0  0  0  0  0  0
   62.3780   33.0080   46.9970 C   0  0  0  0  0  0  0  0  0  0  0  0
   63.7680   33.0920   46.9720 O   0  0  0  0  0  0  0  0  0  0  0  0
   61.7660   31.7820   47.2750 C   0  0  0  0  0  0  0  0  0  0  0  0
   60.3720   31.6840   47.3070 C   0  0  0  0  0  0  0  0  0  0  0  0
   59.0970   29.9470   44.4940 C   0  0  0  0  0  0  0  0  0  0  0  0
   58.7250   28.4770   44.2620 C   0  0  0  0  0  0  0  0  0  0  0  0
   58.2272   31.7484   51.6518 H   0  0  0  0  0  0  0  0  0  0  0  0
   58.7081   32.9027   50.3622 H   0  0  0  0  0  0  0  0  0  0  0  0
   57.0582   32.1925   50.3622 H   0  0  0  0  0  0  0  0  0  0  0  0
   60.0896   31.0499   52.0308 H   0  0  0  0  0  0  0  0  0  0  0  0
   61.7661   29.3551   52.7544 H   0  0  0  0  0  0  0  0  0  0  0  0
   62.1891   27.3375   51.3575 H   0  0  0  0  0  0  0  0  0  0  0  0
   58.9681   25.0766   48.3638 H   0  0  0  0  0  0  0  0  0  0  0  0
   55.9400   23.8042   45.5553 H   0  0  0  0  0  0  0  0  0  0  0  0
   56.0362   26.0284   44.4345 H   0  0  0  0  0  0  0  0  0  0  0  0
   55.5204   28.4311   44.9303 H   0  0  0  0  0  0  0  0  0  0  0  0
   56.3421   29.3032   46.2867 H   0  0  0  0  0  0  0  0  0  0  0  0
   56.4388   29.9479   43.3033 H   0  0  0  0  0  0  0  0  0  0  0  0
   55.8085   30.9671   44.6432 H   0  0  0  0  0  0  0  0  0  0  0  0
   57.4943   34.0745   45.5533 H   0  0  0  0  0  0  0  0  0  0  0  0
   56.3597   32.6900   45.8236 H   0  0  0  0  0  0  0  0  0  0  0  0
   57.7020   33.4406   47.8634 H   0  0  0  0  0  0  0  0  0  0  0  0
   57.8124   31.6847   47.4225 H   0  0  0  0  0  0  0  0  0  0  0  0
   59.5805   34.9335   46.5843 H   0  0  0  0  0  0  0  0  0  0  0  0
   62.0689   35.1050   46.5311 H   0  0  0  0  0  0  0  0  0  0  0  0
   64.3500   32.2640   47.0260 H   0  0  0  0  0  0  0  0  0  0  0  0
   62.3831   30.8923   47.4690 H   0  0  0  0  0  0  0  0  0  0  0  0
   59.8965   30.7180   47.5322 H   0  0  0  0  0  0  0  0  0  0  0  0
   59.7445   30.2850   43.6715 H   0  0  0  0  0  0  0  0  0  0  0  0
   59.6168   30.0209   45.4606 H   0  0  0  0  0  0  0  0  0  0  0  0
   58.4519   28.3343   43.2060 H   0  0  0  0  0  0  0  0  0  0  0  0
   59.5886   27.8454   44.5172 H   0  0  0  0  0  0  0  0  0  0  0  0
  1  2  1  0
  2  3  1  0
  3  4  2  0
  4  5  1  0
  5  6  2  0
  6  7  1  0
  7  8  1  0
  7  9  2  0
  9 10  1  0
 10 11  2  0
 10 12  1  0
 12 13  1  0
 13 14  2  0
 14 15  1  0
 15 16  1  0
 15 17  2  0
 17 18  1  0
 18 19  2  0
 19 20  1  0
 20 21  1  0
 21 22  1  0
 22 23  1  0
 23 24  1  0
 24 25  2  0
 24 26  1  0
 26 27  1  0
 27 28  1  0
 28 29  2  0
 29 30  1  0
 30 31  2  0
 31 32  1  0
 31 33  1  0
 33 34  2  0
 23 35  1  0
 35 36  1  0
  9  3  1  0
 19 13  1  0
 36 20  1  0
 34 28  1  0
  1 37  1  0
  1 38  1  0
  1 39  1  0
  4 40  1  0
  5 41  1  0
  6 42  1  0
 14 43  1  0
 17 44  1  0
 18 45  1  0
 21 46  1  0
 21 47  1  0
 22 48  1  0
 22 49  1  0
 26 50  1  0
 26 51  1  0
 27 52  1  0
 27 53  1  0
 29 54  1  0
 30 55  1  0
 32 56  1  0
 33 57  1  0
 34 58  1  0
 35 59  1  0
 35 60  1  0
 36 61  1  0
 36 62  1  0
M  CHG  2  12  -1  16  -1
M  END
>  <UniqueID>  (80) 
74

>  <SMILES>  (80) 
COc1cccc(F)c1C(=O)[N-]c1cc([O-])ccc1N1CCN(C(=O)CCc2ccc(O)cc2)CC1

>  <Energy>  (80) 
77.45420628185421

>  <Genealogy>  (80) 
COc1cccc(F)c1C(=O)[N-]c1cc([O-])ccc1N1CCN(C(=O)CCc2ccc(O)cc2)CC1 (protonated)
COc1cccc(F)c1C(=O)[N-]c1cc([O-])ccc1N1CCN(C(=O)CCc2ccc(O)cc2)CC1 (3D coordinates assigned)
COc1cccc(F)c1C(=O)[N-]c1cc([O-])ccc1N1CCN(C(=O)CCc2ccc(O)cc2)CC1 (nonaromatic ring conformer: 77.45420628185421 kcal/mol)

>  <smiles>  (80) 
COc1cccc(F)c1C(=O)Nc1cc(O)ccc1N1CCN(C(=O)CCc2ccc(O)cc2)CC1

>  <score_type>  (80) 
oracle

>  <origin>  (80) 
adg

>  <m_score__min__energy>  (80) 
-11.6

>  <m_primary>  (80) 
energy

$$$$
80:0
     RDKit          3D

 53 56  0  0  0  0  0  0  0  0999 V2000
   58.1350   25.6140   45.2370 C   0  0  0  0  0  0  0  0  0  0  0  0
   58.6430   26.5550   46.0450 C   0  0  0  0  0  0  0  0  0  0  0  0
   59.6660   26.1680   46.8490 N   0  0  0  0  0  0  0  0  0  0  0  0
   60.1220   26.9260   47.8700 C   0  0  0  0  0  0  0  0  0  0  0  0
   61.0790   26.4920   48.5710 O   0  0  0  0  0  0  0  0  0  0  0  0
   59.5260   28.1240   48.1600 N   0  0  0  0  0  0  0  0  0  0  0  0
   59.9940   28.9140   49.3180 C   0  0  0  0  0  0  0  0  0  0  0  0
   60.9610   29.9820   48.8800 C   0  0  0  0  0  0  0  0  0  0  0  0
   61.7160   30.6950   49.8260 C   0  0  0  0  0  0  0  0  0  0  0  0
   62.6110   31.6880   49.4120 C   0  0  0  0  0  0  0  0  0  0  0  0
   62.7670   31.9690   48.0530 C   0  0  0  0  0  0  0  0  0  0  0  0
   62.0280   31.2580   47.1050 C   0  0  0  0  0  0  0  0  0  0  0  0
   61.1290   30.2690   47.5150 C   0  0  0  0  0  0  0  0  0  0  0  0
   58.5160   28.5950   47.3530 C   0  0  0  0  0  0  0  0  0  0  0  0
   57.9820   29.7070   47.6160 O   0  0  0  0  0  0  0  0  0  0  0  0
   58.0880   27.8600   46.2120 C   0  0  0  0  0  0  0  0  0  0  0  0
   57.2060   28.4430   45.3540 C   0  0  0  0  0  0  0  0  0  0  0  0
   57.3370   29.7810   44.7510 C   0  0  0  0  0  0  0  0  0  0  0  0
   57.3280   30.0450   43.3950 C   0  0  0  0  0  0  0  0  0  0  0  0
   57.4800   31.4100   43.2740 C   0  0  0  0  0  0  0  0  0  0  0  0
   57.5460   31.8940   44.5730 C   0  0  0  0  0  0  0  0  0  0  0  0
   57.7180   33.2700   44.9780 N   0  0  0  0  0  0  0  0  0  0  0  0
   56.8680   33.7690   46.0780 C   0  0  0  0  0  0  0  0  0  0  0  0
   57.4220   33.4660   47.4840 C   0  0  0  0  0  0  0  0  0  0  0  0
   58.8970   33.8830   47.6890 C   0  0  0  0  0  0  0  0  0  0  0  0
   59.8920   33.3730   46.6300 C   0  0  0  0  0  0  0  0  0  0  0  0
   59.9820   34.2470   45.3630 C   0  0  0  0  0  0  0  0  0  0  0  0
   58.7880   34.1060   44.4030 C   0  0  0  0  0  0  0  0  0  0  0  0
   57.4520   30.9000   45.4280 O   0  0  0  0  0  0  0  0  0  0  0  0
   57.3042   25.8608   44.5597 H   0  0  0  0  0  0  0  0  0  0  0  0
   58.5489   24.5949   45.2512 H   0  0  0  0  0  0  0  0  0  0  0  0
   59.1289   29.3882   49.8046 H   0  0  0  0  0  0  0  0  0  0  0  0
   60.5065   28.2406   50.0207 H   0  0  0  0  0  0  0  0  0  0  0  0
   61.6032   30.4718   50.8972 H   0  0  0  0  0  0  0  0  0  0  0  0
   63.1928   32.2484   50.1586 H   0  0  0  0  0  0  0  0  0  0  0  0
   63.4713   32.7496   47.7295 H   0  0  0  0  0  0  0  0  0  0  0  0
   62.1535   31.4765   46.0342 H   0  0  0  0  0  0  0  0  0  0  0  0
   60.5495   29.7120   46.7641 H   0  0  0  0  0  0  0  0  0  0  0  0
   56.3121   27.8607   45.0860 H   0  0  0  0  0  0  0  0  0  0  0  0
   57.2214   29.3154   42.5787 H   0  0  0  0  0  0  0  0  0  0  0  0
   57.5370   31.9931   42.3430 H   0  0  0  0  0  0  0  0  0  0  0  0
   56.7700   34.8595   45.9723 H   0  0  0  0  0  0  0  0  0  0  0  0
   55.9028   33.2476   45.9966 H   0  0  0  0  0  0  0  0  0  0  0  0
   56.8063   34.0034   48.2203 H   0  0  0  0  0  0  0  0  0  0  0  0
   57.3824   32.3740   47.6102 H   0  0  0  0  0  0  0  0  0  0  0  0
   58.9397   34.9822   47.6903 H   0  0  0  0  0  0  0  0  0  0  0  0
   59.2084   33.4215   48.6377 H   0  0  0  0  0  0  0  0  0  0  0  0
   60.8906   33.3302   47.0894 H   0  0  0  0  0  0  0  0  0  0  0  0
   59.5251   32.3882   46.3050 H   0  0  0  0  0  0  0  0  0  0  0  0
   60.0485   35.2995   45.6759 H   0  0  0  0  0  0  0  0  0  0  0  0
   60.8693   33.9050   44.8101 H   0  0  0  0  0  0  0  0  0  0  0  0
   58.3826   35.1061   44.1899 H   0  0  0  0  0  0  0  0  0  0  0  0
   59.1447   33.6194   43.4832 H   0  0  0  0  0  0  0  0  0  0  0  0
  1  2  2  0
  2  3  1  0
  3  4  1  0
  4  5  2  0
  4  6  1  0
  6  7  1  0
  7  8  1  0
  8  9  2  0
  9 10  1  0
 10 11  2  0
 11 12  1  0
 12 13  2  0
  6 14  1  0
 14 15  2  0
 14 16  1  0
 16 17  2  3
 17 18  1  0
 18 19  2  0
 19 20  1  0
 20 21  2  0
 21 22  1  0
 22 23  1  0
 23 24  1  0
 24 25  1  0
 25 26  1  0
 26 27  1  0
 27 28  1  0
 21 29  1  0
 16  2  1  0
 29 18  1  0
 13  8  1  0
 28 22  1  0
  1 30  1  0
  1 31  1  0
  7 32  1  0
  7 33  1  0
  9 34  1  0
 10 35  1  0
 11 36  1  0
 12 37  1  0
 13 38  1  0
 17 39  1  0
 19 40  1  0
 20 41  1  0
 23 42  1  0
 23 43  1  0
 24 44  1  0
 24 45  1  0
 25 46  1  0
 25 47  1  0
 26 48  1  0
 26 49  1  0
 27 50  1  0
 27 51  1  0
 28 52  1  0
 28 53  1  0
M  CHG  1   3  -1
M  END
>  <UniqueID>  (81) 
75

>  <SMILES>  (81) 
C=c1[n-]c(=O)n(Cc2ccccc2)c(=O)c1=Cc1ccc(N2CCCCCC2)o1

>  <Energy>  (81) 
111.6713143914937

>  <Genealogy>  (81) 
C=c1[n-]c(=O)n(Cc2ccccc2)c(=O)c1=Cc1ccc(N2CCCCCC2)o1 (protonated)
C=c1[n-]c(=O)n(Cc2ccccc2)c(=O)c1=Cc1ccc(N2CCCCCC2)o1 (3D coordinates assigned)
C=c1[n-]c(=O)n(Cc2ccccc2)c(=O)c1=Cc1ccc(N2CCCCCC2)o1 (nonaromatic ring conformer: 111.6713143914937 kcal/mol)

>  <smiles>  (81) 
C=c1[nH]c(=O)n(Cc2ccccc2)c(=O)c1=Cc1ccc(N2CCCCCC2)o1

>  <score_type>  (81) 
oracle

>  <origin>  (81) 
adg

>  <m_score__min__energy>  (81) 
-8.1699999999999999

>  <m_primary>  (81) 
energy

$$$$
81:0
     RDKit          3D

 50 53  0  0  0  0  0  0  0  0999 V2000
   60.1920   30.3750   45.5800 H   0  0  0  0  0  0  0  0  0  0  0  0
   59.8940   29.6420   44.9480 O   0  0  0  0  0  0  0  0  0  0  0  0
   58.6500   29.0330   45.0880 C   0  0  0  0  0  0  0  0  0  0  0  0
   58.4120   27.8040   45.6760 C   0  0  0  0  0  0  0  0  0  0  0  0
   57.0530   27.6140   45.6510 C   0  0  0  0  0  0  0  0  0  0  0  0
   56.5110   28.7300   45.0460 C   0  0  0  0  0  0  0  0  0  0  0  0
   55.1520   28.9670   44.8670 O   0  0  0  0  0  0  0  0  0  0  0  0
   57.4870   29.5960   44.6920 N   0  0  0  0  0  0  0  0  0  0  0  0
   57.3050   30.9590   44.1930 C   0  0  0  0  0  0  0  0  0  0  0  0
   56.2824   31.0710   43.8034 H   0  0  0  0  0  0  0  0  0  0  0  0
   58.0324   31.1504   43.3904 H   0  0  0  0  0  0  0  0  0  0  0  0
   57.5250   31.9450   45.3040 C   0  0  0  0  0  0  0  0  0  0  0  0
   56.6330   32.7880   45.5860 O   0  0  0  0  0  0  0  0  0  0  0  0
   58.7530   31.9370   46.0350 N   0  0  0  0  0  0  0  0  0  0  0  0
   58.8370   31.5180   47.2610 C   0  0  0  0  0  0  0  0  0  0  0  0
   59.4140   30.3510   47.6200 N   0  0  0  0  0  0  0  0  0  0  0  0
   59.2940   30.1160   48.9550 C   0  0  0  0  0  0  0  0  0  0  0  0
   59.8460   28.8640   49.5600 C   0  0  0  0  0  0  0  0  0  0  0  0
   59.8121   28.9409   50.6568 H   0  0  0  0  0  0  0  0  0  0  0  0
   59.2441   28.0029   49.2340 H   0  0  0  0  0  0  0  0  0  0  0  0
   60.8877   28.7276   49.2340 H   0  0  0  0  0  0  0  0  0  0  0  0
   58.6060   31.1140   49.6640 C   0  0  0  0  0  0  0  0  0  0  0  0
   58.2760   31.1480   51.1010 C   0  0  0  0  0  0  0  0  0  0  0  0
   58.4800   32.2060   51.7560 O   0  0  0  0  0  0  0  0  0  0  0  0
   57.6870   30.0140   51.7420 N   0  0  0  0  0  0  0  0  0  0  0  0
   56.3440   29.9790   52.2430 C   0  0  0  0  0  0  0  0  0  0  0  0
   55.3950   30.8310   51.6630 C   0  0  0  0  0  0  0  0  0  0  0  0
   55.6899   31.4953   50.8373 H   0  0  0  0  0  0  0  0  0  0  0  0
   54.0790   30.8430   52.1250 C   0  0  0  0  0  0  0  0  0  0  0  0
   53.3431   31.5226   51.6705 H   0  0  0  0  0  0  0  0  0  0  0  0
   53.6950   29.9930   53.1640 C   0  0  0  0  0  0  0  0  0  0  0  0
   52.6610   30.0158   53.5387 H   0  0  0  0  0  0  0  0  0  0  0  0
   54.6220   29.1140   53.7280 C   0  0  0  0  0  0  0  0  0  0  0  0
   54.3128   28.4458   54.5453 H   0  0  0  0  0  0  0  0  0  0  0  0
   55.9470   29.0760   53.2600 C   0  0  0  0  0  0  0  0  0  0  0  0
   56.9010   28.0760   53.8540 C   0  0  0  0  0  0  0  0  0  0  0  0
   56.8509   28.1286   54.9516 H   0  0  0  0  0  0  0  0  0  0  0  0
   56.6250   27.0641   53.5224 H   0  0  0  0  0  0  0  0  0  0  0  0
   57.9247   28.3041   53.5224 H   0  0  0  0  0  0  0  0  0  0  0  0
   58.1600   32.3190   48.5690 S   0  0  0  0  0  0  0  0  0  0  0  0
   56.3530   26.4560   46.2840 C   0  0  0  0  0  0  0  0  0  0  0  0
   55.8004   25.9061   45.5080 H   0  0  0  0  0  0  0  0  0  0  0  0
   55.6700   26.8470   47.0525 H   0  0  0  0  0  0  0  0  0  0  0  0
   57.3280   25.5100   46.9560 C   0  0  0  0  0  0  0  0  0  0  0  0
   56.9201   24.6240   47.4645 H   0  0  0  0  0  0  0  0  0  0  0  0
   58.6690   25.6880   46.9690 C   0  0  0  0  0  0  0  0  0  0  0  0
   59.2833   24.9403   47.4921 H   0  0  0  0  0  0  0  0  0  0  0  0
   59.3780   26.8530   46.3080 C   0  0  0  0  0  0  0  0  0  0  0  0
   60.0545   26.4646   45.5324 H   0  0  0  0  0  0  0  0  0  0  0  0
   59.9370   27.3977   47.0831 H   0  0  0  0  0  0  0  0  0  0  0  0
  1  2  1  0
  2  3  1  0
  3  4  2  0
  4  5  1  0
  5  6  2  0
  6  7  1  0
  6  8  1  0
  8  9  1  0
  9 10  1  0
  9 11  1  0
  9 12  1  0
 12 13  2  0
 12 14  1  0
 14 15  2  0
 15 16  1  0
 16 17  1  0
 17 18  1  0
 18 19  1  0
 18 20  1  0
 18 21  1  0
 17 22  2  0
 22 23  1  0
 23 24  2  0
 23 25  1  0
 25 26  1  0
 26 27  2  0
 27 28  1  0
 27 29  1  0
 29 30  1  0
 29 31  2  0
 31 32  1  0
 31 33  1  0
 33 34  1  0
 33 35  2  0
 35 36  1  0
 36 37  1  0
 36 38  1  0
 36 39  1  0
 22 40  1  0
  5 41  1  0
 41 42  1  0
 41 43  1  0
 41 44  1  0
 44 45  1  0
 44 46  2  0
 46 47  1  0
 46 48  1  0
 48 49  1  0
 48 50  1  0
  8  3  1  0
 40 15  1  0
 48  4  1  0
 35 26  1  0
M  CHG  3   7  -1  16  -1  25  -1
M  END
>  <UniqueID>  (82) 
76

>  <SMILES>  (82) 
Cc1ccccc1[N-]C(=O)c1s/c(=N/C(=O)Cn2c([O-])c3c(c2O)CC=CC3)[n-]c1C

>  <Energy>  (82) 
124.35958013488069

>  <Genealogy>  (82) 
Cc1ccccc1[N-]C(=O)c1sc(=NC(=O)Cn2c([O-])c3c(c2O)CC=CC3)[n-]c1C (protonated)
Cc1ccccc1[N-]C(=O)c1s/c(=N/C(=O)Cn2c([O-])c3c(c2O)CC=CC3)[n-]c1C (cis-trans isomerization)
Cc1ccccc1[N-]C(=O)c1s/c(=N/C(=O)Cn2c([O-])c3c(c2O)CC=CC3)[n-]c1C (3D coordinates assigned)
Cc1ccccc1[N-]C(=O)c1s/c(=N/C(=O)Cn2c([O-])c3c(c2O)CC=CC3)[n-]c1C (nonaromatic ring conformer: 124.35958013488069 kcal/mol)

>  <smiles>  (82) 
Cc1ccccc1NC(=O)c1sc(=NC(=O)Cn2c(O)c3c(c2O)CC=CC3)[nH]c1C

>  <score_type>  (82) 
oracle

>  <origin>  (82) 
adg

>  <m_score__min__energy>  (82) 
-14.43

>  <m_primary>  (82) 
energy

$$$$
82:0
     RDKit          3D

 53 56  0  0  0  0  0  0  0  0999 V2000
   58.8880   29.5390   49.0090 C   0  0  0  0  0  0  0  0  0  0  0  0
   59.3440   29.9410   50.4150 C   0  0  1  0  0  0  0  0  0  0  0  0
   60.2670   31.1800   50.3670 C   0  0  0  0  0  0  0  0  0  0  0  0
   59.4890   32.4100   50.1100 N   0  0  0  0  0  0  0  0  0  0  0  0
   59.8930   33.3310   49.0790 C   0  0  0  0  0  0  0  0  0  0  0  0
   60.6650   34.2840   49.3730 O   0  0  0  0  0  0  0  0  0  0  0  0
   59.4290   33.1850   47.6810 C   0  0  0  0  0  0  0  0  0  0  0  0
   59.5560   31.9590   47.0050 C   0  0  0  0  0  0  0  0  0  0  0  0
   59.1270   31.8310   45.6810 C   0  0  0  0  0  0  0  0  0  0  0  0
   58.5680   32.9280   45.0080 C   0  0  0  0  0  0  0  0  0  0  0  0
   58.1290   32.7870   43.5770 C   0  0  0  0  0  0  0  0  0  0  0  0
   57.7740   31.3990   43.2900 N   0  0  0  0  0  0  0  0  0  0  0  0
   56.7190   30.7180   43.9870 C   0  0  0  0  0  0  0  0  0  0  0  0
   56.0450   31.3270   44.8600 O   0  0  0  0  0  0  0  0  0  0  0  0
   56.4040   29.3480   43.7100 N   0  0  0  0  0  0  0  0  0  0  0  0
   57.3750   28.2720   43.5340 C   0  0  0  0  0  0  0  0  0  0  0  0
   57.8490   27.7560   44.8700 C   0  0  0  0  0  0  0  0  0  0  0  0
   59.2250   27.6390   45.1330 C   0  0  0  0  0  0  0  0  0  0  0  0
   59.6700   27.1590   46.3690 C   0  0  0  0  0  0  0  0  0  0  0  0
   58.7490   26.7830   47.3480 C   0  0  0  0  0  0  0  0  0  0  0  0
   57.3780   26.8820   47.0920 C   0  0  0  0  0  0  0  0  0  0  0  0
   56.9250   27.3620   45.8590 C   0  0  0  0  0  0  0  0  0  0  0  0
   55.5560   27.4420   45.6220 O   0  0  0  0  0  0  0  0  0  0  0  0
   58.4570   34.1580   45.6740 C   0  0  0  0  0  0  0  0  0  0  0  0
   58.8870   34.2860   46.9970 C   0  0  0  0  0  0  0  0  0  0  0  0
   58.3460   32.7560   50.9770 C   0  0  0  0  0  0  0  0  0  0  0  0
   57.6850   31.5160   51.4910 C   0  0  0  0  0  0  0  0  0  0  0  0
   56.5760   31.4690   52.2470 N   0  0  0  0  0  0  0  0  0  0  0  0
   56.4100   30.1400   52.4430 C   0  0  0  0  0  0  0  0  0  0  0  0
   55.4550   29.6700   53.1130 O   0  0  0  0  0  0  0  0  0  0  0  0
   57.3440   29.3550   51.8600 N   0  0  0  0  0  0  0  0  0  0  0  0
   58.1540   30.2520   51.2710 C   0  0  0  0  0  0  0  0  0  0  0  0
   58.0648   28.8133   49.0840 H   0  0  0  0  0  0  0  0  0  0  0  0
   58.5419   30.4312   48.4667 H   0  0  0  0  0  0  0  0  0  0  0  0
   59.7298   29.0838   48.4667 H   0  0  0  0  0  0  0  0  0  0  0  0
   59.9038   29.0961   50.8424 H   0  0  0  0  0  0  0  0  0  0  0  0
   60.7876   31.2784   51.3310 H   0  0  0  0  0  0  0  0  0  0  0  0
   60.9913   31.0462   49.5500 H   0  0  0  0  0  0  0  0  0  0  0  0
   59.9964   31.0937   47.5221 H   0  0  0  0  0  0  0  0  0  0  0  0
   59.2281   30.8654   45.1639 H   0  0  0  0  0  0  0  0  0  0  0  0
   57.2535   33.4293   43.4010 H   0  0  0  0  0  0  0  0  0  0  0  0
   58.9562   33.0885   42.9176 H   0  0  0  0  0  0  0  0  0  0  0  0
   58.3060   30.9100   42.5380 H   0  0  0  0  0  0  0  0  0  0  0  0
   56.9046   27.4492   42.9756 H   0  0  0  0  0  0  0  0  0  0  0  0
   58.2404   28.6644   42.9798 H   0  0  0  0  0  0  0  0  0  0  0  0
   59.9556   27.9265   44.3626 H   0  0  0  0  0  0  0  0  0  0  0  0
   60.7484   27.0776   46.5700 H   0  0  0  0  0  0  0  0  0  0  0  0
   59.1016   26.4090   48.3205 H   0  0  0  0  0  0  0  0  0  0  0  0
   56.6533   26.5813   47.8630 H   0  0  0  0  0  0  0  0  0  0  0  0
   58.0290   35.0263   45.1515 H   0  0  0  0  0  0  0  0  0  0  0  0
   58.8005   35.2566   47.5073 H   0  0  0  0  0  0  0  0  0  0  0  0
   58.7047   33.3543   51.8275 H   0  0  0  0  0  0  0  0  0  0  0  0
   57.6153   33.3319   50.3901 H   0  0  0  0  0  0  0  0  0  0  0  0
  1  2  1  0
  2  3  1  0
  3  4  1  0
  4  5  1  0
  5  6  2  0
  5  7  1  0
  7  8  2  0
  8  9  1  0
  9 10  2  0
 10 11  1  0
 11 12  1  0
 12 13  1  0
 13 14  2  0
 13 15  1  0
 15 16  1  0
 16 17  1  0
 17 18  2  0
 18 19  1  0
 19 20  2  0
 20 21  1  0
 21 22  2  0
 22 23  1  0
 10 24  1  0
 24 25  2  0
  4 26  1  0
 26 27  1  0
 27 28  1  0
 28 29  1  0
 29 30  2  0
 29 31  1  0
 31 32  1  0
 32  2  1  0
 25  7  1  0
 32 27  2  0
 22 17  1  0
  1 33  1  0
  1 34  1  0
  1 35  1  0
  2 36  1  1
  3 37  1  0
  3 38  1  0
  8 39  1  0
  9 40  1  0
 11 41  1  0
 11 42  1  0
 12 43  1  0
 16 44  1  0
 16 45  1  0
 18 46  1  0
 19 47  1  0
 20 48  1  0
 21 49  1  0
 24 50  1  0
 25 51  1  0
 26 52  1  0
 26 53  1  0
M  CHG  4  15  -1  23  -1  28  -1  31  -1
M  END
>  <UniqueID>  (83) 
77

>  <SMILES>  (83) 
C[C@H]1CN(C(=O)c2ccc(CNC(=O)[N-]Cc3ccccc3[O-])cc2)Cc2[n-]c(=O)[n-]c21

>  <Energy>  (83) 
87.08368967311786

>  <Genealogy>  (83) 
CC1CN(C(=O)c2ccc(CNC(=O)[N-]Cc3ccccc3[O-])cc2)Cc2[n-]c(=O)[n-]c21 (protonated)
C[C@H]1CN(C(=O)c2ccc(CNC(=O)[N-]Cc3ccccc3[O-])cc2)Cc2[n-]c(=O)[n-]c21 (chirality)
C[C@H]1CN(C(=O)c2ccc(CNC(=O)[N-]Cc3ccccc3[O-])cc2)Cc2[n-]c(=O)[n-]c21 (3D coordinates assigned)
C[C@H]1CN(C(=O)c2ccc(CNC(=O)[N-]Cc3ccccc3[O-])cc2)Cc2[n-]c(=O)[n-]c21 (nonaromatic ring conformer: 87.08368967311786 kcal/mol)

>  <smiles>  (83) 
CC1CN(C(=O)c2ccc(CNC(=O)NCc3ccccc3O)cc2)Cc2[nH]c(=O)[nH]c21

>  <score_type>  (83) 
oracle

>  <origin>  (83) 
adg

>  <m_score__min__energy>  (83) 
-17.550000000000001

>  <m_primary>  (83) 
energy

$$$$
