0:0
     RDKit          3D

 39 41  0  0  0  0  0  0  0  0999 V2000
   57.0440   30.7260   43.6810 C   0  0  0  0  0  0  0  0  0  0  0  0
   58.0600   30.9490   44.7970 C   0  0  0  0  0  0  0  0  0  0  0  0
   58.2010   29.7320   45.6170 N   0  0  0  0  0  0  0  0  0  0  0  0
   57.3010   28.7170   45.4460 C   0  0  0  0  0  0  0  0  0  0  0  0
   57.3680   27.5390   46.2100 C   0  0  0  0  0  0  0  0  0  0  0  0
   56.3720   26.4570   45.9830 C   0  0  0  0  0  0  0  0  0  0  0  0
   55.1380   26.7140   45.9890 O   0  0  0  0  0  0  0  0  0  0  0  0
   56.7760   25.1450   45.7610 O   0  0  0  0  0  0  0  0  0  0  0  0
   58.3840   27.4250   47.1800 C   0  0  0  0  0  0  0  0  0  0  0  0
   58.4790   26.3840   47.8870 O   0  0  0  0  0  0  0  0  0  0  0  0
   59.2930   28.4790   47.3620 C   0  0  0  0  0  0  0  0  0  0  0  0
   60.3130   28.4320   48.3250 C   0  0  0  0  0  0  0  0  0  0  0  0
   61.1640   29.4820   48.4760 N   0  0  0  0  0  0  0  0  0  0  0  0
   61.0510   30.5930   47.6930 C   0  0  0  0  0  0  0  0  0  0  0  0
   61.9430   31.7150   47.8550 N   0  0  0  0  0  0  0  0  0  0  0  0
   62.6980   31.9100   49.1020 C   0  0  0  0  0  0  0  0  0  0  0  0
   64.0930   32.5280   48.8490 C   0  0  0  0  0  0  0  0  0  0  0  0
   64.1990   33.3340   47.6170 N   0  0  0  0  0  0  0  0  0  0  0  0
   62.9110   33.8890   47.1920 C   0  0  0  0  0  0  0  0  0  0  0  0
   61.9500   32.7580   46.8230 C   0  0  0  0  0  0  0  0  0  0  0  0
   60.0630   30.6560   46.7600 N   0  0  0  0  0  0  0  0  0  0  0  0
   59.1840   29.6350   46.5680 C   0  0  0  0  0  0  0  0  0  0  0  0
   56.0588   30.5098   44.1199 H   0  0  0  0  0  0  0  0  0  0  0  0
   56.9778   31.6310   43.0592 H   0  0  0  0  0  0  0  0  0  0  0  0
   57.3629   29.8765   43.0592 H   0  0  0  0  0  0  0  0  0  0  0  0
   59.0346   31.2021   44.3541 H   0  0  0  0  0  0  0  0  0  0  0  0
   57.7099   31.7715   45.4380 H   0  0  0  0  0  0  0  0  0  0  0  0
   56.5062   28.8247   44.6932 H   0  0  0  0  0  0  0  0  0  0  0  0
   60.4246   27.5413   48.9608 H   0  0  0  0  0  0  0  0  0  0  0  0
   61.8850   29.4270   49.2270 H   0  0  0  0  0  0  0  0  0  0  0  0
   62.1272   32.5812   49.7606 H   0  0  0  0  0  0  0  0  0  0  0  0
   62.8445   30.9236   49.5662 H   0  0  0  0  0  0  0  0  0  0  0  0
   64.3407   33.1749   49.7035 H   0  0  0  0  0  0  0  0  0  0  0  0
   64.7880   31.6841   48.7276 H   0  0  0  0  0  0  0  0  0  0  0  0
   64.5710   32.7280   46.8470 H   0  0  0  0  0  0  0  0  0  0  0  0
   62.4799   34.4797   48.0138 H   0  0  0  0  0  0  0  0  0  0  0  0
   63.0672   34.5313   46.3127 H   0  0  0  0  0  0  0  0  0  0  0  0
   60.9346   33.1683   46.7196 H   0  0  0  0  0  0  0  0  0  0  0  0
   62.2837   32.3104   45.8752 H   0  0  0  0  0  0  0  0  0  0  0  0
  1  2  1  0
  2  3  1  0
  3  4  1  0
  4  5  2  0
  5  6  1  0
  6  7  2  0
  6  8  1  0
  5  9  1  0
  9 10  2  0
  9 11  1  0
 11 12  2  0
 12 13  1  0
 13 14  2  0
 14 15  1  0
 15 16  1  0
 16 17  1  0
 17 18  1  0
 18 19  1  0
 19 20  1  0
 14 21  1  0
 21 22  2  0
 22  3  1  0
 22 11  1  0
 20 15  1  0
  1 23  1  0
  1 24  1  0
  1 25  1  0
  2 26  1  0
  2 27  1  0
  4 28  1  0
 12 29  1  0
 13 30  1  0
 16 31  1  0
 16 32  1  0
 17 33  1  0
 17 34  1  0
 18 35  1  0
 19 36  1  0
 19 37  1  0
 20 38  1  0
 20 39  1  0
M  CHG  2   8  -1  13   1
M  END
>  <UniqueID>  (1) 
1

>  <SMILES>  (1) 
CCn1cc(C(=O)[O-])c(=O)c2c[nH+]c(N3CCNCC3)nc21

>  <Energy>  (1) 
52.2623661491953

>  <Genealogy>  (1) 
CCn1cc(C(=O)[O-])c(=O)c2c[nH+]c(N3CCNCC3)nc21 (protonated)
CCn1cc(C(=O)[O-])c(=O)c2c[nH+]c(N3CCNCC3)nc21 (3D coordinates assigned)
CCn1cc(C(=O)[O-])c(=O)c2c[nH+]c(N3CCNCC3)nc21 (nonaromatic ring conformer: 52.2623661491953 kcal/mol)

>  <smiles>  (1) 
CCn1cc(C(=O)O)c(=O)c2cnc(N3CCNCC3)nc21

>  <score_type>  (1) 
oracle

>  <origin>  (1) 
adg

>  <m_score__min__energy>  (1) 
-8.1099999999999994

>  <m_primary>  (1) 
energy

$$$$
1:0
     RDKit          3D

 52 54  0  0  0  0  0  0  0  0999 V2000
   63.6790   33.2330   46.7880 C   0  0  0  0  0  0  0  0  0  0  0  0
   63.5890   32.6890   48.1820 C   0  0  0  0  0  0  0  0  0  0  0  0
   64.5220   33.0790   49.1550 C   0  0  0  0  0  0  0  0  0  0  0  0
   64.4630   32.5420   50.4420 C   0  0  0  0  0  0  0  0  0  0  0  0
   63.4810   31.6030   50.7670 C   0  0  0  0  0  0  0  0  0  0  0  0
   62.5500   31.1910   49.8010 C   0  0  0  0  0  0  0  0  0  0  0  0
   61.5150   30.1550   50.1470 C   0  0  0  0  0  0  0  0  0  0  0  0
   60.2030   30.5720   49.6710 N   0  0  0  0  0  0  0  0  0  0  0  0
   59.6200   30.1090   48.4470 C   0  0  0  0  0  0  0  0  0  0  0  0
   58.4960   29.5400   48.4500 O   0  0  0  0  0  0  0  0  0  0  0  0
   60.3460   30.3180   47.1540 C   0  0  0  0  0  0  0  0  0  0  0  0
   59.5320   31.0980   46.2160 N   0  0  0  0  0  0  0  0  0  0  0  0
   59.5770   32.5360   46.2410 C   0  0  0  0  0  0  0  0  0  0  0  0
   59.0530   33.2840   45.1730 C   0  0  0  0  0  0  0  0  0  0  0  0
   59.0910   34.6810   45.2030 C   0  0  0  0  0  0  0  0  0  0  0  0
   59.6470   35.3420   46.3010 C   0  0  0  0  0  0  0  0  0  0  0  0
   60.1610   34.6080   47.3720 C   0  0  0  0  0  0  0  0  0  0  0  0
   60.1250   33.2110   47.3450 C   0  0  0  0  0  0  0  0  0  0  0  0
   58.4200   30.2720   45.1580 S   0  0  0  0  0  0  0  0  0  0  0  0
   57.0270   30.8010   45.3580 O   0  0  0  0  0  0  0  0  0  0  0  0
   58.8050   30.5140   43.7260 O   0  0  0  0  0  0  0  0  0  0  0  0
   58.4490   28.5430   45.4960 C   0  0  0  0  0  0  0  0  0  0  0  0
   59.6580   27.8370   45.4750 C   0  0  0  0  0  0  0  0  0  0  0  0
   59.6710   26.4640   45.7300 C   0  0  0  0  0  0  0  0  0  0  0  0
   58.4810   25.7870   46.0030 C   0  0  0  0  0  0  0  0  0  0  0  0
   57.2570   26.4800   46.0250 C   0  0  0  0  0  0  0  0  0  0  0  0
   55.9900   25.7670   46.3120 C   0  0  0  0  0  0  0  0  0  0  0  0
   54.7560   26.2350   45.7700 N   0  0  0  0  0  0  0  0  0  0  0  0
   55.9890   24.7370   47.0370 O   0  0  0  0  0  0  0  0  0  0  0  0
   57.2540   27.8640   45.7690 C   0  0  0  0  0  0  0  0  0  0  0  0
   62.6150   31.7310   48.5060 C   0  0  0  0  0  0  0  0  0  0  0  0
   63.8584   34.3175   46.8285 H   0  0  0  0  0  0  0  0  0  0  0  0
   64.5084   32.7437   46.2563 H   0  0  0  0  0  0  0  0  0  0  0  0
   62.7362   33.0369   46.2563 H   0  0  0  0  0  0  0  0  0  0  0  0
   65.3032   33.8110   48.9023 H   0  0  0  0  0  0  0  0  0  0  0  0
   65.1918   32.8591   51.2025 H   0  0  0  0  0  0  0  0  0  0  0  0
   63.4373   31.1851   51.7836 H   0  0  0  0  0  0  0  0  0  0  0  0
   61.7858   29.1995   49.6739 H   0  0  0  0  0  0  0  0  0  0  0  0
   61.4781   30.0374   51.2401 H   0  0  0  0  0  0  0  0  0  0  0  0
   61.2843   30.8573   47.3511 H   0  0  0  0  0  0  0  0  0  0  0  0
   60.5540   29.3354   46.7054 H   0  0  0  0  0  0  0  0  0  0  0  0
   58.6105   32.7673   44.3086 H   0  0  0  0  0  0  0  0  0  0  0  0
   58.6829   35.2602   44.3616 H   0  0  0  0  0  0  0  0  0  0  0  0
   59.6799   36.4413   46.3219 H   0  0  0  0  0  0  0  0  0  0  0  0
   60.5947   35.1298   48.2378 H   0  0  0  0  0  0  0  0  0  0  0  0
   60.5278   32.6369   48.1924 H   0  0  0  0  0  0  0  0  0  0  0  0
   60.5985   28.3644   45.2574 H   0  0  0  0  0  0  0  0  0  0  0  0
   60.6232   25.9135   45.7157 H   0  0  0  0  0  0  0  0  0  0  0  0
   58.5006   24.7053   46.2021 H   0  0  0  0  0  0  0  0  0  0  0  0
   54.0550   26.7200   46.3730 H   0  0  0  0  0  0  0  0  0  0  0  0
   56.3040   28.4183   45.7834 H   0  0  0  0  0  0  0  0  0  0  0  0
   61.8977   31.4010   47.7401 H   0  0  0  0  0  0  0  0  0  0  0  0
  1  2  1  0
  2  3  2  0
  3  4  1  0
  4  5  2  0
  5  6  1  0
  6  7  1  0
  7  8  1  0
  8  9  1  0
  9 10  2  0
  9 11  1  0
 11 12  1  0
 12 13  1  0
 13 14  2  0
 14 15  1  0
 15 16  2  0
 16 17  1  0
 17 18  2  0
 12 19  1  0
 19 20  2  0
 19 21  2  0
 19 22  1  0
 22 23  2  0
 23 24  1  0
 24 25  2  0
 25 26  1  0
 26 27  1  0
 27 28  1  0
 27 29  2  0
 26 30  2  0
  6 31  2  0
 31  2  1  0
 18 13  1  0
 30 22  1  0
  1 32  1  0
  1 33  1  0
  1 34  1  0
  3 35  1  0
  4 36  1  0
  5 37  1  0
  7 38  1  0
  7 39  1  0
 11 40  1  0
 11 41  1  0
 14 42  1  0
 15 43  1  0
 16 44  1  0
 17 45  1  0
 18 46  1  0
 23 47  1  0
 24 48  1  0
 25 49  1  0
 28 50  1  0
 30 51  1  0
 31 52  1  0
M  CHG  2   8  -1  28  -1
M  END
>  <UniqueID>  (2) 
2

>  <SMILES>  (2) 
Cc1cccc(C[N-]C(=O)CN(c2ccccc2)S(=O)(=O)c2cccc(C([NH-])=O)c2)c1

>  <Energy>  (2) 
55.521967600239165

>  <Genealogy>  (2) 
Cc1cccc(C[N-]C(=O)CN(c2ccccc2)S(=O)(=O)c2cccc(C([NH-])=O)c2)c1 (protonated)
Cc1cccc(C[N-]C(=O)CN(c2ccccc2)S(=O)(=O)c2cccc(C([NH-])=O)c2)c1 (3D coordinates assigned)
Cc1cccc(C[N-]C(=O)CN(c2ccccc2)S(=O)(=O)c2cccc(C([NH-])=O)c2)c1 (optimized conformer: 55.521967600239165 kcal/mol)

>  <smiles>  (2) 
Cc1cccc(CNC(=O)CN(c2ccccc2)S(=O)(=O)c2cccc(C(N)=O)c2)c1

>  <score_type>  (2) 
oracle

>  <origin>  (2) 
adg

>  <m_score__min__energy>  (2) 
-13.91

>  <m_primary>  (2) 
energy

$$$$
2:0
     RDKit          3D

 66 70  0  0  0  0  0  0  0  0999 V2000
   66.0511   33.9261   50.4217 H   0  0  0  0  0  0  0  0  0  0  0  0
   65.3860   33.1250   50.0670 C   0  0  0  0  0  0  0  0  0  0  0  0
   64.4710   33.4540   49.1420 C   0  0  0  0  0  0  0  0  0  0  0  0
   64.8390   33.7036   48.1359 H   0  0  0  0  0  0  0  0  0  0  0  0
   63.0140   33.5090   49.3610 C   0  0  0  0  0  0  0  0  0  0  0  0
   62.4560   33.8020   50.5600 N   0  0  0  0  0  0  0  0  0  0  0  0
   61.1330   33.8430   50.4300 N   0  0  0  0  0  0  0  0  0  0  0  0
   60.8520   33.5900   49.1400 C   0  0  0  0  0  0  0  0  0  0  0  0
   59.5980   33.5710   48.5360 C   0  0  0  0  0  0  0  0  0  0  0  0
   58.6842   33.7486   49.1221 H   0  0  0  0  0  0  0  0  0  0  0  0
   59.5340   33.3170   47.1490 C   0  0  0  0  0  0  0  0  0  0  0  0
   58.2580   33.3030   46.4910 N   0  0  0  0  0  0  0  0  0  0  0  0
   57.4910   33.8990   46.8790 H   0  0  0  0  0  0  0  0  0  0  0  0
   57.9810   32.5050   45.3300 C   0  0  0  0  0  0  0  0  0  0  0  0
   57.8310   33.1210   44.0810 C   0  0  0  0  0  0  0  0  0  0  0  0
   57.9409   34.2118   43.9905 H   0  0  0  0  0  0  0  0  0  0  0  0
   57.5420   32.3530   42.9490 C   0  0  0  0  0  0  0  0  0  0  0  0
   57.4363   32.8395   41.9681 H   0  0  0  0  0  0  0  0  0  0  0  0
   57.3870   30.9680   43.0610 C   0  0  0  0  0  0  0  0  0  0  0  0
   57.1541   30.3712   42.1668 H   0  0  0  0  0  0  0  0  0  0  0  0
   57.5260   30.3330   44.3040 C   0  0  0  0  0  0  0  0  0  0  0  0
   57.3020   28.9130   44.3990 N   0  0  0  0  0  0  0  0  0  0  0  0
   56.3410   28.5650   44.1860 H   0  0  0  0  0  0  0  0  0  0  0  0
   58.2990   27.9600   44.8090 C   0  0  0  0  0  0  0  0  0  0  0  0
   59.5220   28.2670   44.7830 O   0  0  0  0  0  0  0  0  0  0  0  0
   57.9080   26.6080   45.2570 C   0  0  0  0  0  0  0  0  0  0  0  0
   58.8700   25.5960   45.3290 C   0  0  0  0  0  0  0  0  0  0  0  0
   59.9081   25.8144   45.0382 H   0  0  0  0  0  0  0  0  0  0  0  0
   58.5310   24.3010   45.7680 C   0  0  0  0  0  0  0  0  0  0  0  0
   59.5040   23.2920   45.8520 O   0  0  0  0  0  0  0  0  0  0  0  0
   59.7320   22.2910   44.8660 C   0  0  0  0  0  0  0  0  0  0  0  0
   59.9503   21.3327   45.3600 H   0  0  0  0  0  0  0  0  0  0  0  0
   58.8352   22.1839   44.2380 H   0  0  0  0  0  0  0  0  0  0  0  0
   60.5867   22.5828   44.2380 H   0  0  0  0  0  0  0  0  0  0  0  0
   57.1860   24.0230   46.1270 C   0  0  0  0  0  0  0  0  0  0  0  0
   56.7460   22.7690   46.5950 O   0  0  0  0  0  0  0  0  0  0  0  0
   56.5990   21.5790   45.8260 C   0  0  0  0  0  0  0  0  0  0  0  0
   56.4925   20.7170   46.5010 H   0  0  0  0  0  0  0  0  0  0  0  0
   55.7041   21.6606   45.1916 H   0  0  0  0  0  0  0  0  0  0  0  0
   57.4868   21.4404   45.1916 H   0  0  0  0  0  0  0  0  0  0  0  0
   56.2170   25.0360   46.0310 C   0  0  0  0  0  0  0  0  0  0  0  0
   54.8910   24.7190   46.3700 O   0  0  0  0  0  0  0  0  0  0  0  0
   53.9600   24.0860   45.5000 C   0  0  0  0  0  0  0  0  0  0  0  0
   53.1957   23.5663   46.0964 H   0  0  0  0  0  0  0  0  0  0  0  0
   53.4773   24.8439   44.8655 H   0  0  0  0  0  0  0  0  0  0  0  0
   54.4873   23.3584   44.8655 H   0  0  0  0  0  0  0  0  0  0  0  0
   56.5840   26.3240   45.6030 C   0  0  0  0  0  0  0  0  0  0  0  0
   55.8224   27.1151   45.5399 H   0  0  0  0  0  0  0  0  0  0  0  0
   57.8010   31.1150   45.4420 C   0  0  0  0  0  0  0  0  0  0  0  0
   57.8758   30.6339   46.4284 H   0  0  0  0  0  0  0  0  0  0  0  0
   60.7360   33.1370   46.4100 C   0  0  0  0  0  0  0  0  0  0  0  0
   60.6864   32.9591   45.3256 H   0  0  0  0  0  0  0  0  0  0  0  0
   61.9880   33.1840   47.0510 C   0  0  0  0  0  0  0  0  0  0  0  0
   62.9230   33.0655   46.4839 H   0  0  0  0  0  0  0  0  0  0  0  0
   62.0010   33.3860   48.4300 C   0  0  0  0  0  0  0  0  0  0  0  0
   65.5790   31.7790   50.6520 C   0  0  0  0  0  0  0  0  0  0  0  0
   66.8880   31.2970   50.8280 C   0  0  0  0  0  0  0  0  0  0  0  0
   67.7438   31.9075   50.5041 H   0  0  0  0  0  0  0  0  0  0  0  0
   67.1080   30.0470   51.4120 C   0  0  0  0  0  0  0  0  0  0  0  0
   68.1344   29.6699   51.5311 H   0  0  0  0  0  0  0  0  0  0  0  0
   66.0270   29.2750   51.8450 C   0  0  0  0  0  0  0  0  0  0  0  0
   66.2031   28.2928   52.3078 H   0  0  0  0  0  0  0  0  0  0  0  0
   64.7210   29.7510   51.6900 C   0  0  0  0  0  0  0  0  0  0  0  0
   63.8700   29.1392   52.0238 H   0  0  0  0  0  0  0  0  0  0  0  0
   64.4960   31.0040   51.1110 C   0  0  0  0  0  0  0  0  0  0  0  0
   63.4690   31.3859   51.0136 H   0  0  0  0  0  0  0  0  0  0  0  0
  1  2  1  0
  2  3  2  0
  3  4  1  0
  3  5  1  0
  5  6  1  0
  6  7  1  0
  7  8  2  0
  8  9  1  0
  9 10  1  0
  9 11  2  0
 11 12  1  0
 12 13  1  0
 12 14  1  0
 14 15  2  0
 15 16  1  0
 15 17  1  0
 17 18  1  0
 17 19  2  0
 19 20  1  0
 19 21  1  0
 21 22  1  0
 22 23  1  0
 22 24  1  0
 24 25  2  0
 24 26  1  0
 26 27  2  0
 27 28  1  0
 27 29  1  0
 29 30  1  0
 30 31  1  0
 31 32  1  0
 31 33  1  0
 31 34  1  0
 29 35  2  0
 35 36  1  0
 36 37  1  0
 37 38  1  0
 37 39  1  0
 37 40  1  0
 35 41  1  0
 41 42  1  0
 42 43  1  0
 43 44  1  0
 43 45  1  0
 43 46  1  0
 41 47  2  0
 47 48  1  0
 21 49  2  0
 49 50  1  0
 11 51  1  0
 51 52  1  0
 51 53  2  0
 53 54  1  0
 53 55  1  0
  2 56  1  0
 56 57  2  0
 57 58  1  0
 57 59  1  0
 59 60  1  0
 59 61  2  0
 61 62  1  0
 61 63  1  0
 63 64  1  0
 63 65  2  0
 65 66  1  0
 55  5  2  0
 65 56  1  0
 55  8  1  0
 49 14  1  0
 47 26  1  0
M  CHG  1   6  -1
M  END
>  <UniqueID>  (3) 
3

>  <SMILES>  (3) 
COc1cc(C(=O)Nc2cccc(Nc3ccc4c(/C=C\c5ccccc5)[n-]nc4c3)c2)cc(OC)c1OC

>  <Energy>  (3) 
130.95792651302693

>  <Genealogy>  (3) 
COc1cc(C(=O)Nc2cccc(Nc3ccc4c(C=Cc5ccccc5)[n-]nc4c3)c2)cc(OC)c1OC (protonated)
COc1cc(C(=O)Nc2cccc(Nc3ccc4c(/C=C\c5ccccc5)[n-]nc4c3)c2)cc(OC)c1OC (cis-trans isomerization)
COc1cc(C(=O)Nc2cccc(Nc3ccc4c(/C=C\c5ccccc5)[n-]nc4c3)c2)cc(OC)c1OC (3D coordinates assigned)
COc1cc(C(=O)Nc2cccc(Nc3ccc4c(/C=C\c5ccccc5)[n-]nc4c3)c2)cc(OC)c1OC (optimized conformer: 130.95792651302693 kcal/mol)

>  <smiles>  (3) 
COc1cc(C(=O)Nc2cccc(Nc3ccc4c(C=Cc5ccccc5)[nH]nc4c3)c2)cc(OC)c1OC

>  <score_type>  (3) 
oracle

>  <origin>  (3) 
adg

>  <m_score__min__energy>  (3) 
-11.25

>  <m_primary>  (3) 
energy

$$$$
3:0
     RDKit          3D

 58 61  0  0  0  0  0  0  0  0999 V2000
   55.3890   30.1440   43.9620 N   0  0  0  0  0  0  0  0  0  0  0  0
   56.3000   29.6090   44.4320 C   0  0  0  0  0  0  0  0  0  0  0  0
   57.4350   28.9430   45.0170 C   0  0  0  0  0  0  0  0  0  0  0  0
   58.0890   27.9260   44.3120 C   0  0  0  0  0  0  0  0  0  0  0  0
   59.1870   27.2760   44.8800 C   0  0  0  0  0  0  0  0  0  0  0  0
   59.6360   27.6380   46.1530 C   0  0  0  0  0  0  0  0  0  0  0  0
   58.9900   28.6600   46.8740 C   0  0  0  0  0  0  0  0  0  0  0  0
   59.4660   29.0470   48.2260 C   0  0  0  0  0  0  0  0  0  0  0  0
   59.2140   30.3360   48.7270 C   0  0  0  0  0  0  0  0  0  0  0  0
   59.6530   30.7030   50.0070 C   0  0  0  0  0  0  0  0  0  0  0  0
   59.3200   32.0590   50.5580 C   0  0  0  0  0  0  0  0  0  0  0  0
   59.8660   33.0380   49.7020 O   0  0  0  0  0  0  0  0  0  0  0  0
   58.8980   33.4390   48.7520 C   0  0  0  0  0  0  0  0  0  0  0  0
   59.5500   33.5100   47.3420 C   0  0  0  0  0  0  0  0  0  0  0  0
   61.0450   33.1250   47.4600 C   0  0  0  0  0  0  0  0  0  0  0  0
   61.9630   34.0740   47.9710 C   0  0  0  0  0  0  0  0  0  0  0  0
   63.3210   33.7710   48.0990 C   0  0  0  0  0  0  0  0  0  0  0  0
   63.7960   32.5120   47.7390 C   0  0  0  0  0  0  0  0  0  0  0  0
   62.9090   31.5470   47.2640 C   0  0  0  0  0  0  0  0  0  0  0  0
   61.5480   31.8410   47.1330 C   0  0  0  0  0  0  0  0  0  0  0  0
   58.8600   32.4780   46.3890 C   0  0  0  0  0  0  0  0  0  0  0  0
   57.6970   33.0940   45.5970 C   0  0  0  0  0  0  0  0  0  0  0  0
   58.1370   34.2050   44.7300 N   0  0  0  0  0  0  0  0  0  0  0  0
   59.2730   34.9840   45.2640 C   0  0  0  0  0  0  0  0  0  0  0  0
   59.3110   34.9620   46.7980 C   0  0  0  0  0  0  0  0  0  0  0  0
   60.3290   29.7670   50.8030 C   0  0  0  0  0  0  0  0  0  0  0  0
   60.6170   28.4840   50.3080 C   0  0  0  0  0  0  0  0  0  0  0  0
   61.3050   27.4670   51.1840 C   0  0  0  0  0  0  0  0  0  0  0  0
   61.5100   26.2850   50.4930 F   0  0  0  0  0  0  0  0  0  0  0  0
   62.5350   27.9380   51.6080 F   0  0  0  0  0  0  0  0  0  0  0  0
   60.5150   27.2110   52.2900 F   0  0  0  0  0  0  0  0  0  0  0  0
   60.1630   28.1260   49.0270 C   0  0  0  0  0  0  0  0  0  0  0  0
   57.8830   29.3090   46.2930 C   0  0  0  0  0  0  0  0  0  0  0  0
   57.7380   27.6385   43.3099 H   0  0  0  0  0  0  0  0  0  0  0  0
   59.6996   26.4772   44.3240 H   0  0  0  0  0  0  0  0  0  0  0  0
   60.5004   27.1206   46.5947 H   0  0  0  0  0  0  0  0  0  0  0  0
   58.6673   31.0635   48.1091 H   0  0  0  0  0  0  0  0  0  0  0  0
   58.2279   32.1799   50.6106 H   0  0  0  0  0  0  0  0  0  0  0  0
   59.7391   32.1675   51.5692 H   0  0  0  0  0  0  0  0  0  0  0  0
   58.0744   32.7100   48.7383 H   0  0  0  0  0  0  0  0  0  0  0  0
   58.5072   34.4305   49.0244 H   0  0  0  0  0  0  0  0  0  0  0  0
   61.6006   35.0678   48.2727 H   0  0  0  0  0  0  0  0  0  0  0  0
   64.0176   34.5295   48.4855 H   0  0  0  0  0  0  0  0  0  0  0  0
   64.8675   32.2799   47.8292 H   0  0  0  0  0  0  0  0  0  0  0  0
   63.2817   30.5488   46.9907 H   0  0  0  0  0  0  0  0  0  0  0  0
   60.8580   31.0645   46.7710 H   0  0  0  0  0  0  0  0  0  0  0  0
   59.6090   32.0988   45.6782 H   0  0  0  0  0  0  0  0  0  0  0  0
   58.4487   31.6706   47.0127 H   0  0  0  0  0  0  0  0  0  0  0  0
   57.2437   32.3130   44.9688 H   0  0  0  0  0  0  0  0  0  0  0  0
   56.9732   33.4975   46.3204 H   0  0  0  0  0  0  0  0  0  0  0  0
   58.4200   33.8120   43.8020 H   0  0  0  0  0  0  0  0  0  0  0  0
   60.2102   34.5558   44.8788 H   0  0  0  0  0  0  0  0  0  0  0  0
   59.1521   36.0285   44.9409 H   0  0  0  0  0  0  0  0  0  0  0  0
   60.1264   35.6135   47.1455 H   0  0  0  0  0  0  0  0  0  0  0  0
   58.3407   35.3182   47.1743 H   0  0  0  0  0  0  0  0  0  0  0  0
   60.6363   30.0396   51.8234 H   0  0  0  0  0  0  0  0  0  0  0  0
   60.3556   27.1121   48.6464 H   0  0  0  0  0  0  0  0  0  0  0  0
   57.3669   30.1085   46.8448 H   0  0  0  0  0  0  0  0  0  0  0  0
  1  2  3  0
  2  3  1  0
  3  4  2  0
  4  5  1  0
  5  6  2  0
  6  7  1  0
  7  8  1  0
  8  9  2  0
  9 10  1  0
 10 11  1  0
 11 12  1  0
 12 13  1  0
 13 14  1  0
 14 15  1  0
 15 16  2  0
 16 17  1  0
 17 18  2  0
 18 19  1  0
 19 20  2  0
 14 21  1  0
 21 22  1  0
 22 23  1  0
 23 24  1  0
 24 25  1  0
 10 26  2  0
 26 27  1  0
 27 28  1  0
 28 29  1  0
 28 30  1  0
 28 31  1  0
 27 32  2  0
  7 33  2  0
 33  3  1  0
 32  8  1  0
 25 14  1  0
 20 15  1  0
  4 34  1  0
  5 35  1  0
  6 36  1  0
  9 37  1  0
 11 38  1  0
 11 39  1  0
 13 40  1  0
 13 41  1  0
 16 42  1  0
 17 43  1  0
 18 44  1  0
 19 45  1  0
 20 46  1  0
 21 47  1  0
 21 48  1  0
 22 49  1  0
 22 50  1  0
 23 51  1  0
 24 52  1  0
 24 53  1  0
 25 54  1  0
 25 55  1  0
 26 56  1  0
 32 57  1  0
 33 58  1  0
M  END
>  <UniqueID>  (4) 
4

>  <SMILES>  (4) 
N#Cc1cccc(-c2cc(COCC3(c4ccccc4)CCNCC3)cc(C(F)(F)F)c2)c1

>  <Energy>  (4) 
80.8281662513382

>  <Genealogy>  (4) 
N#Cc1cccc(-c2cc(COCC3(c4ccccc4)CCNCC3)cc(C(F)(F)F)c2)c1 (3D coordinates assigned)
N#Cc1cccc(-c2cc(COCC3(c4ccccc4)CCNCC3)cc(C(F)(F)F)c2)c1 (nonaromatic ring conformer: 80.8281662513382 kcal/mol)

>  <smiles>  (4) 
N#Cc1cccc(-c2cc(COCC3(c4ccccc4)CCNCC3)cc(C(F)(F)F)c2)c1

>  <score_type>  (4) 
oracle

>  <origin>  (4) 
adg

>  <m_score__min__energy>  (4) 
-9.1799999999999997

>  <m_primary>  (4) 
energy

$$$$
4:0
     RDKit          3D

 26 27  0  0  0  0  0  0  0  0999 V2000
   55.1360   29.3230   44.8570 N   0  0  0  0  0  0  0  0  0  0  0  0
   56.6170   30.0650   44.3690 S   0  0  0  0  0  0  0  0  0  0  0  0
   56.6570   31.4830   44.8660 O   0  0  0  0  0  0  0  0  0  0  0  0
   56.6980   30.0780   42.8680 O   0  0  0  0  0  0  0  0  0  0  0  0
   57.9750   29.1620   45.0340 C   0  0  0  0  0  0  0  0  0  0  0  0
   59.2730   29.6850   44.9630 C   0  0  0  0  0  0  0  0  0  0  0  0
   60.3480   28.9670   45.4930 C   0  0  0  0  0  0  0  0  0  0  0  0
   60.1340   27.7170   46.0820 C   0  0  0  0  0  0  0  0  0  0  0  0
   58.8430   27.1650   46.1170 C   0  0  0  0  0  0  0  0  0  0  0  0
   58.5930   25.9050   46.7570 N   0  0  0  0  0  0  0  0  0  0  0  0
   57.4380   25.4270   47.1240 C   0  0  0  0  0  0  0  0  0  0  0  0
   56.4900   24.7580   46.2110 C   0  0  0  0  0  0  0  0  0  0  0  0
   56.6450   23.5580   45.6960 O   0  0  0  0  0  0  0  0  0  0  0  0
   55.6170   23.3130   44.9120 C   0  0  0  0  0  0  0  0  0  0  0  0
   55.4500   22.1300   44.2060 O   0  0  0  0  0  0  0  0  0  0  0  0
   54.7420   24.3800   44.8890 C   0  0  0  0  0  0  0  0  0  0  0  0
   55.3200   25.3060   45.7270 C   0  0  0  0  0  0  0  0  0  0  0  0
   54.8120   26.5630   46.0270 O   0  0  0  0  0  0  0  0  0  0  0  0
   57.7630   27.9050   45.6170 C   0  0  0  0  0  0  0  0  0  0  0  0
   55.3660   28.6670   45.6370 H   0  0  0  0  0  0  0  0  0  0  0  0
   59.4459   30.6625   44.4892 H   0  0  0  0  0  0  0  0  0  0  0  0
   61.3642   29.3857   45.4469 H   0  0  0  0  0  0  0  0  0  0  0  0
   60.9789   27.1646   46.5190 H   0  0  0  0  0  0  0  0  0  0  0  0
   57.1509   25.5282   48.1810 H   0  0  0  0  0  0  0  0  0  0  0  0
   53.7992   24.4697   44.3294 H   0  0  0  0  0  0  0  0  0  0  0  0
   56.7435   27.4972   45.6824 H   0  0  0  0  0  0  0  0  0  0  0  0
  1  2  1  0
  2  3  2  0
  2  4  2  0
  2  5  1  0
  5  6  2  0
  6  7  1  0
  7  8  2  0
  8  9  1  0
  9 10  1  0
 10 11  2  3
 11 12  1  0
 12 13  1  0
 13 14  1  0
 14 15  1  0
 14 16  2  0
 16 17  1  0
 17 18  1  0
  9 19  2  0
 19  5  1  0
 17 12  2  0
  1 20  1  0
  6 21  1  0
  7 22  1  0
  8 23  1  0
 11 24  1  0
 16 25  1  0
 19 26  1  0
M  CHG  3   1  -1  15  -1  18  -1
M  END
>  <UniqueID>  (5) 
5

>  <SMILES>  (5) 
[NH-]S(=O)(=O)c1cccc(N=Cc2oc([O-])cc2[O-])c1

>  <Energy>  (5) 
63.4412739294682

>  <Genealogy>  (5) 
[NH-]S(=O)(=O)c1cccc(N=Cc2oc([O-])cc2[O-])c1 (protonated)
[NH-]S(=O)(=O)c1cccc(N=Cc2oc([O-])cc2[O-])c1 (3D coordinates assigned)
[NH-]S(=O)(=O)c1cccc(N=Cc2oc([O-])cc2[O-])c1 (optimized conformer: 63.4412739294682 kcal/mol)

>  <smiles>  (5) 
NS(=O)(=O)c1cccc(N=Cc2oc(O)cc2O)c1

>  <score_type>  (5) 
oracle

>  <origin>  (5) 
adg

>  <m_score__min__energy>  (5) 
-15.32

>  <m_primary>  (5) 
energy

$$$$
5:0
     RDKit          3D

 68 73  0  0  1  0  0  0  0  0999 V2000
   54.4770   24.0310   45.3530 O   0  0  0  0  0  0  0  0  0  0  0  0
   55.2680   24.9490   45.6310 C   0  0  0  0  0  0  0  0  0  0  0  0
   54.7740   26.2280   45.9150 O   0  0  0  0  0  0  0  0  0  0  0  0
   56.7260   24.7380   45.6690 C   0  0  0  0  0  0  0  0  0  0  0  0
   57.3160   23.5530   45.8870 N   0  0  0  0  0  0  0  0  0  0  0  0
   58.6380   23.7170   45.8470 N   0  0  0  0  0  0  0  0  0  0  0  0
   58.9370   25.0080   45.6050 C   0  0  0  0  0  0  0  0  0  0  0  0
   57.7270   25.6650   45.4910 C   0  0  0  0  0  0  0  0  0  0  0  0
   57.4550   27.0760   45.2440 C   0  0  0  0  0  0  0  0  0  0  0  0
   57.9320   28.0130   46.0370 C   0  0  0  0  0  0  0  0  0  0  0  0
   58.4130   27.9150   47.3520 N   0  0  0  0  0  0  0  0  0  0  0  0
   58.8050   29.0820   47.7830 C   0  0  0  0  0  0  0  0  0  0  0  0
   56.6560   31.5460   51.9890 N   0  0  0  0  0  0  0  0  0  0  0  0
   57.6580   31.5640   51.2280 C   0  0  0  0  0  0  0  0  0  0  0  0
   59.7920   31.5600   49.6030 N   0  0  0  0  0  0  0  0  0  0  0  0
   59.5190   32.6970   50.2830 C   0  0  0  0  0  0  0  0  0  0  0  0
   60.4300   33.8360   50.0720 C   0  0  0  0  0  0  0  0  0  0  0  0
   61.4100   33.6280   49.0790 N   0  0  0  0  0  0  0  0  0  0  0  0
   62.7700   33.6090   49.4530 C   0  0  0  0  0  0  0  0  0  0  0  0
   63.7310   33.4760   48.3090 C   0  0  0  0  0  0  0  0  0  0  0  0
   63.3230   34.1330   47.1540 O   0  0  0  0  0  0  0  0  0  0  0  0
   62.1180   33.5370   46.7510 C   0  0  0  0  0  0  0  0  0  0  0  0
   61.0790   34.0260   47.7610 C   0  0  0  0  0  0  0  0  0  0  0  0
   58.4340   32.6930   51.1060 C   0  0  0  0  0  0  0  0  0  0  0  0
   59.0300   30.4560   49.7230 C   0  0  0  0  0  0  0  0  0  0  0  0
   59.3520   29.4140   49.0490 N   0  0  0  0  0  0  0  0  0  0  0  0
   56.1270   30.4210   52.6570 C   0  0  0  0  0  0  0  0  0  0  0  0
   54.6550   30.2600   52.3780 C   0  0  0  0  0  0  0  0  0  0  0  0
   53.9710   31.1430   51.5570 C   0  0  0  0  0  0  0  0  0  0  0  0
   52.6060   30.9620   51.3240 C   0  0  0  0  0  0  0  0  0  0  0  0
   51.9110   29.9200   51.8940 C   0  0  0  0  0  0  0  0  0  0  0  0
   52.5820   29.0350   52.7140 C   0  0  0  0  0  0  0  0  0  0  0  0
   53.9370   29.2230   52.9370 C   0  0  0  0  0  0  0  0  0  0  0  0
   54.7890   28.0790   53.9890 Cl  0  0  0  0  0  0  0  0  0  0  0  0
   57.9570   30.4400   50.5330 N   0  0  0  0  0  0  0  0  0  0  0  0
   58.5970   30.0750   46.7310 C   0  0  0  0  0  0  0  0  0  0  0  0
   58.8160   31.4330   46.6110 C   0  0  0  0  0  0  0  0  0  0  0  0
   58.5040   32.1150   45.4480 C   0  0  0  0  0  0  0  0  0  0  0  0
   57.9610   31.4620   44.3530 C   0  0  0  0  0  0  0  0  0  0  0  0
   57.7490   30.1010   44.4910 C   0  0  0  0  0  0  0  0  0  0  0  0
   58.0560   29.4210   45.6480 C   0  0  0  0  0  0  0  0  0  0  0  0
   53.9790   26.3380   46.5640 H   0  0  0  0  0  0  0  0  0  0  0  0
   59.3160   22.9120   45.9930 H   0  0  0  0  0  0  0  0  0  0  0  0
   59.9406   25.4494   45.5162 H   0  0  0  0  0  0  0  0  0  0  0  0
   56.8396   27.3634   44.3787 H   0  0  0  0  0  0  0  0  0  0  0  0
   60.6120   31.5060   48.9560 H   0  0  0  0  0  0  0  0  0  0  0  0
   59.8267   34.7086   49.7812 H   0  0  0  0  0  0  0  0  0  0  0  0
   60.9713   33.9818   51.0185 H   0  0  0  0  0  0  0  0  0  0  0  0
   62.9936   34.5475   49.9814 H   0  0  0  0  0  0  0  0  0  0  0  0
   62.9079   32.7165   50.0810 H   0  0  0  0  0  0  0  0  0  0  0  0
   64.7005   33.8919   48.6204 H   0  0  0  0  0  0  0  0  0  0  0  0
   63.7912   32.4053   48.0641 H   0  0  0  0  0  0  0  0  0  0  0  0
   61.8492   33.8574   45.7336 H   0  0  0  0  0  0  0  0  0  0  0  0
   62.1870   32.4394   46.7270 H   0  0  0  0  0  0  0  0  0  0  0  0
   61.0304   35.1242   47.7207 H   0  0  0  0  0  0  0  0  0  0  0  0
   60.1073   33.5815   47.4997 H   0  0  0  0  0  0  0  0  0  0  0  0
   58.1768   33.5977   51.6764 H   0  0  0  0  0  0  0  0  0  0  0  0
   56.6570   29.5196   52.3155 H   0  0  0  0  0  0  0  0  0  0  0  0
   56.2613   30.5652   53.7392 H   0  0  0  0  0  0  0  0  0  0  0  0
   54.5026   31.9850   51.0897 H   0  0  0  0  0  0  0  0  0  0  0  0
   52.0742   31.6686   50.6698 H   0  0  0  0  0  0  0  0  0  0  0  0
   50.8358   29.7940   51.6990 H   0  0  0  0  0  0  0  0  0  0  0  0
   52.0498   28.1942   53.1828 H   0  0  0  0  0  0  0  0  0  0  0  0
   57.4050   29.5670   50.5890 H   0  0  0  0  0  0  0  0  0  0  0  0
   59.2481   31.9850   47.4587 H   0  0  0  0  0  0  0  0  0  0  0  0
   58.6908   33.1975   45.3916 H   0  0  0  0  0  0  0  0  0  0  0  0
   57.7119   31.9963   43.4243 H   0  0  0  0  0  0  0  0  0  0  0  0
   57.3198   29.5428   43.6459 H   0  0  0  0  0  0  0  0  0  0  0  0
  1  2  2  0
  2  3  1  0
  2  4  1  0
  4  5  2  0
  5  6  1  0
  6  7  1  0
  7  8  2  0
  8  9  1  0
  9 10  2  0
 10 11  1  0
 11 12  2  0
 12 13  1  0
 13 14  2  0
 14 15  1  0
 15 16  1  0
 16 17  1  0
 17 18  1  0
 18 19  1  0
 19 20  1  0
 20 21  1  0
 21 22  1  0
 22 23  1  0
 16 24  2  0
 24 25  1  0
 25 26  2  0
 26 27  1  0
 27 28  1  0
 28 29  2  0
 29 30  1  0
 30 31  2  0
 31 32  1  0
 32 33  2  0
 33 34  1  0
 25 35  1  0
 12 36  1  0
 36 37  2  0
 37 38  1  0
 38 39  2  0
 39 40  1  0
 40 41  2  0
  8  4  1  0
 41 10  1  0
 35 14  1  0
 41 36  1  0
 23 18  1  0
 33 28  1  0
  3 42  1  0
  6 43  1  0
  7 44  1  0
  9 45  1  0
 15 46  1  0
 17 47  1  0
 17 48  1  0
 19 49  1  0
 19 50  1  0
 20 51  1  0
 20 52  1  0
 22 53  1  0
 22 54  1  0
 23 55  1  0
 23 56  1  0
 24 57  1  0
 27 58  1  0
 27 59  1  0
 29 60  1  0
 30 61  1  0
 31 62  1  0
 32 63  1  0
 35 64  1  0
 37 65  1  0
 38 66  1  0
 39 67  1  0
 40 68  1  0
M  END
>  <smiles>  (6) 
O=C(O)c1n[nH]cc1C=C1N=C(N=c2[nH]c(CN3CCOCC3)cc(=NCc3ccccc3Cl)[nH]2)c2ccccc21

>  <score_type>  (6) 
oracle

>  <origin>  (6) 
adg

>  <m_score__min__energy>  (6) 
-11.49

>  <m_primary>  (6) 
energy

$$$$
6:0
     RDKit          3D

 55 58  0  0  0  0  0  0  0  0999 V2000
   57.4215   32.3909   42.6400 H   0  0  0  0  0  0  0  0  0  0  0  0
   57.2710   31.6140   43.4040 C   0  0  0  0  0  0  0  0  0  0  0  0
   56.6190   30.0870   43.1410 S   0  0  0  0  0  0  0  0  0  0  0  0
   56.7530   29.6370   44.7600 C   0  0  0  0  0  0  0  0  0  0  0  0
   56.4280   28.4850   45.2680 N   0  0  0  0  0  0  0  0  0  0  0  0
   57.2120   27.2850   45.2160 C   0  0  0  0  0  0  0  0  0  0  0  0
   57.3950   26.7230   44.1040 O   0  0  0  0  0  0  0  0  0  0  0  0
   57.9640   26.7920   46.4260 C   0  0  1  0  0  0  0  0  0  0  0  0
   57.6506   27.4109   47.2797 H   0  0  0  0  0  0  0  0  0  0  0  0
   57.5820   25.0410   46.7350 S   0  0  0  0  0  0  0  0  0  0  0  0
   59.1710   24.5440   46.0160 C   0  0  0  0  0  0  0  0  0  0  0  0
   59.0596   24.3804   44.9340 H   0  0  0  0  0  0  0  0  0  0  0  0
   59.5264   23.6064   46.4683 H   0  0  0  0  0  0  0  0  0  0  0  0
   60.1550   25.6700   46.2720 C   0  0  0  0  0  0  0  0  0  0  0  0
   60.9306   25.6764   45.4920 H   0  0  0  0  0  0  0  0  0  0  0  0
   60.6504   25.5397   47.2454 H   0  0  0  0  0  0  0  0  0  0  0  0
   59.4070   26.9150   46.2390 N   0  0  0  0  0  0  0  0  0  0  0  0
   60.0360   28.1870   45.9960 C   0  0  0  0  0  0  0  0  0  0  0  0
   60.6380   28.3770   44.9060 O   0  0  0  0  0  0  0  0  0  0  0  0
   59.9550   29.3260   46.9850 C   0  0  2  0  0  0  0  0  0  0  0  0
   60.5823   29.0644   47.8499 H   0  0  0  0  0  0  0  0  0  0  0  0
   58.5760   29.5010   47.4530 N   0  0  0  0  0  0  0  0  0  0  0  0
   57.9100   29.0210   46.8060 H   0  0  0  0  0  0  0  0  0  0  0  0
   58.3390   30.5190   47.3980 H   0  0  0  0  0  0  0  0  0  0  0  0
   60.5300   30.6410   46.4050 C   0  0  0  0  0  0  0  0  0  0  0  0
   59.7519   31.1219   45.7941 H   0  0  0  0  0  0  0  0  0  0  0  0
   61.4179   30.3733   45.8134 H   0  0  0  0  0  0  0  0  0  0  0  0
   60.9810   31.6230   47.4680 C   0  0  0  0  0  0  0  0  0  0  0  0
   62.0940   32.4480   47.2350 C   0  0  0  0  0  0  0  0  0  0  0  0
   62.6344   32.3794   46.2794 H   0  0  0  0  0  0  0  0  0  0  0  0
   62.5190   33.3550   48.2090 C   0  0  0  0  0  0  0  0  0  0  0  0
   63.3952   33.9924   48.0194 H   0  0  0  0  0  0  0  0  0  0  0  0
   61.8360   33.4550   49.4210 C   0  0  0  0  0  0  0  0  0  0  0  0
   62.1885   34.1578   50.1903 H   0  0  0  0  0  0  0  0  0  0  0  0
   60.7050   32.6670   49.6650 C   0  0  0  0  0  0  0  0  0  0  0  0
   60.0510   32.8060   50.8990 O   0  0  0  0  0  0  0  0  0  0  0  0
   58.6990   32.4270   51.1380 C   0  0  0  0  0  0  0  0  0  0  0  0
   58.5185   32.3764   52.2219 H   0  0  0  0  0  0  0  0  0  0  0  0
   58.0247   33.1708   50.6883 H   0  0  0  0  0  0  0  0  0  0  0  0
   58.5096   31.4411   50.6883 H   0  0  0  0  0  0  0  0  0  0  0  0
   60.2680   31.7630   48.6740 C   0  0  0  0  0  0  0  0  0  0  0  0
   59.3625   31.1624   48.8450 H   0  0  0  0  0  0  0  0  0  0  0  0
   57.3040   30.6180   45.5050 N   0  0  0  0  0  0  0  0  0  0  0  0
   57.5900   31.7270   44.7650 C   0  0  0  0  0  0  0  0  0  0  0  0
   58.1770   32.9410   45.3870 C   0  0  0  0  0  0  0  0  0  0  0  0
   58.0300   33.1590   46.7700 C   0  0  0  0  0  0  0  0  0  0  0  0
   57.4748   32.4321   47.3810 H   0  0  0  0  0  0  0  0  0  0  0  0
   58.5840   34.2920   47.3730 C   0  0  0  0  0  0  0  0  0  0  0  0
   58.4601   34.4542   48.4539 H   0  0  0  0  0  0  0  0  0  0  0  0
   59.2940   35.2180   46.6070 C   0  0  0  0  0  0  0  0  0  0  0  0
   59.7304   36.1078   47.0843 H   0  0  0  0  0  0  0  0  0  0  0  0
   59.4500   35.0140   45.2340 C   0  0  0  0  0  0  0  0  0  0  0  0
   60.0093   35.7442   44.6307 H   0  0  0  0  0  0  0  0  0  0  0  0
   58.8970   33.8840   44.6250 C   0  0  0  0  0  0  0  0  0  0  0  0
   59.0244   33.7292   43.5434 H   0  0  0  0  0  0  0  0  0  0  0  0
  1  2  1  0
  2  3  1  0
  3  4  1  0
  4  5  2  0
  5  6  1  0
  6  7  2  0
  6  8  1  0
  8  9  1  1
  8 10  1  0
 10 11  1  0
 11 12  1  0
 11 13  1  0
 11 14  1  0
 14 15  1  0
 14 16  1  0
 14 17  1  0
 17 18  1  0
 18 19  2  0
 18 20  1  0
 20 21  1  1
 20 22  1  0
 22 23  1  0
 22 24  1  0
 20 25  1  0
 25 26  1  0
 25 27  1  0
 25 28  1  0
 28 29  2  0
 29 30  1  0
 29 31  1  0
 31 32  1  0
 31 33  2  0
 33 34  1  0
 33 35  1  0
 35 36  1  0
 36 37  1  0
 37 38  1  0
 37 39  1  0
 37 40  1  0
 35 41  2  0
 41 42  1  0
  4 43  1  0
 43 44  1  0
 44 45  1  0
 45 46  2  0
 46 47  1  0
 46 48  1  0
 48 49  1  0
 48 50  2  0
 50 51  1  0
 50 52  1  0
 52 53  1  0
 52 54  2  0
 54 55  1  0
 44  2  2  0
 54 45  1  0
 17  8  1  0
 41 28  1  0
M  CHG  1  43  -1
M  END
>  <UniqueID>  (7) 
6

>  <SMILES>  (7) 
COc1cccc(C[C@@H](N)C(=O)N2CCS[C@@H]2C(=O)/N=c2/[n-]c(-c3ccccc3)cs2)c1

>  <Energy>  (7) 
91.20033971227309

>  <Genealogy>  (7) 
COc1cccc(CC(N)C(=O)N2CCSC2C(=O)N=c2[n-]c(-c3ccccc3)cs2)c1 (protonated)
COc1cccc(C[C@@H](N)C(=O)N2CCS[C@@H]2C(=O)N=c2[n-]c(-c3ccccc3)cs2)c1 (chirality)
COc1cccc(C[C@@H](N)C(=O)N2CCS[C@@H]2C(=O)/N=c2/[n-]c(-c3ccccc3)cs2)c1 (cis-trans isomerization)
COc1cccc(C[C@@H](N)C(=O)N2CCS[C@@H]2C(=O)/N=c2/[n-]c(-c3ccccc3)cs2)c1 (3D coordinates assigned)
COc1cccc(C[C@@H](N)C(=O)N2CCS[C@@H]2C(=O)/N=c2/[n-]c(-c3ccccc3)cs2)c1 (nonaromatic ring conformer: 91.20033971227309 kcal/mol)

>  <smiles>  (7) 
COc1cccc(CC(N)C(=O)N2CCSC2C(=O)N=c2[nH]c(-c3ccccc3)cs2)c1

>  <score_type>  (7) 
oracle

>  <origin>  (7) 
adg

>  <m_score__min__energy>  (7) 
-10.050000000000001

>  <m_primary>  (7) 
energy

$$$$
7:0
     RDKit          3D

 56 59  0  0  0  0  0  0  0  0999 V2000
   59.5720   20.7180   45.1690 H   0  0  0  0  0  0  0  0  0  0  0  0
   59.1360   21.5270   45.5950 O   0  0  0  0  0  0  0  0  0  0  0  0
   58.2990   22.3750   44.8680 C   0  0  0  0  0  0  0  0  0  0  0  0
   57.2890   21.8370   44.0570 C   0  0  0  0  0  0  0  0  0  0  0  0
   57.1519   20.7469   44.0031 H   0  0  0  0  0  0  0  0  0  0  0  0
   56.4560   22.6810   43.3170 C   0  0  0  0  0  0  0  0  0  0  0  0
   55.6664   22.2541   42.6812 H   0  0  0  0  0  0  0  0  0  0  0  0
   56.6250   24.0650   43.3840 C   0  0  0  0  0  0  0  0  0  0  0  0
   55.9722   24.7274   42.7965 H   0  0  0  0  0  0  0  0  0  0  0  0
   57.6230   24.6100   44.1970 C   0  0  0  0  0  0  0  0  0  0  0  0
   57.7501   25.7014   44.2493 H   0  0  0  0  0  0  0  0  0  0  0  0
   58.4650   23.7720   44.9480 C   0  0  0  0  0  0  0  0  0  0  0  0
   59.5600   24.3650   45.7980 C   0  0  0  0  0  0  0  0  0  0  0  0
   60.5211   24.2692   45.2715 H   0  0  0  0  0  0  0  0  0  0  0  0
   59.6021   23.8269   46.7565 H   0  0  0  0  0  0  0  0  0  0  0  0
   59.2860   25.7930   46.0580 N   0  0  0  0  0  0  0  0  0  0  0  0
   58.2680   25.9580   47.1130 C   0  0  0  0  0  0  0  0  0  0  0  0
   58.7100   25.7208   48.0920 H   0  0  0  0  0  0  0  0  0  0  0  0
   57.4236   25.2790   46.9234 H   0  0  0  0  0  0  0  0  0  0  0  0
   57.7760   27.4070   47.1100 C   0  0  0  0  0  0  0  0  0  0  0  0
   57.3793   27.6548   48.1056 H   0  0  0  0  0  0  0  0  0  0  0  0
   56.9903   27.5099   46.3470 H   0  0  0  0  0  0  0  0  0  0  0  0
   58.8690   28.3300   46.7850 N   0  0  0  0  0  0  0  0  0  0  0  0
   58.5630   29.6730   46.3770 C   0  0  0  0  0  0  0  0  0  0  0  0
   58.6050   30.7190   47.3110 C   0  0  0  0  0  0  0  0  0  0  0  0
   58.8248   30.5015   48.3666 H   0  0  0  0  0  0  0  0  0  0  0  0
   58.3690   32.0360   46.9070 C   0  0  0  0  0  0  0  0  0  0  0  0
   58.4034   32.8494   47.6467 H   0  0  0  0  0  0  0  0  0  0  0  0
   58.0880   32.3270   45.5610 C   0  0  0  0  0  0  0  0  0  0  0  0
   57.8490   33.7190   45.1190 C   0  0  0  0  0  0  0  0  0  0  0  0
   56.6640   34.1050   44.9350 O   0  0  0  0  0  0  0  0  0  0  0  0
   58.9460   34.6800   44.8710 C   0  0  0  0  0  0  0  0  0  0  0  0
   59.2112   34.9211   43.8310 H   0  0  0  0  0  0  0  0  0  0  0  0
   59.6300   35.2690   45.8620 C   0  0  0  0  0  0  0  0  0  0  0  0
   59.5477   36.3608   45.9676 H   0  0  0  0  0  0  0  0  0  0  0  0
   60.4910   34.5400   46.8250 C   0  0  0  0  0  0  0  0  0  0  0  0
   61.6370   33.8190   46.4280 C   0  0  0  0  0  0  0  0  0  0  0  0
   61.9315   33.8020   45.3683 H   0  0  0  0  0  0  0  0  0  0  0  0
   62.4010   33.1260   47.3720 C   0  0  0  0  0  0  0  0  0  0  0  0
   63.2956   32.5706   47.0538 H   0  0  0  0  0  0  0  0  0  0  0  0
   62.0300   33.1380   48.7180 C   0  0  0  0  0  0  0  0  0  0  0  0
   62.6373   32.6000   49.4608 H   0  0  0  0  0  0  0  0  0  0  0  0
   60.8880   33.8330   49.1210 C   0  0  0  0  0  0  0  0  0  0  0  0
   60.5925   33.8365   50.1806 H   0  0  0  0  0  0  0  0  0  0  0  0
   60.1190   34.5250   48.1790 C   0  0  0  0  0  0  0  0  0  0  0  0
   59.2150   35.0621   48.5019 H   0  0  0  0  0  0  0  0  0  0  0  0
   58.0120   31.2750   44.6350 C   0  0  0  0  0  0  0  0  0  0  0  0
   57.7536   31.4862   43.5868 H   0  0  0  0  0  0  0  0  0  0  0  0
   58.2630   29.9600   45.0380 C   0  0  0  0  0  0  0  0  0  0  0  0
   58.2248   29.1454   44.2998 H   0  0  0  0  0  0  0  0  0  0  0  0
   60.2630   27.9170   46.9960 C   0  0  0  0  0  0  0  0  0  0  0  0
   60.4756   27.9160   48.0753 H   0  0  0  0  0  0  0  0  0  0  0  0
   60.9161   28.6272   46.4677 H   0  0  0  0  0  0  0  0  0  0  0  0
   60.5290   26.5030   46.4310 C   0  0  0  0  0  0  0  0  0  0  0  0
   61.0557   25.9123   47.1950 H   0  0  0  0  0  0  0  0  0  0  0  0
   61.1318   26.6185   45.5182 H   0  0  0  0  0  0  0  0  0  0  0  0
  1  2  1  0
  2  3  1  0
  3  4  2  0
  4  5  1  0
  4  6  1  0
  6  7  1  0
  6  8  2  0
  8  9  1  0
  8 10  1  0
 10 11  1  0
 10 12  2  0
 12 13  1  0
 13 14  1  0
 13 15  1  0
 13 16  1  0
 16 17  1  0
 17 18  1  0
 17 19  1  0
 17 20  1  0
 20 21  1  0
 20 22  1  0
 20 23  1  0
 23 24  1  0
 24 25  2  0
 25 26  1  0
 25 27  1  0
 27 28  1  0
 27 29  2  0
 29 30  1  0
 30 31  2  0
 30 32  1  0
 32 33  1  0
 32 34  2  0
 34 35  1  0
 34 36  1  0
 36 37  2  0
 37 38  1  0
 37 39  1  0
 39 40  1  0
 39 41  2  0
 41 42  1  0
 41 43  1  0
 43 44  1  0
 43 45  2  0
 45 46  1  0
 29 47  1  0
 47 48  1  0
 47 49  2  0
 49 50  1  0
 23 51  1  0
 51 52  1  0
 51 53  1  0
 51 54  1  0
 54 55  1  0
 54 56  1  0
 12  3  1  0
 54 16  1  0
 49 24  1  0
 45 36  1  0
M  END
>  <UniqueID>  (8) 
7

>  <SMILES>  (8) 
O=C(/C=C/c1ccccc1)c1ccc(N2CCN(Cc3ccccc3O)CC2)cc1

>  <Energy>  (8) 
77.01326975633894

>  <Genealogy>  (8) 
O=C(/C=C/c1ccccc1)c1ccc(N2CCN(Cc3ccccc3O)CC2)cc1 (cis-trans isomerization)
O=C(/C=C/c1ccccc1)c1ccc(N2CCN(Cc3ccccc3O)CC2)cc1 (3D coordinates assigned)
O=C(/C=C/c1ccccc1)c1ccc(N2CCN(Cc3ccccc3O)CC2)cc1 (nonaromatic ring conformer: 77.01326975633894 kcal/mol)

>  <smiles>  (8) 
O=C(C=Cc1ccccc1)c1ccc(N2CCN(Cc3ccccc3O)CC2)cc1

>  <score_type>  (8) 
oracle

>  <origin>  (8) 
adg

>  <m_score__min__energy>  (8) 
-9.9000000000000004

>  <m_primary>  (8) 
energy

$$$$
8:0
     RDKit          3D

 44 45  0  0  0  0  0  0  0  0999 V2000
   57.7860   30.9130   50.7480 C   0  0  0  0  0  0  0  0  0  0  0  0
   58.8550   30.0140   50.4690 O   0  0  0  0  0  0  0  0  0  0  0  0
   59.2890   29.6620   49.1820 C   0  0  0  0  0  0  0  0  0  0  0  0
   59.1380   28.3550   48.6810 C   0  0  0  0  0  0  0  0  0  0  0  0
   59.5830   28.0250   47.3960 C   0  0  0  0  0  0  0  0  0  0  0  0
   59.3610   26.3390   46.8050 S   0  0  0  0  0  0  0  0  0  0  0  0
   57.5700   26.2590   47.1730 C   0  0  0  0  0  0  0  0  0  0  0  0
   56.7570   25.8380   45.9500 C   0  0  0  0  0  0  0  0  0  0  0  0
   55.6490   26.6810   45.7980 O   0  0  0  0  0  0  0  0  0  0  0  0
   60.1610   29.0140   46.5840 C   0  0  0  0  0  0  0  0  0  0  0  0
   60.7530   28.6370   44.7990 Br  0  0  0  0  0  0  0  0  0  0  0  0
   60.3120   30.3130   47.0740 C   0  0  0  0  0  0  0  0  0  0  0  0
   59.8920   30.6460   48.3720 C   0  0  0  0  0  0  0  0  0  0  0  0
   60.0450   32.0680   48.8600 C   0  0  0  0  0  0  0  0  0  0  0  0
   59.9980   33.0620   47.7250 C   0  0  0  0  0  0  0  0  0  0  0  0
   60.9980   33.7960   47.4970 O   0  0  0  0  0  0  0  0  0  0  0  0
   58.7810   33.3270   47.0150 N   0  0  0  0  0  0  0  0  0  0  0  0
   58.4290   32.8100   45.7270 C   0  0  0  0  0  0  0  0  0  0  0  0
   58.5370   33.6010   44.5720 C   0  0  0  0  0  0  0  0  0  0  0  0
   58.1470   33.0910   43.3320 C   0  0  0  0  0  0  0  0  0  0  0  0
   57.6290   31.7960   43.2380 C   0  0  0  0  0  0  0  0  0  0  0  0
   57.4930   31.0070   44.3880 C   0  0  0  0  0  0  0  0  0  0  0  0
   56.8090   29.3890   44.2750 S   0  0  0  0  0  0  0  0  0  0  0  0
   55.2000   29.3980   44.9030 N   0  0  0  0  0  0  0  0  0  0  0  0
   57.6490   28.4250   45.0640 O   0  0  0  0  0  0  0  0  0  0  0  0
   56.7860   28.9450   42.8390 O   0  0  0  0  0  0  0  0  0  0  0  0
   57.8780   31.5250   45.6330 C   0  0  0  0  0  0  0  0  0  0  0  0
   57.6663   31.0137   51.8368 H   0  0  0  0  0  0  0  0  0  0  0  0
   58.0111   31.8972   50.3113 H   0  0  0  0  0  0  0  0  0  0  0  0
   56.8550   30.5224   50.3113 H   0  0  0  0  0  0  0  0  0  0  0  0
   58.6647   27.5842   49.3070 H   0  0  0  0  0  0  0  0  0  0  0  0
   57.4045   25.5289   47.9789 H   0  0  0  0  0  0  0  0  0  0  0  0
   57.2380   27.2634   47.4746 H   0  0  0  0  0  0  0  0  0  0  0  0
   57.3895   25.9023   45.0524 H   0  0  0  0  0  0  0  0  0  0  0  0
   56.4078   24.8039   46.0870 H   0  0  0  0  0  0  0  0  0  0  0  0
   55.8910   27.3260   45.0830 H   0  0  0  0  0  0  0  0  0  0  0  0
   60.7656   31.0851   46.4352 H   0  0  0  0  0  0  0  0  0  0  0  0
   59.2291   32.2923   49.5628 H   0  0  0  0  0  0  0  0  0  0  0  0
   61.0262   32.1562   49.3493 H   0  0  0  0  0  0  0  0  0  0  0  0
   58.9301   34.6258   44.6442 H   0  0  0  0  0  0  0  0  0  0  0  0
   58.2475   33.7092   42.4277 H   0  0  0  0  0  0  0  0  0  0  0  0
   57.3274   31.3954   42.2589 H   0  0  0  0  0  0  0  0  0  0  0  0
   55.1520   28.6490   45.6290 H   0  0  0  0  0  0  0  0  0  0  0  0
   57.7466   30.9188   46.5415 H   0  0  0  0  0  0  0  0  0  0  0  0
  1  2  1  0
  2  3  1  0
  3  4  2  0
  4  5  1  0
  5  6  1  0
  6  7  1  0
  7  8  1  0
  8  9  1  0
  5 10  2  0
 10 11  1  0
 10 12  1  0
 12 13  2  0
 13 14  1  0
 14 15  1  0
 15 16  2  0
 15 17  1  0
 17 18  1  0
 18 19  2  0
 19 20  1  0
 20 21  2  0
 21 22  1  0
 22 23  1  0
 23 24  1  0
 23 25  2  0
 23 26  2  0
 22 27  2  0
 13  3  1  0
 27 18  1  0
  1 28  1  0
  1 29  1  0
  1 30  1  0
  4 31  1  0
  7 32  1  0
  7 33  1  0
  8 34  1  0
  8 35  1  0
  9 36  1  0
 12 37  1  0
 14 38  1  0
 14 39  1  0
 19 40  1  0
 20 41  1  0
 21 42  1  0
 24 43  1  0
 27 44  1  0
M  CHG  2  17  -1  24  -1
M  END
>  <UniqueID>  (9) 
8

>  <SMILES>  (9) 
COc1cc(SCCO)c(Br)cc1CC(=O)[N-]c1cccc(S([NH-])(=O)=O)c1

>  <Energy>  (9) 
43.6919405357925

>  <Genealogy>  (9) 
COc1cc(SCCO)c(Br)cc1CC(=O)[N-]c1cccc(S([NH-])(=O)=O)c1 (protonated)
COc1cc(SCCO)c(Br)cc1CC(=O)[N-]c1cccc(S([NH-])(=O)=O)c1 (3D coordinates assigned)
COc1cc(SCCO)c(Br)cc1CC(=O)[N-]c1cccc(S([NH-])(=O)=O)c1 (optimized conformer: 43.6919405357925 kcal/mol)

>  <smiles>  (9) 
COc1cc(SCCO)c(Br)cc1CC(=O)Nc1cccc(S(N)(=O)=O)c1

>  <score_type>  (9) 
oracle

>  <origin>  (9) 
adg

>  <m_score__min__energy>  (9) 
-12.470000000000001

>  <m_primary>  (9) 
energy

$$$$
9:0
     RDKit          3D

 66 70  0  0  0  0  0  0  0  0999 V2000
   55.3607   28.9099   44.5431 H   0  0  0  0  0  0  0  0  0  0  0  0
   56.0390   29.7240   44.2480 C   0  0  0  0  0  0  0  0  0  0  0  0
   56.7070   30.4300   45.1990 N   0  0  0  0  0  0  0  0  0  0  0  0
   57.5570   31.4460   44.8880 C   0  0  0  0  0  0  0  0  0  0  0  0
   58.1500   32.0770   45.8620 N   0  0  0  0  0  0  0  0  0  0  0  0
   58.6480   33.4550   45.8640 C   0  0  0  0  0  0  0  0  0  0  0  0
   57.9660   34.0825   45.2715 H   0  0  0  0  0  0  0  0  0  0  0  0
   59.6587   33.4576   45.4298 H   0  0  0  0  0  0  0  0  0  0  0  0
   58.7340   34.0190   47.2880 C   0  0  0  0  0  0  0  0  0  0  0  0
   57.8326   33.7224   47.8443 H   0  0  0  0  0  0  0  0  0  0  0  0
   58.8115   35.1141   47.2197 H   0  0  0  0  0  0  0  0  0  0  0  0
   59.9480   33.5060   48.0160 C   0  0  0  0  0  0  0  0  0  0  0  0
   61.1400   34.2760   48.0420 C   0  0  0  0  0  0  0  0  0  0  0  0
   61.1718   35.2480   47.5279 H   0  0  0  0  0  0  0  0  0  0  0  0
   62.2800   33.8090   48.7180 C   0  0  0  0  0  0  0  0  0  0  0  0
   63.2108   34.3950   48.7358 H   0  0  0  0  0  0  0  0  0  0  0  0
   62.1910   32.5800   49.3640 C   0  0  0  0  0  0  0  0  0  0  0  0
   61.0450   31.8380   49.3650 C   0  0  0  0  0  0  0  0  0  0  0  0
   59.8940   32.2710   48.6990 C   0  0  0  0  0  0  0  0  0  0  0  0
   58.9742   31.6678   48.7069 H   0  0  0  0  0  0  0  0  0  0  0  0
   61.2550   30.7010   50.0630 N   0  0  0  0  0  0  0  0  0  0  0  0
   60.2920   29.6250   50.3340 C   0  0  0  0  0  0  0  0  0  0  0  0
   60.7757   28.8571   50.9556 H   0  0  0  0  0  0  0  0  0  0  0  0
   59.4248   30.0536   50.8577 H   0  0  0  0  0  0  0  0  0  0  0  0
   59.8160   28.9940   49.0530 C   0  0  0  0  0  0  0  0  0  0  0  0
   58.7240   29.5360   48.3580 C   0  0  0  0  0  0  0  0  0  0  0  0
   58.2119   30.4256   48.7535 H   0  0  0  0  0  0  0  0  0  0  0  0
   58.2830   28.9540   47.1680 C   0  0  0  0  0  0  0  0  0  0  0  0
   57.4169   29.3782   46.6389 H   0  0  0  0  0  0  0  0  0  0  0  0
   58.9400   27.8300   46.6440 C   0  0  0  0  0  0  0  0  0  0  0  0
   58.4650   27.1990   45.3910 C   0  0  0  0  0  0  0  0  0  0  0  0
   58.8540   27.7770   44.1690 C   0  0  0  0  0  0  0  0  0  0  0  0
   59.4393   28.7084   44.1691 H   0  0  0  0  0  0  0  0  0  0  0  0
   58.5050   27.1810   42.9570 C   0  0  0  0  0  0  0  0  0  0  0  0
   58.8114   27.6458   42.0083 H   0  0  0  0  0  0  0  0  0  0  0  0
   57.7690   25.9980   42.9460 C   0  0  0  0  0  0  0  0  0  0  0  0
   57.5066   25.5234   41.9890 H   0  0  0  0  0  0  0  0  0  0  0  0
   57.3640   25.4140   44.1480 C   0  0  0  0  0  0  0  0  0  0  0  0
   56.7859   24.4783   44.1301 H   0  0  0  0  0  0  0  0  0  0  0  0
   57.6870   26.0090   45.3830 C   0  0  0  0  0  0  0  0  0  0  0  0
   57.1550   25.3970   46.6250 C   0  0  0  0  0  0  0  0  0  0  0  0
   55.9150   25.2310   46.7690 O   0  0  0  0  0  0  0  0  0  0  0  0
   58.0060   25.0390   47.6640 O   0  0  0  0  0  0  0  0  0  0  0  0
   60.0360   27.2890   47.3350 C   0  0  0  0  0  0  0  0  0  0  0  0
   60.5494   26.4007   46.9382 H   0  0  0  0  0  0  0  0  0  0  0  0
   60.4770   27.8740   48.5240 C   0  0  0  0  0  0  0  0  0  0  0  0
   61.3477   27.4546   49.0493 H   0  0  0  0  0  0  0  0  0  0  0  0
   62.5610   30.7820   50.4510 C   0  0  0  0  0  0  0  0  0  0  0  0
   63.3020   29.7260   51.2310 C   0  0  0  0  0  0  0  0  0  0  0  0
   63.7423   29.0068   50.5248 H   0  0  0  0  0  0  0  0  0  0  0  0
   62.5837   29.2350   51.9041 H   0  0  0  0  0  0  0  0  0  0  0  0
   64.4230   30.3250   52.0910 C   0  0  0  0  0  0  0  0  0  0  0  0
   64.6346   29.6372   52.9229 H   0  0  0  0  0  0  0  0  0  0  0  0
   64.0781   31.3050   52.4525 H   0  0  0  0  0  0  0  0  0  0  0  0
   65.7110   30.5500   51.3030 C   0  0  0  0  0  0  0  0  0  0  0  0
   66.5477   30.6962   52.0020 H   0  0  0  0  0  0  0  0  0  0  0  0
   65.9112   29.6732   50.6696 H   0  0  0  0  0  0  0  0  0  0  0  0
   65.6021   31.4427   50.6696 H   0  0  0  0  0  0  0  0  0  0  0  0
   63.1510   31.9350   50.0450 N   0  0  0  0  0  0  0  0  0  0  0  0
   64.1320   32.2480   50.2110 H   0  0  0  0  0  0  0  0  0  0  0  0
   57.7620   31.7750   43.5310 C   0  0  0  0  0  0  0  0  0  0  0  0
   58.4512   32.5866   43.2548 H   0  0  0  0  0  0  0  0  0  0  0  0
   57.0820   31.0610   42.5420 C   0  0  0  0  0  0  0  0  0  0  0  0
   57.2318   31.3110   41.4813 H   0  0  0  0  0  0  0  0  0  0  0  0
   56.2130   30.0310   42.9000 C   0  0  0  0  0  0  0  0  0  0  0  0
   55.6708   29.4670   42.1268 H   0  0  0  0  0  0  0  0  0  0  0  0
  1  2  1  0
  2  3  1  0
  3  4  1  0
  4  5  2  0
  5  6  1  0
  6  7  1  0
  6  8  1  0
  6  9  1  0
  9 10  1  0
  9 11  1  0
  9 12  1  0
 12 13  2  0
 13 14  1  0
 13 15  1  0
 15 16  1  0
 15 17  2  0
 17 18  1  0
 18 19  2  0
 19 20  1  0
 18 21  1  0
 21 22  1  0
 22 23  1  0
 22 24  1  0
 22 25  1  0
 25 26  2  0
 26 27  1  0
 26 28  1  0
 28 29  1  0
 28 30  2  0
 30 31  1  0
 31 32  2  0
 32 33  1  0
 32 34  1  0
 34 35  1  0
 34 36  2  0
 36 37  1  0
 36 38  1  0
 38 39  1  0
 38 40  2  0
 40 41  1  0
 41 42  2  0
 41 43  1  0
 30 44  1  0
 44 45  1  0
 44 46  2  0
 46 47  1  0
 21 48  1  0
 48 49  1  0
 49 50  1  0
 49 51  1  0
 49 52  1  0
 52 53  1  0
 52 54  1  0
 52 55  1  0
 55 56  1  0
 55 57  1  0
 55 58  1  0
 48 59  2  0
 59 60  1  0
  4 61  1  0
 61 62  1  0
 61 63  2  0
 63 64  1  0
 63 65  1  0
 65 66  1  0
 65  2  2  0
 19 12  1  0
 46 25  1  0
 59 17  1  0
 40 31  1  0
M  CHG  3   3  -1  43  -1  59   1
M  END
>  <UniqueID>  (10) 
9

>  <SMILES>  (10) 
CCCc1[nH+]c2ccc(CC/N=c3\cccc[n-]3)cc2n1Cc1ccc(-c2ccccc2C(=O)[O-])cc1

>  <Energy>  (10) 
114.45881116804176

>  <Genealogy>  (10) 
CCCc1[nH+]c2ccc(CCN=c3cccc[n-]3)cc2n1Cc1ccc(-c2ccccc2C(=O)[O-])cc1 (protonated)
CCCc1[nH+]c2ccc(CC/N=c3\cccc[n-]3)cc2n1Cc1ccc(-c2ccccc2C(=O)[O-])cc1 (cis-trans isomerization)
CCCc1[nH+]c2ccc(CC/N=c3\cccc[n-]3)cc2n1Cc1ccc(-c2ccccc2C(=O)[O-])cc1 (3D coordinates assigned)
CCCc1[nH+]c2ccc(CC/N=c3\cccc[n-]3)cc2n1Cc1ccc(-c2ccccc2C(=O)[O-])cc1 (optimized conformer: 114.45881116804176 kcal/mol)

>  <smiles>  (10) 
CCCc1nc2ccc(CCN=c3cccc[nH]3)cc2n1Cc1ccc(-c2ccccc2C(=O)O)cc1

>  <score_type>  (10) 
oracle

>  <origin>  (10) 
adg

>  <m_score__min__energy>  (10) 
-12.15

>  <m_primary>  (10) 
energy

$$$$
10:0
     RDKit          3D

 39 41  0  0  0  0  0  0  0  0999 V2000
   58.0880   32.7030   42.9430 C   0  0  0  0  0  0  0  0  0  0  0  0
   58.2190   33.2090   44.3540 C   0  0  0  0  0  0  0  0  0  0  0  0
   59.0680   34.2930   44.6310 C   0  0  0  0  0  0  0  0  0  0  0  0
   59.2100   34.7630   45.9370 C   0  0  0  0  0  0  0  0  0  0  0  0
   58.5110   34.1550   46.9780 C   0  0  0  0  0  0  0  0  0  0  0  0
   57.6550   33.0830   46.7170 C   0  0  0  0  0  0  0  0  0  0  0  0
   57.4820   32.6120   45.4010 C   0  0  0  0  0  0  0  0  0  0  0  0
   56.6440   31.4840   45.1010 N   0  0  0  0  0  0  0  0  0  0  0  0
   57.0250   30.1240   44.8530 C   0  0  0  0  0  0  0  0  0  0  0  0
   56.3110   29.1630   45.2440 O   0  0  0  0  0  0  0  0  0  0  0  0
   58.2920   29.8540   44.1040 C   0  0  0  0  0  0  0  0  0  0  0  0
   59.0470   28.2640   44.6090 S   0  0  0  0  0  0  0  0  0  0  0  0
   59.6410   28.8540   46.2040 C   0  0  0  0  0  0  0  0  0  0  0  0
   60.4910   29.9150   46.2380 N   0  0  0  0  0  0  0  0  0  0  0  0
   60.9290   30.4670   47.4030 C   0  0  0  0  0  0  0  0  0  0  0  0
   61.8230   31.6410   47.3460 C   0  0  0  0  0  0  0  0  0  0  0  0
   61.5720   32.8710   46.7400 C   0  0  0  0  0  0  0  0  0  0  0  0
   62.6420   33.7700   46.8440 C   0  0  0  0  0  0  0  0  0  0  0  0
   63.7370   33.2620   47.5250 C   0  0  0  0  0  0  0  0  0  0  0  0
   63.3750   31.6910   47.9980 S   0  0  0  0  0  0  0  0  0  0  0  0
   60.4980   29.9200   48.6230 C   0  0  0  0  0  0  0  0  0  0  0  0
   59.6350   28.8230   48.6200 C   0  0  0  0  0  0  0  0  0  0  0  0
   59.2000   28.2770   47.4090 C   0  0  0  0  0  0  0  0  0  0  0  0
   58.3040   27.1480   47.4200 C   0  0  0  0  0  0  0  0  0  0  0  0
   57.5860   26.2400   47.4280 N   0  0  0  0  0  0  0  0  0  0  0  0
   57.8123   31.6382   42.9594 H   0  0  0  0  0  0  0  0  0  0  0  0
   57.3085   33.2755   42.4190 H   0  0  0  0  0  0  0  0  0  0  0  0
   59.0474   32.8253   42.4190 H   0  0  0  0  0  0  0  0  0  0  0  0
   59.6244   34.7744   43.8133 H   0  0  0  0  0  0  0  0  0  0  0  0
   59.8745   35.6145   46.1452 H   0  0  0  0  0  0  0  0  0  0  0  0
   58.6339   34.5205   48.0082 H   0  0  0  0  0  0  0  0  0  0  0  0
   57.1122   32.6032   47.5448 H   0  0  0  0  0  0  0  0  0  0  0  0
   58.0695   29.8176   43.0273 H   0  0  0  0  0  0  0  0  0  0  0  0
   59.0045   30.6608   44.3306 H   0  0  0  0  0  0  0  0  0  0  0  0
   60.6274   33.1121   46.2305 H   0  0  0  0  0  0  0  0  0  0  0  0
   62.6152   34.7861   46.4235 H   0  0  0  0  0  0  0  0  0  0  0  0
   64.6791   33.7947   47.7216 H   0  0  0  0  0  0  0  0  0  0  0  0
   60.8386   30.3536   49.5749 H   0  0  0  0  0  0  0  0  0  0  0  0
   59.2968   28.3876   49.5718 H   0  0  0  0  0  0  0  0  0  0  0  0
  1  2  1  0
  2  3  2  0
  3  4  1  0
  4  5  2  0
  5  6  1  0
  6  7  2  0
  7  8  1  0
  8  9  1  0
  9 10  2  0
  9 11  1  0
 11 12  1  0
 12 13  1  0
 13 14  2  0
 14 15  1  0
 15 16  1  0
 16 17  2  0
 17 18  1  0
 18 19  2  0
 19 20  1  0
 15 21  2  0
 21 22  1  0
 22 23  2  0
 23 24  1  0
 24 25  3  0
  7  2  1  0
 23 13  1  0
 20 16  1  0
  1 26  1  0
  1 27  1  0
  1 28  1  0
  3 29  1  0
  4 30  1  0
  5 31  1  0
  6 32  1  0
 11 33  1  0
 11 34  1  0
 17 35  1  0
 18 36  1  0
 19 37  1  0
 21 38  1  0
 22 39  1  0
M  CHG  1   8  -1
M  END
>  <UniqueID>  (11) 
10

>  <SMILES>  (11) 
Cc1ccccc1[N-]C(=O)CSc1nc(-c2cccs2)ccc1C#N

>  <Energy>  (11) 
64.94934358600361

>  <Genealogy>  (11) 
Cc1ccccc1[N-]C(=O)CSc1nc(-c2cccs2)ccc1C#N (protonated)
Cc1ccccc1[N-]C(=O)CSc1nc(-c2cccs2)ccc1C#N (3D coordinates assigned)
Cc1ccccc1[N-]C(=O)CSc1nc(-c2cccs2)ccc1C#N (optimized conformer: 64.94934358600361 kcal/mol)

>  <smiles>  (11) 
Cc1ccccc1NC(=O)CSc1nc(-c2cccs2)ccc1C#N

>  <score_type>  (11) 
oracle

>  <origin>  (11) 
adg

>  <m_score__min__energy>  (11) 
-10.19

>  <m_primary>  (11) 
energy

$$$$
11:0
     RDKit          3D

 39 41  0  0  0  0  0  0  0  0999 V2000
   59.2670   30.8960   48.4430 C   0  0  0  0  0  0  0  0  0  0  0  0
   59.3670   29.4710   48.1060 N   0  0  0  0  0  0  0  0  0  0  0  0
   59.8820   28.5580   49.1410 C   0  0  0  0  0  0  0  0  0  0  0  0
   60.3630   27.2550   48.5750 C   0  0  0  0  0  0  0  0  0  0  0  0
   61.1280   26.5220   49.2530 O   0  0  0  0  0  0  0  0  0  0  0  0
   59.9060   26.8040   47.3030 N   0  0  0  0  0  0  0  0  0  0  0  0
   59.1030   27.6380   46.4720 C   0  0  0  0  0  0  0  0  0  0  0  0
   58.6090   27.1310   45.2650 C   0  0  0  0  0  0  0  0  0  0  0  0
   57.8430   27.9390   44.4260 C   0  0  0  0  0  0  0  0  0  0  0  0
   57.5680   29.2630   44.7830 C   0  0  0  0  0  0  0  0  0  0  0  0
   56.5840   30.2610   43.7140 S   0  0  0  0  0  0  0  0  0  0  0  0
   55.2910   30.5640   44.4190 O   0  0  0  0  0  0  0  0  0  0  0  0
   56.2850   29.5330   42.4340 O   0  0  0  0  0  0  0  0  0  0  0  0
   57.4310   31.7370   43.3500 N   0  0  0  0  0  0  0  0  0  0  0  0
   57.7430   32.0530   41.9560 C   0  0  0  0  0  0  0  0  0  0  0  0
   57.7810   32.6590   44.4000 C   0  0  0  0  0  0  0  0  0  0  0  0
   58.8760   33.5290   44.2480 C   0  0  0  0  0  0  0  0  0  0  0  0
   59.2230   34.4160   45.2720 C   0  0  0  0  0  0  0  0  0  0  0  0
   58.4850   34.4400   46.4580 C   0  0  0  0  0  0  0  0  0  0  0  0
   57.3990   33.5760   46.6230 C   0  0  0  0  0  0  0  0  0  0  0  0
   57.0500   32.6880   45.6010 C   0  0  0  0  0  0  0  0  0  0  0  0
   58.0630   29.7750   45.9920 C   0  0  0  0  0  0  0  0  0  0  0  0
   58.8330   28.9650   46.8540 C   0  0  0  0  0  0  0  0  0  0  0  0
   59.2587   31.0144   49.5366 H   0  0  0  0  0  0  0  0  0  0  0  0
   60.1296   31.4336   48.0225 H   0  0  0  0  0  0  0  0  0  0  0  0
   58.3377   31.3079   48.0225 H   0  0  0  0  0  0  0  0  0  0  0  0
   60.7203   29.0484   49.6575 H   0  0  0  0  0  0  0  0  0  0  0  0
   59.0541   28.3358   49.8303 H   0  0  0  0  0  0  0  0  0  0  0  0
   58.8257   26.0917   44.9772 H   0  0  0  0  0  0  0  0  0  0  0  0
   57.4537   27.5339   43.4803 H   0  0  0  0  0  0  0  0  0  0  0  0
   58.5155   32.8354   41.9214 H   0  0  0  0  0  0  0  0  0  0  0  0
   58.1132   31.1496   41.4492 H   0  0  0  0  0  0  0  0  0  0  0  0
   56.8349   32.4116   41.4492 H   0  0  0  0  0  0  0  0  0  0  0  0
   59.4630   33.5115   43.3179 H   0  0  0  0  0  0  0  0  0  0  0  0
   60.0782   35.0958   45.1435 H   0  0  0  0  0  0  0  0  0  0  0  0
   58.7587   35.1390   47.2620 H   0  0  0  0  0  0  0  0  0  0  0  0
   56.8186   33.5946   47.5572 H   0  0  0  0  0  0  0  0  0  0  0  0
   56.1971   32.0068   45.7374 H   0  0  0  0  0  0  0  0  0  0  0  0
   57.8489   30.8174   46.2706 H   0  0  0  0  0  0  0  0  0  0  0  0
  1  2  1  0
  2  3  1  0
  3  4  1  0
  4  5  2  0
  4  6  1  0
  6  7  1  0
  7  8  2  0
  8  9  1  0
  9 10  2  0
 10 11  1  0
 11 12  2  0
 11 13  2  0
 11 14  1  0
 14 15  1  0
 14 16  1  0
 16 17  2  0
 17 18  1  0
 18 19  2  0
 19 20  1  0
 20 21  2  0
 10 22  1  0
 22 23  2  0
 23  2  1  0
 23  7  1  0
 21 16  1  0
  1 24  1  0
  1 25  1  0
  1 26  1  0
  3 27  1  0
  3 28  1  0
  8 29  1  0
  9 30  1  0
 15 31  1  0
 15 32  1  0
 15 33  1  0
 17 34  1  0
 18 35  1  0
 19 36  1  0
 20 37  1  0
 21 38  1  0
 22 39  1  0
M  CHG  1   6  -1
M  END
>  <UniqueID>  (12) 
11

>  <SMILES>  (12) 
CN1CC(=O)[N-]c2ccc(S(=O)(=O)N(C)c3ccccc3)cc21

>  <Energy>  (12) 
47.26629856358096

>  <Genealogy>  (12) 
CN1CC(=O)[N-]c2ccc(S(=O)(=O)N(C)c3ccccc3)cc21 (protonated)
CN1CC(=O)[N-]c2ccc(S(=O)(=O)N(C)c3ccccc3)cc21 (3D coordinates assigned)
CN1CC(=O)[N-]c2ccc(S(=O)(=O)N(C)c3ccccc3)cc21 (nonaromatic ring conformer: 47.26629856358096 kcal/mol)

>  <smiles>  (12) 
CN1CC(=O)Nc2ccc(S(=O)(=O)N(C)c3ccccc3)cc21

>  <score_type>  (12) 
oracle

>  <origin>  (12) 
adg

>  <m_score__min__energy>  (12) 
-9.2400000000000002

>  <m_primary>  (12) 
energy

$$$$
12:0
     RDKit          3D

 63 65  0  0  0  0  0  0  0  0999 V2000
   56.7250   30.7950   42.2620 N   0  0  0  0  0  0  0  0  0  0  0  0
   57.4110   32.0860   42.2900 C   0  0  0  0  0  0  0  0  0  0  0  0
   58.3420   32.2400   43.5040 C   0  0  0  0  0  0  0  0  0  0  0  0
   57.7200   33.0870   44.6150 C   0  0  0  0  0  0  0  0  0  0  0  0
   58.2700   34.4370   44.5710 N   0  0  0  0  0  0  0  0  0  0  0  0
   59.2250   34.9430   45.5120 C   0  0  0  0  0  0  0  0  0  0  0  0
   59.6480   36.1220   45.3800 O   0  0  0  0  0  0  0  0  0  0  0  0
   59.7030   34.1270   46.6430 C   0  0  0  0  0  0  0  0  0  0  0  0
   60.9410   33.4740   46.5650 C   0  0  0  0  0  0  0  0  0  0  0  0
   61.4170   32.7390   47.6540 C   0  0  0  0  0  0  0  0  0  0  0  0
   60.6530   32.6350   48.8270 C   0  0  0  0  0  0  0  0  0  0  0  0
   61.2000   31.9180   50.0330 C   0  0  0  0  0  0  0  0  0  0  0  0
   60.4880   32.3350   51.3340 C   0  0  0  0  0  0  0  0  0  0  0  0
   59.1450   31.6400   51.5120 C   0  0  0  0  0  0  0  0  0  0  0  0
   58.9590   30.2270   51.4450 C   0  0  0  0  0  0  0  0  0  0  0  0
   60.0330   29.2360   51.1850 C   0  0  0  0  0  0  0  0  0  0  0  0
   60.4430   28.4520   52.0780 O   0  0  0  0  0  0  0  0  0  0  0  0
   60.5840   29.1490   49.8660 N   0  0  0  0  0  0  0  0  0  0  0  0
   60.5200   27.9500   49.0390 C   0  0  0  0  0  0  0  0  0  0  0  0
   59.5490   28.1510   47.9070 C   0  0  0  0  0  0  0  0  0  0  0  0
   59.1750   29.4440   47.5090 C   0  0  0  0  0  0  0  0  0  0  0  0
   58.2610   29.6220   46.4660 C   0  0  0  0  0  0  0  0  0  0  0  0
   57.7060   28.5100   45.8060 C   0  0  0  0  0  0  0  0  0  0  0  0
   56.6970   28.6960   44.6900 C   0  0  0  0  0  0  0  0  0  0  0  0
   56.0550   30.0100   44.7890 N   0  0  0  0  0  0  0  0  0  0  0  0
   57.3500   28.5630   43.3870 N   0  0  0  0  0  0  0  0  0  0  0  0
   58.0700   27.2180   46.2210 C   0  0  0  0  0  0  0  0  0  0  0  0
   58.9850   27.0410   47.2620 C   0  0  0  0  0  0  0  0  0  0  0  0
   57.7050   29.7230   51.6070 N   0  0  0  0  0  0  0  0  0  0  0  0
   56.6330   30.5140   51.8460 C   0  0  0  0  0  0  0  0  0  0  0  0
   55.4940   30.0030   51.9950 O   0  0  0  0  0  0  0  0  0  0  0  0
   56.7870   31.8560   51.9250 N   0  0  0  0  0  0  0  0  0  0  0  0
   58.0030   32.4330   51.7650 C   0  0  0  0  0  0  0  0  0  0  0  0
   58.0940   33.6880   51.8450 O   0  0  0  0  0  0  0  0  0  0  0  0
   59.3930   33.2520   48.8850 C   0  0  0  0  0  0  0  0  0  0  0  0
   58.9210   33.9920   47.8000 C   0  0  0  0  0  0  0  0  0  0  0  0
   56.4370   30.5390   43.2340 H   0  0  0  0  0  0  0  0  0  0  0  0
   57.3810   30.0620   41.9120 H   0  0  0  0  0  0  0  0  0  0  0  0
   58.0101   32.1856   41.3728 H   0  0  0  0  0  0  0  0  0  0  0  0
   56.6412   32.8685   42.3617 H   0  0  0  0  0  0  0  0  0  0  0  0
   58.5662   31.2408   43.9057 H   0  0  0  0  0  0  0  0  0  0  0  0
   59.2536   32.7527   43.1633 H   0  0  0  0  0  0  0  0  0  0  0  0
   56.6300   33.1316   44.4739 H   0  0  0  0  0  0  0  0  0  0  0  0
   57.9482   32.6325   45.5904 H   0  0  0  0  0  0  0  0  0  0  0  0
   61.5392   33.5403   45.6443 H   0  0  0  0  0  0  0  0  0  0  0  0
   62.3951   32.2395   47.5917 H   0  0  0  0  0  0  0  0  0  0  0  0
   61.0698   30.8351   49.8900 H   0  0  0  0  0  0  0  0  0  0  0  0
   62.2625   32.1855   50.1303 H   0  0  0  0  0  0  0  0  0  0  0  0
   61.1335   32.0790   52.1871 H   0  0  0  0  0  0  0  0  0  0  0  0
   60.2997   33.4174   51.2799 H   0  0  0  0  0  0  0  0  0  0  0  0
   61.5182   27.7381   48.6283 H   0  0  0  0  0  0  0  0  0  0  0  0
   60.1813   27.1053   49.6569 H   0  0  0  0  0  0  0  0  0  0  0  0
   59.6022   30.3199   48.0192 H   0  0  0  0  0  0  0  0  0  0  0  0
   57.9737   30.6385   46.1592 H   0  0  0  0  0  0  0  0  0  0  0  0
   55.9275   27.9162   44.7889 H   0  0  0  0  0  0  0  0  0  0  0  0
   55.4150   30.0210   45.6170 H   0  0  0  0  0  0  0  0  0  0  0  0
   55.4690   30.1660   43.9350 H   0  0  0  0  0  0  0  0  0  0  0  0
   57.9810   29.3870   43.2550 H   0  0  0  0  0  0  0  0  0  0  0  0
   56.6170   28.6320   42.6440 H   0  0  0  0  0  0  0  0  0  0  0  0
   57.6319   26.3403   45.7233 H   0  0  0  0  0  0  0  0  0  0  0  0
   59.2646   26.0249   47.5774 H   0  0  0  0  0  0  0  0  0  0  0  0
   58.7753   33.1516   49.7896 H   0  0  0  0  0  0  0  0  0  0  0  0
   57.9322   34.4712   47.8521 H   0  0  0  0  0  0  0  0  0  0  0  0
  1  2  1  0
  2  3  1  0
  3  4  1  0
  4  5  1  0
  5  6  1  0
  6  7  2  0
  6  8  1  0
  8  9  2  0
  9 10  1  0
 10 11  2  0
 11 12  1  0
 12 13  1  0
 13 14  1  0
 14 15  2  0
 15 16  1  0
 16 17  2  0
 16 18  1  0
 18 19  1  0
 19 20  1  0
 20 21  2  0
 21 22  1  0
 22 23  2  0
 23 24  1  0
 24 25  1  0
 24 26  1  0
 23 27  1  0
 27 28  2  0
 15 29  1  0
 29 30  1  0
 30 31  2  0
 30 32  1  0
 32 33  1  0
 33 34  2  0
 11 35  1  0
 35 36  2  0
 36  8  1  0
 33 14  1  0
 28 20  1  0
  1 37  1  0
  1 38  1  0
  2 39  1  0
  2 40  1  0
  3 41  1  0
  3 42  1  0
  4 43  1  0
  4 44  1  0
  9 45  1  0
 10 46  1  0
 12 47  1  0
 12 48  1  0
 13 49  1  0
 13 50  1  0
 19 51  1  0
 19 52  1  0
 21 53  1  0
 22 54  1  0
 24 55  1  0
 25 56  1  0
 25 57  1  0
 26 58  1  0
 26 59  1  0
 27 60  1  0
 28 61  1  0
 35 62  1  0
 36 63  1  0
M  CHG  4   5  -1  18  -1  29  -1  32  -1
M  END
>  <UniqueID>  (13) 
12

>  <SMILES>  (13) 
NCCC[N-]C(=O)c1ccc(CCc2c(C(=O)[N-]Cc3ccc(C(N)N)cc3)[n-]c(=O)[n-]c2=O)cc1

>  <Energy>  (13) 
62.41161363979609

>  <Genealogy>  (13) 
NCCC[N-]C(=O)c1ccc(CCc2c(C(=O)[N-]Cc3ccc(C(N)N)cc3)[n-]c(=O)[n-]c2=O)cc1 (protonated)
NCCC[N-]C(=O)c1ccc(CCc2c(C(=O)[N-]Cc3ccc(C(N)N)cc3)[n-]c(=O)[n-]c2=O)cc1 (3D coordinates assigned)
NCCC[N-]C(=O)c1ccc(CCc2c(C(=O)[N-]Cc3ccc(C(N)N)cc3)[n-]c(=O)[n-]c2=O)cc1 (optimized conformer: 62.41161363979609 kcal/mol)

>  <smiles>  (13) 
NCCCNC(=O)c1ccc(CCc2c(C(=O)NCc3ccc(C(N)N)cc3)[nH]c(=O)[nH]c2=O)cc1

>  <score_type>  (13) 
oracle

>  <origin>  (13) 
adg

>  <m_score__min__energy>  (13) 
-13.140000000000001

>  <m_primary>  (13) 
energy

$$$$
13:0
     RDKit          3D

 62 64  0  0  0  0  0  0  0  0999 V2000
   59.2980   33.4110   48.7290 C   0  0  0  0  0  0  0  0  0  0  0  0
   60.3870   34.3570   48.2210 C   0  0  0  0  0  0  0  0  0  0  0  0
   60.4970   34.3810   46.6870 C   0  0  0  0  0  0  0  0  0  0  0  0
   59.6240   35.4640   46.0320 C   0  0  0  0  0  0  0  0  0  0  0  0
   58.9940   34.9840   44.8460 O   0  0  0  0  0  0  0  0  0  0  0  0
   58.4930   33.6850   44.6540 C   0  0  0  0  0  0  0  0  0  0  0  0
   58.5000   33.0420   43.4010 C   0  0  0  0  0  0  0  0  0  0  0  0
   57.9790   31.7500   43.2690 C   0  0  0  0  0  0  0  0  0  0  0  0
   57.4390   31.0800   44.3800 C   0  0  0  0  0  0  0  0  0  0  0  0
   56.8490   29.7310   44.2300 C   0  0  0  0  0  0  0  0  0  0  0  0
   55.8210   29.4140   44.8890 O   0  0  0  0  0  0  0  0  0  0  0  0
   57.4620   28.7690   43.3620 N   0  0  0  0  0  0  0  0  0  0  0  0
   57.7590   27.3990   43.7640 C   0  0  0  0  0  0  0  0  0  0  0  0
   58.9840   27.3520   44.6820 C   0  0  0  0  0  0  0  0  0  0  0  0
   58.5740   27.6390   46.4130 S   0  0  0  0  0  0  0  0  0  0  0  0
   59.2320   26.6040   47.2860 O   0  0  0  0  0  0  0  0  0  0  0  0
   57.0840   27.5050   46.5700 O   0  0  0  0  0  0  0  0  0  0  0  0
   59.0570   29.2320   46.9580 N   0  0  0  0  0  0  0  0  0  0  0  0
   59.3980   29.2330   48.4080 C   0  0  0  0  0  0  0  0  0  0  0  0
   60.8860   29.4840   48.6950 C   0  0  0  0  0  0  0  0  0  0  0  0
   61.3410   30.6930   48.0000 N   0  0  0  0  0  0  0  0  0  0  0  0
   62.4130   31.4960   48.5450 C   0  0  0  0  0  0  0  0  0  0  0  0
   62.7990   31.3590   49.8930 C   0  0  0  0  0  0  0  0  0  0  0  0
   63.8410   32.1330   50.4150 C   0  0  0  0  0  0  0  0  0  0  0  0
   64.5090   33.0500   49.6010 C   0  0  0  0  0  0  0  0  0  0  0  0
   65.5200   33.7990   50.1080 F   0  0  0  0  0  0  0  0  0  0  0  0
   64.1390   33.1940   48.2610 C   0  0  0  0  0  0  0  0  0  0  0  0
   63.0970   32.4220   47.7350 C   0  0  0  0  0  0  0  0  0  0  0  0
   60.7770   31.0140   46.6820 C   0  0  0  0  0  0  0  0  0  0  0  0
   60.1080   29.7780   46.0700 C   0  0  0  0  0  0  0  0  0  0  0  0
   57.4390   31.7260   45.6300 C   0  0  0  0  0  0  0  0  0  0  0  0
   57.9620   33.0140   45.7620 C   0  0  0  0  0  0  0  0  0  0  0  0
   59.2970   33.4101   49.8290 H   0  0  0  0  0  0  0  0  0  0  0  0
   58.3179   33.7493   48.3617 H   0  0  0  0  0  0  0  0  0  0  0  0
   59.4959   32.3932   48.3617 H   0  0  0  0  0  0  0  0  0  0  0  0
   60.1587   35.3743   48.5717 H   0  0  0  0  0  0  0  0  0  0  0  0
   61.3478   33.9924   48.6134 H   0  0  0  0  0  0  0  0  0  0  0  0
   61.5465   34.5667   46.4150 H   0  0  0  0  0  0  0  0  0  0  0  0
   60.1397   33.4078   46.3193 H   0  0  0  0  0  0  0  0  0  0  0  0
   58.8485   35.7777   46.7463 H   0  0  0  0  0  0  0  0  0  0  0  0
   60.2720   36.3099   45.7592 H   0  0  0  0  0  0  0  0  0  0  0  0
   58.9165   33.5573   42.5229 H   0  0  0  0  0  0  0  0  0  0  0  0
   57.9923   31.2545   42.2870 H   0  0  0  0  0  0  0  0  0  0  0  0
   56.8918   26.9847   44.2992 H   0  0  0  0  0  0  0  0  0  0  0  0
   57.9729   26.8067   42.8621 H   0  0  0  0  0  0  0  0  0  0  0  0
   59.4524   26.3608   44.5919 H   0  0  0  0  0  0  0  0  0  0  0  0
   59.6645   28.1564   44.3660 H   0  0  0  0  0  0  0  0  0  0  0  0
   58.2110   29.8390   46.8370 H   0  0  0  0  0  0  0  0  0  0  0  0
   58.8117   30.0221   48.9016 H   0  0  0  0  0  0  0  0  0  0  0  0
   59.1623   28.2299   48.7931 H   0  0  0  0  0  0  0  0  0  0  0  0
   61.0303   29.6118   49.7780 H   0  0  0  0  0  0  0  0  0  0  0  0
   61.4700   28.6236   48.3363 H   0  0  0  0  0  0  0  0  0  0  0  0
   62.2773   30.6382   50.5398 H   0  0  0  0  0  0  0  0  0  0  0  0
   64.1347   32.0189   51.4689 H   0  0  0  0  0  0  0  0  0  0  0  0
   64.6672   33.9146   47.6193 H   0  0  0  0  0  0  0  0  0  0  0  0
   62.8100   32.5398   46.6796 H   0  0  0  0  0  0  0  0  0  0  0  0
   60.0292   31.8130   46.7929 H   0  0  0  0  0  0  0  0  0  0  0  0
   61.5892   31.3449   46.0180 H   0  0  0  0  0  0  0  0  0  0  0  0
   59.6531   30.0576   45.1083 H   0  0  0  0  0  0  0  0  0  0  0  0
   60.8770   29.0040   45.9303 H   0  0  0  0  0  0  0  0  0  0  0  0
   57.0239   31.2126   46.5098 H   0  0  0  0  0  0  0  0  0  0  0  0
   57.9567   33.5060   46.7458 H   0  0  0  0  0  0  0  0  0  0  0  0
  1  2  1  0
  2  3  1  0
  3  4  1  0
  4  5  1  0
  5  6  1  0
  6  7  2  0
  7  8  1  0
  8  9  2  0
  9 10  1  0
 10 11  2  0
 10 12  1  0
 12 13  1  0
 13 14  1  0
 14 15  1  0
 15 16  2  0
 15 17  2  0
 15 18  1  0
 18 19  1  0
 19 20  1  0
 20 21  1  0
 21 22  1  0
 22 23  2  0
 23 24  1  0
 24 25  2  0
 25 26  1  0
 25 27  1  0
 27 28  2  0
 21 29  1  0
 29 30  1  0
  9 31  1  0
 31 32  2  0
 32  6  1  0
 30 18  1  0
 28 22  1  0
  1 33  1  0
  1 34  1  0
  1 35  1  0
  2 36  1  0
  2 37  1  0
  3 38  1  0
  3 39  1  0
  4 40  1  0
  4 41  1  0
  7 42  1  0
  8 43  1  0
 13 44  1  0
 13 45  1  0
 14 46  1  0
 14 47  1  0
 18 48  1  0
 19 49  1  0
 19 50  1  0
 20 51  1  0
 20 52  1  0
 23 53  1  0
 24 54  1  0
 27 55  1  0
 28 56  1  0
 29 57  1  0
 29 58  1  0
 30 59  1  0
 30 60  1  0
 31 61  1  0
 32 62  1  0
M  CHG  2  12  -1  18   1
M  END
>  <UniqueID>  (14) 
13

>  <SMILES>  (14) 
CCCCOc1ccc(C(=O)[N-]CCS(=O)(=O)[NH+]2CCN(c3ccc(F)cc3)CC2)cc1

>  <Energy>  (14) 
58.38805818155312

>  <Genealogy>  (14) 
CCCCOc1ccc(C(=O)[N-]CCS(=O)(=O)[NH+]2CCN(c3ccc(F)cc3)CC2)cc1 (protonated)
CCCCOc1ccc(C(=O)[N-]CCS(=O)(=O)[NH+]2CCN(c3ccc(F)cc3)CC2)cc1 (3D coordinates assigned)
CCCCOc1ccc(C(=O)[N-]CCS(=O)(=O)[NH+]2CCN(c3ccc(F)cc3)CC2)cc1 (nonaromatic ring conformer: 58.38805818155312 kcal/mol)

>  <smiles>  (14) 
CCCCOc1ccc(C(=O)NCCS(=O)(=O)N2CCN(c3ccc(F)cc3)CC2)cc1

>  <score_type>  (14) 
oracle

>  <origin>  (14) 
adg

>  <m_score__min__energy>  (14) 
-7.9100000000000001

>  <m_primary>  (14) 
energy

$$$$
14:0
     RDKit          3D

 41 43  0  0  0  0  0  0  0  0999 V2000
   60.4450   27.6980   49.0130 C   0  0  0  0  0  0  0  0  0  0  0  0
   60.5300   28.9690   49.6490 O   0  0  0  0  0  0  0  0  0  0  0  0
   60.4330   30.1970   48.9790 C   0  0  0  0  0  0  0  0  0  0  0  0
   61.2280   30.4020   47.8460 C   0  0  0  0  0  0  0  0  0  0  0  0
   61.1630   31.6080   47.1420 C   0  0  0  0  0  0  0  0  0  0  0  0
   60.3010   32.6290   47.5590 C   0  0  0  0  0  0  0  0  0  0  0  0
   60.2500   33.8410   46.7930 N   0  0  0  0  0  0  0  0  0  0  0  0
   59.0350   34.2270   45.6170 S   0  0  0  0  0  0  0  0  0  0  0  0
   59.6370   35.1180   44.5680 O   0  0  0  0  0  0  0  0  0  0  0  0
   57.9090   34.9550   46.2960 O   0  0  0  0  0  0  0  0  0  0  0  0
   58.4420   32.7590   44.8440 C   0  0  0  0  0  0  0  0  0  0  0  0
   58.1370   32.7590   43.4770 C   0  0  0  0  0  0  0  0  0  0  0  0
   57.6370   31.6050   42.8710 C   0  0  0  0  0  0  0  0  0  0  0  0
   57.4410   30.4450   43.6250 C   0  0  0  0  0  0  0  0  0  0  0  0
   57.7540   30.4220   44.9960 C   0  0  0  0  0  0  0  0  0  0  0  0
   57.5190   29.1980   45.7980 C   0  0  0  0  0  0  0  0  0  0  0  0
   58.0660   29.0770   46.9280 O   0  0  0  0  0  0  0  0  0  0  0  0
   56.6480   28.1620   45.3220 N   0  0  0  0  0  0  0  0  0  0  0  0
   56.7540   26.8270   45.7580 N   0  0  0  0  0  0  0  0  0  0  0  0
   55.7380   25.9870   45.9930 C   0  0  0  0  0  0  0  0  0  0  0  0
   54.3950   26.3360   45.9480 O   0  0  0  0  0  0  0  0  0  0  0  0
   56.2440   24.7380   46.2760 C   0  0  0  0  0  0  0  0  0  0  0  0
   57.5930   24.7800   46.1920 N   0  0  0  0  0  0  0  0  0  0  0  0
   57.8610   26.0620   45.8630 C   0  0  0  0  0  0  0  0  0  0  0  0
   59.0290   26.4790   45.6340 O   0  0  0  0  0  0  0  0  0  0  0  0
   58.2600   31.5900   45.5960 C   0  0  0  0  0  0  0  0  0  0  0  0
   59.5070   32.4320   48.7020 C   0  0  0  0  0  0  0  0  0  0  0  0
   59.5710   31.2250   49.4060 C   0  0  0  0  0  0  0  0  0  0  0  0
   60.3922   26.9085   49.7771 H   0  0  0  0  0  0  0  0  0  0  0  0
   59.5424   27.6617   48.3853 H   0  0  0  0  0  0  0  0  0  0  0  0
   61.3347   27.5419   48.3853 H   0  0  0  0  0  0  0  0  0  0  0  0
   61.9095   29.6080   47.5066 H   0  0  0  0  0  0  0  0  0  0  0  0
   61.7942   31.7558   46.2533 H   0  0  0  0  0  0  0  0  0  0  0  0
   58.2917   33.6698   42.8799 H   0  0  0  0  0  0  0  0  0  0  0  0
   57.3968   31.6089   41.7976 H   0  0  0  0  0  0  0  0  0  0  0  0
   57.0385   29.5422   43.1422 H   0  0  0  0  0  0  0  0  0  0  0  0
   55.8400   28.4270   44.7150 H   0  0  0  0  0  0  0  0  0  0  0  0
   55.6472   23.8494   46.5295 H   0  0  0  0  0  0  0  0  0  0  0  0
   58.5153   31.5857   46.6660 H   0  0  0  0  0  0  0  0  0  0  0  0
   58.8323   33.2305   49.0444 H   0  0  0  0  0  0  0  0  0  0  0  0
   58.9444   31.0782   50.2981 H   0  0  0  0  0  0  0  0  0  0  0  0
  1  2  1  0
  2  3  1  0
  3  4  2  0
  4  5  1  0
  5  6  2  0
  6  7  1  0
  7  8  1  0
  8  9  2  0
  8 10  2  0
  8 11  1  0
 11 12  2  0
 12 13  1  0
 13 14  2  0
 14 15  1  0
 15 16  1  0
 16 17  2  0
 16 18  1  0
 18 19  1  0
 19 20  1  0
 20 21  1  0
 20 22  2  0
 22 23  1  0
 23 24  1  0
 24 25  2  0
 15 26  2  0
  6 27  1  0
 27 28  2  0
 28  3  1  0
 26 11  1  0
 24 19  1  0
  1 29  1  0
  1 30  1  0
  1 31  1  0
  4 32  1  0
  5 33  1  0
 12 34  1  0
 13 35  1  0
 14 36  1  0
 18 37  1  0
 22 38  1  0
 26 39  1  0
 27 40  1  0
 28 41  1  0
M  CHG  3   7  -1  21  -1  23  -1
M  END
>  <UniqueID>  (15) 
14

>  <SMILES>  (15) 
COc1ccc([N-]S(=O)(=O)c2cccc(C(=O)Nn3c([O-])c[n-]c3=O)c2)cc1

>  <Energy>  (15) 
84.45972858964478

>  <Genealogy>  (15) 
COc1ccc([N-]S(=O)(=O)c2cccc(C(=O)Nn3c([O-])c[n-]c3=O)c2)cc1 (protonated)
COc1ccc([N-]S(=O)(=O)c2cccc(C(=O)Nn3c([O-])c[n-]c3=O)c2)cc1 (3D coordinates assigned)
COc1ccc([N-]S(=O)(=O)c2cccc(C(=O)Nn3c([O-])c[n-]c3=O)c2)cc1 (optimized conformer: 84.45972858964478 kcal/mol)

>  <smiles>  (15) 
COc1ccc(NS(=O)(=O)c2cccc(C(=O)Nn3c(O)c[nH]c3=O)c2)cc1

>  <score_type>  (15) 
oracle

>  <origin>  (15) 
adg

>  <m_score__min__energy>  (15) 
-14.76

>  <m_primary>  (15) 
energy

$$$$
15:0
     RDKit          3D

 34 35  0  0  0  0  0  0  0  0999 V2000
   57.9480   31.5220   43.3270 N   0  0  0  0  0  0  0  0  0  0  0  0
   58.0310   30.7000   44.1380 C   0  0  0  0  0  0  0  0  0  0  0  0
   58.1360   29.6730   45.1470 C   0  0  0  0  0  0  0  0  0  0  0  0
   57.2450   28.5930   45.0890 C   0  0  0  0  0  0  0  0  0  0  0  0
   57.2910   27.5690   46.0490 C   0  0  0  0  0  0  0  0  0  0  0  0
   56.3750   26.4600   45.9870 N   0  0  0  0  0  0  0  0  0  0  0  0
   55.1420   26.6500   46.0080 O   0  0  0  0  0  0  0  0  0  0  0  0
   56.8440   25.1690   45.9010 O   0  0  0  0  0  0  0  0  0  0  0  0
   58.2450   27.6430   47.0740 C   0  0  0  0  0  0  0  0  0  0  0  0
   59.1380   28.7150   47.1390 C   0  0  0  0  0  0  0  0  0  0  0  0
   59.1050   29.7430   46.1760 C   0  0  0  0  0  0  0  0  0  0  0  0
   60.0380   30.8440   46.2360 N   0  0  0  0  0  0  0  0  0  0  0  0
   61.1150   30.9340   47.2280 C   0  0  0  0  0  0  0  0  0  0  0  0
   61.5690   32.3860   47.4520 C   0  0  0  0  0  0  0  0  0  0  0  0
   60.3490   33.3590   48.4120 S   0  0  0  0  0  0  0  0  0  0  0  0
   59.2330   33.6790   47.0440 C   0  0  0  0  0  0  0  0  0  0  0  0
   57.9110   33.2190   47.0910 C   0  0  0  0  0  0  0  0  0  0  0  0
   57.0400   33.4810   46.0280 C   0  0  0  0  0  0  0  0  0  0  0  0
   57.4860   34.2110   44.9210 C   0  0  0  0  0  0  0  0  0  0  0  0
   58.8030   34.6780   44.8760 C   0  0  0  0  0  0  0  0  0  0  0  0
   59.6740   34.4180   45.9380 C   0  0  0  0  0  0  0  0  0  0  0  0
   56.4999   28.5467   44.2811 H   0  0  0  0  0  0  0  0  0  0  0  0
   58.2905   26.8492   47.8342 H   0  0  0  0  0  0  0  0  0  0  0  0
   59.8769   28.7573   47.9528 H   0  0  0  0  0  0  0  0  0  0  0  0
   59.9500   31.6150   45.5360 H   0  0  0  0  0  0  0  0  0  0  0  0
   60.7545   30.5229   48.1825 H   0  0  0  0  0  0  0  0  0  0  0  0
   61.9754   30.3625   46.8496 H   0  0  0  0  0  0  0  0  0  0  0  0
   62.5232   32.3774   47.9992 H   0  0  0  0  0  0  0  0  0  0  0  0
   61.6746   32.8604   46.4652 H   0  0  0  0  0  0  0  0  0  0  0  0
   57.5573   32.6513   47.9643 H   0  0  0  0  0  0  0  0  0  0  0  0
   56.0040   33.1129   46.0626 H   0  0  0  0  0  0  0  0  0  0  0  0
   56.8004   34.4175   44.0860 H   0  0  0  0  0  0  0  0  0  0  0  0
   59.1540   35.2502   44.0046 H   0  0  0  0  0  0  0  0  0  0  0  0
   60.7072   34.7941   45.9055 H   0  0  0  0  0  0  0  0  0  0  0  0
  1  2  3  0
  2  3  1  0
  3  4  2  0
  4  5  1  0
  5  6  1  0
  6  7  2  0
  6  8  1  0
  5  9  2  0
  9 10  1  0
 10 11  2  0
 11 12  1  0
 12 13  1  0
 13 14  1  0
 14 15  1  0
 15 16  1  0
 16 17  2  0
 17 18  1  0
 18 19  2  0
 19 20  1  0
 20 21  2  0
 11  3  1  0
 21 16  1  0
  4 22  1  0
  9 23  1  0
 10 24  1  0
 12 25  1  0
 13 26  1  0
 13 27  1  0
 14 28  1  0
 14 29  1  0
 17 30  1  0
 18 31  1  0
 19 32  1  0
 20 33  1  0
 21 34  1  0
M  CHG  2   6   1   8  -1
M  END
>  <UniqueID>  (16) 
15

>  <SMILES>  (16) 
N#Cc1cc([N+](=O)[O-])ccc1NCCSc1ccccc1

>  <Energy>  (16) 
30.466602515109514

>  <Genealogy>  (16) 
N#Cc1cc([N+](=O)[O-])ccc1NCCSc1ccccc1 (3D coordinates assigned)
N#Cc1cc([N+](=O)[O-])ccc1NCCSc1ccccc1 (optimized conformer: 30.466602515109514 kcal/mol)

>  <smiles>  (16) 
N#Cc1cc([N+](=O)[O-])ccc1NCCSc1ccccc1

>  <score_type>  (16) 
oracle

>  <origin>  (16) 
adg

>  <m_score__min__energy>  (16) 
-7

>  <m_primary>  (16) 
energy

$$$$
16:0
     RDKit          3D

 33 35  0  0  0  0  0  0  0  0999 V2000
   59.5930   36.8710   46.7490 H   0  0  0  0  0  0  0  0  0  0  0  0
   59.8150   36.1200   46.0590 N   0  0  0  0  0  0  0  0  0  0  0  0
   60.2960   34.7280   46.9630 S   0  0  0  0  0  0  0  0  0  0  0  0
   60.0940   34.9830   48.4300 O   0  0  0  0  0  0  0  0  0  0  0  0
   61.7520   34.4600   46.6990 O   0  0  0  0  0  0  0  0  0  0  0  0
   59.3330   33.3390   46.4720 C   0  0  0  0  0  0  0  0  0  0  0  0
   58.7190   33.3200   45.2140 C   0  0  0  0  0  0  0  0  0  0  0  0
   58.8451   34.1723   44.5301 H   0  0  0  0  0  0  0  0  0  0  0  0
   57.9460   32.2220   44.8230 C   0  0  0  0  0  0  0  0  0  0  0  0
   57.4830   32.2077   43.8253 H   0  0  0  0  0  0  0  0  0  0  0  0
   57.7570   31.1400   45.6930 C   0  0  0  0  0  0  0  0  0  0  0  0
   56.9750   30.0230   45.2400 N   0  0  0  0  0  0  0  0  0  0  0  0
   57.3400   28.7750   45.2300 C   0  0  0  0  0  0  0  0  0  0  0  0
   56.4870   27.7290   45.2760 N   0  0  0  0  0  0  0  0  0  0  0  0
   57.1390   26.5360   45.2060 C   0  0  0  0  0  0  0  0  0  0  0  0
   56.4090   25.2410   45.2490 C   0  0  0  0  0  0  0  0  0  0  0  0
   57.0670   24.0420   44.9080 C   0  0  0  0  0  0  0  0  0  0  0  0
   58.1225   24.0690   44.5994 H   0  0  0  0  0  0  0  0  0  0  0  0
   56.3920   22.8190   44.9580 C   0  0  0  0  0  0  0  0  0  0  0  0
   57.3040   21.2040   44.4990 Br  0  0  0  0  0  0  0  0  0  0  0  0
   55.0530   22.7740   45.3490 C   0  0  0  0  0  0  0  0  0  0  0  0
   54.5231   21.8108   45.3870 H   0  0  0  0  0  0  0  0  0  0  0  0
   54.3860   23.9520   45.6920 C   0  0  0  0  0  0  0  0  0  0  0  0
   53.3312   23.9131   46.0016 H   0  0  0  0  0  0  0  0  0  0  0  0
   55.0520   25.1810   45.6440 C   0  0  0  0  0  0  0  0  0  0  0  0
   54.3490   26.3350   45.9770 O   0  0  0  0  0  0  0  0  0  0  0  0
   58.5290   26.6450   45.0890 C   0  0  0  0  0  0  0  0  0  0  0  0
   59.2369   25.8061   45.0177 H   0  0  0  0  0  0  0  0  0  0  0  0
   58.9330   28.2790   45.0760 S   0  0  0  0  0  0  0  0  0  0  0  0
   58.3950   31.1500   46.9480 C   0  0  0  0  0  0  0  0  0  0  0  0
   58.2858   30.2897   47.6247 H   0  0  0  0  0  0  0  0  0  0  0  0
   59.1670   32.2490   47.3380 C   0  0  0  0  0  0  0  0  0  0  0  0
   59.6459   32.2582   48.3282 H   0  0  0  0  0  0  0  0  0  0  0  0
  1  2  1  0
  2  3  1  0
  3  4  2  0
  3  5  2  0
  3  6  1  0
  6  7  2  0
  7  8  1  0
  7  9  1  0
  9 10  1  0
  9 11  2  0
 11 12  1  0
 12 13  2  0
 13 14  1  0
 14 15  1  0
 15 16  1  0
 16 17  2  0
 17 18  1  0
 17 19  1  0
 19 20  1  0
 19 21  2  0
 21 22  1  0
 21 23  1  0
 23 24  1  0
 23 25  2  0
 25 26  1  0
 15 27  2  0
 27 28  1  0
 27 29  1  0
 11 30  1  0
 30 31  1  0
 30 32  2  0
 32 33  1  0
 32  6  1  0
 29 13  1  0
 25 16  1  0
M  CHG  3   2  -1  14  -1  26  -1
M  END
>  <UniqueID>  (17) 
16

>  <SMILES>  (17) 
[NH-]S(=O)(=O)c1ccc(/N=c2\[n-]c(-c3cc(Br)ccc3[O-])cs2)cc1

>  <Energy>  (17) 
74.9530890222334

>  <Genealogy>  (17) 
[NH-]S(=O)(=O)c1ccc(N=c2[n-]c(-c3cc(Br)ccc3[O-])cs2)cc1 (protonated)
[NH-]S(=O)(=O)c1ccc(/N=c2\[n-]c(-c3cc(Br)ccc3[O-])cs2)cc1 (cis-trans isomerization)
[NH-]S(=O)(=O)c1ccc(/N=c2\[n-]c(-c3cc(Br)ccc3[O-])cs2)cc1 (3D coordinates assigned)
[NH-]S(=O)(=O)c1ccc(/N=c2\[n-]c(-c3cc(Br)ccc3[O-])cs2)cc1 (optimized conformer: 74.9530890222334 kcal/mol)

>  <smiles>  (17) 
NS(=O)(=O)c1ccc(N=c2[nH]c(-c3cc(Br)ccc3O)cs2)cc1

>  <score_type>  (17) 
oracle

>  <origin>  (17) 
adg

>  <m_score__min__energy>  (17) 
-14.039999999999999

>  <m_primary>  (17) 
energy

$$$$
17:0
     RDKit          3D

 51 54  0  0  0  0  0  0  0  0999 V2000
   55.1433   24.6802   46.6402 H   0  0  0  0  0  0  0  0  0  0  0  0
   55.9270   25.4090   46.3860 C   0  0  0  0  0  0  0  0  0  0  0  0
   55.5830   26.6460   45.9380 N   0  0  0  0  0  0  0  0  0  0  0  0
   56.5130   27.5830   45.6060 C   0  0  0  0  0  0  0  0  0  0  0  0
   56.0980   28.7410   45.1730 N   0  0  0  0  0  0  0  0  0  0  0  0
   56.6830   29.5490   44.1000 C   0  0  0  0  0  0  0  0  0  0  0  0
   57.4282   28.9460   43.5605 H   0  0  0  0  0  0  0  0  0  0  0  0
   55.8786   29.8647   43.4194 H   0  0  0  0  0  0  0  0  0  0  0  0
   57.3530   30.7790   44.6570 C   0  0  0  0  0  0  0  0  0  0  0  0
   58.2390   30.6800   45.7400 C   0  0  0  0  0  0  0  0  0  0  0  0
   58.4524   29.6967   46.1845 H   0  0  0  0  0  0  0  0  0  0  0  0
   58.8520   31.8250   46.2570 C   0  0  0  0  0  0  0  0  0  0  0  0
   59.5573   31.7345   47.0963 H   0  0  0  0  0  0  0  0  0  0  0  0
   58.5750   33.0890   45.7140 C   0  0  0  0  0  0  0  0  0  0  0  0
   59.2320   34.2980   46.2660 C   0  0  0  0  0  0  0  0  0  0  0  0
   59.4270   35.2910   45.5150 O   0  0  0  0  0  0  0  0  0  0  0  0
   59.6110   34.3960   47.6450 N   0  0  0  0  0  0  0  0  0  0  0  0
   60.8370   33.9220   48.2220 C   0  0  0  0  0  0  0  0  0  0  0  0
   61.8860   33.4300   47.4270 C   0  0  0  0  0  0  0  0  0  0  0  0
   61.7730   33.3926   46.3335 H   0  0  0  0  0  0  0  0  0  0  0  0
   63.0720   32.9880   48.0190 C   0  0  0  0  0  0  0  0  0  0  0  0
   63.8819   32.5917   47.3890 H   0  0  0  0  0  0  0  0  0  0  0  0
   63.2380   33.0460   49.4150 C   0  0  0  0  0  0  0  0  0  0  0  0
   64.4900   32.5740   50.0550 C   0  0  0  0  0  0  0  0  0  0  0  0
   65.6570   32.6780   49.5120 N   0  0  0  0  0  0  0  0  0  0  0  0
   65.8580   33.1200   48.5880 H   0  0  0  0  0  0  0  0  0  0  0  0
   66.6820   32.1370   50.3940 C   0  0  0  0  0  0  0  0  0  0  0  0
   67.2121   31.3047   49.9079 H   0  0  0  0  0  0  0  0  0  0  0  0
   67.4460   32.8852   50.6520 H   0  0  0  0  0  0  0  0  0  0  0  0
   65.9130   31.6420   51.6290 C   0  0  0  0  0  0  0  0  0  0  0  0
   66.0385   30.5569   51.7588 H   0  0  0  0  0  0  0  0  0  0  0  0
   66.2689   32.1029   52.5622 H   0  0  0  0  0  0  0  0  0  0  0  0
   64.5300   31.9700   51.3360 N   0  0  0  0  0  0  0  0  0  0  0  0
   63.7130   31.7260   51.9360 H   0  0  0  0  0  0  0  0  0  0  0  0
   62.1930   33.5600   50.2020 C   0  0  0  0  0  0  0  0  0  0  0  0
   62.3087   33.6148   51.2945 H   0  0  0  0  0  0  0  0  0  0  0  0
   61.0080   34.0020   49.6070 C   0  0  0  0  0  0  0  0  0  0  0  0
   60.2040   34.4159   50.2333 H   0  0  0  0  0  0  0  0  0  0  0  0
   57.6880   33.1860   44.6260 C   0  0  0  0  0  0  0  0  0  0  0  0
   57.4753   34.1685   44.1794 H   0  0  0  0  0  0  0  0  0  0  0  0
   57.0760   32.0410   44.1100 C   0  0  0  0  0  0  0  0  0  0  0  0
   56.3722   32.1295   43.2692 H   0  0  0  0  0  0  0  0  0  0  0  0
   57.8820   27.2670   45.7390 C   0  0  0  0  0  0  0  0  0  0  0  0
   58.6491   28.0088   45.4721 H   0  0  0  0  0  0  0  0  0  0  0  0
   58.2590   26.0030   46.2130 C   0  0  0  0  0  0  0  0  0  0  0  0
   59.7110   25.6380   46.3160 C   0  0  0  0  0  0  0  0  0  0  0  0
   59.9967   25.5662   47.3758 H   0  0  0  0  0  0  0  0  0  0  0  0
   59.8813   24.6691   45.8238 H   0  0  0  0  0  0  0  0  0  0  0  0
   60.3192   26.4112   45.8238 H   0  0  0  0  0  0  0  0  0  0  0  0
   57.2700   25.0620   46.5240 C   0  0  0  0  0  0  0  0  0  0  0  0
   57.5503   24.0576   46.8742 H   0  0  0  0  0  0  0  0  0  0  0  0
  1  2  1  0
  2  3  1  0
  3  4  1  0
  4  5  2  0
  5  6  1  0
  6  7  1  0
  6  8  1  0
  6  9  1  0
  9 10  2  0
 10 11  1  0
 10 12  1  0
 12 13  1  0
 12 14  2  0
 14 15  1  0
 15 16  2  0
 15 17  1  0
 17 18  1  0
 18 19  2  0
 19 20  1  0
 19 21  1  0
 21 22  1  0
 21 23  2  0
 23 24  1  0
 24 25  2  0
 25 26  1  0
 25 27  1  0
 27 28  1  0
 27 29  1  0
 27 30  1  0
 30 31  1  0
 30 32  1  0
 30 33  1  0
 33 34  1  0
 23 35  1  0
 35 36  1  0
 35 37  2  0
 37 38  1  0
 14 39  1  0
 39 40  1  0
 39 41  2  0
 41 42  1  0
  4 43  1  0
 43 44  1  0
 43 45  2  0
 45 46  1  0
 46 47  1  0
 46 48  1  0
 46 49  1  0
 45 50  1  0
 50 51  1  0
 50  2  2  0
 41  9  1  0
 37 18  1  0
 33 24  1  0
M  CHG  3   3  -1  17  -1  25   1
M  END
>  <UniqueID>  (18) 
17

>  <SMILES>  (18) 
Cc1cc[n-]/c(=N/Cc2ccc(C(=O)[N-]c3ccc(C4=[NH+]CCN4)cc3)cc2)c1

>  <Energy>  (18) 
76.31224999746296

>  <Genealogy>  (18) 
Cc1cc[n-]c(=NCc2ccc(C(=O)[N-]c3ccc(C4=[NH+]CCN4)cc3)cc2)c1 (protonated)
Cc1cc[n-]/c(=N/Cc2ccc(C(=O)[N-]c3ccc(C4=[NH+]CCN4)cc3)cc2)c1 (cis-trans isomerization)
Cc1cc[n-]/c(=N/Cc2ccc(C(=O)[N-]c3ccc(C4=[NH+]CCN4)cc3)cc2)c1 (3D coordinates assigned)
Cc1cc[n-]/c(=N/Cc2ccc(C(=O)[N-]c3ccc(C4=[NH+]CCN4)cc3)cc2)c1 (nonaromatic ring conformer: 76.31224999746296 kcal/mol)

>  <smiles>  (18) 
Cc1cc[nH]c(=NCc2ccc(C(=O)Nc3ccc(C4=NCCN4)cc3)cc2)c1

>  <score_type>  (18) 
oracle

>  <origin>  (18) 
adg

>  <m_score__min__energy>  (18) 
-11.109999999999999

>  <m_primary>  (18) 
energy

$$$$
18:0
     RDKit          3D

 47 48  0  0  0  0  0  0  0  0999 V2000
   57.4140   32.2020   44.5370 C   0  0  0  0  0  0  0  0  0  0  0  0
   56.2650   31.3740   44.8670 N   0  0  0  0  0  0  0  0  0  0  0  0
   55.9950   30.0900   44.2890 C   0  0  0  0  0  0  0  0  0  0  0  0
   55.1780   29.3260   44.8670 O   0  0  0  0  0  0  0  0  0  0  0  0
   56.5960   29.6640   42.9780 C   0  0  0  0  0  0  0  0  0  0  0  0
   57.3780   28.4800   43.1340 O   0  0  0  0  0  0  0  0  0  0  0  0
   58.2370   28.2070   44.2140 C   0  0  0  0  0  0  0  0  0  0  0  0
   58.9090   29.2340   44.9070 C   0  0  0  0  0  0  0  0  0  0  0  0
   59.7880   28.9300   45.9640 C   0  0  0  0  0  0  0  0  0  0  0  0
   60.4670   29.9180   46.6950 O   0  0  0  0  0  0  0  0  0  0  0  0
   59.8750   31.0940   47.2410 C   0  0  0  0  0  0  0  0  0  0  0  0
   59.9930   32.1460   46.3500 F   0  0  0  0  0  0  0  0  0  0  0  0
   58.5390   30.8670   47.5270 F   0  0  0  0  0  0  0  0  0  0  0  0
   60.5310   31.4250   48.4100 F   0  0  0  0  0  0  0  0  0  0  0  0
   60.0040   27.5940   46.3080 C   0  0  0  0  0  0  0  0  0  0  0  0
   59.3410   26.5700   45.6320 C   0  0  0  0  0  0  0  0  0  0  0  0
   58.4380   26.8660   44.5970 C   0  0  0  0  0  0  0  0  0  0  0  0
   57.7200   25.7450   43.8910 C   0  0  0  0  0  0  0  0  0  0  0  0
   56.9180   24.9550   44.8350 N   0  0  0  0  0  0  0  0  0  0  0  0
   56.1190   25.5910   45.8210 C   0  0  0  0  0  0  0  0  0  0  0  0
   56.4720   26.6250   46.4480 O   0  0  0  0  0  0  0  0  0  0  0  0
   54.8990   24.9870   46.0070 O   0  0  0  0  0  0  0  0  0  0  0  0
   54.7570   23.9220   45.0830 C   0  0  0  0  0  0  0  0  0  0  0  0
   56.1660   23.7520   44.4420 C   0  0  2  0  0  0  0  0  0  0  0  0
   56.8500   22.4400   44.9300 C   0  0  0  0  0  0  0  0  0  0  0  0
   58.2040   22.6850   45.6160 C   0  0  0  0  0  0  0  0  0  0  0  0
   57.0120   21.4140   43.8010 C   0  0  0  0  0  0  0  0  0  0  0  0
   57.8946   32.5484   45.4638 H   0  0  0  0  0  0  0  0  0  0  0  0
   58.1333   31.6133   43.9488 H   0  0  0  0  0  0  0  0  0  0  0  0
   57.0832   33.0706   43.9488 H   0  0  0  0  0  0  0  0  0  0  0  0
   55.7874   29.4687   42.2582 H   0  0  0  0  0  0  0  0  0  0  0  0
   57.2499   30.4702   42.6140 H   0  0  0  0  0  0  0  0  0  0  0  0
   58.7452   30.2830   44.6193 H   0  0  0  0  0  0  0  0  0  0  0  0
   60.7038   27.3468   47.1199 H   0  0  0  0  0  0  0  0  0  0  0  0
   59.5265   25.5223   45.9113 H   0  0  0  0  0  0  0  0  0  0  0  0
   57.0565   26.1701   43.1235 H   0  0  0  0  0  0  0  0  0  0  0  0
   58.4695   25.0846   43.4304 H   0  0  0  0  0  0  0  0  0  0  0  0
   54.4539   22.9996   45.6001 H   0  0  0  0  0  0  0  0  0  0  0  0
   53.9832   24.1300   44.3293 H   0  0  0  0  0  0  0  0  0  0  0  0
   56.1163   23.6590   43.3471 H   0  0  0  0  0  0  0  0  0  0  0  0
   56.1657   22.0240   45.6841 H   0  0  0  0  0  0  0  0  0  0  0  0
   58.0716   22.6610   46.7077 H   0  0  0  0  0  0  0  0  0  0  0  0
   58.9145   21.9008   45.3155 H   0  0  0  0  0  0  0  0  0  0  0  0
   58.5947   23.6684   45.3155 H   0  0  0  0  0  0  0  0  0  0  0  0
   57.1698   20.4149   44.2333 H   0  0  0  0  0  0  0  0  0  0  0  0
   56.1040   21.4056   43.1801 H   0  0  0  0  0  0  0  0  0  0  0  0
   57.8784   21.6858   43.1801 H   0  0  0  0  0  0  0  0  0  0  0  0
  1  2  1  0
  2  3  1  0
  3  4  2  0
  3  5  1  0
  5  6  1  0
  6  7  1  0
  7  8  2  0
  8  9  1  0
  9 10  1  0
 10 11  1  0
 11 12  1  0
 11 13  1  0
 11 14  1  0
  9 15  2  0
 15 16  1  0
 16 17  2  0
 17 18  1  0
 18 19  1  0
 19 20  1  0
 20 21  2  0
 20 22  1  0
 22 23  1  0
 23 24  1  0
 24 25  1  0
 25 26  1  0
 25 27  1  0
 17  7  1  0
 24 19  1  0
  1 28  1  0
  1 29  1  0
  1 30  1  0
  5 31  1  0
  5 32  1  0
  8 33  1  0
 15 34  1  0
 16 35  1  0
 18 36  1  0
 18 37  1  0
 23 38  1  0
 23 39  1  0
 24 40  1  6
 25 41  1  0
 26 42  1  0
 26 43  1  0
 26 44  1  0
 27 45  1  0
 27 46  1  0
 27 47  1  0
M  CHG  1   2  -1
M  END
>  <UniqueID>  (19) 
18

>  <SMILES>  (19) 
C[N-]C(=O)COc1cc(OC(F)(F)F)ccc1CN1C(=O)OC[C@@H]1C(C)C

>  <Energy>  (19) 
55.65419093446837

>  <Genealogy>  (19) 
C[N-]C(=O)COc1cc(OC(F)(F)F)ccc1CN1C(=O)OCC1C(C)C (protonated)
C[N-]C(=O)COc1cc(OC(F)(F)F)ccc1CN1C(=O)OC[C@@H]1C(C)C (chirality)
C[N-]C(=O)COc1cc(OC(F)(F)F)ccc1CN1C(=O)OC[C@@H]1C(C)C (3D coordinates assigned)
C[N-]C(=O)COc1cc(OC(F)(F)F)ccc1CN1C(=O)OC[C@@H]1C(C)C (nonaromatic ring conformer: 55.65419093446837 kcal/mol)

>  <smiles>  (19) 
CNC(=O)COc1cc(OC(F)(F)F)ccc1CN1C(=O)OCC1C(C)C

>  <score_type>  (19) 
oracle

>  <origin>  (19) 
adg

>  <m_score__min__energy>  (19) 
-7.9000000000000004

>  <m_primary>  (19) 
energy

$$$$
19:0
     RDKit          3D

 40 41  0  0  0  0  0  0  0  0999 V2000
   53.3580   30.7580   51.4840 C   0  0  0  0  0  0  0  0  0  0  0  0
   54.7670   30.7520   51.3550 O   0  0  0  0  0  0  0  0  0  0  0  0
   55.3880   30.6300   52.6200 C   0  0  0  0  0  0  0  0  0  0  0  0
   56.5700   31.5900   52.7280 C   0  0  0  0  0  0  0  0  0  0  0  0
   57.0590   31.9480   51.4020 N   0  0  0  0  0  0  0  0  0  0  0  0
   58.4140   32.3340   51.1600 C   0  0  0  0  0  0  0  0  0  0  0  0
   59.2660   32.2860   52.0850 O   0  0  0  0  0  0  0  0  0  0  0  0
   58.7810   32.8140   49.8640 N   0  0  0  0  0  0  0  0  0  0  0  0
   58.5900   32.1370   48.6150 C   0  0  0  0  0  0  0  0  0  0  0  0
   59.0310   30.8150   48.4940 C   0  0  0  0  0  0  0  0  0  0  0  0
   58.9240   30.1390   47.2770 C   0  0  0  0  0  0  0  0  0  0  0  0
   58.3790   30.7800   46.1570 C   0  0  0  0  0  0  0  0  0  0  0  0
   58.3120   29.8750   44.6010 S   0  0  0  0  0  0  0  0  0  0  0  0
   58.6690   28.2710   45.3480 C   0  0  0  0  0  0  0  0  0  0  0  0
   60.0160   27.8980   45.4790 C   0  0  0  0  0  0  0  0  0  0  0  0
   60.3670   26.7000   46.1040 C   0  0  0  0  0  0  0  0  0  0  0  0
   59.3740   25.8510   46.5890 C   0  0  0  0  0  0  0  0  0  0  0  0
   58.0310   26.1930   46.4430 C   0  0  0  0  0  0  0  0  0  0  0  0
   57.6510   27.3930   45.8060 C   0  0  0  0  0  0  0  0  0  0  0  0
   56.2010   27.6660   45.6270 C   0  0  0  0  0  0  0  0  0  0  0  0
   55.8160   28.7780   45.1840 O   0  0  0  0  0  0  0  0  0  0  0  0
   55.2380   26.7290   45.9860 O   0  0  0  0  0  0  0  0  0  0  0  0
   57.9640   32.1200   46.2630 C   0  0  0  0  0  0  0  0  0  0  0  0
   57.3620   33.0110   44.8730 Cl  0  0  0  0  0  0  0  0  0  0  0  0
   58.0670   32.7900   47.4890 C   0  0  0  0  0  0  0  0  0  0  0  0
   53.0874   30.7592   52.5502 H   0  0  0  0  0  0  0  0  0  0  0  0
   52.9494   31.6579   51.0010 H   0  0  0  0  0  0  0  0  0  0  0  0
   52.9418   29.8616   51.0010 H   0  0  0  0  0  0  0  0  0  0  0  0
   54.6566   30.8659   53.4070 H   0  0  0  0  0  0  0  0  0  0  0  0
   55.7535   29.5995   52.7399 H   0  0  0  0  0  0  0  0  0  0  0  0
   56.2494   32.5014   53.2540 H   0  0  0  0  0  0  0  0  0  0  0  0
   57.3800   31.0962   53.2849 H   0  0  0  0  0  0  0  0  0  0  0  0
   56.3700   32.0220   50.6170 H   0  0  0  0  0  0  0  0  0  0  0  0
   59.4659   30.3035   49.3653 H   0  0  0  0  0  0  0  0  0  0  0  0
   59.2695   29.0977   47.1973 H   0  0  0  0  0  0  0  0  0  0  0  0
   60.8037   28.5570   45.0848 H   0  0  0  0  0  0  0  0  0  0  0  0
   61.4268   26.4264   46.2136 H   0  0  0  0  0  0  0  0  0  0  0  0
   59.6505   24.9102   47.0874 H   0  0  0  0  0  0  0  0  0  0  0  0
   57.2549   25.5166   46.8306 H   0  0  0  0  0  0  0  0  0  0  0  0
   57.7354   33.8357   47.5693 H   0  0  0  0  0  0  0  0  0  0  0  0
  1  2  1  0
  2  3  1  0
  3  4  1  0
  4  5  1  0
  5  6  1  0
  6  7  2  0
  6  8  1  0
  8  9  1  0
  9 10  2  0
 10 11  1  0
 11 12  2  0
 12 13  1  0
 13 14  1  0
 14 15  2  0
 15 16  1  0
 16 17  2  0
 17 18  1  0
 18 19  2  0
 19 20  1  0
 20 21  2  0
 20 22  1  0
 12 23  1  0
 23 24  1  0
 23 25  2  0
 25  9  1  0
 19 14  1  0
  1 26  1  0
  1 27  1  0
  1 28  1  0
  3 29  1  0
  3 30  1  0
  4 31  1  0
  4 32  1  0
  5 33  1  0
 10 34  1  0
 11 35  1  0
 15 36  1  0
 16 37  1  0
 17 38  1  0
 18 39  1  0
 25 40  1  0
M  CHG  2   8  -1  22  -1
M  END
>  <UniqueID>  (20) 
19

>  <SMILES>  (20) 
COCCNC(=O)[N-]c1ccc(Sc2ccccc2C(=O)[O-])c(Cl)c1

>  <Energy>  (20) 
44.62848241806493

>  <Genealogy>  (20) 
COCCNC(=O)[N-]c1ccc(Sc2ccccc2C(=O)[O-])c(Cl)c1 (protonated)
COCCNC(=O)[N-]c1ccc(Sc2ccccc2C(=O)[O-])c(Cl)c1 (3D coordinates assigned)
COCCNC(=O)[N-]c1ccc(Sc2ccccc2C(=O)[O-])c(Cl)c1 (optimized conformer: 44.62848241806493 kcal/mol)

>  <smiles>  (20) 
COCCNC(=O)Nc1ccc(Sc2ccccc2C(=O)O)c(Cl)c1

>  <score_type>  (20) 
oracle

>  <origin>  (20) 
adg

>  <m_score__min__energy>  (20) 
-11.44

>  <m_primary>  (20) 
energy

$$$$
20:0
     RDKit          3D

 49 51  0  0  0  0  0  0  0  0999 V2000
   56.9960   21.7940   43.3450 C   0  0  0  0  0  0  0  0  0  0  0  0
   55.7270   22.4070   43.3310 O   0  0  0  0  0  0  0  0  0  0  0  0
   55.8420   23.7380   43.7880 C   0  0  0  0  0  0  0  0  0  0  0  0
   54.8670   23.9730   44.9070 C   0  0  0  0  0  0  0  0  0  0  0  0
   53.7690   23.3580   44.9000 O   0  0  0  0  0  0  0  0  0  0  0  0
   55.1590   24.8500   46.0060 N   0  0  0  0  0  0  0  0  0  0  0  0
   56.3060   25.6990   46.1350 C   0  0  0  0  0  0  0  0  0  0  0  0
   57.5110   25.2230   46.6660 C   0  0  0  0  0  0  0  0  0  0  0  0
   58.6170   26.0690   46.7710 C   0  0  0  0  0  0  0  0  0  0  0  0
   58.5420   27.4030   46.3380 C   0  0  0  0  0  0  0  0  0  0  0  0
   59.7690   28.2690   46.4530 C   0  0  0  0  0  0  0  0  0  0  0  0
   57.3420   27.8730   45.7480 C   0  0  0  0  0  0  0  0  0  0  0  0
   57.1860   29.5270   45.1370 S   0  0  0  0  0  0  0  0  0  0  0  0
   57.9600   29.6860   43.8580 O   0  0  0  0  0  0  0  0  0  0  0  0
   55.7320   29.8060   44.8750 O   0  0  0  0  0  0  0  0  0  0  0  0
   57.8140   30.6360   46.3110 N   0  0  0  0  0  0  0  0  0  0  0  0
   58.1760   32.0000   46.0550 C   0  0  0  0  0  0  0  0  0  0  0  0
   57.3560   32.7380   45.1920 C   0  0  0  0  0  0  0  0  0  0  0  0
   57.6520   34.0690   44.8920 C   0  0  0  0  0  0  0  0  0  0  0  0
   58.7670   34.6800   45.4620 C   0  0  0  0  0  0  0  0  0  0  0  0
   59.5760   33.9690   46.3510 C   0  0  0  0  0  0  0  0  0  0  0  0
   59.2770   32.6330   46.6820 C   0  0  0  0  0  0  0  0  0  0  0  0
   60.0760   31.9260   47.6430 N   0  0  0  0  0  0  0  0  0  0  0  0
   61.4420   31.5260   47.4540 C   0  0  0  0  0  0  0  0  0  0  0  0
   61.7150   30.5370   46.7230 O   0  0  0  0  0  0  0  0  0  0  0  0
   62.5770   32.2970   48.0680 C   0  0  0  0  0  0  0  0  0  0  0  0
   63.3540   33.1360   47.0650 C   0  0  0  0  0  0  0  0  0  0  0  0
   62.4750   33.8170   48.1020 C   0  0  0  0  0  0  0  0  0  0  0  0
   56.2380   27.0100   45.6540 C   0  0  0  0  0  0  0  0  0  0  0  0
   57.3169   21.6390   44.3857 H   0  0  0  0  0  0  0  0  0  0  0  0
   56.9401   20.8235   42.8301 H   0  0  0  0  0  0  0  0  0  0  0  0
   57.7214   22.4410   42.8301 H   0  0  0  0  0  0  0  0  0  0  0  0
   56.8654   23.9131   44.1514 H   0  0  0  0  0  0  0  0  0  0  0  0
   55.6217   24.4286   42.9606 H   0  0  0  0  0  0  0  0  0  0  0  0
   57.5867   24.1783   47.0018 H   0  0  0  0  0  0  0  0  0  0  0  0
   59.5564   25.6868   47.1971 H   0  0  0  0  0  0  0  0  0  0  0  0
   60.0030   28.4342   47.5151 H   0  0  0  0  0  0  0  0  0  0  0  0
   60.6179   27.7689   45.9640 H   0  0  0  0  0  0  0  0  0  0  0  0
   59.5821   29.2364   45.9640 H   0  0  0  0  0  0  0  0  0  0  0  0
   56.4694   32.2639   44.7459 H   0  0  0  0  0  0  0  0  0  0  0  0
   57.0051   34.6352   44.2058 H   0  0  0  0  0  0  0  0  0  0  0  0
   59.0102   35.7231   45.2116 H   0  0  0  0  0  0  0  0  0  0  0  0
   60.4552   34.4570   46.7970 H   0  0  0  0  0  0  0  0  0  0  0  0
   62.8045   31.5394   48.8324 H   0  0  0  0  0  0  0  0  0  0  0  0
   64.4491   33.2080   47.1400 H   0  0  0  0  0  0  0  0  0  0  0  0
   63.4267   33.1657   45.9678 H   0  0  0  0  0  0  0  0  0  0  0  0
   62.9341   34.3808   48.9274 H   0  0  0  0  0  0  0  0  0  0  0  0
   61.6488   34.5424   48.0662 H   0  0  0  0  0  0  0  0  0  0  0  0
   55.3058   27.3710   45.1950 H   0  0  0  0  0  0  0  0  0  0  0  0
  1  2  1  0
  2  3  1  0
  3  4  1  0
  4  5  2  0
  4  6  1  0
  6  7  1  0
  7  8  2  0
  8  9  1  0
  9 10  2  0
 10 11  1  0
 10 12  1  0
 12 13  1  0
 13 14  2  0
 13 15  2  0
 13 16  1  0
 16 17  1  0
 17 18  2  0
 18 19  1  0
 19 20  2  0
 20 21  1  0
 21 22  2  0
 22 23  1  0
 23 24  1  0
 24 25  2  0
 24 26  1  0
 26 27  1  0
 27 28  1  0
 12 29  2  0
 29  7  1  0
 22 17  1  0
 28 26  1  0
  1 30  1  0
  1 31  1  0
  1 32  1  0
  3 33  1  0
  3 34  1  0
  8 35  1  0
  9 36  1  0
 11 37  1  0
 11 38  1  0
 11 39  1  0
 18 40  1  0
 19 41  1  0
 20 42  1  0
 21 43  1  0
 26 44  1  0
 27 45  1  0
 27 46  1  0
 28 47  1  0
 28 48  1  0
 29 49  1  0
M  CHG  3   6  -1  16  -1  23  -1
M  END
>  <UniqueID>  (21) 
20

>  <SMILES>  (21) 
COCC(=O)[N-]c1ccc(C)c(S(=O)(=O)[N-]c2ccccc2[N-]C(=O)C2CC2)c1

>  <Energy>  (21) 
331.3885718241745

>  <Genealogy>  (21) 
COCC(=O)[N-]c1ccc(C)c(S(=O)(=O)[N-]c2ccccc2[N-]C(=O)C2CC2)c1 (protonated)
COCC(=O)[N-]c1ccc(C)c(S(=O)(=O)[N-]c2ccccc2[N-]C(=O)C2CC2)c1 (3D coordinates assigned)
COCC(=O)[N-]c1ccc(C)c(S(=O)(=O)[N-]c2ccccc2[N-]C(=O)C2CC2)c1 (nonaromatic ring conformer: 331.3885718241745 kcal/mol)

>  <smiles>  (21) 
COCC(=O)Nc1ccc(C)c(S(=O)(=O)Nc2ccccc2NC(=O)C2CC2)c1

>  <score_type>  (21) 
oracle

>  <origin>  (21) 
adg

>  <m_score__min__energy>  (21) 
-13.380000000000001

>  <m_primary>  (21) 
energy

$$$$
21:0
     RDKit          3D

 58 62  0  0  1  0  0  0  0  0999 V2000
   56.3640   20.5240   44.4510 C   0  0  0  0  0  0  0  0  0  0  0  0
   56.1560   21.9290   44.8840 C   0  0  0  0  0  0  0  0  0  0  0  0
   55.5470   22.7890   43.9950 C   0  0  0  0  0  0  0  0  0  0  0  0
   55.3610   24.0890   44.4140 C   0  0  0  0  0  0  0  0  0  0  0  0
   55.7590   24.5270   45.6650 C   0  0  0  0  0  0  0  0  0  0  0  0
   55.5170   25.8680   45.9950 N   0  0  0  0  0  0  0  0  0  0  0  0
   56.4290   26.7750   45.9390 C   0  0  0  0  0  0  0  0  0  0  0  0
   56.1220   27.9720   45.4070 N   0  0  0  0  0  0  0  0  0  0  0  0
   57.0180   28.9620   45.3140 C   0  0  0  0  0  0  0  0  0  0  0  0
   56.6840   30.0570   44.8060 N   0  0  0  0  0  0  0  0  0  0  0  0
   57.3270   31.2680   44.7920 C   0  0  0  0  0  0  0  0  0  0  0  0
   57.6400   31.8340   43.5400 C   0  0  0  0  0  0  0  0  0  0  0  0
   58.2380   33.0740   43.4760 C   0  0  0  0  0  0  0  0  0  0  0  0
   58.5250   33.7530   44.6430 C   0  0  0  0  0  0  0  0  0  0  0  0
   59.1310   34.9970   44.5010 O   0  0  0  0  0  0  0  0  0  0  0  0
   58.2360   33.2380   45.8890 C   0  0  0  0  0  0  0  0  0  0  0  0
   58.4850   33.9280   47.1530 C   0  0  0  0  0  0  0  0  0  0  0  0
   59.7250   34.5830   47.3270 N   0  0  0  0  0  0  0  0  0  0  0  0
   60.8940   34.0320   46.7390 C   0  0  0  0  0  0  0  0  0  0  0  0
   61.4310   33.0000   47.7050 C   0  0  0  0  0  0  0  0  0  0  0  0
   60.8600   33.3940   49.0240 C   0  0  0  0  0  0  0  0  0  0  0  0
   59.9960   34.5950   48.7700 C   0  0  0  0  0  0  0  0  0  0  0  0
   57.6280   31.9760   45.9670 C   0  0  0  0  0  0  0  0  0  0  0  0
   58.2870   28.7790   45.7640 C   0  0  0  0  0  0  0  0  0  0  0  0
   59.3840   29.5850   45.8010 C   0  0  0  0  0  0  0  0  0  0  0  0
   60.3800   28.7880   46.3960 C   0  0  0  0  0  0  0  0  0  0  0  0
   59.8780   27.5780   46.6880 N   0  0  0  0  0  0  0  0  0  0  0  0
   58.5890   27.5390   46.3110 C   0  0  0  0  0  0  0  0  0  0  0  0
   57.6650   26.5490   46.3960 N   0  0  0  0  0  0  0  0  0  0  0  0
   56.3700   23.6410   46.5430 C   0  0  0  0  0  0  0  0  0  0  0  0
   56.7740   24.0640   47.8000 O   0  0  0  0  0  0  0  0  0  0  0  0
   56.5670   22.3340   46.1430 C   0  0  0  0  0  0  0  0  0  0  0  0
   56.4597   19.8779   45.3361 H   0  0  0  0  0  0  0  0  0  0  0  0
   55.5048   20.1951   43.8481 H   0  0  0  0  0  0  0  0  0  0  0  0
   57.2817   20.4582   43.8481 H   0  0  0  0  0  0  0  0  0  0  0  0
   55.2247   22.4535   42.9982 H   0  0  0  0  0  0  0  0  0  0  0  0
   54.8793   24.8033   43.7300 H   0  0  0  0  0  0  0  0  0  0  0  0
   55.1460   28.1110   45.0610 H   0  0  0  0  0  0  0  0  0  0  0  0
   57.4072   31.2866   42.6147 H   0  0  0  0  0  0  0  0  0  0  0  0
   58.4850   33.5198   42.5012 H   0  0  0  0  0  0  0  0  0  0  0  0
   59.5270   35.4350   45.3230 H   0  0  0  0  0  0  0  0  0  0  0  0
   57.6970   34.6865   47.2705 H   0  0  0  0  0  0  0  0  0  0  0  0
   58.4959   33.1236   47.9032 H   0  0  0  0  0  0  0  0  0  0  0  0
   60.6457   33.5570   45.7784 H   0  0  0  0  0  0  0  0  0  0  0  0
   61.6421   34.8148   46.5453 H   0  0  0  0  0  0  0  0  0  0  0  0
   61.0968   31.9909   47.4220 H   0  0  0  0  0  0  0  0  0  0  0  0
   62.5305   32.9689   47.7167 H   0  0  0  0  0  0  0  0  0  0  0  0
   60.2572   32.5724   49.4383 H   0  0  0  0  0  0  0  0  0  0  0  0
   61.6541   33.6205   49.7507 H   0  0  0  0  0  0  0  0  0  0  0  0
   59.0572   34.5207   49.3384 H   0  0  0  0  0  0  0  0  0  0  0  0
   60.4880   35.5267   49.0858 H   0  0  0  0  0  0  0  0  0  0  0  0
   57.3871   31.5411   46.9483 H   0  0  0  0  0  0  0  0  0  0  0  0
   59.4718   30.6226   45.4466 H   0  0  0  0  0  0  0  0  0  0  0  0
   61.4138   29.1085   46.5921 H   0  0  0  0  0  0  0  0  0  0  0  0
   60.3960   26.7880   47.1340 H   0  0  0  0  0  0  0  0  0  0  0  0
   57.8730   25.6250   46.7980 H   0  0  0  0  0  0  0  0  0  0  0  0
   56.5620   25.0380   48.0600 H   0  0  0  0  0  0  0  0  0  0  0  0
   57.0493   21.6162   46.8228 H   0  0  0  0  0  0  0  0  0  0  0  0
  1  2  1  0
  2  3  2  0
  3  4  1  0
  4  5  2  0
  5  6  1  0
  6  7  2  0
  7  8  1  0
  8  9  1  0
  9 10  2  0
 10 11  1  0
 11 12  2  0
 12 13  1  0
 13 14  2  0
 14 15  1  0
 14 16  1  0
 16 17  1  0
 17 18  1  0
 18 19  1  0
 19 20  1  0
 20 21  1  0
 21 22  1  0
 16 23  2  0
  9 24  1  0
 24 25  1  0
 25 26  2  0
 26 27  1  0
 27 28  1  0
 28 29  1  0
  5 30  1  0
 30 31  1  0
 30 32  2  0
 32  2  1  0
 29  7  1  0
 23 11  1  0
 28 24  2  0
 22 18  1  0
  1 33  1  0
  1 34  1  0
  1 35  1  0
  3 36  1  0
  4 37  1  0
  8 38  1  0
 12 39  1  0
 13 40  1  0
 15 41  1  0
 17 42  1  0
 17 43  1  0
 19 44  1  0
 19 45  1  0
 20 46  1  0
 20 47  1  0
 21 48  1  0
 21 49  1  0
 22 50  1  0
 22 51  1  0
 23 52  1  0
 25 53  1  0
 26 54  1  0
 27 55  1  0
 29 56  1  0
 31 57  1  0
 32 58  1  0
M  END
>  <smiles>  (22) 
Cc1ccc(N=c2[nH]c(=Nc3ccc(O)c(CN4CCCC4)c3)c3cc[nH]c3[nH]2)c(O)c1

>  <score_type>  (22) 
oracle

>  <origin>  (22) 
adg

>  <m_score__min__energy>  (22) 
-10.630000000000001

>  <m_primary>  (22) 
energy

$$$$
22:0
     RDKit          3D

 48 49  0  0  0  0  0  0  0  0999 V2000
   54.3550   24.3820   47.0170 H   0  0  0  0  0  0  0  0  0  0  0  0
   55.3270   24.1000   47.0240 O   0  0  0  0  0  0  0  0  0  0  0  0
   56.3620   25.0060   46.7990 C   0  0  0  0  0  0  0  0  0  0  0  0
   57.6790   24.6170   47.0570 C   0  0  0  0  0  0  0  0  0  0  0  0
   57.8856   23.6026   47.4290 H   0  0  0  0  0  0  0  0  0  0  0  0
   58.7360   25.5070   46.8460 C   0  0  0  0  0  0  0  0  0  0  0  0
   59.7676   25.1916   47.0614 H   0  0  0  0  0  0  0  0  0  0  0  0
   58.4880   26.8060   46.3590 C   0  0  0  0  0  0  0  0  0  0  0  0
   59.5650   27.8020   46.1230 C   0  0  0  0  0  0  0  0  0  0  0  0
   59.8637   27.9957   45.0822 H   0  0  0  0  0  0  0  0  0  0  0  0
   60.1980   28.4810   47.0900 C   0  0  0  0  0  0  0  0  0  0  0  0
   61.1859   28.9172   46.8810 H   0  0  0  0  0  0  0  0  0  0  0  0
   59.6030   28.6570   48.4250 C   0  0  0  0  0  0  0  0  0  0  0  0
   58.3480   28.6750   48.5450 O   0  0  0  0  0  0  0  0  0  0  0  0
   60.4240   28.8120   49.5460 O   0  0  0  0  0  0  0  0  0  0  0  0
   59.9570   29.3270   50.7900 C   0  0  0  0  0  0  0  0  0  0  0  0
   59.3690   28.5543   51.3069 H   0  0  0  0  0  0  0  0  0  0  0  0
   60.8194   29.6146   51.4093 H   0  0  0  0  0  0  0  0  0  0  0  0
   59.0770   30.5580   50.5480 C   0  0  0  0  0  0  0  0  0  0  0  0
   59.6521   31.4546   50.8225 H   0  0  0  0  0  0  0  0  0  0  0  0
   58.7962   30.5467   49.4845 H   0  0  0  0  0  0  0  0  0  0  0  0
   57.7660   30.5550   51.3580 C   0  0  0  0  0  0  0  0  0  0  0  0
   57.2456   31.5075   51.1792 H   0  0  0  0  0  0  0  0  0  0  0  0
   57.1821   29.6864   51.0195 H   0  0  0  0  0  0  0  0  0  0  0  0
   57.9740   30.3920   52.8790 C   0  0  0  0  0  0  0  0  0  0  0  0
   59.0496   30.2783   53.0793 H   0  0  0  0  0  0  0  0  0  0  0  0
   57.5671   31.2865   53.3733 H   0  0  0  0  0  0  0  0  0  0  0  0
   57.2340   29.1660   53.4380 C   0  0  0  0  0  0  0  0  0  0  0  0
   57.1776   28.3931   52.6573 H   0  0  0  0  0  0  0  0  0  0  0  0
   57.7870   28.7914   54.3120 H   0  0  0  0  0  0  0  0  0  0  0  0
   55.8830   29.5180   53.8590 N   0  0  0  0  0  0  0  0  0  0  0  0
   54.6880   29.0380   53.2340 C   0  0  0  0  0  0  0  0  0  0  0  0
   54.5340   27.8000   53.0450 O   0  0  0  0  0  0  0  0  0  0  0  0
   53.6360   29.9920   52.8050 C   0  0  0  0  0  0  0  0  0  0  0  0
   52.3610   29.9840   53.4150 C   0  0  0  0  0  0  0  0  0  0  0  0
   52.0590   29.0890   54.4380 O   0  0  0  0  0  0  0  0  0  0  0  0
   51.3790   30.8950   53.0110 C   0  0  0  0  0  0  0  0  0  0  0  0
   50.3898   30.8822   53.4919 H   0  0  0  0  0  0  0  0  0  0  0  0
   51.6480   31.8200   52.0010 C   0  0  0  0  0  0  0  0  0  0  0  0
   50.6670   32.7190   51.6040 O   0  0  0  0  0  0  0  0  0  0  0  0
   52.9010   31.8360   51.3880 C   0  0  0  0  0  0  0  0  0  0  0  0
   53.1104   32.5645   50.5909 H   0  0  0  0  0  0  0  0  0  0  0  0
   53.8930   30.9310   51.7810 C   0  0  0  0  0  0  0  0  0  0  0  0
   55.1230   30.9640   51.1330 O   0  0  0  0  0  0  0  0  0  0  0  0
   57.1590   27.1940   46.1140 C   0  0  0  0  0  0  0  0  0  0  0  0
   56.9476   28.2103   45.7500 H   0  0  0  0  0  0  0  0  0  0  0  0
   56.1020   26.3020   46.3280 C   0  0  0  0  0  0  0  0  0  0  0  0
   54.7990   26.7140   46.0750 O   0  0  0  0  0  0  0  0  0  0  0  0
  1  2  1  0
  2  3  1  0
  3  4  2  0
  4  5  1  0
  4  6  1  0
  6  7  1  0
  6  8  2  0
  8  9  1  0
  9 10  1  0
  9 11  2  0
 11 12  1  0
 11 13  1  0
 13 14  2  0
 13 15  1  0
 15 16  1  0
 16 17  1  0
 16 18  1  0
 16 19  1  0
 19 20  1  0
 19 21  1  0
 19 22  1  0
 22 23  1  0
 22 24  1  0
 22 25  1  0
 25 26  1  0
 25 27  1  0
 25 28  1  0
 28 29  1  0
 28 30  1  0
 28 31  1  0
 31 32  1  0
 32 33  2  0
 32 34  1  0
 34 35  2  0
 35 36  1  0
 35 37  1  0
 37 38  1  0
 37 39  2  0
 39 40  1  0
 39 41  1  0
 41 42  1  0
 41 43  2  0
 43 44  1  0
  8 45  1  0
 45 46  1  0
 45 47  2  0
 47 48  1  0
 47  3  1  0
 43 34  1  0
M  CHG  5  31  -1  36  -1  40  -1  44  -1  48  -1
M  END
>  <UniqueID>  (23) 
21

>  <SMILES>  (23) 
O=C(/C=C/c1ccc(O)c([O-])c1)OCCCCC[N-]C(=O)c1c([O-])cc([O-])cc1[O-]

>  <Energy>  (23) 
39.3746927504767

>  <Genealogy>  (23) 
O=C(C=Cc1ccc(O)c([O-])c1)OCCCCC[N-]C(=O)c1c([O-])cc([O-])cc1[O-] (protonated)
O=C(/C=C/c1ccc(O)c([O-])c1)OCCCCC[N-]C(=O)c1c([O-])cc([O-])cc1[O-] (cis-trans isomerization)
O=C(/C=C/c1ccc(O)c([O-])c1)OCCCCC[N-]C(=O)c1c([O-])cc([O-])cc1[O-] (3D coordinates assigned)
O=C(/C=C/c1ccc(O)c([O-])c1)OCCCCC[N-]C(=O)c1c([O-])cc([O-])cc1[O-] (optimized conformer: 39.3746927504767 kcal/mol)

>  <smiles>  (23) 
O=C(C=Cc1ccc(O)c(O)c1)OCCCCCNC(=O)c1c(O)cc(O)cc1O

>  <score_type>  (23) 
oracle

>  <origin>  (23) 
adg

>  <m_score__min__energy>  (23) 
-17.16

>  <m_primary>  (23) 
energy

$$$$
23:0
     RDKit          3D

 48 50  0  0  0  0  0  0  0  0999 V2000
   59.3620   35.0630   47.5020 N   0  0  0  0  0  0  0  0  0  0  0  0
   59.6170   33.3540   47.6050 S   0  0  0  0  0  0  0  0  0  0  0  0
   59.5910   32.7940   46.2110 O   0  0  0  0  0  0  0  0  0  0  0  0
   58.5140   32.7170   48.4020 O   0  0  0  0  0  0  0  0  0  0  0  0
   61.1820   33.0110   48.3640 C   0  0  0  0  0  0  0  0  0  0  0  0
   62.0240   34.0870   48.6920 C   0  0  0  0  0  0  0  0  0  0  0  0
   63.2450   33.8640   49.3320 C   0  0  0  0  0  0  0  0  0  0  0  0
   63.6410   32.5660   49.6540 C   0  0  0  0  0  0  0  0  0  0  0  0
   62.8210   31.4850   49.3270 C   0  0  0  0  0  0  0  0  0  0  0  0
   61.5960   31.6910   48.6720 C   0  0  0  0  0  0  0  0  0  0  0  0
   60.7780   30.5120   48.3280 C   0  0  0  0  0  0  0  0  0  0  0  0
   59.7990   30.0510   49.2190 C   0  0  0  0  0  0  0  0  0  0  0  0
   59.0120   28.9430   48.8880 C   0  0  0  0  0  0  0  0  0  0  0  0
   59.1930   28.2880   47.6610 C   0  0  0  0  0  0  0  0  0  0  0  0
   58.3490   27.1280   47.3160 C   0  0  0  0  0  0  0  0  0  0  0  0
   58.5600   26.0250   47.8860 O   0  0  0  0  0  0  0  0  0  0  0  0
   57.2670   27.2270   46.3800 N   0  0  0  0  0  0  0  0  0  0  0  0
   57.4280   27.3650   44.9380 C   0  0  0  0  0  0  0  0  0  0  0  0
   57.4020   28.8210   44.5730 C   0  0  0  0  0  0  0  0  0  0  0  0
   58.6010   29.5360   44.4330 C   0  0  0  0  0  0  0  0  0  0  0  0
   58.5760   30.9000   44.1300 C   0  0  0  0  0  0  0  0  0  0  0  0
   57.3590   31.5730   43.9710 C   0  0  0  0  0  0  0  0  0  0  0  0
   57.3950   32.9410   43.6650 O   0  0  0  0  0  0  0  0  0  0  0  0
   57.4090   34.1990   44.8260 S   0  0  0  0  0  0  0  0  0  0  0  0
   57.0870   33.5320   46.3870 N   0  0  0  0  0  0  0  0  0  0  0  0
   58.7560   34.8640   44.8400 O   0  0  0  0  0  0  0  0  0  0  0  0
   56.3490   35.2120   44.4920 O   0  0  0  0  0  0  0  0  0  0  0  0
   56.1560   30.8590   44.1250 C   0  0  0  0  0  0  0  0  0  0  0  0
   56.1800   29.4940   44.4300 C   0  0  0  0  0  0  0  0  0  0  0  0
   60.2050   28.7220   46.7920 C   0  0  0  0  0  0  0  0  0  0  0  0
   60.9940   29.8270   47.1230 C   0  0  0  0  0  0  0  0  0  0  0  0
   58.4800   35.2190   46.9630 H   0  0  0  0  0  0  0  0  0  0  0  0
   61.7187   35.1139   48.4425 H   0  0  0  0  0  0  0  0  0  0  0  0
   63.8962   34.7143   49.5828 H   0  0  0  0  0  0  0  0  0  0  0  0
   64.5995   32.3943   50.1656 H   0  0  0  0  0  0  0  0  0  0  0  0
   63.1369   30.4633   49.5845 H   0  0  0  0  0  0  0  0  0  0  0  0
   59.6492   30.5621   50.1814 H   0  0  0  0  0  0  0  0  0  0  0  0
   58.2479   28.5838   49.5930 H   0  0  0  0  0  0  0  0  0  0  0  0
   58.3893   26.9266   44.6320 H   0  0  0  0  0  0  0  0  0  0  0  0
   56.6084   26.8415   44.4239 H   0  0  0  0  0  0  0  0  0  0  0  0
   59.5644   29.0210   44.5622 H   0  0  0  0  0  0  0  0  0  0  0  0
   59.5217   31.4500   44.0154 H   0  0  0  0  0  0  0  0  0  0  0  0
   57.5700   32.6070   46.4280 H   0  0  0  0  0  0  0  0  0  0  0  0
   57.5590   34.1490   47.0840 H   0  0  0  0  0  0  0  0  0  0  0  0
   55.1928   31.3765   44.0050 H   0  0  0  0  0  0  0  0  0  0  0  0
   55.2352   28.9455   44.5584 H   0  0  0  0  0  0  0  0  0  0  0  0
   60.3785   28.1898   45.8451 H   0  0  0  0  0  0  0  0  0  0  0  0
   61.7865   30.1605   46.4369 H   0  0  0  0  0  0  0  0  0  0  0  0
  1  2  1  0
  2  3  2  0
  2  4  2  0
  2  5  1  0
  5  6  2  0
  6  7  1  0
  7  8  2  0
  8  9  1  0
  9 10  2  0
 10 11  1  0
 11 12  2  0
 12 13  1  0
 13 14  2  0
 14 15  1  0
 15 16  2  0
 15 17  1  0
 17 18  1  0
 18 19  1  0
 19 20  2  0
 20 21  1  0
 21 22  2  0
 22 23  1  0
 23 24  1  0
 24 25  1  0
 24 26  2  0
 24 27  2  0
 22 28  1  0
 28 29  2  0
 14 30  1  0
 30 31  2  0
 10  5  1  0
 31 11  1  0
 29 19  1  0
  1 32  1  0
  6 33  1  0
  7 34  1  0
  8 35  1  0
  9 36  1  0
 12 37  1  0
 13 38  1  0
 18 39  1  0
 18 40  1  0
 20 41  1  0
 21 42  1  0
 25 43  1  0
 25 44  1  0
 28 45  1  0
 29 46  1  0
 30 47  1  0
 31 48  1  0
M  CHG  2   1  -1  17  -1
M  END
>  <UniqueID>  (24) 
22

>  <SMILES>  (24) 
[NH-]S(=O)(=O)c1ccccc1-c1ccc(C(=O)[N-]Cc2ccc(OS(N)(=O)=O)cc2)cc1

>  <Energy>  (24) 
59.0061218383997

>  <Genealogy>  (24) 
[NH-]S(=O)(=O)c1ccccc1-c1ccc(C(=O)[N-]Cc2ccc(OS(N)(=O)=O)cc2)cc1 (protonated)
[NH-]S(=O)(=O)c1ccccc1-c1ccc(C(=O)[N-]Cc2ccc(OS(N)(=O)=O)cc2)cc1 (3D coordinates assigned)
[NH-]S(=O)(=O)c1ccccc1-c1ccc(C(=O)[N-]Cc2ccc(OS(N)(=O)=O)cc2)cc1 (optimized conformer: 59.0061218383997 kcal/mol)

>  <smiles>  (24) 
NS(=O)(=O)Oc1ccc(CNC(=O)c2ccc(-c3ccccc3S(N)(=O)=O)cc2)cc1

>  <score_type>  (24) 
oracle

>  <origin>  (24) 
adg

>  <m_score__min__energy>  (24) 
-11.77

>  <m_primary>  (24) 
energy

$$$$
24:0
     RDKit          3D

 40 42  0  0  0  0  0  0  0  0999 V2000
   59.1539   30.7003   46.0492 H   0  0  0  0  0  0  0  0  0  0  0  0
   58.4860   30.2690   45.2890 C   0  0  0  0  0  0  0  0  0  0  0  0
   58.7160   28.9730   44.8150 C   0  0  0  0  0  0  0  0  0  0  0  0
   59.5530   28.3830   45.2168 H   0  0  0  0  0  0  0  0  0  0  0  0
   57.8830   28.4230   43.8290 C   0  0  0  0  0  0  0  0  0  0  0  0
   58.1470   27.0330   43.3110 C   0  0  0  0  0  0  0  0  0  0  0  0
   59.2325   26.8835   43.2141 H   0  0  0  0  0  0  0  0  0  0  0  0
   57.6584   26.9208   42.3319 H   0  0  0  0  0  0  0  0  0  0  0  0
   57.5980   26.0200   44.2360 N   0  0  0  0  0  0  0  0  0  0  0  0
   57.3530   24.7600   43.5140 C   0  0  0  0  0  0  0  0  0  0  0  0
   57.1950   23.9472   44.2382 H   0  0  0  0  0  0  0  0  0  0  0  0
   56.4589   24.8673   42.8823 H   0  0  0  0  0  0  0  0  0  0  0  0
   58.2222   24.5244   42.8823 H   0  0  0  0  0  0  0  0  0  0  0  0
   58.5250   25.7730   45.3540 C   0  0  0  0  0  0  0  0  0  0  0  0
   57.9952   25.9142   46.3076 H   0  0  0  0  0  0  0  0  0  0  0  0
   58.9047   24.7423   45.2946 H   0  0  0  0  0  0  0  0  0  0  0  0
   59.3672   26.4781   45.2946 H   0  0  0  0  0  0  0  0  0  0  0  0
   56.8300   29.1910   43.3080 C   0  0  0  0  0  0  0  0  0  0  0  0
   56.1813   28.7720   42.5247 H   0  0  0  0  0  0  0  0  0  0  0  0
   56.6030   30.4860   43.7810 C   0  0  0  0  0  0  0  0  0  0  0  0
   55.7894   31.0907   43.3540 H   0  0  0  0  0  0  0  0  0  0  0  0
   57.4110   31.0190   44.8010 C   0  0  0  0  0  0  0  0  0  0  0  0
   57.2270   32.3650   45.2580 N   0  0  0  0  0  0  0  0  0  0  0  0
   58.0980   33.2210   45.7290 C   0  0  0  0  0  0  0  0  0  0  0  0
   58.5130   34.2290   44.8490 C   0  0  0  0  0  0  0  0  0  0  0  0
   58.2401   34.1712   43.7850 H   0  0  0  0  0  0  0  0  0  0  0  0
   59.2680   35.3030   45.3110 C   0  0  0  0  0  0  0  0  0  0  0  0
   59.5704   36.0988   44.6144 H   0  0  0  0  0  0  0  0  0  0  0  0
   59.6330   35.3740   46.6150 N   0  0  0  0  0  0  0  0  0  0  0  0
   60.1810   36.2080   46.9280 H   0  0  0  0  0  0  0  0  0  0  0  0
   59.3480   34.3710   47.4930 C   0  0  0  0  0  0  0  0  0  0  0  0
   59.8230   34.4490   48.8120 C   0  0  0  0  0  0  0  0  0  0  0  0
   60.3430   35.3565   49.1526 H   0  0  0  0  0  0  0  0  0  0  0  0
   59.6400   33.3840   49.6930 C   0  0  0  0  0  0  0  0  0  0  0  0
   60.2540   33.4850   51.3330 Cl  0  0  0  0  0  0  0  0  0  0  0  0
   59.0180   32.2180   49.2530 C   0  0  0  0  0  0  0  0  0  0  0  0
   58.9112   31.3631   49.9369 H   0  0  0  0  0  0  0  0  0  0  0  0
   58.5290   32.1290   47.9470 C   0  0  0  0  0  0  0  0  0  0  0  0
   58.0741   31.1892   47.6008 H   0  0  0  0  0  0  0  0  0  0  0  0
   58.6110   33.2300   47.0650 C   0  0  0  0  0  0  0  0  0  0  0  0
  1  2  1  0
  2  3  2  0
  3  4  1  0
  3  5  1  0
  5  6  1  0
  6  7  1  0
  6  8  1  0
  6  9  1  0
  9 10  1  0
 10 11  1  0
 10 12  1  0
 10 13  1  0
  9 14  1  0
 14 15  1  0
 14 16  1  0
 14 17  1  0
  5 18  2  0
 18 19  1  0
 18 20  1  0
 20 21  1  0
 20 22  2  0
 22 23  1  0
 23 24  2  0
 24 25  1  0
 25 26  1  0
 25 27  2  0
 27 28  1  0
 27 29  1  0
 29 30  1  0
 29 31  1  0
 31 32  2  0
 32 33  1  0
 32 34  1  0
 34 35  1  0
 34 36  2  0
 36 37  1  0
 36 38  1  0
 38 39  1  0
 38 40  2  0
 22  2  1  0
 40 24  1  0
 40 31  1  0
M  END
>  <UniqueID>  (25) 
23

>  <SMILES>  (25) 
CN(C)Cc1ccc(/N=c2/cc[nH]c3cc(Cl)ccc23)cc1

>  <Energy>  (25) 
65.05772777656117

>  <Genealogy>  (25) 
CN(C)Cc1ccc(/N=c2/cc[nH]c3cc(Cl)ccc23)cc1 (cis-trans isomerization)
CN(C)Cc1ccc(/N=c2/cc[nH]c3cc(Cl)ccc23)cc1 (3D coordinates assigned)
CN(C)Cc1ccc(/N=c2/cc[nH]c3cc(Cl)ccc23)cc1 (optimized conformer: 65.05772777656117 kcal/mol)

>  <smiles>  (25) 
CN(C)Cc1ccc(N=c2cc[nH]c3cc(Cl)ccc23)cc1

>  <score_type>  (25) 
oracle

>  <origin>  (25) 
adg

>  <m_score__min__energy>  (25) 
-7.5700000000000003

>  <m_primary>  (25) 
energy

$$$$
25:0
     RDKit          3D

 36 37  0  0  0  0  0  0  0  0999 V2000
   54.7690   25.7960   45.9790 O   0  0  0  0  0  0  0  0  0  0  0  0
   55.8730   26.4040   45.9770 C   0  0  0  0  0  0  0  0  0  0  0  0
   57.1180   25.6870   46.3960 C   0  0  0  0  0  0  0  0  0  0  0  0
   57.8150   26.4290   47.3960 O   0  0  0  0  0  0  0  0  0  0  0  0
   58.7500   27.4470   47.1450 C   0  0  0  0  0  0  0  0  0  0  0  0
   58.8380   28.6110   47.9350 C   0  0  0  0  0  0  0  0  0  0  0  0
   59.7910   29.5910   47.6390 C   0  0  0  0  0  0  0  0  0  0  0  0
   60.6590   29.4210   46.5580 C   0  0  0  0  0  0  0  0  0  0  0  0
   60.5760   28.2720   45.7690 C   0  0  0  0  0  0  0  0  0  0  0  0
   59.6240   27.2890   46.0610 C   0  0  0  0  0  0  0  0  0  0  0  0
   55.9410   27.7870   45.6100 N   0  0  0  0  0  0  0  0  0  0  0  0
   57.0110   28.3520   44.7950 C   0  0  0  0  0  0  0  0  0  0  0  0
   56.5920   29.6850   44.2570 C   0  0  0  0  0  0  0  0  0  0  0  0
   55.4860   30.1790   44.6040 O   0  0  0  0  0  0  0  0  0  0  0  0
   57.4700   30.4120   43.3880 N   0  0  0  0  0  0  0  0  0  0  0  0
   57.4150   31.8660   43.2800 C   0  0  0  0  0  0  0  0  0  0  0  0
   57.7320   32.4800   44.6070 C   0  0  0  0  0  0  0  0  0  0  0  0
   58.5040   31.9030   45.6060 C   0  0  0  0  0  0  0  0  0  0  0  0
   58.7470   32.7660   46.6810 C   0  0  0  0  0  0  0  0  0  0  0  0
   58.1820   34.0250   46.5240 C   0  0  0  0  0  0  0  0  0  0  0  0
   57.3860   34.0650   45.0430 S   0  0  0  0  0  0  0  0  0  0  0  0
   56.8477   24.7006   46.8010 H   0  0  0  0  0  0  0  0  0  0  0  0
   57.7727   25.5733   45.5194 H   0  0  0  0  0  0  0  0  0  0  0  0
   58.1554   28.7490   48.7865 H   0  0  0  0  0  0  0  0  0  0  0  0
   59.8570   30.4974   48.2588 H   0  0  0  0  0  0  0  0  0  0  0  0
   61.4084   30.1927   46.3281 H   0  0  0  0  0  0  0  0  0  0  0  0
   61.2595   28.1395   44.9173 H   0  0  0  0  0  0  0  0  0  0  0  0
   59.5612   26.3863   45.4356 H   0  0  0  0  0  0  0  0  0  0  0  0
   57.9134   28.4749   45.4120 H   0  0  0  0  0  0  0  0  0  0  0  0
   57.2240   27.6734   43.9559 H   0  0  0  0  0  0  0  0  0  0  0  0
   58.2910   29.9170   42.9710 H   0  0  0  0  0  0  0  0  0  0  0  0
   58.1491   32.2058   42.5346 H   0  0  0  0  0  0  0  0  0  0  0  0
   56.4053   32.1713   42.9680 H   0  0  0  0  0  0  0  0  0  0  0  0
   58.8859   30.8726   45.5578 H   0  0  0  0  0  0  0  0  0  0  0  0
   59.3305   32.4745   47.5667 H   0  0  0  0  0  0  0  0  0  0  0  0
   58.2444   34.8537   47.2446 H   0  0  0  0  0  0  0  0  0  0  0  0
  1  2  2  0
  2  3  1  0
  3  4  1  0
  4  5  1  0
  5  6  2  0
  6  7  1  0
  7  8  2  0
  8  9  1  0
  9 10  2  0
  2 11  1  0
 11 12  1  0
 12 13  1  0
 13 14  2  0
 13 15  1  0
 15 16  1  0
 16 17  1  0
 17 18  2  0
 18 19  1  0
 19 20  2  0
 20 21  1  0
 10  5  1  0
 21 17  1  0
  3 22  1  0
  3 23  1  0
  6 24  1  0
  7 25  1  0
  8 26  1  0
  9 27  1  0
 10 28  1  0
 12 29  1  0
 12 30  1  0
 15 31  1  0
 16 32  1  0
 16 33  1  0
 18 34  1  0
 19 35  1  0
 20 36  1  0
M  CHG  1  11  -1
M  END
>  <UniqueID>  (26) 
24

>  <SMILES>  (26) 
O=C(COc1ccccc1)[N-]CC(=O)NCc1cccs1

>  <Energy>  (26) 
53.26457555115565

>  <Genealogy>  (26) 
O=C(COc1ccccc1)[N-]CC(=O)NCc1cccs1 (protonated)
O=C(COc1ccccc1)[N-]CC(=O)NCc1cccs1 (3D coordinates assigned)
O=C(COc1ccccc1)[N-]CC(=O)NCc1cccs1 (optimized conformer: 53.26457555115565 kcal/mol)

>  <smiles>  (26) 
O=C(CNC(=O)COc1ccccc1)NCc1cccs1

>  <score_type>  (26) 
oracle

>  <origin>  (26) 
adg

>  <m_score__min__energy>  (26) 
-9.9600000000000009

>  <m_primary>  (26) 
energy

$$$$
26:0
     RDKit          3D

 37 38  0  0  0  0  0  0  0  0999 V2000
   66.8480   32.6100   50.5960 C   0  0  0  0  0  0  0  0  0  0  0  0
   65.9720   32.7170   49.4790 O   0  0  0  0  0  0  0  0  0  0  0  0
   64.6180   33.0740   49.5660 C   0  0  0  0  0  0  0  0  0  0  0  0
   63.9520   33.2270   50.7920 C   0  0  0  0  0  0  0  0  0  0  0  0
   62.6390   33.5690   50.8150 N   0  0  0  0  0  0  0  0  0  0  0  0
   61.9200   33.7760   49.6780 C   0  0  0  0  0  0  0  0  0  0  0  0
   60.6730   34.1170   49.7690 N   0  0  0  0  0  0  0  0  0  0  0  0
   62.5430   33.6380   48.4180 C   0  0  0  0  0  0  0  0  0  0  0  0
   61.8000   33.8400   47.1480 C   0  0  0  0  0  0  0  0  0  0  0  0
   62.4090   33.7470   46.0470 O   0  0  0  0  0  0  0  0  0  0  0  0
   60.3950   34.1400   47.1590 N   0  0  0  0  0  0  0  0  0  0  0  0
   59.6380   34.3880   45.9340 C   0  0  0  0  0  0  0  0  0  0  0  0
   58.9090   33.1430   45.5110 C   0  0  0  0  0  0  0  0  0  0  0  0
   59.2440   31.9060   46.0840 C   0  0  0  0  0  0  0  0  0  0  0  0
   58.5860   30.7400   45.6800 C   0  0  0  0  0  0  0  0  0  0  0  0
   57.5930   30.7960   44.6940 C   0  0  0  0  0  0  0  0  0  0  0  0
   56.7570   29.3290   44.1960 S   0  0  0  0  0  0  0  0  0  0  0  0
   55.1520   29.3330   44.8340 N   0  0  0  0  0  0  0  0  0  0  0  0
   57.4970   28.1240   44.7040 O   0  0  0  0  0  0  0  0  0  0  0  0
   56.6980   29.2590   42.6960 O   0  0  0  0  0  0  0  0  0  0  0  0
   57.2540   32.0300   44.1230 C   0  0  0  0  0  0  0  0  0  0  0  0
   57.9100   33.1970   44.5250 C   0  0  0  0  0  0  0  0  0  0  0  0
   63.9020   33.2820   48.3850 C   0  0  0  0  0  0  0  0  0  0  0  0
   66.2659   32.6811   51.5266 H   0  0  0  0  0  0  0  0  0  0  0  0
   67.3686   31.6416   50.5622 H   0  0  0  0  0  0  0  0  0  0  0  0
   67.5864   33.4246   50.5622 H   0  0  0  0  0  0  0  0  0  0  0  0
   64.4951   33.0695   51.7355 H   0  0  0  0  0  0  0  0  0  0  0  0
   60.3220   35.0220   49.3810 H   0  0  0  0  0  0  0  0  0  0  0  0
   59.8700   34.1310   48.0620 H   0  0  0  0  0  0  0  0  0  0  0  0
   58.9092   35.1920   46.1141 H   0  0  0  0  0  0  0  0  0  0  0  0
   60.3349   34.6836   45.1359 H   0  0  0  0  0  0  0  0  0  0  0  0
   60.0276   31.8536   46.8542 H   0  0  0  0  0  0  0  0  0  0  0  0
   58.8493   29.7753   46.1383 H   0  0  0  0  0  0  0  0  0  0  0  0
   55.1420   28.6660   45.6380 H   0  0  0  0  0  0  0  0  0  0  0  0
   56.4681   32.0805   43.3550 H   0  0  0  0  0  0  0  0  0  0  0  0
   57.6430   34.1611   44.0676 H   0  0  0  0  0  0  0  0  0  0  0  0
   64.4089   33.1656   47.4157 H   0  0  0  0  0  0  0  0  0  0  0  0
  1  2  1  0
  2  3  1  0
  3  4  2  0
  4  5  1  0
  5  6  1  0
  6  7  2  3
  6  8  1  0
  8  9  1  0
  9 10  2  0
  9 11  1  0
 11 12  1  0
 12 13  1  0
 13 14  2  0
 14 15  1  0
 15 16  2  0
 16 17  1  0
 17 18  1  0
 17 19  2  0
 17 20  2  0
 16 21  1  0
 21 22  2  0
  8 23  2  0
 23  3  1  0
 22 13  1  0
  1 24  1  0
  1 25  1  0
  1 26  1  0
  4 27  1  0
  7 28  1  0
 11 29  1  0
 12 30  1  0
 12 31  1  0
 14 32  1  0
 15 33  1  0
 18 34  1  0
 21 35  1  0
 22 36  1  0
 23 37  1  0
M  CHG  2   5  -1  18  -1
M  END
>  <UniqueID>  (27) 
25

>  <SMILES>  (27) 
COc1c[n-]c(=N)c(C(=O)NCc2ccc(S([NH-])(=O)=O)cc2)c1

>  <Energy>  (27) 
39.18939404628991

>  <Genealogy>  (27) 
COc1c[n-]c(=N)c(C(=O)NCc2ccc(S([NH-])(=O)=O)cc2)c1 (protonated)
COc1c[n-]c(=N)c(C(=O)NCc2ccc(S([NH-])(=O)=O)cc2)c1 (3D coordinates assigned)
COc1c[n-]c(=N)c(C(=O)NCc2ccc(S([NH-])(=O)=O)cc2)c1 (optimized conformer: 39.18939404628991 kcal/mol)

>  <smiles>  (27) 
COc1c[nH]c(=N)c(C(=O)NCc2ccc(S(N)(=O)=O)cc2)c1

>  <score_type>  (27) 
oracle

>  <origin>  (27) 
adg

>  <m_score__min__energy>  (27) 
-10.65

>  <m_primary>  (27) 
energy

$$$$
27:0
     RDKit          3D

 49 52  0  0  1  0  0  0  0  0999 V2000
   62.5310   32.8330   47.1070 C   0  0  0  0  0  0  0  0  0  0  0  0
   61.5470   33.2570   48.1410 C   0  0  0  0  0  0  0  0  0  0  0  0
   61.6950   32.7380   49.4140 C   0  0  0  0  0  0  0  0  0  0  0  0
   60.8180   33.0880   50.4180 C   0  0  0  0  0  0  0  0  0  0  0  0
   60.9430   32.5880   51.6870 F   0  0  0  0  0  0  0  0  0  0  0  0
   59.7880   33.9640   50.1500 C   0  0  0  0  0  0  0  0  0  0  0  0
   59.6510   34.4770   48.8720 C   0  0  0  0  0  0  0  0  0  0  0  0
   60.5140   34.1420   47.8510 C   0  0  0  0  0  0  0  0  0  0  0  0
   60.4330   34.6130   46.5690 O   0  0  0  0  0  0  0  0  0  0  0  0
   59.2750   34.9590   45.8720 C   0  0  0  0  0  0  0  0  0  0  0  0
   59.0160   34.1590   44.6190 C   0  0  0  0  0  0  0  0  0  0  0  0
   58.4100   33.1340   45.4470 N   0  0  0  0  0  0  0  0  0  0  0  0
   58.2490   31.7270   45.2840 C   0  0  0  0  0  0  0  0  0  0  0  0
   58.9230   30.9100   46.1140 N   0  0  0  0  0  0  0  0  0  0  0  0
   58.8000   29.5560   45.9940 C   0  0  0  0  0  0  0  0  0  0  0  0
   59.4700   28.8530   46.8180 N   0  0  0  0  0  0  0  0  0  0  0  0
   59.6430   29.2250   48.1690 C   0  0  0  0  0  0  0  0  0  0  0  0
   60.9060   29.0540   48.7520 C   0  0  0  0  0  0  0  0  0  0  0  0
   61.1140   29.3760   50.0970 C   0  0  0  0  0  0  0  0  0  0  0  0
   60.0430   29.8650   50.8370 C   0  0  0  0  0  0  0  0  0  0  0  0
   58.7870   30.0450   50.2910 C   0  0  0  0  0  0  0  0  0  0  0  0
   57.7030   30.5620   51.1150 C   0  0  0  0  0  0  0  0  0  0  0  0
   57.3930   31.9470   51.1040 N   0  0  0  0  0  0  0  0  0  0  0  0
   57.0690   29.7550   51.8200 O   0  0  0  0  0  0  0  0  0  0  0  0
   58.5830   29.7220   48.9430 C   0  0  0  0  0  0  0  0  0  0  0  0
   57.9850   29.0380   45.0200 C   0  0  0  0  0  0  0  0  0  0  0  0
   57.8000   27.3160   44.8330 Cl  0  0  0  0  0  0  0  0  0  0  0  0
   57.3220   29.9010   44.2010 C   0  0  0  0  0  0  0  0  0  0  0  0
   57.4460   31.2360   44.3230 N   0  0  0  0  0  0  0  0  0  0  0  0
   58.0930   34.1680   46.4140 C   0  0  0  0  0  0  0  0  0  0  0  0
   63.4347   32.4436   47.5986 H   0  0  0  0  0  0  0  0  0  0  0  0
   62.0872   32.0463   46.4792 H   0  0  0  0  0  0  0  0  0  0  0  0
   62.7980   33.6959   46.4792 H   0  0  0  0  0  0  0  0  0  0  0  0
   62.5187   32.0407   49.6270 H   0  0  0  0  0  0  0  0  0  0  0  0
   59.0826   34.2522   50.9433 H   0  0  0  0  0  0  0  0  0  0  0  0
   58.8265   35.1749   48.6643 H   0  0  0  0  0  0  0  0  0  0  0  0
   59.3748   36.0543   45.8506 H   0  0  0  0  0  0  0  0  0  0  0  0
   58.3259   34.6370   43.9082 H   0  0  0  0  0  0  0  0  0  0  0  0
   59.8282   33.9192   43.9170 H   0  0  0  0  0  0  0  0  0  0  0  0
   61.7387   28.6642   48.1481 H   0  0  0  0  0  0  0  0  0  0  0  0
   62.1034   29.2453   50.5595 H   0  0  0  0  0  0  0  0  0  0  0  0
   60.2018   30.1177   51.8957 H   0  0  0  0  0  0  0  0  0  0  0  0
   57.8820   32.6450   51.7080 H   0  0  0  0  0  0  0  0  0  0  0  0
   56.6470   32.3410   50.4790 H   0  0  0  0  0  0  0  0  0  0  0  0
   57.5898   29.8583   48.4903 H   0  0  0  0  0  0  0  0  0  0  0  0
   56.6659   29.4953   43.4168 H   0  0  0  0  0  0  0  0  0  0  0  0
   56.9340   31.8820   43.6910 H   0  0  0  0  0  0  0  0  0  0  0  0
   57.1147   34.6484   46.2655 H   0  0  0  0  0  0  0  0  0  0  0  0
   57.9951   33.9423   47.4861 H   0  0  0  0  0  0  0  0  0  0  0  0
  1  2  1  0
  2  3  2  0
  3  4  1  0
  4  5  1  0
  4  6  2  0
  6  7  1  0
  7  8  2  0
  8  9  1  0
  9 10  1  0
 10 11  1  0
 11 12  1  0
 12 13  1  0
 13 14  2  0
 14 15  1  0
 15 16  2  0
 16 17  1  0
 17 18  2  0
 18 19  1  0
 19 20  2  0
 20 21  1  0
 21 22  1  0
 22 23  1  0
 22 24  2  0
 21 25  2  0
 15 26  1  0
 26 27  1  0
 26 28  2  0
 28 29  1  0
 12 30  1  0
  8  2  1  0
 30 10  1  0
 29 13  1  0
 25 17  1  0
  1 31  1  0
  1 32  1  0
  1 33  1  0
  3 34  1  0
  6 35  1  0
  7 36  1  0
 10 37  1  0
 11 38  1  0
 11 39  1  0
 18 40  1  0
 19 41  1  0
 20 42  1  0
 23 43  1  0
 23 44  1  0
 25 45  1  0
 28 46  1  0
 29 47  1  0
 30 48  1  0
 30 49  1  0
M  END
>  <smiles>  (28) 
Cc1cc(F)ccc1OC1CN(c2nc(=Nc3cccc(C(N)=O)c3)c(Cl)c[nH]2)C1

>  <score_type>  (28) 
oracle

>  <origin>  (28) 
adg

>  <m_score__min__energy>  (28) 
-8.8499999999999996

>  <m_primary>  (28) 
energy

$$$$
28:0
     RDKit          3D

 43 45  0  0  0  0  0  0  0  0999 V2000
   59.7647   34.9468   46.8117 H   0  0  0  0  0  0  0  0  0  0  0  0
   60.0600   33.9450   47.1570 C   0  0  0  0  0  0  0  0  0  0  0  0
   59.2100   32.9640   47.0790 N   0  0  0  0  0  0  0  0  0  0  0  0
   58.6280   32.4840   45.8520 C   0  0  0  0  0  0  0  0  0  0  0  0
   58.7390   33.3760   44.7860 C   0  0  0  0  0  0  0  0  0  0  0  0
   59.2133   34.3370   45.0342 H   0  0  0  0  0  0  0  0  0  0  0  0
   58.3470   33.2440   43.4650 C   0  0  0  0  0  0  0  0  0  0  0  0
   58.5312   34.1200   42.8256 H   0  0  0  0  0  0  0  0  0  0  0  0
   57.7550   32.1610   42.8380 C   0  0  0  0  0  0  0  0  0  0  0  0
   57.4690   32.3270   41.1090 Cl  0  0  0  0  0  0  0  0  0  0  0  0
   57.3470   30.9690   43.4200 C   0  0  0  0  0  0  0  0  0  0  0  0
   56.9196   30.2344   42.7216 H   0  0  0  0  0  0  0  0  0  0  0  0
   57.3940   30.5550   44.7560 C   0  0  0  0  0  0  0  0  0  0  0  0
   56.7700   29.2290   45.0210 C   0  0  0  0  0  0  0  0  0  0  0  0
   55.5250   29.1050   44.8640 O   0  0  0  0  0  0  0  0  0  0  0  0
   57.5740   28.0560   45.4550 C   0  0  0  0  0  0  0  0  0  0  0  0
   58.9830   28.0910   45.4280 C   0  0  0  0  0  0  0  0  0  0  0  0
   59.5010   28.9954   45.0763 H   0  0  0  0  0  0  0  0  0  0  0  0
   59.7260   26.9820   45.8460 C   0  0  0  0  0  0  0  0  0  0  0  0
   60.8251   27.0168   45.8193 H   0  0  0  0  0  0  0  0  0  0  0  0
   59.0770   25.8310   46.2970 C   0  0  0  0  0  0  0  0  0  0  0  0
   59.6643   24.9596   46.6221 H   0  0  0  0  0  0  0  0  0  0  0  0
   57.6820   25.7870   46.3350 C   0  0  0  0  0  0  0  0  0  0  0  0
   57.1714   24.8806   46.6924 H   0  0  0  0  0  0  0  0  0  0  0  0
   56.9320   26.8920   45.9200 C   0  0  0  0  0  0  0  0  0  0  0  0
   55.8334   26.8517   45.9570 H   0  0  0  0  0  0  0  0  0  0  0  0
   57.9500   31.2440   45.8590 C   0  0  0  0  0  0  0  0  0  0  0  0
   57.8330   30.6820   46.9850 O   0  0  0  0  0  0  0  0  0  0  0  0
   61.4150   33.7340   47.7020 C   0  0  0  0  0  0  0  0  0  0  0  0
   62.4440   33.3110   46.8470 C   0  0  0  0  0  0  0  0  0  0  0  0
   62.2326   33.1416   45.7809 H   0  0  0  0  0  0  0  0  0  0  0  0
   63.7370   33.1030   47.3400 C   0  0  0  0  0  0  0  0  0  0  0  0
   64.5354   32.7702   46.6605 H   0  0  0  0  0  0  0  0  0  0  0  0
   64.0200   33.3180   48.7020 C   0  0  0  0  0  0  0  0  0  0  0  0
   65.2990   33.1240   49.2440 O   0  0  0  0  0  0  0  0  0  0  0  0
   65.6150   32.1460   50.2300 C   0  0  0  0  0  0  0  0  0  0  0  0
   65.4756   32.5774   51.2322 H   0  0  0  0  0  0  0  0  0  0  0  0
   64.9521   31.2765   50.1096 H   0  0  0  0  0  0  0  0  0  0  0  0
   66.6614   31.8288   50.1096 H   0  0  0  0  0  0  0  0  0  0  0  0
   62.9940   33.7400   49.5530 C   0  0  0  0  0  0  0  0  0  0  0  0
   63.2062   33.9101   50.6189 H   0  0  0  0  0  0  0  0  0  0  0  0
   61.7010   33.9480   49.0630 C   0  0  0  0  0  0  0  0  0  0  0  0
   60.9040   34.2804   49.7444 H   0  0  0  0  0  0  0  0  0  0  0  0
  1  2  1  0
  2  3  2  0
  3  4  1  0
  4  5  2  0
  5  6  1  0
  5  7  1  0
  7  8  1  0
  7  9  2  0
  9 10  1  0
  9 11  1  0
 11 12  1  0
 11 13  2  0
 13 14  1  0
 14 15  2  0
 14 16  1  0
 16 17  2  0
 17 18  1  0
 17 19  1  0
 19 20  1  0
 19 21  2  0
 21 22  1  0
 21 23  1  0
 23 24  1  0
 23 25  2  0
 25 26  1  0
 13 27  1  0
 27 28  2  0
  2 29  1  0
 29 30  2  0
 30 31  1  0
 30 32  1  0
 32 33  1  0
 32 34  2  0
 34 35  1  0
 35 36  1  0
 36 37  1  0
 36 38  1  0
 36 39  1  0
 34 40  1  0
 40 41  1  0
 40 42  2  0
 42 43  1  0
 27  4  1  0
 42 29  1  0
 25 16  1  0
M  END
>  <UniqueID>  (29) 
26

>  <SMILES>  (29) 
COc1ccc(/C=N/c2ccc(Cl)cc(C(=O)c3ccccc3)c2=O)cc1

>  <Energy>  (29) 
82.87435452214046

>  <Genealogy>  (29) 
COc1ccc(/C=N/c2ccc(Cl)cc(C(=O)c3ccccc3)c2=O)cc1 (cis-trans isomerization)
COc1ccc(/C=N/c2ccc(Cl)cc(C(=O)c3ccccc3)c2=O)cc1 (3D coordinates assigned)
COc1ccc(/C=N/c2ccc(Cl)cc(C(=O)c3ccccc3)c2=O)cc1 (optimized conformer: 82.87435452214046 kcal/mol)

>  <smiles>  (29) 
COc1ccc(C=Nc2ccc(Cl)cc(C(=O)c3ccccc3)c2=O)cc1

>  <score_type>  (29) 
oracle

>  <origin>  (29) 
adg

>  <m_score__min__energy>  (29) 
-9.4100000000000001

>  <m_primary>  (29) 
energy

$$$$
29:0
     RDKit          3D

 42 45  0  0  0  0  0  0  0  0999 V2000
   57.4284   32.1586   42.9173 H   0  0  0  0  0  0  0  0  0  0  0  0
   57.7530   32.4470   43.9280 C   0  0  0  0  0  0  0  0  0  0  0  0
   58.4670   33.6310   44.1160 C   0  0  0  0  0  0  0  0  0  0  0  0
   58.7101   34.2644   43.2502 H   0  0  0  0  0  0  0  0  0  0  0  0
   58.8780   34.0210   45.4010 C   0  0  0  0  0  0  0  0  0  0  0  0
   59.6490   35.3040   45.5690 C   0  0  0  0  0  0  0  0  0  0  0  0
   59.7771   35.5172   46.6405 H   0  0  0  0  0  0  0  0  0  0  0  0
   60.6363   35.2033   45.0946 H   0  0  0  0  0  0  0  0  0  0  0  0
   59.0966   36.1285   45.0946 H   0  0  0  0  0  0  0  0  0  0  0  0
   58.5240   33.2210   46.5150 C   0  0  0  0  0  0  0  0  0  0  0  0
   58.9230   33.6100   47.9140 C   0  0  0  0  0  0  0  0  0  0  0  0
   58.3303   33.0321   48.6384 H   0  0  0  0  0  0  0  0  0  0  0  0
   59.9921   33.3979   48.0628 H   0  0  0  0  0  0  0  0  0  0  0  0
   58.7381   34.6841   48.0628 H   0  0  0  0  0  0  0  0  0  0  0  0
   57.8090   32.0290   46.3090 C   0  0  0  0  0  0  0  0  0  0  0  0
   57.5303   31.4070   47.1724 H   0  0  0  0  0  0  0  0  0  0  0  0
   57.4470   31.6230   45.0200 C   0  0  0  0  0  0  0  0  0  0  0  0
   56.7030   30.4060   44.8530 N   0  0  0  0  0  0  0  0  0  0  0  0
   56.9500   29.2770   45.4470 C   0  0  0  0  0  0  0  0  0  0  0  0
   56.0560   28.2630   45.3410 N   0  0  0  0  0  0  0  0  0  0  0  0
   56.2660   27.0920   45.9950 C   0  0  0  0  0  0  0  0  0  0  0  0
   55.4310   26.1560   45.8840 O   0  0  0  0  0  0  0  0  0  0  0  0
   57.3700   26.9350   46.7710 N   0  0  0  0  0  0  0  0  0  0  0  0
   57.5220   26.0340   47.2830 H   0  0  0  0  0  0  0  0  0  0  0  0
   58.2730   27.9450   46.8860 C   0  0  0  0  0  0  0  0  0  0  0  0
   59.3020   27.8010   47.6700 N   0  0  0  0  0  0  0  0  0  0  0  0
   60.1380   28.8630   48.1570 C   0  0  0  0  0  0  0  0  0  0  0  0
   60.4680   28.9010   49.5330 C   0  0  0  0  0  0  0  0  0  0  0  0
   60.0749   28.1270   50.2085 H   0  0  0  0  0  0  0  0  0  0  0  0
   61.2940   29.9190   50.0460 C   0  0  0  0  0  0  0  0  0  0  0  0
   61.5412   29.9643   51.1169 H   0  0  0  0  0  0  0  0  0  0  0  0
   61.7880   30.8670   49.1530 C   0  0  0  0  0  0  0  0  0  0  0  0
   61.4980   30.8170   47.8170 C   0  0  0  0  0  0  0  0  0  0  0  0
   60.6840   29.8250   47.2770 C   0  0  0  0  0  0  0  0  0  0  0  0
   60.4722   29.7909   46.1981 H   0  0  0  0  0  0  0  0  0  0  0  0
   62.1570   31.8640   47.2120 C   0  0  0  0  0  0  0  0  0  0  0  0
   62.1562   32.1266   46.1438 H   0  0  0  0  0  0  0  0  0  0  0  0
   62.8240   32.5180   48.2430 C   0  0  0  0  0  0  0  0  0  0  0  0
   63.4507   33.4126   48.1132 H   0  0  0  0  0  0  0  0  0  0  0  0
   62.5970   31.9040   49.4270 N   0  0  0  0  0  0  0  0  0  0  0  0
   62.9790   32.1780   50.3580 H   0  0  0  0  0  0  0  0  0  0  0  0
   58.0560   29.1150   46.2240 N   0  0  0  0  0  0  0  0  0  0  0  0
  1  2  1  0
  2  3  2  0
  3  4  1  0
  3  5  1  0
  5  6  1  0
  6  7  1  0
  6  8  1  0
  6  9  1  0
  5 10  2  0
 10 11  1  0
 11 12  1  0
 11 13  1  0
 11 14  1  0
 10 15  1  0
 15 16  1  0
 15 17  2  0
 17 18  1  0
 18 19  2  0
 19 20  1  0
 20 21  1  0
 21 22  2  0
 21 23  1  0
 23 24  1  0
 23 25  1  0
 25 26  2  0
 26 27  1  0
 27 28  2  0
 28 29  1  0
 28 30  1  0
 30 31  1  0
 30 32  2  0
 32 33  1  0
 33 34  2  0
 34 35  1  0
 33 36  1  0
 36 37  1  0
 36 38  2  0
 38 39  1  0
 38 40  1  0
 40 41  1  0
 25 42  1  0
 17  2  1  0
 42 19  1  0
 34 27  1  0
 40 32  1  0
M  CHG  2  20  -1  42  -1
M  END
>  <UniqueID>  (30) 
27

>  <SMILES>  (30) 
Cc1ccc(/N=c2/[n-]c(=O)[nH]/c(=N/c3ccc4[nH]ccc4c3)[n-]2)cc1C

>  <Energy>  (30) 
90.47382773157804

>  <Genealogy>  (30) 
Cc1ccc(N=c2[n-]c(=O)[nH]c(=Nc3ccc4[nH]ccc4c3)[n-]2)cc1C (protonated)
Cc1ccc(/N=c2/[n-]c(=O)[nH]/c(=N/c3ccc4[nH]ccc4c3)[n-]2)cc1C (cis-trans isomerization)
Cc1ccc(/N=c2/[n-]c(=O)[nH]/c(=N/c3ccc4[nH]ccc4c3)[n-]2)cc1C (3D coordinates assigned)
Cc1ccc(/N=c2/[n-]c(=O)[nH]/c(=N/c3ccc4[nH]ccc4c3)[n-]2)cc1C (optimized conformer: 90.47382773157804 kcal/mol)

>  <smiles>  (30) 
Cc1ccc(N=c2[nH]c(=O)[nH]c(=Nc3ccc4[nH]ccc4c3)[nH]2)cc1C

>  <score_type>  (30) 
oracle

>  <origin>  (30) 
adg

>  <m_score__min__energy>  (30) 
-11.52

>  <m_primary>  (30) 
energy

$$$$
30:0
     RDKit          3D

 37 39  0  0  0  0  0  0  0  0999 V2000
   57.3870   31.9620   41.9260 C   0  0  0  0  0  0  0  0  0  0  0  0
   58.1070   31.2470   42.9730 N   0  0  0  0  0  0  0  0  0  0  0  0
   57.5070   30.9720   44.2470 C   0  0  0  0  0  0  0  0  0  0  0  0
   56.3450   31.3940   44.4970 O   0  0  0  0  0  0  0  0  0  0  0  0
   58.2340   30.1800   45.2650 C   0  0  0  0  0  0  0  0  0  0  0  0
   58.2960   28.7840   45.1200 C   0  0  0  0  0  0  0  0  0  0  0  0
   58.8950   27.9830   46.1040 C   0  0  0  0  0  0  0  0  0  0  0  0
   58.9120   26.4850   45.9540 C   0  0  0  0  0  0  0  0  0  0  0  0
   57.5030   25.9450   45.9160 C   0  0  0  0  0  0  0  0  0  0  0  0
   56.4100   26.8200   45.9850 C   0  0  0  0  0  0  0  0  0  0  0  0
   55.1440   26.3300   45.9860 N   0  0  0  0  0  0  0  0  0  0  0  0
   54.9110   24.9950   45.9280 C   0  0  0  0  0  0  0  0  0  0  0  0
   53.7300   24.5620   45.9280 O   0  0  0  0  0  0  0  0  0  0  0  0
   55.9510   24.1240   45.8720 N   0  0  0  0  0  0  0  0  0  0  0  0
   57.2370   24.5660   45.8680 C   0  0  0  0  0  0  0  0  0  0  0  0
   58.1760   23.7280   45.8220 O   0  0  0  0  0  0  0  0  0  0  0  0
   59.4200   28.5840   47.2540 C   0  0  0  0  0  0  0  0  0  0  0  0
   59.3730   29.9700   47.4080 C   0  0  0  0  0  0  0  0  0  0  0  0
   58.7990   30.7830   46.4180 C   0  0  0  0  0  0  0  0  0  0  0  0
   58.8410   32.2120   46.5800 N   0  0  0  0  0  0  0  0  0  0  0  0
   59.9210   33.0100   46.5040 C   0  0  0  0  0  0  0  0  0  0  0  0
   59.5230   34.2910   46.8070 C   0  0  0  0  0  0  0  0  0  0  0  0
   58.2040   34.3010   47.0900 N   0  0  0  0  0  0  0  0  0  0  0  0
   57.8230   33.0150   46.9490 C   0  0  0  0  0  0  0  0  0  0  0  0
   56.6775   32.6666   42.3845 H   0  0  0  0  0  0  0  0  0  0  0  0
   58.1030   32.5167   41.3018 H   0  0  0  0  0  0  0  0  0  0  0  0
   56.8373   31.2421   41.3018 H   0  0  0  0  0  0  0  0  0  0  0  0
   59.0950   30.9600   42.7910 H   0  0  0  0  0  0  0  0  0  0  0  0
   57.8690   28.3124   44.2226 H   0  0  0  0  0  0  0  0  0  0  0  0
   59.4273   26.2200   45.0190 H   0  0  0  0  0  0  0  0  0  0  0  0
   59.4398   26.0459   46.8134 H   0  0  0  0  0  0  0  0  0  0  0  0
   56.5785   27.9057   46.0384 H   0  0  0  0  0  0  0  0  0  0  0  0
   59.8717   27.9608   48.0399 H   0  0  0  0  0  0  0  0  0  0  0  0
   59.7905   30.4308   48.3154 H   0  0  0  0  0  0  0  0  0  0  0  0
   60.9423   32.6938   46.2452 H   0  0  0  0  0  0  0  0  0  0  0  0
   60.1801   35.1731   46.8171 H   0  0  0  0  0  0  0  0  0  0  0  0
   56.7952   32.6605   47.1166 H   0  0  0  0  0  0  0  0  0  0  0  0
  1  2  1  0
  2  3  1  0
  3  4  2  0
  3  5  1  0
  5  6  2  0
  6  7  1  0
  7  8  1  0
  8  9  1  0
  9 10  2  0
 10 11  1  0
 11 12  1  0
 12 13  2  0
 12 14  1  0
 14 15  1  0
 15 16  2  0
  7 17  2  0
 17 18  1  0
 18 19  2  0
 19 20  1  0
 20 21  1  0
 21 22  2  0
 22 23  1  0
 23 24  2  0
 19  5  1  0
 24 20  1  0
 15  9  1  0
  1 25  1  0
  1 26  1  0
  1 27  1  0
  2 28  1  0
  6 29  1  0
  8 30  1  0
  8 31  1  0
 10 32  1  0
 17 33  1  0
 18 34  1  0
 21 35  1  0
 22 36  1  0
 24 37  1  0
M  CHG  2  11  -1  14  -1
M  END
>  <UniqueID>  (31) 
28

>  <SMILES>  (31) 
CNC(=O)c1cc(Cc2c[n-]c(=O)[n-]c2=O)ccc1-n1ccnc1

>  <Energy>  (31) 
76.4755887575492

>  <Genealogy>  (31) 
CNC(=O)c1cc(Cc2c[n-]c(=O)[n-]c2=O)ccc1-n1ccnc1 (protonated)
CNC(=O)c1cc(Cc2c[n-]c(=O)[n-]c2=O)ccc1-n1ccnc1 (3D coordinates assigned)
CNC(=O)c1cc(Cc2c[n-]c(=O)[n-]c2=O)ccc1-n1ccnc1 (optimized conformer: 76.4755887575492 kcal/mol)

>  <smiles>  (31) 
CNC(=O)c1cc(Cc2c[nH]c(=O)[nH]c2=O)ccc1-n1ccnc1

>  <score_type>  (31) 
oracle

>  <origin>  (31) 
adg

>  <m_score__min__energy>  (31) 
-11.57

>  <m_primary>  (31) 
energy

$$$$
31:0
     RDKit          3D

 67 70  0  0  0  0  0  0  0  0999 V2000
   65.4650   26.7430   52.0510 C   0  0  0  0  0  0  0  0  0  0  0  0
   64.0950   27.1680   52.3820 N   0  0  0  0  0  0  0  0  0  0  0  0
   64.1150   27.9510   53.6340 C   0  0  0  0  0  0  0  0  0  0  0  0
   63.2200   25.9830   52.5030 C   0  0  0  0  0  0  0  0  0  0  0  0
   61.8700   26.2090   51.8070 C   0  0  0  0  0  0  0  0  0  0  0  0
   61.8190   27.5290   51.1730 N   0  0  0  0  0  0  0  0  0  0  0  0
   61.0100   27.7830   50.0100 C   0  0  0  0  0  0  0  0  0  0  0  0
   60.7020   26.7290   49.1330 C   0  0  0  0  0  0  0  0  0  0  0  0
   59.9460   26.9550   47.9830 C   0  0  0  0  0  0  0  0  0  0  0  0
   59.4820   28.2390   47.6830 C   0  0  0  0  0  0  0  0  0  0  0  0
   58.7080   28.4920   46.4460 C   0  0  0  0  0  0  0  0  0  0  0  0
   58.5500   27.4770   45.4880 C   0  0  0  0  0  0  0  0  0  0  0  0
   57.7850   27.7030   44.3430 C   0  0  0  0  0  0  0  0  0  0  0  0
   57.1920   28.9500   44.1310 C   0  0  0  0  0  0  0  0  0  0  0  0
   57.3850   29.9910   45.0450 C   0  0  0  0  0  0  0  0  0  0  0  0
   56.7520   31.2550   44.7960 N   0  0  0  0  0  0  0  0  0  0  0  0
   57.4240   32.5020   44.5760 C   0  0  0  0  0  0  0  0  0  0  0  0
   57.4380   33.0130   43.4230 O   0  0  0  0  0  0  0  0  0  0  0  0
   58.0700   33.2050   45.7100 C   0  0  0  0  0  0  0  0  0  0  0  0
   58.6760   34.4640   45.5250 C   0  0  0  0  0  0  0  0  0  0  0  0
   59.3190   35.1030   46.5900 C   0  0  0  0  0  0  0  0  0  0  0  0
   59.3690   34.5000   47.8490 C   0  0  0  0  0  0  0  0  0  0  0  0
   58.7690   33.2530   48.0490 C   0  0  0  0  0  0  0  0  0  0  0  0
   58.7810   32.6450   49.3550 C   0  0  0  0  0  0  0  0  0  0  0  0
   58.7870   32.1480   50.4020 N   0  0  0  0  0  0  0  0  0  0  0  0
   58.1220   32.6080   46.9850 C   0  0  0  0  0  0  0  0  0  0  0  0
   58.1280   29.7540   46.2130 C   0  0  0  0  0  0  0  0  0  0  0  0
   59.7700   29.2940   48.5610 C   0  0  0  0  0  0  0  0  0  0  0  0
   60.5350   29.0870   49.7250 C   0  0  0  0  0  0  0  0  0  0  0  0
   60.7810   30.1730   50.6410 N   0  0  0  0  0  0  0  0  0  0  0  0
   62.3140   30.9700   50.8150 S   0  0  0  0  0  0  0  0  0  0  0  0
   62.2830   31.8220   52.0540 O   0  0  0  0  0  0  0  0  0  0  0  0
   63.3950   29.9370   50.9620 O   0  0  0  0  0  0  0  0  0  0  0  0
   62.6620   31.9460   49.3900 C   0  0  0  0  0  0  0  0  0  0  0  0
   63.8510   32.6850   49.3230 C   0  0  0  0  0  0  0  0  0  0  0  0
   64.1420   33.4510   48.1890 C   0  0  0  0  0  0  0  0  0  0  0  0
   63.2450   33.4780   47.1150 C   0  0  0  0  0  0  0  0  0  0  0  0
   62.0590   32.7410   47.1750 C   0  0  0  0  0  0  0  0  0  0  0  0
   61.1880   32.7710   46.1370 F   0  0  0  0  0  0  0  0  0  0  0  0
   61.7640   31.9800   48.3120 C   0  0  0  0  0  0  0  0  0  0  0  0
   66.0289   26.5681   52.9791 H   0  0  0  0  0  0  0  0  0  0  0  0
   65.4288   25.8139   51.4633 H   0  0  0  0  0  0  0  0  0  0  0  0
   65.9610   27.5295   51.4633 H   0  0  0  0  0  0  0  0  0  0  0  0
   64.0975   27.2665   54.4949 H   0  0  0  0  0  0  0  0  0  0  0  0
   65.0290   28.5619   53.6698 H   0  0  0  0  0  0  0  0  0  0  0  0
   63.2333   28.6078   53.6698 H   0  0  0  0  0  0  0  0  0  0  0  0
   63.7209   25.1197   52.0405 H   0  0  0  0  0  0  0  0  0  0  0  0
   63.0320   25.7995   53.5712 H   0  0  0  0  0  0  0  0  0  0  0  0
   61.7280   25.4352   51.0382 H   0  0  0  0  0  0  0  0  0  0  0  0
   61.0729   26.1530   52.5630 H   0  0  0  0  0  0  0  0  0  0  0  0
   62.3470   28.3150   51.6080 H   0  0  0  0  0  0  0  0  0  0  0  0
   61.0615   25.7136   49.3562 H   0  0  0  0  0  0  0  0  0  0  0  0
   59.7135   26.1180   47.3082 H   0  0  0  0  0  0  0  0  0  0  0  0
   59.0313   26.4998   45.6410 H   0  0  0  0  0  0  0  0  0  0  0  0
   57.6487   26.8978   43.6060 H   0  0  0  0  0  0  0  0  0  0  0  0
   56.5692   29.1143   43.2393 H   0  0  0  0  0  0  0  0  0  0  0  0
   58.6430   34.9468   44.5372 H   0  0  0  0  0  0  0  0  0  0  0  0
   59.7880   36.0859   46.4353 H   0  0  0  0  0  0  0  0  0  0  0  0
   59.8797   35.0055   48.6819 H   0  0  0  0  0  0  0  0  0  0  0  0
   57.6510   31.6273   47.1474 H   0  0  0  0  0  0  0  0  0  0  0  0
   58.2578   30.5595   46.9508 H   0  0  0  0  0  0  0  0  0  0  0  0
   59.3913   30.3020   48.3362 H   0  0  0  0  0  0  0  0  0  0  0  0
   60.0150   30.5290   51.2560 H   0  0  0  0  0  0  0  0  0  0  0  0
   64.5581   32.6627   50.1653 H   0  0  0  0  0  0  0  0  0  0  0  0
   65.0751   34.0316   48.1416 H   0  0  0  0  0  0  0  0  0  0  0  0
   63.4736   34.0797   46.2230 H   0  0  0  0  0  0  0  0  0  0  0  0
   60.8262   31.4072   48.3608 H   0  0  0  0  0  0  0  0  0  0  0  0
  1  2  1  0
  2  3  1  0
  2  4  1  0
  4  5  1  0
  5  6  1  0
  6  7  1  0
  7  8  2  0
  8  9  1  0
  9 10  2  0
 10 11  1  0
 11 12  2  0
 12 13  1  0
 13 14  2  0
 14 15  1  0
 15 16  1  0
 16 17  1  0
 17 18  2  0
 17 19  1  0
 19 20  2  0
 20 21  1  0
 21 22  2  0
 22 23  1  0
 23 24  1  0
 24 25  3  0
 23 26  2  0
 15 27  2  0
 10 28  1  0
 28 29  2  0
 29 30  1  0
 30 31  1  0
 31 32  2  0
 31 33  2  0
 31 34  1  0
 34 35  2  0
 35 36  1  0
 36 37  2  0
 37 38  1  0
 38 39  1  0
 38 40  2  0
 29  7  1  0
 40 34  1  0
 27 11  1  0
 26 19  1  0
  1 41  1  0
  1 42  1  0
  1 43  1  0
  3 44  1  0
  3 45  1  0
  3 46  1  0
  4 47  1  0
  4 48  1  0
  5 49  1  0
  5 50  1  0
  6 51  1  0
  8 52  1  0
  9 53  1  0
 12 54  1  0
 13 55  1  0
 14 56  1  0
 20 57  1  0
 21 58  1  0
 22 59  1  0
 26 60  1  0
 27 61  1  0
 28 62  1  0
 30 63  1  0
 35 64  1  0
 36 65  1  0
 37 66  1  0
 40 67  1  0
M  CHG  1  16  -1
M  END
>  <UniqueID>  (32) 
29

>  <SMILES>  (32) 
CN(C)CCNc1ccc(-c2cccc([N-]C(=O)c3cccc(C#N)c3)c2)cc1NS(=O)(=O)c1cccc(F)c1

>  <Energy>  (32) 
84.705834094199

>  <Genealogy>  (32) 
CN(C)CCNc1ccc(-c2cccc([N-]C(=O)c3cccc(C#N)c3)c2)cc1NS(=O)(=O)c1cccc(F)c1 (protonated)
CN(C)CCNc1ccc(-c2cccc([N-]C(=O)c3cccc(C#N)c3)c2)cc1NS(=O)(=O)c1cccc(F)c1 (3D coordinates assigned)
CN(C)CCNc1ccc(-c2cccc([N-]C(=O)c3cccc(C#N)c3)c2)cc1NS(=O)(=O)c1cccc(F)c1 (optimized conformer: 84.705834094199 kcal/mol)

>  <smiles>  (32) 
CN(C)CCNc1ccc(-c2cccc(NC(=O)c3cccc(C#N)c3)c2)cc1NS(=O)(=O)c1cccc(F)c1

>  <score_type>  (32) 
oracle

>  <origin>  (32) 
adg

>  <m_score__min__energy>  (32) 
-12.15

>  <m_primary>  (32) 
energy

$$$$
32:0
     RDKit          3D

 37 39  0  0  0  0  0  0  0  0999 V2000
   59.1910   35.3220   44.8470 N   0  0  0  0  0  0  0  0  0  0  0  0
   58.9740   34.2470   45.2180 C   0  0  0  0  0  0  0  0  0  0  0  0
   58.7020   32.9090   45.6800 C   0  0  0  0  0  0  0  0  0  0  0  0
   57.9720   32.0340   44.8640 C   0  0  0  0  0  0  0  0  0  0  0  0
   57.7010   30.7290   45.2950 C   0  0  0  0  0  0  0  0  0  0  0  0
   56.8010   29.6210   44.2640 S   0  0  0  0  0  0  0  0  0  0  0  0
   57.7250   28.9030   43.3190 O   0  0  0  0  0  0  0  0  0  0  0  0
   55.8010   30.4070   43.4640 O   0  0  0  0  0  0  0  0  0  0  0  0
   55.9560   28.4510   45.2320 N   0  0  0  0  0  0  0  0  0  0  0  0
   56.4120   27.2970   45.6290 C   0  0  0  0  0  0  0  0  0  0  0  0
   57.7900   27.0120   45.7130 C   0  0  0  0  0  0  0  0  0  0  0  0
   58.2060   25.7550   46.1560 C   0  0  0  0  0  0  0  0  0  0  0  0
   57.2600   24.7940   46.5090 C   0  0  0  0  0  0  0  0  0  0  0  0
   57.6540   23.5700   46.9400 F   0  0  0  0  0  0  0  0  0  0  0  0
   55.9030   25.1030   46.4110 C   0  0  0  0  0  0  0  0  0  0  0  0
   55.5160   26.3330   45.9790 N   0  0  0  0  0  0  0  0  0  0  0  0
   58.1480   30.3060   46.5510 C   0  0  0  0  0  0  0  0  0  0  0  0
   58.8780   31.1740   47.3660 C   0  0  0  0  0  0  0  0  0  0  0  0
   59.1770   32.4770   46.9300 C   0  0  0  0  0  0  0  0  0  0  0  0
   59.9020   33.3700   47.7370 O   0  0  0  0  0  0  0  0  0  0  0  0
   61.2670   33.2650   48.0410 C   0  0  0  0  0  0  0  0  0  0  0  0
   62.2010   32.7710   47.1110 C   0  0  0  0  0  0  0  0  0  0  0  0
   63.5560   32.6980   47.4470 C   0  0  0  0  0  0  0  0  0  0  0  0
   63.9930   33.1270   48.7030 C   0  0  0  0  0  0  0  0  0  0  0  0
   65.3110   33.0540   49.0180 F   0  0  0  0  0  0  0  0  0  0  0  0
   63.0720   33.6380   49.6270 C   0  0  0  0  0  0  0  0  0  0  0  0
   63.6090   34.1910   51.2040 Cl  0  0  0  0  0  0  0  0  0  0  0  0
   61.7150   33.7120   49.2900 C   0  0  0  0  0  0  0  0  0  0  0  0
   57.6107   32.3731   43.8819 H   0  0  0  0  0  0  0  0  0  0  0  0
   58.5318   27.7740   45.4317 H   0  0  0  0  0  0  0  0  0  0  0  0
   59.2790   25.5233   46.2264 H   0  0  0  0  0  0  0  0  0  0  0  0
   55.1466   24.3521   46.6830 H   0  0  0  0  0  0  0  0  0  0  0  0
   57.9239   29.2865   46.8980 H   0  0  0  0  0  0  0  0  0  0  0  0
   59.2212   30.8363   48.3550 H   0  0  0  0  0  0  0  0  0  0  0  0
   61.8638   32.4415   46.1172 H   0  0  0  0  0  0  0  0  0  0  0  0
   64.2805   32.3016   46.7204 H   0  0  0  0  0  0  0  0  0  0  0  0
   60.9952   34.1246   50.0122 H   0  0  0  0  0  0  0  0  0  0  0  0
  1  2  3  0
  2  3  1  0
  3  4  2  0
  4  5  1  0
  5  6  1  0
  6  7  2  0
  6  8  2  0
  6  9  1  0
  9 10  2  3
 10 11  1  0
 11 12  2  0
 12 13  1  0
 13 14  1  0
 13 15  2  0
 15 16  1  0
  5 17  2  0
 17 18  1  0
 18 19  2  0
 19 20  1  0
 20 21  1  0
 21 22  2  0
 22 23  1  0
 23 24  2  0
 24 25  1  0
 24 26  1  0
 26 27  1  0
 26 28  2  0
 19  3  1  0
 28 21  1  0
 16 10  1  0
  4 29  1  0
 11 30  1  0
 12 31  1  0
 15 32  1  0
 17 33  1  0
 18 34  1  0
 22 35  1  0
 23 36  1  0
 28 37  1  0
M  CHG  1  16  -1
M  END
>  <UniqueID>  (33) 
30

>  <SMILES>  (33) 
N#Cc1cc(S(=O)(=O)N=c2ccc(F)c[n-]2)ccc1Oc1ccc(F)c(Cl)c1

>  <Energy>  (33) 
52.26583620686302

>  <Genealogy>  (33) 
N#Cc1cc(S(=O)(=O)N=c2ccc(F)c[n-]2)ccc1Oc1ccc(F)c(Cl)c1 (protonated)
N#Cc1cc(S(=O)(=O)N=c2ccc(F)c[n-]2)ccc1Oc1ccc(F)c(Cl)c1 (3D coordinates assigned)
N#Cc1cc(S(=O)(=O)N=c2ccc(F)c[n-]2)ccc1Oc1ccc(F)c(Cl)c1 (optimized conformer: 52.26583620686302 kcal/mol)

>  <smiles>  (33) 
N#Cc1cc(S(=O)(=O)N=c2ccc(F)c[nH]2)ccc1Oc1ccc(F)c(Cl)c1

>  <score_type>  (33) 
oracle

>  <origin>  (33) 
adg

>  <m_score__min__energy>  (33) 
-10.470000000000001

>  <m_primary>  (33) 
energy

$$$$
33:0
     RDKit          3D

 36 37  0  0  0  0  0  0  0  0999 V2000
   57.3060   26.9440   54.2370 C   0  0  0  0  0  0  0  0  0  0  0  0
   55.9560   27.3540   53.8270 N   0  0  0  0  0  0  0  0  0  0  0  0
   54.8300   26.4340   54.0160 C   0  0  0  0  0  0  0  0  0  0  0  0
   55.7150   28.6460   53.2180 C   0  0  0  0  0  0  0  0  0  0  0  0
   54.4440   29.2570   53.2480 C   0  0  0  0  0  0  0  0  0  0  0  0
   54.2580   30.5100   52.6460 C   0  0  0  0  0  0  0  0  0  0  0  0
   52.9020   31.1570   52.6340 C   0  0  0  0  0  0  0  0  0  0  0  0
   52.7080   31.8510   51.3670 N   0  0  0  0  0  0  0  0  0  0  0  0
   51.4330   32.3240   50.9330 C   0  0  0  0  0  0  0  0  0  0  0  0
   51.3090   32.7570   49.7580 O   0  0  0  0  0  0  0  0  0  0  0  0
   50.3010   32.2520   51.8110 N   0  0  0  0  0  0  0  0  0  0  0  0
   50.1810   32.8600   53.1060 C   0  0  0  0  0  0  0  0  0  0  0  0
   50.2750   34.2540   53.2770 C   0  0  0  0  0  0  0  0  0  0  0  0
   50.1770   34.8170   54.5530 C   0  0  0  0  0  0  0  0  0  0  0  0
   49.9990   33.9960   55.6690 C   0  0  0  0  0  0  0  0  0  0  0  0
   49.9270   32.6100   55.5110 C   0  0  0  0  0  0  0  0  0  0  0  0
   50.0300   32.0390   54.2370 C   0  0  0  0  0  0  0  0  0  0  0  0
   49.9500   30.2910   54.0760 Cl  0  0  0  0  0  0  0  0  0  0  0  0
   55.3360   31.1300   52.0020 C   0  0  0  0  0  0  0  0  0  0  0  0
   56.5790   30.5010   51.9900 C   0  0  0  0  0  0  0  0  0  0  0  0
   56.7390   29.2930   52.5900 N   0  0  0  0  0  0  0  0  0  0  0  0
   57.3660   26.9258   55.3352 H   0  0  0  0  0  0  0  0  0  0  0  0
   57.5204   25.9402   53.8414 H   0  0  0  0  0  0  0  0  0  0  0  0
   58.0424   27.6590   53.8414 H   0  0  0  0  0  0  0  0  0  0  0  0
   54.6519   26.2885   55.0917 H   0  0  0  0  0  0  0  0  0  0  0  0
   53.9284   26.8572   53.5490 H   0  0  0  0  0  0  0  0  0  0  0  0
   55.0649   25.4661   53.5490 H   0  0  0  0  0  0  0  0  0  0  0  0
   53.6009   28.7521   53.7423 H   0  0  0  0  0  0  0  0  0  0  0  0
   52.1264   30.3860   52.7527 H   0  0  0  0  0  0  0  0  0  0  0  0
   52.8313   31.8775   53.4622 H   0  0  0  0  0  0  0  0  0  0  0  0
   50.4263   34.9037   52.4023 H   0  0  0  0  0  0  0  0  0  0  0  0
   50.2402   35.9080   54.6783 H   0  0  0  0  0  0  0  0  0  0  0  0
   49.9156   34.4407   56.6717 H   0  0  0  0  0  0  0  0  0  0  0  0
   49.7888   31.9647   56.3911 H   0  0  0  0  0  0  0  0  0  0  0  0
   55.2025   32.1048   51.5101 H   0  0  0  0  0  0  0  0  0  0  0  0
   57.4333   30.9840   51.4932 H   0  0  0  0  0  0  0  0  0  0  0  0
  1  2  1  0
  2  3  1  0
  2  4  1  0
  4  5  2  0
  5  6  1  0
  6  7  1  0
  7  8  1  0
  8  9  1  0
  9 10  2  0
  9 11  1  0
 11 12  1  0
 12 13  2  0
 13 14  1  0
 14 15  2  0
 15 16  1  0
 16 17  2  0
 17 18  1  0
  6 19  2  0
 19 20  1  0
 20 21  2  0
 21  4  1  0
 17 12  1  0
  1 22  1  0
  1 23  1  0
  1 24  1  0
  3 25  1  0
  3 26  1  0
  3 27  1  0
  5 28  1  0
  7 29  1  0
  7 30  1  0
 13 31  1  0
 14 32  1  0
 15 33  1  0
 16 34  1  0
 19 35  1  0
 20 36  1  0
M  CHG  2   8  -1  11  -1
M  END
>  <UniqueID>  (34) 
31

>  <SMILES>  (34) 
CN(C)c1cc(C[N-]C(=O)[N-]c2ccccc2Cl)ccn1

>  <Energy>  (34) 
36.90251689211499

>  <Genealogy>  (34) 
CN(C)c1cc(C[N-]C(=O)[N-]c2ccccc2Cl)ccn1 (protonated)
CN(C)c1cc(C[N-]C(=O)[N-]c2ccccc2Cl)ccn1 (3D coordinates assigned)
CN(C)c1cc(C[N-]C(=O)[N-]c2ccccc2Cl)ccn1 (optimized conformer: 36.90251689211499 kcal/mol)

>  <smiles>  (34) 
CN(C)c1cc(CNC(=O)Nc2ccccc2Cl)ccn1

>  <score_type>  (34) 
oracle

>  <origin>  (34) 
adg

>  <m_score__min__energy>  (34) 
-10.630000000000001

>  <m_primary>  (34) 
energy

$$$$
34:0
     RDKit          3D

 54 56  0  0  0  0  0  0  0  0999 V2000
   59.9450   33.8450   51.3720 C   0  0  0  0  0  0  0  0  0  0  0  0
   60.1250   32.8010   50.3110 C   0  0  0  0  0  0  0  0  0  0  0  0
   59.3310   31.6490   50.3150 C   0  0  0  0  0  0  0  0  0  0  0  0
   59.4440   30.6940   49.2930 C   0  0  0  0  0  0  0  0  0  0  0  0
   58.5150   29.5090   49.3080 C   0  0  0  0  0  0  0  0  0  0  0  0
   60.4030   30.8790   48.2660 C   0  0  0  0  0  0  0  0  0  0  0  0
   60.5270   29.9340   47.1880 N   0  0  0  0  0  0  0  0  0  0  0  0
   60.5510   28.5130   47.3840 C   0  0  0  0  0  0  0  0  0  0  0  0
   60.8380   28.0310   48.5120 O   0  0  0  0  0  0  0  0  0  0  0  0
   60.1750   27.5970   46.2540 C   0  0  0  0  0  0  0  0  0  0  0  0
   59.0030   28.1490   45.5470 N   0  0  0  0  0  0  0  0  0  0  0  0
   57.7530   27.6590   45.8080 C   0  0  0  0  0  0  0  0  0  0  0  0
   57.5940   26.6530   46.5520 O   0  0  0  0  0  0  0  0  0  0  0  0
   56.6330   28.2700   45.2580 C   0  0  0  0  0  0  0  0  0  0  0  0
   56.7880   29.4330   44.5010 C   0  0  0  0  0  0  0  0  0  0  0  0
   55.5480   30.0690   43.9160 C   0  0  0  0  0  0  0  0  0  0  0  0
   58.0470   29.9520   44.2990 N   0  0  0  0  0  0  0  0  0  0  0  0
   58.2580   31.2970   43.7150 C   0  0  0  0  0  0  0  0  0  0  0  0
   58.3000   32.3360   44.8140 C   0  0  0  0  0  0  0  0  0  0  0  0
   57.8220   32.0270   46.0990 C   0  0  0  0  0  0  0  0  0  0  0  0
   57.9460   32.9510   47.1420 C   0  0  0  0  0  0  0  0  0  0  0  0
   58.5570   34.1860   46.9130 C   0  0  0  0  0  0  0  0  0  0  0  0
   59.0330   34.5060   45.6390 C   0  0  0  0  0  0  0  0  0  0  0  0
   59.6340   35.7010   45.4210 F   0  0  0  0  0  0  0  0  0  0  0  0
   58.9010   33.5870   44.5920 C   0  0  0  0  0  0  0  0  0  0  0  0
   59.1460   29.2570   44.7480 C   0  0  0  0  0  0  0  0  0  0  0  0
   60.3050   29.6560   44.4410 O   0  0  0  0  0  0  0  0  0  0  0  0
   61.1860   32.0550   48.2490 C   0  0  0  0  0  0  0  0  0  0  0  0
   62.1640   32.3150   47.1360 C   0  0  0  0  0  0  0  0  0  0  0  0
   61.0280   33.0110   49.2630 C   0  0  0  0  0  0  0  0  0  0  0  0
   60.0257   33.3771   52.3642 H   0  0  0  0  0  0  0  0  0  0  0  0
   60.7237   34.6145   51.2651 H   0  0  0  0  0  0  0  0  0  0  0  0
   58.9535   34.3093   51.2651 H   0  0  0  0  0  0  0  0  0  0  0  0
   58.6091   31.4899   51.1295 H   0  0  0  0  0  0  0  0  0  0  0  0
   58.2952   29.2286   50.3487 H   0  0  0  0  0  0  0  0  0  0  0  0
   57.5788   29.7705   48.7931 H   0  0  0  0  0  0  0  0  0  0  0  0
   58.9924   28.6623   48.7931 H   0  0  0  0  0  0  0  0  0  0  0  0
   60.6870   30.3040   46.2250 H   0  0  0  0  0  0  0  0  0  0  0  0
   61.0193   27.5113   45.5542 H   0  0  0  0  0  0  0  0  0  0  0  0
   59.9292   26.6018   46.6530 H   0  0  0  0  0  0  0  0  0  0  0  0
   55.6327   27.8412   45.4175 H   0  0  0  0  0  0  0  0  0  0  0  0
   54.8900   30.4065   44.7303 H   0  0  0  0  0  0  0  0  0  0  0  0
   55.8357   30.9309   43.2960 H   0  0  0  0  0  0  0  0  0  0  0  0
   55.0159   29.3325   43.2960 H   0  0  0  0  0  0  0  0  0  0  0  0
   59.2102   31.3101   43.1644 H   0  0  0  0  0  0  0  0  0  0  0  0
   57.4287   31.5281   43.0303 H   0  0  0  0  0  0  0  0  0  0  0  0
   57.3474   31.0524   46.2858 H   0  0  0  0  0  0  0  0  0  0  0  0
   57.5621   32.7048   48.1430 H   0  0  0  0  0  0  0  0  0  0  0  0
   58.6635   34.9074   47.7365 H   0  0  0  0  0  0  0  0  0  0  0  0
   59.2701   33.8454   43.5885 H   0  0  0  0  0  0  0  0  0  0  0  0
   63.1440   32.5755   47.5624 H   0  0  0  0  0  0  0  0  0  0  0  0
   62.2624   31.4118   46.5159 H   0  0  0  0  0  0  0  0  0  0  0  0
   61.8008   33.1478   46.5159 H   0  0  0  0  0  0  0  0  0  0  0  0
   61.6211   33.9370   49.2340 H   0  0  0  0  0  0  0  0  0  0  0  0
  1  2  1  0
  2  3  2  0
  3  4  1  0
  4  5  1  0
  4  6  2  0
  6  7  1  0
  7  8  1  0
  8  9  2  0
  8 10  1  0
 10 11  1  0
 11 12  1  0
 12 13  2  0
 12 14  1  0
 14 15  2  0
 15 16  1  0
 15 17  1  0
 17 18  1  0
 18 19  1  0
 19 20  2  0
 20 21  1  0
 21 22  2  0
 22 23  1  0
 23 24  1  0
 23 25  2  0
 17 26  1  0
 26 27  2  0
  6 28  1  0
 28 29  1  0
 28 30  2  0
 30  2  1  0
 26 11  1  0
 25 19  1  0
  1 31  1  0
  1 32  1  0
  1 33  1  0
  3 34  1  0
  5 35  1  0
  5 36  1  0
  5 37  1  0
  7 38  1  0
 10 39  1  0
 10 40  1  0
 14 41  1  0
 16 42  1  0
 16 43  1  0
 16 44  1  0
 18 45  1  0
 18 46  1  0
 20 47  1  0
 21 48  1  0
 22 49  1  0
 25 50  1  0
 29 51  1  0
 29 52  1  0
 29 53  1  0
 30 54  1  0
M  END
>  <UniqueID>  (35) 
32

>  <SMILES>  (35) 
Cc1cc(C)c(NC(=O)Cn2c(=O)cc(C)n(Cc3cccc(F)c3)c2=O)c(C)c1

>  <Energy>  (35) 
64.30696547413633

>  <Genealogy>  (35) 
Cc1cc(C)c(NC(=O)Cn2c(=O)cc(C)n(Cc3cccc(F)c3)c2=O)c(C)c1 (3D coordinates assigned)
Cc1cc(C)c(NC(=O)Cn2c(=O)cc(C)n(Cc3cccc(F)c3)c2=O)c(C)c1 (optimized conformer: 64.30696547413633 kcal/mol)

>  <smiles>  (35) 
Cc1cc(C)c(NC(=O)Cn2c(=O)cc(C)n(Cc3cccc(F)c3)c2=O)c(C)c1

>  <score_type>  (35) 
oracle

>  <origin>  (35) 
adg

>  <m_score__min__energy>  (35) 
-9

>  <m_primary>  (35) 
energy

$$$$
35:0
     RDKit          3D

 30 32  0  0  0  0  0  0  0  0999 V2000
   58.6511   33.8030   48.5107 H   0  0  0  0  0  0  0  0  0  0  0  0
   58.5540   33.8060   47.4150 C   0  0  0  0  0  0  0  0  0  0  0  0
   57.6710   32.9670   46.8080 N   0  0  0  0  0  0  0  0  0  0  0  0
   57.5170   32.9370   45.4540 C   0  0  0  0  0  0  0  0  0  0  0  0
   56.6680   32.1300   44.8850 N   0  0  0  0  0  0  0  0  0  0  0  0
   56.9660   31.0360   43.9970 C   0  0  0  0  0  0  0  0  0  0  0  0
   56.8310   31.1760   42.7500 O   0  0  0  0  0  0  0  0  0  0  0  0
   57.4340   29.7390   44.5580 C   0  0  0  0  0  0  0  0  0  0  0  0
   58.8160   29.4840   44.6480 C   0  0  0  0  0  0  0  0  0  0  0  0
   59.5303   30.2465   44.3039 H   0  0  0  0  0  0  0  0  0  0  0  0
   59.2940   28.2810   45.1660 C   0  0  0  0  0  0  0  0  0  0  0  0
   60.3778   28.1026   45.2250 H   0  0  0  0  0  0  0  0  0  0  0  0
   58.4020   27.3000   45.6110 C   0  0  0  0  0  0  0  0  0  0  0  0
   58.8850   26.0890   46.1330 C   0  0  0  0  0  0  0  0  0  0  0  0
   59.9687   25.9106   46.1934 H   0  0  0  0  0  0  0  0  0  0  0  0
   57.9910   25.1100   46.5760 C   0  0  0  0  0  0  0  0  0  0  0  0
   58.3730   24.1629   46.9848 H   0  0  0  0  0  0  0  0  0  0  0  0
   56.6150   25.3310   46.5010 C   0  0  0  0  0  0  0  0  0  0  0  0
   55.9157   24.5574   46.8511 H   0  0  0  0  0  0  0  0  0  0  0  0
   56.1230   26.5310   45.9830 C   0  0  0  0  0  0  0  0  0  0  0  0
   55.0371   26.6973   45.9271 H   0  0  0  0  0  0  0  0  0  0  0  0
   57.0070   27.5290   45.5320 C   0  0  0  0  0  0  0  0  0  0  0  0
   56.5270   28.7470   45.0060 C   0  0  0  0  0  0  0  0  0  0  0  0
   55.1530   28.9660   44.9330 O   0  0  0  0  0  0  0  0  0  0  0  0
   58.2870   33.7930   44.6560 C   0  0  0  0  0  0  0  0  0  0  0  0
   58.1738   33.7806   43.5619 H   0  0  0  0  0  0  0  0  0  0  0  0
   59.1990   34.6620   45.2580 C   0  0  0  0  0  0  0  0  0  0  0  0
   59.8074   35.3380   44.6392 H   0  0  0  0  0  0  0  0  0  0  0  0
   59.3370   34.6710   46.6470 C   0  0  0  0  0  0  0  0  0  0  0  0
   60.0536   35.3510   47.1309 H   0  0  0  0  0  0  0  0  0  0  0  0
  1  2  1  0
  2  3  1  0
  3  4  1  0
  4  5  2  0
  5  6  1  0
  6  7  2  0
  6  8  1  0
  8  9  2  0
  9 10  1  0
  9 11  1  0
 11 12  1  0
 11 13  2  0
 13 14  1  0
 14 15  1  0
 14 16  2  0
 16 17  1  0
 16 18  1  0
 18 19  1  0
 18 20  2  0
 20 21  1  0
 20 22  1  0
 22 23  2  0
 23 24  1  0
  4 25  1  0
 25 26  1  0
 25 27  2  0
 27 28  1  0
 27 29  1  0
 29 30  1  0
 29  2  2  0
 23  8  1  0
 22 13  1  0
M  CHG  2   3  -1  24  -1
M  END
>  <UniqueID>  (36) 
33

>  <SMILES>  (36) 
O=C(/N=c1/cccc[n-]1)c1ccc2ccccc2c1[O-]

>  <Energy>  (36) 
43.3397554905522

>  <Genealogy>  (36) 
O=C(N=c1cccc[n-]1)c1ccc2ccccc2c1[O-] (protonated)
O=C(/N=c1/cccc[n-]1)c1ccc2ccccc2c1[O-] (cis-trans isomerization)
O=C(/N=c1/cccc[n-]1)c1ccc2ccccc2c1[O-] (3D coordinates assigned)
O=C(/N=c1/cccc[n-]1)c1ccc2ccccc2c1[O-] (optimized conformer: 43.3397554905522 kcal/mol)

>  <smiles>  (36) 
O=C(N=c1cccc[nH]1)c1ccc2ccccc2c1O

>  <score_type>  (36) 
oracle

>  <origin>  (36) 
adg

>  <m_score__min__energy>  (36) 
-12.49

>  <m_primary>  (36) 
energy

$$$$
36:0
     RDKit          3D

 47 49  0  0  1  0  0  0  0  0999 V2000
   60.4820   27.1970   48.0990 C   0  0  0  0  0  0  0  0  0  0  0  0
   59.3170   27.7830   47.3570 C   0  0  0  0  0  0  0  0  0  0  0  0
   58.2640   26.9670   47.0080 C   0  0  0  0  0  0  0  0  0  0  0  0
   57.2180   27.5530   46.3290 C   0  0  0  0  0  0  0  0  0  0  0  0
   56.2080   26.8490   45.9740 N   0  0  0  0  0  0  0  0  0  0  0  0
   56.3860   25.5050   45.5380 C   0  0  0  0  0  0  0  0  0  0  0  0
   55.6090   24.4560   45.9830 C   0  0  0  0  0  0  0  0  0  0  0  0
   55.8800   23.1840   45.4840 C   0  0  0  0  0  0  0  0  0  0  0  0
   56.9070   23.0020   44.5650 C   0  0  0  0  0  0  0  0  0  0  0  0
   57.2810   21.4100   43.9120 S   0  0  0  0  0  0  0  0  0  0  0  0
   57.3120   20.2560   45.1760 N   0  0  0  0  0  0  0  0  0  0  0  0
   58.6470   21.4280   43.2750 O   0  0  0  0  0  0  0  0  0  0  0  0
   56.3030   21.0780   42.8230 O   0  0  0  0  0  0  0  0  0  0  0  0
   57.6910   24.0460   44.1120 C   0  0  0  0  0  0  0  0  0  0  0  0
   57.4130   25.3030   44.6130 C   0  0  0  0  0  0  0  0  0  0  0  0
   57.2540   28.8510   46.0390 N   0  0  0  0  0  0  0  0  0  0  0  0
   58.2870   29.6800   46.3750 C   0  0  0  0  0  0  0  0  0  0  0  0
   58.2510   31.0550   46.0330 N   0  0  0  0  0  0  0  0  0  0  0  0
   58.4200   32.1440   46.9500 C   0  0  0  0  0  0  0  0  0  0  0  0
   59.3930   33.1360   46.3620 C   0  0  0  0  0  0  0  0  0  0  0  0
   59.1340   33.5440   45.0300 N   0  0  0  0  0  0  0  0  0  0  0  0
   58.9090   34.9720   44.9140 C   0  0  0  0  0  0  0  0  0  0  0  0
   58.0880   32.8530   44.3590 C   0  0  0  0  0  0  0  0  0  0  0  0
   58.0210   31.3910   44.6340 C   0  0  0  0  0  0  0  0  0  0  0  0
   59.2990   29.0960   47.0360 N   0  0  0  0  0  0  0  0  0  0  0  0
   60.3085   27.2843   49.1817 H   0  0  0  0  0  0  0  0  0  0  0  0
   60.5922   26.1362   47.8296 H   0  0  0  0  0  0  0  0  0  0  0  0
   61.3994   27.7409   47.8296 H   0  0  0  0  0  0  0  0  0  0  0  0
   58.2582   25.8962   47.2598 H   0  0  0  0  0  0  0  0  0  0  0  0
   54.7997   24.6189   46.7100 H   0  0  0  0  0  0  0  0  0  0  0  0
   55.2813   22.3235   45.8172 H   0  0  0  0  0  0  0  0  0  0  0  0
   58.2930   20.1360   45.5020 H   0  0  0  0  0  0  0  0  0  0  0  0
   57.0360   19.3170   44.7830 H   0  0  0  0  0  0  0  0  0  0  0  0
   58.5003   23.8833   43.3849 H   0  0  0  0  0  0  0  0  0  0  0  0
   58.0123   26.1619   44.2768 H   0  0  0  0  0  0  0  0  0  0  0  0
   57.4509   32.6354   47.1213 H   0  0  0  0  0  0  0  0  0  0  0  0
   58.8080   31.7663   47.9075 H   0  0  0  0  0  0  0  0  0  0  0  0
   59.3834   34.0341   46.9971 H   0  0  0  0  0  0  0  0  0  0  0  0
   60.3628   32.6178   46.3306 H   0  0  0  0  0  0  0  0  0  0  0  0
   58.8392   35.4150   45.9184 H   0  0  0  0  0  0  0  0  0  0  0  0
   59.7458   35.4319   44.3678 H   0  0  0  0  0  0  0  0  0  0  0  0
   57.9714   35.1523   44.3678 H   0  0  0  0  0  0  0  0  0  0  0  0
   57.1315   33.3018   44.6650 H   0  0  0  0  0  0  0  0  0  0  0  0
   58.2939   32.9540   43.2832 H   0  0  0  0  0  0  0  0  0  0  0  0
   57.0231   31.0275   44.3474 H   0  0  0  0  0  0  0  0  0  0  0  0
   58.8208   30.9132   44.0492 H   0  0  0  0  0  0  0  0  0  0  0  0
   60.1320   29.6450   47.3370 H   0  0  0  0  0  0  0  0  0  0  0  0
  1  2  1  0
  2  3  2  0
  3  4  1  0
  4  5  2  0
  5  6  1  0
  6  7  2  0
  7  8  1  0
  8  9  2  0
  9 10  1  0
 10 11  1  0
 10 12  2  0
 10 13  2  0
  9 14  1  0
 14 15  2  0
  4 16  1  0
 16 17  2  0
 17 18  1  0
 18 19  1  0
 19 20  1  0
 20 21  1  0
 21 22  1  0
 21 23  1  0
 23 24  1  0
 17 25  1  0
 25  2  1  0
 15  6  1  0
 24 18  1  0
  1 26  1  0
  1 27  1  0
  1 28  1  0
  3 29  1  0
  7 30  1  0
  8 31  1  0
 11 32  1  0
 11 33  1  0
 14 34  1  0
 15 35  1  0
 19 36  1  0
 19 37  1  0
 20 38  1  0
 20 39  1  0
 22 40  1  0
 22 41  1  0
 22 42  1  0
 23 43  1  0
 23 44  1  0
 24 45  1  0
 24 46  1  0
 25 47  1  0
M  END
>  <smiles>  (37) 
Cc1cc(=Nc2ccc(S(N)(=O)=O)cc2)nc(N2CCN(C)CC2)[nH]1

>  <score_type>  (37) 
oracle

>  <origin>  (37) 
adg

>  <m_score__min__energy>  (37) 
-8.6500000000000004

>  <m_primary>  (37) 
energy

$$$$
37:0
     RDKit          3D

 49 52  0  0  1  0  0  0  0  0999 V2000
   64.3360   33.1810   51.3210 N   0  0  0  0  0  0  0  0  0  0  0  0
   64.4850   32.5670   50.0470 C   0  0  0  0  0  0  0  0  0  0  0  0
   65.3040   31.6370   49.8250 O   0  0  0  0  0  0  0  0  0  0  0  0
   63.6630   33.0160   48.9310 C   0  0  0  0  0  0  0  0  0  0  0  0
   64.1360   33.0470   47.6390 C   0  0  0  0  0  0  0  0  0  0  0  0
   63.4160   33.4540   46.5630 C   0  0  0  0  0  0  0  0  0  0  0  0
   62.0800   33.8810   46.7660 C   0  0  0  0  0  0  0  0  0  0  0  0
   61.6350   33.8470   48.0450 C   0  0  0  0  0  0  0  0  0  0  0  0
   60.3530   34.2420   48.3150 C   0  0  0  0  0  0  0  0  0  0  0  0
   59.6370   34.7470   47.4470 N   0  0  0  0  0  0  0  0  0  0  0  0
   58.3820   34.4550   46.9700 C   0  0  0  0  0  0  0  0  0  0  0  0
   58.3020   33.4770   45.8390 C   0  0  0  0  0  0  0  0  0  0  0  0
   58.3710   33.8600   44.5030 C   0  0  0  0  0  0  0  0  0  0  0  0
   58.2840   32.9700   43.4560 C   0  0  0  0  0  0  0  0  0  0  0  0
   58.1200   31.6220   43.6830 C   0  0  0  0  0  0  0  0  0  0  0  0
   58.0470   31.2110   44.9940 C   0  0  0  0  0  0  0  0  0  0  0  0
   57.8770   29.8080   45.2310 N   0  0  0  0  0  0  0  0  0  0  0  0
   56.5410   29.2830   45.0320 C   0  0  0  0  0  0  0  0  0  0  0  0
   55.6890   30.1190   44.6760 O   0  0  0  0  0  0  0  0  0  0  0  0
   56.3590   27.9260   45.2580 N   0  0  0  0  0  0  0  0  0  0  0  0
   57.2180   27.0040   45.4580 C   0  0  0  0  0  0  0  0  0  0  0  0
   58.1670   27.2570   46.3940 N   0  0  0  0  0  0  0  0  0  0  0  0
   59.1130   26.3520   46.6760 C   0  0  0  0  0  0  0  0  0  0  0  0
   59.1580   25.1330   46.0290 C   0  0  0  0  0  0  0  0  0  0  0  0
   58.2050   24.8810   45.0890 C   0  0  0  0  0  0  0  0  0  0  0  0
   57.2730   25.8250   44.8410 N   0  0  0  0  0  0  0  0  0  0  0  0
   58.1360   32.1170   46.0440 C   0  0  0  0  0  0  0  0  0  0  0  0
   59.8950   34.1940   49.5890 N   0  0  0  0  0  0  0  0  0  0  0  0
   60.6360   33.7780   50.6280 C   0  0  0  0  0  0  0  0  0  0  0  0
   61.9000   33.3910   50.3880 N   0  0  0  0  0  0  0  0  0  0  0  0
   62.3810   33.4260   49.1340 C   0  0  0  0  0  0  0  0  0  0  0  0
   63.5030   33.0370   51.9390 H   0  0  0  0  0  0  0  0  0  0  0  0
   65.1250   33.8050   51.6260 H   0  0  0  0  0  0  0  0  0  0  0  0
   65.1715   32.7185   47.4661 H   0  0  0  0  0  0  0  0  0  0  0  0
   63.8593   33.4525   45.5563 H   0  0  0  0  0  0  0  0  0  0  0  0
   61.4431   34.2195   45.9355 H   0  0  0  0  0  0  0  0  0  0  0  0
   57.7947   34.0466   47.8057 H   0  0  0  0  0  0  0  0  0  0  0  0
   58.0016   35.4022   46.5599 H   0  0  0  0  0  0  0  0  0  0  0  0
   58.5016   34.9274   44.2717 H   0  0  0  0  0  0  0  0  0  0  0  0
   58.3465   33.3416   42.4226 H   0  0  0  0  0  0  0  0  0  0  0  0
   58.0503   30.9046   42.8521 H   0  0  0  0  0  0  0  0  0  0  0  0
   58.6650   29.1900   45.5300 H   0  0  0  0  0  0  0  0  0  0  0  0
   59.8702   26.5847   47.4392 H   0  0  0  0  0  0  0  0  0  0  0  0
   59.9359   24.3917   46.2643 H   0  0  0  0  0  0  0  0  0  0  0  0
   58.1952   23.9264   44.5425 H   0  0  0  0  0  0  0  0  0  0  0  0
   56.5680   25.5910   44.1190 H   0  0  0  0  0  0  0  0  0  0  0  0
   58.0723   31.7405   47.0756 H   0  0  0  0  0  0  0  0  0  0  0  0
   58.9170   34.4880   49.8170 H   0  0  0  0  0  0  0  0  0  0  0  0
   60.2205   33.7546   51.6462 H   0  0  0  0  0  0  0  0  0  0  0  0
  1  2  1  0
  2  3  2  0
  2  4  1  0
  4  5  2  0
  5  6  1  0
  6  7  2  0
  7  8  1  0
  8  9  1  0
  9 10  2  0
 10 11  1  0
 11 12  1  0
 12 13  2  0
 13 14  1  0
 14 15  2  0
 15 16  1  0
 16 17  1  0
 17 18  1  0
 18 19  2  0
 18 20  1  0
 20 21  2  3
 21 22  1  0
 22 23  2  0
 23 24  1  0
 24 25  2  0
 25 26  1  0
 16 27  2  0
  9 28  1  0
 28 29  1  0
 29 30  2  0
 30 31  1  0
 31  4  1  0
 31  8  2  0
 27 12  1  0
 26 21  1  0
  1 32  1  0
  1 33  1  0
  5 34  1  0
  6 35  1  0
  7 36  1  0
 11 37  1  0
 11 38  1  0
 13 39  1  0
 14 40  1  0
 15 41  1  0
 17 42  1  0
 23 43  1  0
 24 44  1  0
 25 45  1  0
 26 46  1  0
 27 47  1  0
 28 48  1  0
 29 49  1  0
M  END
>  <smiles>  (38) 
NC(=O)c1cccc2c(=NCc3cccc(NC(=O)N=c4nccc[nH]4)c3)[nH]cnc12

>  <score_type>  (38) 
oracle

>  <origin>  (38) 
adg

>  <m_score__min__energy>  (38) 
-9.7400000000000002

>  <m_primary>  (38) 
energy

$$$$
38:0
     RDKit          3D

 45 47  0  0  0  0  0  0  0  0999 V2000
   55.8420   30.4210   44.5270 O   0  0  0  0  0  0  0  0  0  0  0  0
   57.0490   30.2430   44.2070 C   0  0  0  0  0  0  0  0  0  0  0  0
   57.9760   31.3350   44.2580 N   0  0  0  0  0  0  0  0  0  0  0  0
   57.5790   32.6840   44.6810 C   0  0  0  0  0  0  0  0  0  0  0  0
   58.5610   33.7410   44.1200 C   0  0  0  0  0  0  0  0  0  0  0  0
   59.6840   34.0310   45.1210 C   0  0  0  0  0  0  0  0  0  0  0  0
   59.1460   34.6100   46.3740 N   0  0  0  0  0  0  0  0  0  0  0  0
   60.1280   34.6450   47.4820 C   0  0  0  0  0  0  0  0  0  0  0  0
   61.1670   33.5420   47.4150 C   0  0  0  0  0  0  0  0  0  0  0  0
   60.7850   32.1980   47.5760 C   0  0  0  0  0  0  0  0  0  0  0  0
   61.7410   31.1800   47.5200 C   0  0  0  0  0  0  0  0  0  0  0  0
   63.0830   31.4910   47.2880 C   0  0  0  0  0  0  0  0  0  0  0  0
   63.4680   32.8200   47.1000 C   0  0  0  0  0  0  0  0  0  0  0  0
   62.5150   33.8420   47.1550 C   0  0  0  0  0  0  0  0  0  0  0  0
   57.7910   34.1420   46.7610 C   0  0  0  0  0  0  0  0  0  0  0  0
   57.4850   32.7370   46.2250 C   0  0  0  0  0  0  0  0  0  0  0  0
   57.5170   28.9730   43.8490 O   0  0  0  0  0  0  0  0  0  0  0  0
   58.3850   28.1820   44.6150 C   0  0  0  0  0  0  0  0  0  0  0  0
   59.5840   28.6860   45.1570 C   0  0  0  0  0  0  0  0  0  0  0  0
   60.4110   27.8610   45.9250 C   0  0  0  0  0  0  0  0  0  0  0  0
   60.0470   26.5340   46.1680 C   0  0  0  0  0  0  0  0  0  0  0  0
   58.8510   26.0320   45.6500 C   0  0  0  0  0  0  0  0  0  0  0  0
   58.0200   26.8560   44.8830 C   0  0  0  0  0  0  0  0  0  0  0  0
   58.9660   31.1440   43.9840 H   0  0  0  0  0  0  0  0  0  0  0  0
   56.5856   32.9213   44.2725 H   0  0  0  0  0  0  0  0  0  0  0  0
   59.0008   33.3634   43.1851 H   0  0  0  0  0  0  0  0  0  0  0  0
   58.0061   34.6727   43.9353 H   0  0  0  0  0  0  0  0  0  0  0  0
   60.2078   33.0924   45.3550 H   0  0  0  0  0  0  0  0  0  0  0  0
   60.3753   34.7577   44.6693 H   0  0  0  0  0  0  0  0  0  0  0  0
   60.6484   35.6137   47.4536 H   0  0  0  0  0  0  0  0  0  0  0  0
   59.5638   34.4971   48.4146 H   0  0  0  0  0  0  0  0  0  0  0  0
   59.7278   31.9466   47.7470 H   0  0  0  0  0  0  0  0  0  0  0  0
   61.4362   30.1322   47.6588 H   0  0  0  0  0  0  0  0  0  0  0  0
   63.8358   30.6897   47.2534 H   0  0  0  0  0  0  0  0  0  0  0  0
   64.5234   33.0636   46.9082 H   0  0  0  0  0  0  0  0  0  0  0  0
   62.8221   34.8859   46.9939 H   0  0  0  0  0  0  0  0  0  0  0  0
   57.7230   34.1244   47.8588 H   0  0  0  0  0  0  0  0  0  0  0  0
   57.0578   34.8359   46.3241 H   0  0  0  0  0  0  0  0  0  0  0  0
   58.2086   32.0267   46.6514 H   0  0  0  0  0  0  0  0  0  0  0  0
   56.4577   32.4734   46.5167 H   0  0  0  0  0  0  0  0  0  0  0  0
   59.8703   29.7324   44.9752 H   0  0  0  0  0  0  0  0  0  0  0  0
   61.3500   28.2572   46.3388 H   0  0  0  0  0  0  0  0  0  0  0  0
   60.7023   25.8848   46.7672 H   0  0  0  0  0  0  0  0  0  0  0  0
   58.5623   24.9886   45.8451 H   0  0  0  0  0  0  0  0  0  0  0  0
   57.0731   26.4599   44.4875 H   0  0  0  0  0  0  0  0  0  0  0  0
  1  2  2  0
  2  3  1  0
  3  4  1  0
  4  5  1  0
  5  6  1  0
  6  7  1  0
  7  8  1  0
  8  9  1  0
  9 10  2  0
 10 11  1  0
 11 12  2  0
 12 13  1  0
 13 14  2  0
  7 15  1  0
 15 16  1  0
  2 17  1  0
 17 18  1  0
 18 19  2  0
 19 20  1  0
 20 21  2  0
 21 22  1  0
 22 23  2  0
 16  4  1  0
 23 18  1  0
 14  9  1  0
  3 24  1  0
  4 25  1  0
  5 26  1  0
  5 27  1  0
  6 28  1  0
  6 29  1  0
  8 30  1  0
  8 31  1  0
 10 32  1  0
 11 33  1  0
 12 34  1  0
 13 35  1  0
 14 36  1  0
 15 37  1  0
 15 38  1  0
 16 39  1  0
 16 40  1  0
 19 41  1  0
 20 42  1  0
 21 43  1  0
 22 44  1  0
 23 45  1  0
M  END
>  <UniqueID>  (39) 
34

>  <SMILES>  (39) 
O=C(NC1CCN(Cc2ccccc2)CC1)Oc1ccccc1

>  <Energy>  (39) 
59.297122071475954

>  <Genealogy>  (39) 
O=C(NC1CCN(Cc2ccccc2)CC1)Oc1ccccc1 (3D coordinates assigned)
O=C(NC1CCN(Cc2ccccc2)CC1)Oc1ccccc1 (nonaromatic ring conformer: 59.297122071475954 kcal/mol)

>  <smiles>  (39) 
O=C(NC1CCN(Cc2ccccc2)CC1)Oc1ccccc1

>  <score_type>  (39) 
oracle

>  <origin>  (39) 
adg

>  <m_score__min__energy>  (39) 
-7.7999999999999998

>  <m_primary>  (39) 
energy

$$$$
39:0
     RDKit          3D

 44 46  0  0  0  0  0  0  0  0999 V2000
   59.2940   28.5300   46.0690 H   0  0  0  0  0  0  0  0  0  0  0  0
   58.9430   29.4480   45.7210 N   0  0  0  0  0  0  0  0  0  0  0  0
   57.7020   29.6490   45.4040 C   0  0  0  0  0  0  0  0  0  0  0  0
   56.6620   28.7400   45.4270 C   0  0  0  0  0  0  0  0  0  0  0  0
   56.6560   27.3380   45.8820 C   0  0  0  0  0  0  0  0  0  0  0  0
   57.7460   26.8050   46.2210 O   0  0  0  0  0  0  0  0  0  0  0  0
   55.4530   26.5620   45.9660 N   0  0  0  0  0  0  0  0  0  0  0  0
   55.3240   25.1620   45.6780 C   0  0  0  0  0  0  0  0  0  0  0  0
   54.1150   24.4710   45.8770 C   0  0  0  0  0  0  0  0  0  0  0  0
   53.2373   25.0036   46.2720 H   0  0  0  0  0  0  0  0  0  0  0  0
   54.0260   23.1090   45.5740 C   0  0  0  0  0  0  0  0  0  0  0  0
   53.0822   22.5697   45.7427 H   0  0  0  0  0  0  0  0  0  0  0  0
   55.1340   22.4310   45.0570 C   0  0  0  0  0  0  0  0  0  0  0  0
   55.0637   21.3581   44.8250 H   0  0  0  0  0  0  0  0  0  0  0  0
   56.3320   23.1180   44.8350 C   0  0  0  0  0  0  0  0  0  0  0  0
   57.7200   22.2710   44.1760 Cl  0  0  0  0  0  0  0  0  0  0  0  0
   56.4240   24.4800   45.1380 C   0  0  0  0  0  0  0  0  0  0  0  0
   57.3644   25.0195   44.9518 H   0  0  0  0  0  0  0  0  0  0  0  0
   55.5790   29.3640   44.9150 N   0  0  0  0  0  0  0  0  0  0  0  0
   55.9450   30.6030   44.6070 N   0  0  0  0  0  0  0  0  0  0  0  0
   57.2240   30.7960   44.8920 N   0  0  0  0  0  0  0  0  0  0  0  0
   57.9450   32.0430   44.6380 C   0  0  0  0  0  0  0  0  0  0  0  0
   59.0254   31.8649   44.7430 H   0  0  0  0  0  0  0  0  0  0  0  0
   57.7159   32.3864   43.6184 H   0  0  0  0  0  0  0  0  0  0  0  0
   57.5200   33.1030   45.6170 C   0  0  0  0  0  0  0  0  0  0  0  0
   56.6040   33.9050   45.2920 O   0  0  0  0  0  0  0  0  0  0  0  0
   58.1640   33.2680   46.8860 N   0  0  0  0  0  0  0  0  0  0  0  0
   59.5650   33.0650   47.1160 C   0  0  0  0  0  0  0  0  0  0  0  0
   60.0270   31.9110   47.7930 C   0  0  0  0  0  0  0  0  0  0  0  0
   59.0820   30.8700   48.3300 C   0  0  0  0  0  0  0  0  0  0  0  0
   59.1005   30.8904   49.4297 H   0  0  0  0  0  0  0  0  0  0  0  0
   58.0624   31.0831   47.9764 H   0  0  0  0  0  0  0  0  0  0  0  0
   59.3924   29.8757   47.9764 H   0  0  0  0  0  0  0  0  0  0  0  0
   61.4070   31.7180   47.9580 C   0  0  0  0  0  0  0  0  0  0  0  0
   61.7751   30.8030   48.4450 H   0  0  0  0  0  0  0  0  0  0  0  0
   62.3160   32.6760   47.5100 C   0  0  0  0  0  0  0  0  0  0  0  0
   63.3957   32.5109   47.6404 H   0  0  0  0  0  0  0  0  0  0  0  0
   61.8600   33.8430   46.8970 C   0  0  0  0  0  0  0  0  0  0  0  0
   62.5814   34.6039   46.5644 H   0  0  0  0  0  0  0  0  0  0  0  0
   60.4850   34.0520   46.7020 C   0  0  0  0  0  0  0  0  0  0  0  0
   60.0060   35.3170   46.0460 C   0  0  0  0  0  0  0  0  0  0  0  0
   59.7289   36.0488   46.8191 H   0  0  0  0  0  0  0  0  0  0  0  0
   60.8092   35.7320   45.4194 H   0  0  0  0  0  0  0  0  0  0  0  0
   59.1294   35.0959   45.4194 H   0  0  0  0  0  0  0  0  0  0  0  0
  1  2  1  0
  2  3  2  0
  3  4  1  0
  4  5  1  0
  5  6  2  0
  5  7  1  0
  7  8  1  0
  8  9  2  0
  9 10  1  0
  9 11  1  0
 11 12  1  0
 11 13  2  0
 13 14  1  0
 13 15  1  0
 15 16  1  0
 15 17  2  0
 17 18  1  0
  4 19  2  0
 19 20  1  0
 20 21  1  0
 21 22  1  0
 22 23  1  0
 22 24  1  0
 22 25  1  0
 25 26  2  0
 25 27  1  0
 27 28  1  0
 28 29  2  0
 29 30  1  0
 30 31  1  0
 30 32  1  0
 30 33  1  0
 29 34  1  0
 34 35  1  0
 34 36  2  0
 36 37  1  0
 36 38  1  0
 38 39  1  0
 38 40  2  0
 40 41  1  0
 41 42  1  0
 41 43  1  0
 41 44  1  0
 21  3  1  0
 40 28  1  0
 17  8  1  0
M  CHG  3   7  -1  20  -1  27  -1
M  END
>  <UniqueID>  (40) 
35

>  <SMILES>  (40) 
[H]/N=c1\c(C(=O)[N-]c2cccc(Cl)c2)n[n-]n1CC(=O)[N-]c1c(C)cccc1C

>  <Energy>  (40) 
94.39228672664329

>  <Genealogy>  (40) 
Cc1cccc(C)c1[N-]C(=O)Cn1[n-]nc(C(=O)[N-]c2cccc(Cl)c2)c1=N (protonated)
[H]/N=c1\c(C(=O)[N-]c2cccc(Cl)c2)n[n-]n1CC(=O)[N-]c1c(C)cccc1C (cis-trans isomerization)
[H]/N=c1\c(C(=O)[N-]c2cccc(Cl)c2)n[n-]n1CC(=O)[N-]c1c(C)cccc1C (3D coordinates assigned)
[H]/N=c1\c(C(=O)[N-]c2cccc(Cl)c2)n[n-]n1CC(=O)[N-]c1c(C)cccc1C (optimized conformer: 94.39228672664329 kcal/mol)

>  <smiles>  (40) 
Cc1cccc(C)c1NC(=O)Cn1[nH]nc(C(=O)Nc2cccc(Cl)c2)c1=N

>  <score_type>  (40) 
oracle

>  <origin>  (40) 
adg

>  <m_score__min__energy>  (40) 
-12.869999999999999

>  <m_primary>  (40) 
energy

$$$$
40:0
     RDKit          3D

 42 44  0  0  0  0  0  0  0  0999 V2000
   55.1990   26.6640   46.0010 N   0  0  0  0  0  0  0  0  0  0  0  0
   56.9070   26.8270   45.8050 S   0  0  0  0  0  0  0  0  0  0  0  0
   57.5920   26.5190   47.1070 O   0  0  0  0  0  0  0  0  0  0  0  0
   57.3890   25.8540   44.7660 O   0  0  0  0  0  0  0  0  0  0  0  0
   57.2880   28.4720   45.3050 C   0  0  0  0  0  0  0  0  0  0  0  0
   56.5840   29.0680   44.2520 C   0  0  0  0  0  0  0  0  0  0  0  0
   56.8750   30.3780   43.8670 C   0  0  0  0  0  0  0  0  0  0  0  0
   57.8680   31.1020   44.5330 C   0  0  0  0  0  0  0  0  0  0  0  0
   58.5810   30.5220   45.5960 C   0  0  0  0  0  0  0  0  0  0  0  0
   59.6340   31.2910   46.3090 C   0  0  0  0  0  0  0  0  0  0  0  0
   59.7020   32.6900   46.1890 C   0  0  0  0  0  0  0  0  0  0  0  0
   60.6940   33.4120   46.8590 C   0  0  0  0  0  0  0  0  0  0  0  0
   61.6350   32.7540   47.6690 C   0  0  0  0  0  0  0  0  0  0  0  0
   62.6870   33.5280   48.3710 C   0  0  0  0  0  0  0  0  0  0  0  0
   63.5110   34.2070   47.6980 O   0  0  0  0  0  0  0  0  0  0  0  0
   62.7500   33.5540   49.8070 N   0  0  0  0  0  0  0  0  0  0  0  0
   63.9260   33.9200   50.5490 C   0  0  0  0  0  0  0  0  0  0  0  0
   63.8080   34.7990   51.6360 C   0  0  0  0  0  0  0  0  0  0  0  0
   64.9320   35.1520   52.3830 C   0  0  0  0  0  0  0  0  0  0  0  0
   66.1840   34.6240   52.0630 C   0  0  0  0  0  0  0  0  0  0  0  0
   66.3240   33.7240   50.9930 C   0  0  0  0  0  0  0  0  0  0  0  0
   67.6140   33.1670   50.6760 N   0  0  0  0  0  0  0  0  0  0  0  0
   68.4450   33.8220   50.0120 O   0  0  0  0  0  0  0  0  0  0  0  0
   67.9540   31.9040   51.1020 O   0  0  0  0  0  0  0  0  0  0  0  0
   65.1850   33.3720   50.2440 C   0  0  0  0  0  0  0  0  0  0  0  0
   61.5730   31.3530   47.7800 C   0  0  0  0  0  0  0  0  0  0  0  0
   60.5810   30.6310   47.1090 C   0  0  0  0  0  0  0  0  0  0  0  0
   58.2790   29.2010   45.9790 C   0  0  0  0  0  0  0  0  0  0  0  0
   54.7750   26.7280   45.0480 H   0  0  0  0  0  0  0  0  0  0  0  0
   55.7999   28.5029   43.7268 H   0  0  0  0  0  0  0  0  0  0  0  0
   56.3213   30.8417   43.0373 H   0  0  0  0  0  0  0  0  0  0  0  0
   58.0929   32.1331   44.2228 H   0  0  0  0  0  0  0  0  0  0  0  0
   58.9692   33.2205   45.5633 H   0  0  0  0  0  0  0  0  0  0  0  0
   60.7384   34.5058   46.7511 H   0  0  0  0  0  0  0  0  0  0  0  0
   61.8600   33.4130   50.3400 H   0  0  0  0  0  0  0  0  0  0  0  0
   62.8235   35.2122   51.9008 H   0  0  0  0  0  0  0  0  0  0  0  0
   64.8313   35.8493   53.2277 H   0  0  0  0  0  0  0  0  0  0  0  0
   67.0664   34.9143   52.6521 H   0  0  0  0  0  0  0  0  0  0  0  0
   65.2808   32.6603   49.4108 H   0  0  0  0  0  0  0  0  0  0  0  0
   62.3104   30.8214   48.3993 H   0  0  0  0  0  0  0  0  0  0  0  0
   60.5421   29.5362   47.2087 H   0  0  0  0  0  0  0  0  0  0  0  0
   58.8248   28.7369   46.8137 H   0  0  0  0  0  0  0  0  0  0  0  0
  1  2  1  0
  2  3  2  0
  2  4  2  0
  2  5  1  0
  5  6  2  0
  6  7  1  0
  7  8  2  0
  8  9  1  0
  9 10  1  0
 10 11  2  0
 11 12  1  0
 12 13  2  0
 13 14  1  0
 14 15  2  0
 14 16  1  0
 16 17  1  0
 17 18  2  0
 18 19  1  0
 19 20  2  0
 20 21  1  0
 21 22  1  0
 22 23  2  0
 22 24  1  0
 21 25  2  0
 13 26  1  0
 26 27  2  0
  9 28  2  0
 28  5  1  0
 27 10  1  0
 25 17  1  0
  1 29  1  0
  6 30  1  0
  7 31  1  0
  8 32  1  0
 11 33  1  0
 12 34  1  0
 16 35  1  0
 18 36  1  0
 19 37  1  0
 20 38  1  0
 25 39  1  0
 26 40  1  0
 27 41  1  0
 28 42  1  0
M  CHG  3   1  -1  22   1  24  -1
M  END
>  <UniqueID>  (41) 
36

>  <SMILES>  (41) 
[NH-]S(=O)(=O)c1cccc(-c2ccc(C(=O)Nc3cccc([N+](=O)[O-])c3)cc2)c1

>  <Energy>  (41) 
56.69795497575558

>  <Genealogy>  (41) 
[NH-]S(=O)(=O)c1cccc(-c2ccc(C(=O)Nc3cccc([N+](=O)[O-])c3)cc2)c1 (protonated)
[NH-]S(=O)(=O)c1cccc(-c2ccc(C(=O)Nc3cccc([N+](=O)[O-])c3)cc2)c1 (3D coordinates assigned)
[NH-]S(=O)(=O)c1cccc(-c2ccc(C(=O)Nc3cccc([N+](=O)[O-])c3)cc2)c1 (optimized conformer: 56.69795497575558 kcal/mol)

>  <smiles>  (41) 
NS(=O)(=O)c1cccc(-c2ccc(C(=O)Nc3cccc([N+](=O)[O-])c3)cc2)c1

>  <score_type>  (41) 
oracle

>  <origin>  (41) 
adg

>  <m_score__min__energy>  (41) 
-11.16

>  <m_primary>  (41) 
energy

$$$$
41:0
     RDKit          3D

 49 51  0  0  0  0  0  0  0  0999 V2000
   59.3158   35.0837   49.2959 H   0  0  0  0  0  0  0  0  0  0  0  0
   59.6450   34.5950   48.3670 C   0  0  0  0  0  0  0  0  0  0  0  0
   60.9680   34.5170   48.0730 N   0  0  0  0  0  0  0  0  0  0  0  0
   61.3980   33.9200   46.9260 C   0  0  0  0  0  0  0  0  0  0  0  0
   62.6640   33.8470   46.6410 N   0  0  0  0  0  0  0  0  0  0  0  0
   63.6080   32.8960   47.2330 C   0  0  0  0  0  0  0  0  0  0  0  0
   64.4527   32.7398   46.5459 H   0  0  0  0  0  0  0  0  0  0  0  0
   62.9240   31.5440   47.4650 C   0  0  0  0  0  0  0  0  0  0  0  0
   62.8312   31.3607   48.5456 H   0  0  0  0  0  0  0  0  0  0  0  0
   61.9235   31.5560   47.0079 H   0  0  0  0  0  0  0  0  0  0  0  0
   63.5264   30.7451   47.0079 H   0  0  0  0  0  0  0  0  0  0  0  0
   64.1260   33.4640   48.5530 C   0  0  0  0  0  0  0  0  0  0  0  0
   63.6465   32.9382   49.3918 H   0  0  0  0  0  0  0  0  0  0  0  0
   65.2159   33.3262   48.6089 H   0  0  0  0  0  0  0  0  0  0  0  0
   63.8887   34.5366   48.6089 H   0  0  0  0  0  0  0  0  0  0  0  0
   60.4920   33.3870   46.0650 N   0  0  0  0  0  0  0  0  0  0  0  0
   59.1540   33.4320   46.3200 C   0  0  0  0  0  0  0  0  0  0  0  0
   58.2290   32.8730   45.3680 N   0  0  0  0  0  0  0  0  0  0  0  0
   57.9350   31.4590   45.4130 C   0  0  0  0  0  0  0  0  0  0  0  0
   57.1300   30.8530   44.4320 C   0  0  0  0  0  0  0  0  0  0  0  0
   56.7160   31.4606   43.6138 H   0  0  0  0  0  0  0  0  0  0  0  0
   56.8520   29.4840   44.4890 C   0  0  0  0  0  0  0  0  0  0  0  0
   56.2114   29.0255   43.7213 H   0  0  0  0  0  0  0  0  0  0  0  0
   57.3820   28.6910   45.5150 C   0  0  0  0  0  0  0  0  0  0  0  0
   57.0590   27.2910   45.5620 N   0  0  0  0  0  0  0  0  0  0  0  0
   56.3480   26.9250   44.8900 H   0  0  0  0  0  0  0  0  0  0  0  0
   57.7170   26.3380   46.4090 C   0  0  0  0  0  0  0  0  0  0  0  0
   58.8130   26.6300   46.9590 O   0  0  0  0  0  0  0  0  0  0  0  0
   57.1750   25.0110   46.5120 N   0  0  0  0  0  0  0  0  0  0  0  0
   55.9700   24.5930   46.2380 C   0  0  0  0  0  0  0  0  0  0  0  0
   55.0340   25.5210   45.8950 N   0  0  0  0  0  0  0  0  0  0  0  0
   53.7490   25.1880   45.6000 C   0  0  0  0  0  0  0  0  0  0  0  0
   53.0278   25.9712   45.3234 H   0  0  0  0  0  0  0  0  0  0  0  0
   53.3450   23.8540   45.6480 C   0  0  0  0  0  0  0  0  0  0  0  0
   51.5430   23.3740   45.2380 Br  0  0  0  0  0  0  0  0  0  0  0  0
   54.2710   22.8760   46.0120 C   0  0  0  0  0  0  0  0  0  0  0  0
   53.9654   21.8204   46.0612 H   0  0  0  0  0  0  0  0  0  0  0  0
   55.5860   23.2370   46.3140 C   0  0  0  0  0  0  0  0  0  0  0  0
   56.3172   22.4699   46.6090 H   0  0  0  0  0  0  0  0  0  0  0  0
   58.1710   29.2970   46.5080 C   0  0  0  0  0  0  0  0  0  0  0  0
   58.5720   28.6904   47.3334 H   0  0  0  0  0  0  0  0  0  0  0  0
   58.4490   30.6650   46.4530 C   0  0  0  0  0  0  0  0  0  0  0  0
   59.0760   31.1252   47.2308 H   0  0  0  0  0  0  0  0  0  0  0  0
   57.4080   33.7680   44.5430 C   0  0  0  0  0  0  0  0  0  0  0  0
   56.8090   34.4209   45.1949 H   0  0  0  0  0  0  0  0  0  0  0  0
   58.0618   34.3839   43.9080 H   0  0  0  0  0  0  0  0  0  0  0  0
   56.7381   33.1697   43.9080 H   0  0  0  0  0  0  0  0  0  0  0  0
   58.7040   34.0560   47.4920 C   0  0  0  0  0  0  0  0  0  0  0  0
   57.6290   34.1189   47.7165 H   0  0  0  0  0  0  0  0  0  0  0  0
  1  2  1  0
  2  3  1  0
  3  4  1  0
  4  5  2  0
  5  6  1  0
  6  7  1  0
  6  8  1  0
  8  9  1  0
  8 10  1  0
  8 11  1  0
  6 12  1  0
 12 13  1  0
 12 14  1  0
 12 15  1  0
  4 16  1  0
 16 17  2  0
 17 18  1  0
 18 19  1  0
 19 20  2  0
 20 21  1  0
 20 22  1  0
 22 23  1  0
 22 24  2  0
 24 25  1  0
 25 26  1  0
 25 27  1  0
 27 28  2  0
 27 29  1  0
 29 30  2  3
 30 31  1  0
 31 32  1  0
 32 33  1  0
 32 34  2  0
 34 35  1  0
 34 36  1  0
 36 37  1  0
 36 38  2  0
 38 39  1  0
 24 40  1  0
 40 41  1  0
 40 42  2  0
 42 43  1  0
 18 44  1  0
 44 45  1  0
 44 46  1  0
 44 47  1  0
 17 48  1  0
 48 49  1  0
 48  2  2  0
 42 19  1  0
 38 30  1  0
M  CHG  2   3  -1  31  -1
M  END
>  <UniqueID>  (42) 
37

>  <SMILES>  (42) 
CC(C)/N=c1/nc(N(C)c2ccc(NC(=O)N=c3ccc(Br)c[n-]3)cc2)cc[n-]1

>  <Energy>  (42) 
66.62003268023409

>  <Genealogy>  (42) 
CC(C)N=c1nc(N(C)c2ccc(NC(=O)N=c3ccc(Br)c[n-]3)cc2)cc[n-]1 (protonated)
CC(C)/N=c1/nc(N(C)c2ccc(NC(=O)N=c3ccc(Br)c[n-]3)cc2)cc[n-]1 (cis-trans isomerization)
CC(C)/N=c1/nc(N(C)c2ccc(NC(=O)N=c3ccc(Br)c[n-]3)cc2)cc[n-]1 (3D coordinates assigned)
CC(C)/N=c1/nc(N(C)c2ccc(NC(=O)N=c3ccc(Br)c[n-]3)cc2)cc[n-]1 (optimized conformer: 66.62003268023409 kcal/mol)

>  <smiles>  (42) 
CC(C)N=c1nc(N(C)c2ccc(NC(=O)N=c3ccc(Br)c[nH]3)cc2)cc[nH]1

>  <score_type>  (42) 
oracle

>  <origin>  (42) 
adg

>  <m_score__min__energy>  (42) 
-10.66

>  <m_primary>  (42) 
energy

$$$$
42:0
     RDKit          3D

 63 67  0  0  0  0  0  0  0  0999 V2000
   59.4798   30.9530   44.4304 H   0  0  0  0  0  0  0  0  0  0  0  0
   59.2670   30.0830   45.0690 C   0  0  0  0  0  0  0  0  0  0  0  0
   58.9470   28.8920   44.5040 N   0  0  0  0  0  0  0  0  0  0  0  0
   58.6860   27.7900   45.2540 C   0  0  0  0  0  0  0  0  0  0  0  0
   58.3540   26.5880   44.6210 C   0  0  0  0  0  0  0  0  0  0  0  0
   58.3251   26.5411   43.5224 H   0  0  0  0  0  0  0  0  0  0  0  0
   58.0570   25.4400   45.3740 C   0  0  0  0  0  0  0  0  0  0  0  0
   57.6590   24.1830   44.6930 C   0  0  0  0  0  0  0  0  0  0  0  0
   58.3530   22.9820   44.9410 C   0  0  0  0  0  0  0  0  0  0  0  0
   59.1664   22.9628   45.6813 H   0  0  0  0  0  0  0  0  0  0  0  0
   58.0130   21.8150   44.2510 C   0  0  0  0  0  0  0  0  0  0  0  0
   58.5606   20.8815   44.4478 H   0  0  0  0  0  0  0  0  0  0  0  0
   56.9780   21.8320   43.3110 C   0  0  0  0  0  0  0  0  0  0  0  0
   56.6670   20.7020   42.6280 F   0  0  0  0  0  0  0  0  0  0  0  0
   56.2710   23.0130   43.0720 C   0  0  0  0  0  0  0  0  0  0  0  0
   55.4498   23.0220   42.3402 H   0  0  0  0  0  0  0  0  0  0  0  0
   56.6040   24.1830   43.7600 C   0  0  0  0  0  0  0  0  0  0  0  0
   56.0395   25.1082   43.5719 H   0  0  0  0  0  0  0  0  0  0  0  0
   58.1130   25.5080   46.7760 C   0  0  0  0  0  0  0  0  0  0  0  0
   57.8875   24.6140   47.3759 H   0  0  0  0  0  0  0  0  0  0  0  0
   58.4530   26.7030   47.4130 C   0  0  0  0  0  0  0  0  0  0  0  0
   58.5004   26.7398   48.5114 H   0  0  0  0  0  0  0  0  0  0  0  0
   58.7360   27.8620   46.6640 C   0  0  0  0  0  0  0  0  0  0  0  0
   59.0410   29.0990   47.2770 C   0  0  0  0  0  0  0  0  0  0  0  0
   59.0690   29.1830   48.5800 N   0  0  0  0  0  0  0  0  0  0  0  0
   60.2140   29.0270   49.4300 C   0  0  0  0  0  0  0  0  0  0  0  0
   60.7910   27.9080   49.4850 O   0  0  0  0  0  0  0  0  0  0  0  0
   60.6570   30.1480   50.3410 C   0  0  2  0  0  0  0  0  0  0  0  0
   60.3098   29.9352   51.3628 H   0  0  0  0  0  0  0  0  0  0  0  0
   60.0750   31.4110   49.8850 N   0  0  0  0  0  0  0  0  0  0  0  0
   59.5430   31.4100   48.9800 H   0  0  0  0  0  0  0  0  0  0  0  0
   60.2940   32.6620   50.5550 C   0  0  0  0  0  0  0  0  0  0  0  0
   61.0660   32.7320   51.5530 O   0  0  0  0  0  0  0  0  0  0  0  0
   59.6060   33.8990   50.0700 C   0  0  0  0  0  0  0  0  0  0  0  0
   58.5894   33.9371   50.4885 H   0  0  0  0  0  0  0  0  0  0  0  0
   60.1796   34.7794   50.3953 H   0  0  0  0  0  0  0  0  0  0  0  0
   59.5250   33.8940   48.5690 C   0  0  0  0  0  0  0  0  0  0  0  0
   60.5170   34.5280   47.8020 C   0  0  0  0  0  0  0  0  0  0  0  0
   61.3488   35.0467   48.3011 H   0  0  0  0  0  0  0  0  0  0  0  0
   60.4490   34.5010   46.4060 C   0  0  0  0  0  0  0  0  0  0  0  0
   61.2257   35.0014   45.8091 H   0  0  0  0  0  0  0  0  0  0  0  0
   59.3970   33.8400   45.7670 C   0  0  0  0  0  0  0  0  0  0  0  0
   59.3427   33.8264   44.6684 H   0  0  0  0  0  0  0  0  0  0  0  0
   58.4150   33.1970   46.5220 C   0  0  0  0  0  0  0  0  0  0  0  0
   57.5896   32.6727   46.0182 H   0  0  0  0  0  0  0  0  0  0  0  0
   58.4800   33.2190   47.9200 C   0  0  0  0  0  0  0  0  0  0  0  0
   57.7087   32.7050   48.5123 H   0  0  0  0  0  0  0  0  0  0  0  0
   62.1920   30.2510   50.3590 C   0  0  0  0  0  0  0  0  0  0  0  0
   62.5204   30.5508   51.3651 H   0  0  0  0  0  0  0  0  0  0  0  0
   62.6117   29.2698   50.0923 H   0  0  0  0  0  0  0  0  0  0  0  0
   62.6780   31.2680   49.3590 C   0  0  0  0  0  0  0  0  0  0  0  0
   63.6220   32.2380   49.7360 C   0  0  0  0  0  0  0  0  0  0  0  0
   63.9733   32.2845   50.7773 H   0  0  0  0  0  0  0  0  0  0  0  0
   64.1160   33.1430   48.7950 C   0  0  0  0  0  0  0  0  0  0  0  0
   64.8531   33.9021   49.0957 H   0  0  0  0  0  0  0  0  0  0  0  0
   63.6730   33.0840   47.4690 C   0  0  0  0  0  0  0  0  0  0  0  0
   64.0617   33.7979   46.7279 H   0  0  0  0  0  0  0  0  0  0  0  0
   62.7380   32.1200   47.0850 C   0  0  0  0  0  0  0  0  0  0  0  0
   62.3891   32.0765   46.0427 H   0  0  0  0  0  0  0  0  0  0  0  0
   62.2460   31.2110   48.0250 C   0  0  0  0  0  0  0  0  0  0  0  0
   61.5166   30.4470   47.7180 H   0  0  0  0  0  0  0  0  0  0  0  0
   59.3270   30.2080   46.4540 C   0  0  0  0  0  0  0  0  0  0  0  0
   59.5978   31.1730   46.9072 H   0  0  0  0  0  0  0  0  0  0  0  0
  1  2  1  0
  2  3  1  0
  3  4  1  0
  4  5  2  0
  5  6  1  0
  5  7  1  0
  7  8  1  0
  8  9  2  0
  9 10  1  0
  9 11  1  0
 11 12  1  0
 11 13  2  0
 13 14  1  0
 13 15  1  0
 15 16  1  0
 15 17  2  0
 17 18  1  0
  7 19  2  0
 19 20  1  0
 19 21  1  0
 21 22  1  0
 21 23  2  0
 23 24  1  0
 24 25  2  0
 25 26  1  0
 26 27  2  0
 26 28  1  0
 28 29  1  1
 28 30  1  0
 30 31  1  0
 30 32  1  0
 32 33  2  0
 32 34  1  0
 34 35  1  0
 34 36  1  0
 34 37  1  0
 37 38  2  0
 38 39  1  0
 38 40  1  0
 40 41  1  0
 40 42  2  0
 42 43  1  0
 42 44  1  0
 44 45  1  0
 44 46  2  0
 46 47  1  0
 28 48  1  0
 48 49  1  0
 48 50  1  0
 48 51  1  0
 51 52  2  0
 52 53  1  0
 52 54  1  0
 54 55  1  0
 54 56  2  0
 56 57  1  0
 56 58  1  0
 58 59  1  0
 58 60  2  0
 60 61  1  0
 24 62  1  0
 62 63  1  0
 62  2  2  0
 23  4  1  0
 46 37  1  0
 60 51  1  0
 17  8  1  0
M  CHG  1   3  -1
M  END
>  <UniqueID>  (43) 
38

>  <SMILES>  (43) 
O=C(Cc1ccccc1)N[C@H](Cc1ccccc1)C(=O)/N=c1\cc[n-]c2cc(-c3ccc(F)cc3)ccc12

>  <Energy>  (43) 
81.5764686208615

>  <Genealogy>  (43) 
O=C(Cc1ccccc1)NC(Cc1ccccc1)C(=O)N=c1cc[n-]c2cc(-c3ccc(F)cc3)ccc12 (protonated)
O=C(Cc1ccccc1)N[C@H](Cc1ccccc1)C(=O)N=c1cc[n-]c2cc(-c3ccc(F)cc3)ccc12 (chirality)
O=C(Cc1ccccc1)N[C@H](Cc1ccccc1)C(=O)/N=c1\cc[n-]c2cc(-c3ccc(F)cc3)ccc12 (cis-trans isomerization)
O=C(Cc1ccccc1)N[C@H](Cc1ccccc1)C(=O)/N=c1\cc[n-]c2cc(-c3ccc(F)cc3)ccc12 (3D coordinates assigned)
O=C(Cc1ccccc1)N[C@H](Cc1ccccc1)C(=O)/N=c1\cc[n-]c2cc(-c3ccc(F)cc3)ccc12 (optimized conformer: 81.5764686208615 kcal/mol)

>  <smiles>  (43) 
O=C(Cc1ccccc1)NC(Cc1ccccc1)C(=O)N=c1cc[nH]c2cc(-c3ccc(F)cc3)ccc12

>  <score_type>  (43) 
oracle

>  <origin>  (43) 
adg

>  <m_score__min__energy>  (43) 
-11.08

>  <m_primary>  (43) 
energy

$$$$
43:0
     RDKit          3D

 41 43  0  0  0  0  0  0  0  0999 V2000
   60.3680   33.2970   49.4400 C   0  0  0  0  0  0  0  0  0  0  0  0
   60.4840   32.2220   48.4010 C   0  0  0  0  0  0  0  0  0  0  0  0
   61.7450   31.7560   48.0050 C   0  0  0  0  0  0  0  0  0  0  0  0
   61.8560   30.7810   47.0110 C   0  0  0  0  0  0  0  0  0  0  0  0
   60.7090   30.2580   46.3920 C   0  0  0  0  0  0  0  0  0  0  0  0
   60.8460   29.2170   45.3170 C   0  0  0  0  0  0  0  0  0  0  0  0
   59.4390   30.7510   46.7650 C   0  0  0  0  0  0  0  0  0  0  0  0
   58.2410   30.2640   46.1310 N   0  0  0  0  0  0  0  0  0  0  0  0
   57.4330   31.1270   45.4440 C   0  0  0  0  0  0  0  0  0  0  0  0
   57.7220   32.3530   45.3640 O   0  0  0  0  0  0  0  0  0  0  0  0
   56.3080   30.6750   44.8410 N   0  0  0  0  0  0  0  0  0  0  0  0
   55.9450   29.3710   44.9020 C   0  0  0  0  0  0  0  0  0  0  0  0
   54.7710   28.9670   44.2750 O   0  0  0  0  0  0  0  0  0  0  0  0
   56.7410   28.4520   45.6070 C   0  0  0  0  0  0  0  0  0  0  0  0
   56.3580   27.0190   45.6860 C   0  0  0  0  0  0  0  0  0  0  0  0
   55.1720   26.7060   45.9800 O   0  0  0  0  0  0  0  0  0  0  0  0
   57.3370   25.9900   45.4780 N   0  0  0  0  0  0  0  0  0  0  0  0
   57.0000   24.6130   45.2420 C   0  0  0  0  0  0  0  0  0  0  0  0
   56.9850   24.1250   43.9260 C   0  0  0  0  0  0  0  0  0  0  0  0
   56.6470   22.7940   43.6690 C   0  0  0  0  0  0  0  0  0  0  0  0
   56.3070   21.9420   44.7220 C   0  0  0  0  0  0  0  0  0  0  0  0
   56.2950   22.4230   46.0330 C   0  0  0  0  0  0  0  0  0  0  0  0
   56.6320   23.7550   46.2970 C   0  0  0  0  0  0  0  0  0  0  0  0
   56.5520   24.2140   47.5730 F   0  0  0  0  0  0  0  0  0  0  0  0
   57.9150   28.9350   46.2170 C   0  0  0  0  0  0  0  0  0  0  0  0
   58.6830   28.1370   46.8260 O   0  0  0  0  0  0  0  0  0  0  0  0
   59.3370   31.7280   47.7660 C   0  0  0  0  0  0  0  0  0  0  0  0
   60.4167   32.8454   50.4418 H   0  0  0  0  0  0  0  0  0  0  0  0
   61.1940   34.0134   49.3202 H   0  0  0  0  0  0  0  0  0  0  0  0
   59.4081   33.8207   49.3202 H   0  0  0  0  0  0  0  0  0  0  0  0
   62.6516   32.1600   48.4792 H   0  0  0  0  0  0  0  0  0  0  0  0
   62.8505   30.4196   46.7104 H   0  0  0  0  0  0  0  0  0  0  0  0
   60.9762   28.2274   45.7793 H   0  0  0  0  0  0  0  0  0  0  0  0
   59.9406   29.2136   44.6924 H   0  0  0  0  0  0  0  0  0  0  0  0
   61.7215   29.4480   44.6924 H   0  0  0  0  0  0  0  0  0  0  0  0
   58.3400   26.2250   45.6560 H   0  0  0  0  0  0  0  0  0  0  0  0
   57.2410   24.7947   43.0918 H   0  0  0  0  0  0  0  0  0  0  0  0
   56.6487   22.4166   42.6358 H   0  0  0  0  0  0  0  0  0  0  0  0
   56.0487   20.8922   44.5188 H   0  0  0  0  0  0  0  0  0  0  0  0
   56.0198   21.7526   46.8606 H   0  0  0  0  0  0  0  0  0  0  0  0
   58.3469   32.1101   48.0553 H   0  0  0  0  0  0  0  0  0  0  0  0
  1  2  1  0
  2  3  2  0
  3  4  1  0
  4  5  2  0
  5  6  1  0
  5  7  1  0
  7  8  1  0
  8  9  1  0
  9 10  2  0
  9 11  1  0
 11 12  1  0
 12 13  1  0
 12 14  2  0
 14 15  1  0
 15 16  2  0
 15 17  1  0
 17 18  1  0
 18 19  2  0
 19 20  1  0
 20 21  2  0
 21 22  1  0
 22 23  2  0
 23 24  1  0
 14 25  1  0
 25 26  2  0
  7 27  2  0
 27  2  1  0
 25  8  1  0
 23 18  1  0
  1 28  1  0
  1 29  1  0
  1 30  1  0
  3 31  1  0
  4 32  1  0
  6 33  1  0
  6 34  1  0
  6 35  1  0
 17 36  1  0
 19 37  1  0
 20 38  1  0
 21 39  1  0
 22 40  1  0
 27 41  1  0
M  CHG  2  11  -1  13  -1
M  END
>  <UniqueID>  (44) 
39

>  <SMILES>  (44) 
Cc1ccc(C)c(-n2c(=O)[n-]c([O-])c(C(=O)Nc3ccccc3F)c2=O)c1

>  <Energy>  (44) 
63.64245176797547

>  <Genealogy>  (44) 
Cc1ccc(C)c(-n2c(=O)[n-]c([O-])c(C(=O)Nc3ccccc3F)c2=O)c1 (protonated)
Cc1ccc(C)c(-n2c(=O)[n-]c([O-])c(C(=O)Nc3ccccc3F)c2=O)c1 (3D coordinates assigned)
Cc1ccc(C)c(-n2c(=O)[n-]c([O-])c(C(=O)Nc3ccccc3F)c2=O)c1 (optimized conformer: 63.64245176797547 kcal/mol)

>  <smiles>  (44) 
Cc1ccc(C)c(-n2c(=O)[nH]c(O)c(C(=O)Nc3ccccc3F)c2=O)c1

>  <score_type>  (44) 
oracle

>  <origin>  (44) 
adg

>  <m_score__min__energy>  (44) 
-11.890000000000001

>  <m_primary>  (44) 
energy

$$$$
44:0
     RDKit          3D

 49 53  0  0  0  0  0  0  0  0999 V2000
   59.6390   35.7450   46.7060 C   0  0  0  0  0  0  0  0  0  0  0  0
   59.9290   34.3240   46.5420 N   0  0  0  0  0  0  0  0  0  0  0  0
   61.0250   33.6760   47.0010 C   0  0  0  0  0  0  0  0  0  0  0  0
   60.9330   32.3150   46.7240 C   0  0  0  0  0  0  0  0  0  0  0  0
   61.9370   31.2530   47.0810 C   0  0  0  0  0  0  0  0  0  0  0  0
   61.4160   30.3290   48.1030 N   0  0  0  0  0  0  0  0  0  0  0  0
   61.8370   30.4680   49.4880 C   0  0  0  0  0  0  0  0  0  0  0  0
   62.8040   31.2240   49.7750 O   0  0  0  0  0  0  0  0  0  0  0  0
   61.1850   29.7300   50.5960 C   0  0  0  0  0  0  0  0  0  0  0  0
   61.9800   29.0640   51.5450 C   0  0  0  0  0  0  0  0  0  0  0  0
   61.3860   28.3470   52.5860 C   0  0  0  0  0  0  0  0  0  0  0  0
   59.9940   28.2920   52.6960 C   0  0  0  0  0  0  0  0  0  0  0  0
   59.1930   28.9660   51.7690 C   0  0  0  0  0  0  0  0  0  0  0  0
   59.7830   29.6990   50.7320 C   0  0  0  0  0  0  0  0  0  0  0  0
   58.7390   30.5860   49.5780 S   0  0  0  0  0  0  0  0  0  0  0  0
   59.1250   29.3860   48.3110 C   0  0  0  0  0  0  0  0  0  0  0  0
   58.1600   28.4440   47.9390 C   0  0  0  0  0  0  0  0  0  0  0  0
   58.4490   27.4820   46.9570 C   0  0  0  0  0  0  0  0  0  0  0  0
   57.4770   26.5200   46.5260 N   0  0  0  0  0  0  0  0  0  0  0  0
   56.1820   26.8020   45.9860 C   0  0  0  0  0  0  0  0  0  0  0  0
   55.9200   28.0270   45.3030 N   0  0  0  0  0  0  0  0  0  0  0  0
   55.2490   25.9780   46.1620 O   0  0  0  0  0  0  0  0  0  0  0  0
   59.6980   27.5050   46.3270 C   0  0  0  0  0  0  0  0  0  0  0  0
   60.6660   28.4390   46.7010 C   0  0  0  0  0  0  0  0  0  0  0  0
   60.4000   29.3770   47.7110 C   0  0  0  0  0  0  0  0  0  0  0  0
   59.7180   32.1460   46.0790 C   0  0  0  0  0  0  0  0  0  0  0  0
   59.0830   31.0010   45.5940 C   0  0  0  0  0  0  0  0  0  0  0  0
   57.8160   31.1500   45.0040 C   0  0  0  0  0  0  0  0  0  0  0  0
   57.2140   32.4220   44.9160 C   0  0  0  0  0  0  0  0  0  0  0  0
   57.8720   33.5590   45.4160 C   0  0  0  0  0  0  0  0  0  0  0  0
   59.1330   33.3860   45.9930 C   0  0  0  0  0  0  0  0  0  0  0  0
   59.5894   35.9878   47.7777 H   0  0  0  0  0  0  0  0  0  0  0  0
   60.4345   36.3387   46.2319 H   0  0  0  0  0  0  0  0  0  0  0  0
   58.6745   35.9795   46.2319 H   0  0  0  0  0  0  0  0  0  0  0  0
   61.8682   34.1563   47.5190 H   0  0  0  0  0  0  0  0  0  0  0  0
   62.1856   30.6794   46.1759 H   0  0  0  0  0  0  0  0  0  0  0  0
   62.8285   31.7496   47.4917 H   0  0  0  0  0  0  0  0  0  0  0  0
   63.0764   29.1078   51.4672 H   0  0  0  0  0  0  0  0  0  0  0  0
   62.0155   27.8243   53.3212 H   0  0  0  0  0  0  0  0  0  0  0  0
   59.5286   27.7188   53.5114 H   0  0  0  0  0  0  0  0  0  0  0  0
   58.0973   28.9203   51.8545 H   0  0  0  0  0  0  0  0  0  0  0  0
   57.1698   28.4567   48.4179 H   0  0  0  0  0  0  0  0  0  0  0  0
   55.1700   28.6730   45.6320 H   0  0  0  0  0  0  0  0  0  0  0  0
   59.9194   26.7804   45.5295 H   0  0  0  0  0  0  0  0  0  0  0  0
   61.6453   28.4399   46.2001 H   0  0  0  0  0  0  0  0  0  0  0  0
   59.5597   30.0127   45.6713 H   0  0  0  0  0  0  0  0  0  0  0  0
   57.2906   30.2684   44.6083 H   0  0  0  0  0  0  0  0  0  0  0  0
   56.2218   32.5253   44.4525 H   0  0  0  0  0  0  0  0  0  0  0  0
   57.4085   34.5547   45.3550 H   0  0  0  0  0  0  0  0  0  0  0  0
  1  2  1  0
  2  3  1  0
  3  4  2  0
  4  5  1  0
  5  6  1  0
  6  7  1  0
  7  8  2  0
  7  9  1  0
  9 10  2  0
 10 11  1  0
 11 12  2  0
 12 13  1  0
 13 14  2  0
 14 15  1  0
 15 16  1  0
 16 17  2  0
 17 18  1  0
 18 19  1  0
 19 20  1  0
 20 21  1  0
 20 22  2  0
 18 23  2  0
 23 24  1  0
 24 25  2  0
  4 26  1  0
 26 27  2  0
 27 28  1  0
 28 29  2  0
 29 30  1  0
 30 31  2  0
 31  2  1  0
 25  6  1  0
 31 26  1  0
 14  9  1  0
 25 16  1  0
  1 32  1  0
  1 33  1  0
  1 34  1  0
  3 35  1  0
  5 36  1  0
  5 37  1  0
 10 38  1  0
 11 39  1  0
 12 40  1  0
 13 41  1  0
 17 42  1  0
 21 43  1  0
 23 44  1  0
 24 45  1  0
 27 46  1  0
 28 47  1  0
 29 48  1  0
 30 49  1  0
M  CHG  2  19  -1  21  -1
M  END
>  <UniqueID>  (45) 
40

>  <SMILES>  (45) 
Cn1cc(CN2C(=O)c3ccccc3Sc3cc([N-]C([NH-])=O)ccc32)c2ccccc21

>  <Energy>  (45) 
104.95890751814387

>  <Genealogy>  (45) 
Cn1cc(CN2C(=O)c3ccccc3Sc3cc([N-]C([NH-])=O)ccc32)c2ccccc21 (protonated)
Cn1cc(CN2C(=O)c3ccccc3Sc3cc([N-]C([NH-])=O)ccc32)c2ccccc21 (3D coordinates assigned)
Cn1cc(CN2C(=O)c3ccccc3Sc3cc([N-]C([NH-])=O)ccc32)c2ccccc21 (nonaromatic ring conformer: 104.95890751814387 kcal/mol)

>  <smiles>  (45) 
Cn1cc(CN2C(=O)c3ccccc3Sc3cc(NC(N)=O)ccc32)c2ccccc21

>  <score_type>  (45) 
oracle

>  <origin>  (45) 
adg

>  <m_score__min__energy>  (45) 
-13

>  <m_primary>  (45) 
energy

$$$$
45:0
     RDKit          3D

 35 37  0  0  0  0  0  0  0  0999 V2000
   59.3880   22.2340   44.8020 C   0  0  0  0  0  0  0  0  0  0  0  0
   59.2930   23.3970   45.6180 O   0  0  0  0  0  0  0  0  0  0  0  0
   58.1480   24.2000   45.7220 C   0  0  0  0  0  0  0  0  0  0  0  0
   56.8540   23.6580   45.8350 C   0  0  0  0  0  0  0  0  0  0  0  0
   55.7440   24.5010   45.9320 C   0  0  0  0  0  0  0  0  0  0  0  0
   55.9080   25.8880   45.9190 C   0  0  0  0  0  0  0  0  0  0  0  0
   54.7880   26.7100   45.9980 O   0  0  0  0  0  0  0  0  0  0  0  0
   57.1970   26.4420   45.8200 C   0  0  0  0  0  0  0  0  0  0  0  0
   57.3940   27.9090   45.7990 C   0  0  0  0  0  0  0  0  0  0  0  0
   56.6800   28.6660   44.8640 C   0  0  0  0  0  0  0  0  0  0  0  0
   56.8310   30.0530   44.8480 C   0  0  0  0  0  0  0  0  0  0  0  0
   56.1860   30.7450   44.0160 O   0  0  0  0  0  0  0  0  0  0  0  0
   57.6490   30.6510   45.7050 O   0  0  0  0  0  0  0  0  0  0  0  0
   58.3640   29.9840   46.6080 C   0  0  0  0  0  0  0  0  0  0  0  0
   59.2170   30.6860   47.4810 C   0  0  0  0  0  0  0  0  0  0  0  0
   59.3230   32.1840   47.3960 C   0  0  0  0  0  0  0  0  0  0  0  0
   59.9920   29.9780   48.4100 C   0  0  0  0  0  0  0  0  0  0  0  0
   59.9190   28.5850   48.4820 C   0  0  0  0  0  0  0  0  0  0  0  0
   60.7050   27.9060   49.4110 O   0  0  0  0  0  0  0  0  0  0  0  0
   59.0650   27.8830   47.6240 C   0  0  0  0  0  0  0  0  0  0  0  0
   58.2710   28.5720   46.6880 C   0  0  0  0  0  0  0  0  0  0  0  0
   58.3080   25.5910   45.7120 C   0  0  0  0  0  0  0  0  0  0  0  0
   59.4609   21.3422   45.4418 H   0  0  0  0  0  0  0  0  0  0  0  0
   58.4931   22.1576   44.1669 H   0  0  0  0  0  0  0  0  0  0  0  0
   60.2834   22.3038   44.1669 H   0  0  0  0  0  0  0  0  0  0  0  0
   56.7161   22.5667   45.8470 H   0  0  0  0  0  0  0  0  0  0  0  0
   54.7357   24.0701   46.0191 H   0  0  0  0  0  0  0  0  0  0  0  0
   56.0060   28.1725   44.1483 H   0  0  0  0  0  0  0  0  0  0  0  0
   59.3530   32.6076   48.4107 H   0  0  0  0  0  0  0  0  0  0  0  0
   60.2427   32.4565   46.8576 H   0  0  0  0  0  0  0  0  0  0  0  0
   58.4509   32.5833   46.8576 H   0  0  0  0  0  0  0  0  0  0  0  0
   60.6637   30.5244   49.0884 H   0  0  0  0  0  0  0  0  0  0  0  0
   60.7860   28.2210   50.3710 H   0  0  0  0  0  0  0  0  0  0  0  0
   59.0139   26.7857   47.6814 H   0  0  0  0  0  0  0  0  0  0  0  0
   59.3158   26.0218   45.6184 H   0  0  0  0  0  0  0  0  0  0  0  0
  1  2  1  0
  2  3  1  0
  3  4  2  0
  4  5  1  0
  5  6  2  0
  6  7  1  0
  6  8  1  0
  8  9  1  0
  9 10  2  0
 10 11  1  0
 11 12  2  0
 11 13  1  0
 13 14  1  0
 14 15  2  0
 15 16  1  0
 15 17  1  0
 17 18  2  0
 18 19  1  0
 18 20  1  0
 20 21  2  0
  8 22  2  0
 22  3  1  0
 21  9  1  0
 21 14  1  0
  1 23  1  0
  1 24  1  0
  1 25  1  0
  4 26  1  0
  5 27  1  0
 10 28  1  0
 16 29  1  0
 16 30  1  0
 16 31  1  0
 17 32  1  0
 19 33  1  0
 20 34  1  0
 22 35  1  0
M  CHG  1   7  -1
M  END
>  <UniqueID>  (46) 
41

>  <SMILES>  (46) 
COc1ccc([O-])c(-c2cc(=O)oc3c(C)cc(O)cc23)c1

>  <Energy>  (46) 
49.70559849231902

>  <Genealogy>  (46) 
COc1ccc([O-])c(-c2cc(=O)oc3c(C)cc(O)cc23)c1 (protonated)
COc1ccc([O-])c(-c2cc(=O)oc3c(C)cc(O)cc23)c1 (3D coordinates assigned)
COc1ccc([O-])c(-c2cc(=O)oc3c(C)cc(O)cc23)c1 (optimized conformer: 49.70559849231902 kcal/mol)

>  <smiles>  (46) 
COc1ccc(O)c(-c2cc(=O)oc3c(C)cc(O)cc23)c1

>  <score_type>  (46) 
oracle

>  <origin>  (46) 
adg

>  <m_score__min__energy>  (46) 
-10.69

>  <m_primary>  (46) 
energy

$$$$
46:0
     RDKit          3D

 49 52  0  0  0  0  0  0  0  0999 V2000
   62.3810   33.7960   46.9230 C   0  0  0  0  0  0  0  0  0  0  0  0
   61.1440   34.2790   47.4320 O   0  0  0  0  0  0  0  0  0  0  0  0
   60.0220   33.4590   47.5850 C   0  0  0  0  0  0  0  0  0  0  0  0
   59.0170   33.8630   48.2340 O   0  0  0  0  0  0  0  0  0  0  0  0
   60.0480   32.0640   47.0090 C   0  0  2  0  0  0  0  0  0  0  0  0
   58.6920   31.5720   46.5340 C   0  0  0  0  0  0  0  0  0  0  0  0
   57.6820   32.4960   45.9020 C   0  0  0  0  0  0  0  0  0  0  0  0
   57.5400   32.1850   44.4690 N   0  0  0  0  0  0  0  0  0  0  0  0
   58.2150   32.9580   43.5630 C   0  0  0  0  0  0  0  0  0  0  0  0
   58.1450   32.6790   42.1970 C   0  0  0  0  0  0  0  0  0  0  0  0
   57.3900   31.5960   41.7560 C   0  0  0  0  0  0  0  0  0  0  0  0
   56.7160   30.8030   42.6820 C   0  0  0  0  0  0  0  0  0  0  0  0
   56.8030   31.1050   44.0450 C   0  0  0  0  0  0  0  0  0  0  0  0
   56.2000   30.3680   44.8730 O   0  0  0  0  0  0  0  0  0  0  0  0
   58.4690   30.2930   46.4660 N   0  0  0  0  0  0  0  0  0  0  0  0
   59.4150   29.3040   46.8980 C   0  0  0  0  0  0  0  0  0  0  0  0
   59.1650   27.8830   46.5550 C   0  0  0  0  0  0  0  0  0  0  0  0
   60.1940   26.9360   46.7130 C   0  0  0  0  0  0  0  0  0  0  0  0
   59.9810   25.5950   46.3830 C   0  0  0  0  0  0  0  0  0  0  0  0
   58.7420   25.1840   45.8830 C   0  0  0  0  0  0  0  0  0  0  0  0
   58.4780   23.5000   45.4670 Cl  0  0  0  0  0  0  0  0  0  0  0  0
   57.7170   26.1180   45.7080 C   0  0  0  0  0  0  0  0  0  0  0  0
   57.9260   27.4610   46.0380 C   0  0  0  0  0  0  0  0  0  0  0  0
   60.4890   29.6700   47.5460 N   0  0  0  0  0  0  0  0  0  0  0  0
   60.6910   31.0510   47.9980 C   0  0  2  0  0  0  0  0  0  0  0  0
   60.1880   31.1940   49.4210 C   0  0  0  0  0  0  0  0  0  0  0  0
   60.9760   31.7330   50.4530 C   0  0  0  0  0  0  0  0  0  0  0  0
   60.3200   31.8130   51.6720 C   0  0  0  0  0  0  0  0  0  0  0  0
   58.7620   31.2230   51.4670 S   0  0  0  0  0  0  0  0  0  0  0  0
   58.9000   30.8580   49.8330 C   0  0  0  0  0  0  0  0  0  0  0  0
   63.0457   33.5365   47.7602 H   0  0  0  0  0  0  0  0  0  0  0  0
   62.2004   32.9023   46.3076 H   0  0  0  0  0  0  0  0  0  0  0  0
   62.8537   34.5756   46.3076 H   0  0  0  0  0  0  0  0  0  0  0  0
   60.6804   32.1293   46.1113 H   0  0  0  0  0  0  0  0  0  0  0  0
   56.7097   32.3681   46.4003 H   0  0  0  0  0  0  0  0  0  0  0  0
   58.0251   33.5352   46.0131 H   0  0  0  0  0  0  0  0  0  0  0  0
   58.8186   33.8076   43.9149 H   0  0  0  0  0  0  0  0  0  0  0  0
   58.6826   33.3105   41.4743 H   0  0  0  0  0  0  0  0  0  0  0  0
   57.3259   31.3675   40.6819 H   0  0  0  0  0  0  0  0  0  0  0  0
   56.1185   29.9438   42.3431 H   0  0  0  0  0  0  0  0  0  0  0  0
   61.1736   27.2540   47.0993 H   0  0  0  0  0  0  0  0  0  0  0  0
   60.7897   24.8615   46.5169 H   0  0  0  0  0  0  0  0  0  0  0  0
   56.7435   25.7960   45.3097 H   0  0  0  0  0  0  0  0  0  0  0  0
   57.1169   28.1919   45.8925 H   0  0  0  0  0  0  0  0  0  0  0  0
   61.2180   28.9690   47.8100 H   0  0  0  0  0  0  0  0  0  0  0  0
   61.7650   31.2888   48.0047 H   0  0  0  0  0  0  0  0  0  0  0  0
   62.0159   32.0607   50.3071 H   0  0  0  0  0  0  0  0  0  0  0  0
   60.7466   32.1966   52.6106 H   0  0  0  0  0  0  0  0  0  0  0  0
   58.1107   30.4284   49.1986 H   0  0  0  0  0  0  0  0  0  0  0  0
  1  2  1  0
  2  3  1  0
  3  4  2  0
  3  5  1  0
  5  6  1  0
  6  7  1  0
  7  8  1  0
  8  9  1  0
  9 10  2  0
 10 11  1  0
 11 12  2  0
 12 13  1  0
 13 14  2  0
  6 15  2  0
 15 16  1  0
 16 17  1  0
 17 18  2  0
 18 19  1  0
 19 20  2  0
 20 21  1  0
 20 22  1  0
 22 23  2  0
 16 24  2  0
 24 25  1  0
 25 26  1  0
 26 27  1  0
 27 28  2  0
 28 29  1  0
 29 30  1  0
 25  5  1  0
 30 26  2  0
 13  8  1  0
 23 17  1  0
  1 31  1  0
  1 32  1  0
  1 33  1  0
  5 34  1  6
  7 35  1  0
  7 36  1  0
  9 37  1  0
 10 38  1  0
 11 39  1  0
 12 40  1  0
 18 41  1  0
 19 42  1  0
 22 43  1  0
 23 44  1  0
 24 45  1  0
 25 46  1  1
 27 47  1  0
 28 48  1  0
 30 49  1  0
M  CHG  1  24   1
M  END
>  <UniqueID>  (47) 
42

>  <SMILES>  (47) 
COC(=O)[C@@H]1C(Cn2ccccc2=O)=NC(c2ccc(Cl)cc2)=[NH+][C@@H]1c1ccsc1

>  <Energy>  (47) 
83.6383197507454

>  <Genealogy>  (47) 
COC(=O)C1C(Cn2ccccc2=O)=NC(c2ccc(Cl)cc2)=[NH+]C1c1ccsc1 (protonated)
COC(=O)[C@@H]1C(Cn2ccccc2=O)=NC(c2ccc(Cl)cc2)=[NH+][C@@H]1c1ccsc1 (chirality)
COC(=O)[C@@H]1C(Cn2ccccc2=O)=NC(c2ccc(Cl)cc2)=[NH+][C@@H]1c1ccsc1 (3D coordinates assigned)
COC(=O)[C@@H]1C(Cn2ccccc2=O)=NC(c2ccc(Cl)cc2)=[NH+][C@@H]1c1ccsc1 (nonaromatic ring conformer: 83.6383197507454 kcal/mol)

>  <smiles>  (47) 
COC(=O)C1C(Cn2ccccc2=O)=NC(c2ccc(Cl)cc2)=NC1c1ccsc1

>  <score_type>  (47) 
oracle

>  <origin>  (47) 
adg

>  <m_score__min__energy>  (47) 
-6.4199999999999999

>  <m_primary>  (47) 
energy

$$$$
47:0
     RDKit          3D

 53 56  0  0  0  0  0  0  0  0999 V2000
   55.1780   29.3070   44.8620 N   0  0  0  0  0  0  0  0  0  0  0  0
   56.8260   29.8000   44.6960 S   0  0  0  0  0  0  0  0  0  0  0  0
   57.3680   29.2780   43.3930 O   0  0  0  0  0  0  0  0  0  0  0  0
   56.9080   31.2990   44.6910 O   0  0  0  0  0  0  0  0  0  0  0  0
   57.7650   29.1690   46.0450 C   0  0  0  0  0  0  0  0  0  0  0  0
   57.7460   27.8030   46.3560 C   0  0  0  0  0  0  0  0  0  0  0  0
   58.5030   27.3120   47.4250 C   0  0  0  0  0  0  0  0  0  0  0  0
   59.2970   28.1850   48.1910 C   0  0  0  0  0  0  0  0  0  0  0  0
   60.0790   27.7340   49.3090 N   0  0  0  0  0  0  0  0  0  0  0  0
   60.6200   28.5330   50.3690 C   0  0  0  0  0  0  0  0  0  0  0  0
   60.1840   28.4300   51.5470 O   0  0  0  0  0  0  0  0  0  0  0  0
   61.7510   29.4660   50.0790 C   0  0  0  0  0  0  0  0  0  0  0  0
   61.4130   31.1310   50.7460 S   0  0  0  0  0  0  0  0  0  0  0  0
   63.1400   31.6250   50.7960 C   0  0  0  0  0  0  0  0  0  0  0  0
   64.1470   30.7230   50.9380 N   0  0  0  0  0  0  0  0  0  0  0  0
   65.2470   31.4970   50.9360 C   0  0  0  0  0  0  0  0  0  0  0  0
   66.5720   31.0850   51.0470 C   0  0  0  0  0  0  0  0  0  0  0  0
   67.5720   32.0750   51.0080 C   0  0  0  0  0  0  0  0  0  0  0  0
   67.2240   33.4380   50.8580 C   0  0  0  0  0  0  0  0  0  0  0  0
   65.8740   33.8210   50.7470 C   0  0  0  0  0  0  0  0  0  0  0  0
   64.9090   32.8120   50.7940 C   0  0  0  0  0  0  0  0  0  0  0  0
   63.5710   32.9130   50.7070 N   0  0  0  0  0  0  0  0  0  0  0  0
   62.7810   34.1180   50.4460 C   0  0  0  0  0  0  0  0  0  0  0  0
   62.0600   33.9900   49.1380 C   0  0  0  0  0  0  0  0  0  0  0  0
   62.7240   33.9450   48.0680 O   0  0  0  0  0  0  0  0  0  0  0  0
   60.6330   33.8310   49.1190 N   0  0  0  0  0  0  0  0  0  0  0  0
   59.8350   33.8790   47.9240 C   0  0  0  0  0  0  0  0  0  0  0  0
   58.5800   33.2510   47.9090 C   0  0  0  0  0  0  0  0  0  0  0  0
   57.7760   33.3020   46.7660 C   0  0  0  0  0  0  0  0  0  0  0  0
   58.2130   33.9960   45.6340 C   0  0  0  0  0  0  0  0  0  0  0  0
   57.4320   34.0460   44.5270 F   0  0  0  0  0  0  0  0  0  0  0  0
   59.4500   34.6450   45.6470 C   0  0  0  0  0  0  0  0  0  0  0  0
   60.2580   34.5940   46.7870 C   0  0  0  0  0  0  0  0  0  0  0  0
   59.2890   29.5530   47.8930 C   0  0  0  0  0  0  0  0  0  0  0  0
   58.5330   30.0430   46.8230 C   0  0  0  0  0  0  0  0  0  0  0  0
   55.1430   28.6200   45.6480 H   0  0  0  0  0  0  0  0  0  0  0  0
   57.1331   27.1135   45.7569 H   0  0  0  0  0  0  0  0  0  0  0  0
   58.4774   26.2394   47.6676 H   0  0  0  0  0  0  0  0  0  0  0  0
   62.6689   29.0731   50.5407 H   0  0  0  0  0  0  0  0  0  0  0  0
   61.8708   29.5431   48.9883 H   0  0  0  0  0  0  0  0  0  0  0  0
   66.8290   30.0216   51.1613 H   0  0  0  0  0  0  0  0  0  0  0  0
   68.6301   31.7871   51.0947 H   0  0  0  0  0  0  0  0  0  0  0  0
   68.0134   34.2034   50.8279 H   0  0  0  0  0  0  0  0  0  0  0  0
   65.5892   34.8768   50.6276 H   0  0  0  0  0  0  0  0  0  0  0  0
   62.0470   34.2535   51.2540 H   0  0  0  0  0  0  0  0  0  0  0  0
   63.4545   34.9866   50.4015 H   0  0  0  0  0  0  0  0  0  0  0  0
   60.1570   33.5850   50.0160 H   0  0  0  0  0  0  0  0  0  0  0  0
   58.2265   32.7151   48.8022 H   0  0  0  0  0  0  0  0  0  0  0  0
   56.7994   32.7959   46.7577 H   0  0  0  0  0  0  0  0  0  0  0  0
   59.7892   35.1974   44.7583 H   0  0  0  0  0  0  0  0  0  0  0  0
   61.2272   35.1141   46.7957 H   0  0  0  0  0  0  0  0  0  0  0  0
   59.8821   30.2481   48.5054 H   0  0  0  0  0  0  0  0  0  0  0  0
   58.5421   31.1185   46.5923 H   0  0  0  0  0  0  0  0  0  0  0  0
  1  2  1  0
  2  3  2  0
  2  4  2  0
  2  5  1  0
  5  6  2  0
  6  7  1  0
  7  8  2  0
  8  9  1  0
  9 10  1  0
 10 11  2  0
 10 12  1  0
 12 13  1  0
 13 14  1  0
 14 15  2  0
 15 16  1  0
 16 17  2  0
 17 18  1  0
 18 19  2  0
 19 20  1  0
 20 21  2  0
 21 22  1  0
 22 23  1  0
 23 24  1  0
 24 25  2  0
 24 26  1  0
 26 27  1  0
 27 28  2  0
 28 29  1  0
 29 30  2  0
 30 31  1  0
 30 32  1  0
 32 33  2  0
  8 34  1  0
 34 35  2  0
 35  5  1  0
 22 14  1  0
 33 27  1  0
 21 16  1  0
  1 36  1  0
  6 37  1  0
  7 38  1  0
 12 39  1  0
 12 40  1  0
 17 41  1  0
 18 42  1  0
 19 43  1  0
 20 44  1  0
 23 45  1  0
 23 46  1  0
 26 47  1  0
 28 48  1  0
 29 49  1  0
 32 50  1  0
 33 51  1  0
 34 52  1  0
 35 53  1  0
M  CHG  2   1  -1   9  -1
M  END
>  <UniqueID>  (48) 
43

>  <SMILES>  (48) 
[NH-]S(=O)(=O)c1ccc([N-]C(=O)CSc2nc3ccccc3n2CC(=O)Nc2ccc(F)cc2)cc1

>  <Energy>  (48) 
92.95301071854044

>  <Genealogy>  (48) 
[NH-]S(=O)(=O)c1ccc([N-]C(=O)CSc2nc3ccccc3n2CC(=O)Nc2ccc(F)cc2)cc1 (protonated)
[NH-]S(=O)(=O)c1ccc([N-]C(=O)CSc2nc3ccccc3n2CC(=O)Nc2ccc(F)cc2)cc1 (3D coordinates assigned)
[NH-]S(=O)(=O)c1ccc([N-]C(=O)CSc2nc3ccccc3n2CC(=O)Nc2ccc(F)cc2)cc1 (optimized conformer: 92.95301071854044 kcal/mol)

>  <smiles>  (48) 
NS(=O)(=O)c1ccc(NC(=O)CSc2nc3ccccc3n2CC(=O)Nc2ccc(F)cc2)cc1

>  <score_type>  (48) 
oracle

>  <origin>  (48) 
adg

>  <m_score__min__energy>  (48) 
-13.220000000000001

>  <m_primary>  (48) 
energy

$$$$
48:0
     RDKit          3D

 22 23  0  0  0  0  0  0  0  0999 V2000
   59.6530   26.2070   47.1160 O   0  0  0  0  0  0  0  0  0  0  0  0
   58.4410   25.8660   47.0880 C   0  0  0  0  0  0  0  0  0  0  0  0
   57.8970   25.1730   48.1630 O   0  0  0  0  0  0  0  0  0  0  0  0
   57.6040   26.1580   45.8850 C   0  0  0  0  0  0  0  0  0  0  0  0
   56.5670   25.0760   45.6970 C   0  0  0  0  0  0  0  0  0  0  0  0
   55.1930   25.3830   45.7760 C   0  0  0  0  0  0  0  0  0  0  0  0
   54.7720   26.6890   46.0050 O   0  0  0  0  0  0  0  0  0  0  0  0
   54.2340   24.3770   45.6260 C   0  0  0  0  0  0  0  0  0  0  0  0
   54.6210   23.0530   45.4120 C   0  0  0  0  0  0  0  0  0  0  0  0
   53.6410   22.0750   45.2670 O   0  0  0  0  0  0  0  0  0  0  0  0
   55.9850   22.7230   45.3480 C   0  0  0  0  0  0  0  0  0  0  0  0
   56.4180   21.4060   45.1460 C   0  0  0  0  0  0  0  0  0  0  0  0
   57.7810   21.1290   45.1000 C   0  0  0  0  0  0  0  0  0  0  0  0
   58.6910   22.1790   45.2570 C   0  0  0  0  0  0  0  0  0  0  0  0
   59.9280   21.9490   45.2200 O   0  0  0  0  0  0  0  0  0  0  0  0
   58.2560   23.4200   45.4450 O   0  0  0  0  0  0  0  0  0  0  0  0
   56.9620   23.7370   45.4960 C   0  0  0  0  0  0  0  0  0  0  0  0
   57.0991   27.1260   46.0197 H   0  0  0  0  0  0  0  0  0  0  0  0
   58.2517   26.1932   44.9966 H   0  0  0  0  0  0  0  0  0  0  0  0
   53.1649   24.6310   45.6771 H   0  0  0  0  0  0  0  0  0  0  0  0
   55.6846   20.5953   45.0244 H   0  0  0  0  0  0  0  0  0  0  0  0
   58.1369   20.1001   44.9426 H   0  0  0  0  0  0  0  0  0  0  0  0
  1  2  2  0
  2  3  1  0
  2  4  1  0
  4  5  1  0
  5  6  2  0
  6  7  1  0
  6  8  1  0
  8  9  2  0
  9 10  1  0
  9 11  1  0
 11 12  1  0
 12 13  2  0
 13 14  1  0
 14 15  2  0
 14 16  1  0
 16 17  1  0
 17  5  1  0
 17 11  2  0
  4 18  1  0
  4 19  1  0
  8 20  1  0
 12 21  1  0
 13 22  1  0
M  CHG  3   3  -1   7  -1  10  -1
M  END
>  <UniqueID>  (49) 
44

>  <SMILES>  (49) 
O=C([O-])Cc1c([O-])cc([O-])c2ccc(=O)oc12

>  <Energy>  (49) 
27.44307633896772

>  <Genealogy>  (49) 
O=C([O-])Cc1c([O-])cc([O-])c2ccc(=O)oc12 (protonated)
O=C([O-])Cc1c([O-])cc([O-])c2ccc(=O)oc12 (3D coordinates assigned)
O=C([O-])Cc1c([O-])cc([O-])c2ccc(=O)oc12 (optimized conformer: 27.44307633896772 kcal/mol)

>  <smiles>  (49) 
O=C(O)Cc1c(O)cc(O)c2ccc(=O)oc12

>  <score_type>  (49) 
oracle

>  <origin>  (49) 
adg

>  <m_score__min__energy>  (49) 
-12.51

>  <m_primary>  (49) 
energy

$$$$
49:0
     RDKit          3D

 67 70  0  0  0  0  0  0  0  0999 V2000
   54.8520   22.8480   45.9080 C   0  0  0  0  0  0  0  0  0  0  0  0
   54.6210   24.0050   44.9410 C   0  0  0  0  0  0  0  0  0  0  0  0
   53.8660   25.1470   45.6240 C   0  0  0  0  0  0  0  0  0  0  0  0
   54.7820   26.2250   45.9860 N   0  0  0  0  0  0  0  0  0  0  0  0
   56.1530   26.0140   46.3380 C   0  0  0  0  0  0  0  0  0  0  0  0
   56.4560   25.4890   47.4440 O   0  0  0  0  0  0  0  0  0  0  0  0
   57.2320   26.4720   45.4040 C   0  0  0  0  0  0  0  0  0  0  0  0
   57.9830   27.6080   45.9760 N   0  0  0  0  0  0  0  0  0  0  0  0
   58.7910   27.3500   47.0490 C   0  0  0  0  0  0  0  0  0  0  0  0
   59.5250   28.3610   47.6780 C   0  0  0  0  0  0  0  0  0  0  0  0
   60.3590   28.0180   48.8550 C   0  0  0  0  0  0  0  0  0  0  0  0
   60.6050   26.8060   49.1030 O   0  0  0  0  0  0  0  0  0  0  0  0
   60.8480   29.0410   49.7360 N   0  0  0  0  0  0  0  0  0  0  0  0
   61.5720   28.7340   50.9680 C   0  0  0  0  0  0  0  0  0  0  0  0
   62.3550   29.9370   51.4180 C   0  0  0  0  0  0  0  0  0  0  0  0
   63.7570   29.8860   51.5040 C   0  0  0  0  0  0  0  0  0  0  0  0
   64.4740   30.9930   51.9680 C   0  0  0  0  0  0  0  0  0  0  0  0
   63.8000   32.1570   52.3490 C   0  0  0  0  0  0  0  0  0  0  0  0
   64.4960   33.2270   52.8030 F   0  0  0  0  0  0  0  0  0  0  0  0
   62.4040   32.2140   52.2680 C   0  0  0  0  0  0  0  0  0  0  0  0
   61.6830   31.1070   51.8080 C   0  0  0  0  0  0  0  0  0  0  0  0
   59.4610   29.6650   47.1670 C   0  0  0  0  0  0  0  0  0  0  0  0
   60.1540   30.5830   47.6900 O   0  0  0  0  0  0  0  0  0  0  0  0
   58.6480   29.9390   46.0540 C   0  0  0  0  0  0  0  0  0  0  0  0
   58.5760   31.2420   45.5200 C   0  0  0  0  0  0  0  0  0  0  0  0
   57.7740   31.5170   44.4060 C   0  0  0  0  0  0  0  0  0  0  0  0
   57.7210   32.9110   43.8360 C   0  0  0  0  0  0  0  0  0  0  0  0
   57.5240   33.8940   44.8940 N   0  0  0  0  0  0  0  0  0  0  0  0
   58.5960   34.6010   45.5300 C   0  0  0  0  0  0  0  0  0  0  0  0
   59.2820   35.4310   44.8770 O   0  0  0  0  0  0  0  0  0  0  0  0
   58.9650   34.3060   46.8840 N   0  0  0  0  0  0  0  0  0  0  0  0
   60.2840   33.9910   47.3560 C   0  0  0  0  0  0  0  0  0  0  0  0
   61.3470   33.7180   46.4730 C   0  0  0  0  0  0  0  0  0  0  0  0
   62.6170   33.4100   46.9760 C   0  0  0  0  0  0  0  0  0  0  0  0
   62.8300   33.3560   48.3570 C   0  0  0  0  0  0  0  0  0  0  0  0
   64.4230   32.9710   48.9850 Cl  0  0  0  0  0  0  0  0  0  0  0  0
   61.7700   33.5950   49.2370 C   0  0  0  0  0  0  0  0  0  0  0  0
   60.5010   33.9020   48.7370 C   0  0  0  0  0  0  0  0  0  0  0  0
   57.0390   30.4830   43.8180 C   0  0  0  0  0  0  0  0  0  0  0  0
   57.1010   29.1870   44.3300 C   0  0  0  0  0  0  0  0  0  0  0  0
   57.9020   28.8860   45.4570 C   0  0  0  0  0  0  0  0  0  0  0  0
   54.7788   23.2146   46.9425 H   0  0  0  0  0  0  0  0  0  0  0  0
   54.0911   22.0717   45.7394 H   0  0  0  0  0  0  0  0  0  0  0  0
   55.8526   22.4234   45.7394 H   0  0  0  0  0  0  0  0  0  0  0  0
   55.5935   24.3776   44.5869 H   0  0  0  0  0  0  0  0  0  0  0  0
   54.0174   23.6411   44.0965 H   0  0  0  0  0  0  0  0  0  0  0  0
   53.1020   25.5377   44.9358 H   0  0  0  0  0  0  0  0  0  0  0  0
   53.3927   24.7617   46.5392 H   0  0  0  0  0  0  0  0  0  0  0  0
   57.9259   25.6385   45.2203 H   0  0  0  0  0  0  0  0  0  0  0  0
   56.7645   26.7999   44.4638 H   0  0  0  0  0  0  0  0  0  0  0  0
   58.8656   26.3198   47.4274 H   0  0  0  0  0  0  0  0  0  0  0  0
   60.6390   30.0450   49.5290 H   0  0  0  0  0  0  0  0  0  0  0  0
   60.8537   28.4527   51.7522 H   0  0  0  0  0  0  0  0  0  0  0  0
   62.2656   27.9009   50.7812 H   0  0  0  0  0  0  0  0  0  0  0  0
   64.2918   28.9723   51.2053 H   0  0  0  0  0  0  0  0  0  0  0  0
   65.5711   30.9479   52.0334 H   0  0  0  0  0  0  0  0  0  0  0  0
   61.8732   33.1301   52.5663 H   0  0  0  0  0  0  0  0  0  0  0  0
   60.5854   31.1531   51.7515 H   0  0  0  0  0  0  0  0  0  0  0  0
   59.1571   32.0523   45.9844 H   0  0  0  0  0  0  0  0  0  0  0  0
   58.6667   33.1246   43.3164 H   0  0  0  0  0  0  0  0  0  0  0  0
   56.8766   32.9737   43.1339 H   0  0  0  0  0  0  0  0  0  0  0  0
   61.1791   33.7468   45.3863 H   0  0  0  0  0  0  0  0  0  0  0  0
   63.4483   33.2102   46.2838 H   0  0  0  0  0  0  0  0  0  0  0  0
   61.9346   33.5414   50.3233 H   0  0  0  0  0  0  0  0  0  0  0  0
   59.6670   34.0749   49.4331 H   0  0  0  0  0  0  0  0  0  0  0  0
   56.4059   30.6936   42.9434 H   0  0  0  0  0  0  0  0  0  0  0  0
   56.5183   28.3867   43.8504 H   0  0  0  0  0  0  0  0  0  0  0  0
  1  2  1  0
  2  3  1  0
  3  4  1  0
  4  5  1  0
  5  6  2  0
  5  7  1  0
  7  8  1  0
  8  9  1  0
  9 10  2  0
 10 11  1  0
 11 12  2  0
 11 13  1  0
 13 14  1  0
 14 15  1  0
 15 16  2  0
 16 17  1  0
 17 18  2  0
 18 19  1  0
 18 20  1  0
 20 21  2  0
 10 22  1  0
 22 23  2  0
 22 24  1  0
 24 25  2  0
 25 26  1  0
 26 27  1  0
 27 28  1  0
 28 29  1  0
 29 30  2  0
 29 31  1  0
 31 32  1  0
 32 33  2  0
 33 34  1  0
 34 35  2  0
 35 36  1  0
 35 37  1  0
 37 38  2  0
 26 39  2  0
 39 40  1  0
 40 41  2  0
 41  8  1  0
 21 15  1  0
 41 24  1  0
 38 32  1  0
  1 42  1  0
  1 43  1  0
  1 44  1  0
  2 45  1  0
  2 46  1  0
  3 47  1  0
  3 48  1  0
  7 49  1  0
  7 50  1  0
  9 51  1  0
 13 52  1  0
 14 53  1  0
 14 54  1  0
 16 55  1  0
 17 56  1  0
 20 57  1  0
 21 58  1  0
 25 59  1  0
 27 60  1  0
 27 61  1  0
 33 62  1  0
 34 63  1  0
 37 64  1  0
 38 65  1  0
 39 66  1  0
 40 67  1  0
M  CHG  3   4  -1  28  -1  31  -1
M  END
>  <UniqueID>  (50) 
45

>  <SMILES>  (50) 
CCC[N-]C(=O)Cn1cc(C(=O)NCc2ccc(F)cc2)c(=O)c2cc(C[N-]C(=O)[N-]c3ccc(Cl)cc3)ccc21

>  <Energy>  (50) 
76.48819459966361

>  <Genealogy>  (50) 
CCC[N-]C(=O)Cn1cc(C(=O)NCc2ccc(F)cc2)c(=O)c2cc(C[N-]C(=O)[N-]c3ccc(Cl)cc3)ccc21 (protonated)
CCC[N-]C(=O)Cn1cc(C(=O)NCc2ccc(F)cc2)c(=O)c2cc(C[N-]C(=O)[N-]c3ccc(Cl)cc3)ccc21 (3D coordinates assigned)
CCC[N-]C(=O)Cn1cc(C(=O)NCc2ccc(F)cc2)c(=O)c2cc(C[N-]C(=O)[N-]c3ccc(Cl)cc3)ccc21 (optimized conformer: 76.48819459966361 kcal/mol)

>  <smiles>  (50) 
CCCNC(=O)Cn1cc(C(=O)NCc2ccc(F)cc2)c(=O)c2cc(CNC(=O)Nc3ccc(Cl)cc3)ccc21

>  <score_type>  (50) 
oracle

>  <origin>  (50) 
adg

>  <m_score__min__energy>  (50) 
-12.869999999999999

>  <m_primary>  (50) 
energy

$$$$
50:0
     RDKit          3D

 29 30  0  0  0  0  0  0  0  0999 V2000
   56.5170   22.4380   48.0800 H   0  0  0  0  0  0  0  0  0  0  0  0
   57.3470   22.7670   47.5990 O   0  0  0  0  0  0  0  0  0  0  0  0
   57.3550   23.9740   46.9050 C   0  0  0  0  0  0  0  0  0  0  0  0
   58.5390   24.4210   46.3120 C   0  0  0  0  0  0  0  0  0  0  0  0
   59.4549   23.8172   46.3932 H   0  0  0  0  0  0  0  0  0  0  0  0
   58.5630   25.6330   45.6160 C   0  0  0  0  0  0  0  0  0  0  0  0
   59.4937   25.9694   45.1358 H   0  0  0  0  0  0  0  0  0  0  0  0
   57.4040   26.4250   45.5260 C   0  0  0  0  0  0  0  0  0  0  0  0
   57.4180   27.7130   44.7970 C   0  0  0  0  0  0  0  0  0  0  0  0
   57.1514   27.6966   43.7299 H   0  0  0  0  0  0  0  0  0  0  0  0
   57.7320   28.9010   45.3410 C   0  0  0  0  0  0  0  0  0  0  0  0
   58.5788   28.9281   46.0426 H   0  0  0  0  0  0  0  0  0  0  0  0
   57.0300   30.1760   45.0720 C   0  0  0  0  0  0  0  0  0  0  0  0
   55.8240   30.1250   44.7100 O   0  0  0  0  0  0  0  0  0  0  0  0
   57.6730   31.5000   45.2550 C   0  0  0  0  0  0  0  0  0  0  0  0
   58.1470   31.9070   46.5170 C   0  0  0  0  0  0  0  0  0  0  0  0
   58.0216   31.2462   47.3874 H   0  0  0  0  0  0  0  0  0  0  0  0
   58.7760   33.1460   46.6700 C   0  0  0  0  0  0  0  0  0  0  0  0
   59.1543   33.4515   47.6567 H   0  0  0  0  0  0  0  0  0  0  0  0
   58.9250   33.9970   45.5720 C   0  0  0  0  0  0  0  0  0  0  0  0
   59.5530   35.2270   45.7250 O   0  0  0  0  0  0  0  0  0  0  0  0
   58.4400   33.6110   44.3190 C   0  0  0  0  0  0  0  0  0  0  0  0
   58.5533   34.2831   43.4556 H   0  0  0  0  0  0  0  0  0  0  0  0
   57.8110   32.3720   44.1610 C   0  0  0  0  0  0  0  0  0  0  0  0
   57.4220   32.0781   43.1750 H   0  0  0  0  0  0  0  0  0  0  0  0
   56.2080   25.9590   46.1020 C   0  0  0  0  0  0  0  0  0  0  0  0
   55.0390   26.7060   46.0050 O   0  0  0  0  0  0  0  0  0  0  0  0
   56.1880   24.7430   46.7930 C   0  0  0  0  0  0  0  0  0  0  0  0
   55.2526   24.3885   47.2505 H   0  0  0  0  0  0  0  0  0  0  0  0
  1  2  1  0
  2  3  1  0
  3  4  2  0
  4  5  1  0
  4  6  1  0
  6  7  1  0
  6  8  2  0
  8  9  1  0
  9 10  1  0
  9 11  2  0
 11 12  1  0
 11 13  1  0
 13 14  2  0
 13 15  1  0
 15 16  2  0
 16 17  1  0
 16 18  1  0
 18 19  1  0
 18 20  2  0
 20 21  1  0
 20 22  1  0
 22 23  1  0
 22 24  2  0
 24 25  1  0
  8 26  1  0
 26 27  1  0
 26 28  2  0
 28 29  1  0
 28  3  1  0
 24 15  1  0
M  CHG  2  21  -1  27  -1
M  END
>  <UniqueID>  (51) 
46

>  <SMILES>  (51) 
O=C(/C=C\c1ccc(O)cc1[O-])c1ccc([O-])cc1

>  <Energy>  (51) 
40.27976452742404

>  <Genealogy>  (51) 
O=C(C=Cc1ccc(O)cc1[O-])c1ccc([O-])cc1 (protonated)
O=C(/C=C\c1ccc(O)cc1[O-])c1ccc([O-])cc1 (cis-trans isomerization)
O=C(/C=C\c1ccc(O)cc1[O-])c1ccc([O-])cc1 (3D coordinates assigned)
O=C(/C=C\c1ccc(O)cc1[O-])c1ccc([O-])cc1 (optimized conformer: 40.27976452742404 kcal/mol)

>  <smiles>  (51) 
O=C(C=Cc1ccc(O)cc1O)c1ccc(O)cc1

>  <score_type>  (51) 
oracle

>  <origin>  (51) 
adg

>  <m_score__min__energy>  (51) 
-11.68

>  <m_primary>  (51) 
energy

$$$$
51:0
     RDKit          3D

 31 32  0  0  0  0  0  0  0  0999 V2000
   55.1190   26.4690   46.0080 O   0  0  0  0  0  0  0  0  0  0  0  0
   56.1830   27.0260   45.6270 C   0  0  0  0  0  0  0  0  0  0  0  0
   57.4400   26.2290   45.5210 C   0  0  0  0  0  0  0  0  0  0  0  0
   57.8220   25.9370   43.7640 S   0  0  0  0  0  0  0  0  0  0  0  0
   57.7320   24.1580   43.9230 C   0  0  0  0  0  0  0  0  0  0  0  0
   56.8280   23.4560   43.1910 N   0  0  0  0  0  0  0  0  0  0  0  0
   56.7430   22.1050   43.2970 C   0  0  0  0  0  0  0  0  0  0  0  0
   55.8970   21.4740   42.6110 O   0  0  0  0  0  0  0  0  0  0  0  0
   57.5920   21.4200   44.1670 C   0  0  0  0  0  0  0  0  0  0  0  0
   58.5180   22.1580   44.9120 C   0  0  0  0  0  0  0  0  0  0  0  0
   59.3890   21.5250   45.7930 O   0  0  0  0  0  0  0  0  0  0  0  0
   58.5700   23.5080   44.7740 N   0  0  0  0  0  0  0  0  0  0  0  0
   56.2080   28.4270   45.3410 N   0  0  0  0  0  0  0  0  0  0  0  0
   56.7460   28.9890   44.1070 C   0  0  0  0  0  0  0  0  0  0  0  0
   57.3210   30.3570   44.3620 C   0  0  0  0  0  0  0  0  0  0  0  0
   57.7720   30.7160   45.6440 C   0  0  0  0  0  0  0  0  0  0  0  0
   58.2840   31.9960   45.8770 C   0  0  0  0  0  0  0  0  0  0  0  0
   58.3460   32.9270   44.8360 C   0  0  0  0  0  0  0  0  0  0  0  0
   58.9880   34.5330   45.1300 Cl  0  0  0  0  0  0  0  0  0  0  0  0
   57.8930   32.5780   43.5590 C   0  0  0  0  0  0  0  0  0  0  0  0
   57.3810   31.2980   43.3230 C   0  0  0  0  0  0  0  0  0  0  0  0
   58.2668   26.7829   45.9896 H   0  0  0  0  0  0  0  0  0  0  0  0
   57.3093   25.2651   46.0346 H   0  0  0  0  0  0  0  0  0  0  0  0
   57.5346   20.3259   44.2647 H   0  0  0  0  0  0  0  0  0  0  0  0
   59.6760   20.5630   45.6530 H   0  0  0  0  0  0  0  0  0  0  0  0
   57.5374   28.3288   43.7226 H   0  0  0  0  0  0  0  0  0  0  0  0
   55.9344   29.0742   43.3694 H   0  0  0  0  0  0  0  0  0  0  0  0
   57.7220   29.9875   46.4667 H   0  0  0  0  0  0  0  0  0  0  0  0
   58.6387   32.2710   46.8813 H   0  0  0  0  0  0  0  0  0  0  0  0
   57.9396   33.3109   42.7400 H   0  0  0  0  0  0  0  0  0  0  0  0
   57.0238   31.0278   42.3183 H   0  0  0  0  0  0  0  0  0  0  0  0
  1  2  2  0
  2  3  1  0
  3  4  1  0
  4  5  1  0
  5  6  2  0
  6  7  1  0
  7  8  2  0
  7  9  1  0
  9 10  2  0
 10 11  1  0
 10 12  1  0
  2 13  1  0
 13 14  1  0
 14 15  1  0
 15 16  2  0
 16 17  1  0
 17 18  2  0
 18 19  1  0
 18 20  1  0
 20 21  2  0
 12  5  1  0
 21 15  1  0
  3 22  1  0
  3 23  1  0
  9 24  1  0
 11 25  1  0
 14 26  1  0
 14 27  1  0
 16 28  1  0
 17 29  1  0
 20 30  1  0
 21 31  1  0
M  CHG  2  12  -1  13  -1
M  END
>  <UniqueID>  (52) 
47

>  <SMILES>  (52) 
O=C(CSc1nc(=O)cc(O)[n-]1)[N-]Cc1ccc(Cl)cc1

>  <Energy>  (52) 
24.59298096030354

>  <Genealogy>  (52) 
O=C(CSc1nc(=O)cc(O)[n-]1)[N-]Cc1ccc(Cl)cc1 (protonated)
O=C(CSc1nc(=O)cc(O)[n-]1)[N-]Cc1ccc(Cl)cc1 (3D coordinates assigned)
O=C(CSc1nc(=O)cc(O)[n-]1)[N-]Cc1ccc(Cl)cc1 (optimized conformer: 24.59298096030354 kcal/mol)

>  <smiles>  (52) 
O=C(CSc1nc(=O)cc(O)[nH]1)NCc1ccc(Cl)cc1

>  <score_type>  (52) 
oracle

>  <origin>  (52) 
adg

>  <m_score__min__energy>  (52) 
-11.609999999999999

>  <m_primary>  (52) 
energy

$$$$
52:0
     RDKit          3D

 45 46  0  0  0  0  0  0  0  0999 V2000
   63.8710   33.4600   47.8770 C   0  0  0  0  0  0  0  0  0  0  0  0
   62.7930   32.6780   47.1340 C   0  0  0  0  0  0  0  0  0  0  0  0
   61.4630   33.3780   47.2240 C   0  0  0  0  0  0  0  0  0  0  0  0
   60.9050   33.6940   48.4730 C   0  0  0  0  0  0  0  0  0  0  0  0
   59.6570   34.3200   48.5490 C   0  0  0  0  0  0  0  0  0  0  0  0
   58.9560   34.6300   47.3810 C   0  0  0  0  0  0  0  0  0  0  0  0
   59.5010   34.3210   46.1250 C   0  0  0  0  0  0  0  0  0  0  0  0
   58.7150   34.5920   44.8680 C   0  0  0  0  0  0  0  0  0  0  0  0
   57.3660   33.8740   44.8990 C   0  0  0  0  0  0  0  0  0  0  0  0
   57.4320   32.7260   45.8070 N   0  0  0  0  0  0  0  0  0  0  0  0
   57.5170   31.2330   44.9220 S   0  0  0  0  0  0  0  0  0  0  0  0
   56.1340   30.6940   44.6860 O   0  0  0  0  0  0  0  0  0  0  0  0
   58.1500   31.4980   43.5840 O   0  0  0  0  0  0  0  0  0  0  0  0
   58.5140   30.0650   45.8050 C   0  0  0  0  0  0  0  0  0  0  0  0
   59.3190   30.5280   46.8570 C   0  0  0  0  0  0  0  0  0  0  0  0
   60.1380   29.6440   47.5740 C   0  0  0  0  0  0  0  0  0  0  0  0
   61.0010   30.1410   48.6960 C   0  0  0  0  0  0  0  0  0  0  0  0
   60.1060   28.2790   47.2710 C   0  0  0  0  0  0  0  0  0  0  0  0
   59.2980   27.8040   46.2380 C   0  0  0  0  0  0  0  0  0  0  0  0
   58.4990   28.6910   45.4880 C   0  0  0  0  0  0  0  0  0  0  0  0
   57.6890   28.2340   44.4360 O   0  0  0  0  0  0  0  0  0  0  0  0
   58.1510   27.4670   43.3300 C   0  0  0  0  0  0  0  0  0  0  0  0
   60.7500   33.6850   46.0540 C   0  0  0  0  0  0  0  0  0  0  0  0
   63.7212   33.3513   48.9613 H   0  0  0  0  0  0  0  0  0  0  0  0
   64.8621   33.0694   47.6028 H   0  0  0  0  0  0  0  0  0  0  0  0
   63.8073   34.5234   47.6028 H   0  0  0  0  0  0  0  0  0  0  0  0
   63.0801   32.5849   46.0762 H   0  0  0  0  0  0  0  0  0  0  0  0
   62.6989   31.6839   47.5955 H   0  0  0  0  0  0  0  0  0  0  0  0
   61.4517   33.4482   49.3953 H   0  0  0  0  0  0  0  0  0  0  0  0
   59.2264   34.5688   49.5302 H   0  0  0  0  0  0  0  0  0  0  0  0
   57.9725   35.1184   47.4460 H   0  0  0  0  0  0  0  0  0  0  0  0
   58.5440   35.6748   44.7773 H   0  0  0  0  0  0  0  0  0  0  0  0
   59.2905   34.2189   44.0080 H   0  0  0  0  0  0  0  0  0  0  0  0
   56.5900   34.5710   45.2483 H   0  0  0  0  0  0  0  0  0  0  0  0
   57.1207   33.5209   43.8865 H   0  0  0  0  0  0  0  0  0  0  0  0
   59.3075   31.5955   47.1220 H   0  0  0  0  0  0  0  0  0  0  0  0
   60.5398   29.8754   49.6587 H   0  0  0  0  0  0  0  0  0  0  0  0
   61.9962   29.6777   48.6260 H   0  0  0  0  0  0  0  0  0  0  0  0
   61.0998   31.2343   48.6260 H   0  0  0  0  0  0  0  0  0  0  0  0
   60.7218   27.5757   47.8509 H   0  0  0  0  0  0  0  0  0  0  0  0
   59.2841   26.7287   46.0067 H   0  0  0  0  0  0  0  0  0  0  0  0
   58.6859   26.5789   43.6976 H   0  0  0  0  0  0  0  0  0  0  0  0
   57.2927   27.1512   42.7187 H   0  0  0  0  0  0  0  0  0  0  0  0
   58.8314   28.0780   42.7187 H   0  0  0  0  0  0  0  0  0  0  0  0
   61.1742   33.4247   45.0730 H   0  0  0  0  0  0  0  0  0  0  0  0
  1  2  1  0
  2  3  1  0
  3  4  2  0
  4  5  1  0
  5  6  2  0
  6  7  1  0
  7  8  1  0
  8  9  1  0
  9 10  1  0
 10 11  1  0
 11 12  2  0
 11 13  2  0
 11 14  1  0
 14 15  2  0
 15 16  1  0
 16 17  1  0
 16 18  2  0
 18 19  1  0
 19 20  2  0
 20 21  1  0
 21 22  1  0
  7 23  2  0
 23  3  1  0
 20 14  1  0
  1 24  1  0
  1 25  1  0
  1 26  1  0
  2 27  1  0
  2 28  1  0
  4 29  1  0
  5 30  1  0
  6 31  1  0
  8 32  1  0
  8 33  1  0
  9 34  1  0
  9 35  1  0
 15 36  1  0
 17 37  1  0
 17 38  1  0
 17 39  1  0
 18 40  1  0
 19 41  1  0
 22 42  1  0
 22 43  1  0
 22 44  1  0
 23 45  1  0
M  CHG  1  10  -1
M  END
>  <UniqueID>  (53) 
48

>  <SMILES>  (53) 
CCc1cccc(CC[N-]S(=O)(=O)c2cc(C)ccc2OC)c1

>  <Energy>  (53) 
32.13299654238168

>  <Genealogy>  (53) 
CCc1cccc(CC[N-]S(=O)(=O)c2cc(C)ccc2OC)c1 (protonated)
CCc1cccc(CC[N-]S(=O)(=O)c2cc(C)ccc2OC)c1 (3D coordinates assigned)
CCc1cccc(CC[N-]S(=O)(=O)c2cc(C)ccc2OC)c1 (optimized conformer: 32.13299654238168 kcal/mol)

>  <smiles>  (53) 
CCc1cccc(CCNS(=O)(=O)c2cc(C)ccc2OC)c1

>  <score_type>  (53) 
oracle

>  <origin>  (53) 
adg

>  <m_score__min__energy>  (53) 
-9.6799999999999997

>  <m_primary>  (53) 
energy

$$$$
53:0
     RDKit          3D

 48 51  0  0  0  0  0  0  0  0999 V2000
   56.5340   26.0480   46.6530 C   0  0  0  0  0  0  0  0  0  0  0  0
   57.3430   26.9250   45.6920 C   0  0  0  0  0  0  0  0  0  0  0  0
   57.7690   26.1080   44.4680 C   0  0  0  0  0  0  0  0  0  0  0  0
   58.5660   27.3830   46.3900 N   0  0  0  0  0  0  0  0  0  0  0  0
   59.0150   28.6090   46.4530 C   0  0  0  0  0  0  0  0  0  0  0  0
   60.3740   28.8840   47.0530 C   0  0  0  0  0  0  0  0  0  0  0  0
   60.3040   29.7650   48.2880 C   0  0  0  0  0  0  0  0  0  0  0  0
   59.3630   29.5990   49.0520 O   0  0  0  0  0  0  0  0  0  0  0  0
   61.3180   30.7560   48.6360 N   0  0  0  0  0  0  0  0  0  0  0  0
   60.6830   31.8710   49.3840 C   0  0  0  0  0  0  0  0  0  0  0  0
   61.5830   33.1230   49.4970 C   0  0  0  0  0  0  0  0  0  0  0  0
   63.0610   32.7800   49.3170 C   0  0  0  0  0  0  0  0  0  0  0  0
   63.3080   32.1010   47.9580 C   0  0  0  0  0  0  0  0  0  0  0  0
   62.1040   31.2620   47.4880 C   0  0  0  0  0  0  0  0  0  0  0  0
   58.1860   29.6830   45.8920 C   0  0  0  0  0  0  0  0  0  0  0  0
   56.9880   29.3860   45.3070 C   0  0  0  0  0  0  0  0  0  0  0  0
   56.3510   30.4670   44.8140 N   0  0  0  0  0  0  0  0  0  0  0  0
   57.1860   31.4820   45.1330 C   0  0  0  0  0  0  0  0  0  0  0  0
   56.9770   32.8300   44.8560 C   0  0  0  0  0  0  0  0  0  0  0  0
   57.9470   33.7520   45.2790 C   0  0  0  0  0  0  0  0  0  0  0  0
   59.0960   33.3150   45.9740 C   0  0  0  0  0  0  0  0  0  0  0  0
   60.3970   34.5870   46.5570 Br  0  0  0  0  0  0  0  0  0  0  0  0
   59.2850   31.9500   46.2450 C   0  0  0  0  0  0  0  0  0  0  0  0
   58.3150   31.0530   45.7950 C   0  0  0  0  0  0  0  0  0  0  0  0
   56.5030   28.0510   45.2370 N   0  0  0  0  0  0  0  0  0  0  0  0
   56.7815   26.3163   47.6907 H   0  0  0  0  0  0  0  0  0  0  0  0
   55.4597   26.2080   46.4792 H   0  0  0  0  0  0  0  0  0  0  0  0
   56.7800   24.9900   46.4792 H   0  0  0  0  0  0  0  0  0  0  0  0
   58.2540   25.1778   44.7988 H   0  0  0  0  0  0  0  0  0  0  0  0
   56.8830   25.8646   43.8632 H   0  0  0  0  0  0  0  0  0  0  0  0
   58.4758   26.6951   43.8632 H   0  0  0  0  0  0  0  0  0  0  0  0
   60.8362   27.9253   47.3308 H   0  0  0  0  0  0  0  0  0  0  0  0
   60.9678   29.4191   46.2973 H   0  0  0  0  0  0  0  0  0  0  0  0
   61.9860   30.2630   49.2770 H   0  0  0  0  0  0  0  0  0  0  0  0
   59.7544   32.1542   48.8667 H   0  0  0  0  0  0  0  0  0  0  0  0
   60.4951   31.5117   50.4066 H   0  0  0  0  0  0  0  0  0  0  0  0
   61.2881   33.8443   48.7206 H   0  0  0  0  0  0  0  0  0  0  0  0
   61.4516   33.5478   50.5031 H   0  0  0  0  0  0  0  0  0  0  0  0
   63.6540   33.7049   49.3701 H   0  0  0  0  0  0  0  0  0  0  0  0
   63.3592   32.0847   50.1155 H   0  0  0  0  0  0  0  0  0  0  0  0
   63.5102   32.8789   47.2070 H   0  0  0  0  0  0  0  0  0  0  0  0
   64.1634   31.4196   48.0763 H   0  0  0  0  0  0  0  0  0  0  0  0
   61.4552   31.8884   46.8582 H   0  0  0  0  0  0  0  0  0  0  0  0
   62.4832   30.3993   46.9206 H   0  0  0  0  0  0  0  0  0  0  0  0
   56.0761   33.1636   44.3202 H   0  0  0  0  0  0  0  0  0  0  0  0
   57.8112   34.8229   45.0676 H   0  0  0  0  0  0  0  0  0  0  0  0
   60.1704   31.5986   46.7951 H   0  0  0  0  0  0  0  0  0  0  0  0
   55.5680   27.8640   44.8020 H   0  0  0  0  0  0  0  0  0  0  0  0
  1  2  1  0
  2  3  1  0
  2  4  1  0
  4  5  2  0
  5  6  1  0
  6  7  1  0
  7  8  2  0
  7  9  1  0
  9 10  1  0
 10 11  1  0
 11 12  1  0
 12 13  1  0
 13 14  1  0
  5 15  1  0
 15 16  2  0
 16 17  1  0
 17 18  1  0
 18 19  2  0
 19 20  1  0
 20 21  2  0
 21 22  1  0
 21 23  1  0
 23 24  2  0
 16 25  1  0
 25  2  1  0
 14  9  1  0
 24 15  1  0
 24 18  1  0
  1 26  1  0
  1 27  1  0
  1 28  1  0
  3 29  1  0
  3 30  1  0
  3 31  1  0
  6 32  1  0
  6 33  1  0
  9 34  1  0
 10 35  1  0
 10 36  1  0
 11 37  1  0
 11 38  1  0
 12 39  1  0
 12 40  1  0
 13 41  1  0
 13 42  1  0
 14 43  1  0
 14 44  1  0
 19 45  1  0
 20 46  1  0
 23 47  1  0
 25 48  1  0
M  CHG  2   9   1  17  -1
M  END
>  <UniqueID>  (54) 
49

>  <SMILES>  (54) 
CC1(C)N=C(CC(=O)[NH+]2CCCCC2)c2c([n-]c3ccc(Br)cc23)N1

>  <Energy>  (54) 
95.75260479473292

>  <Genealogy>  (54) 
CC1(C)N=C(CC(=O)[NH+]2CCCCC2)c2c([n-]c3ccc(Br)cc23)N1 (protonated)
CC1(C)N=C(CC(=O)[NH+]2CCCCC2)c2c([n-]c3ccc(Br)cc23)N1 (3D coordinates assigned)
CC1(C)N=C(CC(=O)[NH+]2CCCCC2)c2c([n-]c3ccc(Br)cc23)N1 (nonaromatic ring conformer: 95.75260479473292 kcal/mol)

>  <smiles>  (54) 
CC1(C)N=C(CC(=O)N2CCCCC2)c2c([nH]c3ccc(Br)cc23)N1

>  <score_type>  (54) 
oracle

>  <origin>  (54) 
adg

>  <m_score__min__energy>  (54) 
-9.2300000000000004

>  <m_primary>  (54) 
energy

$$$$
54:0
     RDKit          3D

 36 37  0  0  0  0  0  0  0  0999 V2000
   59.6840   35.3550   47.1100 C   0  0  0  0  0  0  0  0  0  0  0  0
   58.9700   34.3940   46.2070 C   0  0  0  0  0  0  0  0  0  0  0  0
   58.1050   33.4280   46.7440 C   0  0  0  0  0  0  0  0  0  0  0  0
   57.4680   32.5070   45.9070 C   0  0  0  0  0  0  0  0  0  0  0  0
   57.6930   32.5370   44.5210 C   0  0  0  0  0  0  0  0  0  0  0  0
   57.0380   31.5230   43.6230 C   0  0  0  0  0  0  0  0  0  0  0  0
   57.0300   30.1780   44.2820 C   0  0  0  0  0  0  0  0  0  0  0  0
   55.9880   29.7900   44.8750 O   0  0  0  0  0  0  0  0  0  0  0  0
   58.1670   29.3100   44.1550 N   0  0  0  0  0  0  0  0  0  0  0  0
   58.3170   28.0690   44.8650 C   0  0  0  0  0  0  0  0  0  0  0  0
   59.5940   27.6670   45.2850 C   0  0  0  0  0  0  0  0  0  0  0  0
   59.7630   26.4780   45.9980 C   0  0  0  0  0  0  0  0  0  0  0  0
   58.6570   25.6840   46.3090 C   0  0  0  0  0  0  0  0  0  0  0  0
   57.3730   26.0790   45.9120 C   0  0  0  0  0  0  0  0  0  0  0  0
   55.9740   25.0980   46.3370 S   0  0  0  0  0  0  0  0  0  0  0  0
   54.5270   25.9620   45.9590 N   0  0  0  0  0  0  0  0  0  0  0  0
   56.0010   24.7830   47.8070 O   0  0  0  0  0  0  0  0  0  0  0  0
   56.0030   23.8080   45.5680 O   0  0  0  0  0  0  0  0  0  0  0  0
   57.2040   27.2770   45.2030 C   0  0  0  0  0  0  0  0  0  0  0  0
   58.5820   33.4830   43.9880 C   0  0  0  0  0  0  0  0  0  0  0  0
   59.2170   34.4040   44.8260 C   0  0  0  0  0  0  0  0  0  0  0  0
   59.4861   35.0887   48.1588 H   0  0  0  0  0  0  0  0  0  0  0  0
   60.7657   35.3050   46.9168 H   0  0  0  0  0  0  0  0  0  0  0  0
   59.3239   36.3763   46.9168 H   0  0  0  0  0  0  0  0  0  0  0  0
   57.9273   33.3954   47.8291 H   0  0  0  0  0  0  0  0  0  0  0  0
   56.7880   31.7560   46.3356 H   0  0  0  0  0  0  0  0  0  0  0  0
   56.0028   31.8336   43.4183 H   0  0  0  0  0  0  0  0  0  0  0  0
   57.6035   31.4584   42.6817 H   0  0  0  0  0  0  0  0  0  0  0  0
   58.8860   29.5510   43.4350 H   0  0  0  0  0  0  0  0  0  0  0  0
   60.4680   28.2926   45.0511 H   0  0  0  0  0  0  0  0  0  0  0  0
   60.7691   26.1664   46.3152 H   0  0  0  0  0  0  0  0  0  0  0  0
   58.7945   24.7461   46.8671 H   0  0  0  0  0  0  0  0  0  0  0  0
   54.7890   26.7150   45.2850 H   0  0  0  0  0  0  0  0  0  0  0  0
   56.1944   27.5999   44.9090 H   0  0  0  0  0  0  0  0  0  0  0  0
   58.7800   33.4998   42.9061 H   0  0  0  0  0  0  0  0  0  0  0  0
   59.9142   35.1407   44.4004 H   0  0  0  0  0  0  0  0  0  0  0  0
  1  2  1  0
  2  3  2  0
  3  4  1  0
  4  5  2  0
  5  6  1  0
  6  7  1  0
  7  8  2  0
  7  9  1  0
  9 10  1  0
 10 11  2  0
 11 12  1  0
 12 13  2  0
 13 14  1  0
 14 15  1  0
 15 16  1  0
 15 17  2  0
 15 18  2  0
 14 19  2  0
  5 20  1  0
 20 21  2  0
 21  2  1  0
 19 10  1  0
  1 22  1  0
  1 23  1  0
  1 24  1  0
  3 25  1  0
  4 26  1  0
  6 27  1  0
  6 28  1  0
  9 29  1  0
 11 30  1  0
 12 31  1  0
 13 32  1  0
 16 33  1  0
 19 34  1  0
 20 35  1  0
 21 36  1  0
M  CHG  1  16  -1
M  END
>  <UniqueID>  (55) 
50

>  <SMILES>  (55) 
Cc1ccc(CC(=O)Nc2cccc(S([NH-])(=O)=O)c2)cc1

>  <Energy>  (55) 
36.27571548839945

>  <Genealogy>  (55) 
Cc1ccc(CC(=O)Nc2cccc(S([NH-])(=O)=O)c2)cc1 (protonated)
Cc1ccc(CC(=O)Nc2cccc(S([NH-])(=O)=O)c2)cc1 (3D coordinates assigned)
Cc1ccc(CC(=O)Nc2cccc(S([NH-])(=O)=O)c2)cc1 (optimized conformer: 36.27571548839945 kcal/mol)

>  <smiles>  (55) 
Cc1ccc(CC(=O)Nc2cccc(S(N)(=O)=O)c2)cc1

>  <score_type>  (55) 
oracle

>  <origin>  (55) 
adg

>  <m_score__min__energy>  (55) 
-11.800000000000001

>  <m_primary>  (55) 
energy

$$$$
55:0
     RDKit          3D

 83 86  0  0  0  0  0  0  0  0999 V2000
   51.7560   29.6890   48.8990 C   0  0  0  0  0  0  0  0  0  0  0  0
   52.5800   30.0610   50.1310 C   0  0  0  0  0  0  0  0  0  0  0  0
   51.7690   30.9030   51.1260 C   0  0  0  0  0  0  0  0  0  0  0  0
   51.7560   30.2670   52.4630 N   0  0  0  0  0  0  0  0  0  0  0  0
   51.2150   28.8970   52.3700 C   0  0  0  0  0  0  0  0  0  0  0  0
   53.1090   30.2540   53.0680 C   0  0  0  0  0  0  0  0  0  0  0  0
   53.6210   28.8160   53.2230 C   0  0  0  0  0  0  0  0  0  0  0  0
   54.7470   28.7180   54.2630 C   0  0  0  0  0  0  0  0  0  0  0  0
   56.0280   28.4540   53.6090 N   0  0  0  0  0  0  0  0  0  0  0  0
   56.7690   29.4330   52.8510 C   0  0  0  0  0  0  0  0  0  0  0  0
   56.2030   30.6630   52.4700 C   0  0  0  0  0  0  0  0  0  0  0  0
   56.9490   31.5870   51.7400 C   0  0  0  0  0  0  0  0  0  0  0  0
   58.2870   31.3220   51.3990 C   0  0  0  0  0  0  0  0  0  0  0  0
   59.0200   32.2400   50.5690 N   0  0  0  0  0  0  0  0  0  0  0  0
   59.2790   33.6030   50.9330 C   0  0  0  0  0  0  0  0  0  0  0  0
   59.2500   33.9470   52.1450 O   0  0  0  0  0  0  0  0  0  0  0  0
   59.5570   34.5520   49.8940 N   0  0  0  0  0  0  0  0  0  0  0  0
   59.8900   34.3140   48.5150 C   0  0  0  0  0  0  0  0  0  0  0  0
   58.9150   34.2710   47.5000 C   0  0  0  0  0  0  0  0  0  0  0  0
   59.2840   34.0340   46.1730 C   0  0  0  0  0  0  0  0  0  0  0  0
   60.6260   33.8680   45.8380 C   0  0  0  0  0  0  0  0  0  0  0  0
   61.6080   33.9410   46.8270 C   0  0  0  0  0  0  0  0  0  0  0  0
   63.2960   33.7600   46.3750 Cl  0  0  0  0  0  0  0  0  0  0  0  0
   61.2490   34.1470   48.1680 C   0  0  0  0  0  0  0  0  0  0  0  0
   62.2660   34.2190   49.1320 O   0  0  0  0  0  0  0  0  0  0  0  0
   62.9160   33.1200   49.7160 C   0  0  0  0  0  0  0  0  0  0  0  0
   62.2210   31.9780   50.1610 C   0  0  0  0  0  0  0  0  0  0  0  0
   62.9180   30.9110   50.7360 C   0  0  0  0  0  0  0  0  0  0  0  0
   64.3120   30.9560   50.8420 C   0  0  0  0  0  0  0  0  0  0  0  0
   64.9780   29.9100   51.3940 F   0  0  0  0  0  0  0  0  0  0  0  0
   65.0080   32.0750   50.3750 C   0  0  0  0  0  0  0  0  0  0  0  0
   66.7580   32.1470   50.4930 Cl  0  0  0  0  0  0  0  0  0  0  0  0
   64.3100   33.1490   49.8140 C   0  0  0  0  0  0  0  0  0  0  0  0
   58.8640   30.0930   51.7920 C   0  0  0  0  0  0  0  0  0  0  0  0
   60.1980   29.7660   51.5040 O   0  0  0  0  0  0  0  0  0  0  0  0
   60.7920   28.5170   51.7530 C   0  0  0  0  0  0  0  0  0  0  0  0
   61.2700   28.2640   53.0450 C   0  0  0  0  0  0  0  0  0  0  0  0
   61.8250   27.0200   53.3650 C   0  0  0  0  0  0  0  0  0  0  0  0
   61.9240   26.0260   52.3900 C   0  0  0  0  0  0  0  0  0  0  0  0
   61.4840   26.2770   51.0880 C   0  0  0  0  0  0  0  0  0  0  0  0
   60.9380   27.5250   50.7510 C   0  0  0  0  0  0  0  0  0  0  0  0
   60.5780   27.7810   49.3450 C   0  0  0  0  0  0  0  0  0  0  0  0
   59.9540   26.9000   48.7020 O   0  0  0  0  0  0  0  0  0  0  0  0
   60.9280   29.0050   48.6910 N   0  0  0  0  0  0  0  0  0  0  0  0
   59.7870   30.0490   47.9030 S   0  0  0  0  0  0  0  0  0  0  0  0
   59.4120   29.4780   46.2610 C   0  0  0  0  0  0  0  0  0  0  0  0
   58.5200   30.1250   48.7130 O   0  0  0  0  0  0  0  0  0  0  0  0
   60.3780   31.4280   47.8140 O   0  0  0  0  0  0  0  0  0  0  0  0
   58.0900   29.1540   52.4830 C   0  0  0  0  0  0  0  0  0  0  0  0
   50.7962   29.2557   49.2170 H   0  0  0  0  0  0  0  0  0  0  0  0
   51.5698   30.5903   48.2966 H   0  0  0  0  0  0  0  0  0  0  0  0
   52.3089   28.9532   48.2966 H   0  0  0  0  0  0  0  0  0  0  0  0
   52.9095   29.1382   50.6310 H   0  0  0  0  0  0  0  0  0  0  0  0
   53.4410   30.6595   49.7986 H   0  0  0  0  0  0  0  0  0  0  0  0
   52.2218   31.9023   51.2061 H   0  0  0  0  0  0  0  0  0  0  0  0
   50.7340   30.9803   50.7617 H   0  0  0  0  0  0  0  0  0  0  0  0
   51.0566   28.4959   53.3819 H   0  0  0  0  0  0  0  0  0  0  0  0
   50.2572   28.9169   51.8294 H   0  0  0  0  0  0  0  0  0  0  0  0
   51.9280   28.2571   51.8294 H   0  0  0  0  0  0  0  0  0  0  0  0
   53.7992   30.8151   52.4208 H   0  0  0  0  0  0  0  0  0  0  0  0
   53.0553   30.7191   54.0634 H   0  0  0  0  0  0  0  0  0  0  0  0
   52.7865   28.1737   53.5408 H   0  0  0  0  0  0  0  0  0  0  0  0
   54.0241   28.4912   52.2524 H   0  0  0  0  0  0  0  0  0  0  0  0
   54.8120   29.6665   54.8164 H   0  0  0  0  0  0  0  0  0  0  0  0
   54.5229   27.8907   54.9525 H   0  0  0  0  0  0  0  0  0  0  0  0
   56.4340   27.4970   53.7260 H   0  0  0  0  0  0  0  0  0  0  0  0
   55.1653   30.8972   52.7498 H   0  0  0  0  0  0  0  0  0  0  0  0
   56.4856   32.5343   51.4272 H   0  0  0  0  0  0  0  0  0  0  0  0
   59.3120   31.9260   49.6210 H   0  0  0  0  0  0  0  0  0  0  0  0
   57.8557   34.4250   47.7532 H   0  0  0  0  0  0  0  0  0  0  0  0
   58.5126   33.9784   45.3908 H   0  0  0  0  0  0  0  0  0  0  0  0
   60.9120   33.6792   44.7928 H   0  0  0  0  0  0  0  0  0  0  0  0
   61.1273   31.9257   50.0558 H   0  0  0  0  0  0  0  0  0  0  0  0
   62.3682   30.0332   51.1063 H   0  0  0  0  0  0  0  0  0  0  0  0
   64.8635   34.0255   49.4461 H   0  0  0  0  0  0  0  0  0  0  0  0
   61.2087   29.0487   53.8135 H   0  0  0  0  0  0  0  0  0  0  0  0
   62.1838   26.8251   54.3864 H   0  0  0  0  0  0  0  0  0  0  0  0
   62.3487   25.0444   52.6470 H   0  0  0  0  0  0  0  0  0  0  0  0
   61.5661   25.4915   50.3223 H   0  0  0  0  0  0  0  0  0  0  0  0
   58.8091   28.5599   46.3208 H   0  0  0  0  0  0  0  0  0  0  0  0
   58.8468   30.2535   45.7233 H   0  0  0  0  0  0  0  0  0  0  0  0
   60.3482   29.2674   45.7233 H   0  0  0  0  0  0  0  0  0  0  0  0
   58.5280   28.1787   52.7416 H   0  0  0  0  0  0  0  0  0  0  0  0
  1  2  1  0
  2  3  1  0
  3  4  1  0
  4  5  1  0
  4  6  1  0
  6  7  1  0
  7  8  1  0
  8  9  1  0
  9 10  1  0
 10 11  2  0
 11 12  1  0
 12 13  2  0
 13 14  1  0
 14 15  1  0
 15 16  2  0
 15 17  1  0
 17 18  1  0
 18 19  2  0
 19 20  1  0
 20 21  2  0
 21 22  1  0
 22 23  1  0
 22 24  2  0
 24 25  1  0
 25 26  1  0
 26 27  2  0
 27 28  1  0
 28 29  2  0
 29 30  1  0
 29 31  1  0
 31 32  1  0
 31 33  2  0
 13 34  1  0
 34 35  1  0
 35 36  1  0
 36 37  2  0
 37 38  1  0
 38 39  2  0
 39 40  1  0
 40 41  2  0
 41 42  1  0
 42 43  2  0
 42 44  1  0
 44 45  1  0
 45 46  1  0
 45 47  2  0
 45 48  2  0
 34 49  2  0
 49 10  1  0
 24 18  1  0
 33 26  1  0
 41 36  1  0
  1 50  1  0
  1 51  1  0
  1 52  1  0
  2 53  1  0
  2 54  1  0
  3 55  1  0
  3 56  1  0
  5 57  1  0
  5 58  1  0
  5 59  1  0
  6 60  1  0
  6 61  1  0
  7 62  1  0
  7 63  1  0
  8 64  1  0
  8 65  1  0
  9 66  1  0
 11 67  1  0
 12 68  1  0
 14 69  1  0
 19 70  1  0
 20 71  1  0
 21 72  1  0
 27 73  1  0
 28 74  1  0
 33 75  1  0
 37 76  1  0
 38 77  1  0
 39 78  1  0
 40 79  1  0
 46 80  1  0
 46 81  1  0
 46 82  1  0
 49 83  1  0
M  CHG  2  17  -1  44  -1
M  END
>  <UniqueID>  (56) 
51

>  <SMILES>  (56) 
CCCN(C)CCCNc1ccc(NC(=O)[N-]c2cccc(Cl)c2Oc2ccc(F)c(Cl)c2)c(Oc2ccccc2C(=O)[N-]S(C)(=O)=O)c1

>  <Energy>  (56) 
108.88007297406436

>  <Genealogy>  (56) 
CCCN(C)CCCNc1ccc(NC(=O)[N-]c2cccc(Cl)c2Oc2ccc(F)c(Cl)c2)c(Oc2ccccc2C(=O)[N-]S(C)(=O)=O)c1 (protonated)
CCCN(C)CCCNc1ccc(NC(=O)[N-]c2cccc(Cl)c2Oc2ccc(F)c(Cl)c2)c(Oc2ccccc2C(=O)[N-]S(C)(=O)=O)c1 (3D coordinates assigned)
CCCN(C)CCCNc1ccc(NC(=O)[N-]c2cccc(Cl)c2Oc2ccc(F)c(Cl)c2)c(Oc2ccccc2C(=O)[N-]S(C)(=O)=O)c1 (optimized conformer: 108.88007297406436 kcal/mol)

>  <smiles>  (56) 
CCCN(C)CCCNc1ccc(NC(=O)Nc2cccc(Cl)c2Oc2ccc(F)c(Cl)c2)c(Oc2ccccc2C(=O)NS(C)(=O)=O)c1

>  <score_type>  (56) 
oracle

>  <origin>  (56) 
adg

>  <m_score__min__energy>  (56) 
-11.9

>  <m_primary>  (56) 
energy

$$$$
56:0
     RDKit          3D

 71 76  0  0  0  0  0  0  0  0999 V2000
   65.4110   32.6860   50.7310 C   0  0  0  0  0  0  0  0  0  0  0  0
   64.9610   31.9660   49.5870 O   0  0  0  0  0  0  0  0  0  0  0  0
   63.8300   32.3110   48.8300 C   0  0  0  0  0  0  0  0  0  0  0  0
   63.9430   32.8090   47.5610 N   0  0  0  0  0  0  0  0  0  0  0  0
   62.8480   33.1290   46.8210 C   0  0  0  0  0  0  0  0  0  0  0  0
   61.5640   32.9760   47.3540 C   0  0  0  0  0  0  0  0  0  0  0  0
   60.3760   33.3070   46.5490 C   0  0  0  0  0  0  0  0  0  0  0  0
   59.9870   34.6470   46.3420 C   0  0  0  0  0  0  0  0  0  0  0  0
   58.8470   34.9510   45.5660 C   0  0  0  0  0  0  0  0  0  0  0  0
   58.0750   33.9210   45.0000 C   0  0  0  0  0  0  0  0  0  0  0  0
   58.4730   32.6040   45.2280 C   0  0  0  0  0  0  0  0  0  0  0  0
   57.8490   31.4850   44.8240 N   0  0  0  0  0  0  0  0  0  0  0  0
   58.5690   30.4550   45.3340 C   0  0  0  0  0  0  0  0  0  0  0  0
   58.2050   29.0260   45.1790 C   0  0  0  0  0  0  0  0  0  0  0  0
   57.1900   28.4590   45.9640 C   0  0  0  0  0  0  0  0  0  0  0  0
   56.8350   27.1160   45.8140 C   0  0  0  0  0  0  0  0  0  0  0  0
   57.4920   26.2860   44.8750 C   0  0  0  0  0  0  0  0  0  0  0  0
   57.1260   24.8770   44.7230 N   0  0  0  0  0  0  0  0  0  0  0  0
   57.1150   24.0120   45.9200 C   0  0  0  0  0  0  0  0  0  0  0  0
   56.6550   22.5690   45.6750 C   0  0  0  0  0  0  0  0  0  0  0  0
   57.0650   22.0500   44.3660 N   0  0  0  0  0  0  0  0  0  0  0  0
   58.5260   21.9060   44.2340 C   0  0  0  0  0  0  0  0  0  0  0  0
   56.4720   22.8690   43.3030 C   0  0  0  0  0  0  0  0  0  0  0  0
   56.9080   24.3400   43.3590 C   0  0  0  0  0  0  0  0  0  0  0  0
   58.5230   26.8690   44.1000 C   0  0  0  0  0  0  0  0  0  0  0  0
   58.8660   28.2170   44.2460 C   0  0  0  0  0  0  0  0  0  0  0  0
   59.6640   30.9340   46.0540 C   0  0  0  0  0  0  0  0  0  0  0  0
   59.5830   32.3080   45.9720 C   0  0  0  0  0  0  0  0  0  0  0  0
   61.4260   32.4810   48.6540 C   0  0  0  0  0  0  0  0  0  0  0  0
   62.5610   32.1220   49.3960 C   0  0  0  0  0  0  0  0  0  0  0  0
   62.4600   31.5470   50.7050 N   0  0  0  0  0  0  0  0  0  0  0  0
   61.0390   30.7870   51.3520 S   0  0  0  0  0  0  0  0  0  0  0  0
   61.3540   30.2330   52.7110 O   0  0  0  0  0  0  0  0  0  0  0  0
   59.9280   31.7920   51.4490 O   0  0  0  0  0  0  0  0  0  0  0  0
   60.5230   29.4960   50.2700 C   0  0  0  0  0  0  0  0  0  0  0  0
   61.1210   28.2300   50.3630 C   0  0  0  0  0  0  0  0  0  0  0  0
   60.7590   27.2110   49.4760 C   0  0  0  0  0  0  0  0  0  0  0  0
   59.8020   27.4510   48.4880 C   0  0  0  0  0  0  0  0  0  0  0  0
   59.4580   26.4660   47.6210 F   0  0  0  0  0  0  0  0  0  0  0  0
   59.2070   28.7120   48.3840 C   0  0  0  0  0  0  0  0  0  0  0  0
   59.5650   29.7360   49.2690 C   0  0  0  0  0  0  0  0  0  0  0  0
   58.9930   30.9570   49.1300 F   0  0  0  0  0  0  0  0  0  0  0  0
   65.0854   32.1651   51.6435 H   0  0  0  0  0  0  0  0  0  0  0  0
   66.5091   32.7484   50.7164 H   0  0  0  0  0  0  0  0  0  0  0  0
   64.9859   33.7004   50.7164 H   0  0  0  0  0  0  0  0  0  0  0  0
   64.8790   32.9500   47.1250 H   0  0  0  0  0  0  0  0  0  0  0  0
   62.9728   33.5106   45.7969 H   0  0  0  0  0  0  0  0  0  0  0  0
   60.5762   35.4615   46.7885 H   0  0  0  0  0  0  0  0  0  0  0  0
   58.5610   36.0006   45.4032 H   0  0  0  0  0  0  0  0  0  0  0  0
   57.1841   34.1472   44.3957 H   0  0  0  0  0  0  0  0  0  0  0  0
   56.9640   31.4340   44.2740 H   0  0  0  0  0  0  0  0  0  0  0  0
   56.6671   29.0794   46.7068 H   0  0  0  0  0  0  0  0  0  0  0  0
   56.0309   26.6967   46.4366 H   0  0  0  0  0  0  0  0  0  0  0  0
   58.1365   23.9798   46.3267 H   0  0  0  0  0  0  0  0  0  0  0  0
   56.3825   24.4542   46.6112 H   0  0  0  0  0  0  0  0  0  0  0  0
   57.0857   21.9265   46.4571 H   0  0  0  0  0  0  0  0  0  0  0  0
   55.5553   22.5661   45.6997 H   0  0  0  0  0  0  0  0  0  0  0  0
   58.9819   21.8611   45.2341 H   0  0  0  0  0  0  0  0  0  0  0  0
   58.7551   20.9809   43.6847 H   0  0  0  0  0  0  0  0  0  0  0  0
   58.9313   22.7685   43.6847 H   0  0  0  0  0  0  0  0  0  0  0  0
   56.7733   22.4517   42.3308 H   0  0  0  0  0  0  0  0  0  0  0  0
   55.3811   22.8457   43.4422 H   0  0  0  0  0  0  0  0  0  0  0  0
   57.8496   24.4384   42.7990 H   0  0  0  0  0  0  0  0  0  0  0  0
   56.0806   24.9226   42.9278 H   0  0  0  0  0  0  0  0  0  0  0  0
   59.0646   26.2503   43.3693 H   0  0  0  0  0  0  0  0  0  0  0  0
   59.6633   28.6464   43.6215 H   0  0  0  0  0  0  0  0  0  0  0  0
   60.4295   30.3412   46.5762 H   0  0  0  0  0  0  0  0  0  0  0  0
   60.4247   32.3727   49.0963 H   0  0  0  0  0  0  0  0  0  0  0  0
   61.8783   28.0380   51.1374 H   0  0  0  0  0  0  0  0  0  0  0  0
   61.2287   26.2196   49.5568 H   0  0  0  0  0  0  0  0  0  0  0  0
   58.4547   28.9002   47.6038 H   0  0  0  0  0  0  0  0  0  0  0  0
  1  2  1  0
  2  3  1  0
  3  4  2  0
  4  5  1  0
  5  6  2  0
  6  7  1  0
  7  8  2  0
  8  9  1  0
  9 10  2  0
 10 11  1  0
 11 12  1  0
 12 13  1  0
 13 14  1  0
 14 15  2  0
 15 16  1  0
 16 17  2  0
 17 18  1  0
 18 19  1  0
 19 20  1  0
 20 21  1  0
 21 22  1  0
 21 23  1  0
 23 24  1  0
 17 25  1  0
 25 26  2  0
 13 27  2  0
 27 28  1  0
  6 29  1  0
 29 30  2  0
 30 31  1  0
 31 32  1  0
 32 33  2  0
 32 34  2  0
 32 35  1  0
 35 36  2  0
 36 37  1  0
 37 38  2  0
 38 39  1  0
 38 40  1  0
 40 41  2  0
 41 42  1  0
 30  3  1  0
 41 35  1  0
 28  7  1  0
 28 11  2  0
 26 14  1  0
 24 18  1  0
  1 43  1  0
  1 44  1  0
  1 45  1  0
  4 46  1  0
  5 47  1  0
  8 48  1  0
  9 49  1  0
 10 50  1  0
 12 51  1  0
 15 52  1  0
 16 53  1  0
 19 54  1  0
 19 55  1  0
 20 56  1  0
 20 57  1  0
 22 58  1  0
 22 59  1  0
 22 60  1  0
 23 61  1  0
 23 62  1  0
 24 63  1  0
 24 64  1  0
 25 65  1  0
 26 66  1  0
 27 67  1  0
 29 68  1  0
 36 69  1  0
 37 70  1  0
 40 71  1  0
M  CHG  2   4   1  31  -1
M  END
>  <UniqueID>  (57) 
52

>  <SMILES>  (57) 
COc1[nH+]cc(-c2cccc3[nH]c(-c4ccc(N5CCN(C)CC5)cc4)cc23)cc1[N-]S(=O)(=O)c1ccc(F)cc1F

>  <Energy>  (57) 
135.3063025318309

>  <Genealogy>  (57) 
COc1[nH+]cc(-c2cccc3[nH]c(-c4ccc(N5CCN(C)CC5)cc4)cc23)cc1[N-]S(=O)(=O)c1ccc(F)cc1F (protonated)
COc1[nH+]cc(-c2cccc3[nH]c(-c4ccc(N5CCN(C)CC5)cc4)cc23)cc1[N-]S(=O)(=O)c1ccc(F)cc1F (3D coordinates assigned)
COc1[nH+]cc(-c2cccc3[nH]c(-c4ccc(N5CCN(C)CC5)cc4)cc23)cc1[N-]S(=O)(=O)c1ccc(F)cc1F (nonaromatic ring conformer: 135.3063025318309 kcal/mol)

>  <smiles>  (57) 
COc1ncc(-c2cccc3[nH]c(-c4ccc(N5CCN(C)CC5)cc4)cc23)cc1NS(=O)(=O)c1ccc(F)cc1F

>  <score_type>  (57) 
oracle

>  <origin>  (57) 
adg

>  <m_score__min__energy>  (57) 
-9.6699999999999999

>  <m_primary>  (57) 
energy

$$$$
57:0
     RDKit          3D

 47 48  0  0  0  0  0  0  0  0999 V2000
   56.5970   30.0730   43.6710 C   0  0  0  0  0  0  0  0  0  0  0  0
   56.6780   30.8390   44.8670 O   0  0  0  0  0  0  0  0  0  0  0  0
   57.4660   31.9910   45.0220 C   0  0  0  0  0  0  0  0  0  0  0  0
   58.0310   32.6710   43.9270 C   0  0  0  0  0  0  0  0  0  0  0  0
   58.8210   33.8050   44.1350 C   0  0  0  0  0  0  0  0  0  0  0  0
   59.0510   34.2710   45.4330 C   0  0  0  0  0  0  0  0  0  0  0  0
   58.4750   33.6190   46.5310 C   0  0  0  0  0  0  0  0  0  0  0  0
   58.7610   34.1050   47.8520 N   0  0  0  0  0  0  0  0  0  0  0  0
   59.9270   33.7920   48.6260 C   0  0  0  0  0  0  0  0  0  0  0  0
   60.9990   33.4420   48.0630 O   0  0  0  0  0  0  0  0  0  0  0  0
   59.8580   33.8460   50.1200 C   0  0  0  0  0  0  0  0  0  0  0  0
   59.3500   32.5620   50.6530 N   0  0  0  0  0  0  0  0  0  0  0  0
   58.5350   32.7610   51.8650 C   0  0  0  0  0  0  0  0  0  0  0  0
   58.6380   31.7620   49.6310 C   0  0  0  0  0  0  0  0  0  0  0  0
   58.5790   30.2910   49.9540 C   0  0  0  0  0  0  0  0  0  0  0  0
   57.7630   29.8680   50.8160 O   0  0  0  0  0  0  0  0  0  0  0  0
   59.3920   29.3730   49.2090 N   0  0  0  0  0  0  0  0  0  0  0  0
   59.0820   28.8610   47.9050 C   0  0  0  0  0  0  0  0  0  0  0  0
   59.7350   29.4030   46.7900 C   0  0  0  0  0  0  0  0  0  0  0  0
   59.4600   28.9210   45.5070 C   0  0  0  0  0  0  0  0  0  0  0  0
   58.5410   27.8830   45.3290 C   0  0  0  0  0  0  0  0  0  0  0  0
   57.8880   27.3220   46.4370 C   0  0  0  0  0  0  0  0  0  0  0  0
   56.7090   26.0280   46.2220 S   0  0  0  0  0  0  0  0  0  0  0  0
   55.1390   26.7070   45.9730 N   0  0  0  0  0  0  0  0  0  0  0  0
   56.6880   25.1570   47.4450 O   0  0  0  0  0  0  0  0  0  0  0  0
   57.0720   25.1950   45.0260 O   0  0  0  0  0  0  0  0  0  0  0  0
   58.1710   27.8030   47.7250 C   0  0  0  0  0  0  0  0  0  0  0  0
   57.6950   32.4700   46.3180 C   0  0  0  0  0  0  0  0  0  0  0  0
   56.4844   29.0085   43.9243 H   0  0  0  0  0  0  0  0  0  0  0  0
   55.7288   30.4035   43.0820 H   0  0  0  0  0  0  0  0  0  0  0  0
   57.5151   30.2147   43.0820 H   0  0  0  0  0  0  0  0  0  0  0  0
   57.8503   32.3088   42.9042 H   0  0  0  0  0  0  0  0  0  0  0  0
   59.2625   34.3317   43.2762 H   0  0  0  0  0  0  0  0  0  0  0  0
   59.6873   35.1539   45.5928 H   0  0  0  0  0  0  0  0  0  0  0  0
   60.8635   34.0351   50.5239 H   0  0  0  0  0  0  0  0  0  0  0  0
   59.1757   34.6551   50.4197 H   0  0  0  0  0  0  0  0  0  0  0  0
   59.1607   32.6082   52.7567 H   0  0  0  0  0  0  0  0  0  0  0  0
   58.1311   33.7842   51.8714 H   0  0  0  0  0  0  0  0  0  0  0  0
   57.7050   32.0391   51.8714 H   0  0  0  0  0  0  0  0  0  0  0  0
   57.6090   32.1416   49.5462 H   0  0  0  0  0  0  0  0  0  0  0  0
   59.1990   31.8649   48.6904 H   0  0  0  0  0  0  0  0  0  0  0  0
   60.4679   30.2121   46.9250 H   0  0  0  0  0  0  0  0  0  0  0  0
   59.9680   29.3596   44.6355 H   0  0  0  0  0  0  0  0  0  0  0  0
   58.3292   27.5050   44.3179 H   0  0  0  0  0  0  0  0  0  0  0  0
   54.8090   27.0690   46.8990 H   0  0  0  0  0  0  0  0  0  0  0  0
   57.6783   27.3508   48.5983 H   0  0  0  0  0  0  0  0  0  0  0  0
   57.2595   31.9409   47.1784 H   0  0  0  0  0  0  0  0  0  0  0  0
  1  2  1  0
  2  3  1  0
  3  4  2  0
  4  5  1  0
  5  6  2  0
  6  7  1  0
  7  8  1  0
  8  9  1  0
  9 10  2  0
  9 11  1  0
 11 12  1  0
 12 13  1  0
 12 14  1  0
 14 15  1  0
 15 16  2  0
 15 17  1  0
 17 18  1  0
 18 19  2  0
 19 20  1  0
 20 21  2  0
 21 22  1  0
 22 23  1  0
 23 24  1  0
 23 25  2  0
 23 26  2  0
 22 27  2  0
  7 28  2  0
 28  3  1  0
 27 18  1  0
  1 29  1  0
  1 30  1  0
  1 31  1  0
  4 32  1  0
  5 33  1  0
  6 34  1  0
 11 35  1  0
 11 36  1  0
 13 37  1  0
 13 38  1  0
 13 39  1  0
 14 40  1  0
 14 41  1  0
 19 42  1  0
 20 43  1  0
 21 44  1  0
 24 45  1  0
 27 46  1  0
 28 47  1  0
M  CHG  3   8  -1  17  -1  24  -1
M  END
>  <UniqueID>  (58) 
53

>  <SMILES>  (58) 
COc1cccc([N-]C(=O)CN(C)CC(=O)[N-]c2cccc(S([NH-])(=O)=O)c2)c1

>  <Energy>  (58) 
55.01831421913671

>  <Genealogy>  (58) 
COc1cccc([N-]C(=O)CN(C)CC(=O)[N-]c2cccc(S([NH-])(=O)=O)c2)c1 (protonated)
COc1cccc([N-]C(=O)CN(C)CC(=O)[N-]c2cccc(S([NH-])(=O)=O)c2)c1 (3D coordinates assigned)
COc1cccc([N-]C(=O)CN(C)CC(=O)[N-]c2cccc(S([NH-])(=O)=O)c2)c1 (optimized conformer: 55.01831421913671 kcal/mol)

>  <smiles>  (58) 
COc1cccc(NC(=O)CN(C)CC(=O)Nc2cccc(S(N)(=O)=O)c2)c1

>  <score_type>  (58) 
oracle

>  <origin>  (58) 
adg

>  <m_score__min__energy>  (58) 
-13.31

>  <m_primary>  (58) 
energy

$$$$
58:0
     RDKit          3D

 38 39  0  0  0  0  0  0  0  0999 V2000
   59.9308   32.9812   47.5761 H   0  0  0  0  0  0  0  0  0  0  0  0
   59.3270   32.8820   46.6620 C   0  0  0  0  0  0  0  0  0  0  0  0
   58.8420   31.6280   46.2790 C   0  0  0  0  0  0  0  0  0  0  0  0
   59.0627   30.7451   46.8969 H   0  0  0  0  0  0  0  0  0  0  0  0
   58.0730   31.4870   45.1080 C   0  0  0  0  0  0  0  0  0  0  0  0
   57.5480   30.1640   44.6960 C   0  0  0  0  0  0  0  0  0  0  0  0
   56.3250   29.9000   44.8670 O   0  0  0  0  0  0  0  0  0  0  0  0
   58.4010   29.1970   44.0600 N   0  0  0  0  0  0  0  0  0  0  0  0
   59.2180   29.5490   43.5130 H   0  0  0  0  0  0  0  0  0  0  0  0
   58.1090   27.7890   44.0010 C   0  0  0  0  0  0  0  0  0  0  0  0
   57.8180   27.0970   45.1840 C   0  0  0  0  0  0  0  0  0  0  0  0
   57.8313   27.6312   46.1455 H   0  0  0  0  0  0  0  0  0  0  0  0
   57.5110   25.7340   45.1530 C   0  0  0  0  0  0  0  0  0  0  0  0
   57.2986   25.2020   46.0921 H   0  0  0  0  0  0  0  0  0  0  0  0
   57.4710   25.0350   43.9310 C   0  0  0  0  0  0  0  0  0  0  0  0
   57.1450   23.5830   43.9100 C   0  0  0  0  0  0  0  0  0  0  0  0
   55.9990   23.2030   43.4280 N   0  0  0  0  0  0  0  0  0  0  0  0
   54.8930   22.9960   44.2230 O   0  0  0  0  0  0  0  0  0  0  0  0
   54.0200   24.0700   44.5290 C   0  0  0  0  0  0  0  0  0  0  0  0
   53.8978   24.7083   43.6415 H   0  0  0  0  0  0  0  0  0  0  0  0
   53.0396   23.6728   44.8309 H   0  0  0  0  0  0  0  0  0  0  0  0
   54.5980   24.8740   45.6450 C   0  0  0  0  0  0  0  0  0  0  0  0
   55.1700   24.2990   46.6080 O   0  0  0  0  0  0  0  0  0  0  0  0
   54.4600   26.2560   45.6520 O   0  0  0  0  0  0  0  0  0  0  0  0
   58.0950   22.5730   44.5040 C   0  0  0  0  0  0  0  0  0  0  0  0
   58.0461   22.6250   45.6017 H   0  0  0  0  0  0  0  0  0  0  0  0
   57.8116   21.5634   44.1717 H   0  0  0  0  0  0  0  0  0  0  0  0
   59.1200   22.7941   44.1717 H   0  0  0  0  0  0  0  0  0  0  0  0
   57.7480   25.7380   42.7430 C   0  0  0  0  0  0  0  0  0  0  0  0
   57.7210   25.2099   41.7784 H   0  0  0  0  0  0  0  0  0  0  0  0
   58.0570   27.1010   42.7780 C   0  0  0  0  0  0  0  0  0  0  0  0
   58.2610   27.6386   41.8403 H   0  0  0  0  0  0  0  0  0  0  0  0
   57.7880   32.6330   44.3410 C   0  0  0  0  0  0  0  0  0  0  0  0
   57.1763   32.5422   43.4313 H   0  0  0  0  0  0  0  0  0  0  0  0
   58.2760   33.8850   44.7260 C   0  0  0  0  0  0  0  0  0  0  0  0
   58.0534   34.7725   44.1155 H   0  0  0  0  0  0  0  0  0  0  0  0
   59.0460   34.0110   45.8850 C   0  0  0  0  0  0  0  0  0  0  0  0
   59.6560   35.5830   46.3690 Cl  0  0  0  0  0  0  0  0  0  0  0  0
  1  2  1  0
  2  3  2  0
  3  4  1  0
  3  5  1  0
  5  6  1  0
  6  7  2  0
  6  8  1  0
  8  9  1  0
  8 10  1  0
 10 11  2  0
 11 12  1  0
 11 13  1  0
 13 14  1  0
 13 15  2  0
 15 16  1  0
 16 17  2  0
 17 18  1  0
 18 19  1  0
 19 20  1  0
 19 21  1  0
 19 22  1  0
 22 23  2  0
 22 24  1  0
 16 25  1  0
 25 26  1  0
 25 27  1  0
 25 28  1  0
 15 29  1  0
 29 30  1  0
 29 31  2  0
 31 32  1  0
  5 33  2  0
 33 34  1  0
 33 35  1  0
 35 36  1  0
 35 37  2  0
 37 38  1  0
 37  2  1  0
 31 10  1  0
M  CHG  1  24  -1
M  END
>  <UniqueID>  (59) 
54

>  <SMILES>  (59) 
C/C(=N\OCC(=O)[O-])c1ccc(NC(=O)c2ccc(Cl)cc2)cc1

>  <Energy>  (59) 
41.41542687700246

>  <Genealogy>  (59) 
CC(=NOCC(=O)[O-])c1ccc(NC(=O)c2ccc(Cl)cc2)cc1 (protonated)
C/C(=N\OCC(=O)[O-])c1ccc(NC(=O)c2ccc(Cl)cc2)cc1 (cis-trans isomerization)
C/C(=N\OCC(=O)[O-])c1ccc(NC(=O)c2ccc(Cl)cc2)cc1 (3D coordinates assigned)
C/C(=N\OCC(=O)[O-])c1ccc(NC(=O)c2ccc(Cl)cc2)cc1 (optimized conformer: 41.41542687700246 kcal/mol)

>  <smiles>  (59) 
CC(=NOCC(=O)O)c1ccc(NC(=O)c2ccc(Cl)cc2)cc1

>  <score_type>  (59) 
oracle

>  <origin>  (59) 
adg

>  <m_score__min__energy>  (59) 
-11.289999999999999

>  <m_primary>  (59) 
energy

$$$$
59:0
     RDKit          3D

 41 42  0  0  1  0  0  0  0  0999 V2000
   55.6290   29.7070   43.3870 C   0  0  0  0  0  0  0  0  0  0  0  0
   56.8880   30.0930   43.6700 C   0  0  0  0  0  0  0  0  0  0  0  0
   57.1570   31.2170   44.5760 C   0  0  0  0  0  0  0  0  0  0  0  0
   56.2730   32.0440   44.8970 O   0  0  0  0  0  0  0  0  0  0  0  0
   58.4850   31.3100   45.0670 N   0  0  0  0  0  0  0  0  0  0  0  0
   58.9930   32.2870   45.9450 C   0  0  0  0  0  0  0  0  0  0  0  0
   59.0790   33.6200   45.5780 C   0  0  0  0  0  0  0  0  0  0  0  0
   59.5420   34.5570   46.4780 C   0  0  0  0  0  0  0  0  0  0  0  0
   59.9140   34.1270   47.7450 C   0  0  0  0  0  0  0  0  0  0  0  0
   59.8410   32.8100   48.1380 C   0  0  0  0  0  0  0  0  0  0  0  0
   59.3690   31.8670   47.2110 C   0  0  0  0  0  0  0  0  0  0  0  0
   59.3440   30.1800   47.7350 S   0  0  0  0  0  0  0  0  0  0  0  0
   58.9790   28.9910   46.4860 C   0  0  0  0  0  0  0  0  0  0  0  0
   59.6150   28.8530   45.3160 N   0  0  0  0  0  0  0  0  0  0  0  0
   59.2400   27.8840   44.4340 C   0  0  0  0  0  0  0  0  0  0  0  0
   58.2030   27.0340   44.7300 C   0  0  0  0  0  0  0  0  0  0  0  0
   57.7420   25.9630   43.8540 C   0  0  0  0  0  0  0  0  0  0  0  0
   57.7570   26.1180   42.5830 O   0  0  0  0  0  0  0  0  0  0  0  0
   57.2570   24.7070   44.3940 N   0  0  0  0  0  0  0  0  0  0  0  0
   56.8100   23.7020   43.4300 C   0  0  0  0  0  0  0  0  0  0  0  0
   57.5630   27.1880   45.9260 C   0  0  0  0  0  0  0  0  0  0  0  0
   56.4260   26.3470   46.3480 C   0  0  0  0  0  0  0  0  0  0  0  0
   55.1210   26.7090   45.9890 O   0  0  0  0  0  0  0  0  0  0  0  0
   56.6560   25.2720   47.0570 N   0  0  0  0  0  0  0  0  0  0  0  0
   55.6710   24.2850   47.1430 O   0  0  0  0  0  0  0  0  0  0  0  0
   57.9470   28.1350   46.7640 N   0  0  0  0  0  0  0  0  0  0  0  0
   55.4529   28.8619   42.7052 H   0  0  0  0  0  0  0  0  0  0  0  0
   54.7769   30.2368   43.8377 H   0  0  0  0  0  0  0  0  0  0  0  0
   57.7319   29.5553   43.2132 H   0  0  0  0  0  0  0  0  0  0  0  0
   59.2010   30.5770   44.7510 H   0  0  0  0  0  0  0  0  0  0  0  0
   58.7775   33.9317   44.5671 H   0  0  0  0  0  0  0  0  0  0  0  0
   59.6148   35.6186   46.1991 H   0  0  0  0  0  0  0  0  0  0  0  0
   60.2831   34.8714   48.4659 H   0  0  0  0  0  0  0  0  0  0  0  0
   60.1441   32.5046   49.1504 H   0  0  0  0  0  0  0  0  0  0  0  0
   59.7726   27.7820   43.4769 H   0  0  0  0  0  0  0  0  0  0  0  0
   57.2310   24.5410   45.4250 H   0  0  0  0  0  0  0  0  0  0  0  0
   56.4201   22.8255   43.9683 H   0  0  0  0  0  0  0  0  0  0  0  0
   56.0162   24.1273   42.7984 H   0  0  0  0  0  0  0  0  0  0  0  0
   57.6575   23.3973   42.7984 H   0  0  0  0  0  0  0  0  0  0  0  0
   54.3620   26.1720   46.3910 H   0  0  0  0  0  0  0  0  0  0  0  0
   54.7020   24.6150   47.0040 H   0  0  0  0  0  0  0  0  0  0  0  0
  1  2  2  0
  2  3  1  0
  3  4  2  0
  3  5  1  0
  5  6  1  0
  6  7  2  0
  7  8  1  0
  8  9  2  0
  9 10  1  0
 10 11  2  0
 11 12  1  0
 12 13  1  0
 13 14  2  0
 14 15  1  0
 15 16  2  0
 16 17  1  0
 17 18  2  0
 17 19  1  0
 19 20  1  0
 16 21  1  0
 21 22  1  0
 22 23  1  0
 22 24  2  0
 24 25  1  0
 21 26  2  0
 11  6  1  0
 26 13  1  0
  1 27  1  0
  1 28  1  0
  2 29  1  0
  5 30  1  0
  7 31  1  0
  8 32  1  0
  9 33  1  0
 10 34  1  0
 15 35  1  0
 19 36  1  0
 20 37  1  0
 20 38  1  0
 20 39  1  0
 23 40  1  0
 25 41  1  0
M  END
>  <smiles>  (60) 
C=CC(=O)Nc1ccccc1Sc1ncc(C(=O)NC)c(C(O)=NO)n1

>  <score_type>  (60) 
oracle

>  <origin>  (60) 
adg

>  <m_score__min__energy>  (60) 
-9.25

>  <m_primary>  (60) 
energy

$$$$
60:0
     RDKit          3D

 61 63  0  0  0  0  0  0  0  0999 V2000
   54.2270   30.0970   51.9250 C   0  0  0  0  0  0  0  0  0  0  0  0
   55.1890   31.1810   51.7570 N   0  0  0  0  0  0  0  0  0  0  0  0
   56.6010   30.9180   51.6990 C   0  0  0  0  0  0  0  0  0  0  0  0
   57.0070   29.7260   51.8110 O   0  0  0  0  0  0  0  0  0  0  0  0
   57.6090   32.0080   51.5590 C   0  0  0  0  0  0  0  0  0  0  0  0
   57.9400   32.7880   52.6880 C   0  0  0  0  0  0  0  0  0  0  0  0
   58.9150   33.7830   52.6110 C   0  0  0  0  0  0  0  0  0  0  0  0
   59.5990   33.9970   51.4170 C   0  0  0  0  0  0  0  0  0  0  0  0
   59.2950   33.2370   50.2790 C   0  0  0  0  0  0  0  0  0  0  0  0
   60.0100   33.4710   49.0520 N   0  0  0  0  0  0  0  0  0  0  0  0
   59.1660   33.8660   47.9060 C   0  0  0  0  0  0  0  0  0  0  0  0
   58.8220   32.7030   47.0170 C   0  0  0  0  0  0  0  0  0  0  0  0
   58.4550   32.9250   45.6830 C   0  0  0  0  0  0  0  0  0  0  0  0
   58.2360   31.8480   44.8220 C   0  0  0  0  0  0  0  0  0  0  0  0
   58.3590   30.5280   45.2910 C   0  0  0  0  0  0  0  0  0  0  0  0
   58.2720   29.3660   44.3350 C   0  0  0  0  0  0  0  0  0  0  0  0
   57.6330   28.2170   45.0000 N   0  0  0  0  0  0  0  0  0  0  0  0
   58.3890   27.1190   45.3160 C   0  0  0  0  0  0  0  0  0  0  0  0
   57.7910   25.9830   45.8550 C   0  0  0  0  0  0  0  0  0  0  0  0
   56.4100   25.9870   46.0540 C   0  0  0  0  0  0  0  0  0  0  0  0
   55.8320   24.9700   46.5190 O   0  0  0  0  0  0  0  0  0  0  0  0
   55.6870   27.0950   45.7520 N   0  0  0  0  0  0  0  0  0  0  0  0
   56.2800   28.2050   45.2430 C   0  0  0  0  0  0  0  0  0  0  0  0
   55.5680   29.2170   44.9950 O   0  0  0  0  0  0  0  0  0  0  0  0
   58.6670   30.3060   46.6410 C   0  0  0  0  0  0  0  0  0  0  0  0
   58.8980   31.3850   47.4980 C   0  0  0  0  0  0  0  0  0  0  0  0
   61.3990   33.9730   49.1470 C   0  0  0  0  0  0  0  0  0  0  0  0
   62.4100   33.2600   48.1950 C   0  0  0  0  0  0  0  0  0  0  0  0
   62.0890   31.7440   48.1600 C   0  0  0  0  0  0  0  0  0  0  0  0
   62.2770   33.8110   46.7590 C   0  0  0  0  0  0  0  0  0  0  0  0
   63.8710   33.4310   48.6800 C   0  0  0  0  0  0  0  0  0  0  0  0
   58.2740   32.2720   50.3400 C   0  0  0  0  0  0  0  0  0  0  0  0
   54.0645   29.9139   52.9974 H   0  0  0  0  0  0  0  0  0  0  0  0
   53.2738   30.3761   51.4521 H   0  0  0  0  0  0  0  0  0  0  0  0
   54.6174   29.1838   51.4521 H   0  0  0  0  0  0  0  0  0  0  0  0
   54.8070   32.1470   51.6630 H   0  0  0  0  0  0  0  0  0  0  0  0
   57.4220   32.6089   53.6417 H   0  0  0  0  0  0  0  0  0  0  0  0
   59.1435   34.3985   53.4936 H   0  0  0  0  0  0  0  0  0  0  0  0
   60.3827   34.7672   51.3665 H   0  0  0  0  0  0  0  0  0  0  0  0
   58.2332   34.3050   48.2895 H   0  0  0  0  0  0  0  0  0  0  0  0
   59.7359   34.5896   47.3046 H   0  0  0  0  0  0  0  0  0  0  0  0
   58.3388   33.9540   45.3119 H   0  0  0  0  0  0  0  0  0  0  0  0
   57.9660   32.0329   43.7718 H   0  0  0  0  0  0  0  0  0  0  0  0
   57.6751   29.6585   43.4586 H   0  0  0  0  0  0  0  0  0  0  0  0
   59.2858   29.0823   44.0162 H   0  0  0  0  0  0  0  0  0  0  0  0
   59.4752   27.1350   45.1428 H   0  0  0  0  0  0  0  0  0  0  0  0
   58.3942   25.1016   46.1182 H   0  0  0  0  0  0  0  0  0  0  0  0
   58.7270   29.2777   47.0269 H   0  0  0  0  0  0  0  0  0  0  0  0
   59.1407   31.2017   48.5551 H   0  0  0  0  0  0  0  0  0  0  0  0
   61.3944   35.0455   48.9027 H   0  0  0  0  0  0  0  0  0  0  0  0
   61.7369   33.7679   50.1735 H   0  0  0  0  0  0  0  0  0  0  0  0
   62.0082   31.3625   49.1885 H   0  0  0  0  0  0  0  0  0  0  0  0
   61.1368   31.5829   47.6333 H   0  0  0  0  0  0  0  0  0  0  0  0
   62.8942   31.2108   47.6333 H   0  0  0  0  0  0  0  0  0  0  0  0
   62.0191   34.8796   46.7987 H   0  0  0  0  0  0  0  0  0  0  0  0
   63.2317   33.6837   46.2276 H   0  0  0  0  0  0  0  0  0  0  0  0
   61.4855   33.2623   46.2276 H   0  0  0  0  0  0  0  0  0  0  0  0
   63.8943   33.4337   49.7797 H   0  0  0  0  0  0  0  0  0  0  0  0
   64.4825   32.5983   48.3023 H   0  0  0  0  0  0  0  0  0  0  0  0
   64.2737   34.3824   48.3023 H   0  0  0  0  0  0  0  0  0  0  0  0
   57.9908   31.7186   49.4325 H   0  0  0  0  0  0  0  0  0  0  0  0
  1  2  1  0
  2  3  1  0
  3  4  2  0
  3  5  1  0
  5  6  2  0
  6  7  1  0
  7  8  2  0
  8  9  1  0
  9 10  1  0
 10 11  1  0
 11 12  1  0
 12 13  2  0
 13 14  1  0
 14 15  2  0
 15 16  1  0
 16 17  1  0
 17 18  1  0
 18 19  2  0
 19 20  1  0
 20 21  2  0
 20 22  1  0
 22 23  1  0
 23 24  2  0
 15 25  1  0
 25 26  2  0
 10 27  1  0
 27 28  1  0
 28 29  1  0
 28 30  1  0
 28 31  1  0
  9 32  2  0
 32  5  1  0
 26 12  1  0
 23 17  1  0
  1 33  1  0
  1 34  1  0
  1 35  1  0
  2 36  1  0
  6 37  1  0
  7 38  1  0
  8 39  1  0
 11 40  1  0
 11 41  1  0
 13 42  1  0
 14 43  1  0
 16 44  1  0
 16 45  1  0
 18 46  1  0
 19 47  1  0
 25 48  1  0
 26 49  1  0
 27 50  1  0
 27 51  1  0
 29 52  1  0
 29 53  1  0
 29 54  1  0
 30 55  1  0
 30 56  1  0
 30 57  1  0
 31 58  1  0
 31 59  1  0
 31 60  1  0
 32 61  1  0
M  CHG  1  22  -1
M  END
>  <UniqueID>  (61) 
55

>  <SMILES>  (61) 
CNC(=O)c1cccc(N(Cc2ccc(Cn3ccc(=O)[n-]c3=O)cc2)CC(C)(C)C)c1

>  <Energy>  (61) 
66.80114179581071

>  <Genealogy>  (61) 
CNC(=O)c1cccc(N(Cc2ccc(Cn3ccc(=O)[n-]c3=O)cc2)CC(C)(C)C)c1 (protonated)
CNC(=O)c1cccc(N(Cc2ccc(Cn3ccc(=O)[n-]c3=O)cc2)CC(C)(C)C)c1 (3D coordinates assigned)
CNC(=O)c1cccc(N(Cc2ccc(Cn3ccc(=O)[n-]c3=O)cc2)CC(C)(C)C)c1 (optimized conformer: 66.80114179581071 kcal/mol)

>  <smiles>  (61) 
CNC(=O)c1cccc(N(Cc2ccc(Cn3ccc(=O)[nH]c3=O)cc2)CC(C)(C)C)c1

>  <score_type>  (61) 
oracle

>  <origin>  (61) 
adg

>  <m_score__min__energy>  (61) 
-11.779999999999999

>  <m_primary>  (61) 
energy

$$$$
61:0
     RDKit          3D

 46 48  0  0  0  0  0  0  0  0999 V2000
   58.1400   32.7150   42.7410 C   0  0  0  0  0  0  0  0  0  0  0  0
   57.4080   31.5430   43.3350 C   0  0  0  0  0  0  0  0  0  0  0  0
   57.7650   31.4200   44.8040 C   0  0  0  0  0  0  0  0  0  0  0  0
   57.8170   30.0380   45.2310 N   0  0  0  0  0  0  0  0  0  0  0  0
   56.6800   29.3190   45.1600 C   0  0  0  0  0  0  0  0  0  0  0  0
   55.5910   29.8010   44.7420 O   0  0  0  0  0  0  0  0  0  0  0  0
   56.7390   27.9980   45.5720 C   0  0  0  0  0  0  0  0  0  0  0  0
   55.7840   27.0240   45.6230 N   0  0  0  0  0  0  0  0  0  0  0  0
   56.3800   25.9160   46.1040 C   0  0  0  0  0  0  0  0  0  0  0  0
   55.8030   24.5690   46.3630 C   0  0  0  0  0  0  0  0  0  0  0  0
   56.2580   23.6050   45.3340 C   0  0  0  0  0  0  0  0  0  0  0  0
   57.1440   22.5830   45.5860 C   0  0  0  0  0  0  0  0  0  0  0  0
   57.4890   21.7540   44.5440 C   0  0  0  0  0  0  0  0  0  0  0  0
   56.9700   21.9270   43.2730 C   0  0  0  0  0  0  0  0  0  0  0  0
   56.0840   22.9440   43.0040 C   0  0  0  0  0  0  0  0  0  0  0  0
   55.7400   23.7750   44.0510 C   0  0  0  0  0  0  0  0  0  0  0  0
   57.6740   26.2030   46.3440 N   0  0  0  0  0  0  0  0  0  0  0  0
   57.9370   27.4860   46.0270 C   0  0  0  0  0  0  0  0  0  0  0  0
   59.0710   28.2200   46.0920 N   0  0  0  0  0  0  0  0  0  0  0  0
   60.3050   27.6970   46.5600 C   0  0  0  0  0  0  0  0  0  0  0  0
   60.4480   27.3160   47.9730 C   0  0  0  0  0  0  0  0  0  0  0  0
   60.0130   28.3690   48.9540 C   0  0  0  0  0  0  0  0  0  0  0  0
   58.9760   29.5130   45.6800 C   0  0  0  0  0  0  0  0  0  0  0  0
   60.0270   30.2050   45.7370 O   0  0  0  0  0  0  0  0  0  0  0  0
   58.5354   33.3481   43.5490 H   0  0  0  0  0  0  0  0  0  0  0  0
   58.9717   32.3512   42.1198 H   0  0  0  0  0  0  0  0  0  0  0  0
   57.4482   33.3028   42.1198 H   0  0  0  0  0  0  0  0  0  0  0  0
   56.3237   31.6968   43.2322 H   0  0  0  0  0  0  0  0  0  0  0  0
   57.6978   30.6223   42.8074 H   0  0  0  0  0  0  0  0  0  0  0  0
   58.7495   31.8815   44.9709 H   0  0  0  0  0  0  0  0  0  0  0  0
   56.9851   31.9293   45.3890 H   0  0  0  0  0  0  0  0  0  0  0  0
   54.7820   27.1020   45.3470 H   0  0  0  0  0  0  0  0  0  0  0  0
   56.1273   24.2205   47.3546 H   0  0  0  0  0  0  0  0  0  0  0  0
   54.7058   24.6381   46.3265 H   0  0  0  0  0  0  0  0  0  0  0  0
   57.5642   22.4332   46.5915 H   0  0  0  0  0  0  0  0  0  0  0  0
   58.1964   20.9315   44.7260 H   0  0  0  0  0  0  0  0  0  0  0  0
   57.2702   21.2417   42.4666 H   0  0  0  0  0  0  0  0  0  0  0  0
   55.6670   23.0891   41.9965 H   0  0  0  0  0  0  0  0  0  0  0  0
   55.0341   24.5983   43.8670 H   0  0  0  0  0  0  0  0  0  0  0  0
   60.5157   26.7966   45.9644 H   0  0  0  0  0  0  0  0  0  0  0  0
   60.9983   28.5442   46.4528 H   0  0  0  0  0  0  0  0  0  0  0  0
   59.8432   26.4140   48.1477 H   0  0  0  0  0  0  0  0  0  0  0  0
   61.5227   27.1559   48.1447 H   0  0  0  0  0  0  0  0  0  0  0  0
   60.1653   28.0004   49.9791 H   0  0  0  0  0  0  0  0  0  0  0  0
   60.6078   29.2814   48.8003 H   0  0  0  0  0  0  0  0  0  0  0  0
   58.9476   28.5956   48.8003 H   0  0  0  0  0  0  0  0  0  0  0  0
  1  2  1  0
  2  3  1  0
  3  4  1  0
  4  5  1  0
  5  6  2  0
  5  7  1  0
  7  8  1  0
  8  9  1  0
  9 10  1  0
 10 11  1  0
 11 12  2  0
 12 13  1  0
 13 14  2  0
 14 15  1  0
 15 16  2  0
  9 17  2  0
 17 18  1  0
 18 19  1  0
 19 20  1  0
 20 21  1  0
 21 22  1  0
 19 23  1  0
 23 24  2  0
 23  4  1  0
 18  7  2  0
 16 11  1  0
  1 25  1  0
  1 26  1  0
  1 27  1  0
  2 28  1  0
  2 29  1  0
  3 30  1  0
  3 31  1  0
  8 32  1  0
 10 33  1  0
 10 34  1  0
 12 35  1  0
 13 36  1  0
 14 37  1  0
 15 38  1  0
 16 39  1  0
 20 40  1  0
 20 41  1  0
 21 42  1  0
 21 43  1  0
 22 44  1  0
 22 45  1  0
 22 46  1  0
M  END
>  <smiles>  (62) 
CCCn1c(=O)c2[nH]c(Cc3ccccc3)nc2n(CCC)c1=O

>  <score_type>  (62) 
oracle

>  <origin>  (62) 
adg

>  <m_score__min__energy>  (62) 
-7.4199999999999999

>  <m_primary>  (62) 
energy

$$$$
62:0
     RDKit          3D

 52 55  0  0  0  0  0  0  0  0999 V2000
   55.1620   29.3100   44.8920 O   0  0  0  0  0  0  0  0  0  0  0  0
   56.3280   29.7730   44.7840 C   0  0  0  0  0  0  0  0  0  0  0  0
   56.4910   31.1110   44.2920 N   0  0  0  0  0  0  0  0  0  0  0  0
   57.3350   32.1230   44.8590 C   0  0  0  0  0  0  0  0  0  0  0  0
   57.4020   32.3320   46.2480 C   0  0  0  0  0  0  0  0  0  0  0  0
   58.2560   33.3060   46.7720 C   0  0  0  0  0  0  0  0  0  0  0  0
   59.0370   34.0990   45.9160 C   0  0  0  0  0  0  0  0  0  0  0  0
   60.0170   35.0860   46.4880 C   0  0  0  0  0  0  0  0  0  0  0  0
   61.1570   34.3550   47.1460 C   0  0  0  0  0  0  0  0  0  0  0  0
   62.2020   33.8300   46.3700 C   0  0  0  0  0  0  0  0  0  0  0  0
   63.2300   33.1010   46.9740 C   0  0  0  0  0  0  0  0  0  0  0  0
   63.2390   32.8960   48.3610 C   0  0  0  0  0  0  0  0  0  0  0  0
   64.3000   32.1270   48.9540 N   0  0  0  0  0  0  0  0  0  0  0  0
   65.0080   32.5270   50.1400 C   0  0  0  0  0  0  0  0  0  0  0  0
   65.0130   33.7420   50.4870 O   0  0  0  0  0  0  0  0  0  0  0  0
   65.7950   31.5460   50.9230 C   0  0  0  0  0  0  0  0  0  0  0  0
   65.1950   30.3410   51.3350 C   0  0  0  0  0  0  0  0  0  0  0  0
   65.9200   29.4040   52.0750 C   0  0  0  0  0  0  0  0  0  0  0  0
   67.2550   29.6530   52.4040 C   0  0  0  0  0  0  0  0  0  0  0  0
   67.8680   30.8350   51.9820 C   0  0  0  0  0  0  0  0  0  0  0  0
   67.1490   31.7810   51.2440 C   0  0  0  0  0  0  0  0  0  0  0  0
   67.7910   32.8960   50.8100 F   0  0  0  0  0  0  0  0  0  0  0  0
   62.1790   33.3990   49.1350 C   0  0  0  0  0  0  0  0  0  0  0  0
   61.1460   34.1240   48.5310 C   0  0  0  0  0  0  0  0  0  0  0  0
   58.9440   33.9100   44.5270 C   0  0  0  0  0  0  0  0  0  0  0  0
   58.0880   32.9370   44.0050 C   0  0  0  0  0  0  0  0  0  0  0  0
   57.4900   28.9100   45.1020 C   0  0  0  0  0  0  0  0  0  0  0  0
   58.8010   29.3540   44.8450 C   0  0  0  0  0  0  0  0  0  0  0  0
   59.8940   28.5440   45.1510 C   0  0  0  0  0  0  0  0  0  0  0  0
   59.6940   27.2800   45.7070 C   0  0  0  0  0  0  0  0  0  0  0  0
   58.3990   26.8200   45.9520 C   0  0  0  0  0  0  0  0  0  0  0  0
   57.2990   27.6250   45.6480 C   0  0  0  0  0  0  0  0  0  0  0  0
   56.0500   27.1600   45.9130 F   0  0  0  0  0  0  0  0  0  0  0  0
   56.7802   31.7269   46.9241 H   0  0  0  0  0  0  0  0  0  0  0  0
   58.3167   33.4522   47.8605 H   0  0  0  0  0  0  0  0  0  0  0  0
   60.4091   35.7207   45.6796 H   0  0  0  0  0  0  0  0  0  0  0  0
   59.5069   35.7097   47.2369 H   0  0  0  0  0  0  0  0  0  0  0  0
   62.2119   33.9930   45.2822 H   0  0  0  0  0  0  0  0  0  0  0  0
   64.0390   32.6845   46.3560 H   0  0  0  0  0  0  0  0  0  0  0  0
   64.6540   31.2910   48.4360 H   0  0  0  0  0  0  0  0  0  0  0  0
   64.1468   30.1356   51.0721 H   0  0  0  0  0  0  0  0  0  0  0  0
   65.4395   28.4691   52.3991 H   0  0  0  0  0  0  0  0  0  0  0  0
   67.8226   28.9189   52.9947 H   0  0  0  0  0  0  0  0  0  0  0  0
   68.9227   31.0231   52.2316 H   0  0  0  0  0  0  0  0  0  0  0  0
   62.1615   33.2218   50.2205 H   0  0  0  0  0  0  0  0  0  0  0  0
   60.3209   34.5151   49.1443 H   0  0  0  0  0  0  0  0  0  0  0  0
   59.5473   34.5304   43.8479 H   0  0  0  0  0  0  0  0  0  0  0  0
   58.0053   32.8098   42.9155 H   0  0  0  0  0  0  0  0  0  0  0  0
   58.9642   30.3466   44.3998 H   0  0  0  0  0  0  0  0  0  0  0  0
   60.9153   28.9020   44.9538 H   0  0  0  0  0  0  0  0  0  0  0  0
   60.5580   26.6451   45.9526 H   0  0  0  0  0  0  0  0  0  0  0  0
   58.2445   25.8209   46.3856 H   0  0  0  0  0  0  0  0  0  0  0  0
  1  2  2  0
  2  3  1  0
  3  4  1  0
  4  5  2  0
  5  6  1  0
  6  7  2  0
  7  8  1  0
  8  9  1  0
  9 10  2  0
 10 11  1  0
 11 12  2  0
 12 13  1  0
 13 14  1  0
 14 15  2  0
 14 16  1  0
 16 17  2  0
 17 18  1  0
 18 19  2  0
 19 20  1  0
 20 21  2  0
 21 22  1  0
 12 23  1  0
 23 24  2  0
  7 25  1  0
 25 26  2  0
  2 27  1  0
 27 28  2  0
 28 29  1  0
 29 30  2  0
 30 31  1  0
 31 32  2  0
 32 33  1  0
 26  4  1  0
 32 27  1  0
 24  9  1  0
 21 16  1  0
  5 34  1  0
  6 35  1  0
  8 36  1  0
  8 37  1  0
 10 38  1  0
 11 39  1  0
 13 40  1  0
 17 41  1  0
 18 42  1  0
 19 43  1  0
 20 44  1  0
 23 45  1  0
 24 46  1  0
 25 47  1  0
 26 48  1  0
 28 49  1  0
 29 50  1  0
 30 51  1  0
 31 52  1  0
M  CHG  1   3  -1
M  END
>  <UniqueID>  (63) 
56

>  <SMILES>  (63) 
O=C([N-]c1ccc(Cc2ccc(NC(=O)c3ccccc3F)cc2)cc1)c1ccccc1F

>  <Energy>  (63) 
69.91334655796422

>  <Genealogy>  (63) 
O=C([N-]c1ccc(Cc2ccc(NC(=O)c3ccccc3F)cc2)cc1)c1ccccc1F (protonated)
O=C([N-]c1ccc(Cc2ccc(NC(=O)c3ccccc3F)cc2)cc1)c1ccccc1F (3D coordinates assigned)
O=C([N-]c1ccc(Cc2ccc(NC(=O)c3ccccc3F)cc2)cc1)c1ccccc1F (optimized conformer: 69.91334655796422 kcal/mol)

>  <smiles>  (63) 
O=C(Nc1ccc(Cc2ccc(NC(=O)c3ccccc3F)cc2)cc1)c1ccccc1F

>  <score_type>  (63) 
oracle

>  <origin>  (63) 
adg

>  <m_score__min__energy>  (63) 
-11.949999999999999

>  <m_primary>  (63) 
energy

$$$$
63:0
     RDKit          3D

 43 44  0  0  0  0  0  0  0  0999 V2000
   62.9330   32.5220   47.7830 C   0  0  0  0  0  0  0  0  0  0  0  0
   61.6510   33.1420   47.7640 O   0  0  0  0  0  0  0  0  0  0  0  0
   60.5270   32.6190   47.1060 C   0  0  0  0  0  0  0  0  0  0  0  0
   60.4760   31.2930   46.6430 C   0  0  0  0  0  0  0  0  0  0  0  0
   59.3350   30.8170   45.9950 C   0  0  0  0  0  0  0  0  0  0  0  0
   58.2250   31.6560   45.7950 C   0  0  0  0  0  0  0  0  0  0  0  0
   57.0380   31.1980   45.1300 N   0  0  0  0  0  0  0  0  0  0  0  0
   56.6280   29.5460   44.7990 S   0  0  0  0  0  0  0  0  0  0  0  0
   55.1350   29.3760   44.8260 O   0  0  0  0  0  0  0  0  0  0  0  0
   57.1310   29.1930   43.4280 O   0  0  0  0  0  0  0  0  0  0  0  0
   57.4110   28.4770   45.9980 C   0  0  0  0  0  0  0  0  0  0  0  0
   57.1470   27.0110   45.6700 C   0  0  0  0  0  0  0  0  0  0  0  0
   55.7530   26.6900   45.9550 N   0  0  0  0  0  0  0  0  0  0  0  0
   55.1410   25.4400   45.6210 C   0  0  0  0  0  0  0  0  0  0  0  0
   53.9020   25.2990   45.7880 O   0  0  0  0  0  0  0  0  0  0  0  0
   55.9320   24.3070   45.1120 C   0  0  0  0  0  0  0  0  0  0  0  0
   55.8470   23.9690   43.7530 C   0  0  0  0  0  0  0  0  0  0  0  0
   56.5790   22.8920   43.2470 C   0  0  0  0  0  0  0  0  0  0  0  0
   57.4070   22.1500   44.0920 C   0  0  0  0  0  0  0  0  0  0  0  0
   57.5120   22.4880   45.4430 C   0  0  0  0  0  0  0  0  0  0  0  0
   56.7810   23.5660   45.9600 C   0  0  0  0  0  0  0  0  0  0  0  0
   56.9840   23.9880   47.6580 Cl  0  0  0  0  0  0  0  0  0  0  0  0
   58.2680   32.9820   46.2560 C   0  0  0  0  0  0  0  0  0  0  0  0
   57.1460   33.8000   46.0480 O   0  0  0  0  0  0  0  0  0  0  0  0
   56.9140   34.5690   44.8720 C   0  0  0  0  0  0  0  0  0  0  0  0
   59.4230   33.4540   46.9110 C   0  0  0  0  0  0  0  0  0  0  0  0
   63.2506   32.3684   48.8249 H   0  0  0  0  0  0  0  0  0  0  0  0
   62.8783   31.5508   47.2694 H   0  0  0  0  0  0  0  0  0  0  0  0
   63.6603   33.1679   47.2694 H   0  0  0  0  0  0  0  0  0  0  0  0
   61.3390   30.6274   46.7919 H   0  0  0  0  0  0  0  0  0  0  0  0
   59.3042   29.7770   45.6380 H   0  0  0  0  0  0  0  0  0  0  0  0
   58.4958   28.6589   45.9893 H   0  0  0  0  0  0  0  0  0  0  0  0
   56.9941   28.6967   46.9919 H   0  0  0  0  0  0  0  0  0  0  0  0
   57.3538   26.8311   44.6047 H   0  0  0  0  0  0  0  0  0  0  0  0
   57.8016   26.3753   46.2843 H   0  0  0  0  0  0  0  0  0  0  0  0
   55.2009   24.5548   43.0827 H   0  0  0  0  0  0  0  0  0  0  0  0
   56.5031   22.6282   42.1818 H   0  0  0  0  0  0  0  0  0  0  0  0
   57.9773   21.2982   43.6930 H   0  0  0  0  0  0  0  0  0  0  0  0
   58.1711   21.9058   46.1038 H   0  0  0  0  0  0  0  0  0  0  0  0
   56.6069   35.5869   45.1542 H   0  0  0  0  0  0  0  0  0  0  0  0
   57.8378   34.6165   44.2768 H   0  0  0  0  0  0  0  0  0  0  0  0
   56.1181   34.0976   44.2768 H   0  0  0  0  0  0  0  0  0  0  0  0
   59.4562   34.4921   47.2732 H   0  0  0  0  0  0  0  0  0  0  0  0
  1  2  1  0
  2  3  1  0
  3  4  2  0
  4  5  1  0
  5  6  2  0
  6  7  1  0
  7  8  1  0
  8  9  2  0
  8 10  2  0
  8 11  1  0
 11 12  1  0
 12 13  1  0
 13 14  1  0
 14 15  2  0
 14 16  1  0
 16 17  2  0
 17 18  1  0
 18 19  2  0
 19 20  1  0
 20 21  2  0
 21 22  1  0
  6 23  1  0
 23 24  1  0
 24 25  1  0
 23 26  2  0
 26  3  1  0
 21 16  1  0
  1 27  1  0
  1 28  1  0
  1 29  1  0
  4 30  1  0
  5 31  1  0
 11 32  1  0
 11 33  1  0
 12 34  1  0
 12 35  1  0
 17 36  1  0
 18 37  1  0
 19 38  1  0
 20 39  1  0
 25 40  1  0
 25 41  1  0
 25 42  1  0
 26 43  1  0
M  CHG  2   7  -1  13  -1
M  END
>  <UniqueID>  (64) 
57

>  <SMILES>  (64) 
COc1ccc([N-]S(=O)(=O)CC[N-]C(=O)c2ccccc2Cl)c(OC)c1

>  <Energy>  (64) 
44.721404009255416

>  <Genealogy>  (64) 
COc1ccc([N-]S(=O)(=O)CC[N-]C(=O)c2ccccc2Cl)c(OC)c1 (protonated)
COc1ccc([N-]S(=O)(=O)CC[N-]C(=O)c2ccccc2Cl)c(OC)c1 (3D coordinates assigned)
COc1ccc([N-]S(=O)(=O)CC[N-]C(=O)c2ccccc2Cl)c(OC)c1 (optimized conformer: 44.721404009255416 kcal/mol)

>  <smiles>  (64) 
COc1ccc(NS(=O)(=O)CCNC(=O)c2ccccc2Cl)c(OC)c1

>  <score_type>  (64) 
oracle

>  <origin>  (64) 
adg

>  <m_score__min__energy>  (64) 
-11.01

>  <m_primary>  (64) 
energy

$$$$
64:0
     RDKit          3D

 50 53  0  0  0  0  0  0  0  0999 V2000
   57.7540   32.4110   48.9510 O   0  0  0  0  0  0  0  0  0  0  0  0
   58.8110   32.6360   48.3020 C   0  0  0  0  0  0  0  0  0  0  0  0
   60.0530   32.6730   49.0150 N   0  0  0  0  0  0  0  0  0  0  0  0
   61.3530   32.6750   48.4090 C   0  0  0  0  0  0  0  0  0  0  0  0
   62.1150   33.8490   48.4650 C   0  0  0  0  0  0  0  0  0  0  0  0
   63.3580   33.9150   47.8340 C   0  0  0  0  0  0  0  0  0  0  0  0
   63.8590   32.8020   47.1570 C   0  0  0  0  0  0  0  0  0  0  0  0
   63.1260   31.6140   47.1280 C   0  0  0  0  0  0  0  0  0  0  0  0
   61.8740   31.5310   47.7630 C   0  0  0  0  0  0  0  0  0  0  0  0
   61.1950   30.2640   47.8430 N   0  0  0  0  0  0  0  0  0  0  0  0
   60.6180   29.7060   46.6150 C   0  0  0  0  0  0  0  0  0  0  0  0
   60.3810   28.2040   46.7840 C   0  0  0  0  0  0  0  0  0  0  0  0
   59.6220   27.9500   47.9500 O   0  0  0  0  0  0  0  0  0  0  0  0
   60.3730   28.3090   49.0920 C   0  0  0  0  0  0  0  0  0  0  0  0
   60.6400   29.8190   49.1250 C   0  0  0  0  0  0  0  0  0  0  0  0
   58.7240   32.9190   46.8460 C   0  0  0  0  0  0  0  0  0  0  0  0
   58.7480   34.2410   46.3650 C   0  0  0  0  0  0  0  0  0  0  0  0
   58.5950   34.5020   45.0020 C   0  0  0  0  0  0  0  0  0  0  0  0
   58.3960   33.4540   44.1050 C   0  0  0  0  0  0  0  0  0  0  0  0
   58.3650   32.1280   44.5590 C   0  0  0  0  0  0  0  0  0  0  0  0
   58.1120   31.0720   43.6200 N   0  0  0  0  0  0  0  0  0  0  0  0
   56.8010   29.9490   43.7950 S   0  0  0  0  0  0  0  0  0  0  0  0
   56.2020   29.7020   42.4400 O   0  0  0  0  0  0  0  0  0  0  0  0
   55.7430   30.5130   44.6990 O   0  0  0  0  0  0  0  0  0  0  0  0
   57.3930   28.4260   44.4310 C   0  0  0  0  0  0  0  0  0  0  0  0
   57.0060   27.8520   45.6330 C   0  0  0  0  0  0  0  0  0  0  0  0
   57.6220   26.6180   45.8720 C   0  0  0  0  0  0  0  0  0  0  0  0
   58.4880   26.2210   44.8600 C   0  0  0  0  0  0  0  0  0  0  0  0
   58.4840   27.4030   43.6630 S   0  0  0  0  0  0  0  0  0  0  0  0
   58.5230   31.8670   45.9320 C   0  0  0  0  0  0  0  0  0  0  0  0
   61.7313   34.7243   49.0097 H   0  0  0  0  0  0  0  0  0  0  0  0
   63.9437   34.8454   47.8702 H   0  0  0  0  0  0  0  0  0  0  0  0
   64.8315   32.8608   46.6462 H   0  0  0  0  0  0  0  0  0  0  0  0
   63.5312   30.7357   46.6041 H   0  0  0  0  0  0  0  0  0  0  0  0
   59.6605   30.2043   46.4032 H   0  0  0  0  0  0  0  0  0  0  0  0
   61.3162   29.8699   45.7810 H   0  0  0  0  0  0  0  0  0  0  0  0
   59.8366   27.8227   45.9076 H   0  0  0  0  0  0  0  0  0  0  0  0
   61.3537   27.6987   46.8758 H   0  0  0  0  0  0  0  0  0  0  0  0
   59.8130   28.0234   49.9946 H   0  0  0  0  0  0  0  0  0  0  0  0
   61.3390   27.7841   49.0541 H   0  0  0  0  0  0  0  0  0  0  0  0
   59.6962   30.3506   49.3163 H   0  0  0  0  0  0  0  0  0  0  0  0
   61.3634   30.0378   49.9242 H   0  0  0  0  0  0  0  0  0  0  0  0
   58.8884   35.0752   47.0681 H   0  0  0  0  0  0  0  0  0  0  0  0
   58.6316   35.5383   44.6348 H   0  0  0  0  0  0  0  0  0  0  0  0
   58.2625   33.6686   43.0344 H   0  0  0  0  0  0  0  0  0  0  0  0
   58.8850   30.7850   42.9790 H   0  0  0  0  0  0  0  0  0  0  0  0
   56.2899   28.3178   46.3259 H   0  0  0  0  0  0  0  0  0  0  0  0
   57.4380   26.0187   46.7759 H   0  0  0  0  0  0  0  0  0  0  0  0
   59.0762   25.2916   44.8444 H   0  0  0  0  0  0  0  0  0  0  0  0
   58.4892   30.8295   46.2958 H   0  0  0  0  0  0  0  0  0  0  0  0
  1  2  2  0
  2  3  1  0
  3  4  1  0
  4  5  2  0
  5  6  1  0
  6  7  2  0
  7  8  1  0
  8  9  2  0
  9 10  1  0
 10 11  1  0
 11 12  1  0
 12 13  1  0
 13 14  1  0
 14 15  1  0
  2 16  1  0
 16 17  2  0
 17 18  1  0
 18 19  2  0
 19 20  1  0
 20 21  1  0
 21 22  1  0
 22 23  2  0
 22 24  2  0
 22 25  1  0
 25 26  2  0
 26 27  1  0
 27 28  2  0
 28 29  1  0
 20 30  2  0
  9  4  1  0
 15 10  1  0
 30 16  1  0
 29 25  1  0
  5 31  1  0
  6 32  1  0
  7 33  1  0
  8 34  1  0
 11 35  1  0
 11 36  1  0
 12 37  1  0
 12 38  1  0
 14 39  1  0
 14 40  1  0
 15 41  1  0
 15 42  1  0
 17 43  1  0
 18 44  1  0
 19 45  1  0
 21 46  1  0
 26 47  1  0
 27 48  1  0
 28 49  1  0
 30 50  1  0
M  CHG  1   3  -1
M  END
>  <UniqueID>  (65) 
58

>  <SMILES>  (65) 
O=C([N-]c1ccccc1N1CCOCC1)c1cccc(NS(=O)(=O)c2cccs2)c1

>  <Energy>  (65) 
94.51558126400131

>  <Genealogy>  (65) 
O=C([N-]c1ccccc1N1CCOCC1)c1cccc(NS(=O)(=O)c2cccs2)c1 (protonated)
O=C([N-]c1ccccc1N1CCOCC1)c1cccc(NS(=O)(=O)c2cccs2)c1 (3D coordinates assigned)
O=C([N-]c1ccccc1N1CCOCC1)c1cccc(NS(=O)(=O)c2cccs2)c1 (nonaromatic ring conformer: 94.51558126400131 kcal/mol)

>  <smiles>  (65) 
O=C(Nc1ccccc1N1CCOCC1)c1cccc(NS(=O)(=O)c2cccs2)c1

>  <score_type>  (65) 
oracle

>  <origin>  (65) 
adg

>  <m_score__min__energy>  (65) 
-11.94

>  <m_primary>  (65) 
energy

$$$$
65:0
     RDKit          3D

 32 33  0  0  0  0  0  0  0  0999 V2000
   57.6570   28.7320   45.7920 C   0  0  0  0  0  0  0  0  0  0  0  0
   57.5400   30.0080   45.0280 C   0  0  0  0  0  0  0  0  0  0  0  0
   57.7720   30.1650   43.6740 C   0  0  0  0  0  0  0  0  0  0  0  0
   57.5990   31.5160   43.4580 C   0  0  0  0  0  0  0  0  0  0  0  0
   57.7630   32.2180   42.1460 C   0  0  0  0  0  0  0  0  0  0  0  0
   57.3130   32.1130   44.6350 N   0  0  0  0  0  0  0  0  0  0  0  0
   57.0240   33.5280   44.8620 C   0  0  0  0  0  0  0  0  0  0  0  0
   57.6030   33.9740   46.2050 C   0  0  0  0  0  0  0  0  0  0  0  0
   58.8920   33.3290   46.4460 N   0  0  0  0  0  0  0  0  0  0  0  0
   60.0810   34.0760   46.7480 C   0  0  0  0  0  0  0  0  0  0  0  0
   60.0540   35.3360   46.7180 O   0  0  0  0  0  0  0  0  0  0  0  0
   61.3460   33.3980   47.0870 C   0  0  0  0  0  0  0  0  0  0  0  0
   61.5180   32.3120   47.9430 C   0  0  0  0  0  0  0  0  0  0  0  0
   62.8530   31.9070   48.0650 C   0  0  0  0  0  0  0  0  0  0  0  0
   63.7390   32.6680   47.3140 C   0  0  0  0  0  0  0  0  0  0  0  0
   62.8590   33.8460   46.4990 S   0  0  0  0  0  0  0  0  0  0  0  0
   57.2700   31.2010   45.5940 N   0  0  0  0  0  0  0  0  0  0  0  0
   57.6373   28.9473   46.8705 H   0  0  0  0  0  0  0  0  0  0  0  0
   56.8156   28.0719   45.5344 H   0  0  0  0  0  0  0  0  0  0  0  0
   58.6044   28.2359   45.5344 H   0  0  0  0  0  0  0  0  0  0  0  0
   58.0342   29.3904   42.9383 H   0  0  0  0  0  0  0  0  0  0  0  0
   58.0099   33.2750   42.3241 H   0  0  0  0  0  0  0  0  0  0  0  0
   58.5744   31.7431   41.5749 H   0  0  0  0  0  0  0  0  0  0  0  0
   56.8252   32.1517   41.5749 H   0  0  0  0  0  0  0  0  0  0  0  0
   57.4743   34.1252   44.0554 H   0  0  0  0  0  0  0  0  0  0  0  0
   55.9340   33.6754   44.8733 H   0  0  0  0  0  0  0  0  0  0  0  0
   57.7404   35.0653   46.1955 H   0  0  0  0  0  0  0  0  0  0  0  0
   56.9060   33.6866   47.0060 H   0  0  0  0  0  0  0  0  0  0  0  0
   58.9450   32.2940   46.3230 H   0  0  0  0  0  0  0  0  0  0  0  0
   60.6871   31.8212   48.4709 H   0  0  0  0  0  0  0  0  0  0  0  0
   63.1702   31.0644   48.6970 H   0  0  0  0  0  0  0  0  0  0  0  0
   64.8284   32.5248   47.2614 H   0  0  0  0  0  0  0  0  0  0  0  0
  1  2  1  0
  2  3  1  0
  3  4  2  0
  4  5  1  0
  4  6  1  0
  6  7  1  0
  7  8  1  0
  8  9  1  0
  9 10  1  0
 10 11  2  0
 10 12  1  0
 12 13  2  0
 13 14  1  0
 14 15  2  0
 15 16  1  0
  6 17  1  0
 17  2  2  0
 16 12  1  0
  1 18  1  0
  1 19  1  0
  1 20  1  0
  3 21  1  0
  5 22  1  0
  5 23  1  0
  5 24  1  0
  7 25  1  0
  7 26  1  0
  8 27  1  0
  8 28  1  0
  9 29  1  0
 13 30  1  0
 14 31  1  0
 15 32  1  0
M  END
>  <UniqueID>  (66) 
59

>  <SMILES>  (66) 
Cc1cc(C)n(CCNC(=O)c2cccs2)n1

>  <Energy>  (66) 
79.97704109336188

>  <Genealogy>  (66) 
Cc1cc(C)n(CCNC(=O)c2cccs2)n1 (3D coordinates assigned)
Cc1cc(C)n(CCNC(=O)c2cccs2)n1 (optimized conformer: 79.97704109336188 kcal/mol)

>  <smiles>  (66) 
Cc1cc(C)n(CCNC(=O)c2cccs2)n1

>  <score_type>  (66) 
oracle

>  <origin>  (66) 
adg

>  <m_score__min__energy>  (66) 
-6.2300000000000004

>  <m_primary>  (66) 
energy

$$$$
66:0
     RDKit          3D

 25 25  0  0  0  0  0  0  0  0999 V2000
   59.6920   29.0630   45.2870 C   0  0  0  0  0  0  0  0  0  0  0  0
   58.6110   29.5940   46.6510 S   0  0  0  0  0  0  0  0  0  0  0  0
   57.8140   27.9700   46.9220 C   0  0  0  0  0  0  0  0  0  0  0  0
   56.6480   27.5980   45.6180 S   0  0  0  0  0  0  0  0  0  0  0  0
   55.7570   26.4700   46.0610 O   0  0  0  0  0  0  0  0  0  0  0  0
   57.3930   27.1650   44.3880 O   0  0  0  0  0  0  0  0  0  0  0  0
   55.6780   28.9890   45.2280 N   0  0  0  0  0  0  0  0  0  0  0  0
   55.9320   29.4630   43.8640 C   0  0  0  0  0  0  0  0  0  0  0  0
   56.6690   30.7630   43.9060 C   0  0  0  0  0  0  0  0  0  0  0  0
   57.3980   31.2580   42.8280 C   0  0  0  0  0  0  0  0  0  0  0  0
   58.0990   32.7100   43.3060 S   0  0  0  0  0  0  0  0  0  0  0  0
   57.4290   32.6550   44.8460 C   0  0  0  0  0  0  0  0  0  0  0  0
   57.7030   33.6430   45.9280 C   0  0  0  0  0  0  0  0  0  0  0  0
   56.6960   31.5370   45.0270 N   0  0  0  0  0  0  0  0  0  0  0  0
   60.6076   28.6132   45.6986 H   0  0  0  0  0  0  0  0  0  0  0  0
   59.1650   28.3212   44.6689 H   0  0  0  0  0  0  0  0  0  0  0  0
   59.9569   29.9335   44.6689 H   0  0  0  0  0  0  0  0  0  0  0  0
   58.5885   27.1892   46.9446 H   0  0  0  0  0  0  0  0  0  0  0  0
   57.2700   28.0034   47.8775 H   0  0  0  0  0  0  0  0  0  0  0  0
   56.5366   28.7182   43.3257 H   0  0  0  0  0  0  0  0  0  0  0  0
   54.9723   29.6074   43.3462 H   0  0  0  0  0  0  0  0  0  0  0  0
   57.4976   30.7841   41.8403 H   0  0  0  0  0  0  0  0  0  0  0  0
   57.5692   33.1606   46.9075 H   0  0  0  0  0  0  0  0  0  0  0  0
   58.7365   34.0087   45.8375 H   0  0  0  0  0  0  0  0  0  0  0  0
   57.0055   34.4888   45.8375 H   0  0  0  0  0  0  0  0  0  0  0  0
  1  2  1  0
  2  3  1  0
  3  4  1  0
  4  5  2  0
  4  6  2  0
  4  7  1  0
  7  8  1  0
  8  9  1  0
  9 10  2  0
 10 11  1  0
 11 12  1  0
 12 13  1  0
 12 14  2  0
 14  9  1  0
  1 15  1  0
  1 16  1  0
  1 17  1  0
  3 18  1  0
  3 19  1  0
  8 20  1  0
  8 21  1  0
 10 22  1  0
 13 23  1  0
 13 24  1  0
 13 25  1  0
M  CHG  1   7  -1
M  END
>  <UniqueID>  (67) 
60

>  <SMILES>  (67) 
CSCS(=O)(=O)[N-]Cc1csc(C)n1

>  <Energy>  (67) 
41.23130691574604

>  <Genealogy>  (67) 
CSCS(=O)(=O)[N-]Cc1csc(C)n1 (protonated)
CSCS(=O)(=O)[N-]Cc1csc(C)n1 (3D coordinates assigned)
CSCS(=O)(=O)[N-]Cc1csc(C)n1 (optimized conformer: 41.23130691574604 kcal/mol)

>  <smiles>  (67) 
CSCS(=O)(=O)NCc1csc(C)n1

>  <score_type>  (67) 
oracle

>  <origin>  (67) 
adg

>  <m_score__min__energy>  (67) 
-8.0399999999999991

>  <m_primary>  (67) 
energy

$$$$
67:0
     RDKit          3D

 65 68  0  0  0  0  0  0  0  0999 V2000
   59.5340   34.9720   45.6360 C   0  0  0  0  0  0  0  0  0  0  0  0
   58.2370   34.5880   44.9300 C   0  0  0  0  0  0  0  0  0  0  0  0
   57.5160   33.6140   45.6860 O   0  0  0  0  0  0  0  0  0  0  0  0
   58.0470   32.4240   46.2170 C   0  0  0  0  0  0  0  0  0  0  0  0
   58.3630   32.2810   47.5770 C   0  0  0  0  0  0  0  0  0  0  0  0
   58.8830   31.0720   48.0750 C   0  0  0  0  0  0  0  0  0  0  0  0
   59.1940   30.9310   49.4390 C   0  0  0  0  0  0  0  0  0  0  0  0
   59.0180   31.8880   50.2440 O   0  0  0  0  0  0  0  0  0  0  0  0
   59.7070   29.7230   49.9100 C   0  0  0  0  0  0  0  0  0  0  0  0
   60.1500   29.5160   51.6430 S   0  0  0  0  0  0  0  0  0  0  0  0
   61.2190   30.9990   51.7150 C   0  0  0  0  0  0  0  0  0  0  0  0
   62.1560   31.0450   50.5370 C   0  0  0  0  0  0  0  0  0  0  0  0
   63.1090   30.2770   50.5170 O   0  0  0  0  0  0  0  0  0  0  0  0
   62.0020   32.0600   49.5080 N   0  0  0  0  0  0  0  0  0  0  0  0
   62.3400   31.5450   48.1640 C   0  0  0  0  0  0  0  0  0  0  0  0
   62.1540   32.6500   47.0960 C   0  0  0  0  0  0  0  0  0  0  0  0
   61.9490   33.9300   47.6680 O   0  0  0  0  0  0  0  0  0  0  0  0
   62.9530   34.1940   48.6270 C   0  0  0  0  0  0  0  0  0  0  0  0
   62.8240   33.2440   49.8350 C   0  0  0  0  0  0  0  0  0  0  0  0
   59.8920   28.6640   49.0240 C   0  0  0  0  0  0  0  0  0  0  0  0
   59.6070   28.7890   47.6910 N   0  0  0  0  0  0  0  0  0  0  0  0
   59.8500   27.6080   46.8350 C   0  0  0  0  0  0  0  0  0  0  0  0
   58.6010   26.7730   46.6920 C   0  0  0  0  0  0  0  0  0  0  0  0
   57.5960   27.1420   45.7790 C   0  0  0  0  0  0  0  0  0  0  0  0
   56.4490   26.3540   45.6380 C   0  0  0  0  0  0  0  0  0  0  0  0
   56.3030   25.1860   46.3930 C   0  0  0  0  0  0  0  0  0  0  0  0
   57.3040   24.8030   47.2890 C   0  0  0  0  0  0  0  0  0  0  0  0
   58.4520   25.5890   47.4360 C   0  0  0  0  0  0  0  0  0  0  0  0
   59.1010   29.9780   47.1970 C   0  0  0  0  0  0  0  0  0  0  0  0
   58.7870   30.1460   45.8290 C   0  0  0  0  0  0  0  0  0  0  0  0
   58.2680   31.3580   45.3390 C   0  0  0  0  0  0  0  0  0  0  0  0
   57.9420   31.5430   43.9830 O   0  0  0  0  0  0  0  0  0  0  0  0
   57.0520   30.7320   43.2150 C   0  0  0  0  0  0  0  0  0  0  0  0
   55.9850   30.1040   44.1060 C   0  0  0  0  0  0  0  0  0  0  0  0
   59.3856   34.9280   46.7251 H   0  0  0  0  0  0  0  0  0  0  0  0
   60.3307   34.2712   45.3460 H   0  0  0  0  0  0  0  0  0  0  0  0
   59.8208   35.9936   45.3460 H   0  0  0  0  0  0  0  0  0  0  0  0
   57.6126   35.4856   44.8100 H   0  0  0  0  0  0  0  0  0  0  0  0
   58.4844   34.1589   43.9478 H   0  0  0  0  0  0  0  0  0  0  0  0
   58.2019   33.1256   48.2630 H   0  0  0  0  0  0  0  0  0  0  0  0
   60.5868   31.8991   51.7074 H   0  0  0  0  0  0  0  0  0  0  0  0
   61.8167   30.9564   52.6375 H   0  0  0  0  0  0  0  0  0  0  0  0
   60.9970   32.3500   49.4850 H   0  0  0  0  0  0  0  0  0  0  0  0
   63.3874   31.2089   48.1582 H   0  0  0  0  0  0  0  0  0  0  0  0
   61.6703   30.7052   47.9266 H   0  0  0  0  0  0  0  0  0  0  0  0
   63.0545   32.6858   46.4653 H   0  0  0  0  0  0  0  0  0  0  0  0
   61.2581   32.3994   46.5091 H   0  0  0  0  0  0  0  0  0  0  0  0
   63.9403   34.0540   48.1626 H   0  0  0  0  0  0  0  0  0  0  0  0
   62.8378   35.2293   48.9804 H   0  0  0  0  0  0  0  0  0  0  0  0
   63.8280   32.9100   50.1358 H   0  0  0  0  0  0  0  0  0  0  0  0
   62.3316   33.7906   50.6528 H   0  0  0  0  0  0  0  0  0  0  0  0
   60.2757   27.7058   49.4042 H   0  0  0  0  0  0  0  0  0  0  0  0
   60.1716   27.9465   45.8390 H   0  0  0  0  0  0  0  0  0  0  0  0
   60.6302   26.9911   47.3049 H   0  0  0  0  0  0  0  0  0  0  0  0
   57.7127   28.0533   45.1741 H   0  0  0  0  0  0  0  0  0  0  0  0
   55.6604   26.6536   44.9320 H   0  0  0  0  0  0  0  0  0  0  0  0
   55.3995   24.5685   46.2813 H   0  0  0  0  0  0  0  0  0  0  0  0
   57.1894   23.8822   47.8797 H   0  0  0  0  0  0  0  0  0  0  0  0
   59.2415   25.2795   48.1366 H   0  0  0  0  0  0  0  0  0  0  0  0
   58.9521   29.3107   45.1325 H   0  0  0  0  0  0  0  0  0  0  0  0
   56.5632   31.3559   42.4522 H   0  0  0  0  0  0  0  0  0  0  0  0
   57.6312   29.9274   42.7384 H   0  0  0  0  0  0  0  0  0  0  0  0
   56.2506   30.2603   45.1619 H   0  0  0  0  0  0  0  0  0  0  0  0
   55.0119   30.5734   43.8993 H   0  0  0  0  0  0  0  0  0  0  0  0
   55.9230   29.0254   43.8993 H   0  0  0  0  0  0  0  0  0  0  0  0
  1  2  1  0
  2  3  1  0
  3  4  1  0
  4  5  2  0
  5  6  1  0
  6  7  1  0
  7  8  2  0
  7  9  1  0
  9 10  1  0
 10 11  1  0
 11 12  1  0
 12 13  2  0
 12 14  1  0
 14 15  1  0
 15 16  1  0
 16 17  1  0
 17 18  1  0
 18 19  1  0
  9 20  2  0
 20 21  1  0
 21 22  1  0
 22 23  1  0
 23 24  2  0
 24 25  1  0
 25 26  2  0
 26 27  1  0
 27 28  2  0
 21 29  1  0
 29 30  1  0
 30 31  2  0
 31 32  1  0
 32 33  1  0
 33 34  1  0
 31  4  1  0
 29  6  2  0
 19 14  1  0
 28 23  1  0
  1 35  1  0
  1 36  1  0
  1 37  1  0
  2 38  1  0
  2 39  1  0
  5 40  1  0
 11 41  1  0
 11 42  1  0
 14 43  1  0
 15 44  1  0
 15 45  1  0
 16 46  1  0
 16 47  1  0
 18 48  1  0
 18 49  1  0
 19 50  1  0
 19 51  1  0
 20 52  1  0
 22 53  1  0
 22 54  1  0
 24 55  1  0
 25 56  1  0
 26 57  1  0
 27 58  1  0
 28 59  1  0
 30 60  1  0
 33 61  1  0
 33 62  1  0
 34 63  1  0
 34 64  1  0
 34 65  1  0
M  CHG  1  14   1
M  END
>  <UniqueID>  (68) 
61

>  <SMILES>  (68) 
CCOc1cc2c(=O)c(SCC(=O)[NH+]3CCOCC3)cn(Cc3ccccc3)c2cc1OCC

>  <Energy>  (68) 
80.55147736607447

>  <Genealogy>  (68) 
CCOc1cc2c(=O)c(SCC(=O)[NH+]3CCOCC3)cn(Cc3ccccc3)c2cc1OCC (protonated)
CCOc1cc2c(=O)c(SCC(=O)[NH+]3CCOCC3)cn(Cc3ccccc3)c2cc1OCC (3D coordinates assigned)
CCOc1cc2c(=O)c(SCC(=O)[NH+]3CCOCC3)cn(Cc3ccccc3)c2cc1OCC (nonaromatic ring conformer: 80.55147736607447 kcal/mol)

>  <smiles>  (68) 
CCOc1cc2c(=O)c(SCC(=O)N3CCOCC3)cn(Cc3ccccc3)c2cc1OCC

>  <score_type>  (68) 
oracle

>  <origin>  (68) 
adg

>  <m_score__min__energy>  (68) 
-7.0599999999999996

>  <m_primary>  (68) 
energy

$$$$
68:0
     RDKit          3D

 43 45  0  0  0  0  0  0  0  0999 V2000
   63.4770   33.5450   49.9810 C   0  0  0  0  0  0  0  0  0  0  0  0
   64.3460   32.5550   49.2230 C   0  0  0  0  0  0  0  0  0  0  0  0
   63.6510   32.0980   48.0680 O   0  0  0  0  0  0  0  0  0  0  0  0
   62.4550   32.6740   47.6290 C   0  0  0  0  0  0  0  0  0  0  0  0
   62.4140   33.7560   46.9240 N   0  0  0  0  0  0  0  0  0  0  0  0
   61.0380   33.9920   46.6670 C   0  0  0  0  0  0  0  0  0  0  0  0
   60.6280   34.9750   45.9950 O   0  0  0  0  0  0  0  0  0  0  0  0
   60.1570   32.9350   47.2710 C   0  0  2  0  0  0  0  0  0  0  0  0
   59.4660   32.2020   46.1880 N   0  0  0  0  0  0  0  0  0  0  0  0
   58.3770   32.7000   45.3840 C   0  0  0  0  0  0  0  0  0  0  0  0
   58.0120   33.9020   45.4770 O   0  0  0  0  0  0  0  0  0  0  0  0
   57.6640   31.8010   44.4480 C   0  0  0  0  0  0  0  0  0  0  0  0
   57.6990   32.0260   43.0600 C   0  0  0  0  0  0  0  0  0  0  0  0
   57.0110   31.1620   42.2050 C   0  0  0  0  0  0  0  0  0  0  0  0
   56.2960   30.0860   42.7310 C   0  0  0  0  0  0  0  0  0  0  0  0
   56.2810   29.8890   44.1130 C   0  0  0  0  0  0  0  0  0  0  0  0
   56.9560   30.7410   44.9300 N   0  0  0  0  0  0  0  0  0  0  0  0
   59.1850   33.5910   48.2850 C   0  0  0  0  0  0  0  0  0  0  0  0
   57.9860   32.9000   48.2990 F   0  0  0  0  0  0  0  0  0  0  0  0
   59.7020   33.5980   49.5640 F   0  0  0  0  0  0  0  0  0  0  0  0
   58.9340   34.9050   47.9260 F   0  0  0  0  0  0  0  0  0  0  0  0
   61.1780   32.1060   47.9240 N   0  0  0  0  0  0  0  0  0  0  0  0
   61.0190   30.7720   48.4190 C   0  0  0  0  0  0  0  0  0  0  0  0
   60.5350   29.7610   47.5780 C   0  0  0  0  0  0  0  0  0  0  0  0
   60.3700   28.4610   48.0680 C   0  0  0  0  0  0  0  0  0  0  0  0
   60.6750   28.1710   49.4010 C   0  0  0  0  0  0  0  0  0  0  0  0
   61.1380   29.1820   50.2490 C   0  0  0  0  0  0  0  0  0  0  0  0
   61.3020   30.4820   49.7630 C   0  0  0  0  0  0  0  0  0  0  0  0
   63.6086   33.3951   51.0628 H   0  0  0  0  0  0  0  0  0  0  0  0
   63.7717   34.5707   49.7144 H   0  0  0  0  0  0  0  0  0  0  0  0
   62.4217   33.3857   49.7144 H   0  0  0  0  0  0  0  0  0  0  0  0
   65.2808   33.0475   48.9170 H   0  0  0  0  0  0  0  0  0  0  0  0
   64.5774   31.6986   49.8734 H   0  0  0  0  0  0  0  0  0  0  0  0
   59.7650   31.2160   46.0100 H   0  0  0  0  0  0  0  0  0  0  0  0
   58.2642   32.8764   42.6508 H   0  0  0  0  0  0  0  0  0  0  0  0
   57.0330   31.3299   41.1181 H   0  0  0  0  0  0  0  0  0  0  0  0
   55.7507   29.4011   42.0650 H   0  0  0  0  0  0  0  0  0  0  0  0
   55.7226   29.0437   44.5415 H   0  0  0  0  0  0  0  0  0  0  0  0
   60.2846   29.9897   46.5316 H   0  0  0  0  0  0  0  0  0  0  0  0
   59.9999   27.6663   47.4036 H   0  0  0  0  0  0  0  0  0  0  0  0
   60.5507   27.1470   49.7831 H   0  0  0  0  0  0  0  0  0  0  0  0
   61.3732   28.9539   51.2991 H   0  0  0  0  0  0  0  0  0  0  0  0
   61.6534   31.2792   50.4346 H   0  0  0  0  0  0  0  0  0  0  0  0
  1  2  1  0
  2  3  1  0
  3  4  1  0
  4  5  2  0
  5  6  1  0
  6  7  2  0
  6  8  1  0
  8  9  1  6
  9 10  1  0
 10 11  2  0
 10 12  1  0
 12 13  2  0
 13 14  1  0
 14 15  2  0
 15 16  1  0
 16 17  2  0
  8 18  1  0
 18 19  1  0
 18 20  1  0
 18 21  1  0
  8 22  1  0
 22 23  1  0
 23 24  2  0
 24 25  1  0
 25 26  2  0
 26 27  1  0
 27 28  2  0
 22  4  1  0
 28 23  1  0
 17 12  1  0
  1 29  1  0
  1 30  1  0
  1 31  1  0
  2 32  1  0
  2 33  1  0
  9 34  1  0
 13 35  1  0
 14 36  1  0
 15 37  1  0
 16 38  1  0
 24 39  1  0
 25 40  1  0
 26 41  1  0
 27 42  1  0
 28 43  1  0
M  END
>  <UniqueID>  (69) 
62

>  <SMILES>  (69) 
CCOC1=NC(=O)[C@](NC(=O)c2ccccn2)(C(F)(F)F)N1c1ccccc1

>  <Energy>  (69) 
68.9116639618746

>  <Genealogy>  (69) 
CCOC1=NC(=O)[C@](NC(=O)c2ccccn2)(C(F)(F)F)N1c1ccccc1 (chirality)
CCOC1=NC(=O)[C@](NC(=O)c2ccccn2)(C(F)(F)F)N1c1ccccc1 (3D coordinates assigned)
CCOC1=NC(=O)[C@](NC(=O)c2ccccn2)(C(F)(F)F)N1c1ccccc1 (nonaromatic ring conformer: 68.9116639618746 kcal/mol)

>  <smiles>  (69) 
CCOC1=NC(=O)C(NC(=O)c2ccccn2)(C(F)(F)F)N1c1ccccc1

>  <score_type>  (69) 
oracle

>  <origin>  (69) 
adg

>  <m_score__min__energy>  (69) 
-6.7199999999999998

>  <m_primary>  (69) 
energy

$$$$
69:0
     RDKit          3D

 37 40  0  0  0  0  0  0  0  0999 V2000
   57.4090   32.7990   47.2790 O   0  0  0  0  0  0  0  0  0  0  0  0
   57.3260   32.9110   46.0260 C   0  0  0  0  0  0  0  0  0  0  0  0
   57.6930   34.2060   45.3750 C   0  0  0  0  0  0  0  0  0  0  0  0
   59.3080   34.0870   44.5330 S   0  0  0  0  0  0  0  0  0  0  0  0
   60.2550   33.9440   46.0490 C   0  0  0  0  0  0  0  0  0  0  0  0
   61.5570   33.5270   45.9950 N   0  0  0  0  0  0  0  0  0  0  0  0
   62.2400   33.4520   47.1610 C   0  0  0  0  0  0  0  0  0  0  0  0
   63.5320   33.0940   47.3200 N   0  0  0  0  0  0  0  0  0  0  0  0
   63.7420   33.2060   48.6560 C   0  0  0  0  0  0  0  0  0  0  0  0
   64.9270   32.9590   49.3470 C   0  0  0  0  0  0  0  0  0  0  0  0
   64.9330   33.1520   50.7410 C   0  0  0  0  0  0  0  0  0  0  0  0
   63.7650   33.5830   51.4130 C   0  0  0  0  0  0  0  0  0  0  0  0
   63.7990   33.8380   53.3060 Br  0  0  0  0  0  0  0  0  0  0  0  0
   62.5760   33.8260   50.6980 C   0  0  0  0  0  0  0  0  0  0  0  0
   62.6040   33.6260   49.3200 C   0  0  0  0  0  0  0  0  0  0  0  0
   61.6540   33.7780   48.3450 C   0  0  0  0  0  0  0  0  0  0  0  0
   60.3690   34.1850   48.4010 N   0  0  0  0  0  0  0  0  0  0  0  0
   59.6770   34.2610   47.2560 N   0  0  0  0  0  0  0  0  0  0  0  0
   56.8240   31.8330   45.2280 N   0  0  0  0  0  0  0  0  0  0  0  0
   57.4600   30.5630   45.0230 C   0  0  0  0  0  0  0  0  0  0  0  0
   58.8590   30.5030   45.0650 C   0  0  0  0  0  0  0  0  0  0  0  0
   59.5240   29.2870   44.8860 C   0  0  0  0  0  0  0  0  0  0  0  0
   58.7930   28.1160   44.6790 C   0  0  0  0  0  0  0  0  0  0  0  0
   57.3970   28.1580   44.6620 C   0  0  0  0  0  0  0  0  0  0  0  0
   56.7250   29.3720   44.8410 C   0  0  0  0  0  0  0  0  0  0  0  0
   55.3710   29.3670   44.8880 F   0  0  0  0  0  0  0  0  0  0  0  0
   56.9214   34.4674   44.6359 H   0  0  0  0  0  0  0  0  0  0  0  0
   57.7623   34.9800   46.1536 H   0  0  0  0  0  0  0  0  0  0  0  0
   64.2130   32.8070   46.5820 H   0  0  0  0  0  0  0  0  0  0  0  0
   65.8311   32.6230   48.8182 H   0  0  0  0  0  0  0  0  0  0  0  0
   65.8539   32.9661   51.3131 H   0  0  0  0  0  0  0  0  0  0  0  0
   61.6608   34.1608   51.2082 H   0  0  0  0  0  0  0  0  0  0  0  0
   58.6800   34.5700   47.2870 H   0  0  0  0  0  0  0  0  0  0  0  0
   59.4391   31.4210   45.2404 H   0  0  0  0  0  0  0  0  0  0  0  0
   60.6232   29.2526   44.9082 H   0  0  0  0  0  0  0  0  0  0  0  0
   59.3164   27.1601   44.5293 H   0  0  0  0  0  0  0  0  0  0  0  0
   56.8233   27.2323   44.5072 H   0  0  0  0  0  0  0  0  0  0  0  0
  1  2  2  0
  2  3  1  0
  3  4  1  0
  4  5  1  0
  5  6  2  0
  6  7  1  0
  7  8  1  0
  8  9  1  0
  9 10  2  0
 10 11  1  0
 11 12  2  0
 12 13  1  0
 12 14  1  0
 14 15  2  0
 15 16  1  0
 16 17  1  0
 17 18  2  0
  2 19  1  0
 19 20  1  0
 20 21  2  0
 21 22  1  0
 22 23  2  0
 23 24  1  0
 24 25  2  0
 25 26  1  0
 18  5  1  0
 25 20  1  0
 16  7  2  0
 15  9  1  0
  3 27  1  0
  3 28  1  0
  8 29  1  0
 10 30  1  0
 11 31  1  0
 14 32  1  0
 18 33  1  0
 21 34  1  0
 22 35  1  0
 23 36  1  0
 24 37  1  0
M  CHG  2  18   1  19  -1
M  END
>  <UniqueID>  (70) 
63

>  <SMILES>  (70) 
O=C(CSc1nc2[nH]c3ccc(Br)cc3c2n[nH+]1)[N-]c1ccccc1F

>  <Energy>  (70) 
87.43069061707803

>  <Genealogy>  (70) 
O=C(CSc1nc2[nH]c3ccc(Br)cc3c2n[nH+]1)[N-]c1ccccc1F (protonated)
O=C(CSc1nc2[nH]c3ccc(Br)cc3c2n[nH+]1)[N-]c1ccccc1F (3D coordinates assigned)
O=C(CSc1nc2[nH]c3ccc(Br)cc3c2n[nH+]1)[N-]c1ccccc1F (optimized conformer: 87.43069061707803 kcal/mol)

>  <smiles>  (70) 
O=C(CSc1nnc2c(n1)[nH]c1ccc(Br)cc12)Nc1ccccc1F

>  <score_type>  (70) 
oracle

>  <origin>  (70) 
adg

>  <m_score__min__energy>  (70) 
-9.5399999999999991

>  <m_primary>  (70) 
energy

$$$$
70:0
     RDKit          3D

 33 34  0  0  0  0  0  0  0  0999 V2000
   58.0779   34.4488   47.0208 H   0  0  0  0  0  0  0  0  0  0  0  0
   58.0760   33.6700   46.2440 C   0  0  0  0  0  0  0  0  0  0  0  0
   57.9580   33.8630   44.8790 C   0  0  0  0  0  0  0  0  0  0  0  0
   57.8478   34.8248   44.3567 H   0  0  0  0  0  0  0  0  0  0  0  0
   58.0060   32.6070   44.3010 C   0  0  0  0  0  0  0  0  0  0  0  0
   58.1150   32.3440   42.8320 C   0  0  0  0  0  0  0  0  0  0  0  0
   58.5315   31.3390   42.6694 H   0  0  0  0  0  0  0  0  0  0  0  0
   57.1171   32.4060   42.3734 H   0  0  0  0  0  0  0  0  0  0  0  0
   58.7765   33.0937   42.3734 H   0  0  0  0  0  0  0  0  0  0  0  0
   58.1110   31.6620   45.2590 N   0  0  0  0  0  0  0  0  0  0  0  0
   58.5180   30.3360   45.0420 N   0  0  0  0  0  0  0  0  0  0  0  0
   57.8510   29.2680   45.3800 C   0  0  0  0  0  0  0  0  0  0  0  0
   58.3800   28.2840   46.1850 C   0  0  0  0  0  0  0  0  0  0  0  0
   59.3815   28.2446   46.6382 H   0  0  0  0  0  0  0  0  0  0  0  0
   57.3620   27.3590   46.2910 C   0  0  0  0  0  0  0  0  0  0  0  0
   57.3920   26.1220   47.1230 C   0  0  0  0  0  0  0  0  0  0  0  0
   57.3853   26.3963   48.1882 H   0  0  0  0  0  0  0  0  0  0  0  0
   56.5085   25.5068   46.8973 H   0  0  0  0  0  0  0  0  0  0  0  0
   58.3043   25.5503   46.8973 H   0  0  0  0  0  0  0  0  0  0  0  0
   56.2760   27.7850   45.6180 N   0  0  0  0  0  0  0  0  0  0  0  0
   56.5720   28.9430   45.0430 N   0  0  0  0  0  0  0  0  0  0  0  0
   55.5410   29.7270   44.3580 C   0  0  0  0  0  0  0  0  0  0  0  0
   55.3887   30.6736   44.8972 H   0  0  0  0  0  0  0  0  0  0  0  0
   54.6074   29.1456   44.3390 H   0  0  0  0  0  0  0  0  0  0  0  0
   55.9610   30.0290   42.9250 C   0  0  0  0  0  0  0  0  0  0  0  0
   56.8541   30.6712   42.9323 H   0  0  0  0  0  0  0  0  0  0  0  0
   56.1904   29.0877   42.4040 H   0  0  0  0  0  0  0  0  0  0  0  0
   55.1418   30.5461   42.4040 H   0  0  0  0  0  0  0  0  0  0  0  0
   58.1910   32.3060   46.4400 C   0  0  0  0  0  0  0  0  0  0  0  0
   58.5590   31.6600   47.7390 C   0  0  0  0  0  0  0  0  0  0  0  0
   58.2036   32.2838   48.5724 H   0  0  0  0  0  0  0  0  0  0  0  0
   58.0915   30.6661   47.7997 H   0  0  0  0  0  0  0  0  0  0  0  0
   59.6523   31.5553   47.7997 H   0  0  0  0  0  0  0  0  0  0  0  0
  1  2  1  0
  2  3  1  0
  3  4  1  0
  3  5  2  0
  5  6  1  0
  6  7  1  0
  6  8  1  0
  6  9  1  0
  5 10  1  0
 10 11  1  0
 11 12  2  0
 12 13  1  0
 13 14  1  0
 13 15  2  0
 15 16  1  0
 16 17  1  0
 16 18  1  0
 16 19  1  0
 15 20  1  0
 20 21  1  0
 21 22  1  0
 22 23  1  0
 22 24  1  0
 22 25  1  0
 25 26  1  0
 25 27  1  0
 25 28  1  0
 10 29  1  0
 29 30  1  0
 30 31  1  0
 30 32  1  0
 30 33  1  0
 29  2  2  0
 21 12  1  0
M  CHG  1  20  -1
M  END
>  <UniqueID>  (71) 
64

>  <SMILES>  (71) 
CCn1[n-]c(C)c/c1=N/n1c(C)ccc1C

>  <Energy>  (71) 
95.92652530649671

>  <Genealogy>  (71) 
CCn1[n-]c(C)cc1=Nn1c(C)ccc1C (protonated)
CCn1[n-]c(C)c/c1=N/n1c(C)ccc1C (cis-trans isomerization)
CCn1[n-]c(C)c/c1=N/n1c(C)ccc1C (3D coordinates assigned)
CCn1[n-]c(C)c/c1=N/n1c(C)ccc1C (optimized conformer: 95.92652530649671 kcal/mol)

>  <smiles>  (71) 
CCn1[nH]c(C)cc1=Nn1c(C)ccc1C

>  <score_type>  (71) 
oracle

>  <origin>  (71) 
adg

>  <m_score__min__energy>  (71) 
-7.5700000000000003

>  <m_primary>  (71) 
energy

$$$$
71:0
     RDKit          3D

 56 60  0  0  1  0  0  0  0  0999 V2000
   58.1870   24.5450   45.6190 C   0  0  0  0  0  0  0  0  0  0  0  0
   58.1320   26.0230   45.8800 C   0  0  0  0  0  0  0  0  0  0  0  0
   58.7400   26.5270   47.0100 C   0  0  0  0  0  0  0  0  0  0  0  0
   58.6710   27.8840   47.2180 C   0  0  0  0  0  0  0  0  0  0  0  0
   59.1710   28.4980   48.2240 N   0  0  0  0  0  0  0  0  0  0  0  0
   60.1520   29.4940   48.0110 C   0  0  0  0  0  0  0  0  0  0  0  0
   60.7020   29.8310   46.8130 C   0  0  0  0  0  0  0  0  0  0  0  0
   61.6580   30.8500   46.7420 C   0  0  0  0  0  0  0  0  0  0  0  0
   62.0730   31.5440   47.8550 C   0  0  0  0  0  0  0  0  0  0  0  0
   63.0360   32.6110   47.8640 C   0  0  0  0  0  0  0  0  0  0  0  0
   63.8500   32.6770   46.8850 O   0  0  0  0  0  0  0  0  0  0  0  0
   63.1680   33.6050   48.8640 N   0  0  0  0  0  0  0  0  0  0  0  0
   64.1470   33.4020   49.7130 C   0  0  0  0  0  0  0  0  0  0  0  0
   63.9780   33.6590   51.0600 C   0  0  0  0  0  0  0  0  0  0  0  0
   65.0130   33.4400   51.9550 C   0  0  0  0  0  0  0  0  0  0  0  0
   66.2240   32.9570   51.4810 C   0  0  0  0  0  0  0  0  0  0  0  0
   67.2810   32.7210   52.2910 F   0  0  0  0  0  0  0  0  0  0  0  0
   66.3740   32.7060   50.1280 C   0  0  0  0  0  0  0  0  0  0  0  0
   65.3480   32.9340   49.3110 N   0  0  0  0  0  0  0  0  0  0  0  0
   61.5080   31.1970   49.0860 C   0  0  0  0  0  0  0  0  0  0  0  0
   60.5690   30.1930   49.1510 C   0  0  0  0  0  0  0  0  0  0  0  0
   58.0160   28.6510   46.3100 N   0  0  0  0  0  0  0  0  0  0  0  0
   57.7910   29.9700   46.2570 N   0  0  0  0  0  0  0  0  0  0  0  0
   57.0680   30.2470   45.1300 C   0  0  0  0  0  0  0  0  0  0  0  0
   56.7070   31.4090   44.8220 N   0  0  0  0  0  0  0  0  0  0  0  0
   57.6120   32.7990   44.8480 S   0  0  0  0  0  0  0  0  0  0  0  0
   58.5700   32.8030   43.6550 O   0  0  0  0  0  0  0  0  0  0  0  0
   56.6580   33.9710   44.5220 O   0  0  0  0  0  0  0  0  0  0  0  0
   58.4770   33.2590   46.2510 C   0  0  0  0  0  0  0  0  0  0  0  0
   58.1590   32.8030   47.5160 C   0  0  0  0  0  0  0  0  0  0  0  0
   58.9000   33.2260   48.5980 C   0  0  0  0  0  0  0  0  0  0  0  0
   59.9730   34.1080   48.4700 C   0  0  0  0  0  0  0  0  0  0  0  0
   60.2890   34.5610   47.2100 C   0  0  0  0  0  0  0  0  0  0  0  0
   59.5540   34.1470   46.0980 C   0  0  0  0  0  0  0  0  0  0  0  0
   56.8450   29.1050   44.4810 N   0  0  0  0  0  0  0  0  0  0  0  0
   57.4290   28.1440   45.2140 C   0  0  0  0  0  0  0  0  0  0  0  0
   57.4820   26.8200   44.9890 N   0  0  0  0  0  0  0  0  0  0  0  0
   58.2071   24.0041   46.5766 H   0  0  0  0  0  0  0  0  0  0  0  0
   57.2996   24.2408   45.0446 H   0  0  0  0  0  0  0  0  0  0  0  0
   59.0946   24.3076   45.0446 H   0  0  0  0  0  0  0  0  0  0  0  0
   59.2613   25.8673   47.7193 H   0  0  0  0  0  0  0  0  0  0  0  0
   60.3946   29.3016   45.8991 H   0  0  0  0  0  0  0  0  0  0  0  0
   62.0922   31.1047   45.7639 H   0  0  0  0  0  0  0  0  0  0  0  0
   63.0132   34.0409   51.4252 H   0  0  0  0  0  0  0  0  0  0  0  0
   64.8762   33.6463   53.0268 H   0  0  0  0  0  0  0  0  0  0  0  0
   67.3271   32.3237   49.7337 H   0  0  0  0  0  0  0  0  0  0  0  0
   65.4870   32.7320   48.2780 H   0  0  0  0  0  0  0  0  0  0  0  0
   61.8135   31.7256   50.0010 H   0  0  0  0  0  0  0  0  0  0  0  0
   60.1332   29.9318   50.1266 H   0  0  0  0  0  0  0  0  0  0  0  0
   58.1240   30.6650   46.9750 H   0  0  0  0  0  0  0  0  0  0  0  0
   57.3195   32.1066   47.6584 H   0  0  0  0  0  0  0  0  0  0  0  0
   58.6357   32.8546   49.5991 H   0  0  0  0  0  0  0  0  0  0  0  0
   60.5489   34.4315   49.3496 H   0  0  0  0  0  0  0  0  0  0  0  0
   61.1303   35.2572   47.0774 H   0  0  0  0  0  0  0  0  0  0  0  0
   59.8196   34.5181   45.0971 H   0  0  0  0  0  0  0  0  0  0  0  0
   56.3360   29.0100   43.6130 H   0  0  0  0  0  0  0  0  0  0  0  0
  1  2  1  0
  2  3  2  0
  3  4  1  0
  4  5  2  0
  5  6  1  0
  6  7  2  0
  7  8  1  0
  8  9  2  0
  9 10  1  0
 10 11  2  0
 10 12  1  0
 12 13  2  0
 13 14  1  0
 14 15  2  0
 15 16  1  0
 16 17  1  0
 16 18  2  0
 18 19  1  0
  9 20  1  0
 20 21  2  0
  4 22  1  0
 22 23  1  0
 23 24  1  0
 24 25  2  0
 25 26  1  0
 26 27  2  0
 26 28  2  0
 26 29  1  0
 29 30  2  0
 30 31  1  0
 31 32  2  0
 32 33  1  0
 33 34  2  0
 24 35  1  0
 35 36  1  0
 36 37  2  0
 37  2  1  0
 21  6  1  0
 36 22  1  0
 19 13  1  0
 34 29  1  0
  1 38  1  0
  1 39  1  0
  1 40  1  0
  3 41  1  0
  7 42  1  0
  8 43  1  0
 14 44  1  0
 15 45  1  0
 18 46  1  0
 19 47  1  0
 20 48  1  0
 21 49  1  0
 23 50  1  0
 30 51  1  0
 31 52  1  0
 32 53  1  0
 33 54  1  0
 34 55  1  0
 35 56  1  0
M  END
>  <smiles>  (72) 
Cc1cc(=Nc2ccc(C(=O)N=c3ccc(F)c[nH]3)cc2)n2[nH]c(=NS(=O)(=O)c3ccccc3)[nH]c2n1

>  <score_type>  (72) 
oracle

>  <origin>  (72) 
adg

>  <m_score__min__energy>  (72) 
-10.699999999999999

>  <m_primary>  (72) 
energy

$$$$
72:0
     RDKit          3D

 68 70  0  0  0  0  0  0  0  0999 V2000
   58.1680   29.7830   51.5610 C   0  0  0  0  0  0  0  0  0  0  0  0
   58.5010   31.0230   50.7220 C   0  0  0  0  0  0  0  0  0  0  0  0
   57.9610   32.2990   51.3830 C   0  0  0  0  0  0  0  0  0  0  0  0
   60.0000   31.1380   50.4690 C   0  0  0  0  0  0  0  0  0  0  0  0
   60.9050   30.6650   51.4370 C   0  0  0  0  0  0  0  0  0  0  0  0
   62.2790   30.7950   51.2500 C   0  0  0  0  0  0  0  0  0  0  0  0
   62.7770   31.3930   50.0970 C   0  0  0  0  0  0  0  0  0  0  0  0
   61.9070   31.8680   49.0980 C   0  0  0  0  0  0  0  0  0  0  0  0
   62.4800   32.5470   47.8590 C   0  0  0  0  0  0  0  0  0  0  0  0
   63.4410   31.6220   47.1000 C   0  0  0  0  0  0  0  0  0  0  0  0
   63.1630   33.8680   48.2330 C   0  0  0  0  0  0  0  0  0  0  0  0
   60.5070   31.7510   49.2960 C   0  0  0  0  0  0  0  0  0  0  0  0
   59.6030   32.3030   48.3330 N   0  0  0  0  0  0  0  0  0  0  0  0
   59.2290   33.6800   48.3850 C   0  0  0  0  0  0  0  0  0  0  0  0
   59.7750   34.4410   49.2270 O   0  0  0  0  0  0  0  0  0  0  0  0
   58.2570   34.1630   47.5040 O   0  0  0  0  0  0  0  0  0  0  0  0
   58.5320   34.6290   46.1830 C   0  0  1  0  0  0  0  0  0  0  0  0
   60.0180   34.9650   46.0340 C   0  0  0  0  0  0  0  0  0  0  0  0
   58.1450   33.5600   45.1900 C   0  0  0  0  0  0  0  0  0  0  0  0
   58.8360   33.4310   43.9720 C   0  0  0  0  0  0  0  0  0  0  0  0
   58.4400   32.4780   43.0310 C   0  0  0  0  0  0  0  0  0  0  0  0
   57.3310   31.6480   43.2840 C   0  0  0  0  0  0  0  0  0  0  0  0
   56.8600   30.7120   42.3480 O   0  0  0  0  0  0  0  0  0  0  0  0
   56.4320   29.3830   42.6540 C   0  0  0  0  0  0  0  0  0  0  0  0
   57.0250   28.8990   43.9470 C   0  0  0  0  0  0  0  0  0  0  0  0
   56.2540   28.5660   44.8870 O   0  0  0  0  0  0  0  0  0  0  0  0
   58.4510   28.8210   44.1130 N   0  0  0  0  0  0  0  0  0  0  0  0
   59.0690   28.5750   45.3840 C   0  0  0  0  0  0  0  0  0  0  0  0
   59.7750   29.5960   46.0420 C   0  0  0  0  0  0  0  0  0  0  0  0
   60.3570   29.3620   47.2890 C   0  0  0  0  0  0  0  0  0  0  0  0
   60.2380   28.1090   47.8940 C   0  0  0  0  0  0  0  0  0  0  0  0
   59.5320   27.0880   47.2520 C   0  0  0  0  0  0  0  0  0  0  0  0
   58.9420   27.3150   46.0030 C   0  0  0  0  0  0  0  0  0  0  0  0
   58.0930   25.9920   45.2110 Cl  0  0  0  0  0  0  0  0  0  0  0  0
   56.6520   31.7680   44.5020 C   0  0  0  0  0  0  0  0  0  0  0  0
   55.5800   30.9770   44.7620 F   0  0  0  0  0  0  0  0  0  0  0  0
   57.0480   32.7210   45.4450 C   0  0  0  0  0  0  0  0  0  0  0  0
   58.2355   30.0345   52.6297 H   0  0  0  0  0  0  0  0  0  0  0  0
   57.1474   29.4456   51.3275 H   0  0  0  0  0  0  0  0  0  0  0  0
   58.8822   28.9797   51.3275 H   0  0  0  0  0  0  0  0  0  0  0  0
   58.0037   30.9052   49.7479 H   0  0  0  0  0  0  0  0  0  0  0  0
   58.0061   32.1925   52.4769 H   0  0  0  0  0  0  0  0  0  0  0  0
   58.5721   33.1594   51.0729 H   0  0  0  0  0  0  0  0  0  0  0  0
   56.9179   32.4593   51.0729 H   0  0  0  0  0  0  0  0  0  0  0  0
   60.5232   30.1874   52.3514 H   0  0  0  0  0  0  0  0  0  0  0  0
   62.9736   30.4231   52.0176 H   0  0  0  0  0  0  0  0  0  0  0  0
   63.8641   31.4959   49.9645 H   0  0  0  0  0  0  0  0  0  0  0  0
   61.6423   32.7717   47.1824 H   0  0  0  0  0  0  0  0  0  0  0  0
   64.0401   31.0453   47.8200 H   0  0  0  0  0  0  0  0  0  0  0  0
   62.8630   30.9318   46.4680 H   0  0  0  0  0  0  0  0  0  0  0  0
   64.1087   32.2259   46.4680 H   0  0  0  0  0  0  0  0  0  0  0  0
   63.2101   33.9592   49.3282 H   0  0  0  0  0  0  0  0  0  0  0  0
   64.1822   33.8837   47.8195 H   0  0  0  0  0  0  0  0  0  0  0  0
   62.5866   34.7087   47.8195 H   0  0  0  0  0  0  0  0  0  0  0  0
   57.9480   35.5415   45.9925 H   0  0  0  0  0  0  0  0  0  0  0  0
   60.4724   35.0677   47.0305 H   0  0  0  0  0  0  0  0  0  0  0  0
   60.5228   34.1583   45.4822 H   0  0  0  0  0  0  0  0  0  0  0  0
   60.1266   35.9104   45.4822 H   0  0  0  0  0  0  0  0  0  0  0  0
   59.6943   34.0852   43.7590 H   0  0  0  0  0  0  0  0  0  0  0  0
   58.9969   32.3753   42.0880 H   0  0  0  0  0  0  0  0  0  0  0  0
   55.3352   29.3706   42.7367 H   0  0  0  0  0  0  0  0  0  0  0  0
   56.7707   28.7163   41.8473 H   0  0  0  0  0  0  0  0  0  0  0  0
   59.0650   29.1120   43.3200 H   0  0  0  0  0  0  0  0  0  0  0  0
   59.8697   30.5858   45.5716 H   0  0  0  0  0  0  0  0  0  0  0  0
   60.9104   30.1661   47.7961 H   0  0  0  0  0  0  0  0  0  0  0  0
   60.6998   27.9258   48.8754 H   0  0  0  0  0  0  0  0  0  0  0  0
   59.4395   26.1017   47.7302 H   0  0  0  0  0  0  0  0  0  0  0  0
   56.4970   32.8143   46.3925 H   0  0  0  0  0  0  0  0  0  0  0  0
  1  2  1  0
  2  3  1  0
  2  4  1  0
  4  5  2  0
  5  6  1  0
  6  7  2  0
  7  8  1  0
  8  9  1  0
  9 10  1  0
  9 11  1  0
  8 12  2  0
 12 13  1  0
 13 14  1  0
 14 15  2  0
 14 16  1  0
 16 17  1  0
 17 18  1  0
 17 19  1  0
 19 20  2  0
 20 21  1  0
 21 22  2  0
 22 23  1  0
 23 24  1  0
 24 25  1  0
 25 26  2  0
 25 27  1  0
 27 28  1  0
 28 29  2  0
 29 30  1  0
 30 31  2  0
 31 32  1  0
 32 33  2  0
 33 34  1  0
 22 35  1  0
 35 36  1  0
 35 37  2  0
 12  4  1  0
 37 19  1  0
 33 28  1  0
  1 38  1  0
  1 39  1  0
  1 40  1  0
  2 41  1  0
  3 42  1  0
  3 43  1  0
  3 44  1  0
  5 45  1  0
  6 46  1  0
  7 47  1  0
  9 48  1  0
 10 49  1  0
 10 50  1  0
 10 51  1  0
 11 52  1  0
 11 53  1  0
 11 54  1  0
 17 55  1  6
 18 56  1  0
 18 57  1  0
 18 58  1  0
 20 59  1  0
 21 60  1  0
 24 61  1  0
 24 62  1  0
 27 63  1  0
 29 64  1  0
 30 65  1  0
 31 66  1  0
 32 67  1  0
 37 68  1  0
M  CHG  1  13  -1
M  END
>  <UniqueID>  (73) 
65

>  <SMILES>  (73) 
CC(C)c1cccc(C(C)C)c1[N-]C(=O)O[C@@H](C)c1ccc(OCC(=O)Nc2ccccc2Cl)c(F)c1

>  <Energy>  (73) 
69.18367984014125

>  <Genealogy>  (73) 
CC(C)c1cccc(C(C)C)c1[N-]C(=O)OC(C)c1ccc(OCC(=O)Nc2ccccc2Cl)c(F)c1 (protonated)
CC(C)c1cccc(C(C)C)c1[N-]C(=O)O[C@@H](C)c1ccc(OCC(=O)Nc2ccccc2Cl)c(F)c1 (chirality)
CC(C)c1cccc(C(C)C)c1[N-]C(=O)O[C@@H](C)c1ccc(OCC(=O)Nc2ccccc2Cl)c(F)c1 (3D coordinates assigned)
CC(C)c1cccc(C(C)C)c1[N-]C(=O)O[C@@H](C)c1ccc(OCC(=O)Nc2ccccc2Cl)c(F)c1 (optimized conformer: 69.18367984014125 kcal/mol)

>  <smiles>  (73) 
CC(C)c1cccc(C(C)C)c1NC(=O)OC(C)c1ccc(OCC(=O)Nc2ccccc2Cl)c(F)c1

>  <score_type>  (73) 
oracle

>  <origin>  (73) 
adg

>  <m_score__min__energy>  (73) 
-9.7899999999999991

>  <m_primary>  (73) 
energy

$$$$
73:0
     RDKit          3D

 39 41  0  0  1  0  0  0  0  0999 V2000
   57.0040   30.8180   42.7070 C   0  0  0  0  0  0  0  0  0  0  0  0
   56.9010   31.0400   44.1760 C   0  0  0  0  0  0  0  0  0  0  0  0
   56.0420   30.4090   44.8250 O   0  0  0  0  0  0  0  0  0  0  0  0
   57.7740   31.9730   44.8850 C   0  0  0  0  0  0  0  0  0  0  0  0
   58.7200   31.4090   45.7320 C   0  0  0  0  0  0  0  0  0  0  0  0
   59.5790   32.2550   46.4330 C   0  0  0  0  0  0  0  0  0  0  0  0
   59.4860   33.6480   46.2830 C   0  0  0  0  0  0  0  0  0  0  0  0
   60.3850   34.4920   46.9710 N   0  0  0  0  0  0  0  0  0  0  0  0
   61.0570   34.0950   47.9540 C   0  0  0  0  0  0  0  0  0  0  0  0
   60.4240   34.0010   49.1550 N   0  0  0  0  0  0  0  0  0  0  0  0
   61.0380   33.5890   50.2760 C   0  0  0  0  0  0  0  0  0  0  0  0
   60.2640   33.5260   51.5140 C   0  0  0  0  0  0  0  0  0  0  0  0
   58.8940   33.5340   51.5560 C   0  0  0  0  0  0  0  0  0  0  0  0
   58.1580   33.4740   52.7230 C   0  0  0  0  0  0  0  0  0  0  0  0
   58.8460   33.4040   53.9020 C   0  0  0  0  0  0  0  0  0  0  0  0
   60.2170   33.3980   53.8530 C   0  0  0  0  0  0  0  0  0  0  0  0
   60.8990   33.4550   52.7170 N   0  0  0  0  0  0  0  0  0  0  0  0
   62.3360   33.2550   50.1980 N   0  0  0  0  0  0  0  0  0  0  0  0
   63.0270   33.3220   49.0480 C   0  0  0  0  0  0  0  0  0  0  0  0
   64.4580   32.9470   48.9870 C   0  0  0  0  0  0  0  0  0  0  0  0
   62.3820   33.7470   47.9100 C   0  0  0  0  0  0  0  0  0  0  0  0
   63.2700   33.8310   46.4320 Cl  0  0  0  0  0  0  0  0  0  0  0  0
   58.5180   34.1880   45.4200 C   0  0  0  0  0  0  0  0  0  0  0  0
   57.6550   33.3410   44.7140 C   0  0  0  0  0  0  0  0  0  0  0  0
   57.4599   29.8354   42.5158 H   0  0  0  0  0  0  0  0  0  0  0  0
   55.9994   30.8493   42.2601 H   0  0  0  0  0  0  0  0  0  0  0  0
   57.6288   31.6053   42.2601 H   0  0  0  0  0  0  0  0  0  0  0  0
   58.7900   30.3173   45.8473 H   0  0  0  0  0  0  0  0  0  0  0  0
   60.3349   31.8279   47.1084 H   0  0  0  0  0  0  0  0  0  0  0  0
   58.3479   33.5917   50.6029 H   0  0  0  0  0  0  0  0  0  0  0  0
   57.0582   33.4822   52.7044 H   0  0  0  0  0  0  0  0  0  0  0  0
   58.3148   33.3538   54.8640 H   0  0  0  0  0  0  0  0  0  0  0  0
   60.7760   33.3434   54.7988 H   0  0  0  0  0  0  0  0  0  0  0  0
   62.8450   32.9330   51.0370 H   0  0  0  0  0  0  0  0  0  0  0  0
   64.8537   32.8433   50.0081 H   0  0  0  0  0  0  0  0  0  0  0  0
   64.5640   31.9907   48.4538 H   0  0  0  0  0  0  0  0  0  0  0  0
   65.0194   33.7284   48.4538 H   0  0  0  0  0  0  0  0  0  0  0  0
   58.4378   35.2783   45.2986 H   0  0  0  0  0  0  0  0  0  0  0  0
   56.8955   33.7559   44.0351 H   0  0  0  0  0  0  0  0  0  0  0  0
  1  2  1  0
  2  3  2  0
  2  4  1  0
  4  5  2  0
  5  6  1  0
  6  7  2  0
  7  8  1  0
  8  9  2  0
  9 10  1  0
 10 11  2  0
 11 12  1  0
 12 13  2  0
 13 14  1  0
 14 15  2  0
 15 16  1  0
 16 17  2  0
 11 18  1  0
 18 19  1  0
 19 20  1  0
 19 21  2  0
 21 22  1  0
  7 23  1  0
 23 24  2  0
 24  4  1  0
 21  9  1  0
 17 12  1  0
  1 25  1  0
  1 26  1  0
  1 27  1  0
  5 28  1  0
  6 29  1  0
 13 30  1  0
 14 31  1  0
 15 32  1  0
 16 33  1  0
 18 34  1  0
 20 35  1  0
 20 36  1  0
 20 37  1  0
 23 38  1  0
 24 39  1  0
M  END
>  <smiles>  (74) 
CC(=O)c1ccc(N=c2nc(-c3ccccn3)[nH]c(C)c2Cl)cc1

>  <score_type>  (74) 
oracle

>  <origin>  (74) 
adg

>  <m_score__min__energy>  (74) 
-8.2799999999999994

>  <m_primary>  (74) 
energy

$$$$
74:0
     RDKit          3D

 69 75  0  0  1  0  0  0  0  0999 V2000
   65.1140   33.9290   53.5200 C   0  0  0  0  0  0  0  0  0  0  0  0
   65.6330   33.7670   52.2180 O   0  0  0  0  0  0  0  0  0  0  0  0
   64.8400   33.1310   51.2670 C   0  0  0  0  0  0  0  0  0  0  0  0
   63.6370   32.5850   51.6730 C   0  0  0  0  0  0  0  0  0  0  0  0
   62.7870   31.9310   50.7750 C   0  0  0  0  0  0  0  0  0  0  0  0
   63.1840   31.8430   49.4580 C   0  0  0  0  0  0  0  0  0  0  0  0
   62.3370   31.1730   48.4790 C   0  0  0  0  0  0  0  0  0  0  0  0
   62.3640   31.3900   47.1150 C   0  0  0  0  0  0  0  0  0  0  0  0
   61.3980   30.5390   46.6020 C   0  0  0  0  0  0  0  0  0  0  0  0
   60.8280   29.8480   47.6520 C   0  0  0  0  0  0  0  0  0  0  0  0
   59.7660   28.8570   47.5060 C   0  0  0  0  0  0  0  0  0  0  0  0
   59.6440   27.7930   48.4060 C   0  0  0  0  0  0  0  0  0  0  0  0
   58.6430   26.8810   48.2460 N   0  0  0  0  0  0  0  0  0  0  0  0
   57.7630   26.9870   47.2320 C   0  0  0  0  0  0  0  0  0  0  0  0
   56.6580   32.7060   45.1010 N   0  0  0  0  0  0  0  0  0  0  0  0
   56.7550   31.5650   44.5000 C   0  0  0  0  0  0  0  0  0  0  0  0
   56.4900   24.9180   44.9500 N   0  0  0  0  0  0  0  0  0  0  0  0
   56.6560   23.7730   44.3590 C   0  0  0  0  0  0  0  0  0  0  0  0
   56.4120   23.4630   42.9940 C   0  0  0  0  0  0  0  0  0  0  0  0
   56.6390   22.2010   42.5310 C   0  0  0  0  0  0  0  0  0  0  0  0
   57.1050   21.1540   43.2970 C   0  0  0  0  0  0  0  0  0  0  0  0
   57.3500   21.4300   44.6270 C   0  0  0  0  0  0  0  0  0  0  0  0
   57.1160   22.6940   45.0680 C   0  0  0  0  0  0  0  0  0  0  0  0
   57.3470   23.3790   46.7940 S   0  0  0  0  0  0  0  0  0  0  0  0
   57.7460   33.0910   45.9510 C   0  0  0  0  0  0  0  0  0  0  0  0
   56.6980   26.0240   47.0570 N   0  0  0  0  0  0  0  0  0  0  0  0
   56.7520   25.0880   46.2350 C   0  0  0  0  0  0  0  0  0  0  0  0
   56.9590   29.2110   43.1840 C   0  0  0  0  0  0  0  0  0  0  0  0
   56.9420   30.4030   42.4660 C   0  0  0  0  0  0  0  0  0  0  0  0
   56.8400   31.5590   43.1460 N   0  0  0  0  0  0  0  0  0  0  0  0
   56.8710   29.2180   44.5700 C   0  0  0  0  0  0  0  0  0  0  0  0
   56.8860   28.1010   45.2480 N   0  0  0  0  0  0  0  0  0  0  0  0
   57.8290   28.0130   46.3110 C   0  0  0  0  0  0  0  0  0  0  0  0
   58.7610   33.8980   45.4290 C   0  0  0  0  0  0  0  0  0  0  0  0
   59.8170   34.2780   46.2410 C   0  0  0  0  0  0  0  0  0  0  0  0
   59.8970   33.8740   47.5690 C   0  0  0  0  0  0  0  0  0  0  0  0
   61.0050   34.2820   48.3930 C   0  0  0  0  0  0  0  0  0  0  0  0
   61.8920   34.5980   49.0700 N   0  0  0  0  0  0  0  0  0  0  0  0
   58.8800   33.0710   48.0760 C   0  0  0  0  0  0  0  0  0  0  0  0
   57.8290   32.6950   47.2690 C   0  0  0  0  0  0  0  0  0  0  0  0
   56.7700   30.4040   45.2110 N   0  0  0  0  0  0  0  0  0  0  0  0
   58.8530   28.9470   46.4730 C   0  0  0  0  0  0  0  0  0  0  0  0
   61.4280   30.2670   48.7490 O   0  0  0  0  0  0  0  0  0  0  0  0
   64.3870   32.3970   49.0810 C   0  0  0  0  0  0  0  0  0  0  0  0
   65.2390   33.0400   49.9310 C   0  0  0  0  0  0  0  0  0  0  0  0
   65.8927   33.6859   54.2580 H   0  0  0  0  0  0  0  0  0  0  0  0
   64.7900   34.9710   53.6585 H   0  0  0  0  0  0  0  0  0  0  0  0
   64.2547   33.2563   53.6585 H   0  0  0  0  0  0  0  0  0  0  0  0
   63.3404   32.6668   52.7291 H   0  0  0  0  0  0  0  0  0  0  0  0
   61.8316   31.5004   51.1094 H   0  0  0  0  0  0  0  0  0  0  0  0
   63.0099   32.0851   46.5586 H   0  0  0  0  0  0  0  0  0  0  0  0
   61.1313   30.4325   45.5401 H   0  0  0  0  0  0  0  0  0  0  0  0
   60.3536   27.6923   49.2405 H   0  0  0  0  0  0  0  0  0  0  0  0
   56.1240   25.7960   44.4110 H   0  0  0  0  0  0  0  0  0  0  0  0
   56.0401   24.2410   42.3111 H   0  0  0  0  0  0  0  0  0  0  0  0
   56.4354   22.0038   41.4682 H   0  0  0  0  0  0  0  0  0  0  0  0
   57.2724   20.1535   42.8717 H   0  0  0  0  0  0  0  0  0  0  0  0
   57.7229   20.6513   45.3086 H   0  0  0  0  0  0  0  0  0  0  0  0
   57.0430   28.2538   42.6485 H   0  0  0  0  0  0  0  0  0  0  0  0
   57.0104   30.3999   41.3681 H   0  0  0  0  0  0  0  0  0  0  0  0
   56.8250   32.4640   42.6380 H   0  0  0  0  0  0  0  0  0  0  0  0
   58.7215   34.2290   44.3807 H   0  0  0  0  0  0  0  0  0  0  0  0
   60.6116   34.9149   45.8250 H   0  0  0  0  0  0  0  0  0  0  0  0
   58.9154   32.7359   49.1231 H   0  0  0  0  0  0  0  0  0  0  0  0
   57.0336   32.0610   47.6878 H   0  0  0  0  0  0  0  0  0  0  0  0
   56.7050   30.3970   46.2520 H   0  0  0  0  0  0  0  0  0  0  0  0
   58.9357   29.7787   45.7578 H   0  0  0  0  0  0  0  0  0  0  0  0
   64.6807   32.3158   48.0241 H   0  0  0  0  0  0  0  0  0  0  0  0
   66.1917   33.4652   49.5822 H   0  0  0  0  0  0  0  0  0  0  0  0
  1  2  1  0
  2  3  1  0
  3  4  2  0
  4  5  1  0
  5  6  2  0
  6  7  1  0
  7  8  2  0
  8  9  1  0
  9 10  2  0
 10 11  1  0
 11 12  2  0
 12 13  1  0
 13 14  2  0
 14 15  1  0
 15 16  2  0
 16 17  1  0
 17 18  1  0
 18 19  2  0
 19 20  1  0
 20 21  2  0
 21 22  1  0
 22 23  2  0
 23 24  1  0
 14 25  1  0
 25 26  1  0
 26 27  2  0
 27 28  1  0
 28 29  2  0
 29 30  1  0
 30 31  1  0
 31 32  2  0
 32 33  1  0
 33 34  2  0
 34 35  1  0
 35 36  2  0
 36 37  1  0
 37 38  3  0
 36 39  1  0
 39 40  2  0
 31 41  1  0
 25 42  2  0
 10 43  1  0
  6 44  1  0
 44 45  2  0
 45  3  1  0
 43  7  1  0
 42 11  1  0
 24 16  1  0
 41 27  1  0
 23 18  1  0
 40 33  1  0
  1 46  1  0
  1 47  1  0
  1 48  1  0
  4 49  1  0
  5 50  1  0
  8 51  1  0
  9 52  1  0
 12 53  1  0
 17 54  1  0
 19 55  1  0
 20 56  1  0
 21 57  1  0
 22 58  1  0
 28 59  1  0
 29 60  1  0
 30 61  1  0
 34 62  1  0
 35 63  1  0
 39 64  1  0
 40 65  1  0
 41 66  1  0
 42 67  1  0
 44 68  1  0
 45 69  1  0
M  END
>  <smiles>  (75) 
COc1ccc(-c2ccc(-c3cnc(N=c4[nH]c5ccccc5s4)c(N=c4cc[nH]c(=Nc5ccc(C#N)cc5)[nH]4)c3)o2)cc1

>  <score_type>  (75) 
oracle

>  <origin>  (75) 
adg

>  <m_score__min__energy>  (75) 
-10.449999999999999

>  <m_primary>  (75) 
energy

$$$$
75:0
     RDKit          3D

 49 51  0  0  1  0  0  0  0  0999 V2000
   63.3720   33.9830   46.4340 C   0  0  0  0  0  0  0  0  0  0  0  0
   63.6850   33.1730   47.5280 O   0  0  0  0  0  0  0  0  0  0  0  0
   62.8000   32.2160   47.9660 C   0  0  0  0  0  0  0  0  0  0  0  0
   61.8110   31.7120   47.1810 C   0  0  0  0  0  0  0  0  0  0  0  0
   60.9240   30.7600   47.6060 C   0  0  0  0  0  0  0  0  0  0  0  0
   59.9960   30.2450   46.9140 N   0  0  0  0  0  0  0  0  0  0  0  0
   58.8670   29.5980   47.5530 C   0  0  0  0  0  0  0  0  0  0  0  0
   58.6220   28.3940   46.6660 C   0  0  0  0  0  0  0  0  0  0  0  0
   59.0660   27.1430   47.0190 C   0  0  0  0  0  0  0  0  0  0  0  0
   58.7860   26.0840   46.1670 C   0  0  0  0  0  0  0  0  0  0  0  0
   58.0860   26.2320   44.9940 C   0  0  0  0  0  0  0  0  0  0  0  0
   57.6500   27.5190   44.6680 C   0  0  0  0  0  0  0  0  0  0  0  0
   57.9270   28.5920   45.5170 C   0  0  0  0  0  0  0  0  0  0  0  0
   57.4330   29.8980   45.0560 C   0  0  0  0  0  0  0  0  0  0  0  0
   56.2270   30.1420   44.8430 O   0  0  0  0  0  0  0  0  0  0  0  0
   58.4720   30.8860   44.8660 N   0  0  0  0  0  0  0  0  0  0  0  0
   58.1560   32.2320   44.4120 C   0  0  0  0  0  0  0  0  0  0  0  0
   58.7140   33.2340   45.3550 C   0  0  0  0  0  0  0  0  0  0  0  0
   59.1280   34.4980   44.9560 C   0  0  0  0  0  0  0  0  0  0  0  0
   59.6290   35.3410   45.9490 C   0  0  0  0  0  0  0  0  0  0  0  0
   60.0070   36.4850   45.6140 O   0  0  0  0  0  0  0  0  0  0  0  0
   59.7010   34.9190   47.2460 N   0  0  0  0  0  0  0  0  0  0  0  0
   59.2970   33.6990   47.6050 C   0  0  0  0  0  0  0  0  0  0  0  0
   59.3570   33.2000   49.0160 C   0  0  0  0  0  0  0  0  0  0  0  0
   58.8170   32.8970   46.6430 N   0  0  0  0  0  0  0  0  0  0  0  0
   61.0840   30.3150   48.9240 C   0  0  0  0  0  0  0  0  0  0  0  0
   62.0960   30.8470   49.6890 C   0  0  0  0  0  0  0  0  0  0  0  0
   62.9560   31.7820   49.2510 N   0  0  0  0  0  0  0  0  0  0  0  0
   62.9970   34.9533   46.7916 H   0  0  0  0  0  0  0  0  0  0  0  0
   64.2740   34.1405   45.8244 H   0  0  0  0  0  0  0  0  0  0  0  0
   62.5985   33.4931   45.8244 H   0  0  0  0  0  0  0  0  0  0  0  0
   61.7189   32.0885   46.1516 H   0  0  0  0  0  0  0  0  0  0  0  0
   59.1160   29.2897   48.5791 H   0  0  0  0  0  0  0  0  0  0  0  0
   57.9884   30.2526   47.6501 H   0  0  0  0  0  0  0  0  0  0  0  0
   59.6280   26.9850   47.9513 H   0  0  0  0  0  0  0  0  0  0  0  0
   59.1407   25.0801   46.4434 H   0  0  0  0  0  0  0  0  0  0  0  0
   57.8775   25.3733   44.3389 H   0  0  0  0  0  0  0  0  0  0  0  0
   57.0862   27.6873   43.7386 H   0  0  0  0  0  0  0  0  0  0  0  0
   59.4850   30.6460   45.0560 H   0  0  0  0  0  0  0  0  0  0  0  0
   58.5905   32.3905   43.4140 H   0  0  0  0  0  0  0  0  0  0  0  0
   57.0632   32.3493   44.3680 H   0  0  0  0  0  0  0  0  0  0  0  0
   59.0640   34.8199   43.9061 H   0  0  0  0  0  0  0  0  0  0  0  0
   59.2551   34.0478   49.7094 H   0  0  0  0  0  0  0  0  0  0  0  0
   58.5383   32.4856   49.1874 H   0  0  0  0  0  0  0  0  0  0  0  0
   60.3217   32.7001   49.1874 H   0  0  0  0  0  0  0  0  0  0  0  0
   58.5050   31.9430   46.9420 H   0  0  0  0  0  0  0  0  0  0  0  0
   60.4108   29.5517   49.3413 H   0  0  0  0  0  0  0  0  0  0  0  0
   62.2080   30.4851   50.7217 H   0  0  0  0  0  0  0  0  0  0  0  0
   63.6920   32.1370   49.8790 H   0  0  0  0  0  0  0  0  0  0  0  0
  1  2  1  0
  2  3  1  0
  3  4  2  0
  4  5  1  0
  5  6  2  0
  6  7  1  0
  7  8  1  0
  8  9  2  0
  9 10  1  0
 10 11  2  0
 11 12  1  0
 12 13  2  0
 13 14  1  0
 14 15  2  0
 14 16  1  0
 16 17  1  0
 17 18  1  0
 18 19  2  0
 19 20  1  0
 20 21  2  0
 20 22  1  0
 22 23  2  0
 23 24  1  0
 23 25  1  0
  5 26  1  0
 26 27  2  0
 27 28  1  0
 28  3  1  0
 13  8  1  0
 25 18  1  0
  1 29  1  0
  1 30  1  0
  1 31  1  0
  4 32  1  0
  7 33  1  0
  7 34  1  0
  9 35  1  0
 10 36  1  0
 11 37  1  0
 12 38  1  0
 16 39  1  0
 17 40  1  0
 17 41  1  0
 19 42  1  0
 24 43  1  0
 24 44  1  0
 24 45  1  0
 25 46  1  0
 26 47  1  0
 27 48  1  0
 28 49  1  0
M  END
>  <smiles>  (76) 
COc1cc(=NCc2ccccc2C(=O)NCc2cc(=O)nc(C)[nH]2)cc[nH]1

>  <score_type>  (76) 
oracle

>  <origin>  (76) 
adg

>  <m_score__min__energy>  (76) 
-8.0299999999999994

>  <m_primary>  (76) 
energy

$$$$
76:0
     RDKit          3D

 73 76  0  0  0  0  0  0  0  0999 V2000
   59.3180   31.4690   53.6220 C   0  0  0  0  0  0  0  0  0  0  0  0
   58.7680   31.4460   52.2660 N   0  0  0  0  0  0  0  0  0  0  0  0
   57.4660   30.8760   52.0570 C   0  0  0  0  0  0  0  0  0  0  0  0
   57.3720   29.7070   51.5960 O   0  0  0  0  0  0  0  0  0  0  0  0
   56.2160   31.6730   52.3100 C   0  0  0  0  0  0  0  0  0  0  0  0
   55.0260   30.7620   52.4490 C   0  0  0  0  0  0  0  0  0  0  0  0
   53.9270   30.8850   51.5820 C   0  0  0  0  0  0  0  0  0  0  0  0
   52.8480   30.0000   51.6830 C   0  0  0  0  0  0  0  0  0  0  0  0
   52.8620   28.9850   52.6430 C   0  0  0  0  0  0  0  0  0  0  0  0
   53.9580   28.8480   53.5010 C   0  0  0  0  0  0  0  0  0  0  0  0
   55.0390   29.7290   53.4030 C   0  0  0  0  0  0  0  0  0  0  0  0
   59.6170   31.7260   51.1350 C   0  0  0  0  0  0  0  0  0  0  0  0
   60.2570   32.8110   51.0870 O   0  0  0  0  0  0  0  0  0  0  0  0
   59.7400   30.7690   50.0120 C   0  0  0  0  0  0  0  0  0  0  0  0
   58.8770   30.8840   48.9090 C   0  0  0  0  0  0  0  0  0  0  0  0
   58.9520   29.9760   47.8510 C   0  0  0  0  0  0  0  0  0  0  0  0
   59.8790   28.9340   47.8900 C   0  0  0  0  0  0  0  0  0  0  0  0
   60.7290   28.7930   48.9890 C   0  0  0  0  0  0  0  0  0  0  0  0
   60.6620   29.7000   50.0650 C   0  0  0  0  0  0  0  0  0  0  0  0
   61.4730   29.5610   51.2030 O   0  0  0  0  0  0  0  0  0  0  0  0
   62.8300   29.9870   51.3220 C   0  0  0  0  0  0  0  0  0  0  0  0
   63.0030   31.4350   50.8510 C   0  0  0  0  0  0  0  0  0  0  0  0
   64.2490   31.5970   49.9540 C   0  0  0  0  0  0  0  0  0  0  0  0
   63.9610   32.3720   48.7200 N   0  0  1  0  0  0  0  0  0  0  0  0
   62.7650   31.8250   48.0100 C   0  0  0  0  0  0  0  0  0  0  0  0
   62.0430   32.8830   47.1630 C   0  0  0  0  0  0  0  0  0  0  0  0
   61.5380   34.0620   48.0350 C   0  0  1  0  0  0  0  0  0  0  0  0
   60.0210   33.9990   48.3510 C   0  0  0  0  0  0  0  0  0  0  0  0
   59.1190   34.0150   47.1380 C   0  0  0  0  0  0  0  0  0  0  0  0
   57.8490   33.4150   47.1860 C   0  0  0  0  0  0  0  0  0  0  0  0
   57.0160   33.4310   46.0640 C   0  0  0  0  0  0  0  0  0  0  0  0
   57.4390   34.0530   44.8870 C   0  0  0  0  0  0  0  0  0  0  0  0
   58.6900   34.6710   44.8340 C   0  0  0  0  0  0  0  0  0  0  0  0
   59.5230   34.6600   45.9560 C   0  0  0  0  0  0  0  0  0  0  0  0
   62.4050   34.2590   49.3010 C   0  0  0  0  0  0  0  0  0  0  0  0
   63.8510   33.8280   49.0320 C   0  0  0  0  0  0  0  0  0  0  0  0
   58.4957   31.4346   54.3518 H   0  0  0  0  0  0  0  0  0  0  0  0
   59.9734   30.5975   53.7667 H   0  0  0  0  0  0  0  0  0  0  0  0
   59.8983   32.3922   53.7667 H   0  0  0  0  0  0  0  0  0  0  0  0
   56.3381   32.2523   53.2371 H   0  0  0  0  0  0  0  0  0  0  0  0
   56.0478   32.3487   51.4585 H   0  0  0  0  0  0  0  0  0  0  0  0
   53.9150   31.6796   50.8215 H   0  0  0  0  0  0  0  0  0  0  0  0
   51.9875   30.1035   51.0056 H   0  0  0  0  0  0  0  0  0  0  0  0
   52.0106   28.2933   52.7241 H   0  0  0  0  0  0  0  0  0  0  0  0
   53.9694   28.0461   54.2538 H   0  0  0  0  0  0  0  0  0  0  0  0
   55.9027   29.6138   54.0744 H   0  0  0  0  0  0  0  0  0  0  0  0
   58.1360   31.6964   48.8788 H   0  0  0  0  0  0  0  0  0  0  0  0
   58.2801   30.0822   46.9866 H   0  0  0  0  0  0  0  0  0  0  0  0
   59.9404   28.2222   47.0536 H   0  0  0  0  0  0  0  0  0  0  0  0
   61.4560   27.9679   49.0147 H   0  0  0  0  0  0  0  0  0  0  0  0
   63.1373   29.9139   52.3757 H   0  0  0  0  0  0  0  0  0  0  0  0
   63.4538   29.3392   50.6885 H   0  0  0  0  0  0  0  0  0  0  0  0
   62.1113   31.7335   50.2803 H   0  0  0  0  0  0  0  0  0  0  0  0
   63.1334   32.0717   51.7385 H   0  0  0  0  0  0  0  0  0  0  0  0
   65.0301   32.1199   50.5254 H   0  0  0  0  0  0  0  0  0  0  0  0
   64.5767   30.5919   49.6502 H   0  0  0  0  0  0  0  0  0  0  0  0
   64.7860   32.2650   48.0830 H   0  0  0  0  0  0  0  0  0  0  0  0
   62.0606   31.4326   48.7582 H   0  0  0  0  0  0  0  0  0  0  0  0
   63.1155   31.0363   47.3281 H   0  0  0  0  0  0  0  0  0  0  0  0
   61.1827   32.4142   46.6629 H   0  0  0  0  0  0  0  0  0  0  0  0
   62.7562   33.2800   46.4256 H   0  0  0  0  0  0  0  0  0  0  0  0
   61.6615   34.9647   47.4186 H   0  0  0  0  0  0  0  0  0  0  0  0
   59.8262   33.0718   48.9099 H   0  0  0  0  0  0  0  0  0  0  0  0
   59.7861   34.9086   48.9232 H   0  0  0  0  0  0  0  0  0  0  0  0
   57.5085   32.9297   48.1126 H   0  0  0  0  0  0  0  0  0  0  0  0
   56.0261   32.9532   46.1078 H   0  0  0  0  0  0  0  0  0  0  0  0
   56.7864   34.0560   44.0015 H   0  0  0  0  0  0  0  0  0  0  0  0
   59.0198   35.1665   43.9090 H   0  0  0  0  0  0  0  0  0  0  0  0
   60.5020   35.1597   45.9140 H   0  0  0  0  0  0  0  0  0  0  0  0
   61.9926   33.6521   50.1205 H   0  0  0  0  0  0  0  0  0  0  0  0
   62.3960   35.3238   49.5769 H   0  0  0  0  0  0  0  0  0  0  0  0
   64.4564   34.0450   49.9244 H   0  0  0  0  0  0  0  0  0  0  0  0
   64.2108   34.3874   48.1559 H   0  0  0  0  0  0  0  0  0  0  0  0
  1  2  1  0
  2  3  1  0
  3  4  2  0
  3  5  1  0
  5  6  1  0
  6  7  2  0
  7  8  1  0
  8  9  2  0
  9 10  1  0
 10 11  2  0
  2 12  1  0
 12 13  2  0
 12 14  1  0
 14 15  2  0
 15 16  1  0
 16 17  2  0
 17 18  1  0
 18 19  2  0
 19 20  1  0
 20 21  1  0
 21 22  1  0
 22 23  1  0
 23 24  1  0
 24 25  1  0
 25 26  1  0
 26 27  1  0
 27 28  1  0
 28 29  1  0
 29 30  2  0
 30 31  1  0
 31 32  2  0
 32 33  1  0
 33 34  2  0
 27 35  1  0
 35 36  1  0
 11  6  1  0
 19 14  1  0
 36 24  1  0
 34 29  1  0
  1 37  1  0
  1 38  1  0
  1 39  1  0
  5 40  1  0
  5 41  1  0
  7 42  1  0
  8 43  1  0
  9 44  1  0
 10 45  1  0
 11 46  1  0
 15 47  1  0
 16 48  1  0
 17 49  1  0
 18 50  1  0
 21 51  1  0
 21 52  1  0
 22 53  1  0
 22 54  1  0
 23 55  1  0
 23 56  1  0
 24 57  1  6
 25 58  1  0
 25 59  1  0
 26 60  1  0
 26 61  1  0
 27 62  1  6
 28 63  1  0
 28 64  1  0
 30 65  1  0
 31 66  1  0
 32 67  1  0
 33 68  1  0
 34 69  1  0
 35 70  1  0
 35 71  1  0
 36 72  1  0
 36 73  1  0
M  CHG  1  24   1
M  END
>  <UniqueID>  (77) 
66

>  <SMILES>  (77) 
CN(C(=O)Cc1ccccc1)C(=O)c1ccccc1OCCC[NH+]1CCC(Cc2ccccc2)CC1

>  <Energy>  (77) 
91.38753430608956

>  <Genealogy>  (77) 
CN(C(=O)Cc1ccccc1)C(=O)c1ccccc1OCCC[NH+]1CCC(Cc2ccccc2)CC1 (protonated)
CN(C(=O)Cc1ccccc1)C(=O)c1ccccc1OCCC[NH+]1CCC(Cc2ccccc2)CC1 (3D coordinates assigned)
CN(C(=O)Cc1ccccc1)C(=O)c1ccccc1OCCC[NH+]1CCC(Cc2ccccc2)CC1 (nonaromatic ring conformer: 91.38753430608956 kcal/mol)

>  <smiles>  (77) 
CN(C(=O)Cc1ccccc1)C(=O)c1ccccc1OCCCN1CCC(Cc2ccccc2)CC1

>  <score_type>  (77) 
oracle

>  <origin>  (77) 
adg

>  <m_score__min__energy>  (77) 
-9.4800000000000004

>  <m_primary>  (77) 
energy

$$$$
77:0
     RDKit          3D

 69 74  0  0  0  0  0  0  0  0999 V2000
   58.5850   34.6150   46.0110 C   0  0  0  0  0  0  0  0  0  0  0  0
   58.2700   33.2790   45.4120 C   0  0  0  0  0  0  0  0  0  0  0  0
   57.6470   33.1450   44.2100 N   0  0  0  0  0  0  0  0  0  0  0  0
   57.5590   31.8120   44.0590 C   0  0  0  0  0  0  0  0  0  0  0  0
   56.9960   31.1180   42.9930 C   0  0  0  0  0  0  0  0  0  0  0  0
   57.0110   29.7130   43.0430 C   0  0  0  0  0  0  0  0  0  0  0  0
   57.5690   29.0270   44.1530 C   0  0  0  0  0  0  0  0  0  0  0  0
   57.5570   27.5880   44.1600 N   0  0  0  0  0  0  0  0  0  0  0  0
   57.4480   26.6280   45.6010 S   0  0  0  0  0  0  0  0  0  0  0  0
   56.0430   26.6970   46.1300 O   0  0  0  0  0  0  0  0  0  0  0  0
   57.7640   25.1930   45.2790 O   0  0  0  0  0  0  0  0  0  0  0  0
   58.5440   27.2650   46.8250 C   0  0  0  0  0  0  0  0  0  0  0  0
   58.1480   28.3130   47.6710 C   0  0  0  0  0  0  0  0  0  0  0  0
   59.0210   28.7960   48.6500 C   0  0  0  0  0  0  0  0  0  0  0  0
   60.3160   28.2530   48.7780 C   0  0  0  0  0  0  0  0  0  0  0  0
   61.2490   28.7120   49.7710 N   0  0  0  0  0  0  0  0  0  0  0  0
   61.4910   30.0660   50.1760 C   0  0  0  0  0  0  0  0  0  0  0  0
   62.6600   30.5380   50.1540 O   0  0  0  0  0  0  0  0  0  0  0  0
   60.3650   30.9220   50.6180 C   0  0  0  0  0  0  0  0  0  0  0  0
   60.4640   32.3220   50.5440 C   0  0  0  0  0  0  0  0  0  0  0  0
   59.4120   33.1270   50.9780 C   0  0  0  0  0  0  0  0  0  0  0  0
   58.2560   32.5520   51.5060 C   0  0  0  0  0  0  0  0  0  0  0  0
   58.1300   31.1560   51.5870 C   0  0  0  0  0  0  0  0  0  0  0  0
   56.9020   30.5450   52.1570 C   0  0  0  0  0  0  0  0  0  0  0  0
   55.6420   31.1500   51.9670 C   0  0  0  0  0  0  0  0  0  0  0  0
   54.4880   30.5720   52.5060 C   0  0  0  0  0  0  0  0  0  0  0  0
   54.5780   29.3890   53.2430 C   0  0  0  0  0  0  0  0  0  0  0  0
   55.8220   28.7790   53.4390 C   0  0  0  0  0  0  0  0  0  0  0  0
   56.9800   29.3520   52.8990 C   0  0  0  0  0  0  0  0  0  0  0  0
   59.1890   30.3480   51.1350 C   0  0  0  0  0  0  0  0  0  0  0  0
   60.7010   27.1970   47.9390 C   0  0  0  0  0  0  0  0  0  0  0  0
   59.8210   26.7060   46.9670 C   0  0  0  0  0  0  0  0  0  0  0  0
   58.1350   29.7750   45.2170 C   0  0  0  0  0  0  0  0  0  0  0  0
   58.1090   31.1680   45.1310 C   0  0  0  0  0  0  0  0  0  0  0  0
   58.5720   32.0870   46.0000 N   0  0  0  0  0  0  0  0  0  0  0  0
   59.1560   31.8660   47.3310 C   0  0  0  0  0  0  0  0  0  0  0  0
   60.6300   32.1870   47.3250 C   0  0  0  0  0  0  0  0  0  0  0  0
   61.0700   33.5160   47.4690 C   0  0  0  0  0  0  0  0  0  0  0  0
   62.4380   33.8100   47.4620 C   0  0  0  0  0  0  0  0  0  0  0  0
   63.3760   32.7840   47.2940 C   0  0  0  0  0  0  0  0  0  0  0  0
   62.9500   31.4620   47.1420 C   0  0  0  0  0  0  0  0  0  0  0  0
   61.5810   31.1630   47.1510 C   0  0  0  0  0  0  0  0  0  0  0  0
   58.5669   34.5384   47.1082 H   0  0  0  0  0  0  0  0  0  0  0  0
   59.5839   34.9379   45.6824 H   0  0  0  0  0  0  0  0  0  0  0  0
   57.8355   35.3501   45.6824 H   0  0  0  0  0  0  0  0  0  0  0  0
   56.5534   31.6511   42.1387 H   0  0  0  0  0  0  0  0  0  0  0  0
   56.5838   29.1367   42.2091 H   0  0  0  0  0  0  0  0  0  0  0  0
   57.4970   27.0760   43.2530 H   0  0  0  0  0  0  0  0  0  0  0  0
   57.1468   28.7558   47.5630 H   0  0  0  0  0  0  0  0  0  0  0  0
   58.6964   29.6030   49.3233 H   0  0  0  0  0  0  0  0  0  0  0  0
   61.3769   32.7851   50.1413 H   0  0  0  0  0  0  0  0  0  0  0  0
   59.4939   34.2214   50.9037 H   0  0  0  0  0  0  0  0  0  0  0  0
   57.4381   33.1962   51.8611 H   0  0  0  0  0  0  0  0  0  0  0  0
   55.5664   32.0837   51.3904 H   0  0  0  0  0  0  0  0  0  0  0  0
   53.5094   31.0492   52.3494 H   0  0  0  0  0  0  0  0  0  0  0  0
   53.6706   28.9366   53.6695 H   0  0  0  0  0  0  0  0  0  0  0  0
   55.8905   27.8468   54.0189 H   0  0  0  0  0  0  0  0  0  0  0  0
   57.9550   28.8673   53.0556 H   0  0  0  0  0  0  0  0  0  0  0  0
   59.0965   29.2531   51.1864 H   0  0  0  0  0  0  0  0  0  0  0  0
   61.7011   26.7516   48.0454 H   0  0  0  0  0  0  0  0  0  0  0  0
   60.1331   25.8787   46.3127 H   0  0  0  0  0  0  0  0  0  0  0  0
   58.5823   29.2710   46.0864 H   0  0  0  0  0  0  0  0  0  0  0  0
   58.6481   32.5139   48.0606 H   0  0  0  0  0  0  0  0  0  0  0  0
   59.0248   30.8086   47.6043 H   0  0  0  0  0  0  0  0  0  0  0  0
   60.3359   34.3266   47.5875 H   0  0  0  0  0  0  0  0  0  0  0  0
   62.7771   34.8487   47.5887 H   0  0  0  0  0  0  0  0  0  0  0  0
   64.4505   33.0193   47.2817 H   0  0  0  0  0  0  0  0  0  0  0  0
   63.6886   30.6567   47.0154 H   0  0  0  0  0  0  0  0  0  0  0  0
   61.2474   30.1228   47.0215 H   0  0  0  0  0  0  0  0  0  0  0  0
  1  2  1  0
  2  3  2  0
  3  4  1  0
  4  5  2  0
  5  6  1  0
  6  7  2  0
  7  8  1  0
  8  9  1  0
  9 10  2  0
  9 11  2  0
  9 12  1  0
 12 13  2  0
 13 14  1  0
 14 15  2  0
 15 16  1  0
 16 17  1  0
 17 18  2  0
 17 19  1  0
 19 20  2  0
 20 21  1  0
 21 22  2  0
 22 23  1  0
 23 24  1  0
 24 25  2  0
 25 26  1  0
 26 27  2  0
 27 28  1  0
 28 29  2  0
 23 30  2  0
 15 31  1  0
 31 32  2  0
  7 33  1  0
 33 34  2  0
 34 35  1  0
 35 36  1  0
 36 37  1  0
 37 38  2  0
 38 39  1  0
 39 40  2  0
 40 41  1  0
 41 42  2  0
 35  2  1  0
 42 37  1  0
 34  4  1  0
 32 12  1  0
 30 19  1  0
 29 24  1  0
  1 43  1  0
  1 44  1  0
  1 45  1  0
  5 46  1  0
  6 47  1  0
  8 48  1  0
 13 49  1  0
 14 50  1  0
 20 51  1  0
 21 52  1  0
 22 53  1  0
 25 54  1  0
 26 55  1  0
 27 56  1  0
 28 57  1  0
 29 58  1  0
 30 59  1  0
 31 60  1  0
 32 61  1  0
 33 62  1  0
 36 63  1  0
 36 64  1  0
 38 65  1  0
 39 66  1  0
 40 67  1  0
 41 68  1  0
 42 69  1  0
M  CHG  1  16  -1
M  END
>  <UniqueID>  (78) 
67

>  <SMILES>  (78) 
Cc1nc2ccc(NS(=O)(=O)c3ccc([N-]C(=O)c4cccc(-c5ccccc5)c4)cc3)cc2n1Cc1ccccc1

>  <Energy>  (78) 
122.49956673293909

>  <Genealogy>  (78) 
Cc1nc2ccc(NS(=O)(=O)c3ccc([N-]C(=O)c4cccc(-c5ccccc5)c4)cc3)cc2n1Cc1ccccc1 (protonated)
Cc1nc2ccc(NS(=O)(=O)c3ccc([N-]C(=O)c4cccc(-c5ccccc5)c4)cc3)cc2n1Cc1ccccc1 (3D coordinates assigned)
Cc1nc2ccc(NS(=O)(=O)c3ccc([N-]C(=O)c4cccc(-c5ccccc5)c4)cc3)cc2n1Cc1ccccc1 (optimized conformer: 122.49956673293909 kcal/mol)

>  <smiles>  (78) 
Cc1nc2ccc(NS(=O)(=O)c3ccc(NC(=O)c4cccc(-c5ccccc5)c4)cc3)cc2n1Cc1ccccc1

>  <score_type>  (78) 
oracle

>  <origin>  (78) 
adg

>  <m_score__min__energy>  (78) 
-12.210000000000001

>  <m_primary>  (78) 
energy

$$$$
78:0
     RDKit          3D

 63 67  0  0  0  0  0  0  0  0999 V2000
   59.6380   35.5930   46.3640 C   0  0  0  0  0  0  0  0  0  0  0  0
   58.8470   34.4410   45.8220 C   0  0  0  0  0  0  0  0  0  0  0  0
   58.8740   34.1390   44.4500 C   0  0  0  0  0  0  0  0  0  0  0  0
   58.1450   33.0550   43.9510 C   0  0  0  0  0  0  0  0  0  0  0  0
   57.4030   32.2420   44.8210 C   0  0  0  0  0  0  0  0  0  0  0  0
   56.5730   31.1120   44.2710 C   0  0  0  0  0  0  0  0  0  0  0  0
   57.4480   30.0480   43.7880 N   0  0  0  0  0  0  0  0  0  0  0  0
   57.8770   28.9510   44.6040 C   0  0  0  0  0  0  0  0  0  0  0  0
   57.5710   27.7700   44.2790 O   0  0  0  0  0  0  0  0  0  0  0  0
   58.6800   29.1960   45.8230 C   0  0  0  0  0  0  0  0  0  0  0  0
   59.7430   30.1170   45.8120 C   0  0  0  0  0  0  0  0  0  0  0  0
   60.5230   30.3150   46.9540 C   0  0  0  0  0  0  0  0  0  0  0  0
   60.2530   29.6020   48.1310 C   0  0  0  0  0  0  0  0  0  0  0  0
   61.1380   29.7680   49.3390 C   0  0  0  0  0  0  0  0  0  0  0  0
   60.6970   30.9210   50.1380 N   0  0  0  0  0  0  0  0  0  0  0  0
   60.9740   32.2370   49.9010 C   0  0  0  0  0  0  0  0  0  0  0  0
   61.9070   32.7310   48.8730 C   0  0  0  0  0  0  0  0  0  0  0  0
   61.4030   33.2960   47.6930 C   0  0  0  0  0  0  0  0  0  0  0  0
   62.2780   33.7610   46.7040 C   0  0  0  0  0  0  0  0  0  0  0  0
   63.6590   33.6820   46.8960 C   0  0  0  0  0  0  0  0  0  0  0  0
   64.1680   33.1470   48.0830 C   0  0  0  0  0  0  0  0  0  0  0  0
   63.2970   32.6800   49.0740 C   0  0  0  0  0  0  0  0  0  0  0  0
   60.2380   33.0920   50.6570 N   0  0  0  0  0  0  0  0  0  0  0  0
   59.4790   32.2650   51.3960 C   0  0  0  0  0  0  0  0  0  0  0  0
   59.7410   30.9680   51.0930 C   0  0  0  0  0  0  0  0  0  0  0  0
   59.0360   29.9500   51.7380 C   0  0  0  0  0  0  0  0  0  0  0  0
   59.2810   28.7390   51.4920 O   0  0  0  0  0  0  0  0  0  0  0  0
   58.0810   30.3040   52.6650 N   0  0  0  0  0  0  0  0  0  0  0  0
   57.3470   29.2570   53.4010 C   0  0  0  0  0  0  0  0  0  0  0  0
   57.8560   31.6350   52.9670 C   0  0  0  0  0  0  0  0  0  0  0  0
   57.0190   31.9430   53.8640 O   0  0  0  0  0  0  0  0  0  0  0  0
   58.5350   32.6310   52.3030 N   0  0  0  0  0  0  0  0  0  0  0  0
   58.2910   34.0470   52.6070 C   0  0  0  0  0  0  0  0  0  0  0  0
   59.1890   28.6880   48.1480 C   0  0  0  0  0  0  0  0  0  0  0  0
   58.4100   28.4870   47.0070 C   0  0  0  0  0  0  0  0  0  0  0  0
   57.3940   32.5300   46.1950 C   0  0  0  0  0  0  0  0  0  0  0  0
   58.1150   33.6210   46.6930 C   0  0  0  0  0  0  0  0  0  0  0  0
   59.6192   35.5657   47.4635 H   0  0  0  0  0  0  0  0  0  0  0  0
   60.6781   35.5210   46.0131 H   0  0  0  0  0  0  0  0  0  0  0  0
   59.1972   36.5378   46.0131 H   0  0  0  0  0  0  0  0  0  0  0  0
   59.4716   34.7584   43.7650 H   0  0  0  0  0  0  0  0  0  0  0  0
   58.1533   32.8389   42.8725 H   0  0  0  0  0  0  0  0  0  0  0  0
   55.9212   30.7174   45.0644 H   0  0  0  0  0  0  0  0  0  0  0  0
   55.9580   31.4838   43.4382 H   0  0  0  0  0  0  0  0  0  0  0  0
   59.9620   30.6862   44.8965 H   0  0  0  0  0  0  0  0  0  0  0  0
   61.3544   31.0349   46.9298 H   0  0  0  0  0  0  0  0  0  0  0  0
   61.0862   28.8581   49.9550 H   0  0  0  0  0  0  0  0  0  0  0  0
   62.1723   29.9376   49.0052 H   0  0  0  0  0  0  0  0  0  0  0  0
   60.3160   33.3742   47.5437 H   0  0  0  0  0  0  0  0  0  0  0  0
   61.8769   34.1895   45.7737 H   0  0  0  0  0  0  0  0  0  0  0  0
   64.3452   34.0402   46.1144 H   0  0  0  0  0  0  0  0  0  0  0  0
   65.2556   33.0929   48.2385 H   0  0  0  0  0  0  0  0  0  0  0  0
   63.7013   32.2722   50.0122 H   0  0  0  0  0  0  0  0  0  0  0  0
   57.4616   29.4204   54.4827 H   0  0  0  0  0  0  0  0  0  0  0  0
   56.2807   29.3005   53.1345 H   0  0  0  0  0  0  0  0  0  0  0  0
   57.7515   28.2694   53.1345 H   0  0  0  0  0  0  0  0  0  0  0  0
   58.2665   34.1890   53.6975 H   0  0  0  0  0  0  0  0  0  0  0  0
   59.0970   34.6588   52.1756 H   0  0  0  0  0  0  0  0  0  0  0  0
   57.3268   34.3538   52.1756 H   0  0  0  0  0  0  0  0  0  0  0  0
   58.9668   28.1256   49.0669 H   0  0  0  0  0  0  0  0  0  0  0  0
   57.5780   27.7680   47.0344 H   0  0  0  0  0  0  0  0  0  0  0  0
   56.8173   31.8949   46.8835 H   0  0  0  0  0  0  0  0  0  0  0  0
   58.1076   33.8363   47.7717 H   0  0  0  0  0  0  0  0  0  0  0  0
  1  2  1  0
  2  3  2  0
  3  4  1  0
  4  5  2  0
  5  6  1  0
  6  7  1  0
  7  8  1  0
  8  9  2  0
  8 10  1  0
 10 11  2  0
 11 12  1  0
 12 13  2  0
 13 14  1  0
 14 15  1  0
 15 16  1  0
 16 17  1  0
 17 18  2  0
 18 19  1  0
 19 20  2  0
 20 21  1  0
 21 22  2  0
 16 23  2  0
 23 24  1  0
 24 25  2  0
 25 26  1  0
 26 27  2  0
 26 28  1  0
 28 29  1  0
 28 30  1  0
 30 31  2  0
 30 32  1  0
 32 33  1  0
 13 34  1  0
 34 35  2  0
  5 36  1  0
 36 37  2  0
 37  2  1  0
 35 10  1  0
 25 15  1  0
 22 17  1  0
 32 24  1  0
  1 38  1  0
  1 39  1  0
  1 40  1  0
  3 41  1  0
  4 42  1  0
  6 43  1  0
  6 44  1  0
 11 45  1  0
 12 46  1  0
 14 47  1  0
 14 48  1  0
 18 49  1  0
 19 50  1  0
 20 51  1  0
 21 52  1  0
 22 53  1  0
 29 54  1  0
 29 55  1  0
 29 56  1  0
 33 57  1  0
 33 58  1  0
 33 59  1  0
 34 60  1  0
 35 61  1  0
 36 62  1  0
 37 63  1  0
M  CHG  1   7  -1
M  END
>  <UniqueID>  (79) 
68

>  <SMILES>  (79) 
Cc1ccc(C[N-]C(=O)c2ccc(Cn3c(-c4ccccc4)nc4c3c(=O)n(C)c(=O)n4C)cc2)cc1

>  <Energy>  (79) 
117.49221918896284

>  <Genealogy>  (79) 
Cc1ccc(C[N-]C(=O)c2ccc(Cn3c(-c4ccccc4)nc4c3c(=O)n(C)c(=O)n4C)cc2)cc1 (protonated)
Cc1ccc(C[N-]C(=O)c2ccc(Cn3c(-c4ccccc4)nc4c3c(=O)n(C)c(=O)n4C)cc2)cc1 (3D coordinates assigned)
Cc1ccc(C[N-]C(=O)c2ccc(Cn3c(-c4ccccc4)nc4c3c(=O)n(C)c(=O)n4C)cc2)cc1 (optimized conformer: 117.49221918896284 kcal/mol)

>  <smiles>  (79) 
Cc1ccc(CNC(=O)c2ccc(Cn3c(-c4ccccc4)nc4c3c(=O)n(C)c(=O)n4C)cc2)cc1

>  <score_type>  (79) 
oracle

>  <origin>  (79) 
adg

>  <m_score__min__energy>  (79) 
-10.69

>  <m_primary>  (79) 
energy

$$$$
79:0
     RDKit          3D

 53 55  0  0  0  0  0  0  0  0999 V2000
   58.1240   32.2210   42.1400 C   0  0  0  0  0  0  0  0  0  0  0  0
   57.5320   31.8860   43.5140 C   0  0  1  0  0  0  0  0  0  0  0  0
   57.9290   30.5440   43.9240 N   0  0  0  0  0  0  0  0  0  0  0  0
   57.8440   30.0530   45.2690 C   0  0  0  0  0  0  0  0  0  0  0  0
   56.8680   29.3390   45.6210 O   0  0  0  0  0  0  0  0  0  0  0  0
   58.8820   30.3290   46.2160 N   0  0  0  0  0  0  0  0  0  0  0  0
   58.7140   30.5890   47.6170 C   0  0  0  0  0  0  0  0  0  0  0  0
   58.6850   29.5560   48.5690 C   0  0  0  0  0  0  0  0  0  0  0  0
   58.5130   29.8550   49.9230 C   0  0  0  0  0  0  0  0  0  0  0  0
   58.3950   31.1890   50.3490 C   0  0  0  0  0  0  0  0  0  0  0  0
   58.1840   31.5080   51.8120 C   0  0  0  0  0  0  0  0  0  0  0  0
   56.7770   31.8200   52.1260 N   0  0  0  0  0  0  0  0  0  0  0  0
   56.1090   30.7840   52.9390 C   0  0  0  0  0  0  0  0  0  0  0  0
   55.0740   30.0120   52.1050 C   0  0  0  0  0  0  0  0  0  0  0  0
   53.7410   30.7180   52.0670 C   0  0  0  0  0  0  0  0  0  0  0  0
   52.9790   30.8510   53.2440 C   0  0  0  0  0  0  0  0  0  0  0  0
   51.7540   31.5310   53.2200 C   0  0  0  0  0  0  0  0  0  0  0  0
   51.2830   32.0850   52.0230 C   0  0  0  0  0  0  0  0  0  0  0  0
   50.0640   32.7590   52.0000 O   0  0  0  0  0  0  0  0  0  0  0  0
   52.0390   31.9600   50.8490 C   0  0  0  0  0  0  0  0  0  0  0  0
   53.2620   31.2790   50.8690 C   0  0  0  0  0  0  0  0  0  0  0  0
   58.4720   32.2210   49.4030 C   0  0  0  0  0  0  0  0  0  0  0  0
   58.6330   31.9200   48.0470 C   0  0  0  0  0  0  0  0  0  0  0  0
   57.9600   32.8740   44.5790 C   0  0  0  0  0  0  0  0  0  0  0  0
   57.0770   33.2630   45.6130 C   0  0  0  0  0  0  0  0  0  0  0  0
   57.4730   34.2230   46.5540 C   0  0  0  0  0  0  0  0  0  0  0  0
   58.7380   34.8150   46.4620 C   0  0  0  0  0  0  0  0  0  0  0  0
   59.5970   34.4800   45.4080 C   0  0  0  0  0  0  0  0  0  0  0  0
   59.2030   33.5270   44.4610 C   0  0  0  0  0  0  0  0  0  0  0  0
   59.0745   32.7589   42.2715 H   0  0  0  0  0  0  0  0  0  0  0  0
   58.3035   31.2906   41.5813 H   0  0  0  0  0  0  0  0  0  0  0  0
   57.4188   32.8539   41.5813 H   0  0  0  0  0  0  0  0  0  0  0  0
   56.4383   31.9434   43.4115 H   0  0  0  0  0  0  0  0  0  0  0  0
   58.7979   28.5100   48.2478 H   0  0  0  0  0  0  0  0  0  0  0  0
   58.4696   29.0403   50.6609 H   0  0  0  0  0  0  0  0  0  0  0  0
   58.4945   30.6390   52.4107 H   0  0  0  0  0  0  0  0  0  0  0  0
   58.7843   32.3987   52.0493 H   0  0  0  0  0  0  0  0  0  0  0  0
   56.2500   31.9370   51.2270 H   0  0  0  0  0  0  0  0  0  0  0  0
   56.8651   30.0795   53.3159 H   0  0  0  0  0  0  0  0  0  0  0  0
   55.5895   31.2753   53.7749 H   0  0  0  0  0  0  0  0  0  0  0  0
   55.4512   29.9093   51.0768 H   0  0  0  0  0  0  0  0  0  0  0  0
   54.9249   29.0279   52.5734 H   0  0  0  0  0  0  0  0  0  0  0  0
   53.3471   30.4191   54.1863 H   0  0  0  0  0  0  0  0  0  0  0  0
   51.1620   31.6297   54.1418 H   0  0  0  0  0  0  0  0  0  0  0  0
   51.6703   32.3981   49.9098 H   0  0  0  0  0  0  0  0  0  0  0  0
   53.8505   31.1822   49.9447 H   0  0  0  0  0  0  0  0  0  0  0  0
   58.4056   33.2697   49.7283 H   0  0  0  0  0  0  0  0  0  0  0  0
   58.6966   32.7354   47.3114 H   0  0  0  0  0  0  0  0  0  0  0  0
   56.0765   32.8107   45.6788 H   0  0  0  0  0  0  0  0  0  0  0  0
   56.7890   34.5116   47.3657 H   0  0  0  0  0  0  0  0  0  0  0  0
   59.0582   35.5453   47.2197 H   0  0  0  0  0  0  0  0  0  0  0  0
   60.5806   34.9653   45.3242 H   0  0  0  0  0  0  0  0  0  0  0  0
   59.8685   33.2863   43.6189 H   0  0  0  0  0  0  0  0  0  0  0  0
  1  2  1  0
  2  3  1  0
  3  4  1  0
  4  5  2  0
  4  6  1  0
  6  7  1  0
  7  8  2  0
  8  9  1  0
  9 10  2  0
 10 11  1  0
 11 12  1  0
 12 13  1  0
 13 14  1  0
 14 15  1  0
 15 16  2  0
 16 17  1  0
 17 18  2  0
 18 19  1  0
 18 20  1  0
 20 21  2  0
 10 22  1  0
 22 23  2  0
  2 24  1  0
 24 25  2  0
 25 26  1  0
 26 27  2  0
 27 28  1  0
 28 29  2  0
 23  7  1  0
 29 24  1  0
 21 15  1  0
  1 30  1  0
  1 31  1  0
  1 32  1  0
  2 33  1  6
  8 34  1  0
  9 35  1  0
 11 36  1  0
 11 37  1  0
 12 38  1  0
 13 39  1  0
 13 40  1  0
 14 41  1  0
 14 42  1  0
 16 43  1  0
 17 44  1  0
 20 45  1  0
 21 46  1  0
 22 47  1  0
 23 48  1  0
 25 49  1  0
 26 50  1  0
 27 51  1  0
 28 52  1  0
 29 53  1  0
M  CHG  3   3  -1   6  -1  19  -1
M  END
>  <UniqueID>  (80) 
69

>  <SMILES>  (80) 
C[C@@H]([N-]C(=O)[N-]c1ccc(CNCCc2ccc([O-])cc2)cc1)c1ccccc1

>  <Energy>  (80) 
54.42212358059825

>  <Genealogy>  (80) 
CC([N-]C(=O)[N-]c1ccc(CNCCc2ccc([O-])cc2)cc1)c1ccccc1 (protonated)
C[C@@H]([N-]C(=O)[N-]c1ccc(CNCCc2ccc([O-])cc2)cc1)c1ccccc1 (chirality)
C[C@@H]([N-]C(=O)[N-]c1ccc(CNCCc2ccc([O-])cc2)cc1)c1ccccc1 (3D coordinates assigned)
C[C@@H]([N-]C(=O)[N-]c1ccc(CNCCc2ccc([O-])cc2)cc1)c1ccccc1 (optimized conformer: 54.42212358059825 kcal/mol)

>  <smiles>  (80) 
CC(NC(=O)Nc1ccc(CNCCc2ccc(O)cc2)cc1)c1ccccc1

>  <score_type>  (80) 
oracle

>  <origin>  (80) 
adg

>  <m_score__min__energy>  (80) 
-14.359999999999999

>  <m_primary>  (80) 
energy

$$$$
80:0
     RDKit          3D

 25 26  0  0  0  0  0  0  0  0999 V2000
   58.4823   34.5218   44.3239 H   0  0  0  0  0  0  0  0  0  0  0  0
   58.2910   33.5370   44.7750 C   0  0  0  0  0  0  0  0  0  0  0  0
   58.9410   33.1790   45.9830 C   0  0  0  0  0  0  0  0  0  0  0  0
   60.0590   34.3030   46.7440 S   0  0  0  0  0  0  0  0  0  0  0  0
   59.9680   35.6460   46.0760 O   0  0  0  0  0  0  0  0  0  0  0  0
   61.4650   33.7900   46.6070 O   0  0  0  0  0  0  0  0  0  0  0  0
   59.6590   34.4650   48.4180 N   0  0  0  0  0  0  0  0  0  0  0  0
   58.8890   33.7870   48.6150 H   0  0  0  0  0  0  0  0  0  0  0  0
   59.2560   35.4210   48.5440 H   0  0  0  0  0  0  0  0  0  0  0  0
   58.7050   31.9130   46.5590 C   0  0  0  0  0  0  0  0  0  0  0  0
   59.2046   31.6119   47.4916 H   0  0  0  0  0  0  0  0  0  0  0  0
   57.8200   31.0570   45.9100 C   0  0  0  0  0  0  0  0  0  0  0  0
   57.4530   29.8220   46.2790 N   0  0  0  0  0  0  0  0  0  0  0  0
   56.5890   29.4660   45.2910 C   0  0  0  0  0  0  0  0  0  0  0  0
   55.9760   28.3190   45.2410 N   0  0  0  0  0  0  0  0  0  0  0  0
   56.3510   27.0760   45.8610 C   0  0  0  0  0  0  0  0  0  0  0  0
   55.4370   26.2920   46.2310 O   0  0  0  0  0  0  0  0  0  0  0  0
   57.7770   26.6700   46.0870 C   0  0  0  0  0  0  0  0  0  0  0  0
   57.9753   26.6135   47.1675 H   0  0  0  0  0  0  0  0  0  0  0  0
   57.9548   25.6855   45.6296 H   0  0  0  0  0  0  0  0  0  0  0  0
   58.4467   27.4132   45.6296 H   0  0  0  0  0  0  0  0  0  0  0  0
   56.4010   30.4110   44.3340 N   0  0  0  0  0  0  0  0  0  0  0  0
   57.1940   31.4080   44.7530 C   0  0  0  0  0  0  0  0  0  0  0  0
   57.4030   32.6430   44.1480 C   0  0  0  0  0  0  0  0  0  0  0  0
   56.8918   32.9117   43.2118 H   0  0  0  0  0  0  0  0  0  0  0  0
  1  2  1  0
  2  3  2  0
  3  4  1  0
  4  5  2  0
  4  6  2  0
  4  7  1  0
  7  8  1  0
  7  9  1  0
  3 10  1  0
 10 11  1  0
 10 12  2  0
 12 13  1  0
 13 14  1  0
 14 15  2  0
 15 16  1  0
 16 17  2  0
 16 18  1  0
 18 19  1  0
 18 20  1  0
 18 21  1  0
 14 22  1  0
 22 23  1  0
 23 24  2  0
 24 25  1  0
 24  2  1  0
 23 12  1  0
M  CHG  2  13  -1  22  -1
M  END
>  <UniqueID>  (81) 
70

>  <SMILES>  (81) 
CC(=O)/N=c1/[n-]c2ccc(S(N)(=O)=O)cc2[n-]1

>  <Energy>  (81) 
61.04666805881029

>  <Genealogy>  (81) 
CC(=O)N=c1[n-]c2ccc(S(N)(=O)=O)cc2[n-]1 (protonated)
CC(=O)/N=c1/[n-]c2ccc(S(N)(=O)=O)cc2[n-]1 (cis-trans isomerization)
CC(=O)/N=c1/[n-]c2ccc(S(N)(=O)=O)cc2[n-]1 (3D coordinates assigned)
CC(=O)/N=c1/[n-]c2ccc(S(N)(=O)=O)cc2[n-]1 (optimized conformer: 61.04666805881029 kcal/mol)

>  <smiles>  (81) 
CC(=O)N=c1[nH]c2ccc(S(N)(=O)=O)cc2[nH]1

>  <score_type>  (81) 
oracle

>  <origin>  (81) 
adg

>  <m_score__min__energy>  (81) 
-10.130000000000001

>  <m_primary>  (81) 
energy

$$$$
81:0
     RDKit          3D

 62 66  0  0  0  0  0  0  0  0999 V2000
   63.0400   33.8100   46.4600 C   0  0  0  0  0  0  0  0  0  0  0  0
   61.6210   33.8260   46.9450 C   0  0  0  0  0  0  0  0  0  0  0  0
   61.3580   33.8830   48.3210 C   0  0  0  0  0  0  0  0  0  0  0  0
   60.0410   33.9000   48.7860 C   0  0  0  0  0  0  0  0  0  0  0  0
   58.9760   33.8820   47.8810 C   0  0  0  0  0  0  0  0  0  0  0  0
   59.2220   33.8610   46.5010 C   0  0  0  0  0  0  0  0  0  0  0  0
   58.0800   33.8450   45.5640 C   0  0  0  0  0  0  0  0  0  0  0  0
   57.7450   32.8120   44.7740 C   0  0  0  0  0  0  0  0  0  0  0  0
   57.9840   31.3890   45.0860 C   0  0  0  0  0  0  0  0  0  0  0  0
   59.2060   30.8970   45.4150 N   0  0  0  0  0  0  0  0  0  0  0  0
   58.9740   29.5890   45.6090 C   0  0  0  0  0  0  0  0  0  0  0  0
   59.8700   28.5860   45.9620 C   0  0  0  0  0  0  0  0  0  0  0  0
   59.3640   27.2750   46.0800 C   0  0  0  0  0  0  0  0  0  0  0  0
   57.9960   26.9970   45.8330 C   0  0  0  0  0  0  0  0  0  0  0  0
   57.5600   25.6660   45.9170 O   0  0  0  0  0  0  0  0  0  0  0  0
   56.5190   25.0920   45.1190 C   0  0  2  0  0  0  0  0  0  0  0  0
   55.3170   24.8120   45.9900 C   0  0  0  0  0  0  0  0  0  0  0  0
   54.1720   25.1160   45.5640 O   0  0  0  0  0  0  0  0  0  0  0  0
   55.4230   24.2420   47.3020 N   0  0  0  0  0  0  0  0  0  0  0  0
   56.3270   22.8280   47.7460 S   0  0  0  0  0  0  0  0  0  0  0  0
   57.7700   23.0500   47.3960 O   0  0  0  0  0  0  0  0  0  0  0  0
   56.2230   22.6080   49.2290 O   0  0  0  0  0  0  0  0  0  0  0  0
   55.7510   21.4200   46.8630 C   0  0  0  0  0  0  0  0  0  0  0  0
   56.6620   20.5100   46.3070 C   0  0  0  0  0  0  0  0  0  0  0  0
   56.1990   19.3950   45.6000 C   0  0  0  0  0  0  0  0  0  0  0  0
   54.8260   19.1900   45.4360 C   0  0  0  0  0  0  0  0  0  0  0  0
   53.9130   20.1000   45.9820 C   0  0  0  0  0  0  0  0  0  0  0  0
   54.3740   21.2130   46.6910 C   0  0  0  0  0  0  0  0  0  0  0  0
   57.0310   23.8210   44.4680 C   0  0  0  0  0  0  0  0  0  0  0  0
   56.1940   23.0470   43.6410 C   0  0  0  0  0  0  0  0  0  0  0  0
   56.6600   21.8520   43.0820 C   0  0  0  0  0  0  0  0  0  0  0  0
   57.9520   21.4040   43.3620 C   0  0  0  0  0  0  0  0  0  0  0  0
   58.7790   22.1470   44.2070 C   0  0  0  0  0  0  0  0  0  0  0  0
   58.3220   23.3450   44.7620 C   0  0  0  0  0  0  0  0  0  0  0  0
   57.1160   28.0610   45.5060 C   0  0  0  0  0  0  0  0  0  0  0  0
   57.6540   29.3360   45.4010 C   0  0  0  0  0  0  0  0  0  0  0  0
   57.0490   30.4520   45.0900 O   0  0  0  0  0  0  0  0  0  0  0  0
   60.5480   33.7930   46.0370 C   0  0  0  0  0  0  0  0  0  0  0  0
   63.7223   33.8023   47.3228 H   0  0  0  0  0  0  0  0  0  0  0  0
   63.2091   32.9099   45.8507 H   0  0  0  0  0  0  0  0  0  0  0  0
   63.2294   34.7061   45.8507 H   0  0  0  0  0  0  0  0  0  0  0  0
   62.1922   33.9145   49.0373 H   0  0  0  0  0  0  0  0  0  0  0  0
   59.8414   33.9276   49.8674 H   0  0  0  0  0  0  0  0  0  0  0  0
   57.9408   33.8843   48.2530 H   0  0  0  0  0  0  0  0  0  0  0  0
   57.4558   34.7491   45.5092 H   0  0  0  0  0  0  0  0  0  0  0  0
   57.2532   33.0448   43.8180 H   0  0  0  0  0  0  0  0  0  0  0  0
   60.1120   31.4100   45.4960 H   0  0  0  0  0  0  0  0  0  0  0  0
   60.9325   28.8066   46.1423 H   0  0  0  0  0  0  0  0  0  0  0  0
   60.0403   26.4566   46.3678 H   0  0  0  0  0  0  0  0  0  0  0  0
   56.2166   25.7920   44.3262 H   0  0  0  0  0  0  0  0  0  0  0  0
   57.7432   20.6733   46.4271 H   0  0  0  0  0  0  0  0  0  0  0  0
   56.9163   18.6788   45.1727 H   0  0  0  0  0  0  0  0  0  0  0  0
   54.4632   18.3141   44.8782 H   0  0  0  0  0  0  0  0  0  0  0  0
   52.8325   19.9391   45.8530 H   0  0  0  0  0  0  0  0  0  0  0  0
   53.6548   21.9289   47.1155 H   0  0  0  0  0  0  0  0  0  0  0  0
   55.1677   23.3840   43.4333 H   0  0  0  0  0  0  0  0  0  0  0  0
   56.0067   21.2642   42.4204 H   0  0  0  0  0  0  0  0  0  0  0  0
   58.3183   20.4668   42.9176 H   0  0  0  0  0  0  0  0  0  0  0  0
   59.7932   21.7880   44.4363 H   0  0  0  0  0  0  0  0  0  0  0  0
   58.9762   23.9202   45.4337 H   0  0  0  0  0  0  0  0  0  0  0  0
   56.0434   27.8813   45.3413 H   0  0  0  0  0  0  0  0  0  0  0  0
   60.7466   33.7136   44.9580 H   0  0  0  0  0  0  0  0  0  0  0  0
  1  2  1  0
  2  3  2  0
  3  4  1  0
  4  5  2  0
  5  6  1  0
  6  7  1  0
  7  8  2  3
  8  9  1  0
  9 10  2  0
 10 11  1  0
 11 12  2  0
 12 13  1  0
 13 14  2  0
 14 15  1  0
 15 16  1  0
 16 17  1  0
 17 18  2  0
 17 19  1  0
 19 20  1  0
 20 21  2  0
 20 22  2  0
 20 23  1  0
 23 24  2  0
 24 25  1  0
 25 26  2  0
 26 27  1  0
 27 28  2  0
 16 29  1  0
 29 30  2  0
 30 31  1  0
 31 32  2  0
 32 33  1  0
 33 34  2  0
 14 35  1  0
 35 36  2  0
 36 37  1  0
  6 38  2  0
 38  2  1  0
 37  9  1  0
 36 11  1  0
 28 23  1  0
 34 29  1  0
  1 39  1  0
  1 40  1  0
  1 41  1  0
  3 42  1  0
  4 43  1  0
  5 44  1  0
  7 45  1  0
  8 46  1  0
 10 47  1  0
 12 48  1  0
 13 49  1  0
 16 50  1  6
 24 51  1  0
 25 52  1  0
 26 53  1  0
 27 54  1  0
 28 55  1  0
 30 56  1  0
 31 57  1  0
 32 58  1  0
 33 59  1  0
 34 60  1  0
 35 61  1  0
 38 62  1  0
M  CHG  2  10   1  19  -1
M  END
>  <UniqueID>  (82) 
71

>  <SMILES>  (82) 
Cc1cccc(C=Cc2[nH+]c3ccc(O[C@H](C(=O)[N-]S(=O)(=O)c4ccccc4)c4ccccc4)cc3o2)c1

>  <Energy>  (82) 
111.1833287674187

>  <Genealogy>  (82) 
Cc1cccc(C=Cc2[nH+]c3ccc(OC(C(=O)[N-]S(=O)(=O)c4ccccc4)c4ccccc4)cc3o2)c1 (protonated)
Cc1cccc(C=Cc2[nH+]c3ccc(O[C@H](C(=O)[N-]S(=O)(=O)c4ccccc4)c4ccccc4)cc3o2)c1 (chirality)
Cc1cccc(C=Cc2[nH+]c3ccc(O[C@H](C(=O)[N-]S(=O)(=O)c4ccccc4)c4ccccc4)cc3o2)c1 (3D coordinates assigned)
Cc1cccc(C=Cc2[nH+]c3ccc(O[C@H](C(=O)[N-]S(=O)(=O)c4ccccc4)c4ccccc4)cc3o2)c1 (optimized conformer: 111.1833287674187 kcal/mol)

>  <smiles>  (82) 
Cc1cccc(C=Cc2nc3ccc(OC(C(=O)NS(=O)(=O)c4ccccc4)c4ccccc4)cc3o2)c1

>  <score_type>  (82) 
oracle

>  <origin>  (82) 
adg

>  <m_score__min__energy>  (82) 
-12.35

>  <m_primary>  (82) 
energy

$$$$
82:0
     RDKit          3D

 41 43  0  0  0  0  0  0  0  0999 V2000
   58.7630   24.6220   46.4560 O   0  0  0  0  0  0  0  0  0  0  0  0
   57.7990   25.4070   46.6620 C   0  0  0  0  0  0  0  0  0  0  0  0
   56.7120   24.9760   47.4910 N   0  0  0  0  0  0  0  0  0  0  0  0
   55.8100   23.8680   47.1840 C   0  0  0  0  0  0  0  0  0  0  0  0
   56.0480   23.3520   45.7890 C   0  0  0  0  0  0  0  0  0  0  0  0
   56.9310   22.2820   45.5650 C   0  0  0  0  0  0  0  0  0  0  0  0
   57.1160   21.7790   44.2740 C   0  0  0  0  0  0  0  0  0  0  0  0
   56.4300   22.3460   43.1960 C   0  0  0  0  0  0  0  0  0  0  0  0
   56.6080   21.8550   41.9450 F   0  0  0  0  0  0  0  0  0  0  0  0
   55.5590   23.4190   43.4090 C   0  0  0  0  0  0  0  0  0  0  0  0
   55.3690   23.9230   44.6990 C   0  0  0  0  0  0  0  0  0  0  0  0
   57.8030   26.7360   46.0200 C   0  0  0  0  0  0  0  0  0  0  0  0
   56.6010   27.3900   45.7000 C   0  0  0  0  0  0  0  0  0  0  0  0
   55.3560   26.8130   45.9630 O   0  0  0  0  0  0  0  0  0  0  0  0
   56.6510   28.6620   45.1220 C   0  0  0  0  0  0  0  0  0  0  0  0
   55.5760   29.2560   44.8340 O   0  0  0  0  0  0  0  0  0  0  0  0
   57.8630   29.2560   44.8820 N   0  0  0  0  0  0  0  0  0  0  0  0
   57.9550   30.5810   44.2590 C   0  0  0  0  0  0  0  0  0  0  0  0
   58.1210   31.6430   45.3150 C   0  0  0  0  0  0  0  0  0  0  0  0
   58.5320   31.2780   46.6080 C   0  0  0  0  0  0  0  0  0  0  0  0
   58.7160   32.2520   47.5930 C   0  0  0  0  0  0  0  0  0  0  0  0
   58.4950   33.5980   47.2950 C   0  0  0  0  0  0  0  0  0  0  0  0
   58.0910   33.9740   46.0110 C   0  0  0  0  0  0  0  0  0  0  0  0
   57.9050   33.0030   45.0200 C   0  0  0  0  0  0  0  0  0  0  0  0
   57.5120   33.3940   43.7810 F   0  0  0  0  0  0  0  0  0  0  0  0
   58.9990   28.6170   45.1770 N   0  0  0  0  0  0  0  0  0  0  0  0
   59.0130   27.3820   45.7360 C   0  0  0  0  0  0  0  0  0  0  0  0
   60.1170   26.8290   45.9890 O   0  0  0  0  0  0  0  0  0  0  0  0
   55.9818   23.0538   47.9034 H   0  0  0  0  0  0  0  0  0  0  0  0
   54.7733   24.2292   47.2530 H   0  0  0  0  0  0  0  0  0  0  0  0
   57.4790   21.8383   46.4093 H   0  0  0  0  0  0  0  0  0  0  0  0
   57.8023   20.9359   44.1061 H   0  0  0  0  0  0  0  0  0  0  0  0
   55.0223   23.8673   42.5599 H   0  0  0  0  0  0  0  0  0  0  0  0
   54.6856   24.7695   44.8615 H   0  0  0  0  0  0  0  0  0  0  0  0
   55.1480   26.3230   46.8250 H   0  0  0  0  0  0  0  0  0  0  0  0
   58.8210   30.6043   43.5812 H   0  0  0  0  0  0  0  0  0  0  0  0
   57.0310   30.7771   43.6953 H   0  0  0  0  0  0  0  0  0  0  0  0
   58.7100   30.2190   46.8464 H   0  0  0  0  0  0  0  0  0  0  0  0
   59.0352   31.9581   48.6038 H   0  0  0  0  0  0  0  0  0  0  0  0
   58.6390   34.3634   48.0718 H   0  0  0  0  0  0  0  0  0  0  0  0
   57.9188   35.0353   45.7786 H   0  0  0  0  0  0  0  0  0  0  0  0
  1  2  2  0
  2  3  1  0
  3  4  1  0
  4  5  1  0
  5  6  2  0
  6  7  1  0
  7  8  2  0
  8  9  1  0
  8 10  1  0
 10 11  2  0
  2 12  1  0
 12 13  2  0
 13 14  1  0
 13 15  1  0
 15 16  2  0
 15 17  1  0
 17 18  1  0
 18 19  1  0
 19 20  2  0
 20 21  1  0
 21 22  2  0
 22 23  1  0
 23 24  2  0
 24 25  1  0
 17 26  1  0
 26 27  1  0
 27 28  2  0
 11  5  1  0
 27 12  1  0
 24 19  1  0
  4 29  1  0
  4 30  1  0
  6 31  1  0
  7 32  1  0
 10 33  1  0
 11 34  1  0
 14 35  1  0
 18 36  1  0
 18 37  1  0
 20 38  1  0
 21 39  1  0
 22 40  1  0
 23 41  1  0
M  CHG  2   3  -1  26  -1
M  END
>  <UniqueID>  (83) 
72

>  <SMILES>  (83) 
O=C([N-]Cc1ccc(F)cc1)c1c(O)c(=O)n(Cc2ccccc2F)[n-]c1=O

>  <Energy>  (83) 
49.74678328904258

>  <Genealogy>  (83) 
O=C([N-]Cc1ccc(F)cc1)c1c(O)c(=O)n(Cc2ccccc2F)[n-]c1=O (protonated)
O=C([N-]Cc1ccc(F)cc1)c1c(O)c(=O)n(Cc2ccccc2F)[n-]c1=O (3D coordinates assigned)
O=C([N-]Cc1ccc(F)cc1)c1c(O)c(=O)n(Cc2ccccc2F)[n-]c1=O (optimized conformer: 49.74678328904258 kcal/mol)

>  <smiles>  (83) 
O=C(NCc1ccc(F)cc1)c1c(O)c(=O)n(Cc2ccccc2F)[nH]c1=O

>  <score_type>  (83) 
oracle

>  <origin>  (83) 
adg

>  <m_score__min__energy>  (83) 
-11.17

>  <m_primary>  (83) 
energy

$$$$
83:0
     RDKit          3D

 54 57  0  0  0  0  0  0  0  0999 V2000
   60.5070   30.0040   50.0560 C   0  0  0  0  0  0  0  0  0  0  0  0
   58.9230   30.5400   49.4430 S   0  0  0  0  0  0  0  0  0  0  0  0
   57.8850   30.2550   50.4910 O   0  0  0  0  0  0  0  0  0  0  0  0
   58.5670   29.7900   48.1900 O   0  0  0  0  0  0  0  0  0  0  0  0
   58.9490   32.2460   49.1260 N   0  0  0  0  0  0  0  0  0  0  0  0
   58.7390   32.8160   47.8240 C   0  0  0  0  0  0  0  0  0  0  0  0
   59.2840   34.0760   47.5300 C   0  0  0  0  0  0  0  0  0  0  0  0
   59.1130   34.6450   46.2660 C   0  0  0  0  0  0  0  0  0  0  0  0
   58.3960   33.9630   45.2810 C   0  0  0  0  0  0  0  0  0  0  0  0
   57.8430   32.7020   45.5590 C   0  0  0  0  0  0  0  0  0  0  0  0
   57.1060   31.9750   44.5650 N   0  0  0  0  0  0  0  0  0  0  0  0
   56.7310   30.5940   44.6500 C   0  0  0  0  0  0  0  0  0  0  0  0
   55.5200   30.2870   44.4900 O   0  0  0  0  0  0  0  0  0  0  0  0
   57.7150   29.5310   44.9740 C   0  0  0  0  0  0  0  0  0  0  0  0
   59.0380   29.6300   44.5080 C   0  0  0  0  0  0  0  0  0  0  0  0
   59.9660   28.6290   44.8050 C   0  0  0  0  0  0  0  0  0  0  0  0
   59.5870   27.5200   45.5630 C   0  0  0  0  0  0  0  0  0  0  0  0
   58.2700   27.4000   46.0340 C   0  0  0  0  0  0  0  0  0  0  0  0
   57.8580   26.1850   46.8240 C   0  0  0  0  0  0  0  0  0  0  0  0
   56.7400   25.4570   46.1230 C   0  0  0  0  0  0  0  0  0  0  0  0
   55.4700   25.8800   46.3700 N   0  0  0  0  0  0  0  0  0  0  0  0
   54.4060   25.2990   45.8200 N   0  0  0  0  0  0  0  0  0  0  0  0
   54.5270   24.2420   44.9820 C   0  0  0  0  0  0  0  0  0  0  0  0
   53.4940   23.7320   44.4730 O   0  0  0  0  0  0  0  0  0  0  0  0
   55.8020   23.7340   44.6940 C   0  0  0  0  0  0  0  0  0  0  0  0
   56.9310   24.3410   45.2700 C   0  0  0  0  0  0  0  0  0  0  0  0
   58.2880   23.8100   44.8540 C   0  0  0  0  0  0  0  0  0  0  0  0
   58.3220   22.2700   44.8610 C   0  0  0  0  0  0  0  0  0  0  0  0
   57.0290   21.5910   44.3430 C   0  0  0  0  0  0  0  0  0  0  0  0
   56.0070   22.5710   43.7530 C   0  0  0  0  0  0  0  0  0  0  0  0
   57.3360   28.4000   45.7200 C   0  0  0  0  0  0  0  0  0  0  0  0
   57.9930   32.1470   46.8340 C   0  0  0  0  0  0  0  0  0  0  0  0
   60.4950   30.0081   51.1559 H   0  0  0  0  0  0  0  0  0  0  0  0
   60.7143   28.9857   49.6953 H   0  0  0  0  0  0  0  0  0  0  0  0
   61.2900   30.6872   49.6953 H   0  0  0  0  0  0  0  0  0  0  0  0
   59.2880   32.8630   49.8970 H   0  0  0  0  0  0  0  0  0  0  0  0
   59.8500   34.6192   48.3010 H   0  0  0  0  0  0  0  0  0  0  0  0
   59.5442   35.6328   46.0460 H   0  0  0  0  0  0  0  0  0  0  0  0
   58.2640   34.4136   44.2863 H   0  0  0  0  0  0  0  0  0  0  0  0
   59.3435   30.4993   43.9071 H   0  0  0  0  0  0  0  0  0  0  0  0
   61.0000   28.7152   44.4399 H   0  0  0  0  0  0  0  0  0  0  0  0
   60.3239   26.7362   45.7924 H   0  0  0  0  0  0  0  0  0  0  0  0
   58.7207   25.5105   46.9279 H   0  0  0  0  0  0  0  0  0  0  0  0
   57.5079   26.5062   47.8161 H   0  0  0  0  0  0  0  0  0  0  0  0
   58.5150   24.1673   43.8387 H   0  0  0  0  0  0  0  0  0  0  0  0
   59.0350   24.1734   45.5751 H   0  0  0  0  0  0  0  0  0  0  0  0
   59.1586   21.9429   44.2261 H   0  0  0  0  0  0  0  0  0  0  0  0
   58.4321   21.9666   45.9126 H   0  0  0  0  0  0  0  0  0  0  0  0
   57.3064   20.8677   43.5620 H   0  0  0  0  0  0  0  0  0  0  0  0
   56.5497   21.1127   45.2099 H   0  0  0  0  0  0  0  0  0  0  0  0
   56.3770   22.9451   42.7870 H   0  0  0  0  0  0  0  0  0  0  0  0
   55.0489   22.0499   43.6097 H   0  0  0  0  0  0  0  0  0  0  0  0
   56.2953   28.2980   46.0614 H   0  0  0  0  0  0  0  0  0  0  0  0
   57.5242   31.1793   47.0658 H   0  0  0  0  0  0  0  0  0  0  0  0
  1  2  1  0
  2  3  2  0
  2  4  2  0
  2  5  1  0
  5  6  1  0
  6  7  2  0
  7  8  1  0
  8  9  2  0
  9 10  1  0
 10 11  1  0
 11 12  1  0
 12 13  2  0
 12 14  1  0
 14 15  2  0
 15 16  1  0
 16 17  2  0
 17 18  1  0
 18 19  1  0
 19 20  1  0
 20 21  2  0
 21 22  1  0
 22 23  1  0
 23 24  2  0
 23 25  1  0
 25 26  2  0
 26 27  1  0
 27 28  1  0
 28 29  1  0
 29 30  1  0
 18 31  2  0
 10 32  2  0
 32  6  1  0
 31 14  1  0
 26 20  1  0
 30 25  1  0
  1 33  1  0
  1 34  1  0
  1 35  1  0
  5 36  1  0
  7 37  1  0
  8 38  1  0
  9 39  1  0
 15 40  1  0
 16 41  1  0
 17 42  1  0
 19 43  1  0
 19 44  1  0
 27 45  1  0
 27 46  1  0
 28 47  1  0
 28 48  1  0
 29 49  1  0
 29 50  1  0
 30 51  1  0
 30 52  1  0
 31 53  1  0
 32 54  1  0
M  CHG  2  11  -1  22  -1
M  END
>  <UniqueID>  (84) 
73

>  <SMILES>  (84) 
CS(=O)(=O)Nc1cccc([N-]C(=O)c2cccc(Cc3n[n-]c(=O)c4c3CCCC4)c2)c1

>  <Energy>  (84) 
69.07203018361002

>  <Genealogy>  (84) 
CS(=O)(=O)Nc1cccc([N-]C(=O)c2cccc(Cc3n[n-]c(=O)c4c3CCCC4)c2)c1 (protonated)
CS(=O)(=O)Nc1cccc([N-]C(=O)c2cccc(Cc3n[n-]c(=O)c4c3CCCC4)c2)c1 (3D coordinates assigned)
CS(=O)(=O)Nc1cccc([N-]C(=O)c2cccc(Cc3n[n-]c(=O)c4c3CCCC4)c2)c1 (nonaromatic ring conformer: 69.07203018361002 kcal/mol)

>  <smiles>  (84) 
CS(=O)(=O)Nc1cccc(NC(=O)c2cccc(Cc3n[nH]c(=O)c4c3CCCC4)c2)c1

>  <score_type>  (84) 
oracle

>  <origin>  (84) 
adg

>  <m_score__min__energy>  (84) 
-14.539999999999999

>  <m_primary>  (84) 
energy

$$$$
84:0
     RDKit          3D

 31 32  0  0  0  0  0  0  0  0999 V2000
   55.7500   29.8580   43.7410 C   0  0  0  0  0  0  0  0  0  0  0  0
   55.8300   28.9230   44.8600 N   0  0  0  0  0  0  0  0  0  0  0  0
   57.0360   28.7770   45.6260 C   0  0  0  0  0  0  0  0  0  0  0  0
   57.8860   29.8860   45.7530 C   0  0  0  0  0  0  0  0  0  0  0  0
   59.0490   29.8240   46.5390 C   0  0  0  0  0  0  0  0  0  0  0  0
   59.9140   30.9740   46.6690 N   0  0  0  0  0  0  0  0  0  0  0  0
   59.6040   32.2710   46.4360 C   0  0  0  0  0  0  0  0  0  0  0  0
   60.6300   33.1100   46.6900 N   0  0  0  0  0  0  0  0  0  0  0  0
   61.6260   32.2950   47.0870 C   0  0  0  0  0  0  0  0  0  0  0  0
   62.9580   32.7760   47.5570 C   0  0  0  0  0  0  0  0  0  0  0  0
   61.1930   30.9880   47.0900 C   0  0  0  0  0  0  0  0  0  0  0  0
   59.3500   28.6240   47.2050 C   0  0  0  0  0  0  0  0  0  0  0  0
   58.5220   27.5080   47.0700 C   0  0  0  0  0  0  0  0  0  0  0  0
   57.3710   27.5610   46.2690 C   0  0  0  0  0  0  0  0  0  0  0  0
   56.5900   26.3240   46.0590 C   0  0  0  0  0  0  0  0  0  0  0  0
   57.2460   25.0710   45.8560 N   0  0  0  0  0  0  0  0  0  0  0  0
   55.3320   26.3720   46.0300 O   0  0  0  0  0  0  0  0  0  0  0  0
   55.6622   30.8845   44.1265 H   0  0  0  0  0  0  0  0  0  0  0  0
   56.6587   29.7734   43.1268 H   0  0  0  0  0  0  0  0  0  0  0  0
   54.8689   29.6203   43.1268 H   0  0  0  0  0  0  0  0  0  0  0  0
   55.1390   28.1390   44.8820 H   0  0  0  0  0  0  0  0  0  0  0  0
   57.6376   30.8202   45.2281 H   0  0  0  0  0  0  0  0  0  0  0  0
   58.6195   32.6058   46.0774 H   0  0  0  0  0  0  0  0  0  0  0  0
   62.9781   32.7832   48.6568 H   0  0  0  0  0  0  0  0  0  0  0  0
   63.7440   32.1049   47.1803 H   0  0  0  0  0  0  0  0  0  0  0  0
   63.1339   33.7944   47.1803 H   0  0  0  0  0  0  0  0  0  0  0  0
   61.7870   30.1102   47.3843 H   0  0  0  0  0  0  0  0  0  0  0  0
   60.2468   28.5632   47.8390 H   0  0  0  0  0  0  0  0  0  0  0  0
   58.7748   26.5765   47.5976 H   0  0  0  0  0  0  0  0  0  0  0  0
   58.2850   24.9890   45.9290 H   0  0  0  0  0  0  0  0  0  0  0  0
   56.6850   24.2080   45.6780 H   0  0  0  0  0  0  0  0  0  0  0  0
  1  2  1  0
  2  3  1  0
  3  4  2  0
  4  5  1  0
  5  6  1  0
  6  7  1  0
  7  8  2  0
  8  9  1  0
  9 10  1  0
  9 11  2  0
  5 12  2  0
 12 13  1  0
 13 14  2  0
 14 15  1  0
 15 16  1  0
 15 17  2  0
 14  3  1  0
 11  6  1  0
  1 18  1  0
  1 19  1  0
  1 20  1  0
  2 21  1  0
  4 22  1  0
  7 23  1  0
 10 24  1  0
 10 25  1  0
 10 26  1  0
 11 27  1  0
 12 28  1  0
 13 29  1  0
 16 30  1  0
 16 31  1  0
M  END
>  <UniqueID>  (85) 
74

>  <SMILES>  (85) 
CNc1cc(-n2cnc(C)c2)ccc1C(N)=O

>  <Energy>  (85) 
69.60810618687225

>  <Genealogy>  (85) 
CNc1cc(-n2cnc(C)c2)ccc1C(N)=O (3D coordinates assigned)
CNc1cc(-n2cnc(C)c2)ccc1C(N)=O (optimized conformer: 69.60810618687225 kcal/mol)

>  <smiles>  (85) 
CNc1cc(-n2cnc(C)c2)ccc1C(N)=O

>  <score_type>  (85) 
oracle

>  <origin>  (85) 
adg

>  <m_score__min__energy>  (85) 
-6.1100000000000003

>  <m_primary>  (85) 
energy

$$$$
85:0
     RDKit          3D

 64 67  0  0  0  0  0  0  0  0999 V2000
   60.3800   27.9610   50.5790 C   0  0  0  0  0  0  0  0  0  0  0  0
   59.7110   28.7030   49.5640 O   0  0  0  0  0  0  0  0  0  0  0  0
   59.9590   28.5730   48.1870 C   0  0  0  0  0  0  0  0  0  0  0  0
   59.7870   27.3480   47.5150 C   0  0  0  0  0  0  0  0  0  0  0  0
   60.0320   27.2550   46.1420 C   0  0  0  0  0  0  0  0  0  0  0  0
   60.4440   28.3780   45.4250 C   0  0  0  0  0  0  0  0  0  0  0  0
   60.6160   29.5990   46.0790 C   0  0  0  0  0  0  0  0  0  0  0  0
   60.3890   29.7050   47.4620 C   0  0  0  0  0  0  0  0  0  0  0  0
   60.5290   31.0500   48.1340 C   0  0  0  0  0  0  0  0  0  0  0  0
   60.9450   30.9280   49.5830 C   0  0  0  0  0  0  0  0  0  0  0  0
   62.0690   30.5320   49.8630 O   0  0  0  0  0  0  0  0  0  0  0  0
   59.9860   31.2270   50.6350 N   0  0  2  0  0  0  0  0  0  0  0  0
   58.7570   31.8550   50.0950 C   0  0  0  0  0  0  0  0  0  0  0  0
   57.6420   31.9430   51.1590 C   0  0  0  0  0  0  0  0  0  0  0  0
   58.1880   31.9350   52.5950 C   0  0  0  0  0  0  0  0  0  0  0  0
   59.5240   32.6720   52.6700 C   0  0  0  0  0  0  0  0  0  0  0  0
   60.5930   32.0070   51.7620 C   0  0  2  0  0  0  0  0  0  0  0  0
   61.5880   33.0580   51.3130 C   0  0  0  0  0  0  0  0  0  0  0  0
   62.6920   33.1670   51.9150 O   0  0  0  0  0  0  0  0  0  0  0  0
   61.2920   33.8910   50.1880 N   0  0  0  0  0  0  0  0  0  0  0  0
   61.8990   33.8210   48.8920 C   0  0  0  0  0  0  0  0  0  0  0  0
   63.2530   33.4740   48.7360 C   0  0  0  0  0  0  0  0  0  0  0  0
   63.8360   33.4620   47.4660 C   0  0  0  0  0  0  0  0  0  0  0  0
   63.0750   33.7960   46.3420 C   0  0  0  0  0  0  0  0  0  0  0  0
   61.7310   34.1500   46.4880 C   0  0  0  0  0  0  0  0  0  0  0  0
   61.1430   34.1760   47.7590 C   0  0  0  0  0  0  0  0  0  0  0  0
   59.4060   34.6260   47.9170 S   0  0  0  0  0  0  0  0  0  0  0  0
   59.1230   34.8160   46.1220 C   0  0  0  0  0  0  0  0  0  0  0  0
   58.5380   33.5600   45.5390 C   0  0  0  0  0  0  0  0  0  0  0  0
   58.2900   33.4590   44.1580 C   0  0  0  0  0  0  0  0  0  0  0  0
   57.7870   32.2710   43.6180 C   0  0  0  0  0  0  0  0  0  0  0  0
   57.5330   31.1740   44.4490 C   0  0  0  0  0  0  0  0  0  0  0  0
   56.8530   29.5500   43.7100 Br  0  0  0  0  0  0  0  0  0  0  0  0
   57.7800   31.2680   45.8240 C   0  0  0  0  0  0  0  0  0  0  0  0
   58.2780   32.4560   46.3680 C   0  0  0  0  0  0  0  0  0  0  0  0
   60.0573   28.3189   51.5678 H   0  0  0  0  0  0  0  0  0  0  0  0
   60.1327   26.8941   50.4766 H   0  0  0  0  0  0  0  0  0  0  0  0
   61.4668   28.0969   50.4766 H   0  0  0  0  0  0  0  0  0  0  0  0
   59.4580   26.4592   48.0734 H   0  0  0  0  0  0  0  0  0  0  0  0
   59.8994   26.2930   45.6254 H   0  0  0  0  0  0  0  0  0  0  0  0
   60.6334   28.3015   44.3441 H   0  0  0  0  0  0  0  0  0  0  0  0
   60.9315   30.4847   45.5079 H   0  0  0  0  0  0  0  0  0  0  0  0
   61.2884   31.6366   47.5963 H   0  0  0  0  0  0  0  0  0  0  0  0
   59.5462   31.5433   48.1068 H   0  0  0  0  0  0  0  0  0  0  0  0
   59.6930   30.2980   51.0270 H   0  0  0  0  0  0  0  0  0  0  0  0
   58.9991   32.8705   49.7483 H   0  0  0  0  0  0  0  0  0  0  0  0
   58.3902   31.2309   49.2668 H   0  0  0  0  0  0  0  0  0  0  0  0
   57.0792   32.8750   51.0021 H   0  0  0  0  0  0  0  0  0  0  0  0
   57.0023   31.0557   51.0428 H   0  0  0  0  0  0  0  0  0  0  0  0
   57.4646   32.4308   53.2589 H   0  0  0  0  0  0  0  0  0  0  0  0
   58.3420   30.8919   52.9085 H   0  0  0  0  0  0  0  0  0  0  0  0
   59.3767   33.7126   52.3453 H   0  0  0  0  0  0  0  0  0  0  0  0
   59.8817   32.6327   53.7095 H   0  0  0  0  0  0  0  0  0  0  0  0
   61.1417   31.2516   52.3436 H   0  0  0  0  0  0  0  0  0  0  0  0
   63.8558   33.2108   49.6177 H   0  0  0  0  0  0  0  0  0  0  0  0
   64.8954   33.1893   47.3506 H   0  0  0  0  0  0  0  0  0  0  0  0
   63.5341   33.7802   45.3425 H   0  0  0  0  0  0  0  0  0  0  0  0
   61.1329   34.4091   45.6019 H   0  0  0  0  0  0  0  0  0  0  0  0
   58.4268   35.6506   45.9528 H   0  0  0  0  0  0  0  0  0  0  0  0
   60.0871   35.0170   45.6319 H   0  0  0  0  0  0  0  0  0  0  0  0
   58.4924   34.3174   43.5006 H   0  0  0  0  0  0  0  0  0  0  0  0
   57.5907   32.1987   42.5381 H   0  0  0  0  0  0  0  0  0  0  0  0
   57.5819   30.4056   46.4775 H   0  0  0  0  0  0  0  0  0  0  0  0
   58.4669   32.5264   47.4494 H   0  0  0  0  0  0  0  0  0  0  0  0
  1  2  1  0
  2  3  1  0
  3  4  2  0
  4  5  1  0
  5  6  2  0
  6  7  1  0
  7  8  2  0
  8  9  1  0
  9 10  1  0
 10 11  2  0
 10 12  1  0
 12 13  1  0
 13 14  1  0
 14 15  1  0
 15 16  1  0
 16 17  1  0
 17 18  1  0
 18 19  2  0
 18 20  1  0
 20 21  1  0
 21 22  2  0
 22 23  1  0
 23 24  2  0
 24 25  1  0
 25 26  2  0
 26 27  1  0
 27 28  1  0
 28 29  1  0
 29 30  2  0
 30 31  1  0
 31 32  2  0
 32 33  1  0
 32 34  1  0
 34 35  2  0
  8  3  1  0
 17 12  1  0
 26 21  1  0
 35 29  1  0
  1 36  1  0
  1 37  1  0
  1 38  1  0
  4 39  1  0
  5 40  1  0
  6 41  1  0
  7 42  1  0
  9 43  1  0
  9 44  1  0
 12 45  1  1
 13 46  1  0
 13 47  1  0
 14 48  1  0
 14 49  1  0
 15 50  1  0
 15 51  1  0
 16 52  1  0
 16 53  1  0
 17 54  1  1
 22 55  1  0
 23 56  1  0
 24 57  1  0
 25 58  1  0
 28 59  1  0
 28 60  1  0
 30 61  1  0
 31 62  1  0
 34 63  1  0
 35 64  1  0
M  CHG  2  12   1  20  -1
M  END
>  <UniqueID>  (86) 
75

>  <SMILES>  (86) 
COc1ccccc1CC(=O)[N@@H+]1CCCC[C@@H]1C(=O)[N-]c1ccccc1SCc1ccc(Br)cc1

>  <Energy>  (86) 
75.04065669783378

>  <Genealogy>  (86) 
COc1ccccc1CC(=O)[NH+]1CCCCC1C(=O)[N-]c1ccccc1SCc1ccc(Br)cc1 (protonated)
COc1ccccc1CC(=O)[N@@H+]1CCCC[C@@H]1C(=O)[N-]c1ccccc1SCc1ccc(Br)cc1 (chirality)
COc1ccccc1CC(=O)[N@@H+]1CCCC[C@@H]1C(=O)[N-]c1ccccc1SCc1ccc(Br)cc1 (3D coordinates assigned)
COc1ccccc1CC(=O)[N@@H+]1CCCC[C@@H]1C(=O)[N-]c1ccccc1SCc1ccc(Br)cc1 (nonaromatic ring conformer: 75.04065669783378 kcal/mol)

>  <smiles>  (86) 
COc1ccccc1CC(=O)N1CCCCC1C(=O)Nc1ccccc1SCc1ccc(Br)cc1

>  <score_type>  (86) 
oracle

>  <origin>  (86) 
adg

>  <m_score__min__energy>  (86) 
-8.5899999999999999

>  <m_primary>  (86) 
energy

$$$$
86:0
     RDKit          3D

 61 64  0  0  0  0  0  0  0  0999 V2000
   60.5510   29.7410   50.4810 C   0  0  0  0  0  0  0  0  0  0  0  0
   59.1100   29.8380   49.9690 C   0  0  2  0  0  0  0  0  0  0  0  0
   59.0950   30.1990   48.5470 N   0  0  0  0  0  0  0  0  0  0  0  0
   58.4890   29.4980   47.4490 C   0  0  0  0  0  0  0  0  0  0  0  0
   58.4410   28.2410   47.4890 O   0  0  0  0  0  0  0  0  0  0  0  0
   57.8320   30.1870   46.3310 C   0  0  0  0  0  0  0  0  0  0  0  0
   56.9360   29.5760   45.5340 N   0  0  0  0  0  0  0  0  0  0  0  0
   56.5280   30.4390   44.6170 N   0  0  0  0  0  0  0  0  0  0  0  0
   57.1590   31.6100   44.8170 C   0  0  0  0  0  0  0  0  0  0  0  0
   58.0170   31.4930   45.8960 C   0  0  0  0  0  0  0  0  0  0  0  0
   58.8980   32.5590   46.4330 C   0  0  0  0  0  0  0  0  0  0  0  0
   58.4070   33.8470   46.7140 C   0  0  0  0  0  0  0  0  0  0  0  0
   59.2620   34.8400   47.2060 C   0  0  0  0  0  0  0  0  0  0  0  0
   60.6120   34.5590   47.4260 C   0  0  0  0  0  0  0  0  0  0  0  0
   61.1080   33.2810   47.1630 C   0  0  0  0  0  0  0  0  0  0  0  0
   60.2580   32.2860   46.6740 C   0  0  0  0  0  0  0  0  0  0  0  0
   58.2440   30.7620   50.7920 C   0  0  0  0  0  0  0  0  0  0  0  0
   58.7740   31.9490   51.3170 C   0  0  0  0  0  0  0  0  0  0  0  0
   57.9680   32.7700   52.1050 C   0  0  0  0  0  0  0  0  0  0  0  0
   56.6460   32.4070   52.3680 C   0  0  0  0  0  0  0  0  0  0  0  0
   56.1390   31.2130   51.8300 C   0  0  0  0  0  0  0  0  0  0  0  0
   54.7510   30.7800   52.0920 C   0  0  0  0  0  0  0  0  0  0  0  0
   54.5350   29.7760   52.8250 O   0  0  0  0  0  0  0  0  0  0  0  0
   53.6450   31.4970   51.5150 N   0  0  0  0  0  0  0  0  0  0  0  0
   52.2530   31.1640   51.8280 C   0  0  1  0  0  0  0  0  0  0  0  0
   52.0860   31.0020   53.3540 C   0  0  0  0  0  0  0  0  0  0  0  0
   50.9430   30.0520   53.7540 C   0  0  0  0  0  0  0  0  0  0  0  0
   51.2520   28.6160   53.4110 C   0  0  0  0  0  0  0  0  0  0  0  0
   52.4600   28.0290   53.8230 C   0  0  0  0  0  0  0  0  0  0  0  0
   52.7310   26.6920   53.5220 C   0  0  0  0  0  0  0  0  0  0  0  0
   51.7990   25.9310   52.8120 C   0  0  0  0  0  0  0  0  0  0  0  0
   50.5940   26.5050   52.4030 C   0  0  0  0  0  0  0  0  0  0  0  0
   50.3190   27.8420   52.7030 C   0  0  0  0  0  0  0  0  0  0  0  0
   51.3390   32.2280   51.2790 C   0  0  0  0  0  0  0  0  0  0  0  0
   51.5130   32.6840   50.1180 O   0  0  0  0  0  0  0  0  0  0  0  0
   50.2850   32.7010   52.0490 O   0  0  0  0  0  0  0  0  0  0  0  0
   56.9500   30.4340   51.0640 N   0  0  0  0  0  0  0  0  0  0  0  0
   60.5501   29.7411   51.5810 H   0  0  0  0  0  0  0  0  0  0  0  0
   61.0084   28.8100   50.1148 H   0  0  0  0  0  0  0  0  0  0  0  0
   61.1290   30.6023   50.1148 H   0  0  0  0  0  0  0  0  0  0  0  0
   58.6618   28.8399   50.0823 H   0  0  0  0  0  0  0  0  0  0  0  0
   57.0151   32.5198   44.2157 H   0  0  0  0  0  0  0  0  0  0  0  0
   57.3441   34.0753   46.5460 H   0  0  0  0  0  0  0  0  0  0  0  0
   58.8692   35.8449   47.4200 H   0  0  0  0  0  0  0  0  0  0  0  0
   61.2833   35.3433   47.8058 H   0  0  0  0  0  0  0  0  0  0  0  0
   62.1701   33.0569   47.3411 H   0  0  0  0  0  0  0  0  0  0  0  0
   60.6551   31.2796   46.4754 H   0  0  0  0  0  0  0  0  0  0  0  0
   59.8169   32.2304   51.1091 H   0  0  0  0  0  0  0  0  0  0  0  0
   58.3743   33.7044   52.5196 H   0  0  0  0  0  0  0  0  0  0  0  0
   56.0072   33.0503   52.9910 H   0  0  0  0  0  0  0  0  0  0  0  0
   53.8420   32.3150   50.8960 H   0  0  0  0  0  0  0  0  0  0  0  0
   51.9819   30.2087   51.3548 H   0  0  0  0  0  0  0  0  0  0  0  0
   53.0262   30.6070   53.7662 H   0  0  0  0  0  0  0  0  0  0  0  0
   51.8351   31.9943   53.7570 H   0  0  0  0  0  0  0  0  0  0  0  0
   50.7801   30.1303   54.8391 H   0  0  0  0  0  0  0  0  0  0  0  0
   50.0444   30.3483   53.1930 H   0  0  0  0  0  0  0  0  0  0  0  0
   53.1951   28.6242   54.3846 H   0  0  0  0  0  0  0  0  0  0  0  0
   53.6795   26.2378   53.8445 H   0  0  0  0  0  0  0  0  0  0  0  0
   52.0149   24.8787   52.5751 H   0  0  0  0  0  0  0  0  0  0  0  0
   49.8607   25.9048   51.8444 H   0  0  0  0  0  0  0  0  0  0  0  0
   49.3668   28.2901   52.3828 H   0  0  0  0  0  0  0  0  0  0  0  0
  1  2  1  0
  2  3  1  0
  3  4  1  0
  4  5  2  0
  4  6  1  0
  6  7  2  0
  7  8  1  0
  8  9  1  0
  9 10  2  0
 10 11  1  0
 11 12  2  0
 12 13  1  0
 13 14  2  0
 14 15  1  0
 15 16  2  0
  2 17  1  0
 17 18  2  0
 18 19  1  0
 19 20  2  0
 20 21  1  0
 21 22  1  0
 22 23  2  0
 22 24  1  0
 24 25  1  0
 25 26  1  0
 26 27  1  0
 27 28  1  0
 28 29  2  0
 29 30  1  0
 30 31  2  0
 31 32  1  0
 32 33  2  0
 25 34  1  0
 34 35  2  0
 34 36  1  0
 21 37  2  0
 10  6  1  0
 16 11  1  0
 37 17  1  0
 33 28  1  0
  1 38  1  0
  1 39  1  0
  1 40  1  0
  2 41  1  6
  9 42  1  0
 12 43  1  0
 13 44  1  0
 14 45  1  0
 15 46  1  0
 16 47  1  0
 18 48  1  0
 19 49  1  0
 20 50  1  0
 24 51  1  0
 25 52  1  6
 26 53  1  0
 26 54  1  0
 27 55  1  0
 27 56  1  0
 29 57  1  0
 30 58  1  0
 31 59  1  0
 32 60  1  0
 33 61  1  0
M  CHG  3   3  -1   8  -1  36  -1
M  END
>  <UniqueID>  (87) 
76

>  <SMILES>  (87) 
C[C@H]([N-]C(=O)c1n[n-]cc1-c1ccccc1)c1cccc(C(=O)N[C@@H](CCc2ccccc2)C(=O)[O-])n1

>  <Energy>  (87) 
96.57213036640809

>  <Genealogy>  (87) 
CC([N-]C(=O)c1n[n-]cc1-c1ccccc1)c1cccc(C(=O)NC(CCc2ccccc2)C(=O)[O-])n1 (protonated)
C[C@H]([N-]C(=O)c1n[n-]cc1-c1ccccc1)c1cccc(C(=O)N[C@@H](CCc2ccccc2)C(=O)[O-])n1 (chirality)
C[C@H]([N-]C(=O)c1n[n-]cc1-c1ccccc1)c1cccc(C(=O)N[C@@H](CCc2ccccc2)C(=O)[O-])n1 (3D coordinates assigned)
C[C@H]([N-]C(=O)c1n[n-]cc1-c1ccccc1)c1cccc(C(=O)N[C@@H](CCc2ccccc2)C(=O)[O-])n1 (optimized conformer: 96.57213036640809 kcal/mol)

>  <smiles>  (87) 
CC(NC(=O)c1n[nH]cc1-c1ccccc1)c1cccc(C(=O)NC(CCc2ccccc2)C(=O)O)n1

>  <score_type>  (87) 
oracle

>  <origin>  (87) 
adg

>  <m_score__min__energy>  (87) 
-15.84

>  <m_primary>  (87) 
energy

$$$$
87:0
     RDKit          3D

 47 51  0  0  0  0  0  0  0  0999 V2000
   54.7700   27.4630   46.3590 H   0  0  0  0  0  0  0  0  0  0  0  0
   55.1500   26.6950   45.8200 O   0  0  0  0  0  0  0  0  0  0  0  0
   56.0840   25.8290   46.3800 C   0  0  0  0  0  0  0  0  0  0  0  0
   55.7580   24.7560   47.1200 N   0  0  0  0  0  0  0  0  0  0  0  0
   56.9640   24.2770   47.4960 C   0  0  0  0  0  0  0  0  0  0  0  0
   57.0910   23.2560   48.2200 O   0  0  0  0  0  0  0  0  0  0  0  0
   58.0210   24.9850   47.0420 N   0  0  0  0  0  0  0  0  0  0  0  0
   57.4550   25.9600   46.3110 C   0  0  0  0  0  0  0  0  0  0  0  0
   58.2270   27.0370   45.6690 C   0  0  0  0  0  0  0  0  0  0  0  0
   59.1921   26.7771   45.2095 H   0  0  0  0  0  0  0  0  0  0  0  0
   57.8260   28.3150   45.6100 C   0  0  0  0  0  0  0  0  0  0  0  0
   56.9540   28.9300   44.7110 C   0  0  0  0  0  0  0  0  0  0  0  0
   56.4117   28.4166   43.9033 H   0  0  0  0  0  0  0  0  0  0  0  0
   56.8760   30.2550   44.9830 N   0  0  0  0  0  0  0  0  0  0  0  0
   57.6670   30.4900   46.0180 N   0  0  0  0  0  0  0  0  0  0  0  0
   57.9310   31.6690   46.6500 C   0  0  0  0  0  0  0  0  0  0  0  0
   57.3890   32.8030   46.3040 N   0  0  0  0  0  0  0  0  0  0  0  0
   58.0610   33.9230   45.6510 C   0  0  0  0  0  0  0  0  0  0  0  0
   57.2437   34.2156   44.9755 H   0  0  0  0  0  0  0  0  0  0  0  0
   59.5590   33.7350   45.4910 C   0  0  0  0  0  0  0  0  0  0  0  0
   60.0247   32.7748   45.7577 H   0  0  0  0  0  0  0  0  0  0  0  0
   60.2742   33.8515   44.6634 H   0  0  0  0  0  0  0  0  0  0  0  0
   59.0160   34.6470   46.5820 C   0  0  0  0  0  0  0  0  0  0  0  0
   59.0893   34.3462   47.6375 H   0  0  0  0  0  0  0  0  0  0  0  0
   59.1761   35.6964   46.8702 H   0  0  0  0  0  0  0  0  0  0  0  0
   58.8130   31.6500   47.6870 N   0  0  0  0  0  0  0  0  0  0  0  0
   59.4110   30.4870   48.0850 C   0  0  0  0  0  0  0  0  0  0  0  0
   60.2540   30.5120   49.0730 N   0  0  0  0  0  0  0  0  0  0  0  0
   60.7230   31.7250   49.7460 C   0  0  0  0  0  0  0  0  0  0  0  0
   61.0106   31.4751   50.7779 H   0  0  0  0  0  0  0  0  0  0  0  0
   59.9091   32.4650   49.7403 H   0  0  0  0  0  0  0  0  0  0  0  0
   61.9180   32.3180   49.0290 C   0  0  0  0  0  0  0  0  0  0  0  0
   61.7410   32.8250   47.7300 C   0  0  0  0  0  0  0  0  0  0  0  0
   60.7525   32.7618   47.2517 H   0  0  0  0  0  0  0  0  0  0  0  0
   62.8040   33.4070   47.0410 C   0  0  0  0  0  0  0  0  0  0  0  0
   62.6502   33.8013   46.0257 H   0  0  0  0  0  0  0  0  0  0  0  0
   64.0600   33.4900   47.6360 C   0  0  0  0  0  0  0  0  0  0  0  0
   64.8965   33.9474   47.0873 H   0  0  0  0  0  0  0  0  0  0  0  0
   64.2630   32.9950   48.9270 C   0  0  0  0  0  0  0  0  0  0  0  0
   65.5320   33.1010   49.4900 O   0  0  0  0  0  0  0  0  0  0  0  0
   63.1990   32.3990   49.6390 C   0  0  0  0  0  0  0  0  0  0  0  0
   63.4260   31.8650   51.0340 C   0  0  0  0  0  0  0  0  0  0  0  0
   63.1065   32.6167   51.7708 H   0  0  0  0  0  0  0  0  0  0  0  0
   62.8418   30.9434   51.1734 H   0  0  0  0  0  0  0  0  0  0  0  0
   64.4950   31.6461   51.1734 H   0  0  0  0  0  0  0  0  0  0  0  0
   59.1250   29.3180   47.4380 N   0  0  0  0  0  0  0  0  0  0  0  0
   58.2500   29.3530   46.4070 C   0  0  0  0  0  0  0  0  0  0  0  0
  1  2  1  0
  2  3  1  0
  3  4  1  0
  4  5  1  0
  5  6  2  0
  5  7  1  0
  7  8  1  0
  8  9  1  0
  9 10  1  0
  9 11  2  0
 11 12  1  0
 12 13  1  0
 12 14  2  0
 14 15  1  0
 15 16  1  0
 16 17  2  3
 17 18  1  0
 18 19  1  0
 18 20  1  0
 20 21  1  0
 20 22  1  0
 20 23  1  0
 23 24  1  0
 23 25  1  0
 16 26  1  0
 26 27  1  0
 27 28  2  3
 28 29  1  0
 29 30  1  0
 29 31  1  0
 29 32  1  0
 32 33  2  0
 33 34  1  0
 33 35  1  0
 35 36  1  0
 35 37  2  0
 37 38  1  0
 37 39  1  0
 39 40  1  0
 39 41  2  0
 41 42  1  0
 42 43  1  0
 42 44  1  0
 42 45  1  0
 27 46  1  0
 46 47  2  0
  8  3  2  0
 47 11  1  0
 47 15  1  0
 23 18  1  0
 41 32  1  0
M  CHG  4   4  -1   7  -1  26  -1  40  -1
M  END
>  <UniqueID>  (88) 
77

>  <SMILES>  (88) 
Cc1c([O-])cccc1CN=c1nc2/c(=C/c3[n-]c(=O)[n-]c3O)cnn2c(=NC2CC2)[n-]1

>  <Energy>  (88) 
392.8141137993893

>  <Genealogy>  (88) 
Cc1c([O-])cccc1CN=c1nc2c(=Cc3[n-]c(=O)[n-]c3O)cnn2c(=NC2CC2)[n-]1 (protonated)
Cc1c([O-])cccc1CN=c1nc2/c(=C/c3[n-]c(=O)[n-]c3O)cnn2c(=NC2CC2)[n-]1 (cis-trans isomerization)
Cc1c([O-])cccc1CN=c1nc2/c(=C/c3[n-]c(=O)[n-]c3O)cnn2c(=NC2CC2)[n-]1 (3D coordinates assigned)
Cc1c([O-])cccc1CN=c1nc2/c(=C/c3[n-]c(=O)[n-]c3O)cnn2c(=NC2CC2)[n-]1 (nonaromatic ring conformer: 392.8141137993893 kcal/mol)

>  <smiles>  (88) 
Cc1c(O)cccc1CN=c1nc2c(=Cc3[nH]c(=O)[nH]c3O)cnn2c(=NC2CC2)[nH]1

>  <score_type>  (88) 
oracle

>  <origin>  (88) 
adg

>  <m_score__min__energy>  (88) 
-15.69

>  <m_primary>  (88) 
energy

$$$$
88:0
     RDKit          3D

 23 24  0  0  0  0  0  0  0  0999 V2000
   57.9146   24.6371   46.9172 H   0  0  0  0  0  0  0  0  0  0  0  0
   57.5640   25.5990   46.5150 C   0  0  0  0  0  0  0  0  0  0  0  0
   58.5060   26.9750   46.2780 S   0  0  0  0  0  0  0  0  0  0  0  0
   57.2300   27.8750   45.6630 C   0  0  0  0  0  0  0  0  0  0  0  0
   57.3520   29.1200   45.3010 N   0  0  0  0  0  0  0  0  0  0  0  0
   56.3220   30.0200   44.8630 C   0  0  0  0  0  0  0  0  0  0  0  0
   55.1410   29.6170   44.6920 O   0  0  0  0  0  0  0  0  0  0  0  0
   56.6490   31.3620   44.4920 N   0  0  0  0  0  0  0  0  0  0  0  0
   57.5760   32.2250   45.1680 C   0  0  0  0  0  0  0  0  0  0  0  0
   57.4950   33.6260   45.0690 C   0  0  0  0  0  0  0  0  0  0  0  0
   56.6925   34.0886   44.4756 H   0  0  0  0  0  0  0  0  0  0  0  0
   58.4320   34.4320   45.7230 C   0  0  0  0  0  0  0  0  0  0  0  0
   58.3582   35.5273   45.6525 H   0  0  0  0  0  0  0  0  0  0  0  0
   59.4620   33.8490   46.4660 C   0  0  0  0  0  0  0  0  0  0  0  0
   60.1932   34.4852   46.9862 H   0  0  0  0  0  0  0  0  0  0  0  0
   59.5630   32.4570   46.5480 C   0  0  0  0  0  0  0  0  0  0  0  0
   60.8640   31.7240   47.4680 Cl  0  0  0  0  0  0  0  0  0  0  0  0
   58.6270   31.6480   45.8930 C   0  0  0  0  0  0  0  0  0  0  0  0
   58.7171   30.5531   45.9478 H   0  0  0  0  0  0  0  0  0  0  0  0
   56.0810   27.1560   45.6440 N   0  0  0  0  0  0  0  0  0  0  0  0
   55.1440   27.5020   45.3510 H   0  0  0  0  0  0  0  0  0  0  0  0
   56.2650   25.8920   46.1130 C   0  0  0  0  0  0  0  0  0  0  0  0
   55.4482   25.1574   46.1699 H   0  0  0  0  0  0  0  0  0  0  0  0
  1  2  1  0
  2  3  1  0
  3  4  1  0
  4  5  2  0
  5  6  1  0
  6  7  2  0
  6  8  1  0
  8  9  1  0
  9 10  2  0
 10 11  1  0
 10 12  1  0
 12 13  1  0
 12 14  2  0
 14 15  1  0
 14 16  1  0
 16 17  1  0
 16 18  2  0
 18 19  1  0
  4 20  1  0
 20 21  1  0
 20 22  1  0
 22 23  1  0
 22  2  2  0
 18  9  1  0
M  CHG  1   8  -1
M  END
>  <UniqueID>  (89) 
78

>  <SMILES>  (89) 
O=C(/N=c1\[nH]ccs1)[N-]c1cccc(Cl)c1

>  <Energy>  (89) 
61.351520716427245

>  <Genealogy>  (89) 
O=C(N=c1[nH]ccs1)[N-]c1cccc(Cl)c1 (protonated)
O=C(/N=c1\[nH]ccs1)[N-]c1cccc(Cl)c1 (cis-trans isomerization)
O=C(/N=c1\[nH]ccs1)[N-]c1cccc(Cl)c1 (3D coordinates assigned)
O=C(/N=c1\[nH]ccs1)[N-]c1cccc(Cl)c1 (optimized conformer: 61.351520716427245 kcal/mol)

>  <smiles>  (89) 
O=C(N=c1[nH]ccs1)Nc1cccc(Cl)c1

>  <score_type>  (89) 
oracle

>  <origin>  (89) 
adg

>  <m_score__min__energy>  (89) 
-8.2400000000000002

>  <m_primary>  (89) 
energy

$$$$
89:0
     RDKit          3D

 51 54  0  0  0  0  0  0  0  0999 V2000
   63.2250   33.9740   51.2850 O   0  0  0  0  0  0  0  0  0  0  0  0
   62.4550   33.6590   50.0310 S   0  0  0  0  0  0  0  0  0  0  0  0
   62.1380   34.9670   49.3580 O   0  0  0  0  0  0  0  0  0  0  0  0
   60.9290   32.8680   50.4780 C   0  0  0  0  0  0  0  0  0  0  0  0
   60.9500   31.7720   51.3590 C   0  0  0  0  0  0  0  0  0  0  0  0
   59.7590   31.1500   51.7430 C   0  0  0  0  0  0  0  0  0  0  0  0
   58.5390   31.6040   51.2440 C   0  0  0  0  0  0  0  0  0  0  0  0
   58.5070   32.6670   50.3410 C   0  0  0  0  0  0  0  0  0  0  0  0
   59.6990   33.2960   49.9360 C   0  0  0  0  0  0  0  0  0  0  0  0
   59.6690   34.3650   49.0280 O   0  0  0  0  0  0  0  0  0  0  0  0
   59.1240   34.3040   47.7330 C   0  0  0  0  0  0  0  0  0  0  0  0
   59.7810   34.9790   46.6940 C   0  0  0  0  0  0  0  0  0  0  0  0
   59.3030   34.8930   45.3790 C   0  0  0  0  0  0  0  0  0  0  0  0
   58.1650   34.1330   45.0960 C   0  0  0  0  0  0  0  0  0  0  0  0
   57.5010   33.4610   46.1290 C   0  0  0  0  0  0  0  0  0  0  0  0
   57.9780   33.5400   47.4400 C   0  0  0  0  0  0  0  0  0  0  0  0
   63.4770   32.6750   48.9930 N   0  0  0  0  0  0  0  0  0  0  0  0
   63.1580   31.2390   49.0600 C   0  0  0  0  0  0  0  0  0  0  0  0
   61.9500   30.8750   48.2420 C   0  0  0  0  0  0  0  0  0  0  0  0
   61.5540   31.6110   47.1980 C   0  0  0  0  0  0  0  0  0  0  0  0
   60.3960   31.2040   46.4450 C   0  0  0  0  0  0  0  0  0  0  0  0
   59.4280   30.8730   45.8070 C   0  0  0  0  0  0  0  0  0  0  0  0
   58.2700   30.4780   45.0500 C   0  0  0  0  0  0  0  0  0  0  0  0
   58.0230   31.0510   43.7960 C   0  0  0  0  0  0  0  0  0  0  0  0
   56.8910   30.6740   43.0610 C   0  0  0  0  0  0  0  0  0  0  0  0
   56.0050   29.7240   43.5770 C   0  0  0  0  0  0  0  0  0  0  0  0
   56.2500   29.1470   44.8280 C   0  0  0  0  0  0  0  0  0  0  0  0
   57.3800   29.5230   45.5660 C   0  0  0  0  0  0  0  0  0  0  0  0
   62.2140   32.9200   46.8460 C   0  0  0  0  0  0  0  0  0  0  0  0
   63.5330   33.1490   47.5990 C   0  0  0  0  0  0  0  0  0  0  0  0
   61.9100   31.4020   51.7483 H   0  0  0  0  0  0  0  0  0  0  0  0
   59.7842   30.3000   52.4408 H   0  0  0  0  0  0  0  0  0  0  0  0
   57.6017   31.1242   51.5622 H   0  0  0  0  0  0  0  0  0  0  0  0
   57.5429   33.0161   49.9426 H   0  0  0  0  0  0  0  0  0  0  0  0
   60.6765   35.5794   46.9122 H   0  0  0  0  0  0  0  0  0  0  0  0
   59.8243   35.4243   44.5691 H   0  0  0  0  0  0  0  0  0  0  0  0
   57.7917   34.0629   44.0636 H   0  0  0  0  0  0  0  0  0  0  0  0
   56.6008   32.8688   45.9080 H   0  0  0  0  0  0  0  0  0  0  0  0
   57.4563   33.0034   48.2462 H   0  0  0  0  0  0  0  0  0  0  0  0
   64.0212   30.6688   48.6862 H   0  0  0  0  0  0  0  0  0  0  0  0
   62.9345   30.9965   50.1094 H   0  0  0  0  0  0  0  0  0  0  0  0
   61.3749   29.9765   48.5103 H   0  0  0  0  0  0  0  0  0  0  0  0
   58.7190   31.7984   43.3873 H   0  0  0  0  0  0  0  0  0  0  0  0
   56.6994   31.1263   42.0767 H   0  0  0  0  0  0  0  0  0  0  0  0
   55.1158   29.4302   43.0000 H   0  0  0  0  0  0  0  0  0  0  0  0
   55.5544   28.3971   45.2326 H   0  0  0  0  0  0  0  0  0  0  0  0
   57.5698   29.0697   46.5501 H   0  0  0  0  0  0  0  0  0  0  0  0
   62.4211   32.9287   45.7657 H   0  0  0  0  0  0  0  0  0  0  0  0
   61.5242   33.7253   47.1386 H   0  0  0  0  0  0  0  0  0  0  0  0
   64.3363   32.6101   47.0752 H   0  0  0  0  0  0  0  0  0  0  0  0
   63.7208   34.2326   47.6219 H   0  0  0  0  0  0  0  0  0  0  0  0
  1  2  2  0
  2  3  2  0
  2  4  1  0
  4  5  2  0
  5  6  1  0
  6  7  2  0
  7  8  1  0
  8  9  2  0
  9 10  1  0
 10 11  1  0
 11 12  2  0
 12 13  1  0
 13 14  2  0
 14 15  1  0
 15 16  2  0
  2 17  1  0
 17 18  1  0
 18 19  1  0
 19 20  2  0
 20 21  1  0
 21 22  3  0
 22 23  1  0
 23 24  2  0
 24 25  1  0
 25 26  2  0
 26 27  1  0
 27 28  2  0
 20 29  1  0
 29 30  1  0
  9  4  1  0
 16 11  1  0
 30 17  1  0
 28 23  1  0
  5 31  1  0
  6 32  1  0
  7 33  1  0
  8 34  1  0
 12 35  1  0
 13 36  1  0
 14 37  1  0
 15 38  1  0
 16 39  1  0
 18 40  1  0
 18 41  1  0
 19 42  1  0
 24 43  1  0
 25 44  1  0
 26 45  1  0
 27 46  1  0
 28 47  1  0
 29 48  1  0
 29 49  1  0
 30 50  1  0
 30 51  1  0
M  END
>  <UniqueID>  (90) 
79

>  <SMILES>  (90) 
O=S(=O)(c1ccccc1Oc1ccccc1)N1CC=C(C#Cc2ccccc2)CC1

>  <Energy>  (90) 
61.76243894388775

>  <Genealogy>  (90) 
O=S(=O)(c1ccccc1Oc1ccccc1)N1CC=C(C#Cc2ccccc2)CC1 (3D coordinates assigned)
O=S(=O)(c1ccccc1Oc1ccccc1)N1CC=C(C#Cc2ccccc2)CC1 (nonaromatic ring conformer: 61.76243894388775 kcal/mol)

>  <smiles>  (90) 
O=S(=O)(c1ccccc1Oc1ccccc1)N1CC=C(C#Cc2ccccc2)CC1

>  <score_type>  (90) 
oracle

>  <origin>  (90) 
adg

>  <m_score__min__energy>  (90) 
-8.6999999999999993

>  <m_primary>  (90) 
energy

$$$$
90:0
     RDKit          3D

 53 56  0  0  1  0  0  0  0  0999 V2000
   60.2990   30.4910   48.2130 C   0  0  0  0  0  0  0  0  0  0  0  0
   59.0630   30.0620   47.7040 O   0  0  0  0  0  0  0  0  0  0  0  0
   59.0120   29.0170   46.8130 C   0  0  0  0  0  0  0  0  0  0  0  0
   59.8040   27.8750   46.9590 C   0  0  0  0  0  0  0  0  0  0  0  0
   59.6970   26.8540   46.0150 C   0  0  0  0  0  0  0  0  0  0  0  0
   58.8270   26.9430   44.9400 C   0  0  0  0  0  0  0  0  0  0  0  0
   58.0470   28.0800   44.8070 C   0  0  0  0  0  0  0  0  0  0  0  0
   58.1230   29.1290   45.7330 C   0  0  0  0  0  0  0  0  0  0  0  0
   59.2480   34.2270   46.6830 N   0  0  0  0  0  0  0  0  0  0  0  0
   58.7350   33.4600   45.7850 C   0  0  0  0  0  0  0  0  0  0  0  0
   58.2660   32.2430   46.1210 N   0  0  0  0  0  0  0  0  0  0  0  0
   57.7280   31.4130   45.2280 C   0  0  0  0  0  0  0  0  0  0  0  0
   57.3040   30.2760   45.6210 N   0  0  0  0  0  0  0  0  0  0  0  0
   60.5710   34.0620   47.1970 C   0  0  0  0  0  0  0  0  0  0  0  0
   61.6460   33.7600   46.4230 C   0  0  0  0  0  0  0  0  0  0  0  0
   62.9170   33.6040   46.9380 C   0  0  0  0  0  0  0  0  0  0  0  0
   63.1360   33.7580   48.3110 C   0  0  0  0  0  0  0  0  0  0  0  0
   64.4320   33.5860   48.7430 O   0  0  0  0  0  0  0  0  0  0  0  0
   64.8560   32.6630   49.6770 C   0  0  0  0  0  0  0  0  0  0  0  0
   64.0640   31.6710   50.2100 C   0  0  0  0  0  0  0  0  0  0  0  0
   64.5640   30.7760   51.1520 C   0  0  0  0  0  0  0  0  0  0  0  0
   65.8710   30.8550   51.5800 C   0  0  0  0  0  0  0  0  0  0  0  0
   66.6800   31.8530   51.0470 C   0  0  0  0  0  0  0  0  0  0  0  0
   66.1840   32.7560   50.1010 C   0  0  0  0  0  0  0  0  0  0  0  0
   62.0640   34.0630   49.1120 C   0  0  0  0  0  0  0  0  0  0  0  0
   62.2560   34.2200   50.4770 O   0  0  0  0  0  0  0  0  0  0  0  0
   61.4080   33.4420   51.3010 C   0  0  0  0  0  0  0  0  0  0  0  0
   60.7900   34.2150   48.5690 C   0  0  0  0  0  0  0  0  0  0  0  0
   58.6790   33.8870   44.5310 N   0  0  0  0  0  0  0  0  0  0  0  0
   58.1350   33.0600   43.6040 C   0  0  0  0  0  0  0  0  0  0  0  0
   57.6460   31.8110   43.9170 C   0  0  0  0  0  0  0  0  0  0  0  0
   56.9620   30.8020   42.6810 Cl  0  0  0  0  0  0  0  0  0  0  0  0
   60.2666   30.4797   49.3125 H   0  0  0  0  0  0  0  0  0  0  0  0
   61.0939   29.8162   47.8627 H   0  0  0  0  0  0  0  0  0  0  0  0
   60.5049   31.5132   47.8627 H   0  0  0  0  0  0  0  0  0  0  0  0
   60.5008   27.7828   47.8051 H   0  0  0  0  0  0  0  0  0  0  0  0
   60.3197   25.9541   46.1267 H   0  0  0  0  0  0  0  0  0  0  0  0
   58.7572   26.1264   44.2063 H   0  0  0  0  0  0  0  0  0  0  0  0
   57.3536   28.1611   43.9569 H   0  0  0  0  0  0  0  0  0  0  0  0
   58.3290   31.9430   47.1190 H   0  0  0  0  0  0  0  0  0  0  0  0
   61.4971   33.6345   45.3404 H   0  0  0  0  0  0  0  0  0  0  0  0
   63.7560   33.3591   46.2701 H   0  0  0  0  0  0  0  0  0  0  0  0
   63.0166   31.5839   49.8855 H   0  0  0  0  0  0  0  0  0  0  0  0
   63.9061   29.9947   51.5603 H   0  0  0  0  0  0  0  0  0  0  0  0
   66.2647   30.1470   52.3241 H   0  0  0  0  0  0  0  0  0  0  0  0
   67.7269   31.9334   51.3748 H   0  0  0  0  0  0  0  0  0  0  0  0
   66.8391   33.5389   49.6911 H   0  0  0  0  0  0  0  0  0  0  0  0
   61.6332   33.6486   52.3577 H   0  0  0  0  0  0  0  0  0  0  0  0
   60.3587   33.6982   51.0928 H   0  0  0  0  0  0  0  0  0  0  0  0
   61.5731   32.3746   51.0928 H   0  0  0  0  0  0  0  0  0  0  0  0
   59.9446   34.4588   49.2292 H   0  0  0  0  0  0  0  0  0  0  0  0
   59.0450   34.8310   44.2790 H   0  0  0  0  0  0  0  0  0  0  0  0
   58.0821   33.4006   42.5594 H   0  0  0  0  0  0  0  0  0  0  0  0
  1  2  1  0
  2  3  1  0
  3  4  2  0
  4  5  1  0
  5  6  2  0
  6  7  1  0
  7  8  2  0
  8  9  1  0
  9 10  2  0
 10 11  1  0
 11 12  1  0
 12 13  2  0
 13 14  1  0
 14 15  2  0
 15 16  1  0
 16 17  2  0
 17 18  1  0
 18 19  1  0
 19 20  2  0
 20 21  1  0
 21 22  2  0
 22 23  1  0
 23 24  2  0
 17 25  1  0
 25 26  1  0
 26 27  1  0
 25 28  2  0
 12 29  1  0
 29 30  1  0
 30 31  2  0
 31 32  1  0
  8  3  1  0
 31 10  1  0
 28 14  1  0
 24 19  1  0
  1 33  1  0
  1 34  1  0
  1 35  1  0
  4 36  1  0
  5 37  1  0
  6 38  1  0
  7 39  1  0
 11 40  1  0
 15 41  1  0
 16 42  1  0
 20 43  1  0
 21 44  1  0
 22 45  1  0
 23 46  1  0
 24 47  1  0
 27 48  1  0
 27 49  1  0
 27 50  1  0
 28 51  1  0
 29 52  1  0
 30 53  1  0
M  END
>  <smiles>  (91) 
COc1ccccc1N=c1[nH]c(=Nc2ccc(Oc3ccccc3)c(OC)c2)[nH]cc1Cl

>  <score_type>  (91) 
oracle

>  <origin>  (91) 
adg

>  <m_score__min__energy>  (91) 
-8.9000000000000004

>  <m_primary>  (91) 
energy

$$$$
91:0
     RDKit          3D

 28 29  0  0  0  0  0  0  0  0999 V2000
   57.7620   25.7150   44.3270 C   0  0  0  0  0  0  0  0  0  0  0  0
   57.5370   27.1560   44.3840 N   0  0  0  0  0  0  0  0  0  0  0  0
   58.4060   28.0730   45.0860 C   0  0  0  0  0  0  0  0  0  0  0  0
   59.5430   27.5930   45.7630 C   0  0  0  0  0  0  0  0  0  0  0  0
   60.3970   28.4640   46.4340 C   0  0  0  0  0  0  0  0  0  0  0  0
   60.1380   29.8310   46.4430 C   0  0  0  0  0  0  0  0  0  0  0  0
   59.0140   30.3530   45.7810 C   0  0  0  0  0  0  0  0  0  0  0  0
   58.1390   29.4690   45.1060 C   0  0  0  0  0  0  0  0  0  0  0  0
   56.7030   30.1490   44.3340 S   0  0  0  0  0  0  0  0  0  0  0  0
   56.7780   29.9460   42.8460 O   0  0  0  0  0  0  0  0  0  0  0  0
   55.4670   29.4900   44.8770 O   0  0  0  0  0  0  0  0  0  0  0  0
   56.6230   31.8490   44.6640 N   0  0  0  0  0  0  0  0  0  0  0  0
   57.9830   32.3810   44.6920 C   0  0  0  0  0  0  0  0  0  0  0  0
   58.7520   31.7780   45.7890 N   0  0  0  0  0  0  0  0  0  0  0  0
   59.2340   32.6220   46.8880 C   0  0  0  0  0  0  0  0  0  0  0  0
   57.8248   25.3130   45.3490 H   0  0  0  0  0  0  0  0  0  0  0  0
   56.9280   25.2344   43.7945 H   0  0  0  0  0  0  0  0  0  0  0  0
   58.7028   25.5116   43.7945 H   0  0  0  0  0  0  0  0  0  0  0  0
   56.6930   27.5060   43.8820 H   0  0  0  0  0  0  0  0  0  0  0  0
   59.7598   26.5146   45.7619 H   0  0  0  0  0  0  0  0  0  0  0  0
   61.2797   28.0700   46.9590 H   0  0  0  0  0  0  0  0  0  0  0  0
   60.8207   30.5105   46.9742 H   0  0  0  0  0  0  0  0  0  0  0  0
   56.2060   31.9670   45.6170 H   0  0  0  0  0  0  0  0  0  0  0  0
   58.4790   32.1557   43.7364 H   0  0  0  0  0  0  0  0  0  0  0  0
   57.9350   33.4687   44.8488 H   0  0  0  0  0  0  0  0  0  0  0  0
   58.9692   32.1583   47.8497 H   0  0  0  0  0  0  0  0  0  0  0  0
   60.3270   32.7248   46.8191 H   0  0  0  0  0  0  0  0  0  0  0  0
   58.7672   33.6156   46.8191 H   0  0  0  0  0  0  0  0  0  0  0  0
  1  2  1  0
  2  3  1  0
  3  4  2  0
  4  5  1  0
  5  6  2  0
  6  7  1  0
  7  8  2  0
  8  9  1  0
  9 10  2  0
  9 11  2  0
  9 12  1  0
 12 13  1  0
 13 14  1  0
 14 15  1  0
  8  3  1  0
 14  7  1  0
  1 16  1  0
  1 17  1  0
  1 18  1  0
  2 19  1  0
  4 20  1  0
  5 21  1  0
  6 22  1  0
 12 23  1  0
 13 24  1  0
 13 25  1  0
 15 26  1  0
 15 27  1  0
 15 28  1  0
M  END
>  <UniqueID>  (92) 
80

>  <SMILES>  (92) 
CNc1cccc2c1S(=O)(=O)NCN2C

>  <Energy>  (92) 
30.674721813341897

>  <Genealogy>  (92) 
CNc1cccc2c1S(=O)(=O)NCN2C (3D coordinates assigned)
CNc1cccc2c1S(=O)(=O)NCN2C (nonaromatic ring conformer: 30.674721813341897 kcal/mol)

>  <smiles>  (92) 
CNc1cccc2c1S(=O)(=O)NCN2C

>  <score_type>  (92) 
oracle

>  <origin>  (92) 
adg

>  <m_score__min__energy>  (92) 
-6.2400000000000002

>  <m_primary>  (92) 
energy

$$$$
92:0
     RDKit          3D

 44 46  0  0  0  0  0  0  0  0999 V2000
   55.6522   31.8535   44.4508 H   0  0  0  0  0  0  0  0  0  0  0  0
   56.3580   31.0120   44.3900 C   0  0  0  0  0  0  0  0  0  0  0  0
   57.4020   30.9360   45.2580 N   0  0  0  0  0  0  0  0  0  0  0  0
   58.2980   29.9080   45.2240 C   0  0  0  0  0  0  0  0  0  0  0  0
   59.3020   29.8530   46.0550 N   0  0  0  0  0  0  0  0  0  0  0  0
   59.2470   29.5170   47.4510 C   0  0  0  0  0  0  0  0  0  0  0  0
   58.5670   28.5350   47.8610 O   0  0  0  0  0  0  0  0  0  0  0  0
   60.0570   30.3240   48.4270 C   0  0  0  0  0  0  0  0  0  0  0  0
   60.7388   29.6470   48.9625 H   0  0  0  0  0  0  0  0  0  0  0  0
   59.3534   30.8194   49.1121 H   0  0  0  0  0  0  0  0  0  0  0  0
   60.8940   31.4270   47.7410 C   0  0  2  0  0  0  0  0  0  0  0  0
   61.2858   30.9511   46.8300 H   0  0  0  0  0  0  0  0  0  0  0  0
   62.1600   31.8790   48.4690 C   0  0  0  0  0  0  0  0  0  0  0  0
   62.5390   31.3370   49.7180 C   0  0  0  0  0  0  0  0  0  0  0  0
   61.9145   30.5620   50.1865 H   0  0  0  0  0  0  0  0  0  0  0  0
   63.6970   31.7740   50.3640 C   0  0  0  0  0  0  0  0  0  0  0  0
   63.9824   31.3370   51.3323 H   0  0  0  0  0  0  0  0  0  0  0  0
   64.4920   32.7610   49.7870 C   0  0  0  0  0  0  0  0  0  0  0  0
   65.4047   33.1013   50.2981 H   0  0  0  0  0  0  0  0  0  0  0  0
   64.1300   33.3180   48.5600 C   0  0  0  0  0  0  0  0  0  0  0  0
   64.7589   34.0991   48.1079 H   0  0  0  0  0  0  0  0  0  0  0  0
   62.9730   32.8900   47.9010 C   0  0  0  0  0  0  0  0  0  0  0  0
   62.5720   33.6640   46.3700 Cl  0  0  0  0  0  0  0  0  0  0  0  0
   60.0340   32.5750   47.4030 N   0  0  0  0  0  0  0  0  0  0  0  0
   59.7670   33.6910   48.1320 C   0  0  0  0  0  0  0  0  0  0  0  0
   60.3640   34.0580   49.4570 C   0  0  0  0  0  0  0  0  0  0  0  0
   59.7290   33.6677   50.2660 H   0  0  0  0  0  0  0  0  0  0  0  0
   61.3709   33.6227   49.5387 H   0  0  0  0  0  0  0  0  0  0  0  0
   60.4302   35.1530   49.5387 H   0  0  0  0  0  0  0  0  0  0  0  0
   58.8830   34.4900   47.4280 C   0  0  0  0  0  0  0  0  0  0  0  0
   58.4681   35.4634   47.7286 H   0  0  0  0  0  0  0  0  0  0  0  0
   58.6390   33.7890   46.2620 C   0  0  0  0  0  0  0  0  0  0  0  0
   57.7250   34.2130   45.1630 C   0  0  0  0  0  0  0  0  0  0  0  0
   56.8068   34.6390   45.5936 H   0  0  0  0  0  0  0  0  0  0  0  0
   58.2249   34.9712   44.5423 H   0  0  0  0  0  0  0  0  0  0  0  0
   57.4690   33.3417   44.5423 H   0  0  0  0  0  0  0  0  0  0  0  0
   59.3320   32.6370   46.2790 N   0  0  0  0  0  0  0  0  0  0  0  0
   59.3290   31.9050   45.5320 H   0  0  0  0  0  0  0  0  0  0  0  0
   58.1490   28.8980   44.2660 C   0  0  0  0  0  0  0  0  0  0  0  0
   58.8613   28.0606   44.2280 H   0  0  0  0  0  0  0  0  0  0  0  0
   57.0890   28.9620   43.3590 C   0  0  0  0  0  0  0  0  0  0  0  0
   56.9690   28.1784   42.5964 H   0  0  0  0  0  0  0  0  0  0  0  0
   56.1820   30.0210   43.4210 C   0  0  0  0  0  0  0  0  0  0  0  0
   55.3394   30.0747   42.7160 H   0  0  0  0  0  0  0  0  0  0  0  0
  1  2  1  0
  2  3  1  0
  3  4  1  0
  4  5  2  0
  5  6  1  0
  6  7  2  0
  6  8  1  0
  8  9  1  0
  8 10  1  0
  8 11  1  0
 11 12  1  6
 11 13  1  0
 13 14  2  0
 14 15  1  0
 14 16  1  0
 16 17  1  0
 16 18  2  0
 18 19  1  0
 18 20  1  0
 20 21  1  0
 20 22  2  0
 22 23  1  0
 11 24  1  0
 24 25  1  0
 25 26  1  0
 26 27  1  0
 26 28  1  0
 26 29  1  0
 25 30  2  0
 30 31  1  0
 30 32  1  0
 32 33  1  0
 33 34  1  0
 33 35  1  0
 33 36  1  0
 32 37  2  0
 37 38  1  0
  4 39  1  0
 39 40  1  0
 39 41  2  0
 41 42  1  0
 41 43  1  0
 43 44  1  0
 43  2  2  0
 22 13  1  0
 37 24  1  0
M  CHG  2   3  -1  37   1
M  END
>  <UniqueID>  (93) 
81

>  <SMILES>  (93) 
Cc1cc(C)n([C@H](CC(=O)/N=c2/cccc[n-]2)c2ccccc2Cl)[nH+]1

>  <Energy>  (93) 
80.67314564794479

>  <Genealogy>  (93) 
Cc1cc(C)n(C(CC(=O)N=c2cccc[n-]2)c2ccccc2Cl)[nH+]1 (protonated)
Cc1cc(C)n([C@H](CC(=O)N=c2cccc[n-]2)c2ccccc2Cl)[nH+]1 (chirality)
Cc1cc(C)n([C@H](CC(=O)/N=c2/cccc[n-]2)c2ccccc2Cl)[nH+]1 (cis-trans isomerization)
Cc1cc(C)n([C@H](CC(=O)/N=c2/cccc[n-]2)c2ccccc2Cl)[nH+]1 (3D coordinates assigned)
Cc1cc(C)n([C@H](CC(=O)/N=c2/cccc[n-]2)c2ccccc2Cl)[nH+]1 (optimized conformer: 80.67314564794479 kcal/mol)

>  <smiles>  (93) 
Cc1cc(C)n(C(CC(=O)N=c2cccc[nH]2)c2ccccc2Cl)n1

>  <score_type>  (93) 
oracle

>  <origin>  (93) 
adg

>  <m_score__min__energy>  (93) 
-7.8200000000000003

>  <m_primary>  (93) 
energy

$$$$
93:0
     RDKit          3D

 47 48  0  0  0  0  0  0  0  0999 V2000
   55.6920   29.1910   45.2380 N   0  0  0  0  0  0  0  0  0  0  0  0
   56.7750   30.0220   44.7010 C   0  0  2  0  0  0  0  0  0  0  0  0
   56.2950   31.4670   44.4760 C   0  0  0  0  0  0  0  0  0  0  0  0
   57.2850   32.4680   45.0170 C   0  0  0  0  0  0  0  0  0  0  0  0
   58.0800   33.2250   44.1410 C   0  0  0  0  0  0  0  0  0  0  0  0
   58.9790   34.1700   44.6450 C   0  0  0  0  0  0  0  0  0  0  0  0
   59.0870   34.3740   46.0240 C   0  0  0  0  0  0  0  0  0  0  0  0
   59.9860   35.3190   46.5100 O   0  0  0  0  0  0  0  0  0  0  0  0
   58.2880   33.6290   46.9030 C   0  0  0  0  0  0  0  0  0  0  0  0
   57.3900   32.6820   46.4020 C   0  0  0  0  0  0  0  0  0  0  0  0
   57.3090   29.4510   43.4120 C   0  0  0  0  0  0  0  0  0  0  0  0
   57.0160   30.0050   42.3170 O   0  0  0  0  0  0  0  0  0  0  0  0
   58.1000   28.2560   43.4280 N   0  0  0  0  0  0  0  0  0  0  0  0
   59.3350   28.1120   44.1940 C   0  0  0  0  0  0  0  0  0  0  0  0
   59.0810   27.5020   45.5500 C   0  0  0  0  0  0  0  0  0  0  0  0
   60.0490   27.1090   46.2570 O   0  0  0  0  0  0  0  0  0  0  0  0
   57.7480   27.3030   46.0410 N   0  0  0  0  0  0  0  0  0  0  0  0
   57.2880   26.1390   46.7960 C   0  0  2  0  0  0  0  0  0  0  0  0
   58.1860   24.9270   46.4850 C   0  0  0  0  0  0  0  0  0  0  0  0
   57.5600   24.0200   45.4620 C   0  0  0  0  0  0  0  0  0  0  0  0
   57.2830   24.4820   44.1660 C   0  0  0  0  0  0  0  0  0  0  0  0
   56.7300   23.6070   43.2290 C   0  0  0  0  0  0  0  0  0  0  0  0
   56.4610   22.2850   43.5910 C   0  0  0  0  0  0  0  0  0  0  0  0
   55.9120   21.4050   42.6690 O   0  0  0  0  0  0  0  0  0  0  0  0
   56.7530   21.8570   44.8900 C   0  0  0  0  0  0  0  0  0  0  0  0
   57.2960   22.7220   45.7870 N   0  0  0  0  0  0  0  0  0  0  0  0
   55.8650   25.8530   46.4140 C   0  0  0  0  0  0  0  0  0  0  0  0
   55.1790   26.7260   45.8170 O   0  0  0  0  0  0  0  0  0  0  0  0
   55.2860   24.6310   46.7360 O   0  0  0  0  0  0  0  0  0  0  0  0
   55.4190   28.4660   44.5320 H   0  0  0  0  0  0  0  0  0  0  0  0
   56.0410   28.6870   46.0860 H   0  0  0  0  0  0  0  0  0  0  0  0
   57.5875   30.0295   45.4425 H   0  0  0  0  0  0  0  0  0  0  0  0
   56.1676   31.6375   43.3968 H   0  0  0  0  0  0  0  0  0  0  0  0
   55.3419   31.6013   45.0085 H   0  0  0  0  0  0  0  0  0  0  0  0
   57.9952   33.0740   43.0547 H   0  0  0  0  0  0  0  0  0  0  0  0
   59.6036   34.7551   43.9540 H   0  0  0  0  0  0  0  0  0  0  0  0
   59.6850   36.0740   47.1140 H   0  0  0  0  0  0  0  0  0  0  0  0
   58.3679   33.7899   47.9882 H   0  0  0  0  0  0  0  0  0  0  0  0
   56.7628   32.1018   47.0949 H   0  0  0  0  0  0  0  0  0  0  0  0
   60.0276   27.4649   43.6358 H   0  0  0  0  0  0  0  0  0  0  0  0
   59.7655   29.1132   44.3430 H   0  0  0  0  0  0  0  0  0  0  0  0
   57.3439   26.3401   47.8760 H   0  0  0  0  0  0  0  0  0  0  0  0
   59.1508   25.2877   46.0990 H   0  0  0  0  0  0  0  0  0  0  0  0
   58.3229   24.3539   47.4139 H   0  0  0  0  0  0  0  0  0  0  0  0
   57.4998   25.5247   43.8908 H   0  0  0  0  0  0  0  0  0  0  0  0
   56.5072   23.9571   42.2103 H   0  0  0  0  0  0  0  0  0  0  0  0
   56.5429   20.8187   45.1863 H   0  0  0  0  0  0  0  0  0  0  0  0
  1  2  1  0
  2  3  1  0
  3  4  1  0
  4  5  2  0
  5  6  1  0
  6  7  2  0
  7  8  1  0
  7  9  1  0
  9 10  2  0
  2 11  1  0
 11 12  2  0
 11 13  1  0
 13 14  1  0
 14 15  1  0
 15 16  2  0
 15 17  1  0
 17 18  1  0
 18 19  1  0
 19 20  1  0
 20 21  2  0
 21 22  1  0
 22 23  2  0
 23 24  1  0
 23 25  1  0
 25 26  2  0
 18 27  1  0
 27 28  2  0
 27 29  1  0
 10  4  1  0
 26 20  1  0
  1 30  1  0
  1 31  1  0
  2 32  1  1
  3 33  1  0
  3 34  1  0
  5 35  1  0
  6 36  1  0
  8 37  1  0
  9 38  1  0
 10 39  1  0
 14 40  1  0
 14 41  1  0
 18 42  1  1
 19 43  1  0
 19 44  1  0
 21 45  1  0
 22 46  1  0
 25 47  1  0
M  CHG  4  13  -1  17  -1  24  -1  29  -1
M  END
>  <UniqueID>  (94) 
82

>  <SMILES>  (94) 
N[C@H](Cc1ccc(O)cc1)C(=O)[N-]CC(=O)[N-][C@H](Cc1ccc([O-])cn1)C(=O)[O-]

>  <Energy>  (94) 
39.40226997849097

>  <Genealogy>  (94) 
NC(Cc1ccc(O)cc1)C(=O)[N-]CC(=O)[N-]C(Cc1ccc([O-])cn1)C(=O)[O-] (protonated)
N[C@H](Cc1ccc(O)cc1)C(=O)[N-]CC(=O)[N-][C@H](Cc1ccc([O-])cn1)C(=O)[O-] (chirality)
N[C@H](Cc1ccc(O)cc1)C(=O)[N-]CC(=O)[N-][C@H](Cc1ccc([O-])cn1)C(=O)[O-] (3D coordinates assigned)
N[C@H](Cc1ccc(O)cc1)C(=O)[N-]CC(=O)[N-][C@H](Cc1ccc([O-])cn1)C(=O)[O-] (optimized conformer: 39.40226997849097 kcal/mol)

>  <smiles>  (94) 
NC(Cc1ccc(O)cc1)C(=O)NCC(=O)NC(Cc1ccc(O)cn1)C(=O)O

>  <score_type>  (94) 
oracle

>  <origin>  (94) 
adg

>  <m_score__min__energy>  (94) 
-15.65

>  <m_primary>  (94) 
energy

$$$$
94:0
     RDKit          3D

 54 57  0  0  0  0  0  0  0  0999 V2000
   58.3120   32.2900   50.2960 C   0  0  0  0  0  0  0  0  0  0  0  0
   59.2090   32.8870   49.2860 N   0  0  0  0  0  0  0  0  0  0  0  0
   60.3890   33.5030   49.6600 C   0  0  0  0  0  0  0  0  0  0  0  0
   60.8250   33.5190   51.0450 N   0  0  0  0  0  0  0  0  0  0  0  0
   61.1560   32.1540   51.4900 C   0  0  0  0  0  0  0  0  0  0  0  0
   62.6230   32.0640   51.9340 C   0  0  0  0  0  0  0  0  0  0  0  0
   63.4220   31.0570   51.0990 C   0  0  0  0  0  0  0  0  0  0  0  0
   62.8640   30.9530   49.7480 N   0  0  0  0  0  0  0  0  0  0  0  0
   61.7940   30.2320   49.4690 N   0  0  0  0  0  0  0  0  0  0  0  0
   61.5120   30.4620   48.1700 C   0  0  0  0  0  0  0  0  0  0  0  0
   60.3430   29.8840   47.4740 C   0  0  0  0  0  0  0  0  0  0  0  0
   59.4410   29.0540   48.1590 C   0  0  0  0  0  0  0  0  0  0  0  0
   58.3630   28.4700   47.4870 C   0  0  0  0  0  0  0  0  0  0  0  0
   58.1730   28.7030   46.1170 C   0  0  0  0  0  0  0  0  0  0  0  0
   57.0500   28.0800   45.3860 C   0  0  0  0  0  0  0  0  0  0  0  0
   57.1770   26.9050   44.9560 O   0  0  0  0  0  0  0  0  0  0  0  0
   55.7930   28.7490   45.2040 N   0  0  0  0  0  0  0  0  0  0  0  0
   55.5070   29.7160   44.1430 C   0  0  0  0  0  0  0  0  0  0  0  0
   56.5310   29.7220   43.0130 C   0  0  0  0  0  0  0  0  0  0  0  0
   56.5470   30.8220   44.0660 C   0  0  0  0  0  0  0  0  0  0  0  0
   59.0560   29.5570   45.4370 C   0  0  0  0  0  0  0  0  0  0  0  0
   60.1360   30.1370   46.1080 C   0  0  0  0  0  0  0  0  0  0  0  0
   62.3770   31.3310   47.5960 N   0  0  0  0  0  0  0  0  0  0  0  0
   63.2030   31.6140   48.6200 C   0  0  0  0  0  0  0  0  0  0  0  0
   64.1830   32.4550   48.5130 N   0  0  0  0  0  0  0  0  0  0  0  0
   61.2270   34.0710   48.6730 C   0  0  0  0  0  0  0  0  0  0  0  0
   62.4750   34.6680   49.0560 N   0  0  0  0  0  0  0  0  0  0  0  0
   62.9490   34.5820   50.2110 O   0  0  0  0  0  0  0  0  0  0  0  0
   60.8100   34.0220   47.3350 C   0  0  0  0  0  0  0  0  0  0  0  0
   61.5120   34.5200   46.4150 O   0  0  0  0  0  0  0  0  0  0  0  0
   59.6360   33.4320   47.0190 N   0  0  0  0  0  0  0  0  0  0  0  0
   58.8390   32.8740   47.9620 C   0  0  0  0  0  0  0  0  0  0  0  0
   57.7550   32.3460   47.5950 O   0  0  0  0  0  0  0  0  0  0  0  0
   58.6797   32.5347   51.3034 H   0  0  0  0  0  0  0  0  0  0  0  0
   57.2965   32.6930   50.1684 H   0  0  0  0  0  0  0  0  0  0  0  0
   58.2917   31.1976   50.1684 H   0  0  0  0  0  0  0  0  0  0  0  0
   60.0870   33.9310   51.6610 H   0  0  0  0  0  0  0  0  0  0  0  0
   61.6620   34.1330   51.1540 H   0  0  0  0  0  0  0  0  0  0  0  0
   60.5064   31.8832   52.3354 H   0  0  0  0  0  0  0  0  0  0  0  0
   60.9999   31.4623   50.6491 H   0  0  0  0  0  0  0  0  0  0  0  0
   63.0858   33.0564   51.8297 H   0  0  0  0  0  0  0  0  0  0  0  0
   62.6382   31.7220   52.9794 H   0  0  0  0  0  0  0  0  0  0  0  0
   64.4683   31.3902   51.0338 H   0  0  0  0  0  0  0  0  0  0  0  0
   63.3675   30.0708   51.5832 H   0  0  0  0  0  0  0  0  0  0  0  0
   59.5836   28.8618   49.2326 H   0  0  0  0  0  0  0  0  0  0  0  0
   57.6607   27.8249   48.0352 H   0  0  0  0  0  0  0  0  0  0  0  0
   54.4092   29.6658   44.1903 H   0  0  0  0  0  0  0  0  0  0  0  0
   57.3320   28.9684   42.9920 H   0  0  0  0  0  0  0  0  0  0  0  0
   56.4788   29.6961   41.9145 H   0  0  0  0  0  0  0  0  0  0  0  0
   57.3608   30.8636   44.8050 H   0  0  0  0  0  0  0  0  0  0  0  0
   56.5119   31.9212   44.0419 H   0  0  0  0  0  0  0  0  0  0  0  0
   58.8968   29.7708   44.3698 H   0  0  0  0  0  0  0  0  0  0  0  0
   60.8282   30.7957   45.5630 H   0  0  0  0  0  0  0  0  0  0  0  0
   64.1120   33.4580   48.7840 H   0  0  0  0  0  0  0  0  0  0  0  0
  1  2  1  0
  2  3  1  0
  3  4  1  0
  4  5  1  0
  5  6  1  0
  6  7  1  0
  7  8  1  0
  8  9  1  0
  9 10  2  0
 10 11  1  0
 11 12  2  0
 12 13  1  0
 13 14  2  0
 14 15  1  0
 15 16  2  0
 15 17  1  0
 17 18  1  0
 18 19  1  0
 19 20  1  0
 14 21  1  0
 21 22  2  0
 10 23  1  0
 23 24  1  0
 24 25  2  3
  3 26  2  0
 26 27  1  0
 27 28  2  0
 26 29  1  0
 29 30  2  0
 29 31  1  0
 31 32  1  0
 32 33  2  0
 32  2  1  0
 24  8  1  0
 22 11  1  0
 20 18  1  0
  1 34  1  0
  1 35  1  0
  1 36  1  0
  4 37  1  0
  4 38  1  0
  5 39  1  0
  5 40  1  0
  6 41  1  0
  6 42  1  0
  7 43  1  0
  7 44  1  0
 12 45  1  0
 13 46  1  0
 18 47  1  0
 19 48  1  0
 19 49  1  0
 20 50  1  0
 20 51  1  0
 21 52  1  0
 22 53  1  0
 25 54  1  0
M  CHG  4   4   1  17  -1  23  -1  31  -1
M  END
>  <UniqueID>  (95) 
83

>  <SMILES>  (95) 
Cn1c([NH2+]CCCn2nc(-c3ccc(C(=O)[N-]C4CC4)cc3)[n-]c2=N)c(N=O)c(=O)[n-]c1=O

>  <Energy>  (95) 
366.8868955811674

>  <Genealogy>  (95) 
Cn1c([NH2+]CCCn2nc(-c3ccc(C(=O)[N-]C4CC4)cc3)[n-]c2=N)c(N=O)c(=O)[n-]c1=O (protonated)
Cn1c([NH2+]CCCn2nc(-c3ccc(C(=O)[N-]C4CC4)cc3)[n-]c2=N)c(N=O)c(=O)[n-]c1=O (3D coordinates assigned)
Cn1c([NH2+]CCCn2nc(-c3ccc(C(=O)[N-]C4CC4)cc3)[n-]c2=N)c(N=O)c(=O)[n-]c1=O (nonaromatic ring conformer: 366.8868955811674 kcal/mol)

>  <smiles>  (95) 
Cn1c(NCCCn2nc(-c3ccc(C(=O)NC4CC4)cc3)[nH]c2=N)c(N=O)c(=O)[nH]c1=O

>  <score_type>  (95) 
oracle

>  <origin>  (95) 
adg

>  <m_score__min__energy>  (95) 
-10.609999999999999

>  <m_primary>  (95) 
energy

$$$$
95:0
     RDKit          3D

 44 47  0  0  0  0  0  0  0  0999 V2000
   56.8452   27.0106   45.9658 H   0  0  0  0  0  0  0  0  0  0  0  0
   57.2280   28.0150   45.7320 C   0  0  0  0  0  0  0  0  0  0  0  0
   58.4870   28.4420   45.9420 N   0  0  0  0  0  0  0  0  0  0  0  0
   58.4960   29.7160   45.4900 C   0  0  0  0  0  0  0  0  0  0  0  0
   59.5820   30.4350   45.5530 N   0  0  0  0  0  0  0  0  0  0  0  0
   60.3900   30.7300   46.6960 C   0  0  0  0  0  0  0  0  0  0  0  0
   61.0600   31.9560   46.7720 C   0  0  0  0  0  0  0  0  0  0  0  0
   61.0355   32.6481   45.9173 H   0  0  0  0  0  0  0  0  0  0  0  0
   61.7600   32.3040   47.9300 C   0  0  0  0  0  0  0  0  0  0  0  0
   62.3028   33.2596   47.9760 H   0  0  0  0  0  0  0  0  0  0  0  0
   61.7730   31.4360   49.0380 C   0  0  0  0  0  0  0  0  0  0  0  0
   62.4340   31.7650   50.2310 O   0  0  0  0  0  0  0  0  0  0  0  0
   63.8260   31.8240   50.3970 C   0  0  0  0  0  0  0  0  0  0  0  0
   64.5310   30.8310   51.0990 C   0  0  0  0  0  0  0  0  0  0  0  0
   63.9904   29.9737   51.5265 H   0  0  0  0  0  0  0  0  0  0  0  0
   65.9180   30.9290   51.2560 C   0  0  0  0  0  0  0  0  0  0  0  0
   66.4670   30.1444   51.7973 H   0  0  0  0  0  0  0  0  0  0  0  0
   66.6060   32.0240   50.7250 C   0  0  0  0  0  0  0  0  0  0  0  0
   67.6972   32.0982   50.8427 H   0  0  0  0  0  0  0  0  0  0  0  0
   65.9060   33.0250   50.0440 C   0  0  0  0  0  0  0  0  0  0  0  0
   66.4465   33.8900   49.6321 H   0  0  0  0  0  0  0  0  0  0  0  0
   64.5210   32.9280   49.8860 C   0  0  0  0  0  0  0  0  0  0  0  0
   63.9736   33.7225   49.3577 H   0  0  0  0  0  0  0  0  0  0  0  0
   61.0570   30.2360   48.9750 C   0  0  0  0  0  0  0  0  0  0  0  0
   61.0424   29.5624   49.8445 H   0  0  0  0  0  0  0  0  0  0  0  0
   60.3600   29.8870   47.8150 C   0  0  0  0  0  0  0  0  0  0  0  0
   59.7868   28.9488   47.7803 H   0  0  0  0  0  0  0  0  0  0  0  0
   57.2820   30.1220   45.0150 N   0  0  0  0  0  0  0  0  0  0  0  0
   56.7870   31.4540   44.6310 C   0  0  0  0  0  0  0  0  0  0  0  0
   56.7949   31.5325   43.5338 H   0  0  0  0  0  0  0  0  0  0  0  0
   55.7688   31.5654   45.0320 H   0  0  0  0  0  0  0  0  0  0  0  0
   57.6370   32.5640   45.2050 C   0  0  0  0  0  0  0  0  0  0  0  0
   58.4210   33.3510   44.3460 C   0  0  0  0  0  0  0  0  0  0  0  0
   58.4375   33.1333   43.2679 H   0  0  0  0  0  0  0  0  0  0  0  0
   59.1810   34.4100   44.8530 C   0  0  0  0  0  0  0  0  0  0  0  0
   59.8036   35.0125   44.1753 H   0  0  0  0  0  0  0  0  0  0  0  0
   59.1510   34.7040   46.2180 C   0  0  0  0  0  0  0  0  0  0  0  0
   59.7570   35.5311   46.6163 H   0  0  0  0  0  0  0  0  0  0  0  0
   58.3510   33.9470   47.0770 C   0  0  0  0  0  0  0  0  0  0  0  0
   58.3236   34.1821   48.1512 H   0  0  0  0  0  0  0  0  0  0  0  0
   57.5850   32.8910   46.5740 C   0  0  0  0  0  0  0  0  0  0  0  0
   56.9386   32.3128   47.2507 H   0  0  0  0  0  0  0  0  0  0  0  0
   56.5010   29.0370   45.1790 C   0  0  0  0  0  0  0  0  0  0  0  0
   55.1480   28.9790   44.8660 O   0  0  0  0  0  0  0  0  0  0  0  0
  1  2  1  0
  2  3  1  0
  3  4  1  0
  4  5  2  0
  5  6  1  0
  6  7  2  0
  7  8  1  0
  7  9  1  0
  9 10  1  0
  9 11  2  0
 11 12  1  0
 12 13  1  0
 13 14  2  0
 14 15  1  0
 14 16  1  0
 16 17  1  0
 16 18  2  0
 18 19  1  0
 18 20  1  0
 20 21  1  0
 20 22  2  0
 22 23  1  0
 11 24  1  0
 24 25  1  0
 24 26  2  0
 26 27  1  0
  4 28  1  0
 28 29  1  0
 29 30  1  0
 29 31  1  0
 29 32  1  0
 32 33  2  0
 33 34  1  0
 33 35  1  0
 35 36  1  0
 35 37  2  0
 37 38  1  0
 37 39  1  0
 39 40  1  0
 39 41  2  0
 41 42  1  0
 28 43  1  0
 43 44  1  0
 43  2  2  0
 26  6  1  0
 41 32  1  0
 22 13  1  0
M  CHG  2   3  -1  44  -1
M  END
>  <UniqueID>  (96) 
84

>  <SMILES>  (96) 
[O-]c1c[n-]/c(=N/c2ccc(Oc3ccccc3)cc2)n1Cc1ccccc1

>  <Energy>  (96) 
97.68585341459305

>  <Genealogy>  (96) 
[O-]c1c[n-]c(=Nc2ccc(Oc3ccccc3)cc2)n1Cc1ccccc1 (protonated)
[O-]c1c[n-]/c(=N/c2ccc(Oc3ccccc3)cc2)n1Cc1ccccc1 (cis-trans isomerization)
[O-]c1c[n-]/c(=N/c2ccc(Oc3ccccc3)cc2)n1Cc1ccccc1 (3D coordinates assigned)
[O-]c1c[n-]/c(=N/c2ccc(Oc3ccccc3)cc2)n1Cc1ccccc1 (optimized conformer: 97.68585341459305 kcal/mol)

>  <smiles>  (96) 
Oc1c[nH]c(=Nc2ccc(Oc3ccccc3)cc2)n1Cc1ccccc1

>  <score_type>  (96) 
oracle

>  <origin>  (96) 
adg

>  <m_score__min__energy>  (96) 
-12.140000000000001

>  <m_primary>  (96) 
energy

$$$$
96:0
     RDKit          3D

 54 56  0  0  0  0  0  0  0  0999 V2000
   59.6510   22.1760   44.8500 C   0  0  0  0  0  0  0  0  0  0  0  0
   59.3340   23.0620   45.9120 O   0  0  0  0  0  0  0  0  0  0  0  0
   58.4240   24.0850   45.7210 C   0  0  0  0  0  0  0  0  0  0  0  0
   57.1020   23.8190   46.0490 C   0  0  0  0  0  0  0  0  0  0  0  0
   56.1690   24.8200   45.8700 C   0  0  0  0  0  0  0  0  0  0  0  0
   54.8280   24.6710   46.1620 O   0  0  0  0  0  0  0  0  0  0  0  0
   53.9240   24.0740   45.2350 C   0  0  0  0  0  0  0  0  0  0  0  0
   56.5810   26.0080   45.3840 N   0  0  0  0  0  0  0  0  0  0  0  0
   57.8500   26.2590   45.0700 C   0  0  0  0  0  0  0  0  0  0  0  0
   58.2860   27.3790   44.6060 N   0  0  0  0  0  0  0  0  0  0  0  0
   57.5520   28.5830   44.7700 C   0  0  0  0  0  0  0  0  0  0  0  0
   56.6010   28.6670   45.5910 O   0  0  0  0  0  0  0  0  0  0  0  0
   57.9490   29.6970   43.9540 N   0  0  0  0  0  0  0  0  0  0  0  0
   57.1120   31.2150   44.0790 S   0  0  0  0  0  0  0  0  0  0  0  0
   57.1160   31.8180   42.7040 O   0  0  0  0  0  0  0  0  0  0  0  0
   55.6950   31.0150   44.4970 O   0  0  0  0  0  0  0  0  0  0  0  0
   58.0040   32.2070   45.2060 C   0  0  0  0  0  0  0  0  0  0  0  0
   57.3460   33.3460   45.6790 C   0  0  0  0  0  0  0  0  0  0  0  0
   57.9880   34.1780   46.5720 C   0  0  0  0  0  0  0  0  0  0  0  0
   59.2730   33.9050   47.0080 C   0  0  0  0  0  0  0  0  0  0  0  0
   59.9170   34.7490   47.9110 O   0  0  0  0  0  0  0  0  0  0  0  0
   59.9920   34.3450   49.2850 C   0  0  0  0  0  0  0  0  0  0  0  0
   59.9140   32.7590   46.5230 C   0  0  0  0  0  0  0  0  0  0  0  0
   61.2710   32.5040   47.0080 C   0  0  0  0  0  0  0  0  0  0  0  0
   61.5250   31.2270   47.4910 O   0  0  0  0  0  0  0  0  0  0  0  0
   60.6460   30.2090   47.7230 C   0  0  0  0  0  0  0  0  0  0  0  0
   60.7700   29.0710   46.9140 C   0  0  0  0  0  0  0  0  0  0  0  0
   59.9590   27.9810   47.0380 C   0  0  0  0  0  0  0  0  0  0  0  0
   58.9590   27.9960   48.0140 C   0  0  0  0  0  0  0  0  0  0  0  0
   58.8810   29.1350   48.7780 C   0  0  0  0  0  0  0  0  0  0  0  0
   59.6890   30.1950   48.6390 N   0  0  0  0  0  0  0  0  0  0  0  0
   59.2820   31.9160   45.6260 C   0  0  0  0  0  0  0  0  0  0  0  0
   58.7920   25.2860   45.2380 N   0  0  0  0  0  0  0  0  0  0  0  0
   59.9944   21.2162   45.2633 H   0  0  0  0  0  0  0  0  0  0  0  0
   58.7565   22.0099   44.2317 H   0  0  0  0  0  0  0  0  0  0  0  0
   60.4478   22.6150   44.2317 H   0  0  0  0  0  0  0  0  0  0  0  0
   56.8054   22.8352   46.4417 H   0  0  0  0  0  0  0  0  0  0  0  0
   53.1289   23.5489   45.7846 H   0  0  0  0  0  0  0  0  0  0  0  0
   53.4779   24.8557   44.6026 H   0  0  0  0  0  0  0  0  0  0  0  0
   54.4678   23.3568   44.6026 H   0  0  0  0  0  0  0  0  0  0  0  0
   55.8800   26.7650   45.2470 H   0  0  0  0  0  0  0  0  0  0  0  0
   58.7310   29.6500   43.2690 H   0  0  0  0  0  0  0  0  0  0  0  0
   56.3247   33.5767   45.3418 H   0  0  0  0  0  0  0  0  0  0  0  0
   57.4699   35.0741   46.9442 H   0  0  0  0  0  0  0  0  0  0  0  0
   59.8298   35.2186   49.9334 H   0  0  0  0  0  0  0  0  0  0  0  0
   59.2188   33.5893   49.4877 H   0  0  0  0  0  0  0  0  0  0  0  0
   60.9849   33.9172   49.4877 H   0  0  0  0  0  0  0  0  0  0  0  0
   61.9646   32.6906   46.1749 H   0  0  0  0  0  0  0  0  0  0  0  0
   61.4034   33.1739   47.8704 H   0  0  0  0  0  0  0  0  0  0  0  0
   61.5563   29.0562   46.1449 H   0  0  0  0  0  0  0  0  0  0  0  0
   60.0897   27.1074   46.3825 H   0  0  0  0  0  0  0  0  0  0  0  0
   58.2755   27.1469   48.1616 H   0  0  0  0  0  0  0  0  0  0  0  0
   58.1039   29.1799   49.5553 H   0  0  0  0  0  0  0  0  0  0  0  0
   59.7974   31.0194   45.2512 H   0  0  0  0  0  0  0  0  0  0  0  0
  1  2  1  0
  2  3  1  0
  3  4  1  0
  4  5  2  0
  5  6  1  0
  6  7  1  0
  5  8  1  0
  8  9  1  0
  9 10  2  3
 10 11  1  0
 11 12  2  0
 11 13  1  0
 13 14  1  0
 14 15  2  0
 14 16  2  0
 14 17  1  0
 17 18  2  0
 18 19  1  0
 19 20  2  0
 20 21  1  0
 21 22  1  0
 20 23  1  0
 23 24  1  0
 24 25  1  0
 25 26  1  0
 26 27  2  0
 27 28  1  0
 28 29  2  0
 29 30  1  0
 30 31  2  0
 23 32  2  0
  9 33  1  0
 33  3  2  0
 32 17  1  0
 31 26  1  0
  1 34  1  0
  1 35  1  0
  1 36  1  0
  4 37  1  0
  7 38  1  0
  7 39  1  0
  7 40  1  0
  8 41  1  0
 13 42  1  0
 18 43  1  0
 19 44  1  0
 22 45  1  0
 22 46  1  0
 22 47  1  0
 24 48  1  0
 24 49  1  0
 27 50  1  0
 28 51  1  0
 29 52  1  0
 30 53  1  0
 32 54  1  0
M  END
>  <smiles>  (97) 
COc1cc(OC)[nH]c(=NC(=O)NS(=O)(=O)c2ccc(OC)c(COc3ccccn3)c2)n1

>  <score_type>  (97) 
oracle

>  <origin>  (97) 
adg

>  <m_score__min__energy>  (97) 
-8.3800000000000008

>  <m_primary>  (97) 
energy

$$$$
