0:0
     RDKit          3D

 56 59  0  0  0  0  0  0  0  0999 V2000
   52.2630   23.7140   45.1880 C   0  0  0  0  0  0  0  0  0  0  0  0
   52.1230   22.2630   45.2440 N   0  0  0  0  0  0  0  0  0  0  0  0
   53.1270   21.6260   46.5090 S   0  0  0  0  0  0  0  0  0  0  0  0
   53.0010   20.1270   46.5500 O   0  0  0  0  0  0  0  0  0  0  0  0
   52.6680   22.1790   47.8300 O   0  0  0  0  0  0  0  0  0  0  0  0
   54.8070   22.0920   46.2450 C   0  0  0  0  0  0  0  0  0  0  0  0
   55.7190   21.1440   45.7670 C   0  0  0  0  0  0  0  0  0  0  0  0
   57.0570   21.4920   45.5650 C   0  0  0  0  0  0  0  0  0  0  0  0
   57.4970   22.7890   45.8480 C   0  0  0  0  0  0  0  0  0  0  0  0
   58.7990   23.1190   45.6480 N   0  0  0  0  0  0  0  0  0  0  0  0
   59.2730   24.3620   45.9190 C   0  0  0  0  0  0  0  0  0  0  0  0
   58.4240   25.3510   46.4300 C   0  0  0  0  0  0  0  0  0  0  0  0
   58.9850   26.6860   46.7340 C   0  0  0  0  0  0  0  0  0  0  0  0
   59.8190   26.7690   47.6760 O   0  0  0  0  0  0  0  0  0  0  0  0
   58.5970   27.8970   46.0280 N   0  0  0  0  0  0  0  0  0  0  0  0
   57.3820   27.7350   45.1890 C   0  0  0  0  0  0  0  0  0  0  0  0
   57.1800   28.9000   44.1880 C   0  0  0  0  0  0  0  0  0  0  0  0
   57.9990   30.0730   44.5360 N   0  0  0  0  0  0  0  0  0  0  0  0
   57.4300   31.4020   44.4440 C   0  0  0  0  0  0  0  0  0  0  0  0
   56.1790   31.5510   44.5060 O   0  0  0  0  0  0  0  0  0  0  0  0
   58.2800   32.6350   44.2740 C   0  0  0  0  0  0  0  0  0  0  0  0
   58.6090   33.2250   45.6190 C   0  0  0  0  0  0  0  0  0  0  0  0
   58.3200   32.5090   46.7940 C   0  0  0  0  0  0  0  0  0  0  0  0
   58.6650   33.0370   48.0420 C   0  0  0  0  0  0  0  0  0  0  0  0
   59.3030   34.2790   48.1270 C   0  0  0  0  0  0  0  0  0  0  0  0
   59.6020   34.9910   46.9620 C   0  0  0  0  0  0  0  0  0  0  0  0
   59.2610   34.4660   45.7110 C   0  0  0  0  0  0  0  0  0  0  0  0
   59.4270   29.8820   44.8350 C   0  0  0  0  0  0  0  0  0  0  0  0
   59.7220   28.4280   45.2350 C   0  0  0  0  0  0  0  0  0  0  0  0
   57.0630   25.0500   46.6240 C   0  0  0  0  0  0  0  0  0  0  0  0
   56.2730   25.9400   47.0430 O   0  0  0  0  0  0  0  0  0  0  0  0
   56.5870   23.7540   46.3410 C   0  0  0  0  0  0  0  0  0  0  0  0
   55.2400   23.3940   46.5360 C   0  0  0  0  0  0  0  0  0  0  0  0
   52.3020   24.1183   46.2103 H   0  0  0  0  0  0  0  0  0  0  0  0
   53.1903   23.9726   44.6558 H   0  0  0  0  0  0  0  0  0  0  0  0
   51.4023   24.1451   44.6558 H   0  0  0  0  0  0  0  0  0  0  0  0
   55.3808   20.1202   45.5493 H   0  0  0  0  0  0  0  0  0  0  0  0
   57.7665   20.7436   45.1822 H   0  0  0  0  0  0  0  0  0  0  0  0
   60.3325   24.5939   45.7356 H   0  0  0  0  0  0  0  0  0  0  0  0
   58.3640   28.6010   46.7710 H   0  0  0  0  0  0  0  0  0  0  0  0
   57.4697   26.7965   44.6220 H   0  0  0  0  0  0  0  0  0  0  0  0
   56.5137   27.7261   45.8643 H   0  0  0  0  0  0  0  0  0  0  0  0
   57.4609   28.5564   43.1815 H   0  0  0  0  0  0  0  0  0  0  0  0
   56.1225   29.2005   44.2245 H   0  0  0  0  0  0  0  0  0  0  0  0
   59.2127   32.3656   43.7567 H   0  0  0  0  0  0  0  0  0  0  0  0
   57.7245   33.3767   43.6813 H   0  0  0  0  0  0  0  0  0  0  0  0
   57.8211   31.5307   46.7314 H   0  0  0  0  0  0  0  0  0  0  0  0
   58.4342   32.4746   48.9587 H   0  0  0  0  0  0  0  0  0  0  0  0
   59.5692   34.6950   49.1099 H   0  0  0  0  0  0  0  0  0  0  0  0
   60.1065   35.9662   47.0290 H   0  0  0  0  0  0  0  0  0  0  0  0
   59.5042   35.0267   44.7964 H   0  0  0  0  0  0  0  0  0  0  0  0
   60.0174   30.1352   43.9421 H   0  0  0  0  0  0  0  0  0  0  0  0
   59.6968   30.5362   45.6771 H   0  0  0  0  0  0  0  0  0  0  0  0
   59.8519   27.8178   44.3290 H   0  0  0  0  0  0  0  0  0  0  0  0
   60.6424   28.3932   45.8363 H   0  0  0  0  0  0  0  0  0  0  0  0
   54.5243   24.1368   46.9181 H   0  0  0  0  0  0  0  0  0  0  0  0
  1  2  1  0
  2  3  1  0
  3  4  2  0
  3  5  2  0
  3  6  1  0
  6  7  2  0
  7  8  1  0
  8  9  2  0
  9 10  1  0
 10 11  1  0
 11 12  2  0
 12 13  1  0
 13 14  2  0
 13 15  1  0
 15 16  1  0
 16 17  1  0
 17 18  1  0
 18 19  1  0
 19 20  2  0
 19 21  1  0
 21 22  1  0
 22 23  2  0
 23 24  1  0
 24 25  2  0
 25 26  1  0
 26 27  2  0
 18 28  1  0
 28 29  1  0
 12 30  1  0
 30 31  2  0
 30 32  1  0
 32 33  2  0
 33  6  1  0
 32  9  1  0
 29 15  1  0
 27 22  1  0
  1 34  1  0
  1 35  1  0
  1 36  1  0
  7 37  1  0
  8 38  1  0
 11 39  1  0
 15 40  1  0
 16 41  1  0
 16 42  1  0
 17 43  1  0
 17 44  1  0
 21 45  1  0
 21 46  1  0
 23 47  1  0
 24 48  1  0
 25 49  1  0
 26 50  1  0
 27 51  1  0
 28 52  1  0
 28 53  1  0
 29 54  1  0
 29 55  1  0
 33 56  1  0
M  CHG  3   2  -1  10  -1  15   1
M  END
>  <UniqueID>  (1) 
1

>  <SMILES>  (1) 
C[N-]S(=O)(=O)c1ccc2[n-]cc(C(=O)[NH+]3CCN(C(=O)Cc4ccccc4)CC3)c(=O)c2c1

>  <Energy>  (1) 
81.4935041307779

>  <Genealogy>  (1) 
C[N-]S(=O)(=O)c1ccc2[n-]cc(C(=O)[NH+]3CCN(C(=O)Cc4ccccc4)CC3)c(=O)c2c1 (protonated)
C[N-]S(=O)(=O)c1ccc2[n-]cc(C(=O)[NH+]3CCN(C(=O)Cc4ccccc4)CC3)c(=O)c2c1 (3D coordinates assigned)
C[N-]S(=O)(=O)c1ccc2[n-]cc(C(=O)[NH+]3CCN(C(=O)Cc4ccccc4)CC3)c(=O)c2c1 (nonaromatic ring conformer: 81.4935041307779 kcal/mol)

>  <smiles>  (1) 
CNS(=O)(=O)c1ccc2[nH]cc(C(=O)N3CCN(C(=O)Cc4ccccc4)CC3)c(=O)c2c1

>  <score_type>  (1) 
oracle

>  <origin>  (1) 
adg

>  <m_score__min__energy>  (1) 
-10.68

>  <m_primary>  (1) 
energy

$$$$
1:0
     RDKit          3D

 59 62  0  0  0  0  0  0  0  0999 V2000
   59.1170   31.3260   50.8300 C   0  0  0  0  0  0  0  0  0  0  0  0
   58.5850   32.7140   51.2040 C   0  0  0  0  0  0  0  0  0  0  0  0
   57.4050   32.5930   52.1760 C   0  0  0  0  0  0  0  0  0  0  0  0
   59.6960   33.6600   51.7310 C   0  0  0  0  0  0  0  0  0  0  0  0
   60.9410   33.6020   50.9340 N   0  0  0  0  0  0  0  0  0  0  0  0
   62.1660   33.3700   51.5330 C   0  0  0  0  0  0  0  0  0  0  0  0
   62.2230   33.2180   52.7850 O   0  0  0  0  0  0  0  0  0  0  0  0
   63.3310   33.3040   50.7790 N   0  0  0  0  0  0  0  0  0  0  0  0
   64.6380   33.0490   51.4260 C   0  0  0  0  0  0  0  0  0  0  0  0
   65.3280   34.3400   51.8180 C   0  0  0  0  0  0  0  0  0  0  0  0
   64.5720   35.3740   52.4030 C   0  0  0  0  0  0  0  0  0  0  0  0
   65.1810   36.5710   52.7880 C   0  0  0  0  0  0  0  0  0  0  0  0
   66.5490   36.7550   52.5920 C   0  0  0  0  0  0  0  0  0  0  0  0
   67.3120   35.7440   52.0040 C   0  0  0  0  0  0  0  0  0  0  0  0
   66.7130   34.5400   51.6130 C   0  0  0  0  0  0  0  0  0  0  0  0
   67.7300   33.3230   50.8540 Cl  0  0  0  0  0  0  0  0  0  0  0  0
   63.2680   33.4360   49.4080 C   0  0  0  0  0  0  0  0  0  0  0  0
   64.2960   33.3260   48.6870 O   0  0  0  0  0  0  0  0  0  0  0  0
   62.0440   33.6970   48.8260 C   0  0  0  0  0  0  0  0  0  0  0  0
   61.7660   33.9230   47.5290 N   0  0  0  0  0  0  0  0  0  0  0  0
   60.4260   34.1480   47.5540 C   0  0  0  0  0  0  0  0  0  0  0  0
   59.6440   34.5260   46.3360 C   0  0  0  0  0  0  0  0  0  0  0  0
   58.8990   33.3270   45.8170 C   0  0  0  0  0  0  0  0  0  0  0  0
   59.2600   32.0350   46.2300 C   0  0  0  0  0  0  0  0  0  0  0  0
   58.5410   30.9240   45.7790 C   0  0  0  0  0  0  0  0  0  0  0  0
   57.4460   31.0930   44.9210 C   0  0  0  0  0  0  0  0  0  0  0  0
   56.5510   29.6920   44.3430 S   0  0  0  0  0  0  0  0  0  0  0  0
   56.5190   29.7060   42.5650 C   0  0  0  0  0  0  0  0  0  0  0  0
   57.2120   28.4300   44.8250 O   0  0  0  0  0  0  0  0  0  0  0  0
   55.1450   29.7320   44.8700 O   0  0  0  0  0  0  0  0  0  0  0  0
   57.0800   32.3820   44.5110 C   0  0  0  0  0  0  0  0  0  0  0  0
   57.7970   33.4940   44.9620 C   0  0  0  0  0  0  0  0  0  0  0  0
   59.8840   34.0870   48.7940 N   0  0  0  0  0  0  0  0  0  0  0  0
   60.9290   33.7890   49.5820 C   0  0  0  0  0  0  0  0  0  0  0  0
   59.3348   30.7577   51.7463 H   0  0  0  0  0  0  0  0  0  0  0  0
   58.3603   30.7907   50.2377 H   0  0  0  0  0  0  0  0  0  0  0  0
   60.0376   31.4336   50.2377 H   0  0  0  0  0  0  0  0  0  0  0  0
   58.2141   33.1871   50.2828 H   0  0  0  0  0  0  0  0  0  0  0  0
   57.7768   32.6311   53.2106 H   0  0  0  0  0  0  0  0  0  0  0  0
   56.7043   33.4240   52.0073 H   0  0  0  0  0  0  0  0  0  0  0  0
   56.8875   31.6371   52.0073 H   0  0  0  0  0  0  0  0  0  0  0  0
   59.3153   34.6918   51.7092 H   0  0  0  0  0  0  0  0  0  0  0  0
   59.9465   33.3319   52.7506 H   0  0  0  0  0  0  0  0  0  0  0  0
   64.4768   32.4420   52.3291 H   0  0  0  0  0  0  0  0  0  0  0  0
   65.2806   32.5203   50.7066 H   0  0  0  0  0  0  0  0  0  0  0  0
   63.4916   35.2380   52.5583 H   0  0  0  0  0  0  0  0  0  0  0  0
   64.5799   37.3699   53.2467 H   0  0  0  0  0  0  0  0  0  0  0  0
   67.0272   37.6964   52.9005 H   0  0  0  0  0  0  0  0  0  0  0  0
   68.3903   35.8942   51.8469 H   0  0  0  0  0  0  0  0  0  0  0  0
   58.9261   35.3184   46.5942 H   0  0  0  0  0  0  0  0  0  0  0  0
   60.3335   34.8894   45.5598 H   0  0  0  0  0  0  0  0  0  0  0  0
   60.1123   31.8960   46.9114 H   0  0  0  0  0  0  0  0  0  0  0  0
   58.8359   29.9137   46.0988 H   0  0  0  0  0  0  0  0  0  0  0  0
   55.5625   30.1245   42.2188 H   0  0  0  0  0  0  0  0  0  0  0  0
   57.3474   30.3239   42.1882 H   0  0  0  0  0  0  0  0  0  0  0  0
   56.6274   28.6782   42.1882 H   0  0  0  0  0  0  0  0  0  0  0  0
   56.2256   32.5193   43.8319 H   0  0  0  0  0  0  0  0  0  0  0  0
   57.4970   34.5040   44.6461 H   0  0  0  0  0  0  0  0  0  0  0  0
   58.8890   34.2650   49.0510 H   0  0  0  0  0  0  0  0  0  0  0  0
  1  2  1  0
  2  3  1  0
  2  4  1  0
  4  5  1  0
  5  6  1  0
  6  7  2  0
  6  8  1  0
  8  9  1  0
  9 10  1  0
 10 11  2  0
 11 12  1  0
 12 13  2  0
 13 14  1  0
 14 15  2  0
 15 16  1  0
  8 17  1  0
 17 18  2  0
 17 19  1  0
 19 20  1  0
 20 21  2  0
 21 22  1  0
 22 23  1  0
 23 24  2  0
 24 25  1  0
 25 26  2  0
 26 27  1  0
 27 28  1  0
 27 29  2  0
 27 30  2  0
 26 31  1  0
 31 32  2  0
 21 33  1  0
 33 34  1  0
 34  5  1  0
 15 10  1  0
 34 19  2  0
 32 23  1  0
  1 35  1  0
  1 36  1  0
  1 37  1  0
  2 38  1  0
  3 39  1  0
  3 40  1  0
  3 41  1  0
  4 42  1  0
  4 43  1  0
  9 44  1  0
  9 45  1  0
 11 46  1  0
 12 47  1  0
 13 48  1  0
 14 49  1  0
 22 50  1  0
 22 51  1  0
 24 52  1  0
 25 53  1  0
 28 54  1  0
 28 55  1  0
 28 56  1  0
 31 57  1  0
 32 58  1  0
 33 59  1  0
M  END
>  <UniqueID>  (2) 
2

>  <SMILES>  (2) 
CC(C)Cn1c(=O)n(Cc2ccccc2Cl)c(=O)c2nc(Cc3ccc(S(C)(=O)=O)cc3)[nH]c21

>  <Energy>  (2) 
100.42432542838728

>  <Genealogy>  (2) 
CC(C)Cn1c(=O)n(Cc2ccccc2Cl)c(=O)c2nc(Cc3ccc(S(C)(=O)=O)cc3)[nH]c21 (3D coordinates assigned)
CC(C)Cn1c(=O)n(Cc2ccccc2Cl)c(=O)c2nc(Cc3ccc(S(C)(=O)=O)cc3)[nH]c21 (optimized conformer: 100.42432542838728 kcal/mol)

>  <smiles>  (2) 
CC(C)Cn1c(=O)n(Cc2ccccc2Cl)c(=O)c2nc(Cc3ccc(S(C)(=O)=O)cc3)[nH]c21

>  <score_type>  (2) 
oracle

>  <origin>  (2) 
adg

>  <m_score__min__energy>  (2) 
-9.6500000000000004

>  <m_primary>  (2) 
energy

$$$$
2:0
     RDKit          3D

 57 60  0  0  0  0  0  0  0  0999 V2000
   55.7310   23.3870   47.2970 C   0  0  0  0  0  0  0  0  0  0  0  0
   56.5610   24.0070   46.2490 N   0  0  0  0  0  0  0  0  0  0  0  0
   58.0250   23.9780   46.4570 C   0  0  0  0  0  0  0  0  0  0  0  0
   58.8310   25.0090   45.6420 C   0  0  0  0  0  0  0  0  0  0  0  0
   58.8290   26.4300   46.2210 C   0  0  0  0  0  0  0  0  0  0  0  0
   57.5560   27.1470   46.0260 N   0  0  0  0  0  0  0  0  0  0  0  0
   57.5880   28.4030   45.3180 C   0  0  0  0  0  0  0  0  0  0  0  0
   58.8080   29.0580   45.0880 C   0  0  0  0  0  0  0  0  0  0  0  0
   58.8370   30.2870   44.4270 C   0  0  0  0  0  0  0  0  0  0  0  0
   57.6460   30.8860   43.9830 C   0  0  0  0  0  0  0  0  0  0  0  0
   57.6650   32.2200   43.3410 C   0  0  0  0  0  0  0  0  0  0  0  0
   57.8790   32.3110   42.1040 O   0  0  0  0  0  0  0  0  0  0  0  0
   57.4810   33.4230   44.1010 N   0  0  0  0  0  0  0  0  0  0  0  0
   58.1410   33.7240   45.3390 C   0  0  0  0  0  0  0  0  0  0  0  0
   59.1000   34.7420   45.3740 C   0  0  0  0  0  0  0  0  0  0  0  0
   59.8060   35.0080   46.5510 C   0  0  0  0  0  0  0  0  0  0  0  0
   59.5380   34.2740   47.7180 C   0  0  0  0  0  0  0  0  0  0  0  0
   60.3600   34.4860   48.9590 C   0  0  0  0  0  0  0  0  0  0  0  0
   61.7050   33.8280   48.8000 C   0  0  0  0  0  0  0  0  0  0  0  0
   62.7080   34.0250   49.7610 C   0  0  0  0  0  0  0  0  0  0  0  0
   63.9680   33.4520   49.5690 C   0  0  0  0  0  0  0  0  0  0  0  0
   64.2190   32.7150   48.4540 N   0  0  0  0  0  0  0  0  0  0  0  0
   63.2680   32.5130   47.5030 C   0  0  0  0  0  0  0  0  0  0  0  0
   61.9970   33.0720   47.6550 C   0  0  0  0  0  0  0  0  0  0  0  0
   58.5460   33.2820   47.6930 C   0  0  0  0  0  0  0  0  0  0  0  0
   57.8450   33.0140   46.5160 C   0  0  0  0  0  0  0  0  0  0  0  0
   56.4300   30.2090   44.1690 C   0  0  0  0  0  0  0  0  0  0  0  0
   56.4010   28.9790   44.8340 C   0  0  0  0  0  0  0  0  0  0  0  0
   56.2560   26.5390   46.3630 C   0  0  0  0  0  0  0  0  0  0  0  0
   55.9880   25.2120   45.6190 C   0  0  0  0  0  0  0  0  0  0  0  0
   56.1154   23.6741   48.2869 H   0  0  0  0  0  0  0  0  0  0  0  0
   54.6915   23.7316   47.1932 H   0  0  0  0  0  0  0  0  0  0  0  0
   55.7665   22.2925   47.1932 H   0  0  0  0  0  0  0  0  0  0  0  0
   58.2196   24.1623   47.5239 H   0  0  0  0  0  0  0  0  0  0  0  0
   58.3602   22.9895   46.1098 H   0  0  0  0  0  0  0  0  0  0  0  0
   59.8737   24.6629   45.5880 H   0  0  0  0  0  0  0  0  0  0  0  0
   58.3442   25.0748   44.6578 H   0  0  0  0  0  0  0  0  0  0  0  0
   59.0295   26.3655   47.3007 H   0  0  0  0  0  0  0  0  0  0  0  0
   59.6033   26.9973   45.6838 H   0  0  0  0  0  0  0  0  0  0  0  0
   59.7474   28.5997   45.4309 H   0  0  0  0  0  0  0  0  0  0  0  0
   59.7994   30.7904   44.2524 H   0  0  0  0  0  0  0  0  0  0  0  0
   59.2997   35.3365   44.4703 H   0  0  0  0  0  0  0  0  0  0  0  0
   60.5743   35.7951   46.5631 H   0  0  0  0  0  0  0  0  0  0  0  0
   60.4987   35.5645   49.1251 H   0  0  0  0  0  0  0  0  0  0  0  0
   59.8385   34.0419   49.8197 H   0  0  0  0  0  0  0  0  0  0  0  0
   62.5040   34.6263   50.6593 H   0  0  0  0  0  0  0  0  0  0  0  0
   64.7578   33.5973   50.3207 H   0  0  0  0  0  0  0  0  0  0  0  0
   63.4999   31.9089   46.6134 H   0  0  0  0  0  0  0  0  0  0  0  0
   61.2297   32.9203   46.8815 H   0  0  0  0  0  0  0  0  0  0  0  0
   58.3194   32.7122   48.6062 H   0  0  0  0  0  0  0  0  0  0  0  0
   57.0586   32.2449   46.5093 H   0  0  0  0  0  0  0  0  0  0  0  0
   55.4955   30.6483   43.7898 H   0  0  0  0  0  0  0  0  0  0  0  0
   55.4426   28.4589   44.9792 H   0  0  0  0  0  0  0  0  0  0  0  0
   56.2329   26.3428   47.4451 H   0  0  0  0  0  0  0  0  0  0  0  0
   55.4753   27.2489   46.0523 H   0  0  0  0  0  0  0  0  0  0  0  0
   54.8987   25.0745   45.5517 H   0  0  0  0  0  0  0  0  0  0  0  0
   56.4825   25.3073   44.6410 H   0  0  0  0  0  0  0  0  0  0  0  0
  1  2  1  0
  2  3  1  0
  3  4  1  0
  4  5  1  0
  5  6  1  0
  6  7  1  0
  7  8  2  0
  8  9  1  0
  9 10  2  0
 10 11  1  0
 11 12  2  0
 11 13  1  0
 13 14  1  0
 14 15  2  0
 15 16  1  0
 16 17  2  0
 17 18  1  0
 18 19  1  0
 19 20  2  0
 20 21  1  0
 21 22  2  0
 22 23  1  0
 23 24  2  0
 17 25  1  0
 25 26  2  0
 10 27  1  0
 27 28  2  0
  6 29  1  0
 29 30  1  0
 30  2  1  0
 28  7  1  0
 26 14  1  0
 24 19  1  0
  1 31  1  0
  1 32  1  0
  1 33  1  0
  3 34  1  0
  3 35  1  0
  4 36  1  0
  4 37  1  0
  5 38  1  0
  5 39  1  0
  8 40  1  0
  9 41  1  0
 15 42  1  0
 16 43  1  0
 18 44  1  0
 18 45  1  0
 20 46  1  0
 21 47  1  0
 23 48  1  0
 24 49  1  0
 25 50  1  0
 26 51  1  0
 27 52  1  0
 28 53  1  0
 29 54  1  0
 29 55  1  0
 30 56  1  0
 30 57  1  0
M  CHG  1  13  -1
M  END
>  <UniqueID>  (3) 
3

>  <SMILES>  (3) 
CN1CCCN(c2ccc(C(=O)[N-]c3ccc(Cc4ccncc4)cc3)cc2)CC1

>  <Energy>  (3) 
87.46309826567686

>  <Genealogy>  (3) 
CN1CCCN(c2ccc(C(=O)[N-]c3ccc(Cc4ccncc4)cc3)cc2)CC1 (protonated)
CN1CCCN(c2ccc(C(=O)[N-]c3ccc(Cc4ccncc4)cc3)cc2)CC1 (3D coordinates assigned)
CN1CCCN(c2ccc(C(=O)[N-]c3ccc(Cc4ccncc4)cc3)cc2)CC1 (nonaromatic ring conformer: 87.46309826567686 kcal/mol)

>  <smiles>  (3) 
CN1CCCN(c2ccc(C(=O)Nc3ccc(Cc4ccncc4)cc3)cc2)CC1

>  <score_type>  (3) 
oracle

>  <origin>  (3) 
adg

>  <m_score__min__energy>  (3) 
-7.9000000000000004

>  <m_primary>  (3) 
energy

$$$$
3:0
     RDKit          3D

 36 38  0  0  0  0  0  0  0  0999 V2000
   57.7352   32.5115   41.5699 H   0  0  0  0  0  0  0  0  0  0  0  0
   57.7610   32.2300   42.6330 C   0  0  0  0  0  0  0  0  0  0  0  0
   58.4060   33.0550   43.5550 C   0  0  0  0  0  0  0  0  0  0  0  0
   58.8886   33.9829   43.2142 H   0  0  0  0  0  0  0  0  0  0  0  0
   58.4430   32.7080   44.9160 C   0  0  0  0  0  0  0  0  0  0  0  0
   59.1210   33.5830   45.9060 C   0  0  0  0  0  0  0  0  0  0  0  0
   58.4470   34.4200   46.5620 O   0  0  0  0  0  0  0  0  0  0  0  0
   60.5460   33.5620   46.0830 N   0  0  0  0  0  0  0  0  0  0  0  0
   61.1970   33.7410   47.1990 C   0  0  0  0  0  0  0  0  0  0  0  0
   62.5990   33.6880   47.1770 C   0  0  0  0  0  0  0  0  0  0  0  0
   63.2640   33.4460   46.0200 F   0  0  0  0  0  0  0  0  0  0  0  0
   63.3150   33.8750   48.3600 C   0  0  0  0  0  0  0  0  0  0  0  0
   64.4139   33.8275   48.3524 H   0  0  0  0  0  0  0  0  0  0  0  0
   62.6350   34.1220   49.5510 C   0  0  0  0  0  0  0  0  0  0  0  0
   63.1913   34.2635   50.4894 H   0  0  0  0  0  0  0  0  0  0  0  0
   61.2420   34.1880   49.5410 C   0  0  0  0  0  0  0  0  0  0  0  0
   60.6971   34.3882   50.4753 H   0  0  0  0  0  0  0  0  0  0  0  0
   60.5530   34.0060   48.3810 N   0  0  0  0  0  0  0  0  0  0  0  0
   59.5150   34.1020   48.4230 H   0  0  0  0  0  0  0  0  0  0  0  0
   57.8140   31.5220   45.3360 C   0  0  0  0  0  0  0  0  0  0  0  0
   57.8188   31.2523   46.4024 H   0  0  0  0  0  0  0  0  0  0  0  0
   57.1790   30.6770   44.4080 C   0  0  0  0  0  0  0  0  0  0  0  0
   56.5310   29.4310   44.8710 C   0  0  0  0  0  0  0  0  0  0  0  0
   55.2730   29.3590   44.8990 O   0  0  0  0  0  0  0  0  0  0  0  0
   57.2970   28.3150   45.3330 N   0  0  0  0  0  0  0  0  0  0  0  0
   58.6930   27.9870   45.6840 C   0  0  0  0  0  0  0  0  0  0  0  0
   59.3522   27.9409   44.8046 H   0  0  0  0  0  0  0  0  0  0  0  0
   59.2277   28.6997   46.3291 H   0  0  0  0  0  0  0  0  0  0  0  0
   58.4010   26.6400   46.2560 C   0  0  0  0  0  0  0  0  0  0  0  0
   58.8394   25.7890   45.7141 H   0  0  0  0  0  0  0  0  0  0  0  0
   58.7122   26.3190   47.2610 H   0  0  0  0  0  0  0  0  0  0  0  0
   56.9970   26.9820   45.8890 C   0  0  0  0  0  0  0  0  0  0  0  0
   56.5752   26.2954   45.1402 H   0  0  0  0  0  0  0  0  0  0  0  0
   56.2450   26.9326   46.6902 H   0  0  0  0  0  0  0  0  0  0  0  0
   57.1480   31.0480   43.0550 C   0  0  0  0  0  0  0  0  0  0  0  0
   56.6382   30.4045   42.3228 H   0  0  0  0  0  0  0  0  0  0  0  0
  1  2  1  0
  2  3  2  0
  3  4  1  0
  3  5  1  0
  5  6  1  0
  6  7  2  0
  6  8  1  0
  8  9  2  0
  9 10  1  0
 10 11  1  0
 10 12  2  0
 12 13  1  0
 12 14  1  0
 14 15  1  0
 14 16  2  0
 16 17  1  0
 16 18  1  0
 18 19  1  0
  5 20  2  0
 20 21  1  0
 20 22  1  0
 22 23  1  0
 23 24  2  0
 23 25  1  0
 25 26  1  0
 26 27  1  0
 26 28  1  0
 26 29  1  0
 29 30  1  0
 29 31  1  0
 29 32  1  0
 32 33  1  0
 32 34  1  0
 22 35  2  0
 35 36  1  0
 35  2  1  0
 18  9  1  0
 32 25  1  0
M  END
>  <UniqueID>  (4) 
4

>  <SMILES>  (4) 
O=C(/N=c1\[nH]cccc1F)c1cccc(C(=O)N2CCC2)c1

>  <Energy>  (4) 
94.3770076043941

>  <Genealogy>  (4) 
O=C(/N=c1\[nH]cccc1F)c1cccc(C(=O)N2CCC2)c1 (cis-trans isomerization)
O=C(/N=c1\[nH]cccc1F)c1cccc(C(=O)N2CCC2)c1 (3D coordinates assigned)
O=C(/N=c1\[nH]cccc1F)c1cccc(C(=O)N2CCC2)c1 (nonaromatic ring conformer: 94.3770076043941 kcal/mol)

>  <smiles>  (4) 
O=C(N=c1[nH]cccc1F)c1cccc(C(=O)N2CCC2)c1

>  <score_type>  (4) 
oracle

>  <origin>  (4) 
adg

>  <m_score__min__energy>  (4) 
-7.8700000000000001

>  <m_primary>  (4) 
energy

$$$$
4:0
     RDKit          3D

 68 71  0  0  0  0  0  0  0  0999 V2000
   56.2660   24.5450   45.9900 C   0  0  0  0  0  0  0  0  0  0  0  0
   56.3480   26.0420   45.9860 C   0  0  0  0  0  0  0  0  0  0  0  0
   55.2720   26.7010   46.0150 O   0  0  0  0  0  0  0  0  0  0  0  0
   57.6520   26.7590   45.9540 C   0  0  0  0  0  0  0  0  0  0  0  0
   58.2010   27.2280   44.7430 C   0  0  0  0  0  0  0  0  0  0  0  0
   59.4200   27.9100   44.7330 C   0  0  0  0  0  0  0  0  0  0  0  0
   60.1150   28.1260   45.9250 C   0  0  0  0  0  0  0  0  0  0  0  0
   59.5970   27.6530   47.1380 C   0  0  0  0  0  0  0  0  0  0  0  0
   60.3280   27.9200   48.4290 C   0  0  0  0  0  0  0  0  0  0  0  0
   60.0800   29.3120   48.9320 C   0  0  0  0  0  0  0  0  0  0  0  0
   59.0470   29.5740   49.6080 O   0  0  0  0  0  0  0  0  0  0  0  0
   61.0890   30.3090   48.7380 N   0  0  0  0  0  0  0  0  0  0  0  0
   60.8920   31.5700   48.0810 C   0  0  0  0  0  0  0  0  0  0  0  0
   59.8550   31.7480   47.1500 C   0  0  0  0  0  0  0  0  0  0  0  0
   59.6430   32.9970   46.5520 C   0  0  0  0  0  0  0  0  0  0  0  0
   58.3030   33.2230   45.4250 S   0  0  0  0  0  0  0  0  0  0  0  0
   58.4430   34.5610   44.7550 O   0  0  0  0  0  0  0  0  0  0  0  0
   57.0070   33.2200   46.1850 O   0  0  0  0  0  0  0  0  0  0  0  0
   58.2670   31.9640   44.2120 N   0  0  0  0  0  0  0  0  0  0  0  0
   57.9090   30.6460   44.7970 C   0  0  0  0  0  0  0  0  0  0  0  0
   56.4600   30.2290   44.5020 C   0  0  0  0  0  0  0  0  0  0  0  0
   56.1950   30.1690   42.9870 C   0  0  0  0  0  0  0  0  0  0  0  0
   57.0430   31.1800   42.1940 C   0  0  0  0  0  0  0  0  0  0  0  0
   57.4300   32.3790   43.0640 C   0  0  0  0  0  0  0  0  0  0  0  0
   60.4920   34.0660   46.8650 C   0  0  0  0  0  0  0  0  0  0  0  0
   61.5440   33.8870   47.7650 C   0  0  0  0  0  0  0  0  0  0  0  0
   61.7590   32.6400   48.3670 C   0  0  0  0  0  0  0  0  0  0  0  0
   62.8260   32.4770   49.3130 N   0  0  0  0  0  0  0  0  0  0  0  0
   62.5140   32.0680   50.6870 C   0  0  0  0  0  0  0  0  0  0  0  0
   63.6310   31.1890   51.2930 C   0  0  0  0  0  0  0  0  0  0  0  0
   64.8790   31.2080   50.4990 N   0  0  0  0  0  0  0  0  0  0  0  0
   65.9970   30.6710   51.2900 C   0  0  0  0  0  0  0  0  0  0  0  0
   65.1840   32.5700   50.0360 C   0  0  0  0  0  0  0  0  0  0  0  0
   64.1650   32.9650   48.9650 C   0  0  0  0  0  0  0  0  0  0  0  0
   58.3620   26.9840   47.1500 C   0  0  0  0  0  0  0  0  0  0  0  0
   56.2461   24.1817   47.0281 H   0  0  0  0  0  0  0  0  0  0  0  0
   55.3491   24.2266   45.4724 H   0  0  0  0  0  0  0  0  0  0  0  0
   57.1427   24.1284   45.4724 H   0  0  0  0  0  0  0  0  0  0  0  0
   57.6649   27.0554   43.7981 H   0  0  0  0  0  0  0  0  0  0  0  0
   59.8341   28.2783   43.7828 H   0  0  0  0  0  0  0  0  0  0  0  0
   61.0716   28.6689   45.9116 H   0  0  0  0  0  0  0  0  0  0  0  0
   59.9853   27.2009   49.1876 H   0  0  0  0  0  0  0  0  0  0  0  0
   61.4062   27.8116   48.2402 H   0  0  0  0  0  0  0  0  0  0  0  0
   59.2046   30.9002   46.8886 H   0  0  0  0  0  0  0  0  0  0  0  0
   58.5842   29.8835   44.3814 H   0  0  0  0  0  0  0  0  0  0  0  0
   58.0091   30.7338   45.8889 H   0  0  0  0  0  0  0  0  0  0  0  0
   56.2768   29.2358   44.9378 H   0  0  0  0  0  0  0  0  0  0  0  0
   55.7856   30.9772   44.9440 H   0  0  0  0  0  0  0  0  0  0  0  0
   56.4295   29.1557   42.6288 H   0  0  0  0  0  0  0  0  0  0  0  0
   55.1373   30.4237   42.8248 H   0  0  0  0  0  0  0  0  0  0  0  0
   57.9582   30.6822   41.8411 H   0  0  0  0  0  0  0  0  0  0  0  0
   56.4475   31.5437   41.3437 H   0  0  0  0  0  0  0  0  0  0  0  0
   57.9932   33.0987   42.4518 H   0  0  0  0  0  0  0  0  0  0  0  0
   56.5086   32.8361   43.4540 H   0  0  0  0  0  0  0  0  0  0  0  0
   60.3294   35.0496   46.4002 H   0  0  0  0  0  0  0  0  0  0  0  0
   62.2086   34.7305   48.0032 H   0  0  0  0  0  0  0  0  0  0  0  0
   62.3935   32.9682   51.3076 H   0  0  0  0  0  0  0  0  0  0  0  0
   61.5875   31.4755   50.6648 H   0  0  0  0  0  0  0  0  0  0  0  0
   63.8546   31.5558   52.3056 H   0  0  0  0  0  0  0  0  0  0  0  0
   63.2638   30.1521   51.3025 H   0  0  0  0  0  0  0  0  0  0  0  0
   65.7730   30.7786   52.3616 H   0  0  0  0  0  0  0  0  0  0  0  0
   66.1381   29.6068   51.0500 H   0  0  0  0  0  0  0  0  0  0  0  0
   66.9159   31.2260   51.0500 H   0  0  0  0  0  0  0  0  0  0  0  0
   65.1223   33.2707   50.8817 H   0  0  0  0  0  0  0  0  0  0  0  0
   66.2003   32.6039   49.6164 H   0  0  0  0  0  0  0  0  0  0  0  0
   64.1382   34.0614   48.8800 H   0  0  0  0  0  0  0  0  0  0  0  0
   64.4667   32.5134   48.0084 H   0  0  0  0  0  0  0  0  0  0  0  0
   57.9441   26.6315   48.1046 H   0  0  0  0  0  0  0  0  0  0  0  0
  1  2  1  0
  2  3  2  0
  2  4  1  0
  4  5  2  0
  5  6  1  0
  6  7  2  0
  7  8  1  0
  8  9  1  0
  9 10  1  0
 10 11  2  0
 10 12  1  0
 12 13  1  0
 13 14  2  0
 14 15  1  0
 15 16  1  0
 16 17  2  0
 16 18  2  0
 16 19  1  0
 19 20  1  0
 20 21  1  0
 21 22  1  0
 22 23  1  0
 23 24  1  0
 15 25  2  0
 25 26  1  0
 26 27  2  0
 27 28  1  0
 28 29  1  0
 29 30  1  0
 30 31  1  0
 31 32  1  0
 31 33  1  0
 33 34  1  0
  8 35  2  0
 35  4  1  0
 27 13  1  0
 34 28  1  0
 24 19  1  0
  1 36  1  0
  1 37  1  0
  1 38  1  0
  5 39  1  0
  6 40  1  0
  7 41  1  0
  9 42  1  0
  9 43  1  0
 14 44  1  0
 20 45  1  0
 20 46  1  0
 21 47  1  0
 21 48  1  0
 22 49  1  0
 22 50  1  0
 23 51  1  0
 23 52  1  0
 24 53  1  0
 24 54  1  0
 25 55  1  0
 26 56  1  0
 29 57  1  0
 29 58  1  0
 30 59  1  0
 30 60  1  0
 32 61  1  0
 32 62  1  0
 32 63  1  0
 33 64  1  0
 33 65  1  0
 34 66  1  0
 34 67  1  0
 35 68  1  0
M  CHG  1  12  -1
M  END
>  <UniqueID>  (5) 
5

>  <SMILES>  (5) 
CC(=O)c1cccc(CC(=O)[N-]c2cc(S(=O)(=O)N3CCCCC3)ccc2N2CCN(C)CC2)c1

>  <Energy>  (5) 
86.05512250727317

>  <Genealogy>  (5) 
CC(=O)c1cccc(CC(=O)[N-]c2cc(S(=O)(=O)N3CCCCC3)ccc2N2CCN(C)CC2)c1 (protonated)
CC(=O)c1cccc(CC(=O)[N-]c2cc(S(=O)(=O)N3CCCCC3)ccc2N2CCN(C)CC2)c1 (3D coordinates assigned)
CC(=O)c1cccc(CC(=O)[N-]c2cc(S(=O)(=O)N3CCCCC3)ccc2N2CCN(C)CC2)c1 (nonaromatic ring conformer: 86.05512250727317 kcal/mol)

>  <smiles>  (5) 
CC(=O)c1cccc(CC(=O)Nc2cc(S(=O)(=O)N3CCCCC3)ccc2N2CCN(C)CC2)c1

>  <score_type>  (5) 
oracle

>  <origin>  (5) 
adg

>  <m_score__min__energy>  (5) 
-12.19

>  <m_primary>  (5) 
energy

$$$$
5:0
     RDKit          3D

 60 63  0  0  0  0  0  0  0  0999 V2000
   57.2840   34.5590   44.8710 C   0  0  0  0  0  0  0  0  0  0  0  0
   57.9110   33.3080   45.3370 N   0  0  0  0  0  0  0  0  0  0  0  0
   57.8830   32.1990   44.5400 C   0  0  0  0  0  0  0  0  0  0  0  0
   57.2900   32.2360   43.4250 O   0  0  0  0  0  0  0  0  0  0  0  0
   58.5020   31.0070   44.9500 C   0  0  0  0  0  0  0  0  0  0  0  0
   58.3870   29.8110   44.1350 N   0  0  0  0  0  0  0  0  0  0  0  0
   57.1270   29.1160   44.4350 C   0  0  0  0  0  0  0  0  0  0  0  0
   57.3720   27.8990   45.2760 C   0  0  0  0  0  0  0  0  0  0  0  0
   56.3710   27.1560   45.7980 N   0  0  0  0  0  0  0  0  0  0  0  0
   57.0160   26.1650   46.4340 C   0  0  0  0  0  0  0  0  0  0  0  0
   56.3300   25.0190   47.1140 C   0  0  0  0  0  0  0  0  0  0  0  0
   55.1690   24.5740   46.3150 N   0  0  0  0  0  0  0  0  0  0  0  0
   54.5220   23.3510   46.8650 C   0  0  0  0  0  0  0  0  0  0  0  0
   54.7760   22.0750   46.0360 C   0  0  0  0  0  0  0  0  0  0  0  0
   56.1900   22.0630   45.4610 C   0  0  0  0  0  0  0  0  0  0  0  0
   56.4540   23.2970   44.5790 C   0  0  0  0  0  0  0  0  0  0  0  0
   55.4930   24.4640   44.8770 C   0  0  0  0  0  0  0  0  0  0  0  0
   58.3740   26.3130   46.2680 C   0  0  0  0  0  0  0  0  0  0  0  0
   58.6060   27.4130   45.5320 N   0  0  0  0  0  0  0  0  0  0  0  0
   59.1340   30.9850   46.2140 C   0  0  0  0  0  0  0  0  0  0  0  0
   59.7180   29.7620   46.6960 N   0  0  0  0  0  0  0  0  0  0  0  0
   59.1780   32.1290   46.9810 N   0  0  0  0  0  0  0  0  0  0  0  0
   59.9320   32.1490   48.2580 C   0  0  0  0  0  0  0  0  0  0  0  0
   61.3670   32.5440   48.0250 C   0  0  0  0  0  0  0  0  0  0  0  0
   61.6900   33.4530   47.0030 C   0  0  0  0  0  0  0  0  0  0  0  0
   63.0200   33.8120   46.7690 C   0  0  0  0  0  0  0  0  0  0  0  0
   64.0370   33.2660   47.5550 C   0  0  0  0  0  0  0  0  0  0  0  0
   63.7260   32.3620   48.5730 C   0  0  0  0  0  0  0  0  0  0  0  0
   62.3960   32.0000   48.8080 C   0  0  0  0  0  0  0  0  0  0  0  0
   58.5840   33.2840   46.5300 C   0  0  0  0  0  0  0  0  0  0  0  0
   58.6570   34.3410   47.2210 O   0  0  0  0  0  0  0  0  0  0  0  0
   56.9813   35.1629   45.7391 H   0  0  0  0  0  0  0  0  0  0  0  0
   58.0045   35.1260   44.2632 H   0  0  0  0  0  0  0  0  0  0  0  0
   56.3986   34.3211   44.2632 H   0  0  0  0  0  0  0  0  0  0  0  0
   58.4180   30.0570   43.1180 H   0  0  0  0  0  0  0  0  0  0  0  0
   59.1980   29.1740   44.2930 H   0  0  0  0  0  0  0  0  0  0  0  0
   56.4592   29.8005   44.9786 H   0  0  0  0  0  0  0  0  0  0  0  0
   56.6665   28.8003   43.4872 H   0  0  0  0  0  0  0  0  0  0  0  0
   57.0380   24.1842   47.2227 H   0  0  0  0  0  0  0  0  0  0  0  0
   55.9807   25.3457   48.1046 H   0  0  0  0  0  0  0  0  0  0  0  0
   54.9072   23.1843   47.8818 H   0  0  0  0  0  0  0  0  0  0  0  0
   53.4370   23.5307   46.8449 H   0  0  0  0  0  0  0  0  0  0  0  0
   54.6440   21.1949   46.6825 H   0  0  0  0  0  0  0  0  0  0  0  0
   54.0601   22.0537   45.2011 H   0  0  0  0  0  0  0  0  0  0  0  0
   56.9125   22.0559   46.2904 H   0  0  0  0  0  0  0  0  0  0  0  0
   56.2997   21.1641   44.8365 H   0  0  0  0  0  0  0  0  0  0  0  0
   57.4851   23.6384   44.7527 H   0  0  0  0  0  0  0  0  0  0  0  0
   56.2931   22.9958   43.5334 H   0  0  0  0  0  0  0  0  0  0  0  0
   55.9639   25.4022   44.5482 H   0  0  0  0  0  0  0  0  0  0  0  0
   54.5548   24.2725   44.3355 H   0  0  0  0  0  0  0  0  0  0  0  0
   59.1445   25.6400   46.6722 H   0  0  0  0  0  0  0  0  0  0  0  0
   59.2560   28.8410   46.5460 H   0  0  0  0  0  0  0  0  0  0  0  0
   60.6470   29.7370   47.1590 H   0  0  0  0  0  0  0  0  0  0  0  0
   59.4649   32.8733   48.9415 H   0  0  0  0  0  0  0  0  0  0  0  0
   59.9103   31.1404   48.6964 H   0  0  0  0  0  0  0  0  0  0  0  0
   60.8904   33.8848   46.3831 H   0  0  0  0  0  0  0  0  0  0  0  0
   63.2655   34.5236   45.9669 H   0  0  0  0  0  0  0  0  0  0  0  0
   65.0843   33.5483   47.3720 H   0  0  0  0  0  0  0  0  0  0  0  0
   64.5289   31.9339   49.1912 H   0  0  0  0  0  0  0  0  0  0  0  0
   62.1557   31.2861   49.6097 H   0  0  0  0  0  0  0  0  0  0  0  0
  1  2  1  0
  2  3  1  0
  3  4  2  0
  3  5  1  0
  5  6  1  0
  6  7  1  0
  7  8  1  0
  8  9  2  0
  9 10  1  0
 10 11  1  0
 11 12  1  0
 12 13  1  0
 13 14  1  0
 14 15  1  0
 15 16  1  0
 16 17  1  0
 10 18  2  0
 18 19  1  0
  5 20  2  0
 20 21  1  0
 20 22  1  0
 22 23  1  0
 23 24  1  0
 24 25  2  0
 25 26  1  0
 26 27  2  0
 27 28  1  0
 28 29  2  0
 22 30  1  0
 30 31  2  0
 30  2  1  0
 19  8  1  0
 29 24  1  0
 17 12  1  0
  1 32  1  0
  1 33  1  0
  1 34  1  0
  6 35  1  0
  6 36  1  0
  7 37  1  0
  7 38  1  0
 11 39  1  0
 11 40  1  0
 13 41  1  0
 13 42  1  0
 14 43  1  0
 14 44  1  0
 15 45  1  0
 15 46  1  0
 16 47  1  0
 16 48  1  0
 17 49  1  0
 17 50  1  0
 18 51  1  0
 21 52  1  0
 21 53  1  0
 23 54  1  0
 23 55  1  0
 25 56  1  0
 26 57  1  0
 27 58  1  0
 28 59  1  0
 29 60  1  0
M  CHG  2   6   1  19  -1
M  END
>  <UniqueID>  (6) 
6

>  <SMILES>  (6) 
Cn1c(=O)c([NH2+]Cc2nc(CN3CCCCC3)c[n-]2)c(N)n(Cc2ccccc2)c1=O

>  <Energy>  (6) 
112.0938694720238

>  <Genealogy>  (6) 
Cn1c(=O)c([NH2+]Cc2nc(CN3CCCCC3)c[n-]2)c(N)n(Cc2ccccc2)c1=O (protonated)
Cn1c(=O)c([NH2+]Cc2nc(CN3CCCCC3)c[n-]2)c(N)n(Cc2ccccc2)c1=O (3D coordinates assigned)
Cn1c(=O)c([NH2+]Cc2nc(CN3CCCCC3)c[n-]2)c(N)n(Cc2ccccc2)c1=O (nonaromatic ring conformer: 112.0938694720238 kcal/mol)

>  <smiles>  (6) 
Cn1c(=O)c(NCc2nc(CN3CCCCC3)c[nH]2)c(N)n(Cc2ccccc2)c1=O

>  <score_type>  (6) 
oracle

>  <origin>  (6) 
adg

>  <m_score__min__energy>  (6) 
-7.5999999999999996

>  <m_primary>  (6) 
energy

$$$$
6:0
     RDKit          3D

 63 67  0  0  0  0  0  0  0  0999 V2000
   55.4420   29.6150   44.8670 O   0  0  0  0  0  0  0  0  0  0  0  0
   56.5790   30.1660   44.8520 C   0  0  0  0  0  0  0  0  0  0  0  0
   56.6520   31.5760   44.5930 N   0  0  0  0  0  0  0  0  0  0  0  0
   57.5920   32.4930   45.1670 C   0  0  0  0  0  0  0  0  0  0  0  0
   58.0230   33.6380   44.4710 C   0  0  0  0  0  0  0  0  0  0  0  0
   58.9430   34.5130   45.0590 C   0  0  0  0  0  0  0  0  0  0  0  0
   59.4370   34.2530   46.3410 C   0  0  0  0  0  0  0  0  0  0  0  0
   59.0260   33.1050   47.0340 C   0  0  0  0  0  0  0  0  0  0  0  0
   59.6070   32.7760   48.6660 S   0  0  0  0  0  0  0  0  0  0  0  0
   59.2910   33.9520   49.5460 O   0  0  0  0  0  0  0  0  0  0  0  0
   58.9240   31.5560   49.2200 O   0  0  0  0  0  0  0  0  0  0  0  0
   61.3340   32.5240   48.6180 N   0  0  0  0  0  0  0  0  0  0  0  0
   62.0670   33.7830   48.4590 C   0  0  0  0  0  0  0  0  0  0  0  0
   63.3700   33.4480   47.7430 C   0  0  0  0  0  0  0  0  0  0  0  0
   63.1690   32.0590   47.1540 C   0  0  0  0  0  0  0  0  0  0  0  0
   61.7330   31.6840   47.4860 C   0  0  0  0  0  0  0  0  0  0  0  0
   58.1160   32.2220   46.4360 C   0  0  0  0  0  0  0  0  0  0  0  0
   57.7950   29.3380   45.0560 C   0  0  0  0  0  0  0  0  0  0  0  0
   59.0660   29.8110   44.6770 C   0  0  0  0  0  0  0  0  0  0  0  0
   60.2070   29.0350   44.9060 C   0  0  0  0  0  0  0  0  0  0  0  0
   60.0890   27.7750   45.4950 C   0  0  0  0  0  0  0  0  0  0  0  0
   58.8280   27.2700   45.8350 C   0  0  0  0  0  0  0  0  0  0  0  0
   58.7020   25.6520   46.5190 S   0  0  0  0  0  0  0  0  0  0  0  0
   59.9680   24.9080   46.1960 O   0  0  0  0  0  0  0  0  0  0  0  0
   58.5630   25.7310   48.0140 O   0  0  0  0  0  0  0  0  0  0  0  0
   57.3380   24.7900   45.8530 N   0  0  0  0  0  0  0  0  0  0  0  0
   56.0220   25.4300   45.9910 C   0  0  0  0  0  0  0  0  0  0  0  0
   54.8790   24.4590   45.6900 C   0  0  0  0  0  0  0  0  0  0  0  0
   55.0810   23.8080   44.3220 C   0  0  0  0  0  0  0  0  0  0  0  0
   56.4190   23.1250   44.2590 C   0  0  0  0  0  0  0  0  0  0  0  0
   56.5850   22.0100   43.4230 C   0  0  0  0  0  0  0  0  0  0  0  0
   57.8170   21.3530   43.3590 C   0  0  0  0  0  0  0  0  0  0  0  0
   58.8920   21.8120   44.1190 C   0  0  0  0  0  0  0  0  0  0  0  0
   58.7470   22.9380   44.9350 C   0  0  0  0  0  0  0  0  0  0  0  0
   57.5140   23.6240   45.0040 C   0  0  0  0  0  0  0  0  0  0  0  0
   57.6840   28.0500   45.6070 C   0  0  0  0  0  0  0  0  0  0  0  0
   57.6357   33.8454   43.4625 H   0  0  0  0  0  0  0  0  0  0  0  0
   59.2781   35.4066   44.5120 H   0  0  0  0  0  0  0  0  0  0  0  0
   60.1492   34.9500   46.8068 H   0  0  0  0  0  0  0  0  0  0  0  0
   61.6320   32.0590   49.5110 H   0  0  0  0  0  0  0  0  0  0  0  0
   61.4768   34.4914   47.8591 H   0  0  0  0  0  0  0  0  0  0  0  0
   62.2626   34.2512   49.4350 H   0  0  0  0  0  0  0  0  0  0  0  0
   63.5681   34.1784   46.9447 H   0  0  0  0  0  0  0  0  0  0  0  0
   64.2300   33.4786   48.4281 H   0  0  0  0  0  0  0  0  0  0  0  0
   63.3200   32.0773   46.0646 H   0  0  0  0  0  0  0  0  0  0  0  0
   63.8867   31.3330   47.5636 H   0  0  0  0  0  0  0  0  0  0  0  0
   61.0806   31.8765   46.6216 H   0  0  0  0  0  0  0  0  0  0  0  0
   61.6485   30.6158   47.7345 H   0  0  0  0  0  0  0  0  0  0  0  0
   57.8115   31.3089   46.9685 H   0  0  0  0  0  0  0  0  0  0  0  0
   59.1621   30.7966   44.1980 H   0  0  0  0  0  0  0  0  0  0  0  0
   61.1982   29.4180   44.6217 H   0  0  0  0  0  0  0  0  0  0  0  0
   60.9903   27.1763   45.6929 H   0  0  0  0  0  0  0  0  0  0  0  0
   55.9127   25.7989   47.0215 H   0  0  0  0  0  0  0  0  0  0  0  0
   55.9673   26.2550   45.2655 H   0  0  0  0  0  0  0  0  0  0  0  0
   54.8540   23.6773   46.4635 H   0  0  0  0  0  0  0  0  0  0  0  0
   53.9299   25.0150   45.6845 H   0  0  0  0  0  0  0  0  0  0  0  0
   54.2869   23.0658   44.1530 H   0  0  0  0  0  0  0  0  0  0  0  0
   55.0413   24.5873   43.5466 H   0  0  0  0  0  0  0  0  0  0  0  0
   55.7413   21.6514   42.8151 H   0  0  0  0  0  0  0  0  0  0  0  0
   57.9385   20.4739   42.7091 H   0  0  0  0  0  0  0  0  0  0  0  0
   59.8574   21.2865   44.0765 H   0  0  0  0  0  0  0  0  0  0  0  0
   59.6017   23.2933   45.5293 H   0  0  0  0  0  0  0  0  0  0  0  0
   56.6916   27.6497   45.8618 H   0  0  0  0  0  0  0  0  0  0  0  0
  1  2  2  0
  2  3  1  0
  3  4  1  0
  4  5  2  0
  5  6  1  0
  6  7  2  0
  7  8  1  0
  8  9  1  0
  9 10  2  0
  9 11  2  0
  9 12  1  0
 12 13  1  0
 13 14  1  0
 14 15  1  0
 15 16  1  0
  8 17  2  0
  2 18  1  0
 18 19  2  0
 19 20  1  0
 20 21  2  0
 21 22  1  0
 22 23  1  0
 23 24  2  0
 23 25  2  0
 23 26  1  0
 26 27  1  0
 27 28  1  0
 28 29  1  0
 29 30  1  0
 30 31  2  0
 31 32  1  0
 32 33  2  0
 33 34  1  0
 34 35  2  0
 22 36  2  0
 17  4  1  0
 36 18  1  0
 16 12  1  0
 35 26  1  0
 35 30  1  0
  5 37  1  0
  6 38  1  0
  7 39  1  0
 12 40  1  0
 13 41  1  0
 13 42  1  0
 14 43  1  0
 14 44  1  0
 15 45  1  0
 15 46  1  0
 16 47  1  0
 16 48  1  0
 17 49  1  0
 19 50  1  0
 20 51  1  0
 21 52  1  0
 27 53  1  0
 27 54  1  0
 28 55  1  0
 28 56  1  0
 29 57  1  0
 29 58  1  0
 31 59  1  0
 32 60  1  0
 33 61  1  0
 34 62  1  0
 36 63  1  0
M  CHG  2   3  -1  12   1
M  END
>  <UniqueID>  (7) 
7

>  <SMILES>  (7) 
O=C([N-]c1cccc(S(=O)(=O)[NH+]2CCCC2)c1)c1cccc(S(=O)(=O)N2CCCc3ccccc32)c1

>  <Energy>  (7) 
78.12303806013895

>  <Genealogy>  (7) 
O=C([N-]c1cccc(S(=O)(=O)[NH+]2CCCC2)c1)c1cccc(S(=O)(=O)N2CCCc3ccccc32)c1 (protonated)
O=C([N-]c1cccc(S(=O)(=O)[NH+]2CCCC2)c1)c1cccc(S(=O)(=O)N2CCCc3ccccc32)c1 (3D coordinates assigned)
O=C([N-]c1cccc(S(=O)(=O)[NH+]2CCCC2)c1)c1cccc(S(=O)(=O)N2CCCc3ccccc32)c1 (nonaromatic ring conformer: 78.12303806013895 kcal/mol)

>  <smiles>  (7) 
O=C(Nc1cccc(S(=O)(=O)N2CCCC2)c1)c1cccc(S(=O)(=O)N2CCCc3ccccc32)c1

>  <score_type>  (7) 
oracle

>  <origin>  (7) 
adg

>  <m_score__min__energy>  (7) 
-11.92

>  <m_primary>  (7) 
energy

$$$$
7:0
     RDKit          3D

 38 40  0  0  0  0  0  0  0  0999 V2000
   59.0390   34.9680   45.6080 C   0  0  0  0  0  0  0  0  0  0  0  0
   59.4950   33.9480   46.3380 C   0  0  0  0  0  0  0  0  0  0  0  0
   60.6150   34.0380   47.0190 O   0  0  0  0  0  0  0  0  0  0  0  0
   60.9040   32.8700   47.5370 C   0  0  0  0  0  0  0  0  0  0  0  0
   59.9360   31.9540   47.1820 C   0  0  0  0  0  0  0  0  0  0  0  0
   59.9340   30.5350   47.5940 C   0  0  0  0  0  0  0  0  0  0  0  0
   60.2460   30.1630   49.1650 S   0  0  0  0  0  0  0  0  0  0  0  0
   59.5490   29.5080   46.6540 N   0  0  0  0  0  0  0  0  0  0  0  0
   58.8820   28.2800   47.1130 C   0  0  0  0  0  0  0  0  0  0  0  0
   57.9160   27.7540   46.0460 C   0  0  0  0  0  0  0  0  0  0  0  0
   58.5410   27.7140   44.7180 N   0  0  0  0  0  0  0  0  0  0  0  0
   57.8640   27.0040   43.6680 C   0  0  0  0  0  0  0  0  0  0  0  0
   58.3930   26.8610   42.5340 O   0  0  0  0  0  0  0  0  0  0  0  0
   59.8650   28.3080   44.4990 C   0  0  0  0  0  0  0  0  0  0  0  0
   59.9810   29.6350   45.2530 C   0  0  0  0  0  0  0  0  0  0  0  0
   58.9770   32.6490   46.4500 C   0  0  0  0  0  0  0  0  0  0  0  0
   57.7990   32.1360   46.0340 C   0  0  0  0  0  0  0  0  0  0  0  0
   57.4850   31.7230   44.6580 C   0  0  0  0  0  0  0  0  0  0  0  0
   57.8830   32.3280   43.5660 O   0  0  0  0  0  0  0  0  0  0  0  0
   57.3300   31.6850   42.5610 C   0  0  0  0  0  0  0  0  0  0  0  0
   57.5120   32.0040   41.3580 O   0  0  0  0  0  0  0  0  0  0  0  0
   56.5450   30.6540   42.9390 N   0  0  0  0  0  0  0  0  0  0  0  0
   56.6490   30.6980   44.2810 C   0  0  0  0  0  0  0  0  0  0  0  0
   55.9960   29.8250   45.1430 O   0  0  0  0  0  0  0  0  0  0  0  0
   58.0981   34.8658   45.0473 H   0  0  0  0  0  0  0  0  0  0  0  0
   59.6040   35.9109   45.5670 H   0  0  0  0  0  0  0  0  0  0  0  0
   61.7843   32.6530   48.1599 H   0  0  0  0  0  0  0  0  0  0  0  0
   59.6423   27.5127   47.3208 H   0  0  0  0  0  0  0  0  0  0  0  0
   58.3100   28.5090   48.0243 H   0  0  0  0  0  0  0  0  0  0  0  0
   57.6000   26.7371   46.3218 H   0  0  0  0  0  0  0  0  0  0  0  0
   57.0543   28.4360   45.9983 H   0  0  0  0  0  0  0  0  0  0  0  0
   56.8675   26.5785   43.8577 H   0  0  0  0  0  0  0  0  0  0  0  0
   60.6385   27.6152   44.8619 H   0  0  0  0  0  0  0  0  0  0  0  0
   60.0014   28.4935   43.4234 H   0  0  0  0  0  0  0  0  0  0  0  0
   61.0300   29.9654   45.2326 H   0  0  0  0  0  0  0  0  0  0  0  0
   59.3257   30.3672   44.7586 H   0  0  0  0  0  0  0  0  0  0  0  0
   57.0073   32.0170   46.7884 H   0  0  0  0  0  0  0  0  0  0  0  0
   55.1610   30.1160   45.6370 H   0  0  0  0  0  0  0  0  0  0  0  0
  1  2  2  0
  2  3  1  0
  3  4  1  0
  4  5  2  0
  5  6  1  0
  6  7  2  0
  6  8  1  0
  8  9  1  0
  9 10  1  0
 10 11  1  0
 11 12  1  0
 12 13  2  0
 11 14  1  0
 14 15  1  0
  5 16  1  0
 16 17  2  3
 17 18  1  0
 18 19  1  0
 19 20  1  0
 20 21  2  0
 20 22  1  0
 22 23  1  0
 23 24  1  0
 16  2  1  0
 23 18  2  0
 15  8  1  0
  1 25  1  0
  1 26  1  0
  4 27  1  0
  9 28  1  0
  9 29  1  0
 10 30  1  0
 10 31  1  0
 12 32  1  0
 14 33  1  0
 14 34  1  0
 15 35  1  0
 15 36  1  0
 17 37  1  0
 24 38  1  0
M  CHG  1  22  -1
M  END
>  <UniqueID>  (8) 
8

>  <SMILES>  (8) 
C=c1occ(C(=S)N2CCN(C=O)CC2)c1=Cc1oc(=O)[n-]c1O

>  <Energy>  (8) 
114.9342277723247

>  <Genealogy>  (8) 
C=c1occ(C(=S)N2CCN(C=O)CC2)c1=Cc1oc(=O)[n-]c1O (protonated)
C=c1occ(C(=S)N2CCN(C=O)CC2)c1=Cc1oc(=O)[n-]c1O (3D coordinates assigned)
C=c1occ(C(=S)N2CCN(C=O)CC2)c1=Cc1oc(=O)[n-]c1O (nonaromatic ring conformer: 114.9342277723247 kcal/mol)

>  <smiles>  (8) 
C=c1occ(C(=S)N2CCN(C=O)CC2)c1=Cc1oc(=O)[nH]c1O

>  <score_type>  (8) 
oracle

>  <origin>  (8) 
adg

>  <m_score__min__energy>  (8) 
-9.9199999999999999

>  <m_primary>  (8) 
energy

$$$$
8:0
     RDKit          3D

 41 43  0  0  0  0  0  0  0  0999 V2000
   66.6670   34.6080   53.0480 C   0  0  0  0  0  0  0  0  0  0  0  0
   65.9350   33.4600   52.6410 O   0  0  0  0  0  0  0  0  0  0  0  0
   65.1410   33.4720   51.4910 C   0  0  0  0  0  0  0  0  0  0  0  0
   65.7000   33.1260   50.2460 C   0  0  0  0  0  0  0  0  0  0  0  0
   67.1440   32.7190   50.1390 C   0  0  0  0  0  0  0  0  0  0  0  0
   64.8850   33.0950   49.1040 C   0  0  0  0  0  0  0  0  0  0  0  0
   63.5270   33.4410   49.1800 C   0  0  0  0  0  0  0  0  0  0  0  0
   62.6640   33.4020   47.9730 C   0  0  0  0  0  0  0  0  0  0  0  0
   63.1140   33.8270   46.8730 O   0  0  0  0  0  0  0  0  0  0  0  0
   61.3410   32.8410   48.0310 N   0  0  0  0  0  0  0  0  0  0  0  0
   60.3130   33.1200   47.0640 C   0  0  0  0  0  0  0  0  0  0  0  0
   60.2400   34.3950   46.4860 C   0  0  0  0  0  0  0  0  0  0  0  0
   59.2660   34.6810   45.5300 C   0  0  0  0  0  0  0  0  0  0  0  0
   58.3610   33.6950   45.1310 C   0  0  0  0  0  0  0  0  0  0  0  0
   58.4240   32.4030   45.6810 C   0  0  0  0  0  0  0  0  0  0  0  0
   57.4920   31.3920   45.2480 N   0  0  0  0  0  0  0  0  0  0  0  0
   57.6370   30.0530   45.2380 C   0  0  0  0  0  0  0  0  0  0  0  0
   56.5180   29.4770   44.7610 N   0  0  0  0  0  0  0  0  0  0  0  0
   55.6980   30.4820   44.4830 N   0  0  0  0  0  0  0  0  0  0  0  0
   56.2800   31.6330   44.7760 N   0  0  0  0  0  0  0  0  0  0  0  0
   59.4130   32.1210   46.6430 C   0  0  0  0  0  0  0  0  0  0  0  0
   62.9840   33.8050   50.4230 C   0  0  0  0  0  0  0  0  0  0  0  0
   63.7850   33.8420   51.5740 C   0  0  0  0  0  0  0  0  0  0  0  0
   63.1690   34.2130   52.8950 C   0  0  0  0  0  0  0  0  0  0  0  0
   66.6962   34.6538   54.1467 H   0  0  0  0  0  0  0  0  0  0  0  0
   67.6930   34.5466   52.6562 H   0  0  0  0  0  0  0  0  0  0  0  0
   66.1784   35.5123   52.6562 H   0  0  0  0  0  0  0  0  0  0  0  0
   67.5670   32.5998   51.1474 H   0  0  0  0  0  0  0  0  0  0  0  0
   67.2169   31.7653   49.5957 H   0  0  0  0  0  0  0  0  0  0  0  0
   67.7042   33.4943   49.5957 H   0  0  0  0  0  0  0  0  0  0  0  0
   65.3159   32.7958   48.1372 H   0  0  0  0  0  0  0  0  0  0  0  0
   61.1520   32.1040   48.7460 H   0  0  0  0  0  0  0  0  0  0  0  0
   60.9551   35.1743   46.7883 H   0  0  0  0  0  0  0  0  0  0  0  0
   59.2103   35.6870   45.0885 H   0  0  0  0  0  0  0  0  0  0  0  0
   57.5926   33.9314   44.3802 H   0  0  0  0  0  0  0  0  0  0  0  0
   58.5351   29.5115   45.5699 H   0  0  0  0  0  0  0  0  0  0  0  0
   59.4837   31.1099   47.0704 H   0  0  0  0  0  0  0  0  0  0  0  0
   61.9174   34.0643   50.4949 H   0  0  0  0  0  0  0  0  0  0  0  0
   63.7991   33.8335   53.7129 H   0  0  0  0  0  0  0  0  0  0  0  0
   63.0921   35.3078   52.9691 H   0  0  0  0  0  0  0  0  0  0  0  0
   62.1653   33.7690   52.9691 H   0  0  0  0  0  0  0  0  0  0  0  0
  1  2  1  0
  2  3  1  0
  3  4  2  0
  4  5  1  0
  4  6  1  0
  6  7  2  0
  7  8  1  0
  8  9  2  0
  8 10  1  0
 10 11  1  0
 11 12  2  0
 12 13  1  0
 13 14  2  0
 14 15  1  0
 15 16  1  0
 16 17  1  0
 17 18  2  0
 18 19  1  0
 19 20  2  0
 15 21  2  0
  7 22  1  0
 22 23  2  0
 23 24  1  0
 23  3  1  0
 21 11  1  0
 20 16  1  0
  1 25  1  0
  1 26  1  0
  1 27  1  0
  5 28  1  0
  5 29  1  0
  5 30  1  0
  6 31  1  0
 10 32  1  0
 12 33  1  0
 13 34  1  0
 14 35  1  0
 17 36  1  0
 21 37  1  0
 22 38  1  0
 24 39  1  0
 24 40  1  0
 24 41  1  0
M  END
>  <UniqueID>  (9) 
9

>  <SMILES>  (9) 
COc1c(C)cc(C(=O)Nc2cccc(-n3cnnn3)c2)cc1C

>  <Energy>  (9) 
96.18182976278891

>  <Genealogy>  (9) 
COc1c(C)cc(C(=O)Nc2cccc(-n3cnnn3)c2)cc1C (3D coordinates assigned)
COc1c(C)cc(C(=O)Nc2cccc(-n3cnnn3)c2)cc1C (optimized conformer: 96.18182976278891 kcal/mol)

>  <smiles>  (9) 
COc1c(C)cc(C(=O)Nc2cccc(-n3cnnn3)c2)cc1C

>  <score_type>  (9) 
oracle

>  <origin>  (9) 
adg

>  <m_score__min__energy>  (9) 
-8.3499999999999996

>  <m_primary>  (9) 
energy

$$$$
9:0
     RDKit          3D

 36 38  0  0  0  0  0  0  0  0999 V2000
   54.6480   28.3350   44.4930 H   0  0  0  0  0  0  0  0  0  0  0  0
   54.7850   29.3280   44.3440 O   0  0  0  0  0  0  0  0  0  0  0  0
   56.0560   29.8790   44.1900 C   0  0  0  0  0  0  0  0  0  0  0  0
   56.2750   30.8320   43.1830 C   0  0  0  0  0  0  0  0  0  0  0  0
   55.4531   31.1119   42.5076 H   0  0  0  0  0  0  0  0  0  0  0  0
   57.5290   31.4270   43.0330 C   0  0  0  0  0  0  0  0  0  0  0  0
   57.6940   32.1680   42.2369 H   0  0  0  0  0  0  0  0  0  0  0  0
   58.5720   31.0830   43.8910 C   0  0  0  0  0  0  0  0  0  0  0  0
   59.5571   31.5591   43.7774 H   0  0  0  0  0  0  0  0  0  0  0  0
   58.3670   30.1340   44.8950 C   0  0  0  0  0  0  0  0  0  0  0  0
   59.1911   29.8769   45.5768 H   0  0  0  0  0  0  0  0  0  0  0  0
   57.1200   29.5040   45.0440 C   0  0  0  0  0  0  0  0  0  0  0  0
   56.9740   28.5020   46.0690 N   0  0  0  0  0  0  0  0  0  0  0  0
   56.0290   28.3550   46.4900 H   0  0  0  0  0  0  0  0  0  0  0  0
   58.0350   27.6610   46.5420 C   0  0  0  0  0  0  0  0  0  0  0  0
   58.9390   28.0060   47.5330 C   0  0  0  0  0  0  0  0  0  0  0  0
   59.0030   29.3130   48.2280 C   0  0  0  0  0  0  0  0  0  0  0  0
   58.5220   29.4580   49.3820 O   0  0  0  0  0  0  0  0  0  0  0  0
   59.6090   30.4030   47.6160 O   0  0  0  0  0  0  0  0  0  0  0  0
   59.7010   26.8560   47.7460 C   0  0  0  0  0  0  0  0  0  0  0  0
   60.6830   26.6890   48.6350 C   0  0  0  0  0  0  0  0  0  0  0  0
   60.9824   27.5229   49.2869 H   0  0  0  0  0  0  0  0  0  0  0  0
   61.1927   25.7175   48.7155 H   0  0  0  0  0  0  0  0  0  0  0  0
   59.3080   25.8560   46.9310 N   0  0  0  0  0  0  0  0  0  0  0  0
   58.2990   26.3400   46.1800 C   0  0  0  0  0  0  0  0  0  0  0  0
   57.7050   25.5880   45.2390 C   0  0  0  0  0  0  0  0  0  0  0  0
   58.1431   25.6012   44.2301 H   0  0  0  0  0  0  0  0  0  0  0  0
   56.5100   24.7440   45.4500 C   0  0  0  0  0  0  0  0  0  0  0  0
   55.2780   25.3340   45.7660 C   0  0  0  0  0  0  0  0  0  0  0  0
   55.1530   26.7160   45.8390 O   0  0  0  0  0  0  0  0  0  0  0  0
   54.1900   24.5530   45.9890 N   0  0  0  0  0  0  0  0  0  0  0  0
   54.2740   23.2000   45.9300 C   0  0  0  0  0  0  0  0  0  0  0  0
   53.2500   22.4970   46.1330 O   0  0  0  0  0  0  0  0  0  0  0  0
   55.4630   22.6040   45.6570 N   0  0  0  0  0  0  0  0  0  0  0  0
   56.5810   23.3400   45.4260 C   0  0  0  0  0  0  0  0  0  0  0  0
   57.6720   22.7520   45.2040 O   0  0  0  0  0  0  0  0  0  0  0  0
  1  2  1  0
  2  3  1  0
  3  4  2  0
  4  5  1  0
  4  6  1  0
  6  7  1  0
  6  8  2  0
  8  9  1  0
  8 10  1  0
 10 11  1  0
 10 12  2  0
 12 13  1  0
 13 14  1  0
 13 15  1  0
 15 16  2  0
 16 17  1  0
 17 18  2  0
 17 19  1  0
 16 20  1  0
 20 21  2  0
 21 22  1  0
 21 23  1  0
 20 24  1  0
 24 25  1  0
 25 26  2  0
 26 27  1  0
 26 28  1  0
 28 29  2  0
 29 30  1  0
 29 31  1  0
 31 32  1  0
 32 33  2  0
 32 34  1  0
 34 35  1  0
 35 36  2  0
 12  3  1  0
 25 15  1  0
 35 28  1  0
M  CHG  5  19  -1  24  -1  30  -1  31  -1  34  -1
M  END
>  <UniqueID>  (10) 
10

>  <SMILES>  (10) 
C=c1[n-]/c(=C/c2c([O-])[n-]c(=O)[n-]c2=O)c(Nc2ccccc2O)c1C(=O)[O-]

>  <Energy>  (10) 
84.8138933362426

>  <Genealogy>  (10) 
C=c1[n-]c(=Cc2c([O-])[n-]c(=O)[n-]c2=O)c(Nc2ccccc2O)c1C(=O)[O-] (protonated)
C=c1[n-]/c(=C/c2c([O-])[n-]c(=O)[n-]c2=O)c(Nc2ccccc2O)c1C(=O)[O-] (cis-trans isomerization)
C=c1[n-]/c(=C/c2c([O-])[n-]c(=O)[n-]c2=O)c(Nc2ccccc2O)c1C(=O)[O-] (3D coordinates assigned)
C=c1[n-]/c(=C/c2c([O-])[n-]c(=O)[n-]c2=O)c(Nc2ccccc2O)c1C(=O)[O-] (optimized conformer: 84.8138933362426 kcal/mol)

>  <smiles>  (10) 
C=c1[nH]c(=Cc2c(O)[nH]c(=O)[nH]c2=O)c(Nc2ccccc2O)c1C(=O)O

>  <score_type>  (10) 
oracle

>  <origin>  (10) 
adg

>  <m_score__min__energy>  (10) 
-16.670000000000002

>  <m_primary>  (10) 
energy

$$$$
10:0
     RDKit          3D

 24 25  0  0  0  0  0  0  0  0999 V2000
   59.8220   28.3850   45.3910 O   0  0  0  0  0  0  0  0  0  0  0  0
   58.6070   28.6970   45.4970 C   0  0  0  0  0  0  0  0  0  0  0  0
   57.6240   27.6670   45.8660 C   0  0  0  0  0  0  0  0  0  0  0  0
   57.9130   26.4630   46.4830 C   0  0  0  0  0  0  0  0  0  0  0  0
   56.7150   25.7980   46.6100 C   0  0  0  0  0  0  0  0  0  0  0  0
   55.7680   26.6290   46.0550 C   0  0  0  0  0  0  0  0  0  0  0  0
   54.4140   26.3370   45.9710 O   0  0  0  0  0  0  0  0  0  0  0  0
   56.3070   27.7720   45.5910 N   0  0  0  0  0  0  0  0  0  0  0  0
   58.2120   30.0610   45.3030 N   0  0  0  0  0  0  0  0  0  0  0  0
   58.8160   31.1910   45.9850 C   0  0  0  0  0  0  0  0  0  0  0  0
   58.0230   32.4020   45.4680 C   0  0  0  0  0  0  0  0  0  0  0  0
   57.1020   31.8460   44.4840 N   0  0  0  0  0  0  0  0  0  0  0  0
   57.2390   30.5680   44.3970 C   0  0  0  0  0  0  0  0  0  0  0  0
   56.4400   29.7340   43.4290 C   0  0  0  0  0  0  0  0  0  0  0  0
   56.2520   30.4100   42.2380 F   0  0  0  0  0  0  0  0  0  0  0  0
   55.1970   29.4480   43.9650 F   0  0  0  0  0  0  0  0  0  0  0  0
   57.1020   28.5460   43.1830 F   0  0  0  0  0  0  0  0  0  0  0  0
   58.9025   26.1082   46.8072 H   0  0  0  0  0  0  0  0  0  0  0  0
   56.5486   24.8086   47.0610 H   0  0  0  0  0  0  0  0  0  0  0  0
   58.7115   31.0914   47.0755 H   0  0  0  0  0  0  0  0  0  0  0  0
   59.8953   31.2763   45.7904 H   0  0  0  0  0  0  0  0  0  0  0  0
   57.4705   32.8833   46.2884 H   0  0  0  0  0  0  0  0  0  0  0  0
   58.6762   33.1753   45.0375 H   0  0  0  0  0  0  0  0  0  0  0  0
   56.4310   32.4150   43.9200 H   0  0  0  0  0  0  0  0  0  0  0  0
  1  2  2  0
  2  3  1  0
  3  4  2  0
  4  5  1  0
  5  6  2  0
  6  7  1  0
  6  8  1  0
  2  9  1  0
  9 10  1  0
 10 11  1  0
 11 12  1  0
 12 13  2  0
 13 14  1  0
 14 15  1  0
 14 16  1  0
 14 17  1  0
  8  3  1  0
 13  9  1  0
  4 18  1  0
  5 19  1  0
 10 20  1  0
 10 21  1  0
 11 22  1  0
 11 23  1  0
 12 24  1  0
M  CHG  3   7  -1   8  -1  12   1
M  END
>  <UniqueID>  (11) 
11

>  <SMILES>  (11) 
O=C(c1ccc([O-])[n-]1)N1CC[NH+]=C1C(F)(F)F

>  <Energy>  (11) 
64.66937327973345

>  <Genealogy>  (11) 
O=C(c1ccc([O-])[n-]1)N1CC[NH+]=C1C(F)(F)F (protonated)
O=C(c1ccc([O-])[n-]1)N1CC[NH+]=C1C(F)(F)F (3D coordinates assigned)
O=C(c1ccc([O-])[n-]1)N1CC[NH+]=C1C(F)(F)F (nonaromatic ring conformer: 64.66937327973345 kcal/mol)

>  <smiles>  (11) 
O=C(c1ccc(O)[nH]1)N1CCN=C1C(F)(F)F

>  <score_type>  (11) 
oracle

>  <origin>  (11) 
adg

>  <m_score__min__energy>  (11) 
-10.050000000000001

>  <m_primary>  (11) 
energy

$$$$
11:0
     RDKit          3D

 34 35  0  0  0  0  0  0  0  0999 V2000
   58.1290   32.3490   43.6050 O   0  0  0  0  0  0  0  0  0  0  0  0
   57.3700   32.3350   44.6110 C   0  0  0  0  0  0  0  0  0  0  0  0
   57.3780   33.4810   45.5700 C   0  0  0  0  0  0  0  0  0  0  0  0
   59.0350   33.8190   46.1430 S   0  0  0  0  0  0  0  0  0  0  0  0
   59.9070   34.2070   44.9830 O   0  0  0  0  0  0  0  0  0  0  0  0
   58.9830   34.9840   47.0910 O   0  0  0  0  0  0  0  0  0  0  0  0
   59.6900   32.4120   47.0020 C   0  0  0  0  0  0  0  0  0  0  0  0
   58.7950   31.3930   47.3730 C   0  0  0  0  0  0  0  0  0  0  0  0
   59.2520   30.2450   48.0220 C   0  0  0  0  0  0  0  0  0  0  0  0
   60.6080   30.0980   48.3110 C   0  0  0  0  0  0  0  0  0  0  0  0
   61.5110   31.0970   47.9460 C   0  0  0  0  0  0  0  0  0  0  0  0
   61.0690   32.2510   47.2840 C   0  0  0  0  0  0  0  0  0  0  0  0
   62.4110   33.5190   46.7650 Br  0  0  0  0  0  0  0  0  0  0  0  0
   56.5270   31.2100   44.8680 N   0  0  0  0  0  0  0  0  0  0  0  0
   56.6420   29.9440   44.1590 C   0  0  0  0  0  0  0  0  0  0  0  0
   57.7300   29.1260   44.7920 C   0  0  0  0  0  0  0  0  0  0  0  0
   57.4120   28.0430   45.6290 C   0  0  0  0  0  0  0  0  0  0  0  0
   58.4280   27.2460   46.1650 C   0  0  0  0  0  0  0  0  0  0  0  0
   59.7660   27.5210   45.8680 C   0  0  0  0  0  0  0  0  0  0  0  0
   60.7500   26.7440   46.3850 F   0  0  0  0  0  0  0  0  0  0  0  0
   60.0890   28.5940   45.0320 C   0  0  0  0  0  0  0  0  0  0  0  0
   59.0760   29.3930   44.4920 C   0  0  0  0  0  0  0  0  0  0  0  0
   56.9814   34.3750   45.0665 H   0  0  0  0  0  0  0  0  0  0  0  0
   56.7526   33.2194   46.4362 H   0  0  0  0  0  0  0  0  0  0  0  0
   57.7235   31.5017   47.1494 H   0  0  0  0  0  0  0  0  0  0  0  0
   58.5412   29.4550   48.3059 H   0  0  0  0  0  0  0  0  0  0  0  0
   60.9658   29.1946   48.8267 H   0  0  0  0  0  0  0  0  0  0  0  0
   62.5793   30.9781   48.1798 H   0  0  0  0  0  0  0  0  0  0  0  0
   55.6883   29.3993   44.2199 H   0  0  0  0  0  0  0  0  0  0  0  0
   56.8845   30.1306   43.1024 H   0  0  0  0  0  0  0  0  0  0  0  0
   56.3603   27.8216   45.8633 H   0  0  0  0  0  0  0  0  0  0  0  0
   58.1740   26.4009   46.8217 H   0  0  0  0  0  0  0  0  0  0  0  0
   61.1419   28.8103   44.7985 H   0  0  0  0  0  0  0  0  0  0  0  0
   59.3341   30.2330   43.8304 H   0  0  0  0  0  0  0  0  0  0  0  0
  1  2  2  0
  2  3  1  0
  3  4  1  0
  4  5  2  0
  4  6  2  0
  4  7  1  0
  7  8  2  0
  8  9  1  0
  9 10  2  0
 10 11  1  0
 11 12  2  0
 12 13  1  0
  2 14  1  0
 14 15  1  0
 15 16  1  0
 16 17  2  0
 17 18  1  0
 18 19  2  0
 19 20  1  0
 19 21  1  0
 21 22  2  0
 12  7  1  0
 22 16  1  0
  3 23  1  0
  3 24  1  0
  8 25  1  0
  9 26  1  0
 10 27  1  0
 11 28  1  0
 15 29  1  0
 15 30  1  0
 17 31  1  0
 18 32  1  0
 21 33  1  0
 22 34  1  0
M  CHG  1  14  -1
M  END
>  <UniqueID>  (12) 
12

>  <SMILES>  (12) 
O=C(CS(=O)(=O)c1ccccc1Br)[N-]Cc1ccc(F)cc1

>  <Energy>  (12) 
27.40777488789568

>  <Genealogy>  (12) 
O=C(CS(=O)(=O)c1ccccc1Br)[N-]Cc1ccc(F)cc1 (protonated)
O=C(CS(=O)(=O)c1ccccc1Br)[N-]Cc1ccc(F)cc1 (3D coordinates assigned)
O=C(CS(=O)(=O)c1ccccc1Br)[N-]Cc1ccc(F)cc1 (optimized conformer: 27.40777488789568 kcal/mol)

>  <smiles>  (12) 
O=C(CS(=O)(=O)c1ccccc1Br)NCc1ccc(F)cc1

>  <score_type>  (12) 
oracle

>  <origin>  (12) 
adg

>  <m_score__min__energy>  (12) 
-9.4299999999999997

>  <m_primary>  (12) 
energy

$$$$
12:0
     RDKit          3D

 38 40  0  0  0  0  0  0  0  0999 V2000
   58.0870   28.7860   46.3160 O   0  0  0  0  0  0  0  0  0  0  0  0
   57.0990   28.2960   45.7000 C   0  0  0  0  0  0  0  0  0  0  0  0
   56.4080   29.0790   44.7110 N   0  0  0  0  0  0  0  0  0  0  0  0
   56.9240   30.3010   44.1530 C   0  0  0  0  0  0  0  0  0  0  0  0
   57.0260   30.4850   42.7630 C   0  0  0  0  0  0  0  0  0  0  0  0
   57.5100   31.6880   42.2460 C   0  0  0  0  0  0  0  0  0  0  0  0
   57.8880   32.7210   43.1070 C   0  0  0  0  0  0  0  0  0  0  0  0
   57.7780   32.5630   44.4940 C   0  0  0  0  0  0  0  0  0  0  0  0
   58.1820   33.6470   45.3410 N   0  0  0  0  0  0  0  0  0  0  0  0
   59.5490   33.6240   46.4080 S   0  0  0  0  0  0  0  0  0  0  0  0
   60.8000   33.8460   45.6090 O   0  0  0  0  0  0  0  0  0  0  0  0
   59.4050   34.7330   47.4130 O   0  0  0  0  0  0  0  0  0  0  0  0
   59.6570   32.0620   47.2140 C   0  0  0  0  0  0  0  0  0  0  0  0
   60.5580   31.0880   46.7600 C   0  0  0  0  0  0  0  0  0  0  0  0
   60.6470   29.8550   47.4140 C   0  0  0  0  0  0  0  0  0  0  0  0
   59.8380   29.5910   48.5230 C   0  0  0  0  0  0  0  0  0  0  0  0
   58.9350   30.5580   48.9760 C   0  0  0  0  0  0  0  0  0  0  0  0
   58.8440   31.7910   48.3230 C   0  0  0  0  0  0  0  0  0  0  0  0
   57.2820   31.3520   45.0110 C   0  0  0  0  0  0  0  0  0  0  0  0
   56.6350   26.9310   46.0290 C   0  0  0  0  0  0  0  0  0  0  0  0
   57.4720   26.0200   46.6910 C   0  0  0  0  0  0  0  0  0  0  0  0
   56.9800   24.7440   46.9740 C   0  0  0  0  0  0  0  0  0  0  0  0
   57.7050   23.9030   47.5680 O   0  0  0  0  0  0  0  0  0  0  0  0
   55.7160   24.4070   46.6070 N   0  0  0  0  0  0  0  0  0  0  0  0
   54.9170   25.2980   45.9650 C   0  0  0  0  0  0  0  0  0  0  0  0
   53.7500   24.9680   45.6320 O   0  0  0  0  0  0  0  0  0  0  0  0
   55.3770   26.5440   45.6810 N   0  0  0  0  0  0  0  0  0  0  0  0
   55.4340   28.8040   44.4540 H   0  0  0  0  0  0  0  0  0  0  0  0
   56.7232   29.6777   42.0799 H   0  0  0  0  0  0  0  0  0  0  0  0
   57.5940   31.8229   41.1575 H   0  0  0  0  0  0  0  0  0  0  0  0
   58.2743   33.6641   42.6930 H   0  0  0  0  0  0  0  0  0  0  0  0
   61.1959   31.2942   45.8879 H   0  0  0  0  0  0  0  0  0  0  0  0
   61.3541   29.0924   47.0555 H   0  0  0  0  0  0  0  0  0  0  0  0
   59.9117   28.6225   49.0394 H   0  0  0  0  0  0  0  0  0  0  0  0
   58.2960   30.3485   49.8465 H   0  0  0  0  0  0  0  0  0  0  0  0
   58.1327   32.5501   48.6805 H   0  0  0  0  0  0  0  0  0  0  0  0
   57.1738   31.2280   46.0986 H   0  0  0  0  0  0  0  0  0  0  0  0
   58.4941   26.3048   46.9810 H   0  0  0  0  0  0  0  0  0  0  0  0
  1  2  2  0
  2  3  1  0
  3  4  1  0
  4  5  2  0
  5  6  1  0
  6  7  2  0
  7  8  1  0
  8  9  1  0
  9 10  1  0
 10 11  2  0
 10 12  2  0
 10 13  1  0
 13 14  2  0
 14 15  1  0
 15 16  2  0
 16 17  1  0
 17 18  2  0
  8 19  2  0
  2 20  1  0
 20 21  2  0
 21 22  1  0
 22 23  2  0
 22 24  1  0
 24 25  1  0
 25 26  2  0
 25 27  1  0
 19  4  1  0
 27 20  1  0
 18 13  1  0
  3 28  1  0
  5 29  1  0
  6 30  1  0
  7 31  1  0
 14 32  1  0
 15 33  1  0
 16 34  1  0
 17 35  1  0
 18 36  1  0
 19 37  1  0
 21 38  1  0
M  CHG  3   9  -1  24  -1  27  -1
M  END
>  <UniqueID>  (13) 
13

>  <SMILES>  (13) 
O=C(Nc1cccc([N-]S(=O)(=O)c2ccccc2)c1)c1cc(=O)[n-]c(=O)[n-]1

>  <Energy>  (13) 
48.804096947993585

>  <Genealogy>  (13) 
O=C(Nc1cccc([N-]S(=O)(=O)c2ccccc2)c1)c1cc(=O)[n-]c(=O)[n-]1 (protonated)
O=C(Nc1cccc([N-]S(=O)(=O)c2ccccc2)c1)c1cc(=O)[n-]c(=O)[n-]1 (3D coordinates assigned)
O=C(Nc1cccc([N-]S(=O)(=O)c2ccccc2)c1)c1cc(=O)[n-]c(=O)[n-]1 (optimized conformer: 48.804096947993585 kcal/mol)

>  <smiles>  (13) 
O=C(Nc1cccc(NS(=O)(=O)c2ccccc2)c1)c1cc(=O)[nH]c(=O)[nH]1

>  <score_type>  (13) 
oracle

>  <origin>  (13) 
adg

>  <m_score__min__energy>  (13) 
-14.25

>  <m_primary>  (13) 
energy

$$$$
13:0
     RDKit          3D

 36 38  0  0  0  0  0  0  0  0999 V2000
   58.0150   27.2140   43.7010 C   0  0  0  0  0  0  0  0  0  0  0  0
   57.8160   28.1740   44.8910 C   0  0  2  0  0  0  0  0  0  0  0  0
   58.1330   27.4680   46.2150 C   0  0  0  0  0  0  0  0  0  0  0  0
   58.9690   27.9770   47.0100 O   0  0  0  0  0  0  0  0  0  0  0  0
   57.4730   26.2060   46.6290 C   0  0  0  0  0  0  0  0  0  0  0  0
   58.0970   25.1520   47.1850 N   0  0  0  0  0  0  0  0  0  0  0  0
   57.1080   24.2540   47.3730 C   0  0  0  0  0  0  0  0  0  0  0  0
   57.3060   23.1220   47.8830 O   0  0  0  0  0  0  0  0  0  0  0  0
   55.8880   24.6660   46.9700 N   0  0  0  0  0  0  0  0  0  0  0  0
   56.1340   25.9000   46.5010 C   0  0  0  0  0  0  0  0  0  0  0  0
   55.1530   26.7280   45.9700 O   0  0  0  0  0  0  0  0  0  0  0  0
   56.3620   28.7680   44.8450 C   0  0  0  0  0  0  0  0  0  0  0  0
   56.5660   30.2270   44.6270 C   0  0  0  0  0  0  0  0  0  0  0  0
   55.6220   31.0500   44.4880 O   0  0  0  0  0  0  0  0  0  0  0  0
   57.9290   30.6030   44.5870 N   0  0  0  0  0  0  0  0  0  0  0  0
   58.4470   31.8810   44.1000 C   0  0  0  0  0  0  0  0  0  0  0  0
   58.6940   32.8140   45.2550 C   0  0  0  0  0  0  0  0  0  0  0  0
   59.2040   34.1040   45.0280 C   0  0  0  0  0  0  0  0  0  0  0  0
   59.3930   34.9840   46.0970 C   0  0  0  0  0  0  0  0  0  0  0  0
   59.0670   34.5900   47.3970 C   0  0  0  0  0  0  0  0  0  0  0  0
   58.5500   33.3120   47.6300 C   0  0  0  0  0  0  0  0  0  0  0  0
   58.3610   32.4280   46.5640 C   0  0  0  0  0  0  0  0  0  0  0  0
   58.6750   29.4040   44.7150 C   0  0  0  0  0  0  0  0  0  0  0  0
   59.9320   29.3840   44.6310 O   0  0  0  0  0  0  0  0  0  0  0  0
   58.2248   26.2019   44.0775 H   0  0  0  0  0  0  0  0  0  0  0  0
   57.1016   27.1953   43.0883 H   0  0  0  0  0  0  0  0  0  0  0  0
   58.8605   27.5599   43.0883 H   0  0  0  0  0  0  0  0  0  0  0  0
   55.7872   28.3271   44.0172 H   0  0  0  0  0  0  0  0  0  0  0  0
   55.7928   28.5561   45.7621 H   0  0  0  0  0  0  0  0  0  0  0  0
   59.3914   31.7096   43.5626 H   0  0  0  0  0  0  0  0  0  0  0  0
   57.7077   32.3343   43.4233 H   0  0  0  0  0  0  0  0  0  0  0  0
   59.4552   34.4219   44.0054 H   0  0  0  0  0  0  0  0  0  0  0  0
   59.7996   35.9896   45.9143 H   0  0  0  0  0  0  0  0  0  0  0  0
   59.2169   35.2846   48.2366 H   0  0  0  0  0  0  0  0  0  0  0  0
   58.2917   33.0019   48.6533 H   0  0  0  0  0  0  0  0  0  0  0  0
   57.9495   31.4251   46.7510 H   0  0  0  0  0  0  0  0  0  0  0  0
  2  1  1  6
  2  3  1  0
  3  4  2  0
  3  5  1  0
  5  6  1  0
  6  7  1  0
  7  8  2  0
  7  9  1  0
  9 10  1  0
 10 11  1  0
  2 12  1  0
 12 13  1  0
 13 14  2  0
 13 15  1  0
 15 16  1  0
 16 17  1  0
 17 18  2  0
 18 19  1  0
 19 20  2  0
 20 21  1  0
 21 22  2  0
 15 23  1  0
 23 24  2  0
 23  2  1  0
 10  5  2  0
 22 17  1  0
  1 25  1  0
  1 26  1  0
  1 27  1  0
 12 28  1  0
 12 29  1  0
 16 30  1  0
 16 31  1  0
 18 32  1  0
 19 33  1  0
 20 34  1  0
 21 35  1  0
 22 36  1  0
M  CHG  3   6  -1   9  -1  11  -1
M  END
>  <UniqueID>  (14) 
14

>  <SMILES>  (14) 
C[C@]1(C(=O)c2[n-]c(=O)[n-]c2[O-])CC(=O)N(Cc2ccccc2)C1=O

>  <Energy>  (14) 
81.12982961886219

>  <Genealogy>  (14) 
CC1(C(=O)c2[n-]c(=O)[n-]c2[O-])CC(=O)N(Cc2ccccc2)C1=O (protonated)
C[C@]1(C(=O)c2[n-]c(=O)[n-]c2[O-])CC(=O)N(Cc2ccccc2)C1=O (chirality)
C[C@]1(C(=O)c2[n-]c(=O)[n-]c2[O-])CC(=O)N(Cc2ccccc2)C1=O (3D coordinates assigned)
C[C@]1(C(=O)c2[n-]c(=O)[n-]c2[O-])CC(=O)N(Cc2ccccc2)C1=O (nonaromatic ring conformer: 81.12982961886219 kcal/mol)

>  <smiles>  (14) 
CC1(C(=O)c2[nH]c(=O)[nH]c2O)CC(=O)N(Cc2ccccc2)C1=O

>  <score_type>  (14) 
oracle

>  <origin>  (14) 
adg

>  <m_score__min__energy>  (14) 
-15.5

>  <m_primary>  (14) 
energy

$$$$
14:0
     RDKit          3D

 58 61  0  0  0  0  0  0  0  0999 V2000
   57.1970   31.6110   51.5790 C   0  0  0  0  0  0  0  0  0  0  0  0
   57.0830   30.1530   51.3830 N   0  0  0  0  0  0  0  0  0  0  0  0
   58.3590   29.5420   50.9480 C   0  0  0  0  0  0  0  0  0  0  0  0
   59.2440   30.5510   50.2800 C   0  0  0  0  0  0  0  0  0  0  0  0
   59.9750   31.3130   50.9670 O   0  0  0  0  0  0  0  0  0  0  0  0
   59.3110   30.5650   48.8550 N   0  0  0  0  0  0  0  0  0  0  0  0
   59.9320   29.5270   48.0450 C   0  0  0  0  0  0  0  0  0  0  0  0
   58.9680   29.1300   46.9760 C   0  0  0  0  0  0  0  0  0  0  0  0
   57.9160   29.9010   46.6320 N   0  0  0  0  0  0  0  0  0  0  0  0
   57.3500   29.2310   45.6160 C   0  0  0  0  0  0  0  0  0  0  0  0
   56.2090   29.7450   44.8510 C   0  0  0  0  0  0  0  0  0  0  0  0
   55.2570   28.9810   44.5350 O   0  0  0  0  0  0  0  0  0  0  0  0
   56.2050   31.1180   44.4450 N   0  0  0  0  0  0  0  0  0  0  0  0
   57.3620   31.8000   43.8790 C   0  0  0  0  0  0  0  0  0  0  0  0
   57.9030   32.7980   44.8670 C   0  0  0  0  0  0  0  0  0  0  0  0
   57.4810   32.7600   46.2080 C   0  0  0  0  0  0  0  0  0  0  0  0
   57.9710   33.6920   47.1290 C   0  0  0  0  0  0  0  0  0  0  0  0
   58.8890   34.6610   46.7200 C   0  0  0  0  0  0  0  0  0  0  0  0
   59.3190   34.7040   45.3910 C   0  0  0  0  0  0  0  0  0  0  0  0
   58.8290   33.7770   44.4640 C   0  0  0  0  0  0  0  0  0  0  0  0
   58.0570   28.0750   45.3750 C   0  0  0  0  0  0  0  0  0  0  0  0
   59.0880   28.0040   46.2390 N   0  0  0  0  0  0  0  0  0  0  0  0
   56.5230   29.4770   52.5770 C   0  0  0  0  0  0  0  0  0  0  0  0
   55.0690   29.8220   52.8450 C   0  0  0  0  0  0  0  0  0  0  0  0
   54.5850   29.8800   54.1600 C   0  0  0  0  0  0  0  0  0  0  0  0
   53.2640   30.2560   54.4090 C   0  0  0  0  0  0  0  0  0  0  0  0
   52.4120   30.5810   53.3490 C   0  0  0  0  0  0  0  0  0  0  0  0
   52.8690   30.5080   52.0210 C   0  0  0  0  0  0  0  0  0  0  0  0
   52.0030   30.8880   50.8790 C   0  0  0  0  0  0  0  0  0  0  0  0
   51.8470   30.1220   49.7810 N   0  0  0  0  0  0  0  0  0  0  0  0
   51.0170   30.8420   48.9990 C   0  0  0  0  0  0  0  0  0  0  0  0
   50.6440   30.4500   47.8630 O   0  0  0  0  0  0  0  0  0  0  0  0
   50.6220   32.0170   49.5290 N   0  0  0  0  0  0  0  0  0  0  0  0
   51.2460   32.0340   50.7190 C   0  0  0  0  0  0  0  0  0  0  0  0
   51.1040   33.0640   51.6450 O   0  0  0  0  0  0  0  0  0  0  0  0
   54.2000   30.1190   51.7810 C   0  0  0  0  0  0  0  0  0  0  0  0
   57.2146   31.8360   52.6556 H   0  0  0  0  0  0  0  0  0  0  0  0
   58.1261   31.9720   51.1138 H   0  0  0  0  0  0  0  0  0  0  0  0
   56.3353   32.1120   51.1138 H   0  0  0  0  0  0  0  0  0  0  0  0
   58.8796   29.1345   51.8271 H   0  0  0  0  0  0  0  0  0  0  0  0
   58.1341   28.7437   50.2254 H   0  0  0  0  0  0  0  0  0  0  0  0
   60.8555   29.9132   47.5889 H   0  0  0  0  0  0  0  0  0  0  0  0
   60.1853   28.6580   48.6700 H   0  0  0  0  0  0  0  0  0  0  0  0
   58.1418   31.0608   43.6433 H   0  0  0  0  0  0  0  0  0  0  0  0
   57.0589   32.3264   42.9619 H   0  0  0  0  0  0  0  0  0  0  0  0
   56.7623   31.9938   46.5342 H   0  0  0  0  0  0  0  0  0  0  0  0
   57.6330   33.6614   48.1753 H   0  0  0  0  0  0  0  0  0  0  0  0
   59.2747   35.3923   47.4455 H   0  0  0  0  0  0  0  0  0  0  0  0
   60.0439   35.4678   45.0729 H   0  0  0  0  0  0  0  0  0  0  0  0
   59.1687   33.8141   43.4184 H   0  0  0  0  0  0  0  0  0  0  0  0
   57.8187   27.3297   44.6019 H   0  0  0  0  0  0  0  0  0  0  0  0
   56.6009   28.3897   52.4295 H   0  0  0  0  0  0  0  0  0  0  0  0
   57.1021   29.8241   53.4454 H   0  0  0  0  0  0  0  0  0  0  0  0
   55.2497   29.6279   54.9994 H   0  0  0  0  0  0  0  0  0  0  0  0
   52.8918   30.2968   55.4433 H   0  0  0  0  0  0  0  0  0  0  0  0
   51.3783   30.8956   53.5550 H   0  0  0  0  0  0  0  0  0  0  0  0
   51.5920   33.0330   52.5320 H   0  0  0  0  0  0  0  0  0  0  0  0
   54.5654   30.0464   50.7460 H   0  0  0  0  0  0  0  0  0  0  0  0
  1  2  1  0
  2  3  1  0
  3  4  1  0
  4  5  2  0
  4  6  1  0
  6  7  1  0
  7  8  1  0
  8  9  2  0
  9 10  1  0
 10 11  1  0
 11 12  2  0
 11 13  1  0
 13 14  1  0
 14 15  1  0
 15 16  2  0
 16 17  1  0
 17 18  2  0
 18 19  1  0
 19 20  2  0
 10 21  2  0
 21 22  1  0
  2 23  1  0
 23 24  1  0
 24 25  2  0
 25 26  1  0
 26 27  2  0
 27 28  1  0
 28 29  1  0
 29 30  1  0
 30 31  1  0
 31 32  2  0
 31 33  1  0
 33 34  1  0
 34 35  1  0
 28 36  2  0
 22  8  1  0
 36 24  1  0
 20 15  1  0
 34 29  2  0
  1 37  1  0
  1 38  1  0
  1 39  1  0
  3 40  1  0
  3 41  1  0
  7 42  1  0
  7 43  1  0
 14 44  1  0
 14 45  1  0
 16 46  1  0
 17 47  1  0
 18 48  1  0
 19 49  1  0
 20 50  1  0
 21 51  1  0
 23 52  1  0
 23 53  1  0
 25 54  1  0
 26 55  1  0
 27 56  1  0
 35 57  1  0
 36 58  1  0
M  CHG  5   6  -1  13  -1  22  -1  30  -1  33  -1
M  END
>  <UniqueID>  (15) 
15

>  <SMILES>  (15) 
CN(CC(=O)[N-]Cc1nc(C(=O)[N-]Cc2ccccc2)c[n-]1)Cc1cccc(-c2[n-]c(=O)[n-]c2O)c1

>  <Energy>  (15) 
115.11877138925065

>  <Genealogy>  (15) 
CN(CC(=O)[N-]Cc1nc(C(=O)[N-]Cc2ccccc2)c[n-]1)Cc1cccc(-c2[n-]c(=O)[n-]c2O)c1 (protonated)
CN(CC(=O)[N-]Cc1nc(C(=O)[N-]Cc2ccccc2)c[n-]1)Cc1cccc(-c2[n-]c(=O)[n-]c2O)c1 (3D coordinates assigned)
CN(CC(=O)[N-]Cc1nc(C(=O)[N-]Cc2ccccc2)c[n-]1)Cc1cccc(-c2[n-]c(=O)[n-]c2O)c1 (optimized conformer: 115.11877138925065 kcal/mol)

>  <smiles>  (15) 
CN(CC(=O)NCc1nc(C(=O)NCc2ccccc2)c[nH]1)Cc1cccc(-c2[nH]c(=O)[nH]c2O)c1

>  <score_type>  (15) 
oracle

>  <origin>  (15) 
adg

>  <m_score__min__energy>  (15) 
-18.559999999999999

>  <m_primary>  (15) 
energy

$$$$
15:0
     RDKit          3D

 57 60  0  0  0  0  0  0  0  0999 V2000
   56.9950   28.6100   44.5300 C   0  0  0  0  0  0  0  0  0  0  0  0
   56.3490   27.9550   45.6170 O   0  0  0  0  0  0  0  0  0  0  0  0
   56.5610   26.6150   45.9780 C   0  0  0  0  0  0  0  0  0  0  0  0
   55.5440   25.6470   45.8620 C   0  0  0  0  0  0  0  0  0  0  0  0
   55.7790   24.3240   46.2420 C   0  0  0  0  0  0  0  0  0  0  0  0
   57.0260   23.9500   46.7400 C   0  0  0  0  0  0  0  0  0  0  0  0
   58.0440   24.8980   46.8600 C   0  0  0  0  0  0  0  0  0  0  0  0
   57.8240   26.2330   46.4770 C   0  0  0  0  0  0  0  0  0  0  0  0
   58.8860   27.1970   46.6020 N   0  0  0  0  0  0  0  0  0  0  0  0
   59.9920   27.2230   45.6440 C   0  0  0  0  0  0  0  0  0  0  0  0
   60.2490   28.6660   45.1740 C   0  0  0  0  0  0  0  0  0  0  0  0
   60.1090   29.6920   46.2460 N   0  0  0  0  0  0  0  0  0  0  0  0
   58.9870   30.6240   45.9950 C   0  0  0  0  0  0  0  0  0  0  0  0
   59.3620   32.0330   46.4140 C   0  0  0  0  0  0  0  0  0  0  0  0
   60.4590   32.1970   47.2780 C   0  0  0  0  0  0  0  0  0  0  0  0
   60.8670   33.4710   47.7030 C   0  0  0  0  0  0  0  0  0  0  0  0
   62.0010   33.6250   48.5780 N   0  0  0  0  0  0  0  0  0  0  0  0
   63.2210   33.0710   48.4100 C   0  0  0  0  0  0  0  0  0  0  0  0
   64.0230   33.4670   49.4640 C   0  0  0  0  0  0  0  0  0  0  0  0
   65.4210   33.0280   49.7450 C   0  0  0  0  0  0  0  0  0  0  0  0
   63.2220   34.2570   50.2640 C   0  0  0  0  0  0  0  0  0  0  0  0
   62.0050   34.3390   49.6950 N   0  0  0  0  0  0  0  0  0  0  0  0
   60.1520   34.5940   47.2630 C   0  0  0  0  0  0  0  0  0  0  0  0
   59.0470   34.4470   46.4250 C   0  0  0  0  0  0  0  0  0  0  0  0
   58.6330   33.1760   45.9970 C   0  0  0  0  0  0  0  0  0  0  0  0
   57.4190   33.0660   45.1120 C   0  0  0  0  0  0  0  0  0  0  0  0
   60.0570   29.1260   47.6110 C   0  0  0  0  0  0  0  0  0  0  0  0
   58.9230   28.1010   47.7580 C   0  0  0  0  0  0  0  0  0  0  0  0
   57.7172   29.3423   44.9201 H   0  0  0  0  0  0  0  0  0  0  0  0
   57.5229   27.8662   43.9151 H   0  0  0  0  0  0  0  0  0  0  0  0
   56.2439   29.1275   43.9151 H   0  0  0  0  0  0  0  0  0  0  0  0
   54.5578   25.9354   45.4693 H   0  0  0  0  0  0  0  0  0  0  0  0
   54.9784   23.5755   46.1481 H   0  0  0  0  0  0  0  0  0  0  0  0
   57.2082   22.9071   47.0387 H   0  0  0  0  0  0  0  0  0  0  0  0
   59.0251   24.5984   47.2570 H   0  0  0  0  0  0  0  0  0  0  0  0
   60.8997   26.8297   46.1251 H   0  0  0  0  0  0  0  0  0  0  0  0
   59.7308   26.6017   44.7747 H   0  0  0  0  0  0  0  0  0  0  0  0
   61.2725   28.7216   44.7749 H   0  0  0  0  0  0  0  0  0  0  0  0
   59.4835   28.8930   44.4174 H   0  0  0  0  0  0  0  0  0  0  0  0
   58.7446   30.6179   44.9220 H   0  0  0  0  0  0  0  0  0  0  0  0
   58.1160   30.2983   46.5827 H   0  0  0  0  0  0  0  0  0  0  0  0
   61.0079   31.3101   47.6275 H   0  0  0  0  0  0  0  0  0  0  0  0
   63.5241   32.4178   47.5785 H   0  0  0  0  0  0  0  0  0  0  0  0
   65.5782   32.9786   50.8326 H   0  0  0  0  0  0  0  0  0  0  0  0
   65.5887   32.0340   49.3048 H   0  0  0  0  0  0  0  0  0  0  0  0
   66.1268   33.7477   49.3048 H   0  0  0  0  0  0  0  0  0  0  0  0
   63.5263   34.7374   51.2056 H   0  0  0  0  0  0  0  0  0  0  0  0
   61.1970   34.8870   50.0670 H   0  0  0  0  0  0  0  0  0  0  0  0
   60.4652   35.5992   47.5814 H   0  0  0  0  0  0  0  0  0  0  0  0
   58.4930   35.3383   46.0953 H   0  0  0  0  0  0  0  0  0  0  0  0
   56.5167   32.9842   45.7358 H   0  0  0  0  0  0  0  0  0  0  0  0
   57.3459   33.9612   44.4770 H   0  0  0  0  0  0  0  0  0  0  0  0
   57.5079   32.1722   44.4770 H   0  0  0  0  0  0  0  0  0  0  0  0
   61.0151   28.6313   47.8285 H   0  0  0  0  0  0  0  0  0  0  0  0
   59.8691   29.9488   48.3165 H   0  0  0  0  0  0  0  0  0  0  0  0
   59.0858   27.5113   48.6722 H   0  0  0  0  0  0  0  0  0  0  0  0
   57.9656   28.6395   47.8160 H   0  0  0  0  0  0  0  0  0  0  0  0
  1  2  1  0
  2  3  1  0
  3  4  2  0
  4  5  1  0
  5  6  2  0
  6  7  1  0
  7  8  2  0
  8  9  1  0
  9 10  1  0
 10 11  1  0
 11 12  1  0
 12 13  1  0
 13 14  1  0
 14 15  2  0
 15 16  1  0
 16 17  1  0
 17 18  1  0
 18 19  2  0
 19 20  1  0
 19 21  1  0
 21 22  2  0
 16 23  2  0
 23 24  1  0
 24 25  2  0
 25 26  1  0
 12 27  1  0
 27 28  1  0
  8  3  1  0
 28  9  1  0
 25 14  1  0
 22 17  1  0
  1 29  1  0
  1 30  1  0
  1 31  1  0
  4 32  1  0
  5 33  1  0
  6 34  1  0
  7 35  1  0
 10 36  1  0
 10 37  1  0
 11 38  1  0
 11 39  1  0
 13 40  1  0
 13 41  1  0
 15 42  1  0
 18 43  1  0
 20 44  1  0
 20 45  1  0
 20 46  1  0
 21 47  1  0
 22 48  1  0
 23 49  1  0
 24 50  1  0
 26 51  1  0
 26 52  1  0
 26 53  1  0
 27 54  1  0
 27 55  1  0
 28 56  1  0
 28 57  1  0
M  CHG  1  22   1
M  END
>  <UniqueID>  (16) 
16

>  <SMILES>  (16) 
COc1ccccc1N1CCN(Cc2cc(-n3cc(C)c[nH+]3)ccc2C)CC1

>  <Energy>  (16) 
105.35703709002615

>  <Genealogy>  (16) 
COc1ccccc1N1CCN(Cc2cc(-n3cc(C)c[nH+]3)ccc2C)CC1 (protonated)
COc1ccccc1N1CCN(Cc2cc(-n3cc(C)c[nH+]3)ccc2C)CC1 (3D coordinates assigned)
COc1ccccc1N1CCN(Cc2cc(-n3cc(C)c[nH+]3)ccc2C)CC1 (nonaromatic ring conformer: 105.35703709002615 kcal/mol)

>  <smiles>  (16) 
COc1ccccc1N1CCN(Cc2cc(-n3cc(C)cn3)ccc2C)CC1

>  <score_type>  (16) 
oracle

>  <origin>  (16) 
adg

>  <m_score__min__energy>  (16) 
-6.6699999999999999

>  <m_primary>  (16) 
energy

$$$$
16:0
     RDKit          3D

 61 65  0  0  0  0  0  0  0  0999 V2000
   59.8630   28.5880   52.0170 O   0  0  0  0  0  0  0  0  0  0  0  0
   60.1060   29.4900   51.1660 C   0  0  0  0  0  0  0  0  0  0  0  0
   60.6060   29.1030   49.8830 N   0  0  0  0  0  0  0  0  0  0  0  0
   59.8190   29.4510   48.3770 S   0  0  0  0  0  0  0  0  0  0  0  0
   60.7020   30.3250   47.5300 O   0  0  0  0  0  0  0  0  0  0  0  0
   58.5350   30.1960   48.6580 O   0  0  0  0  0  0  0  0  0  0  0  0
   59.4130   27.9470   47.5410 C   0  0  0  0  0  0  0  0  0  0  0  0
   58.0770   27.5640   47.3420 C   0  0  0  0  0  0  0  0  0  0  0  0
   57.7740   26.4000   46.6240 C   0  0  0  0  0  0  0  0  0  0  0  0
   58.8050   25.6100   46.1110 C   0  0  0  0  0  0  0  0  0  0  0  0
   60.1370   25.9820   46.3170 C   0  0  0  0  0  0  0  0  0  0  0  0
   60.4430   27.1500   47.0240 C   0  0  0  0  0  0  0  0  0  0  0  0
   59.8620   30.9080   51.5140 C   0  0  0  0  0  0  0  0  0  0  0  0
   59.6460   31.2700   52.8530 C   0  0  0  0  0  0  0  0  0  0  0  0
   59.4070   32.6070   53.1690 C   0  0  0  0  0  0  0  0  0  0  0  0
   59.3700   33.5690   52.1580 C   0  0  0  0  0  0  0  0  0  0  0  0
   59.5750   33.1800   50.8260 C   0  0  0  0  0  0  0  0  0  0  0  0
   59.5260   34.2070   49.7180 C   0  0  0  0  0  0  0  0  0  0  0  0
   60.4540   33.8440   48.6280 N   0  0  0  0  0  0  0  0  0  0  0  0
   60.1600   33.3690   47.3770 C   0  0  0  0  0  0  0  0  0  0  0  0
   58.8120   33.2260   46.7850 C   0  0  0  0  0  0  0  0  0  0  0  0
   57.8550   32.8420   47.5120 O   0  0  0  0  0  0  0  0  0  0  0  0
   58.5980   33.4800   45.4320 O   0  0  0  0  0  0  0  0  0  0  0  0
   57.4460   33.0340   44.7230 C   0  0  0  0  0  0  0  0  0  0  0  0
   57.5160   31.5450   44.5280 C   0  0  0  0  0  0  0  0  0  0  0  0
   56.3950   30.8260   44.0760 C   0  0  0  0  0  0  0  0  0  0  0  0
   56.4820   29.4330   43.8950 C   0  0  0  0  0  0  0  0  0  0  0  0
   57.6890   28.7580   44.1460 C   0  0  0  0  0  0  0  0  0  0  0  0
   58.8190   29.4830   44.5500 C   0  0  0  0  0  0  0  0  0  0  0  0
   58.7330   30.8700   44.7470 C   0  0  0  0  0  0  0  0  0  0  0  0
   61.3160   32.9290   46.7380 C   0  0  0  0  0  0  0  0  0  0  0  0
   62.3370   33.1470   47.6330 C   0  0  0  0  0  0  0  0  0  0  0  0
   63.6870   32.8270   47.5470 C   0  0  0  0  0  0  0  0  0  0  0  0
   64.5070   33.0970   48.6680 C   0  0  0  0  0  0  0  0  0  0  0  0
   63.9590   33.6670   49.8360 C   0  0  0  0  0  0  0  0  0  0  0  0
   62.5880   33.9720   49.8950 C   0  0  0  0  0  0  0  0  0  0  0  0
   61.7940   33.7010   48.7630 C   0  0  0  0  0  0  0  0  0  0  0  0
   59.8130   31.8630   50.5380 N   0  0  0  0  0  0  0  0  0  0  0  0
   57.2640   28.1812   47.7520 H   0  0  0  0  0  0  0  0  0  0  0  0
   56.7254   26.1086   46.4645 H   0  0  0  0  0  0  0  0  0  0  0  0
   58.5695   24.6963   45.5456 H   0  0  0  0  0  0  0  0  0  0  0  0
   60.9483   25.3533   45.9213 H   0  0  0  0  0  0  0  0  0  0  0  0
   61.4927   27.4427   47.1740 H   0  0  0  0  0  0  0  0  0  0  0  0
   59.6651   30.5068   53.6449 H   0  0  0  0  0  0  0  0  0  0  0  0
   59.2474   32.9040   54.2161 H   0  0  0  0  0  0  0  0  0  0  0  0
   59.1814   34.6244   52.4042 H   0  0  0  0  0  0  0  0  0  0  0  0
   58.5024   34.2586   49.3185 H   0  0  0  0  0  0  0  0  0  0  0  0
   59.8258   35.1831   50.1272 H   0  0  0  0  0  0  0  0  0  0  0  0
   56.5426   33.2854   45.2981 H   0  0  0  0  0  0  0  0  0  0  0  0
   57.4084   33.5286   43.7412 H   0  0  0  0  0  0  0  0  0  0  0  0
   55.4520   31.3514   43.8643 H   0  0  0  0  0  0  0  0  0  0  0  0
   55.6005   28.8695   43.5552 H   0  0  0  0  0  0  0  0  0  0  0  0
   57.7468   27.6661   44.0260 H   0  0  0  0  0  0  0  0  0  0  0  0
   59.7749   28.9637   44.7129 H   0  0  0  0  0  0  0  0  0  0  0  0
   59.6199   31.4326   45.0739 H   0  0  0  0  0  0  0  0  0  0  0  0
   61.3959   32.4977   45.7293 H   0  0  0  0  0  0  0  0  0  0  0  0
   64.1054   32.3772   46.6345 H   0  0  0  0  0  0  0  0  0  0  0  0
   65.5805   32.8605   48.6283 H   0  0  0  0  0  0  0  0  0  0  0  0
   64.6053   33.8731   50.7019 H   0  0  0  0  0  0  0  0  0  0  0  0
   62.1463   34.4110   50.8018 H   0  0  0  0  0  0  0  0  0  0  0  0
   59.9330   31.5760   49.5400 H   0  0  0  0  0  0  0  0  0  0  0  0
  1  2  2  0
  2  3  1  0
  3  4  1  0
  4  5  2  0
  4  6  2  0
  4  7  1  0
  7  8  2  0
  8  9  1  0
  9 10  2  0
 10 11  1  0
 11 12  2  0
  2 13  1  0
 13 14  2  0
 14 15  1  0
 15 16  2  0
 16 17  1  0
 17 18  1  0
 18 19  1  0
 19 20  1  0
 20 21  1  0
 21 22  2  0
 21 23  1  0
 23 24  1  0
 24 25  1  0
 25 26  2  0
 26 27  1  0
 27 28  2  0
 28 29  1  0
 29 30  2  0
 20 31  2  0
 31 32  1  0
 32 33  2  0
 33 34  1  0
 34 35  2  0
 35 36  1  0
 36 37  2  0
 17 38  2  0
 12  7  1  0
 38 13  1  0
 37 19  1  0
 30 25  1  0
 37 32  1  0
  8 39  1  0
  9 40  1  0
 10 41  1  0
 11 42  1  0
 12 43  1  0
 14 44  1  0
 15 45  1  0
 16 46  1  0
 18 47  1  0
 18 48  1  0
 24 49  1  0
 24 50  1  0
 26 51  1  0
 27 52  1  0
 28 53  1  0
 29 54  1  0
 30 55  1  0
 31 56  1  0
 33 57  1  0
 34 58  1  0
 35 59  1  0
 36 60  1  0
 38 61  1  0
M  CHG  2   3  -1  38   1
M  END
>  <UniqueID>  (17) 
17

>  <SMILES>  (17) 
O=C([N-]S(=O)(=O)c1ccccc1)c1cccc(Cn2c(C(=O)OCc3ccccc3)cc3ccccc32)[nH+]1

>  <Energy>  (17) 
99.78569063860672

>  <Genealogy>  (17) 
O=C([N-]S(=O)(=O)c1ccccc1)c1cccc(Cn2c(C(=O)OCc3ccccc3)cc3ccccc32)[nH+]1 (protonated)
O=C([N-]S(=O)(=O)c1ccccc1)c1cccc(Cn2c(C(=O)OCc3ccccc3)cc3ccccc32)[nH+]1 (3D coordinates assigned)
O=C([N-]S(=O)(=O)c1ccccc1)c1cccc(Cn2c(C(=O)OCc3ccccc3)cc3ccccc32)[nH+]1 (optimized conformer: 99.78569063860672 kcal/mol)

>  <smiles>  (17) 
O=C(NS(=O)(=O)c1ccccc1)c1cccc(Cn2c(C(=O)OCc3ccccc3)cc3ccccc32)n1

>  <score_type>  (17) 
oracle

>  <origin>  (17) 
adg

>  <m_score__min__energy>  (17) 
-10.199999999999999

>  <m_primary>  (17) 
energy

$$$$
17:0
     RDKit          3D

 29 31  0  0  0  0  0  0  0  0999 V2000
   55.1540   27.6900   45.6190 H   0  0  0  0  0  0  0  0  0  0  0  0
   55.0690   26.6820   45.6640 O   0  0  0  0  0  0  0  0  0  0  0  0
   56.1100   25.8970   46.1520 C   0  0  0  0  0  0  0  0  0  0  0  0
   55.8400   24.8970   47.0320 N   0  0  0  0  0  0  0  0  0  0  0  0
   56.8300   24.1120   47.5290 C   0  0  0  0  0  0  0  0  0  0  0  0
   56.4730   22.9190   48.5820 S   0  0  0  0  0  0  0  0  0  0  0  0
   58.1170   24.3280   47.1590 N   0  0  0  0  0  0  0  0  0  0  0  0
   58.4430   25.3150   46.2840 C   0  0  0  0  0  0  0  0  0  0  0  0
   59.6550   25.5080   46.0030 O   0  0  0  0  0  0  0  0  0  0  0  0
   57.4300   26.1230   45.7300 C   0  0  0  0  0  0  0  0  0  0  0  0
   57.7170   27.2210   44.7770 C   0  0  0  0  0  0  0  0  0  0  0  0
   57.9359   26.9636   43.7302 H   0  0  0  0  0  0  0  0  0  0  0  0
   57.7220   28.5120   45.1320 C   0  0  0  0  0  0  0  0  0  0  0  0
   58.7720   29.1920   45.5220 O   0  0  0  0  0  0  0  0  0  0  0  0
   58.3660   30.4230   45.7650 C   0  0  0  0  0  0  0  0  0  0  0  0
   59.1830   31.3950   46.1900 C   0  0  0  0  0  0  0  0  0  0  0  0
   58.8630   32.7410   46.2750 C   0  0  0  0  0  0  0  0  0  0  0  0
   57.9036   33.2090   46.0095 H   0  0  0  0  0  0  0  0  0  0  0  0
   59.9900   33.3780   46.7600 C   0  0  0  0  0  0  0  0  0  0  0  0
   60.1070   34.4537   46.9582 H   0  0  0  0  0  0  0  0  0  0  0  0
   60.9410   32.3910   46.9460 C   0  0  0  0  0  0  0  0  0  0  0  0
   62.1750   32.5880   47.4050 C   0  0  0  0  0  0  0  0  0  0  0  0
   62.8619   31.7364   47.5189 H   0  0  0  0  0  0  0  0  0  0  0  0
   62.5077   33.6023   47.6703 H   0  0  0  0  0  0  0  0  0  0  0  0
   60.4510   31.1850   46.6000 N   0  0  0  0  0  0  0  0  0  0  0  0
   60.9540   30.2690   46.6420 H   0  0  0  0  0  0  0  0  0  0  0  0
   57.0420   30.5990   45.5400 N   0  0  0  0  0  0  0  0  0  0  0  0
   56.6510   29.3770   45.1380 C   0  0  0  0  0  0  0  0  0  0  0  0
   55.4660   29.0920   44.8180 O   0  0  0  0  0  0  0  0  0  0  0  0
  1  2  1  0
  2  3  1  0
  3  4  1  0
  4  5  1  0
  5  6  2  0
  5  7  1  0
  7  8  1  0
  8  9  2  0
  8 10  1  0
 10 11  1  0
 11 12  1  0
 11 13  2  0
 13 14  1  0
 14 15  1  0
 15 16  2  3
 16 17  1  0
 17 18  1  0
 17 19  2  0
 19 20  1  0
 19 21  1  0
 21 22  2  0
 22 23  1  0
 22 24  1  0
 21 25  1  0
 25 26  1  0
 15 27  1  0
 27 28  1  0
 28 29  2  0
 10  3  2  0
 28 13  1  0
 25 16  1  0
M  CHG  3   4  -1   7  -1  27  -1
M  END
>  <UniqueID>  (18) 
18

>  <SMILES>  (18) 
C=c1ccc(=c2[n-]c(=O)/c(=C/c3c(O)[n-]c(=S)[n-]c3=O)o2)[nH]1

>  <Energy>  (18) 
96.2132332457811

>  <Genealogy>  (18) 
C=c1ccc(=c2[n-]c(=O)c(=Cc3c(O)[n-]c(=S)[n-]c3=O)o2)[nH]1 (protonated)
C=c1ccc(=c2[n-]c(=O)/c(=C/c3c(O)[n-]c(=S)[n-]c3=O)o2)[nH]1 (cis-trans isomerization)
C=c1ccc(=c2[n-]c(=O)/c(=C/c3c(O)[n-]c(=S)[n-]c3=O)o2)[nH]1 (3D coordinates assigned)
C=c1ccc(=c2[n-]c(=O)/c(=C/c3c(O)[n-]c(=S)[n-]c3=O)o2)[nH]1 (optimized conformer: 96.2132332457811 kcal/mol)

>  <smiles>  (18) 
C=c1ccc(=c2[nH]c(=O)c(=Cc3c(O)[nH]c(=S)[nH]c3=O)o2)[nH]1

>  <score_type>  (18) 
oracle

>  <origin>  (18) 
adg

>  <m_score__min__energy>  (18) 
-13.06

>  <m_primary>  (18) 
energy

$$$$
18:0
     RDKit          3D

 50 53  0  0  0  0  0  0  0  0999 V2000
   57.4170   30.7640   43.2400 O   0  0  0  0  0  0  0  0  0  0  0  0
   57.1540   30.5940   44.4600 C   0  0  0  0  0  0  0  0  0  0  0  0
   57.0210   31.7450   45.3030 N   0  0  0  0  0  0  0  0  0  0  0  0
   57.9870   32.7960   45.4640 C   0  0  0  0  0  0  0  0  0  0  0  0
   57.8790   33.9700   44.6960 C   0  0  0  0  0  0  0  0  0  0  0  0
   58.7810   35.0180   44.8670 C   0  0  0  0  0  0  0  0  0  0  0  0
   59.7940   34.9160   45.8180 C   0  0  0  0  0  0  0  0  0  0  0  0
   59.9040   33.7700   46.6060 C   0  0  0  0  0  0  0  0  0  0  0  0
   59.0040   32.6970   46.4500 C   0  0  0  0  0  0  0  0  0  0  0  0
   59.1630   31.4890   47.3100 C   0  0  0  0  0  0  0  0  0  0  0  0
   58.1560   30.8250   47.6760 O   0  0  0  0  0  0  0  0  0  0  0  0
   60.4690   31.1060   47.7630 N   0  0  0  0  0  0  0  0  0  0  0  0
   61.5460   31.9850   48.1260 C   0  0  0  0  0  0  0  0  0  0  0  0
   62.7580   31.9860   47.4080 C   0  0  0  0  0  0  0  0  0  0  0  0
   63.7790   32.8790   47.7430 C   0  0  0  0  0  0  0  0  0  0  0  0
   63.6000   33.7860   48.7870 C   0  0  0  0  0  0  0  0  0  0  0  0
   62.3960   33.8150   49.4910 C   0  0  0  0  0  0  0  0  0  0  0  0
   61.3550   32.9300   49.1590 C   0  0  0  0  0  0  0  0  0  0  0  0
   60.0900   32.9750   49.9290 C   0  0  0  0  0  0  0  0  0  0  0  0
   59.5800   34.0960   50.1990 O   0  0  0  0  0  0  0  0  0  0  0  0
   59.4350   31.7700   50.3760 N   0  0  0  0  0  0  0  0  0  0  0  0
   57.9710   31.7040   50.4370 C   0  0  0  0  0  0  0  0  0  0  0  0
   57.5400   30.8330   51.6210 C   0  0  0  0  0  0  0  0  0  0  0  0
   58.1890   29.5760   51.5840 O   0  0  0  0  0  0  0  0  0  0  0  0
   59.5820   29.7510   51.7620 C   0  0  0  0  0  0  0  0  0  0  0  0
   60.1860   30.5280   50.5870 C   0  0  0  0  0  0  0  0  0  0  0  0
   56.9230   29.2290   44.9680 C   0  0  0  0  0  0  0  0  0  0  0  0
   57.9140   28.2920   45.2120 C   0  0  0  0  0  0  0  0  0  0  0  0
   57.2700   27.1550   45.6460 C   0  0  0  0  0  0  0  0  0  0  0  0
   55.9280   27.4600   45.6320 C   0  0  0  0  0  0  0  0  0  0  0  0
   54.9160   26.5820   45.9970 O   0  0  0  0  0  0  0  0  0  0  0  0
   55.6990   28.7180   45.2170 N   0  0  0  0  0  0  0  0  0  0  0  0
   57.0736   34.0614   43.9524 H   0  0  0  0  0  0  0  0  0  0  0  0
   58.6934   35.9255   44.2515 H   0  0  0  0  0  0  0  0  0  0  0  0
   60.5093   35.7415   45.9480 H   0  0  0  0  0  0  0  0  0  0  0  0
   60.7034   33.7032   47.3586 H   0  0  0  0  0  0  0  0  0  0  0  0
   62.9016   31.2788   46.5778 H   0  0  0  0  0  0  0  0  0  0  0  0
   64.7254   32.8666   47.1824 H   0  0  0  0  0  0  0  0  0  0  0  0
   64.4099   34.4801   49.0560 H   0  0  0  0  0  0  0  0  0  0  0  0
   62.2601   34.5351   50.3114 H   0  0  0  0  0  0  0  0  0  0  0  0
   57.5646   32.7184   50.5628 H   0  0  0  0  0  0  0  0  0  0  0  0
   57.5880   31.2644   49.5042 H   0  0  0  0  0  0  0  0  0  0  0  0
   57.8001   31.3455   52.5589 H   0  0  0  0  0  0  0  0  0  0  0  0
   56.4537   30.6703   51.5614 H   0  0  0  0  0  0  0  0  0  0  0  0
   59.7595   30.3091   52.6931 H   0  0  0  0  0  0  0  0  0  0  0  0
   60.0587   28.7610   51.8131 H   0  0  0  0  0  0  0  0  0  0  0  0
   61.2359   30.7691   50.8095 H   0  0  0  0  0  0  0  0  0  0  0  0
   60.1327   29.9116   49.6775 H   0  0  0  0  0  0  0  0  0  0  0  0
   58.9980   28.4290   45.0846 H   0  0  0  0  0  0  0  0  0  0  0  0
   57.7318   26.2016   45.9422 H   0  0  0  0  0  0  0  0  0  0  0  0
  1  2  2  0
  2  3  1  0
  3  4  1  0
  4  5  2  0
  5  6  1  0
  6  7  2  0
  7  8  1  0
  8  9  2  0
  9 10  1  0
 10 11  2  0
 10 12  1  0
 12 13  1  0
 13 14  2  0
 14 15  1  0
 15 16  2  0
 16 17  1  0
 17 18  2  0
 18 19  1  0
 19 20  2  0
 19 21  1  0
 21 22  1  0
 22 23  1  0
 23 24  1  0
 24 25  1  0
 25 26  1  0
  2 27  1  0
 27 28  2  0
 28 29  1  0
 29 30  2  0
 30 31  1  0
 30 32  1  0
  9  4  1  0
 18 13  1  0
 26 21  1  0
 32 27  1  0
  5 33  1  0
  6 34  1  0
  7 35  1  0
  8 36  1  0
 14 37  1  0
 15 38  1  0
 16 39  1  0
 17 40  1  0
 22 41  1  0
 22 42  1  0
 23 43  1  0
 23 44  1  0
 25 45  1  0
 25 46  1  0
 26 47  1  0
 26 48  1  0
 28 49  1  0
 29 50  1  0
M  CHG  4   3  -1  12  -1  31  -1  32  -1
M  END
>  <UniqueID>  (19) 
19

>  <SMILES>  (19) 
O=C([N-]c1ccccc1C(=O)[N-]c1ccccc1C(=O)N1CCOCC1)c1ccc([O-])[n-]1

>  <Energy>  (19) 
98.30302276464404

>  <Genealogy>  (19) 
O=C([N-]c1ccccc1C(=O)[N-]c1ccccc1C(=O)N1CCOCC1)c1ccc([O-])[n-]1 (protonated)
O=C([N-]c1ccccc1C(=O)[N-]c1ccccc1C(=O)N1CCOCC1)c1ccc([O-])[n-]1 (3D coordinates assigned)
O=C([N-]c1ccccc1C(=O)[N-]c1ccccc1C(=O)N1CCOCC1)c1ccc([O-])[n-]1 (nonaromatic ring conformer: 98.30302276464404 kcal/mol)

>  <smiles>  (19) 
O=C(Nc1ccccc1C(=O)Nc1ccccc1C(=O)N1CCOCC1)c1ccc(O)[nH]1

>  <score_type>  (19) 
oracle

>  <origin>  (19) 
adg

>  <m_score__min__energy>  (19) 
-16.890000000000001

>  <m_primary>  (19) 
energy

$$$$
19:0
     RDKit          3D

 42 45  0  0  0  0  0  0  0  0999 V2000
   54.7400   27.4590   46.3760 H   0  0  0  0  0  0  0  0  0  0  0  0
   55.0090   26.6140   45.8870 O   0  0  0  0  0  0  0  0  0  0  0  0
   55.9500   25.7480   46.4320 C   0  0  0  0  0  0  0  0  0  0  0  0
   55.7360   24.4350   46.6220 N   0  0  0  0  0  0  0  0  0  0  0  0
   56.8740   24.0330   47.2270 C   0  0  0  0  0  0  0  0  0  0  0  0
   57.0690   22.8410   47.5810 O   0  0  0  0  0  0  0  0  0  0  0  0
   57.7830   25.0100   47.4310 N   0  0  0  0  0  0  0  0  0  0  0  0
   57.1990   26.0980   46.9000 C   0  0  0  0  0  0  0  0  0  0  0  0
   57.7950   27.4450   46.9580 C   0  0  0  0  0  0  0  0  0  0  0  0
   58.4481   27.6810   47.8110 H   0  0  0  0  0  0  0  0  0  0  0  0
   57.5940   28.4020   46.0400 C   0  0  0  0  0  0  0  0  0  0  0  0
   57.9660   29.7370   46.1290 C   0  0  0  0  0  0  0  0  0  0  0  0
   58.5126   30.2152   46.9552 H   0  0  0  0  0  0  0  0  0  0  0  0
   57.5130   30.3460   44.9730 C   0  0  0  0  0  0  0  0  0  0  0  0
   57.6860   31.7750   44.6490 C   0  0  0  0  0  0  0  0  0  0  0  0
   57.2080   32.2170   43.5700 O   0  0  0  0  0  0  0  0  0  0  0  0
   58.3930   32.6660   45.5250 N   0  0  0  0  0  0  0  0  0  0  0  0
   59.6340   32.4220   46.1600 C   0  0  0  0  0  0  0  0  0  0  0  0
   60.2990   31.3630   46.0070 O   0  0  0  0  0  0  0  0  0  0  0  0
   60.0990   33.5460   46.8850 N   0  0  0  0  0  0  0  0  0  0  0  0
   61.2300   33.5950   47.7780 C   0  0  0  0  0  0  0  0  0  0  0  0
   61.0590   33.8470   49.1490 C   0  0  0  0  0  0  0  0  0  0  0  0
   60.0509   34.0027   49.5607 H   0  0  0  0  0  0  0  0  0  0  0  0
   62.1760   33.8990   49.9880 C   0  0  0  0  0  0  0  0  0  0  0  0
   62.0457   34.0887   51.0636 H   0  0  0  0  0  0  0  0  0  0  0  0
   63.4210   33.7160   49.4790 N   0  0  0  0  0  0  0  0  0  0  0  0
   63.6210   33.4810   48.1550 C   0  0  0  0  0  0  0  0  0  0  0  0
   64.6418   33.3370   47.7712 H   0  0  0  0  0  0  0  0  0  0  0  0
   62.5330   33.4220   47.2810 C   0  0  0  0  0  0  0  0  0  0  0  0
   62.6955   33.2409   46.2082 H   0  0  0  0  0  0  0  0  0  0  0  0
   59.1550   34.6390   46.6600 C   0  0  0  0  0  0  0  0  0  0  0  0
   59.6572   35.4804   46.1602 H   0  0  0  0  0  0  0  0  0  0  0  0
   58.7461   35.0186   47.6080 H   0  0  0  0  0  0  0  0  0  0  0  0
   58.0400   34.0630   45.7530 C   0  0  0  0  0  0  0  0  0  0  0  0
   58.0026   34.6090   44.7988 H   0  0  0  0  0  0  0  0  0  0  0  0
   57.0490   34.1583   46.2207 H   0  0  0  0  0  0  0  0  0  0  0  0
   56.9040   29.3510   44.2160 C   0  0  0  0  0  0  0  0  0  0  0  0
   56.3940   29.4770   42.9890 C   0  0  0  0  0  0  0  0  0  0  0  0
   56.3897   30.4590   42.4933 H   0  0  0  0  0  0  0  0  0  0  0  0
   55.9779   28.5989   42.4735 H   0  0  0  0  0  0  0  0  0  0  0  0
   56.9410   28.1780   44.8810 N   0  0  0  0  0  0  0  0  0  0  0  0
   56.5580   27.2640   44.5490 H   0  0  0  0  0  0  0  0  0  0  0  0
  1  2  1  0
  2  3  1  0
  3  4  1  0
  4  5  1  0
  5  6  2  0
  5  7  1  0
  7  8  1  0
  8  9  1  0
  9 10  1  0
  9 11  2  0
 11 12  1  0
 12 13  1  0
 12 14  2  0
 14 15  1  0
 15 16  2  0
 15 17  1  0
 17 18  1  0
 18 19  2  0
 18 20  1  0
 20 21  1  0
 21 22  2  0
 22 23  1  0
 22 24  1  0
 24 25  1  0
 24 26  2  0
 26 27  1  0
 27 28  1  0
 27 29  2  0
 29 30  1  0
 20 31  1  0
 31 32  1  0
 31 33  1  0
 31 34  1  0
 34 35  1  0
 34 36  1  0
 14 37  1  0
 37 38  2  0
 38 39  1  0
 38 40  1  0
 37 41  1  0
 41 42  1  0
  8  3  2  0
 41 11  1  0
 34 17  1  0
 29 21  1  0
M  CHG  2   4  -1   7  -1
M  END
>  <UniqueID>  (20) 
20

>  <SMILES>  (20) 
C=c1[nH]/c(=C/c2[n-]c(=O)[n-]c2O)cc1C(=O)N1CCN(c2ccncc2)C1=O

>  <Energy>  (20) 
129.65344508601328

>  <Genealogy>  (20) 
C=c1[nH]c(=Cc2[n-]c(=O)[n-]c2O)cc1C(=O)N1CCN(c2ccncc2)C1=O (protonated)
C=c1[nH]/c(=C/c2[n-]c(=O)[n-]c2O)cc1C(=O)N1CCN(c2ccncc2)C1=O (cis-trans isomerization)
C=c1[nH]/c(=C/c2[n-]c(=O)[n-]c2O)cc1C(=O)N1CCN(c2ccncc2)C1=O (3D coordinates assigned)
C=c1[nH]/c(=C/c2[n-]c(=O)[n-]c2O)cc1C(=O)N1CCN(c2ccncc2)C1=O (nonaromatic ring conformer: 129.65344508601328 kcal/mol)

>  <smiles>  (20) 
C=c1[nH]c(=Cc2[nH]c(=O)[nH]c2O)cc1C(=O)N1CCN(c2ccncc2)C1=O

>  <score_type>  (20) 
oracle

>  <origin>  (20) 
adg

>  <m_score__min__energy>  (20) 
-13.57

>  <m_primary>  (20) 
energy

$$$$
20:0
     RDKit          3D

 45 48  0  0  0  0  0  0  0  0999 V2000
   53.8410   28.3240   52.8070 C   0  0  0  0  0  0  0  0  0  0  0  0
   54.7030   29.3080   52.5440 C   0  0  0  0  0  0  0  0  0  0  0  0
   55.9980   29.0930   52.4880 O   0  0  0  0  0  0  0  0  0  0  0  0
   56.6040   30.1960   52.1150 C   0  0  0  0  0  0  0  0  0  0  0  0
   58.0640   30.3360   51.9480 C   0  0  0  0  0  0  0  0  0  0  0  0
   58.8230   29.8120   52.8080 O   0  0  0  0  0  0  0  0  0  0  0  0
   58.6390   31.0370   50.8270 N   0  0  0  0  0  0  0  0  0  0  0  0
   57.9080   32.1130   50.1440 C   0  0  0  0  0  0  0  0  0  0  0  0
   58.8870   33.0900   49.4780 C   0  0  0  0  0  0  0  0  0  0  0  0
   59.8260   32.4190   48.5410 N   0  0  0  0  0  0  0  0  0  0  0  0
   59.3330   32.4710   47.1480 C   0  0  0  0  0  0  0  0  0  0  0  0
   58.6720   33.8280   46.8500 C   0  0  0  0  0  0  0  0  0  0  0  0
   58.7310   34.2890   45.4010 C   0  0  0  0  0  0  0  0  0  0  0  0
   57.4260   33.7640   45.9810 C   0  0  0  0  0  0  0  0  0  0  0  0
   60.2050   31.0370   48.9410 C   0  0  0  0  0  0  0  0  0  0  0  0
   60.0310   30.7770   50.4410 C   0  0  0  0  0  0  0  0  0  0  0  0
   55.6730   31.1990   51.9170 C   0  0  0  0  0  0  0  0  0  0  0  0
   54.4410   30.6480   52.2240 C   0  0  0  0  0  0  0  0  0  0  0  0
   53.2910   31.3460   52.1930 C   0  0  0  0  0  0  0  0  0  0  0  0
   52.2970   31.3110   51.1120 C   0  0  0  0  0  0  0  0  0  0  0  0
   52.3240   30.4250   50.1030 N   0  0  0  0  0  0  0  0  0  0  0  0
   51.3290   30.8440   49.2920 C   0  0  0  0  0  0  0  0  0  0  0  0
   51.0270   30.2490   48.2260 O   0  0  0  0  0  0  0  0  0  0  0  0
   50.6910   31.9610   49.7060 N   0  0  0  0  0  0  0  0  0  0  0  0
   51.3270   32.2530   50.8520 C   0  0  0  0  0  0  0  0  0  0  0  0
   51.0430   33.3690   51.6290 O   0  0  0  0  0  0  0  0  0  0  0  0
   52.7620   28.5342   52.8474 H   0  0  0  0  0  0  0  0  0  0  0  0
   54.2094   27.3026   52.9834 H   0  0  0  0  0  0  0  0  0  0  0  0
   57.2544   31.6751   49.3752 H   0  0  0  0  0  0  0  0  0  0  0  0
   57.3076   32.6611   50.8851 H   0  0  0  0  0  0  0  0  0  0  0  0
   58.3085   33.8397   48.9183 H   0  0  0  0  0  0  0  0  0  0  0  0
   59.4888   33.5496   50.2758 H   0  0  0  0  0  0  0  0  0  0  0  0
   60.1792   32.3239   46.4607 H   0  0  0  0  0  0  0  0  0  0  0  0
   58.5839   31.6773   47.0104 H   0  0  0  0  0  0  0  0  0  0  0  0
   58.9279   34.2807   47.8193 H   0  0  0  0  0  0  0  0  0  0  0  0
   58.8385   35.3586   45.1679 H   0  0  0  0  0  0  0  0  0  0  0  0
   59.3521   34.0367   44.5289 H   0  0  0  0  0  0  0  0  0  0  0  0
   56.5898   34.4541   46.1669 H   0  0  0  0  0  0  0  0  0  0  0  0
   56.7126   32.9748   45.7014 H   0  0  0  0  0  0  0  0  0  0  0  0
   59.5739   30.3266   48.3869 H   0  0  0  0  0  0  0  0  0  0  0  0
   61.2722   30.9086   48.7072 H   0  0  0  0  0  0  0  0  0  0  0  0
   60.2829   29.7294   50.6627 H   0  0  0  0  0  0  0  0  0  0  0  0
   60.6980   31.4436   51.0073 H   0  0  0  0  0  0  0  0  0  0  0  0
   55.8716   32.2280   51.5827 H   0  0  0  0  0  0  0  0  0  0  0  0
   53.0767   31.9994   53.0515 H   0  0  0  0  0  0  0  0  0  0  0  0
  1  2  2  0
  2  3  1  0
  3  4  1  0
  4  5  1  0
  5  6  2  0
  5  7  1  0
  7  8  1  0
  8  9  1  0
  9 10  1  0
 10 11  1  0
 11 12  1  0
 12 13  1  0
 13 14  1  0
 10 15  1  0
 15 16  1  0
  4 17  2  0
 17 18  1  0
 18 19  2  3
 19 20  1  0
 20 21  1  0
 21 22  1  0
 22 23  2  0
 22 24  1  0
 24 25  1  0
 25 26  1  0
 18  2  1  0
 25 20  2  0
 16  7  1  0
 14 12  1  0
  1 27  1  0
  1 28  1  0
  8 29  1  0
  8 30  1  0
  9 31  1  0
  9 32  1  0
 11 33  1  0
 11 34  1  0
 12 35  1  0
 13 36  1  0
 13 37  1  0
 14 38  1  0
 14 39  1  0
 15 40  1  0
 15 41  1  0
 16 42  1  0
 16 43  1  0
 17 44  1  0
 19 45  1  0
M  CHG  3  21  -1  24  -1  26  -1
M  END
>  <UniqueID>  (21) 
21

>  <SMILES>  (21) 
C=c1oc(C(=O)N2CCN(CC3CC3)CC2)cc1=Cc1[n-]c(=O)[n-]c1[O-]

>  <Energy>  (21) 
387.49965845725677

>  <Genealogy>  (21) 
C=c1oc(C(=O)N2CCN(CC3CC3)CC2)cc1=Cc1[n-]c(=O)[n-]c1[O-] (protonated)
C=c1oc(C(=O)N2CCN(CC3CC3)CC2)cc1=Cc1[n-]c(=O)[n-]c1[O-] (3D coordinates assigned)
C=c1oc(C(=O)N2CCN(CC3CC3)CC2)cc1=Cc1[n-]c(=O)[n-]c1[O-] (nonaromatic ring conformer: 387.49965845725677 kcal/mol)

>  <smiles>  (21) 
C=c1oc(C(=O)N2CCN(CC3CC3)CC2)cc1=Cc1[nH]c(=O)[nH]c1O

>  <score_type>  (21) 
oracle

>  <origin>  (21) 
adg

>  <m_score__min__energy>  (21) 
-17.050000000000001

>  <m_primary>  (21) 
energy

$$$$
21:0
     RDKit          3D

 51 53  0  0  0  0  0  0  0  0999 V2000
   60.7590   34.9340   48.0190 O   0  0  0  0  0  0  0  0  0  0  0  0
   60.9190   34.1730   47.0230 C   0  0  0  0  0  0  0  0  0  0  0  0
   62.2380   33.9360   46.5170 N   0  0  0  0  0  0  0  0  0  0  0  0
   63.4040   33.8940   47.3940 C   0  0  0  0  0  0  0  0  0  0  0  0
   63.6190   32.4680   47.9120 C   0  0  0  0  0  0  0  0  0  0  0  0
   63.5770   32.4460   49.3930 N   0  0  0  0  0  0  0  0  0  0  0  0
   62.9410   31.2170   49.9140 C   0  0  0  0  0  0  0  0  0  0  0  0
   61.4230   31.1830   49.6480 C   0  0  0  0  0  0  0  0  0  0  0  0
   60.7570   32.5640   49.8260 C   0  0  0  0  0  0  0  0  0  0  0  0
   59.1570   32.3960   50.6030 Cl  0  0  0  0  0  0  0  0  0  0  0  0
   61.6330   33.5170   50.6440 C   0  0  0  0  0  0  0  0  0  0  0  0
   63.0130   33.6960   49.9750 C   0  0  0  0  0  0  0  0  0  0  0  0
   59.7430   33.5420   46.3890 C   0  0  0  0  0  0  0  0  0  0  0  0
   59.1860   34.0870   45.2200 C   0  0  0  0  0  0  0  0  0  0  0  0
   58.1080   33.4610   44.5910 C   0  0  0  0  0  0  0  0  0  0  0  0
   57.5640   32.2790   45.1230 C   0  0  0  0  0  0  0  0  0  0  0  0
   56.4750   31.5900   44.4940 N   0  0  0  0  0  0  0  0  0  0  0  0
   56.3950   29.8780   44.2350 S   0  0  0  0  0  0  0  0  0  0  0  0
   56.3320   29.6020   42.7580 O   0  0  0  0  0  0  0  0  0  0  0  0
   55.1460   29.3390   44.8760 O   0  0  0  0  0  0  0  0  0  0  0  0
   57.8230   29.0970   44.9030 C   0  0  0  0  0  0  0  0  0  0  0  0
   59.0880   29.3810   44.3690 C   0  0  0  0  0  0  0  0  0  0  0  0
   60.2280   28.7620   44.8920 C   0  0  0  0  0  0  0  0  0  0  0  0
   60.1090   27.8600   45.9520 C   0  0  0  0  0  0  0  0  0  0  0  0
   58.8500   27.5760   46.4890 C   0  0  0  0  0  0  0  0  0  0  0  0
   57.7100   28.1900   45.9660 C   0  0  0  0  0  0  0  0  0  0  0  0
   58.1000   31.7520   46.2990 C   0  0  0  0  0  0  0  0  0  0  0  0
   59.1890   32.3690   46.9260 C   0  0  0  0  0  0  0  0  0  0  0  0
   62.3590   33.6370   45.5220 H   0  0  0  0  0  0  0  0  0  0  0  0
   64.2937   34.2157   46.8328 H   0  0  0  0  0  0  0  0  0  0  0  0
   63.2380   34.5672   48.2480 H   0  0  0  0  0  0  0  0  0  0  0  0
   62.8266   31.8153   47.5170 H   0  0  0  0  0  0  0  0  0  0  0  0
   64.6040   32.1108   47.5771 H   0  0  0  0  0  0  0  0  0  0  0  0
   63.4045   30.3460   49.4277 H   0  0  0  0  0  0  0  0  0  0  0  0
   63.0912   31.1976   51.0035 H   0  0  0  0  0  0  0  0  0  0  0  0
   61.2539   30.8409   48.6163 H   0  0  0  0  0  0  0  0  0  0  0  0
   60.9719   30.4990   50.3819 H   0  0  0  0  0  0  0  0  0  0  0  0
   60.6300   32.9949   48.8219 H   0  0  0  0  0  0  0  0  0  0  0  0
   61.1354   34.4955   50.7136 H   0  0  0  0  0  0  0  0  0  0  0  0
   61.7781   33.0916   51.6480 H   0  0  0  0  0  0  0  0  0  0  0  0
   62.9116   34.4368   49.1682 H   0  0  0  0  0  0  0  0  0  0  0  0
   63.7075   34.0179   50.7650 H   0  0  0  0  0  0  0  0  0  0  0  0
   59.6021   35.0134   44.7973 H   0  0  0  0  0  0  0  0  0  0  0  0
   57.6822   33.8950   43.6743 H   0  0  0  0  0  0  0  0  0  0  0  0
   59.1842   30.0930   43.5360 H   0  0  0  0  0  0  0  0  0  0  0  0
   61.2183   28.9855   44.4686 H   0  0  0  0  0  0  0  0  0  0  0  0
   61.0055   27.3735   46.3639 H   0  0  0  0  0  0  0  0  0  0  0  0
   58.7571   26.8674   47.3252 H   0  0  0  0  0  0  0  0  0  0  0  0
   56.7207   27.9614   46.3892 H   0  0  0  0  0  0  0  0  0  0  0  0
   57.6625   30.8430   46.7374 H   0  0  0  0  0  0  0  0  0  0  0  0
   59.6123   31.9331   47.8430 H   0  0  0  0  0  0  0  0  0  0  0  0
  1  2  2  0
  2  3  1  0
  3  4  1  0
  4  5  1  0
  5  6  1  0
  6  7  1  0
  7  8  1  0
  8  9  1  0
  9 10  1  0
  9 11  1  0
 11 12  1  0
  2 13  1  0
 13 14  2  0
 14 15  1  0
 15 16  2  0
 16 17  1  0
 17 18  1  0
 18 19  2  0
 18 20  2  0
 18 21  1  0
 21 22  2  0
 22 23  1  0
 23 24  2  0
 24 25  1  0
 25 26  2  0
 16 27  1  0
 27 28  2  0
 12  6  1  0
 28 13  1  0
 26 21  1  0
  3 29  1  0
  4 30  1  0
  4 31  1  0
  5 32  1  0
  5 33  1  0
  7 34  1  0
  7 35  1  0
  8 36  1  0
  8 37  1  0
  9 38  1  0
 11 39  1  0
 11 40  1  0
 12 41  1  0
 12 42  1  0
 14 43  1  0
 15 44  1  0
 22 45  1  0
 23 46  1  0
 24 47  1  0
 25 48  1  0
 26 49  1  0
 27 50  1  0
 28 51  1  0
M  CHG  1  17  -1
M  END
>  <UniqueID>  (22) 
22

>  <SMILES>  (22) 
O=C(NCCN1CCC(Cl)CC1)c1ccc([N-]S(=O)(=O)c2ccccc2)cc1

>  <Energy>  (22) 
63.3226650728242

>  <Genealogy>  (22) 
O=C(NCCN1CCC(Cl)CC1)c1ccc([N-]S(=O)(=O)c2ccccc2)cc1 (protonated)
O=C(NCCN1CCC(Cl)CC1)c1ccc([N-]S(=O)(=O)c2ccccc2)cc1 (3D coordinates assigned)
O=C(NCCN1CCC(Cl)CC1)c1ccc([N-]S(=O)(=O)c2ccccc2)cc1 (nonaromatic ring conformer: 63.3226650728242 kcal/mol)

>  <smiles>  (22) 
O=C(NCCN1CCC(Cl)CC1)c1ccc(NS(=O)(=O)c2ccccc2)cc1

>  <score_type>  (22) 
oracle

>  <origin>  (22) 
adg

>  <m_score__min__energy>  (22) 
-10.57

>  <m_primary>  (22) 
energy

$$$$
22:0
     RDKit          3D

 64 67  0  0  0  0  0  0  0  0999 V2000
   62.7310   30.9340   50.4170 C   0  0  0  0  0  0  0  0  0  0  0  0
   64.1500   31.0470   50.9040 C   0  0  0  0  0  0  0  0  0  0  0  0
   64.5440   30.3430   52.0570 C   0  0  0  0  0  0  0  0  0  0  0  0
   65.8550   30.4420   52.5300 C   0  0  0  0  0  0  0  0  0  0  0  0
   66.7840   31.2450   51.8650 C   0  0  0  0  0  0  0  0  0  0  0  0
   66.4060   31.9480   50.7190 C   0  0  0  0  0  0  0  0  0  0  0  0
   65.0890   31.8630   50.2320 C   0  0  0  0  0  0  0  0  0  0  0  0
   64.7080   32.6180   49.0710 N   0  0  0  0  0  0  0  0  0  0  0  0
   63.7190   33.6540   49.1210 C   0  0  0  0  0  0  0  0  0  0  0  0
   63.3810   34.1530   50.2310 O   0  0  0  0  0  0  0  0  0  0  0  0
   63.1480   34.2150   47.8520 C   0  0  0  0  0  0  0  0  0  0  0  0
   61.8440   33.5950   47.5510 N   0  0  0  0  0  0  0  0  0  0  0  0
   61.9460   32.1170   47.5690 C   0  0  0  0  0  0  0  0  0  0  0  0
   60.5610   31.4400   47.5260 C   0  0  0  0  0  0  0  0  0  0  0  0
   59.5310   32.4100   47.1360 N   0  0  0  0  0  0  0  0  0  0  0  0
   58.8020   32.2620   45.9050 C   0  0  0  0  0  0  0  0  0  0  0  0
   58.8390   33.2750   44.9320 C   0  0  0  0  0  0  0  0  0  0  0  0
   58.1540   33.1160   43.7250 C   0  0  0  0  0  0  0  0  0  0  0  0
   57.4370   31.9400   43.4720 C   0  0  0  0  0  0  0  0  0  0  0  0
   57.4060   30.9170   44.4300 C   0  0  0  0  0  0  0  0  0  0  0  0
   56.5280   29.4180   44.1360 S   0  0  0  0  0  0  0  0  0  0  0  0
   56.2590   29.3080   42.6590 O   0  0  0  0  0  0  0  0  0  0  0  0
   55.2110   29.4250   44.8660 O   0  0  0  0  0  0  0  0  0  0  0  0
   57.5040   28.0730   44.6710 N   0  0  0  0  0  0  0  0  0  0  0  0
   58.8310   28.0690   44.0060 C   0  0  0  0  0  0  0  0  0  0  0  0
   59.9580   28.5810   44.9130 C   0  0  0  0  0  0  0  0  0  0  0  0
   60.0690   27.7340   46.1910 C   0  0  0  0  0  0  0  0  0  0  0  0
   58.7120   27.1830   46.6600 C   0  0  0  0  0  0  0  0  0  0  0  0
   57.5500   28.0410   46.1500 C   0  0  0  0  0  0  0  0  0  0  0  0
   58.0850   31.0820   45.6430 C   0  0  0  0  0  0  0  0  0  0  0  0
   59.4180   33.6540   47.9100 C   0  0  0  0  0  0  0  0  0  0  0  0
   60.7880   34.0540   48.4760 C   0  0  0  0  0  0  0  0  0  0  0  0
   62.0505   30.8798   51.2796 H   0  0  0  0  0  0  0  0  0  0  0  0
   62.4812   31.8151   49.8077 H   0  0  0  0  0  0  0  0  0  0  0  0
   62.6238   30.0245   49.8077 H   0  0  0  0  0  0  0  0  0  0  0  0
   63.8165   29.7118   52.5884 H   0  0  0  0  0  0  0  0  0  0  0  0
   66.1565   29.8853   53.4296 H   0  0  0  0  0  0  0  0  0  0  0  0
   67.8137   31.3238   52.2439 H   0  0  0  0  0  0  0  0  0  0  0  0
   67.1433   32.5726   50.1935 H   0  0  0  0  0  0  0  0  0  0  0  0
   65.2140   32.4550   48.1720 H   0  0  0  0  0  0  0  0  0  0  0  0
   63.0145   35.3010   47.9647 H   0  0  0  0  0  0  0  0  0  0  0  0
   63.8418   34.0007   47.0257 H   0  0  0  0  0  0  0  0  0  0  0  0
   62.5277   31.7908   46.6942 H   0  0  0  0  0  0  0  0  0  0  0  0
   62.4383   31.8226   48.5076 H   0  0  0  0  0  0  0  0  0  0  0  0
   60.5813   30.6186   46.7946 H   0  0  0  0  0  0  0  0  0  0  0  0
   60.3232   31.0487   48.5261 H   0  0  0  0  0  0  0  0  0  0  0  0
   59.4093   34.1964   45.1214 H   0  0  0  0  0  0  0  0  0  0  0  0
   58.1779   33.9168   42.9712 H   0  0  0  0  0  0  0  0  0  0  0  0
   56.8978   31.8189   42.5209 H   0  0  0  0  0  0  0  0  0  0  0  0
   59.0671   27.0388   43.7011 H   0  0  0  0  0  0  0  0  0  0  0  0
   58.7687   28.7486   43.1433 H   0  0  0  0  0  0  0  0  0  0  0  0
   60.9106   28.5310   44.3652 H   0  0  0  0  0  0  0  0  0  0  0  0
   59.7308   29.6182   45.2003 H   0  0  0  0  0  0  0  0  0  0  0  0
   60.7431   26.8874   45.9942 H   0  0  0  0  0  0  0  0  0  0  0  0
   60.4553   28.3861   46.9882 H   0  0  0  0  0  0  0  0  0  0  0  0
   58.5923   26.1575   46.2804 H   0  0  0  0  0  0  0  0  0  0  0  0
   58.6952   27.1985   47.7598 H   0  0  0  0  0  0  0  0  0  0  0  0
   56.6052   27.6230   46.5275 H   0  0  0  0  0  0  0  0  0  0  0  0
   57.6972   29.0693   46.5118 H   0  0  0  0  0  0  0  0  0  0  0  0
   58.0571   30.2817   46.3971 H   0  0  0  0  0  0  0  0  0  0  0  0
   59.0471   34.4565   47.2555 H   0  0  0  0  0  0  0  0  0  0  0  0
   58.7183   33.4951   48.7437 H   0  0  0  0  0  0  0  0  0  0  0  0
   60.8388   35.1479   48.5798 H   0  0  0  0  0  0  0  0  0  0  0  0
   60.9317   33.5902   49.4630 H   0  0  0  0  0  0  0  0  0  0  0  0
  1  2  1  0
  2  3  2  0
  3  4  1  0
  4  5  2  0
  5  6  1  0
  6  7  2  0
  7  8  1  0
  8  9  1  0
  9 10  2  0
  9 11  1  0
 11 12  1  0
 12 13  1  0
 13 14  1  0
 14 15  1  0
 15 16  1  0
 16 17  2  0
 17 18  1  0
 18 19  2  0
 19 20  1  0
 20 21  1  0
 21 22  2  0
 21 23  2  0
 21 24  1  0
 24 25  1  0
 25 26  1  0
 26 27  1  0
 27 28  1  0
 28 29  1  0
 20 30  2  0
 15 31  1  0
 31 32  1  0
  7  2  1  0
 32 12  1  0
 30 16  1  0
 29 24  1  0
  1 33  1  0
  1 34  1  0
  1 35  1  0
  3 36  1  0
  4 37  1  0
  5 38  1  0
  6 39  1  0
  8 40  1  0
 11 41  1  0
 11 42  1  0
 13 43  1  0
 13 44  1  0
 14 45  1  0
 14 46  1  0
 17 47  1  0
 18 48  1  0
 19 49  1  0
 25 50  1  0
 25 51  1  0
 26 52  1  0
 26 53  1  0
 27 54  1  0
 27 55  1  0
 28 56  1  0
 28 57  1  0
 29 58  1  0
 29 59  1  0
 30 60  1  0
 31 61  1  0
 31 62  1  0
 32 63  1  0
 32 64  1  0
M  END
>  <UniqueID>  (23) 
23

>  <SMILES>  (23) 
Cc1ccccc1NC(=O)CN1CCN(c2cccc(S(=O)(=O)N3CCCCC3)c2)CC1

>  <Energy>  (23) 
85.3582546305112

>  <Genealogy>  (23) 
Cc1ccccc1NC(=O)CN1CCN(c2cccc(S(=O)(=O)N3CCCCC3)c2)CC1 (3D coordinates assigned)
Cc1ccccc1NC(=O)CN1CCN(c2cccc(S(=O)(=O)N3CCCCC3)c2)CC1 (nonaromatic ring conformer: 85.3582546305112 kcal/mol)

>  <smiles>  (23) 
Cc1ccccc1NC(=O)CN1CCN(c2cccc(S(=O)(=O)N3CCCCC3)c2)CC1

>  <score_type>  (23) 
oracle

>  <origin>  (23) 
adg

>  <m_score__min__energy>  (23) 
-10.529999999999999

>  <m_primary>  (23) 
energy

$$$$
23:0
     RDKit          3D

 47 50  0  0  0  0  0  0  0  0999 V2000
   62.0660   34.2350   49.3150 C   0  0  0  0  0  0  0  0  0  0  0  0
   60.8880   34.3640   48.5220 O   0  0  0  0  0  0  0  0  0  0  0  0
   60.1970   33.2840   47.9540 C   0  0  0  0  0  0  0  0  0  0  0  0
   60.8650   32.0590   47.8300 C   0  0  0  0  0  0  0  0  0  0  0  0
   60.2140   30.9490   47.2870 C   0  0  0  0  0  0  0  0  0  0  0  0
   58.8770   31.0380   46.8700 C   0  0  0  0  0  0  0  0  0  0  0  0
   58.2360   29.8760   46.3110 N   0  0  0  0  0  0  0  0  0  0  0  0
   57.2380   29.9160   45.2780 C   0  0  0  0  0  0  0  0  0  0  0  0
   56.6870   31.0020   44.9560 O   0  0  0  0  0  0  0  0  0  0  0  0
   56.7960   28.6470   44.6170 C   0  0  0  0  0  0  0  0  0  0  0  0
   57.1440   27.4940   45.4470 N   0  0  0  0  0  0  0  0  0  0  0  0
   56.3030   26.6370   46.0470 C   0  0  0  0  0  0  0  0  0  0  0  0
   54.9150   26.7160   45.9890 O   0  0  0  0  0  0  0  0  0  0  0  0
   57.0400   25.6890   46.7260 C   0  0  0  0  0  0  0  0  0  0  0  0
   56.5010   24.5880   47.5840 C   0  0  0  0  0  0  0  0  0  0  0  0
   56.6090   23.2740   46.8690 C   0  0  0  0  0  0  0  0  0  0  0  0
   56.6710   22.0160   47.4590 C   0  0  0  0  0  0  0  0  0  0  0  0
   56.6960   21.0510   46.5130 N   0  0  0  0  0  0  0  0  0  0  0  0
   56.6410   21.6870   45.3320 C   0  0  0  0  0  0  0  0  0  0  0  0
   56.6430   21.1100   44.0650 C   0  0  0  0  0  0  0  0  0  0  0  0
   56.5840   21.9700   42.9510 C   0  0  0  0  0  0  0  0  0  0  0  0
   56.5320   23.3690   43.1290 C   0  0  0  0  0  0  0  0  0  0  0  0
   56.5290   23.9240   44.4220 C   0  0  0  0  0  0  0  0  0  0  0  0
   56.5840   23.0470   45.5060 C   0  0  0  0  0  0  0  0  0  0  0  0
   58.3570   25.9430   46.5620 N   0  0  0  0  0  0  0  0  0  0  0  0
   58.3740   27.0400   45.7730 C   0  0  0  0  0  0  0  0  0  0  0  0
   59.4420   27.5850   45.3880 O   0  0  0  0  0  0  0  0  0  0  0  0
   58.2150   32.2770   46.9590 C   0  0  0  0  0  0  0  0  0  0  0  0
   58.8650   33.3900   47.5050 C   0  0  0  0  0  0  0  0  0  0  0  0
   61.7956   34.2646   50.3808 H   0  0  0  0  0  0  0  0  0  0  0  0
   62.5578   33.2776   49.0880 H   0  0  0  0  0  0  0  0  0  0  0  0
   62.7534   35.0632   49.0880 H   0  0  0  0  0  0  0  0  0  0  0  0
   61.9098   31.9706   48.1627 H   0  0  0  0  0  0  0  0  0  0  0  0
   60.7543   29.9962   47.1853 H   0  0  0  0  0  0  0  0  0  0  0  0
   58.4400   28.9500   46.7440 H   0  0  0  0  0  0  0  0  0  0  0  0
   55.7059   28.6740   44.4722 H   0  0  0  0  0  0  0  0  0  0  0  0
   57.3033   28.5544   43.6453 H   0  0  0  0  0  0  0  0  0  0  0  0
   57.0776   24.5410   48.5196 H   0  0  0  0  0  0  0  0  0  0  0  0
   55.4426   24.7905   47.8049 H   0  0  0  0  0  0  0  0  0  0  0  0
   56.6962   21.8323   48.5433 H   0  0  0  0  0  0  0  0  0  0  0  0
   56.7320   20.0200   46.6720 H   0  0  0  0  0  0  0  0  0  0  0  0
   56.6891   20.0183   43.9380 H   0  0  0  0  0  0  0  0  0  0  0  0
   56.5784   21.5482   41.9351 H   0  0  0  0  0  0  0  0  0  0  0  0
   56.4935   24.0302   42.2508 H   0  0  0  0  0  0  0  0  0  0  0  0
   56.4848   25.0127   44.5732 H   0  0  0  0  0  0  0  0  0  0  0  0
   57.1805   32.3712   46.5972 H   0  0  0  0  0  0  0  0  0  0  0  0
   58.3347   34.3505   47.5840 H   0  0  0  0  0  0  0  0  0  0  0  0
  1  2  1  0
  2  3  1  0
  3  4  2  0
  4  5  1  0
  5  6  2  0
  6  7  1  0
  7  8  1  0
  8  9  2  0
  8 10  1  0
 10 11  1  0
 11 12  1  0
 12 13  1  0
 12 14  2  0
 14 15  1  0
 15 16  1  0
 16 17  2  0
 17 18  1  0
 18 19  1  0
 19 20  2  0
 20 21  1  0
 21 22  2  0
 22 23  1  0
 23 24  2  0
 14 25  1  0
 25 26  1  0
 26 27  2  0
  6 28  1  0
 28 29  2  0
 29  3  1  0
 26 11  1  0
 24 16  1  0
 24 19  1  0
  1 30  1  0
  1 31  1  0
  1 32  1  0
  4 33  1  0
  5 34  1  0
  7 35  1  0
 10 36  1  0
 10 37  1  0
 15 38  1  0
 15 39  1  0
 17 40  1  0
 18 41  1  0
 20 42  1  0
 21 43  1  0
 22 44  1  0
 23 45  1  0
 28 46  1  0
 29 47  1  0
M  CHG  2  13  -1  25  -1
M  END
>  <UniqueID>  (24) 
24

>  <SMILES>  (24) 
COc1ccc(NC(=O)Cn2c([O-])c(Cc3c[nH]c4ccccc34)[n-]c2=O)cc1

>  <Energy>  (24) 
115.40184667652427

>  <Genealogy>  (24) 
COc1ccc(NC(=O)Cn2c([O-])c(Cc3c[nH]c4ccccc34)[n-]c2=O)cc1 (protonated)
COc1ccc(NC(=O)Cn2c([O-])c(Cc3c[nH]c4ccccc34)[n-]c2=O)cc1 (3D coordinates assigned)
COc1ccc(NC(=O)Cn2c([O-])c(Cc3c[nH]c4ccccc34)[n-]c2=O)cc1 (optimized conformer: 115.40184667652427 kcal/mol)

>  <smiles>  (24) 
COc1ccc(NC(=O)Cn2c(O)c(Cc3c[nH]c4ccccc34)[nH]c2=O)cc1

>  <score_type>  (24) 
oracle

>  <origin>  (24) 
adg

>  <m_score__min__energy>  (24) 
-12.43

>  <m_primary>  (24) 
energy

$$$$
24:0
     RDKit          3D

 30 32  0  0  0  0  0  0  0  0999 V2000
   57.7561   31.8309   40.8501 H   0  0  0  0  0  0  0  0  0  0  0  0
   57.7800   32.3530   41.8180 C   0  0  0  0  0  0  0  0  0  0  0  0
   57.9452   33.4400   41.8527 H   0  0  0  0  0  0  0  0  0  0  0  0
   57.6090   31.6690   42.9480 C   0  0  0  0  0  0  0  0  0  0  0  0
   57.6180   32.2090   44.2200 C   0  0  0  0  0  0  0  0  0  0  0  0
   57.7659   33.2656   44.4877 H   0  0  0  0  0  0  0  0  0  0  0  0
   57.4040   31.1560   45.0880 C   0  0  0  0  0  0  0  0  0  0  0  0
   57.3478   31.2075   46.1854 H   0  0  0  0  0  0  0  0  0  0  0  0
   57.3680   26.7230   45.2310 C   0  0  0  0  0  0  0  0  0  0  0  0
   57.0540   28.7780   44.7550 C   0  0  0  0  0  0  0  0  0  0  0  0
   55.8900   28.3990   45.3280 N   0  0  0  0  0  0  0  0  0  0  0  0
   56.1010   27.1070   45.6290 C   0  0  0  0  0  0  0  0  0  0  0  0
   55.2530   26.3940   46.2280 O   0  0  0  0  0  0  0  0  0  0  0  0
   57.2740   30.0200   44.3010 C   0  0  0  0  0  0  0  0  0  0  0  0
   57.9760   25.5340   45.3640 C   0  0  0  0  0  0  0  0  0  0  0  0
   58.9076   25.5003   45.9479 H   0  0  0  0  0  0  0  0  0  0  0  0
   57.4860   24.2680   44.7840 C   0  0  0  0  0  0  0  0  0  0  0  0
   57.5610   23.0620   45.5030 C   0  0  0  0  0  0  0  0  0  0  0  0
   58.0281   23.0459   46.4988 H   0  0  0  0  0  0  0  0  0  0  0  0
   57.0440   21.8830   44.9570 C   0  0  0  0  0  0  0  0  0  0  0  0
   57.1211   20.9387   45.5160 H   0  0  0  0  0  0  0  0  0  0  0  0
   56.4290   21.9030   43.7010 C   0  0  0  0  0  0  0  0  0  0  0  0
   55.9150   20.7310   43.1590 O   0  0  0  0  0  0  0  0  0  0  0  0
   56.3240   23.1050   42.9940 C   0  0  0  0  0  0  0  0  0  0  0  0
   55.8350   23.1218   42.0088 H   0  0  0  0  0  0  0  0  0  0  0  0
   56.8400   24.2860   43.5380 C   0  0  0  0  0  0  0  0  0  0  0  0
   56.7391   25.2327   42.9870 H   0  0  0  0  0  0  0  0  0  0  0  0
   57.9780   27.7910   44.6850 N   0  0  0  0  0  0  0  0  0  0  0  0
   57.3990   30.3380   42.9960 N   0  0  0  0  0  0  0  0  0  0  0  0
   57.3450   29.6860   42.1800 H   0  0  0  0  0  0  0  0  0  0  0  0
  1  2  1  0
  2  3  1  0
  2  4  2  0
  4  5  1  0
  5  6  1  0
  5  7  2  0
  7  8  1  0
  7  9  1  0
  9 10  2  0
 10 11  1  0
 11 12  1  0
 12 13  2  0
 12 14  1  0
 14 15  2  0
 15 16  1  0
 15 17  1  0
 17 18  2  0
 18 19  1  0
 18 20  1  0
 20 21  1  0
 20 22  2  0
 22 23  1  0
 22 24  1  0
 24 25  1  0
 24 26  2  0
 26 27  1  0
 14 28  1  0
  9 29  1  0
 29 30  1  0
 29  4  1  0
 28 10  1  0
 26 17  1  0
M  CHG  3  11  -1  23  -1  28  -1
M  END
>  <UniqueID>  (25) 
25

>  <SMILES>  (25) 
C=c1cc/c(=c2/[n-]c(=O)/c(=C\c3ccc([O-])cc3)[n-]2)[nH]1

>  <Energy>  (25) 
96.67134364554826

>  <Genealogy>  (25) 
C=c1ccc(=c2[n-]c(=O)c(=Cc3ccc([O-])cc3)[n-]2)[nH]1 (protonated)
C=c1cc/c(=c2/[n-]c(=O)/c(=C\c3ccc([O-])cc3)[n-]2)[nH]1 (cis-trans isomerization)
C=c1cc/c(=c2/[n-]c(=O)/c(=C\c3ccc([O-])cc3)[n-]2)[nH]1 (3D coordinates assigned)
C=c1cc/c(=c2/[n-]c(=O)/c(=C\c3ccc([O-])cc3)[n-]2)[nH]1 (optimized conformer: 96.67134364554826 kcal/mol)

>  <smiles>  (25) 
C=c1ccc(=c2[nH]c(=O)c(=Cc3ccc(O)cc3)[nH]2)[nH]1

>  <score_type>  (25) 
oracle

>  <origin>  (25) 
adg

>  <m_score__min__energy>  (25) 
-12.42

>  <m_primary>  (25) 
energy

$$$$
25:0
     RDKit          3D

 60 63  0  0  1  0  0  0  0  0999 V2000
   56.1710   30.6480   44.7650 O   0  0  0  0  0  0  0  0  0  0  0  0
   57.2300   31.3260   44.7890 C   0  0  0  0  0  0  0  0  0  0  0  0
   57.2350   32.8220   44.8680 C   0  0  0  0  0  0  0  0  0  0  0  0
   58.2730   33.3460   45.7230 C   0  0  0  0  0  0  0  0  0  0  0  0
   59.4020   34.0630   45.5970 C   0  0  0  0  0  0  0  0  0  0  0  0
   60.1460   34.3710   46.6580 C   0  0  0  0  0  0  0  0  0  0  0  0
   59.7110   33.9210   47.9130 C   0  0  0  0  0  0  0  0  0  0  0  0
   58.1690   33.0160   47.5540 S   0  0  0  0  0  0  0  0  0  0  0  0
   58.4780   30.6370   44.7380 N   0  0  0  0  0  0  0  0  0  0  0  0
   58.5880   29.2230   44.6540 C   0  0  0  0  0  0  0  0  0  0  0  0
   60.1140   28.5810   44.6060 S   0  0  0  0  0  0  0  0  0  0  0  0
   57.3900   28.3480   44.6100 C   0  0  0  0  0  0  0  0  0  0  0  0
   57.3620   27.5860   45.8450 N   0  0  0  0  0  0  0  0  0  0  0  0
   58.2780   27.6600   46.7380 C   0  0  0  0  0  0  0  0  0  0  0  0
   58.3520   28.7830   47.4820 N   0  0  0  0  0  0  0  0  0  0  0  0
   59.2850   28.9500   48.4430 C   0  0  0  0  0  0  0  0  0  0  0  0
   59.3460   30.1840   49.2580 C   0  0  0  0  0  0  0  0  0  0  0  0
   60.3250   30.9820   49.1680 O   0  0  0  0  0  0  0  0  0  0  0  0
   58.2520   30.4060   50.1350 N   0  0  0  0  0  0  0  0  0  0  0  0
   58.1410   31.5320   50.9980 C   0  0  0  0  0  0  0  0  0  0  0  0
   59.0440   32.5540   50.7950 C   0  0  0  0  0  0  0  0  0  0  0  0
   59.0160   33.6910   51.5670 C   0  0  0  0  0  0  0  0  0  0  0  0
   58.0650   33.7780   52.5440 C   0  0  0  0  0  0  0  0  0  0  0  0
   57.1570   32.7410   52.7430 C   0  0  0  0  0  0  0  0  0  0  0  0
   57.1510   31.5910   51.9960 C   0  0  0  0  0  0  0  0  0  0  0  0
   56.2660   30.4920   52.0890 C   0  0  0  0  0  0  0  0  0  0  0  0
   56.8200   29.3240   52.2300 O   0  0  0  0  0  0  0  0  0  0  0  0
   54.8510   30.4040   52.0620 N   0  0  0  0  0  0  0  0  0  0  0  0
   54.3590   29.0160   52.1490 C   0  0  0  0  0  0  0  0  0  0  0  0
   53.0180   28.9340   52.8300 C   0  0  0  0  0  0  0  0  0  0  0  0
   52.1560   29.9180   52.2810 O   0  0  0  0  0  0  0  0  0  0  0  0
   52.6410   31.1150   52.7840 C   0  0  0  0  0  0  0  0  0  0  0  0
   53.9090   31.4660   51.9840 C   0  0  0  0  0  0  0  0  0  0  0  0
   60.1690   27.9080   48.6300 C   0  0  0  0  0  0  0  0  0  0  0  0
   60.0850   26.7630   47.8640 C   0  0  0  0  0  0  0  0  0  0  0  0
   59.1280   26.6280   46.8990 N   0  0  0  0  0  0  0  0  0  0  0  0
   57.3812   33.2245   43.8548 H   0  0  0  0  0  0  0  0  0  0  0  0
   56.2713   33.1282   45.3011 H   0  0  0  0  0  0  0  0  0  0  0  0
   59.7178   34.4020   44.5993 H   0  0  0  0  0  0  0  0  0  0  0  0
   61.0702   34.9583   46.5534 H   0  0  0  0  0  0  0  0  0  0  0  0
   60.1904   34.0780   48.8905 H   0  0  0  0  0  0  0  0  0  0  0  0
   59.3290   31.2390   44.7650 H   0  0  0  0  0  0  0  0  0  0  0  0
   56.4802   28.9605   44.5257 H   0  0  0  0  0  0  0  0  0  0  0  0
   57.4324   27.6758   43.7403 H   0  0  0  0  0  0  0  0  0  0  0  0
   57.4630   29.7170   50.1690 H   0  0  0  0  0  0  0  0  0  0  0  0
   59.7998   32.4578   50.0016 H   0  0  0  0  0  0  0  0  0  0  0  0
   59.7369   34.5055   51.4032 H   0  0  0  0  0  0  0  0  0  0  0  0
   58.0161   34.6749   53.1789 H   0  0  0  0  0  0  0  0  0  0  0  0
   56.4065   32.8499   53.5398 H   0  0  0  0  0  0  0  0  0  0  0  0
   54.2662   28.6077   51.1318 H   0  0  0  0  0  0  0  0  0  0  0  0
   55.0791   28.4372   52.7461 H   0  0  0  0  0  0  0  0  0  0  0  0
   52.5850   27.9354   52.6712 H   0  0  0  0  0  0  0  0  0  0  0  0
   53.1398   29.1093   53.9091 H   0  0  0  0  0  0  0  0  0  0  0  0
   51.8877   31.9074   52.6627 H   0  0  0  0  0  0  0  0  0  0  0  0
   52.8692   31.0236   53.8562 H   0  0  0  0  0  0  0  0  0  0  0  0
   53.6388   31.6348   50.9312 H   0  0  0  0  0  0  0  0  0  0  0  0
   54.3593   32.3757   52.4078 H   0  0  0  0  0  0  0  0  0  0  0  0
   60.9508   27.9906   49.3994 H   0  0  0  0  0  0  0  0  0  0  0  0
   60.8010   25.9453   48.0336 H   0  0  0  0  0  0  0  0  0  0  0  0
   59.0770   25.7520   46.3230 H   0  0  0  0  0  0  0  0  0  0  0  0
  1  2  2  0
  2  3  1  0
  3  4  1  0
  4  5  2  0
  5  6  1  0
  6  7  2  0
  7  8  1  0
  2  9  1  0
  9 10  1  0
 10 11  2  0
 10 12  1  0
 12 13  1  0
 13 14  2  0
 14 15  1  0
 15 16  2  0
 16 17  1  0
 17 18  2  0
 17 19  1  0
 19 20  1  0
 20 21  2  0
 21 22  1  0
 22 23  2  0
 23 24  1  0
 24 25  2  0
 25 26  1  0
 26 27  2  0
 26 28  1  0
 28 29  1  0
 29 30  1  0
 30 31  1  0
 31 32  1  0
 32 33  1  0
 16 34  1  0
 34 35  2  0
 35 36  1  0
  8  4  1  0
 36 14  1  0
 25 20  1  0
 33 28  1  0
  3 37  1  0
  3 38  1  0
  5 39  1  0
  6 40  1  0
  7 41  1  0
  9 42  1  0
 12 43  1  0
 12 44  1  0
 19 45  1  0
 21 46  1  0
 22 47  1  0
 23 48  1  0
 24 49  1  0
 29 50  1  0
 29 51  1  0
 30 52  1  0
 30 53  1  0
 32 54  1  0
 32 55  1  0
 33 56  1  0
 33 57  1  0
 34 58  1  0
 35 59  1  0
 36 60  1  0
M  END
>  <smiles>  (26) 
O=C(Cc1cccs1)NC(=S)CN=c1nc(C(=O)Nc2ccccc2C(=O)N2CCOCC2)cc[nH]1

>  <score_type>  (26) 
oracle

>  <origin>  (26) 
adg

>  <m_score__min__energy>  (26) 
-10.08

>  <m_primary>  (26) 
energy

$$$$
26:0
     RDKit          3D

 61 64  0  0  0  0  0  0  0  0999 V2000
   62.7830   33.4630   46.8660 C   0  0  0  0  0  0  0  0  0  0  0  0
   61.3040   33.5690   47.0770 C   0  0  0  0  0  0  0  0  0  0  0  0
   60.7410   33.2960   48.3340 C   0  0  0  0  0  0  0  0  0  0  0  0
   59.3550   33.3460   48.5090 C   0  0  0  0  0  0  0  0  0  0  0  0
   58.5210   33.6680   47.4340 C   0  0  0  0  0  0  0  0  0  0  0  0
   59.0700   33.9560   46.1740 C   0  0  0  0  0  0  0  0  0  0  0  0
   58.1750   34.2970   45.0130 C   0  0  0  0  0  0  0  0  0  0  0  0
   57.9190   33.1060   44.2080 N   0  0  0  0  0  0  0  0  0  0  0  0
   57.0700   32.1050   44.5030 C   0  0  0  0  0  0  0  0  0  0  0  0
   57.1800   31.1900   43.4770 C   0  0  0  0  0  0  0  0  0  0  0  0
   56.3690   29.9530   43.2920 C   0  0  0  0  0  0  0  0  0  0  0  0
   56.3560   29.0100   44.8520 S   0  0  0  0  0  0  0  0  0  0  0  0
   58.0420   28.3970   44.7170 C   0  0  0  0  0  0  0  0  0  0  0  0
   58.3440   27.1710   43.6670 S   0  0  0  0  0  0  0  0  0  0  0  0
   59.0610   28.8470   45.6350 N   0  0  0  0  0  0  0  0  0  0  0  0
   59.0740   30.2330   46.1240 C   0  0  0  0  0  0  0  0  0  0  0  0
   58.8880   30.2250   47.6430 C   0  0  0  0  0  0  0  0  0  0  0  0
   59.7610   29.2270   48.2820 N   0  0  0  0  0  0  0  0  0  0  0  0
   59.5970   28.9680   49.6880 C   0  0  0  0  0  0  0  0  0  0  0  0
   60.3390   28.1310   50.2790 O   0  0  0  0  0  0  0  0  0  0  0  0
   58.5880   29.6280   50.4000 O   0  0  0  0  0  0  0  0  0  0  0  0
   58.6840   29.9430   51.7820 C   0  0  0  0  0  0  0  0  0  0  0  0
   58.8190   31.4300   51.9380 C   0  0  0  0  0  0  0  0  0  0  0  0
   60.0460   32.0680   51.6770 C   0  0  0  0  0  0  0  0  0  0  0  0
   60.1500   33.4580   51.7830 C   0  0  0  0  0  0  0  0  0  0  0  0
   59.0290   34.2210   52.1440 C   0  0  0  0  0  0  0  0  0  0  0  0
   57.8060   33.5900   52.4000 C   0  0  0  0  0  0  0  0  0  0  0  0
   57.7000   32.2000   52.2970 C   0  0  0  0  0  0  0  0  0  0  0  0
   60.7120   28.4560   47.4610 C   0  0  0  0  0  0  0  0  0  0  0  0
   59.9810   27.8650   46.2470 C   0  0  0  0  0  0  0  0  0  0  0  0
   58.0810   31.6700   42.5970 N   0  0  0  0  0  0  0  0  0  0  0  0
   58.5230   32.8280   43.0630 N   0  0  0  0  0  0  0  0  0  0  0  0
   60.4620   33.8830   45.9980 C   0  0  0  0  0  0  0  0  0  0  0  0
   63.2908   33.4266   47.8411 H   0  0  0  0  0  0  0  0  0  0  0  0
   63.0080   32.5464   46.3010 H   0  0  0  0  0  0  0  0  0  0  0  0
   63.1364   34.3381   46.3010 H   0  0  0  0  0  0  0  0  0  0  0  0
   61.3923   33.0421   49.1833 H   0  0  0  0  0  0  0  0  0  0  0  0
   58.9190   33.1313   49.4958 H   0  0  0  0  0  0  0  0  0  0  0  0
   57.4305   33.6958   47.5758 H   0  0  0  0  0  0  0  0  0  0  0  0
   57.2208   34.6909   45.3930 H   0  0  0  0  0  0  0  0  0  0  0  0
   58.6707   35.0539   44.3873 H   0  0  0  0  0  0  0  0  0  0  0  0
   56.4183   32.0311   45.3861 H   0  0  0  0  0  0  0  0  0  0  0  0
   55.3392   30.2252   43.0175 H   0  0  0  0  0  0  0  0  0  0  0  0
   56.8068   29.3389   42.4912 H   0  0  0  0  0  0  0  0  0  0  0  0
   60.0355   30.7043   45.8723 H   0  0  0  0  0  0  0  0  0  0  0  0
   58.2596   30.8022   45.6520 H   0  0  0  0  0  0  0  0  0  0  0  0
   59.1324   31.2215   48.0395 H   0  0  0  0  0  0  0  0  0  0  0  0
   57.8423   29.9648   47.8640 H   0  0  0  0  0  0  0  0  0  0  0  0
   57.7780   29.5987   52.3022 H   0  0  0  0  0  0  0  0  0  0  0  0
   59.5625   29.4433   52.2161 H   0  0  0  0  0  0  0  0  0  0  0  0
   60.9246   31.4720   51.3891 H   0  0  0  0  0  0  0  0  0  0  0  0
   61.1113   33.9540   51.5833 H   0  0  0  0  0  0  0  0  0  0  0  0
   59.1113   35.3149   52.2258 H   0  0  0  0  0  0  0  0  0  0  0  0
   56.9274   34.1886   52.6825 H   0  0  0  0  0  0  0  0  0  0  0  0
   56.7372   31.7073   52.4977 H   0  0  0  0  0  0  0  0  0  0  0  0
   61.5191   29.1188   47.1157 H   0  0  0  0  0  0  0  0  0  0  0  0
   61.1386   27.6407   48.0638 H   0  0  0  0  0  0  0  0  0  0  0  0
   60.7249   27.5573   45.4974 H   0  0  0  0  0  0  0  0  0  0  0  0
   59.3878   27.0038   46.5882 H   0  0  0  0  0  0  0  0  0  0  0  0
   58.3880   31.2310   41.7010 H   0  0  0  0  0  0  0  0  0  0  0  0
   60.8964   34.0736   45.0055 H   0  0  0  0  0  0  0  0  0  0  0  0
  1  2  1  0
  2  3  2  0
  3  4  1  0
  4  5  2  0
  5  6  1  0
  6  7  1  0
  7  8  1  0
  8  9  1  0
  9 10  2  0
 10 11  1  0
 11 12  1  0
 12 13  1  0
 13 14  2  0
 13 15  1  0
 15 16  1  0
 16 17  1  0
 17 18  1  0
 18 19  1  0
 19 20  2  0
 19 21  1  0
 21 22  1  0
 22 23  1  0
 23 24  2  0
 24 25  1  0
 25 26  2  0
 26 27  1  0
 27 28  2  0
 18 29  1  0
 29 30  1  0
 10 31  1  0
 31 32  2  0
  6 33  2  0
 33  2  1  0
 32  8  1  0
 30 15  1  0
 28 23  1  0
  1 34  1  0
  1 35  1  0
  1 36  1  0
  3 37  1  0
  4 38  1  0
  5 39  1  0
  7 40  1  0
  7 41  1  0
  9 42  1  0
 11 43  1  0
 11 44  1  0
 16 45  1  0
 16 46  1  0
 17 47  1  0
 17 48  1  0
 22 49  1  0
 22 50  1  0
 24 51  1  0
 25 52  1  0
 26 53  1  0
 27 54  1  0
 28 55  1  0
 29 56  1  0
 29 57  1  0
 30 58  1  0
 30 59  1  0
 31 60  1  0
 33 61  1  0
M  CHG  1  31   1
M  END
>  <UniqueID>  (27) 
26

>  <SMILES>  (27) 
Cc1cccc(Cn2cc(CSC(=S)N3CCN(C(=O)OCc4ccccc4)CC3)[nH+]n2)c1

>  <Energy>  (27) 
94.75713491706014

>  <Genealogy>  (27) 
Cc1cccc(Cn2cc(CSC(=S)N3CCN(C(=O)OCc4ccccc4)CC3)[nH+]n2)c1 (protonated)
Cc1cccc(Cn2cc(CSC(=S)N3CCN(C(=O)OCc4ccccc4)CC3)[nH+]n2)c1 (3D coordinates assigned)
Cc1cccc(Cn2cc(CSC(=S)N3CCN(C(=O)OCc4ccccc4)CC3)[nH+]n2)c1 (nonaromatic ring conformer: 94.75713491706014 kcal/mol)

>  <smiles>  (27) 
Cc1cccc(Cn2cc(CSC(=S)N3CCN(C(=O)OCc4ccccc4)CC3)nn2)c1

>  <score_type>  (27) 
oracle

>  <origin>  (27) 
adg

>  <m_score__min__energy>  (27) 
-8.1400000000000006

>  <m_primary>  (27) 
energy

$$$$
27:0
     RDKit          3D

 39 41  0  0  0  0  0  0  0  0999 V2000
   60.0328   27.2453   44.8869 H   0  0  0  0  0  0  0  0  0  0  0  0
   58.9330   27.2300   44.8770 C   0  0  0  0  0  0  0  0  0  0  0  0
   58.3955   26.2739   44.9607 H   0  0  0  0  0  0  0  0  0  0  0  0
   58.2540   28.3660   44.7640 C   0  0  0  0  0  0  0  0  0  0  0  0
   58.9520   29.8900   44.6190 S   0  0  0  0  0  0  0  0  0  0  0  0
   57.4720   30.6940   44.5410 C   0  0  0  0  0  0  0  0  0  0  0  0
   57.3590   32.0240   44.3990 C   0  0  0  0  0  0  0  0  0  0  0  0
   56.6349   32.4005   43.6614 H   0  0  0  0  0  0  0  0  0  0  0  0
   58.1390   33.0160   45.1640 C   0  0  0  0  0  0  0  0  0  0  0  0
   58.5060   34.2230   44.5540 C   0  0  0  0  0  0  0  0  0  0  0  0
   58.1847   34.4372   43.5240 H   0  0  0  0  0  0  0  0  0  0  0  0
   59.2790   35.1550   45.2510 C   0  0  0  0  0  0  0  0  0  0  0  0
   59.5530   36.1072   44.7733 H   0  0  0  0  0  0  0  0  0  0  0  0
   59.7050   34.8810   46.5530 C   0  0  0  0  0  0  0  0  0  0  0  0
   60.3069   35.6212   47.1005 H   0  0  0  0  0  0  0  0  0  0  0  0
   59.3670   33.6640   47.1640 C   0  0  0  0  0  0  0  0  0  0  0  0
   59.9070   33.3150   48.8100 S   0  0  0  0  0  0  0  0  0  0  0  0
   59.8260   34.5710   49.6330 O   0  0  0  0  0  0  0  0  0  0  0  0
   58.9880   32.2960   49.4260 O   0  0  0  0  0  0  0  0  0  0  0  0
   61.5440   32.7010   48.8380 N   0  0  0  0  0  0  0  0  0  0  0  0
   61.9840   32.2610   47.4950 C   0  0  0  0  0  0  0  0  0  0  0  0
   62.5079   31.2985   47.5904 H   0  0  0  0  0  0  0  0  0  0  0  0
   61.0917   32.1665   46.8588 H   0  0  0  0  0  0  0  0  0  0  0  0
   62.9320   33.2800   46.8370 C   0  0  0  0  0  0  0  0  0  0  0  0
   63.2383   32.8875   45.8561 H   0  0  0  0  0  0  0  0  0  0  0  0
   62.3802   34.2279   46.7536 H   0  0  0  0  0  0  0  0  0  0  0  0
   64.1010   33.5430   47.6010 O   0  0  0  0  0  0  0  0  0  0  0  0
   63.9060   33.4380   49.0060 C   0  0  0  0  0  0  0  0  0  0  0  0
   64.1996   32.4261   49.3218 H   0  0  0  0  0  0  0  0  0  0  0  0
   64.5211   34.2211   49.4734 H   0  0  0  0  0  0  0  0  0  0  0  0
   62.4560   33.6830   49.4530 C   0  0  0  0  0  0  0  0  0  0  0  0
   62.3964   33.5938   50.5478 H   0  0  0  0  0  0  0  0  0  0  0  0
   62.1548   34.6915   49.1333 H   0  0  0  0  0  0  0  0  0  0  0  0
   58.5980   32.7270   46.4590 C   0  0  0  0  0  0  0  0  0  0  0  0
   58.3530   31.7603   46.9231 H   0  0  0  0  0  0  0  0  0  0  0  0
   56.4610   29.7220   44.6090 C   0  0  0  0  0  0  0  0  0  0  0  0
   55.2320   29.9790   44.5150 O   0  0  0  0  0  0  0  0  0  0  0  0
   56.9040   28.4420   44.7430 N   0  0  0  0  0  0  0  0  0  0  0  0
   56.2680   27.6150   44.8050 H   0  0  0  0  0  0  0  0  0  0  0  0
  1  2  1  0
  2  3  1  0
  2  4  2  0
  4  5  1  0
  5  6  1  0
  6  7  2  0
  7  8  1  0
  7  9  1  0
  9 10  2  0
 10 11  1  0
 10 12  1  0
 12 13  1  0
 12 14  2  0
 14 15  1  0
 14 16  1  0
 16 17  1  0
 17 18  2  0
 17 19  2  0
 17 20  1  0
 20 21  1  0
 21 22  1  0
 21 23  1  0
 21 24  1  0
 24 25  1  0
 24 26  1  0
 24 27  1  0
 27 28  1  0
 28 29  1  0
 28 30  1  0
 28 31  1  0
 31 32  1  0
 31 33  1  0
 16 34  2  0
 34 35  1  0
  6 36  1  0
 36 37  2  0
 36 38  1  0
 38 39  1  0
 38  4  1  0
 34  9  1  0
 31 20  1  0
M  END
>  <UniqueID>  (28) 
27

>  <SMILES>  (28) 
C=c1[nH]c(=O)/c(=C\c2cccc(S(=O)(=O)N3CCOCC3)c2)s1

>  <Energy>  (28) 
89.06130709836147

>  <Genealogy>  (28) 
C=c1[nH]c(=O)/c(=C\c2cccc(S(=O)(=O)N3CCOCC3)c2)s1 (cis-trans isomerization)
C=c1[nH]c(=O)/c(=C\c2cccc(S(=O)(=O)N3CCOCC3)c2)s1 (3D coordinates assigned)
C=c1[nH]c(=O)/c(=C\c2cccc(S(=O)(=O)N3CCOCC3)c2)s1 (nonaromatic ring conformer: 89.06130709836147 kcal/mol)

>  <smiles>  (28) 
C=c1[nH]c(=O)c(=Cc2cccc(S(=O)(=O)N3CCOCC3)c2)s1

>  <score_type>  (28) 
oracle

>  <origin>  (28) 
adg

>  <m_score__min__energy>  (28) 
-9.0199999999999996

>  <m_primary>  (28) 
energy

$$$$
28:0
     RDKit          3D

 34 36  0  0  0  0  0  0  0  0999 V2000
   57.3130   30.5060   43.1130 O   0  0  0  0  0  0  0  0  0  0  0  0
   57.5710   30.3200   44.3310 C   0  0  0  0  0  0  0  0  0  0  0  0
   57.8890   31.4520   45.1510 N   0  0  0  0  0  0  0  0  0  0  0  0
   58.1800   31.3860   46.5780 C   0  0  0  0  0  0  0  0  0  0  0  0
   59.5690   31.8980   46.8240 C   0  0  0  0  0  0  0  0  0  0  0  0
   59.8480   33.2700   46.7110 C   0  0  0  0  0  0  0  0  0  0  0  0
   61.1340   33.7520   46.9740 C   0  0  0  0  0  0  0  0  0  0  0  0
   62.1470   32.8690   47.3630 C   0  0  0  0  0  0  0  0  0  0  0  0
   63.7600   33.4750   47.6950 Cl  0  0  0  0  0  0  0  0  0  0  0  0
   61.8720   31.5040   47.4930 C   0  0  0  0  0  0  0  0  0  0  0  0
   60.5860   31.0190   47.2310 C   0  0  0  0  0  0  0  0  0  0  0  0
   57.5640   28.9430   44.8670 C   0  0  0  0  0  0  0  0  0  0  0  0
   58.7690   28.2510   45.0490 C   0  0  0  0  0  0  0  0  0  0  0  0
   58.7720   26.9540   45.5690 C   0  0  0  0  0  0  0  0  0  0  0  0
   57.5670   26.3250   45.9290 C   0  0  0  0  0  0  0  0  0  0  0  0
   57.5700   24.9460   46.4820 C   0  0  0  0  0  0  0  0  0  0  0  0
   57.9070   23.7710   45.8340 C   0  0  0  0  0  0  0  0  0  0  0  0
   57.7750   22.7400   46.6870 N   0  0  0  0  0  0  0  0  0  0  0  0
   57.3680   23.2080   47.8560 N   0  0  0  0  0  0  0  0  0  0  0  0
   57.2330   24.5430   47.7620 C   0  0  0  0  0  0  0  0  0  0  0  0
   56.3610   27.0300   45.7620 C   0  0  0  0  0  0  0  0  0  0  0  0
   56.3570   28.3270   45.2390 C   0  0  0  0  0  0  0  0  0  0  0  0
   55.1450   28.9930   45.0800 O   0  0  0  0  0  0  0  0  0  0  0  0
   57.4570   32.0048   47.1297 H   0  0  0  0  0  0  0  0  0  0  0  0
   58.1046   30.3439   46.9221 H   0  0  0  0  0  0  0  0  0  0  0  0
   59.0515   33.9682   46.4144 H   0  0  0  0  0  0  0  0  0  0  0  0
   61.3493   34.8262   46.8750 H   0  0  0  0  0  0  0  0  0  0  0  0
   62.6681   30.8105   47.8017 H   0  0  0  0  0  0  0  0  0  0  0  0
   60.3709   29.9462   47.3441 H   0  0  0  0  0  0  0  0  0  0  0  0
   59.7206   28.7329   44.7802 H   0  0  0  0  0  0  0  0  0  0  0  0
   59.7253   26.4204   45.6978 H   0  0  0  0  0  0  0  0  0  0  0  0
   58.2318   23.6926   44.7860 H   0  0  0  0  0  0  0  0  0  0  0  0
   56.9064   25.2090   48.5743 H   0  0  0  0  0  0  0  0  0  0  0  0
   55.4101   26.5555   46.0461 H   0  0  0  0  0  0  0  0  0  0  0  0
  1  2  2  0
  2  3  1  0
  3  4  1  0
  4  5  1  0
  5  6  2  0
  6  7  1  0
  7  8  2  0
  8  9  1  0
  8 10  1  0
 10 11  2  0
  2 12  1  0
 12 13  2  0
 13 14  1  0
 14 15  2  0
 15 16  1  0
 16 17  1  0
 17 18  2  0
 18 19  1  0
 19 20  1  0
 15 21  1  0
 21 22  2  0
 22 23  1  0
 11  5  1  0
 22 12  1  0
 20 16  2  0
  4 24  1  0
  4 25  1  0
  6 26  1  0
  7 27  1  0
 10 28  1  0
 11 29  1  0
 13 30  1  0
 14 31  1  0
 17 32  1  0
 20 33  1  0
 21 34  1  0
M  CHG  3   3  -1  19  -1  23  -1
M  END
>  <UniqueID>  (29) 
28

>  <SMILES>  (29) 
O=C([N-]Cc1ccc(Cl)cc1)c1ccc(-c2cn[n-]c2)cc1[O-]

>  <Energy>  (29) 
72.57994554399473

>  <Genealogy>  (29) 
O=C([N-]Cc1ccc(Cl)cc1)c1ccc(-c2cn[n-]c2)cc1[O-] (protonated)
O=C([N-]Cc1ccc(Cl)cc1)c1ccc(-c2cn[n-]c2)cc1[O-] (3D coordinates assigned)
O=C([N-]Cc1ccc(Cl)cc1)c1ccc(-c2cn[n-]c2)cc1[O-] (optimized conformer: 72.57994554399473 kcal/mol)

>  <smiles>  (29) 
O=C(NCc1ccc(Cl)cc1)c1ccc(-c2cn[nH]c2)cc1O

>  <score_type>  (29) 
oracle

>  <origin>  (29) 
adg

>  <m_score__min__energy>  (29) 
-14.51

>  <m_primary>  (29) 
energy

$$$$
29:0
     RDKit          3D

 41 43  0  0  0  0  0  0  0  0999 V2000
   59.5630   35.4540   46.5160 C   0  0  0  0  0  0  0  0  0  0  0  0
   59.0880   34.2300   45.7970 C   0  0  0  0  0  0  0  0  0  0  0  0
   58.8880   34.1830   44.4650 N   0  0  0  0  0  0  0  0  0  0  0  0
   58.4700   32.9380   44.1710 C   0  0  0  0  0  0  0  0  0  0  0  0
   58.1440   32.4840   42.7820 C   0  0  0  0  0  0  0  0  0  0  0  0
   58.4070   32.1680   45.3240 C   0  0  0  0  0  0  0  0  0  0  0  0
   57.9530   30.7650   45.4180 C   0  0  0  0  0  0  0  0  0  0  0  0
   56.8250   30.3380   44.7030 C   0  0  0  0  0  0  0  0  0  0  0  0
   56.3460   29.0340   44.8520 C   0  0  0  0  0  0  0  0  0  0  0  0
   56.9920   28.1320   45.7140 C   0  0  0  0  0  0  0  0  0  0  0  0
   56.4720   26.7570   45.8830 C   0  0  0  0  0  0  0  0  0  0  0  0
   57.2600   25.7750   45.9180 O   0  0  0  0  0  0  0  0  0  0  0  0
   55.1070   26.5310   46.0070 O   0  0  0  0  0  0  0  0  0  0  0  0
   58.1350   28.5580   46.4130 C   0  0  0  0  0  0  0  0  0  0  0  0
   58.6120   29.8630   46.2650 C   0  0  0  0  0  0  0  0  0  0  0  0
   58.8040   32.9970   46.3720 C   0  0  0  0  0  0  0  0  0  0  0  0
   58.9350   32.6430   47.8060 C   0  0  0  0  0  0  0  0  0  0  0  0
   57.9260   32.7310   48.5560 O   0  0  0  0  0  0  0  0  0  0  0  0
   60.2250   32.1920   48.3800 C   0  0  0  0  0  0  0  0  0  0  0  0
   61.4150   32.8430   48.0130 C   0  0  0  0  0  0  0  0  0  0  0  0
   62.6460   32.3920   48.4920 C   0  0  0  0  0  0  0  0  0  0  0  0
   64.1250   33.1880   47.9890 Cl  0  0  0  0  0  0  0  0  0  0  0  0
   62.7000   31.3000   49.3580 C   0  0  0  0  0  0  0  0  0  0  0  0
   61.5250   30.6530   49.7540 C   0  0  0  0  0  0  0  0  0  0  0  0
   61.6540   29.2790   50.8430 Cl  0  0  0  0  0  0  0  0  0  0  0  0
   60.2780   31.0960   49.2660 C   0  0  0  0  0  0  0  0  0  0  0  0
   59.0930   30.4470   49.6260 O   0  0  0  0  0  0  0  0  0  0  0  0
   59.4991   35.2894   47.6017 H   0  0  0  0  0  0  0  0  0  0  0  0
   60.6068   35.6611   46.2373 H   0  0  0  0  0  0  0  0  0  0  0  0
   58.9322   36.3109   46.2373 H   0  0  0  0  0  0  0  0  0  0  0  0
   59.0300   34.9650   43.7880 H   0  0  0  0  0  0  0  0  0  0  0  0
   57.5030   31.5913   42.8290 H   0  0  0  0  0  0  0  0  0  0  0  0
   57.6152   33.2874   42.2483 H   0  0  0  0  0  0  0  0  0  0  0  0
   59.0743   32.2397   42.2483 H   0  0  0  0  0  0  0  0  0  0  0  0
   56.3143   31.0336   44.0209 H   0  0  0  0  0  0  0  0  0  0  0  0
   55.4569   28.7113   44.2905 H   0  0  0  0  0  0  0  0  0  0  0  0
   58.6579   27.8584   47.0817 H   0  0  0  0  0  0  0  0  0  0  0  0
   59.5086   30.1840   46.8155 H   0  0  0  0  0  0  0  0  0  0  0  0
   61.3761   33.7146   47.3431 H   0  0  0  0  0  0  0  0  0  0  0  0
   63.6721   30.9457   49.7316 H   0  0  0  0  0  0  0  0  0  0  0  0
   58.1980   30.9170   49.6640 H   0  0  0  0  0  0  0  0  0  0  0  0
  1  2  1  0
  2  3  1  0
  3  4  1  0
  4  5  1  0
  4  6  2  0
  6  7  1  0
  7  8  2  0
  8  9  1  0
  9 10  2  0
 10 11  1  0
 11 12  2  0
 11 13  1  0
 10 14  1  0
 14 15  2  0
  6 16  1  0
 16 17  1  0
 17 18  2  0
 17 19  1  0
 19 20  2  0
 20 21  1  0
 21 22  1  0
 21 23  2  0
 23 24  1  0
 24 25  1  0
 24 26  2  0
 26 27  1  0
 16  2  2  0
 26 19  1  0
 15  7  1  0
  1 28  1  0
  1 29  1  0
  1 30  1  0
  3 31  1  0
  5 32  1  0
  5 33  1  0
  5 34  1  0
  8 35  1  0
  9 36  1  0
 14 37  1  0
 15 38  1  0
 20 39  1  0
 23 40  1  0
 27 41  1  0
M  CHG  1  13  -1
M  END
>  <UniqueID>  (30) 
29

>  <SMILES>  (30) 
Cc1[nH]c(C)c(-c2ccc(C(=O)[O-])cc2)c1C(=O)c1cc(Cl)cc(Cl)c1O

>  <Energy>  (30) 
78.02983717778521

>  <Genealogy>  (30) 
Cc1[nH]c(C)c(-c2ccc(C(=O)[O-])cc2)c1C(=O)c1cc(Cl)cc(Cl)c1O (protonated)
Cc1[nH]c(C)c(-c2ccc(C(=O)[O-])cc2)c1C(=O)c1cc(Cl)cc(Cl)c1O (3D coordinates assigned)
Cc1[nH]c(C)c(-c2ccc(C(=O)[O-])cc2)c1C(=O)c1cc(Cl)cc(Cl)c1O (optimized conformer: 78.02983717778521 kcal/mol)

>  <smiles>  (30) 
Cc1[nH]c(C)c(-c2ccc(C(=O)O)cc2)c1C(=O)c1cc(Cl)cc(Cl)c1O

>  <score_type>  (30) 
oracle

>  <origin>  (30) 
adg

>  <m_score__min__energy>  (30) 
-10.460000000000001

>  <m_primary>  (30) 
energy

$$$$
30:0
     RDKit          3D

 62 66  0  0  0  0  0  0  0  0999 V2000
   58.7320   34.5790   45.8200 C   0  0  0  0  0  0  0  0  0  0  0  0
   59.8540   33.6760   45.5710 N   0  0  0  0  0  0  0  0  0  0  0  0
   60.9910   33.7790   46.8820 S   0  0  0  0  0  0  0  0  0  0  0  0
   62.3300   34.2260   46.3630 O   0  0  0  0  0  0  0  0  0  0  0  0
   60.5060   34.7930   47.8810 O   0  0  0  0  0  0  0  0  0  0  0  0
   61.1390   32.2140   47.6820 C   0  0  0  0  0  0  0  0  0  0  0  0
   61.8460   32.1170   48.8850 C   0  0  0  0  0  0  0  0  0  0  0  0
   61.9560   30.8870   49.5360 C   0  0  0  0  0  0  0  0  0  0  0  0
   61.3580   29.7480   48.9920 C   0  0  0  0  0  0  0  0  0  0  0  0
   60.6360   29.8260   47.7870 C   0  0  0  0  0  0  0  0  0  0  0  0
   59.9950   28.6180   47.2110 C   0  0  0  0  0  0  0  0  0  0  0  0
   58.6460   28.5720   47.0370 N   0  0  0  0  0  0  0  0  0  0  0  0
   58.0370   27.4780   46.5140 C   0  0  0  0  0  0  0  0  0  0  0  0
   56.6490   27.4620   46.3430 C   0  0  0  0  0  0  0  0  0  0  0  0
   56.0150   26.3320   45.8110 C   0  0  0  0  0  0  0  0  0  0  0  0
   54.6320   26.3380   45.6690 O   0  0  0  0  0  0  0  0  0  0  0  0
   56.7730   25.2030   45.4440 C   0  0  0  0  0  0  0  0  0  0  0  0
   56.1300   23.9930   44.8820 C   0  0  0  0  0  0  0  0  0  0  0  0
   56.1320   23.7990   43.6360 O   0  0  0  0  0  0  0  0  0  0  0  0
   55.5480   23.0070   45.7480 N   0  0  0  0  0  0  0  0  0  0  0  0
   55.9270   21.5960   45.5880 C   0  0  0  0  0  0  0  0  0  0  0  0
   55.4470   20.7620   46.7780 C   0  0  0  0  0  0  0  0  0  0  0  0
   55.6510   21.5220   48.0180 N   0  0  0  0  0  0  0  0  0  0  0  0
   56.7060   21.1520   48.9310 C   0  0  0  0  0  0  0  0  0  0  0  0
   57.6930   20.4910   48.5070 O   0  0  0  0  0  0  0  0  0  0  0  0
   56.6790   21.5660   50.3510 C   0  0  0  0  0  0  0  0  0  0  0  0
   57.7990   22.1960   50.9220 C   0  0  0  0  0  0  0  0  0  0  0  0
   57.7800   22.5890   52.2630 C   0  0  0  0  0  0  0  0  0  0  0  0
   56.6500   22.3500   53.0460 C   0  0  0  0  0  0  0  0  0  0  0  0
   55.5380   21.7100   52.4930 C   0  0  0  0  0  0  0  0  0  0  0  0
   55.5530   21.3150   51.1510 C   0  0  0  0  0  0  0  0  0  0  0  0
   54.9980   22.8380   48.1490 C   0  0  0  0  0  0  0  0  0  0  0  0
   54.5770   23.3980   46.7820 C   0  0  0  0  0  0  0  0  0  0  0  0
   58.1700   25.2300   45.5990 C   0  0  0  0  0  0  0  0  0  0  0  0
   58.8060   26.3590   46.1400 C   0  0  0  0  0  0  0  0  0  0  0  0
   60.1950   26.4220   46.3280 C   0  0  0  0  0  0  0  0  0  0  0  0
   60.9380   25.4520   46.0190 O   0  0  0  0  0  0  0  0  0  0  0  0
   60.7520   27.5440   46.8550 N   0  0  0  0  0  0  0  0  0  0  0  0
   60.5330   31.0730   47.1370 C   0  0  0  0  0  0  0  0  0  0  0  0
   58.5882   34.6948   46.9044 H   0  0  0  0  0  0  0  0  0  0  0  0
   58.9448   35.5606   45.3715 H   0  0  0  0  0  0  0  0  0  0  0  0
   57.8186   34.1612   45.3715 H   0  0  0  0  0  0  0  0  0  0  0  0
   59.4820   32.6990   45.5630 H   0  0  0  0  0  0  0  0  0  0  0  0
   62.3163   33.0117   49.3190 H   0  0  0  0  0  0  0  0  0  0  0  0
   62.5154   30.8146   50.4804 H   0  0  0  0  0  0  0  0  0  0  0  0
   61.4523   28.7821   49.5099 H   0  0  0  0  0  0  0  0  0  0  0  0
   56.0523   28.3412   46.6277 H   0  0  0  0  0  0  0  0  0  0  0  0
   55.4722   21.2034   44.6666 H   0  0  0  0  0  0  0  0  0  0  0  0
   57.0237   21.5312   45.5337 H   0  0  0  0  0  0  0  0  0  0  0  0
   54.3776   20.5335   46.6589 H   0  0  0  0  0  0  0  0  0  0  0  0
   56.0179   19.8229   46.8236 H   0  0  0  0  0  0  0  0  0  0  0  0
   58.6944   22.3804   50.3102 H   0  0  0  0  0  0  0  0  0  0  0  0
   58.6570   23.0874   52.7018 H   0  0  0  0  0  0  0  0  0  0  0  0
   56.6347   22.6658   54.0996 H   0  0  0  0  0  0  0  0  0  0  0  0
   54.6503   21.5166   53.1131 H   0  0  0  0  0  0  0  0  0  0  0  0
   54.6784   20.8053   50.7206 H   0  0  0  0  0  0  0  0  0  0  0  0
   54.1046   22.7320   48.7820 H   0  0  0  0  0  0  0  0  0  0  0  0
   55.7181   23.5364   48.6003 H   0  0  0  0  0  0  0  0  0  0  0  0
   53.5857   23.0014   46.5172 H   0  0  0  0  0  0  0  0  0  0  0  0
   54.5406   24.4958   46.8413 H   0  0  0  0  0  0  0  0  0  0  0  0
   58.7697   24.3597   45.2940 H   0  0  0  0  0  0  0  0  0  0  0  0
   59.9722   31.1514   46.1939 H   0  0  0  0  0  0  0  0  0  0  0  0
  1  2  1  0
  2  3  1  0
  3  4  2  0
  3  5  2  0
  3  6  1  0
  6  7  2  0
  7  8  1  0
  8  9  2  0
  9 10  1  0
 10 11  1  0
 11 12  2  0
 12 13  1  0
 13 14  2  0
 14 15  1  0
 15 16  1  0
 15 17  2  0
 17 18  1  0
 18 19  2  0
 18 20  1  0
 20 21  1  0
 21 22  1  0
 22 23  1  0
 23 24  1  0
 24 25  2  0
 24 26  1  0
 26 27  2  0
 27 28  1  0
 28 29  2  0
 29 30  1  0
 30 31  2  0
 23 32  1  0
 32 33  1  0
 17 34  1  0
 34 35  2  0
 35 36  1  0
 36 37  2  0
 36 38  1  0
 10 39  2  0
 39  6  1  0
 38 11  1  0
 35 13  1  0
 33 20  1  0
 31 26  1  0
  1 40  1  0
  1 41  1  0
  1 42  1  0
  2 43  1  0
  7 44  1  0
  8 45  1  0
  9 46  1  0
 14 47  1  0
 21 48  1  0
 21 49  1  0
 22 50  1  0
 22 51  1  0
 27 52  1  0
 28 53  1  0
 29 54  1  0
 30 55  1  0
 31 56  1  0
 32 57  1  0
 32 58  1  0
 33 59  1  0
 33 60  1  0
 34 61  1  0
 39 62  1  0
M  CHG  2  16  -1  38  -1
M  END
>  <UniqueID>  (31) 
30

>  <SMILES>  (31) 
CNS(=O)(=O)c1cccc(-c2nc3cc([O-])c(C(=O)N4CCN(C(=O)c5ccccc5)CC4)cc3c(=O)[n-]2)c1

>  <Energy>  (31) 
83.31932809493163

>  <Genealogy>  (31) 
CNS(=O)(=O)c1cccc(-c2nc3cc([O-])c(C(=O)N4CCN(C(=O)c5ccccc5)CC4)cc3c(=O)[n-]2)c1 (protonated)
CNS(=O)(=O)c1cccc(-c2nc3cc([O-])c(C(=O)N4CCN(C(=O)c5ccccc5)CC4)cc3c(=O)[n-]2)c1 (3D coordinates assigned)
CNS(=O)(=O)c1cccc(-c2nc3cc([O-])c(C(=O)N4CCN(C(=O)c5ccccc5)CC4)cc3c(=O)[n-]2)c1 (nonaromatic ring conformer: 83.31932809493163 kcal/mol)

>  <smiles>  (31) 
CNS(=O)(=O)c1cccc(-c2nc3cc(O)c(C(=O)N4CCN(C(=O)c5ccccc5)CC4)cc3c(=O)[nH]2)c1

>  <score_type>  (31) 
oracle

>  <origin>  (31) 
adg

>  <m_score__min__energy>  (31) 
-11.92

>  <m_primary>  (31) 
energy

$$$$
31:0
     RDKit          3D

 43 45  0  0  0  0  0  0  0  0999 V2000
   54.0810   25.8630   45.6660 N   0  0  0  0  0  0  0  0  0  0  0  0
   54.2070   24.4440   45.6030 C   0  0  0  0  0  0  0  0  0  0  0  0
   53.4440   23.7780   44.8520 O   0  0  0  0  0  0  0  0  0  0  0  0
   55.2690   23.7530   46.3980 C   0  0  0  0  0  0  0  0  0  0  0  0
   56.4950   24.6080   46.4700 C   0  0  0  0  0  0  0  0  0  0  0  0
   57.4210   24.2930   47.2660 O   0  0  0  0  0  0  0  0  0  0  0  0
   56.6490   25.7170   45.5710 N   0  0  0  0  0  0  0  0  0  0  0  0
   57.6760   26.7150   45.6910 C   0  0  0  0  0  0  0  0  0  0  0  0
   59.0080   26.3110   45.8540 C   0  0  0  0  0  0  0  0  0  0  0  0
   60.0280   27.2580   45.9320 C   0  0  0  0  0  0  0  0  0  0  0  0
   59.7320   28.6190   45.8340 C   0  0  0  0  0  0  0  0  0  0  0  0
   58.4060   29.0510   45.6540 C   0  0  0  0  0  0  0  0  0  0  0  0
   58.1100   30.5000   45.5400 C   0  0  0  0  0  0  0  0  0  0  0  0
   58.9660   31.5510   45.8160 C   0  0  0  0  0  0  0  0  0  0  0  0
   58.2160   32.6790   45.5450 C   0  0  0  0  0  0  0  0  0  0  0  0
   58.6870   34.0740   45.6990 C   0  0  0  0  0  0  0  0  0  0  0  0
   59.1050   34.6830   44.6800 O   0  0  0  0  0  0  0  0  0  0  0  0
   58.7070   34.7690   46.9550 N   0  0  0  0  0  0  0  0  0  0  0  0
   59.8410   34.9540   47.8560 C   0  0  0  0  0  0  0  0  0  0  0  0
   60.7570   33.7640   47.8260 C   0  0  0  0  0  0  0  0  0  0  0  0
   61.9970   33.8280   47.1720 C   0  0  0  0  0  0  0  0  0  0  0  0
   62.8110   32.6940   47.1320 C   0  0  0  0  0  0  0  0  0  0  0  0
   62.3820   31.5090   47.7350 C   0  0  0  0  0  0  0  0  0  0  0  0
   61.1330   31.4750   48.3590 C   0  0  0  0  0  0  0  0  0  0  0  0
   60.3540   32.5900   48.3870 N   0  0  0  0  0  0  0  0  0  0  0  0
   56.9870   32.3140   45.1400 N   0  0  0  0  0  0  0  0  0  0  0  0
   56.9240   30.9920   45.1320 N   0  0  0  0  0  0  0  0  0  0  0  0
   57.3820   28.0860   45.5750 C   0  0  0  0  0  0  0  0  0  0  0  0
   53.2440   26.3460   45.2710 H   0  0  0  0  0  0  0  0  0  0  0  0
   54.8968   23.5641   47.4157 H   0  0  0  0  0  0  0  0  0  0  0  0
   55.5223   22.8005   45.9096 H   0  0  0  0  0  0  0  0  0  0  0  0
   56.0310   25.7480   44.7310 H   0  0  0  0  0  0  0  0  0  0  0  0
   59.2501   25.2401   45.9208 H   0  0  0  0  0  0  0  0  0  0  0  0
   61.0693   26.9320   46.0712 H   0  0  0  0  0  0  0  0  0  0  0  0
   60.5429   29.3595   45.8981 H   0  0  0  0  0  0  0  0  0  0  0  0
   60.0061   31.5002   46.1703 H   0  0  0  0  0  0  0  0  0  0  0  0
   60.4031   35.8476   47.5469 H   0  0  0  0  0  0  0  0  0  0  0  0
   59.4571   35.0729   48.8800 H   0  0  0  0  0  0  0  0  0  0  0  0
   62.3250   34.7634   46.6950 H   0  0  0  0  0  0  0  0  0  0  0  0
   63.7874   32.7337   46.6270 H   0  0  0  0  0  0  0  0  0  0  0  0
   63.0204   30.6134   47.7185 H   0  0  0  0  0  0  0  0  0  0  0  0
   60.7787   30.5455   48.8285 H   0  0  0  0  0  0  0  0  0  0  0  0
   56.3416   28.4082   45.4210 H   0  0  0  0  0  0  0  0  0  0  0  0
  1  2  1  0
  2  3  2  0
  2  4  1  0
  4  5  1  0
  5  6  2  0
  5  7  1  0
  7  8  1  0
  8  9  2  0
  9 10  1  0
 10 11  2  0
 11 12  1  0
 12 13  1  0
 13 14  2  0
 14 15  1  0
 15 16  1  0
 16 17  2  0
 16 18  1  0
 18 19  1  0
 19 20  1  0
 20 21  2  0
 21 22  1  0
 22 23  2  0
 23 24  1  0
 24 25  2  0
 15 26  2  0
 26 27  1  0
 12 28  2  0
 28  8  1  0
 27 13  1  0
 25 20  1  0
  1 29  1  0
  4 30  1  0
  4 31  1  0
  7 32  1  0
  9 33  1  0
 10 34  1  0
 11 35  1  0
 14 36  1  0
 19 37  1  0
 19 38  1  0
 21 39  1  0
 22 40  1  0
 23 41  1  0
 24 42  1  0
 28 43  1  0
M  CHG  3   1  -1  18  -1  27  -1
M  END
>  <UniqueID>  (32) 
31

>  <SMILES>  (32) 
[NH-]C(=O)CC(=O)Nc1cccc(-c2cc(C(=O)[N-]Cc3ccccn3)n[n-]2)c1

>  <Energy>  (32) 
76.38922776546964

>  <Genealogy>  (32) 
[NH-]C(=O)CC(=O)Nc1cccc(-c2cc(C(=O)[N-]Cc3ccccn3)n[n-]2)c1 (protonated)
[NH-]C(=O)CC(=O)Nc1cccc(-c2cc(C(=O)[N-]Cc3ccccn3)n[n-]2)c1 (3D coordinates assigned)
[NH-]C(=O)CC(=O)Nc1cccc(-c2cc(C(=O)[N-]Cc3ccccn3)n[n-]2)c1 (optimized conformer: 76.38922776546964 kcal/mol)

>  <smiles>  (32) 
NC(=O)CC(=O)Nc1cccc(-c2cc(C(=O)NCc3ccccn3)n[nH]2)c1

>  <score_type>  (32) 
oracle

>  <origin>  (32) 
adg

>  <m_score__min__energy>  (32) 
-13.470000000000001

>  <m_primary>  (32) 
energy

$$$$
32:0
     RDKit          3D

 46 49  0  0  0  0  0  0  0  0999 V2000
   53.8230   25.1820   45.6100 C   0  0  0  0  0  0  0  0  0  0  0  0
   54.8040   26.1980   45.9680 N   0  0  0  0  0  0  0  0  0  0  0  0
   56.1000   25.9270   46.5170 C   0  0  0  0  0  0  0  0  0  0  0  0
   56.2610   24.8860   47.2070 O   0  0  0  0  0  0  0  0  0  0  0  0
   57.2350   26.8570   46.3480 C   0  0  0  0  0  0  0  0  0  0  0  0
   58.4280   26.6330   47.0490 C   0  0  0  0  0  0  0  0  0  0  0  0
   59.5100   27.5030   46.8920 C   0  0  0  0  0  0  0  0  0  0  0  0
   59.4100   28.6000   46.0370 C   0  0  0  0  0  0  0  0  0  0  0  0
   58.2220   28.8330   45.3240 C   0  0  0  0  0  0  0  0  0  0  0  0
   58.0850   29.9620   44.4490 N   0  0  0  0  0  0  0  0  0  0  0  0
   57.3610   31.1650   44.7490 C   0  0  0  0  0  0  0  0  0  0  0  0
   56.1030   31.1290   44.7540 O   0  0  0  0  0  0  0  0  0  0  0  0
   58.0530   32.4260   45.1030 C   0  0  0  0  0  0  0  0  0  0  0  0
   57.6320   33.6440   44.5500 C   0  0  0  0  0  0  0  0  0  0  0  0
   58.2980   34.8300   44.8650 C   0  0  0  0  0  0  0  0  0  0  0  0
   59.3850   34.8130   45.7410 C   0  0  0  0  0  0  0  0  0  0  0  0
   59.8160   33.6070   46.3250 C   0  0  0  0  0  0  0  0  0  0  0  0
   60.9420   33.5850   47.2330 N   0  0  0  0  0  0  0  0  0  0  0  0
   60.8460   33.8560   48.6760 C   0  0  0  0  0  0  0  0  0  0  0  0
   62.2350   33.6820   49.1470 C   0  0  0  0  0  0  0  0  0  0  0  0
   62.7570   33.8040   50.4300 C   0  0  0  0  0  0  0  0  0  0  0  0
   64.0880   33.5600   50.6140 N   0  0  0  0  0  0  0  0  0  0  0  0
   64.8960   33.2050   49.5670 C   0  0  0  0  0  0  0  0  0  0  0  0
   66.1500   32.9670   49.7690 N   0  0  0  0  0  0  0  0  0  0  0  0
   64.3780   33.0900   48.3080 N   0  0  0  0  0  0  0  0  0  0  0  0
   63.0570   33.3310   48.1140 C   0  0  0  0  0  0  0  0  0  0  0  0
   62.3150   33.2470   46.8370 C   0  0  0  0  0  0  0  0  0  0  0  0
   59.1270   32.4190   46.0080 C   0  0  0  0  0  0  0  0  0  0  0  0
   57.1510   27.9400   45.4590 C   0  0  0  0  0  0  0  0  0  0  0  0
   53.3991   24.7430   46.5252 H   0  0  0  0  0  0  0  0  0  0  0  0
   53.0185   25.6418   45.0173 H   0  0  0  0  0  0  0  0  0  0  0  0
   54.3107   24.3941   45.0173 H   0  0  0  0  0  0  0  0  0  0  0  0
   58.5127   25.7694   47.7250 H   0  0  0  0  0  0  0  0  0  0  0  0
   60.4437   27.3220   47.4446 H   0  0  0  0  0  0  0  0  0  0  0  0
   60.2632   29.2845   45.9205 H   0  0  0  0  0  0  0  0  0  0  0  0
   56.7722   33.6651   43.8642 H   0  0  0  0  0  0  0  0  0  0  0  0
   57.9654   35.7803   44.4218 H   0  0  0  0  0  0  0  0  0  0  0  0
   59.9094   35.7507   45.9770 H   0  0  0  0  0  0  0  0  0  0  0  0
   60.4922   34.8808   48.8619 H   0  0  0  0  0  0  0  0  0  0  0  0
   60.1309   33.1978   49.1912 H   0  0  0  0  0  0  0  0  0  0  0  0
   62.1140   34.0899   51.2755 H   0  0  0  0  0  0  0  0  0  0  0  0
   66.7890   32.7100   48.9830 H   0  0  0  0  0  0  0  0  0  0  0  0
   62.7048   33.9691   46.1045 H   0  0  0  0  0  0  0  0  0  0  0  0
   62.3974   32.2639   46.3504 H   0  0  0  0  0  0  0  0  0  0  0  0
   59.4349   31.4725   46.4763 H   0  0  0  0  0  0  0  0  0  0  0  0
   56.2378   28.0886   44.8641 H   0  0  0  0  0  0  0  0  0  0  0  0
  1  2  1  0
  2  3  1  0
  3  4  2  0
  3  5  1  0
  5  6  2  0
  6  7  1  0
  7  8  2  0
  8  9  1  0
  9 10  1  0
 10 11  1  0
 11 12  2  0
 11 13  1  0
 13 14  2  0
 14 15  1  0
 15 16  2  0
 16 17  1  0
 17 18  1  0
 18 19  1  0
 19 20  1  0
 20 21  2  0
 21 22  1  0
 22 23  1  0
 23 24  2  3
 23 25  1  0
 25 26  2  0
 26 27  1  0
 17 28  2  0
  9 29  2  0
 29  5  1  0
 28 13  1  0
 27 18  1  0
 26 20  1  0
  1 30  1  0
  1 31  1  0
  1 32  1  0
  6 33  1  0
  7 34  1  0
  8 35  1  0
 14 36  1  0
 15 37  1  0
 16 38  1  0
 19 39  1  0
 19 40  1  0
 21 41  1  0
 24 42  1  0
 27 43  1  0
 27 44  1  0
 28 45  1  0
 29 46  1  0
M  CHG  3   2  -1  10  -1  22  -1
M  END
>  <UniqueID>  (33) 
32

>  <SMILES>  (33) 
C[N-]C(=O)c1cccc([N-]C(=O)c2cccc(N3Cc4c[n-]c(=N)nc4C3)c2)c1

>  <Energy>  (33) 
72.99772773986322

>  <Genealogy>  (33) 
C[N-]C(=O)c1cccc([N-]C(=O)c2cccc(N3Cc4c[n-]c(=N)nc4C3)c2)c1 (protonated)
C[N-]C(=O)c1cccc([N-]C(=O)c2cccc(N3Cc4c[n-]c(=N)nc4C3)c2)c1 (3D coordinates assigned)
C[N-]C(=O)c1cccc([N-]C(=O)c2cccc(N3Cc4c[n-]c(=N)nc4C3)c2)c1 (nonaromatic ring conformer: 72.99772773986322 kcal/mol)

>  <smiles>  (33) 
CNC(=O)c1cccc(NC(=O)c2cccc(N3Cc4c[nH]c(=N)nc4C3)c2)c1

>  <score_type>  (33) 
oracle

>  <origin>  (33) 
adg

>  <m_score__min__energy>  (33) 
-13.6

>  <m_primary>  (33) 
energy

$$$$
33:0
     RDKit          3D

 62 66  0  0  0  0  0  0  0  0999 V2000
   57.3480   24.5910   44.8240 C   0  0  0  0  0  0  0  0  0  0  0  0
   57.8730   25.4760   45.9170 C   0  0  0  0  0  0  0  0  0  0  0  0
   58.0260   24.9840   47.0690 O   0  0  0  0  0  0  0  0  0  0  0  0
   58.2150   26.8590   45.6700 N   0  0  0  0  0  0  0  0  0  0  0  0
   58.5060   27.3030   44.2970 C   0  0  0  0  0  0  0  0  0  0  0  0
   58.7750   28.7990   44.2410 C   0  0  0  0  0  0  0  0  0  0  0  0
   57.7880   29.4750   45.0870 N   0  0  0  0  0  0  0  0  0  0  0  0
   57.8030   31.1920   44.7670 S   0  0  0  0  0  0  0  0  0  0  0  0
   58.4680   31.4650   43.4450 O   0  0  0  0  0  0  0  0  0  0  0  0
   56.3920   31.7060   44.7200 O   0  0  0  0  0  0  0  0  0  0  0  0
   58.7050   32.0110   46.0410 C   0  0  0  0  0  0  0  0  0  0  0  0
   58.1230   33.0590   46.7650 C   0  0  0  0  0  0  0  0  0  0  0  0
   58.8210   33.6520   47.8200 C   0  0  0  0  0  0  0  0  0  0  0  0
   60.1080   33.2050   48.1680 C   0  0  0  0  0  0  0  0  0  0  0  0
   60.7940   33.7740   49.3490 C   0  0  0  0  0  0  0  0  0  0  0  0
   61.7430   34.5740   49.1760 O   0  0  0  0  0  0  0  0  0  0  0  0
   60.3770   33.4780   50.6900 N   0  0  0  0  0  0  0  0  0  0  0  0
   59.1760   32.7780   51.0440 C   0  0  0  0  0  0  0  0  0  0  0  0
   58.9590   31.5090   50.5000 C   0  0  0  0  0  0  0  0  0  0  0  0
   57.8450   30.7570   50.8780 C   0  0  0  0  0  0  0  0  0  0  0  0
   56.9080   31.2760   51.7780 C   0  0  0  0  0  0  0  0  0  0  0  0
   55.7200   30.4860   52.1740 C   0  0  0  0  0  0  0  0  0  0  0  0
   54.4680   30.9490   51.9040 N   0  0  0  0  0  0  0  0  0  0  0  0
   53.3570   30.2490   52.2500 C   0  0  0  0  0  0  0  0  0  0  0  0
   52.2200   30.7180   51.9700 O   0  0  0  0  0  0  0  0  0  0  0  0
   53.4910   29.0190   52.9160 C   0  0  0  0  0  0  0  0  0  0  0  0
   52.3840   28.2470   53.3140 C   0  0  0  0  0  0  0  0  0  0  0  0
   52.5820   27.0310   53.9790 C   0  0  0  0  0  0  0  0  0  0  0  0
   53.8770   26.5750   54.2470 C   0  0  0  0  0  0  0  0  0  0  0  0
   54.9840   27.3370   53.8600 C   0  0  0  0  0  0  0  0  0  0  0  0
   54.7960   28.5560   53.1920 C   0  0  0  0  0  0  0  0  0  0  0  0
   55.8690   29.2940   52.8110 N   0  0  0  0  0  0  0  0  0  0  0  0
   57.1040   32.5680   52.2920 C   0  0  0  0  0  0  0  0  0  0  0  0
   58.2230   33.3240   51.9290 C   0  0  0  0  0  0  0  0  0  0  0  0
   58.3430   34.6160   52.4390 O   0  0  0  0  0  0  0  0  0  0  0  0
   60.6910   32.1620   47.4310 C   0  0  0  0  0  0  0  0  0  0  0  0
   59.9960   31.5750   46.3710 C   0  0  0  0  0  0  0  0  0  0  0  0
   58.0710   29.2230   46.5140 C   0  0  0  0  0  0  0  0  0  0  0  0
   58.4780   27.7590   46.8040 C   0  0  0  0  0  0  0  0  0  0  0  0
   56.8345   23.7254   45.2679 H   0  0  0  0  0  0  0  0  0  0  0  0
   56.6399   25.1578   44.2016 H   0  0  0  0  0  0  0  0  0  0  0  0
   58.1848   24.2413   44.2016 H   0  0  0  0  0  0  0  0  0  0  0  0
   59.3924   26.7662   43.9279 H   0  0  0  0  0  0  0  0  0  0  0  0
   57.6283   27.0861   43.6704 H   0  0  0  0  0  0  0  0  0  0  0  0
   59.7891   29.0089   44.6119 H   0  0  0  0  0  0  0  0  0  0  0  0
   58.6972   29.1599   43.2048 H   0  0  0  0  0  0  0  0  0  0  0  0
   57.1159   33.4154   46.5029 H   0  0  0  0  0  0  0  0  0  0  0  0
   58.3595   34.4762   48.3836 H   0  0  0  0  0  0  0  0  0  0  0  0
   59.6713   31.0996   49.7685 H   0  0  0  0  0  0  0  0  0  0  0  0
   57.7028   29.7476   50.4646 H   0  0  0  0  0  0  0  0  0  0  0  0
   51.3634   28.5988   53.1027 H   0  0  0  0  0  0  0  0  0  0  0  0
   51.7148   26.4311   54.2923 H   0  0  0  0  0  0  0  0  0  0  0  0
   54.0249   25.6150   54.7633 H   0  0  0  0  0  0  0  0  0  0  0  0
   56.0013   26.9807   54.0793 H   0  0  0  0  0  0  0  0  0  0  0  0
   56.3668   32.9914   52.9901 H   0  0  0  0  0  0  0  0  0  0  0  0
   58.8940   35.3370   51.9910 H   0  0  0  0  0  0  0  0  0  0  0  0
   61.6991   31.8056   47.6893 H   0  0  0  0  0  0  0  0  0  0  0  0
   60.4644   30.7657   45.7916 H   0  0  0  0  0  0  0  0  0  0  0  0
   58.8920   29.8835   46.8298 H   0  0  0  0  0  0  0  0  0  0  0  0
   57.1439   29.4217   47.0717 H   0  0  0  0  0  0  0  0  0  0  0  0
   59.5537   27.7318   47.0322 H   0  0  0  0  0  0  0  0  0  0  0  0
   57.8720   27.4086   47.6525 H   0  0  0  0  0  0  0  0  0  0  0  0
  1  2  1  0
  2  3  2  0
  2  4  1  0
  4  5  1  0
  5  6  1  0
  6  7  1  0
  7  8  1  0
  8  9  2  0
  8 10  2  0
  8 11  1  0
 11 12  2  0
 12 13  1  0
 13 14  2  0
 14 15  1  0
 15 16  2  0
 15 17  1  0
 17 18  1  0
 18 19  2  0
 19 20  1  0
 20 21  2  0
 21 22  1  0
 22 23  2  0
 23 24  1  0
 24 25  2  0
 24 26  1  0
 26 27  2  0
 27 28  1  0
 28 29  2  0
 29 30  1  0
 30 31  2  0
 31 32  1  0
 21 33  1  0
 33 34  2  0
 34 35  1  0
 14 36  1  0
 36 37  2  0
  7 38  1  0
 38 39  1  0
 39  4  1  0
 37 11  1  0
 34 18  1  0
 32 22  1  0
 31 26  1  0
  1 40  1  0
  1 41  1  0
  1 42  1  0
  5 43  1  0
  5 44  1  0
  6 45  1  0
  6 46  1  0
 12 47  1  0
 13 48  1  0
 19 49  1  0
 20 50  1  0
 27 51  1  0
 28 52  1  0
 29 53  1  0
 30 54  1  0
 33 55  1  0
 35 56  1  0
 36 57  1  0
 37 58  1  0
 38 59  1  0
 38 60  1  0
 39 61  1  0
 39 62  1  0
M  CHG  2  17  -1  32  -1
M  END
>  <UniqueID>  (34) 
33

>  <SMILES>  (34) 
CC(=O)N1CCN(S(=O)(=O)c2ccc(C(=O)[N-]c3ccc(-c4nc(=O)c5ccccc5[n-]4)cc3O)cc2)CC1

>  <Energy>  (34) 
87.9524406606453

>  <Genealogy>  (34) 
CC(=O)N1CCN(S(=O)(=O)c2ccc(C(=O)[N-]c3ccc(-c4nc(=O)c5ccccc5[n-]4)cc3O)cc2)CC1 (protonated)
CC(=O)N1CCN(S(=O)(=O)c2ccc(C(=O)[N-]c3ccc(-c4nc(=O)c5ccccc5[n-]4)cc3O)cc2)CC1 (3D coordinates assigned)
CC(=O)N1CCN(S(=O)(=O)c2ccc(C(=O)[N-]c3ccc(-c4nc(=O)c5ccccc5[n-]4)cc3O)cc2)CC1 (nonaromatic ring conformer: 87.9524406606453 kcal/mol)

>  <smiles>  (34) 
CC(=O)N1CCN(S(=O)(=O)c2ccc(C(=O)Nc3ccc(-c4nc(=O)c5ccccc5[nH]4)cc3O)cc2)CC1

>  <score_type>  (34) 
oracle

>  <origin>  (34) 
adg

>  <m_score__min__energy>  (34) 
-11.91

>  <m_primary>  (34) 
energy

$$$$
34:0
     RDKit          3D

 32 33  0  0  0  0  0  0  0  0999 V2000
   58.1390   27.5430   43.7110 C   0  0  0  0  0  0  0  0  0  0  0  0
   58.4330   28.5850   44.4950 C   0  0  0  0  0  0  0  0  0  0  0  0
   59.8320   28.9110   44.8190 C   0  0  0  0  0  0  0  0  0  0  0  0
   60.1140   29.9580   45.5990 C   0  0  0  0  0  0  0  0  0  0  0  0
   59.0400   30.8210   46.1570 C   0  0  0  0  0  0  0  0  0  0  0  0
   59.4260   31.9320   46.9930 N   0  0  0  0  0  0  0  0  0  0  0  0
   58.5450   33.0550   47.3540 C   0  0  0  0  0  0  0  0  0  0  0  0
   59.3730   34.3080   47.7540 C   0  0  0  0  0  0  0  0  0  0  0  0
   59.5970   35.3080   46.5990 C   0  0  0  0  0  0  0  0  0  0  0  0
   59.6480   34.6140   45.2350 C   0  0  0  0  0  0  0  0  0  0  0  0
   58.3470   33.8450   44.9290 C   0  0  0  0  0  0  0  0  0  0  0  0
   57.5890   33.3870   46.1920 C   0  0  0  0  0  0  0  0  0  0  0  0
   57.7820   30.5590   45.9040 N   0  0  0  0  0  0  0  0  0  0  0  0
   57.3900   29.4550   45.0730 C   0  0  0  0  0  0  0  0  0  0  0  0
   56.1680   29.2420   44.8490 O   0  0  0  0  0  0  0  0  0  0  0  0
   57.0899   27.3099   43.4764 H   0  0  0  0  0  0  0  0  0  0  0  0
   58.9462   26.9186   43.3004 H   0  0  0  0  0  0  0  0  0  0  0  0
   60.6469   28.2907   44.4176 H   0  0  0  0  0  0  0  0  0  0  0  0
   61.1641   30.1866   45.8336 H   0  0  0  0  0  0  0  0  0  0  0  0
   60.4200   31.9530   47.3170 H   0  0  0  0  0  0  0  0  0  0  0  0
   57.9456   32.7511   48.2248 H   0  0  0  0  0  0  0  0  0  0  0  0
   58.8423   34.8290   48.5645 H   0  0  0  0  0  0  0  0  0  0  0  0
   60.3663   33.9484   48.0606 H   0  0  0  0  0  0  0  0  0  0  0  0
   58.7722   36.0358   46.5956 H   0  0  0  0  0  0  0  0  0  0  0  0
   60.5660   35.8020   46.7631 H   0  0  0  0  0  0  0  0  0  0  0  0
   59.8029   35.3743   44.4553 H   0  0  0  0  0  0  0  0  0  0  0  0
   60.4749   33.8888   45.2535 H   0  0  0  0  0  0  0  0  0  0  0  0
   57.6848   34.5006   44.3445 H   0  0  0  0  0  0  0  0  0  0  0  0
   58.6311   32.9374   44.3763 H   0  0  0  0  0  0  0  0  0  0  0  0
   56.9106   34.1924   46.5100 H   0  0  0  0  0  0  0  0  0  0  0  0
   57.0324   32.4724   45.9397 H   0  0  0  0  0  0  0  0  0  0  0  0
   57.0180   31.1410   46.3090 H   0  0  0  0  0  0  0  0  0  0  0  0
  1  2  2  0
  2  3  1  0
  3  4  2  0
  4  5  1  0
  5  6  1  0
  6  7  1  0
  7  8  1  0
  8  9  1  0
  9 10  1  0
 10 11  1  0
 11 12  1  0
  5 13  2  0
 13 14  1  0
 14 15  2  0
 14  2  1  0
 12  7  1  0
  1 16  1  0
  1 17  1  0
  3 18  1  0
  4 19  1  0
  6 20  1  0
  7 21  1  0
  8 22  1  0
  8 23  1  0
  9 24  1  0
  9 25  1  0
 10 26  1  0
 10 27  1  0
 11 28  1  0
 11 29  1  0
 12 30  1  0
 12 31  1  0
 13 32  1  0
M  CHG  1  13   1
M  END
>  <UniqueID>  (35) 
34

>  <SMILES>  (35) 
C=C1C=CC(NC2CCCCC2)=[NH+]C1=O

>  <Energy>  (35) 
32.37061368180193

>  <Genealogy>  (35) 
C=C1C=CC(NC2CCCCC2)=[NH+]C1=O (protonated)
C=C1C=CC(NC2CCCCC2)=[NH+]C1=O (3D coordinates assigned)
C=C1C=CC(NC2CCCCC2)=[NH+]C1=O (nonaromatic ring conformer: 32.37061368180193 kcal/mol)

>  <smiles>  (35) 
C=C1C=CC(NC2CCCCC2)=NC1=O

>  <score_type>  (35) 
oracle

>  <origin>  (35) 
adg

>  <m_score__min__energy>  (35) 
-5.5499999999999998

>  <m_primary>  (35) 
energy

$$$$
35:0
     RDKit          3D

 38 40  0  0  0  0  0  0  0  0999 V2000
   56.8350   30.3240   42.9530 C   0  0  0  0  0  0  0  0  0  0  0  0
   57.2430   30.8240   44.1230 C   0  0  0  0  0  0  0  0  0  0  0  0
   56.8920   32.0540   44.5300 N   0  0  0  0  0  0  0  0  0  0  0  0
   57.4740   32.1900   45.7360 C   0  0  0  0  0  0  0  0  0  0  0  0
   57.2840   33.5660   46.6090 S   0  0  0  0  0  0  0  0  0  0  0  0
   58.1970   31.1000   46.1240 N   0  0  0  0  0  0  0  0  0  0  0  0
   59.1870   31.0530   47.2310 C   0  0  0  0  0  0  0  0  0  0  0  0
   59.2860   29.6400   47.8480 C   0  0  0  0  0  0  0  0  0  0  0  0
   60.2150   29.6270   49.0770 C   0  0  0  0  0  0  0  0  0  0  0  0
   61.4220   30.5820   48.9480 C   0  0  0  0  0  0  0  0  0  0  0  0
   61.7500   30.9120   47.4870 C   0  0  0  0  0  0  0  0  0  0  0  0
   60.5670   31.6170   46.7980 C   0  0  0  0  0  0  0  0  0  0  0  0
   58.0180   30.2050   45.1040 C   0  0  0  0  0  0  0  0  0  0  0  0
   58.4600   28.9250   45.0400 C   0  0  0  0  0  0  0  0  0  0  0  0
   57.6900   27.7260   45.4270 C   0  0  0  0  0  0  0  0  0  0  0  0
   56.2860   27.7690   45.5370 C   0  0  0  0  0  0  0  0  0  0  0  0
   55.5620   28.9270   45.2490 O   0  0  0  0  0  0  0  0  0  0  0  0
   55.6090   26.6540   45.9140 N   0  0  0  0  0  0  0  0  0  0  0  0
   56.2570   25.4970   46.2010 C   0  0  0  0  0  0  0  0  0  0  0  0
   55.4080   24.1760   46.6430 S   0  0  0  0  0  0  0  0  0  0  0  0
   57.6110   25.4390   46.1280 N   0  0  0  0  0  0  0  0  0  0  0  0
   58.3400   26.5230   45.7580 C   0  0  0  0  0  0  0  0  0  0  0  0
   59.5960   26.4380   45.7210 O   0  0  0  0  0  0  0  0  0  0  0  0
   57.1416   29.3118   42.6505 H   0  0  0  0  0  0  0  0  0  0  0  0
   56.1925   30.9245   42.2923 H   0  0  0  0  0  0  0  0  0  0  0  0
   58.8209   31.7164   48.0284 H   0  0  0  0  0  0  0  0  0  0  0  0
   58.2818   29.3124   48.1550 H   0  0  0  0  0  0  0  0  0  0  0  0
   59.7040   28.9602   47.0909 H   0  0  0  0  0  0  0  0  0  0  0  0
   59.6291   29.9239   49.9593 H   0  0  0  0  0  0  0  0  0  0  0  0
   60.6178   28.6074   49.1669 H   0  0  0  0  0  0  0  0  0  0  0  0
   61.1911   31.5175   49.4786 H   0  0  0  0  0  0  0  0  0  0  0  0
   62.2975   30.0783   49.3837 H   0  0  0  0  0  0  0  0  0  0  0  0
   62.6289   31.5728   47.4567 H   0  0  0  0  0  0  0  0  0  0  0  0
   61.9543   29.9716   46.9541 H   0  0  0  0  0  0  0  0  0  0  0  0
   60.6025   32.6873   47.0495 H   0  0  0  0  0  0  0  0  0  0  0  0
   60.6672   31.4450   45.7162 H   0  0  0  0  0  0  0  0  0  0  0  0
   59.4824   28.7656   44.6669 H   0  0  0  0  0  0  0  0  0  0  0  0
   55.5350   29.7250   45.8710 H   0  0  0  0  0  0  0  0  0  0  0  0
  1  2  2  0
  2  3  1  0
  3  4  1  0
  4  5  2  0
  4  6  1  0
  6  7  1  0
  7  8  1  0
  8  9  1  0
  9 10  1  0
 10 11  1  0
 11 12  1  0
  6 13  1  0
 13 14  2  3
 14 15  1  0
 15 16  2  0
 16 17  1  0
 16 18  1  0
 18 19  1  0
 19 20  2  0
 19 21  1  0
 21 22  1  0
 22 23  2  0
 13  2  1  0
 22 15  1  0
 12  7  1  0
  1 24  1  0
  1 25  1  0
  7 26  1  0
  8 27  1  0
  8 28  1  0
  9 29  1  0
  9 30  1  0
 10 31  1  0
 10 32  1  0
 11 33  1  0
 11 34  1  0
 12 35  1  0
 12 36  1  0
 14 37  1  0
 17 38  1  0
M  CHG  3   3  -1  18  -1  21  -1
M  END
>  <UniqueID>  (36) 
35

>  <SMILES>  (36) 
C=c1[n-]c(=S)n(C2CCCCC2)c1=Cc1c(O)[n-]c(=S)[n-]c1=O

>  <Energy>  (36) 
94.36272674937422

>  <Genealogy>  (36) 
C=c1[n-]c(=S)n(C2CCCCC2)c1=Cc1c(O)[n-]c(=S)[n-]c1=O (protonated)
C=c1[n-]c(=S)n(C2CCCCC2)c1=Cc1c(O)[n-]c(=S)[n-]c1=O (3D coordinates assigned)
C=c1[n-]c(=S)n(C2CCCCC2)c1=Cc1c(O)[n-]c(=S)[n-]c1=O (nonaromatic ring conformer: 94.36272674937422 kcal/mol)

>  <smiles>  (36) 
C=c1[nH]c(=S)n(C2CCCCC2)c1=Cc1c(O)[nH]c(=S)[nH]c1=O

>  <score_type>  (36) 
oracle

>  <origin>  (36) 
adg

>  <m_score__min__energy>  (36) 
-13.09

>  <m_primary>  (36) 
energy

$$$$
36:0
     RDKit          3D

 44 46  0  0  0  0  0  0  0  0999 V2000
   57.3820   22.7160   47.5660 O   0  0  0  0  0  0  0  0  0  0  0  0
   56.9500   23.4420   46.6290 C   0  0  0  0  0  0  0  0  0  0  0  0
   56.8080   24.9200   46.8840 C   0  0  0  0  0  0  0  0  0  0  0  0
   57.8430   25.6740   46.1470 N   0  0  0  0  0  0  0  0  0  0  0  0
   58.3490   26.8380   46.9190 C   0  0  0  0  0  0  0  0  0  0  0  0
   57.7850   28.1700   46.4070 C   0  0  0  0  0  0  0  0  0  0  0  0
   58.1540   28.3970   44.9940 N   0  0  0  0  0  0  0  0  0  0  0  0
   57.1040   29.6000   44.2830 S   0  0  0  0  0  0  0  0  0  0  0  0
   55.7280   29.4720   44.8740 O   0  0  0  0  0  0  0  0  0  0  0  0
   57.0030   29.3710   42.8000 O   0  0  0  0  0  0  0  0  0  0  0  0
   57.7040   31.2250   44.5730 C   0  0  0  0  0  0  0  0  0  0  0  0
   57.7730   32.2430   43.6310 C   0  0  0  0  0  0  0  0  0  0  0  0
   58.2730   33.4400   44.1550 C   0  0  0  0  0  0  0  0  0  0  0  0
   58.5950   33.3540   45.5030 C   0  0  0  0  0  0  0  0  0  0  0  0
   59.2950   34.7660   46.5740 Br  0  0  0  0  0  0  0  0  0  0  0  0
   58.2630   31.8000   46.0520 S   0  0  0  0  0  0  0  0  0  0  0  0
   58.1910   27.1600   44.1790 C   0  0  0  0  0  0  0  0  0  0  0  0
   57.3560   26.0280   44.7940 C   0  0  0  0  0  0  0  0  0  0  0  0
   56.6280   22.8510   45.3490 N   0  0  0  0  0  0  0  0  0  0  0  0
   56.8870   21.4200   45.1420 C   0  0  0  0  0  0  0  0  0  0  0  0
   57.0410   21.1150   43.6480 C   0  0  0  0  0  0  0  0  0  0  0  0
   55.9450   21.6280   42.9180 O   0  0  0  0  0  0  0  0  0  0  0  0
   55.9550   23.0400   42.9840 C   0  0  0  0  0  0  0  0  0  0  0  0
   55.7100   23.5220   44.4160 C   0  0  0  0  0  0  0  0  0  0  0  0
   55.8132   25.2508   46.5511 H   0  0  0  0  0  0  0  0  0  0  0  0
   56.9296   25.1085   47.9609 H   0  0  0  0  0  0  0  0  0  0  0  0
   58.0610   26.7146   47.9734 H   0  0  0  0  0  0  0  0  0  0  0  0
   59.4421   26.8692   46.8004 H   0  0  0  0  0  0  0  0  0  0  0  0
   56.6885   28.1526   46.4935 H   0  0  0  0  0  0  0  0  0  0  0  0
   58.2082   28.9843   47.0134 H   0  0  0  0  0  0  0  0  0  0  0  0
   57.4663   32.1209   42.5817 H   0  0  0  0  0  0  0  0  0  0  0  0
   58.3983   34.3563   43.5595 H   0  0  0  0  0  0  0  0  0  0  0  0
   57.7969   27.3853   43.1771 H   0  0  0  0  0  0  0  0  0  0  0  0
   59.2360   26.8193   44.1342 H   0  0  0  0  0  0  0  0  0  0  0  0
   56.3076   26.3536   44.8644 H   0  0  0  0  0  0  0  0  0  0  0  0
   57.4457   25.1410   44.1497 H   0  0  0  0  0  0  0  0  0  0  0  0
   57.8125   21.1397   45.6663 H   0  0  0  0  0  0  0  0  0  0  0  0
   56.0383   20.8431   45.5381 H   0  0  0  0  0  0  0  0  0  0  0  0
   57.9686   21.5768   43.2789 H   0  0  0  0  0  0  0  0  0  0  0  0
   57.0773   20.0241   43.5116 H   0  0  0  0  0  0  0  0  0  0  0  0
   56.9330   23.4095   42.6421 H   0  0  0  0  0  0  0  0  0  0  0  0
   55.1513   23.4274   42.3406 H   0  0  0  0  0  0  0  0  0  0  0  0
   55.8739   24.6086   44.4653 H   0  0  0  0  0  0  0  0  0  0  0  0
   54.6749   23.2816   44.7003 H   0  0  0  0  0  0  0  0  0  0  0  0
  1  2  2  0
  2  3  1  0
  3  4  1  0
  4  5  1  0
  5  6  1  0
  6  7  1  0
  7  8  1  0
  8  9  2  0
  8 10  2  0
  8 11  1  0
 11 12  2  0
 12 13  1  0
 13 14  2  0
 14 15  1  0
 14 16  1  0
  7 17  1  0
 17 18  1  0
  2 19  1  0
 19 20  1  0
 20 21  1  0
 21 22  1  0
 22 23  1  0
 23 24  1  0
 18  4  1  0
 24 19  1  0
 16 11  1  0
  3 25  1  0
  3 26  1  0
  5 27  1  0
  5 28  1  0
  6 29  1  0
  6 30  1  0
 12 31  1  0
 13 32  1  0
 17 33  1  0
 17 34  1  0
 18 35  1  0
 18 36  1  0
 20 37  1  0
 20 38  1  0
 21 39  1  0
 21 40  1  0
 23 41  1  0
 23 42  1  0
 24 43  1  0
 24 44  1  0
M  END
>  <UniqueID>  (37) 
36

>  <SMILES>  (37) 
O=C(CN1CCN(S(=O)(=O)c2ccc(Br)s2)CC1)N1CCOCC1

>  <Energy>  (37) 
81.47488023631553

>  <Genealogy>  (37) 
O=C(CN1CCN(S(=O)(=O)c2ccc(Br)s2)CC1)N1CCOCC1 (3D coordinates assigned)
O=C(CN1CCN(S(=O)(=O)c2ccc(Br)s2)CC1)N1CCOCC1 (nonaromatic ring conformer: 81.47488023631553 kcal/mol)

>  <smiles>  (37) 
O=C(CN1CCN(S(=O)(=O)c2ccc(Br)s2)CC1)N1CCOCC1

>  <score_type>  (37) 
oracle

>  <origin>  (37) 
adg

>  <m_score__min__energy>  (37) 
-9.4199999999999999

>  <m_primary>  (37) 
energy

$$$$
37:0
     RDKit          3D

 40 42  0  0  0  0  0  0  0  0999 V2000
   60.0380   35.3220   46.3960 O   0  0  0  0  0  0  0  0  0  0  0  0
   59.1870   34.5640   45.9570 C   0  0  0  0  0  0  0  0  0  0  0  0
   59.1940   34.1950   44.5000 C   0  0  0  0  0  0  0  0  0  0  0  0
   57.9400   33.3970   44.1240 C   0  0  0  0  0  0  0  0  0  0  0  0
   57.7040   32.3130   45.0900 N   0  0  0  0  0  0  0  0  0  0  0  0
   57.0990   31.0880   44.6360 C   0  0  0  0  0  0  0  0  0  0  0  0
   56.2880   31.1130   43.6710 O   0  0  0  0  0  0  0  0  0  0  0  0
   57.3930   29.7970   45.2920 C   0  0  0  0  0  0  0  0  0  0  0  0
   58.6440   29.5840   45.8870 C   0  0  0  0  0  0  0  0  0  0  0  0
   58.9410   28.3620   46.5060 C   0  0  0  0  0  0  0  0  0  0  0  0
   60.2860   28.1600   47.1620 C   0  0  0  0  0  0  0  0  0  0  0  0
   60.6990   29.4040   47.9000 C   0  0  0  0  0  0  0  0  0  0  0  0
   60.4480   29.5270   49.2770 C   0  0  0  0  0  0  0  0  0  0  0  0
   60.8620   30.6680   49.9700 C   0  0  0  0  0  0  0  0  0  0  0  0
   61.5370   31.6900   49.2980 C   0  0  0  0  0  0  0  0  0  0  0  0
   61.8000   31.5730   47.9280 C   0  0  0  0  0  0  0  0  0  0  0  0
   62.6530   32.8530   47.0870 Cl  0  0  0  0  0  0  0  0  0  0  0  0
   61.3860   30.4320   47.2320 C   0  0  0  0  0  0  0  0  0  0  0  0
   57.9440   27.3700   46.5470 C   0  0  0  0  0  0  0  0  0  0  0  0
   58.1610   26.2600   47.1040 O   0  0  0  0  0  0  0  0  0  0  0  0
   56.7290   27.6030   45.9850 N   0  0  0  0  0  0  0  0  0  0  0  0
   56.4290   28.7780   45.3710 C   0  0  0  0  0  0  0  0  0  0  0  0
   55.1520   28.9640   44.8520 O   0  0  0  0  0  0  0  0  0  0  0  0
   57.8420   32.5500   46.5400 C   0  0  0  0  0  0  0  0  0  0  0  0
   58.1190   34.0250   46.8660 C   0  0  0  0  0  0  0  0  0  0  0  0
   59.2283   35.1145   43.8972 H   0  0  0  0  0  0  0  0  0  0  0  0
   60.0770   33.5691   44.3035 H   0  0  0  0  0  0  0  0  0  0  0  0
   57.0710   34.0714   44.1187 H   0  0  0  0  0  0  0  0  0  0  0  0
   58.0873   32.9562   43.1270 H   0  0  0  0  0  0  0  0  0  0  0  0
   59.3997   30.3831   45.8680 H   0  0  0  0  0  0  0  0  0  0  0  0
   60.2215   27.3218   47.8714 H   0  0  0  0  0  0  0  0  0  0  0  0
   61.0334   27.9399   46.3855 H   0  0  0  0  0  0  0  0  0  0  0  0
   59.9233   28.7217   49.8120 H   0  0  0  0  0  0  0  0  0  0  0  0
   60.6560   30.7614   51.0465 H   0  0  0  0  0  0  0  0  0  0  0  0
   61.8619   32.5870   49.8456 H   0  0  0  0  0  0  0  0  0  0  0  0
   61.5993   30.3392   46.1569 H   0  0  0  0  0  0  0  0  0  0  0  0
   56.9094   32.2467   47.0383 H   0  0  0  0  0  0  0  0  0  0  0  0
   58.6988   31.9599   46.8973 H   0  0  0  0  0  0  0  0  0  0  0  0
   57.1961   34.6074   46.7281 H   0  0  0  0  0  0  0  0  0  0  0  0
   58.4603   34.1049   47.9087 H   0  0  0  0  0  0  0  0  0  0  0  0
  1  2  2  0
  2  3  1  0
  3  4  1  0
  4  5  1  0
  5  6  1  0
  6  7  2  0
  6  8  1  0
  8  9  1  0
  9 10  2  0
 10 11  1  0
 11 12  1  0
 12 13  2  0
 13 14  1  0
 14 15  2  0
 15 16  1  0
 16 17  1  0
 16 18  2  0
 10 19  1  0
 19 20  2  0
 19 21  1  0
 21 22  1  0
 22 23  1  0
  5 24  1  0
 24 25  1  0
 25  2  1  0
 22  8  2  0
 18 12  1  0
  3 26  1  0
  3 27  1  0
  4 28  1  0
  4 29  1  0
  9 30  1  0
 11 31  1  0
 11 32  1  0
 13 33  1  0
 14 34  1  0
 15 35  1  0
 18 36  1  0
 24 37  1  0
 24 38  1  0
 25 39  1  0
 25 40  1  0
M  CHG  2  21  -1  23  -1
M  END
>  <UniqueID>  (38) 
37

>  <SMILES>  (38) 
O=C1CCN(C(=O)c2cc(Cc3cccc(Cl)c3)c(=O)[n-]c2[O-])CC1

>  <Energy>  (38) 
46.76321666952932

>  <Genealogy>  (38) 
O=C1CCN(C(=O)c2cc(Cc3cccc(Cl)c3)c(=O)[n-]c2[O-])CC1 (protonated)
O=C1CCN(C(=O)c2cc(Cc3cccc(Cl)c3)c(=O)[n-]c2[O-])CC1 (3D coordinates assigned)
O=C1CCN(C(=O)c2cc(Cc3cccc(Cl)c3)c(=O)[n-]c2[O-])CC1 (nonaromatic ring conformer: 46.76321666952932 kcal/mol)

>  <smiles>  (38) 
O=C1CCN(C(=O)c2cc(Cc3cccc(Cl)c3)c(=O)[nH]c2O)CC1

>  <score_type>  (38) 
oracle

>  <origin>  (38) 
adg

>  <m_score__min__energy>  (38) 
-15.57

>  <m_primary>  (38) 
energy

$$$$
38:0
     RDKit          3D

 54 57  0  0  0  0  0  0  0  0999 V2000
   51.3370   22.5990   46.2190 C   0  0  0  0  0  0  0  0  0  0  0  0
   52.4090   21.8280   46.4160 C   0  0  0  0  0  0  0  0  0  0  0  0
   53.8000   22.3310   46.5510 C   0  0  0  0  0  0  0  0  0  0  0  0
   54.8030   21.4220   46.9320 C   0  0  0  0  0  0  0  0  0  0  0  0
   56.1270   21.8380   47.0780 C   0  0  0  0  0  0  0  0  0  0  0  0
   56.4740   23.1720   46.8500 C   0  0  0  0  0  0  0  0  0  0  0  0
   57.7680   23.5630   46.9860 N   0  0  0  0  0  0  0  0  0  0  0  0
   58.1590   24.8470   46.7790 C   0  0  0  0  0  0  0  0  0  0  0  0
   57.2210   25.8300   46.4100 C   0  0  0  0  0  0  0  0  0  0  0  0
   57.6570   27.2310   46.1630 C   0  0  0  0  0  0  0  0  0  0  0  0
   58.6060   27.7100   46.8430 O   0  0  0  0  0  0  0  0  0  0  0  0
   56.9950   28.0560   45.1850 N   0  0  0  0  0  0  0  0  0  0  0  0
   57.3580   29.4230   44.9370 C   0  0  0  0  0  0  0  0  0  0  0  0
   57.2740   29.9730   43.6510 C   0  0  0  0  0  0  0  0  0  0  0  0
   57.6180   31.3090   43.4330 C   0  0  0  0  0  0  0  0  0  0  0  0
   58.0550   32.1200   44.4940 C   0  0  0  0  0  0  0  0  0  0  0  0
   58.4290   33.5520   44.2120 C   0  0  0  0  0  0  0  0  0  0  0  0
   58.1400   31.5690   45.7960 C   0  0  0  0  0  0  0  0  0  0  0  0
   58.7500   32.5110   47.1700 S   0  0  0  0  0  0  0  0  0  0  0  0
   57.8440   33.6820   47.4370 O   0  0  0  0  0  0  0  0  0  0  0  0
   58.7630   31.6330   48.3910 O   0  0  0  0  0  0  0  0  0  0  0  0
   60.3640   33.0930   46.8360 N   0  0  0  0  0  0  0  0  0  0  0  0
   60.6260   34.3750   47.5290 C   0  0  0  0  0  0  0  0  0  0  0  0
   61.4950   34.1850   48.7870 C   0  0  0  0  0  0  0  0  0  0  0  0
   62.7500   33.5670   48.5310 O   0  0  0  0  0  0  0  0  0  0  0  0
   62.7320   32.6670   47.4310 C   0  0  0  0  0  0  0  0  0  0  0  0
   61.3520   32.0470   47.1630 C   0  0  0  0  0  0  0  0  0  0  0  0
   57.7680   30.2300   46.0030 C   0  0  0  0  0  0  0  0  0  0  0  0
   55.8680   25.4490   46.2650 C   0  0  0  0  0  0  0  0  0  0  0  0
   54.9980   26.3080   45.9500 O   0  0  0  0  0  0  0  0  0  0  0  0
   55.4860   24.1070   46.4810 C   0  0  0  0  0  0  0  0  0  0  0  0
   54.1490   23.6810   46.3420 C   0  0  0  0  0  0  0  0  0  0  0  0
   50.3401   22.1426   46.1300 H   0  0  0  0  0  0  0  0  0  0  0  0
   51.4506   23.6907   46.1457 H   0  0  0  0  0  0  0  0  0  0  0  0
   52.2506   20.7415   46.4832 H   0  0  0  0  0  0  0  0  0  0  0  0
   54.5407   20.3699   47.1173 H   0  0  0  0  0  0  0  0  0  0  0  0
   56.8999   21.1133   47.3735 H   0  0  0  0  0  0  0  0  0  0  0  0
   59.2173   25.1213   46.9006 H   0  0  0  0  0  0  0  0  0  0  0  0
   56.1670   27.6840   44.6690 H   0  0  0  0  0  0  0  0  0  0  0  0
   56.9358   29.3501   42.8098 H   0  0  0  0  0  0  0  0  0  0  0  0
   57.5460   31.7309   42.4197 H   0  0  0  0  0  0  0  0  0  0  0  0
   58.5691   34.0883   45.1621 H   0  0  0  0  0  0  0  0  0  0  0  0
   59.3645   33.5796   43.6340 H   0  0  0  0  0  0  0  0  0  0  0  0
   57.6265   34.0336   43.6340 H   0  0  0  0  0  0  0  0  0  0  0  0
   61.1470   35.0527   46.8367 H   0  0  0  0  0  0  0  0  0  0  0  0
   59.6591   34.7940   47.8445 H   0  0  0  0  0  0  0  0  0  0  0  0
   61.6799   35.1734   49.2330 H   0  0  0  0  0  0  0  0  0  0  0  0
   60.9403   33.5155   49.4608 H   0  0  0  0  0  0  0  0  0  0  0  0
   63.0482   33.2133   46.5301 H   0  0  0  0  0  0  0  0  0  0  0  0
   63.4130   31.8401   47.6810 H   0  0  0  0  0  0  0  0  0  0  0  0
   61.4289   31.3465   46.3184 H   0  0  0  0  0  0  0  0  0  0  0  0
   61.0202   31.5184   48.0688 H   0  0  0  0  0  0  0  0  0  0  0  0
   57.7998   29.8100   47.0192 H   0  0  0  0  0  0  0  0  0  0  0  0
   53.3710   24.4087   46.0679 H   0  0  0  0  0  0  0  0  0  0  0  0
  1  2  2  0
  2  3  1  0
  3  4  2  0
  4  5  1  0
  5  6  2  0
  6  7  1  0
  7  8  1  0
  8  9  2  0
  9 10  1  0
 10 11  2  0
 10 12  1  0
 12 13  1  0
 13 14  2  0
 14 15  1  0
 15 16  2  0
 16 17  1  0
 16 18  1  0
 18 19  1  0
 19 20  2  0
 19 21  2  0
 19 22  1  0
 22 23  1  0
 23 24  1  0
 24 25  1  0
 25 26  1  0
 26 27  1  0
 18 28  2  0
  9 29  1  0
 29 30  2  0
 29 31  1  0
 31 32  2  0
 32  3  1  0
 31  6  1  0
 28 13  1  0
 27 22  1  0
  1 33  1  0
  1 34  1  0
  2 35  1  0
  4 36  1  0
  5 37  1  0
  8 38  1  0
 12 39  1  0
 14 40  1  0
 15 41  1  0
 17 42  1  0
 17 43  1  0
 17 44  1  0
 23 45  1  0
 23 46  1  0
 24 47  1  0
 24 48  1  0
 26 49  1  0
 26 50  1  0
 27 51  1  0
 27 52  1  0
 28 53  1  0
 32 54  1  0
M  CHG  1   7  -1
M  END
>  <UniqueID>  (39) 
38

>  <SMILES>  (39) 
C=Cc1ccc2[n-]cc(C(=O)Nc3ccc(C)c(S(=O)(=O)N4CCOCC4)c3)c(=O)c2c1

>  <Energy>  (39) 
85.92435316858374

>  <Genealogy>  (39) 
C=Cc1ccc2[n-]cc(C(=O)Nc3ccc(C)c(S(=O)(=O)N4CCOCC4)c3)c(=O)c2c1 (protonated)
C=Cc1ccc2[n-]cc(C(=O)Nc3ccc(C)c(S(=O)(=O)N4CCOCC4)c3)c(=O)c2c1 (3D coordinates assigned)
C=Cc1ccc2[n-]cc(C(=O)Nc3ccc(C)c(S(=O)(=O)N4CCOCC4)c3)c(=O)c2c1 (nonaromatic ring conformer: 85.92435316858374 kcal/mol)

>  <smiles>  (39) 
C=Cc1ccc2[nH]cc(C(=O)Nc3ccc(C)c(S(=O)(=O)N4CCOCC4)c3)c(=O)c2c1

>  <score_type>  (39) 
oracle

>  <origin>  (39) 
adg

>  <m_score__min__energy>  (39) 
-10.6

>  <m_primary>  (39) 
energy

$$$$
39:0
     RDKit          3D

 66 70  0  0  0  0  0  0  0  0999 V2000
   57.0410   21.8800   48.6320 O   0  0  0  0  0  0  0  0  0  0  0  0
   56.2070   22.3410   47.8090 C   0  0  0  0  0  0  0  0  0  0  0  0
   56.6800   23.1230   46.6160 C   0  0  0  0  0  0  0  0  0  0  0  0
   55.6280   24.0260   46.1220 N   0  0  0  0  0  0  0  0  0  0  0  0
   55.9880   25.3300   45.6220 C   0  0  0  0  0  0  0  0  0  0  0  0
   55.3190   26.3380   45.9750 O   0  0  0  0  0  0  0  0  0  0  0  0
   57.1870   25.5120   44.7260 C   0  0  0  0  0  0  0  0  0  0  0  0
   57.7220   26.9500   44.7520 C   0  0  0  0  0  0  0  0  0  0  0  0
   58.7540   27.1290   45.8240 C   0  0  0  0  0  0  0  0  0  0  0  0
   59.6150   26.1530   46.2870 C   0  0  0  0  0  0  0  0  0  0  0  0
   60.3450   26.7480   47.2920 C   0  0  0  0  0  0  0  0  0  0  0  0
   59.8880   28.0540   47.3740 C   0  0  0  0  0  0  0  0  0  0  0  0
   60.3450   29.1040   48.3060 C   0  0  0  0  0  0  0  0  0  0  0  0
   61.0130   28.7510   49.3180 O   0  0  0  0  0  0  0  0  0  0  0  0
   60.1150   30.5100   48.0440 N   0  0  0  0  0  0  0  0  0  0  0  0
   61.1330   31.0160   47.0860 C   0  0  0  0  0  0  0  0  0  0  0  0
   61.3560   32.5420   47.1850 C   0  0  0  0  0  0  0  0  0  0  0  0
   60.1740   33.2120   47.7470 N   0  0  0  0  0  0  0  0  0  0  0  0
   59.6660   34.4500   47.2150 C   0  0  0  0  0  0  0  0  0  0  0  0
   59.2680   35.3390   48.0180 O   0  0  0  0  0  0  0  0  0  0  0  0
   59.5860   34.6860   45.7490 C   0  0  0  0  0  0  0  0  0  0  0  0
   58.5390   34.3680   44.9700 C   0  0  0  0  0  0  0  0  0  0  0  0
   58.0990   32.9970   44.6480 C   0  0  0  0  0  0  0  0  0  0  0  0
   57.8450   32.6470   43.3130 C   0  0  0  0  0  0  0  0  0  0  0  0
   57.4680   31.3400   42.9860 C   0  0  0  0  0  0  0  0  0  0  0  0
   57.3670   30.3680   43.9860 C   0  0  0  0  0  0  0  0  0  0  0  0
   57.6500   30.7010   45.3150 C   0  0  0  0  0  0  0  0  0  0  0  0
   58.0280   32.0070   45.6440 C   0  0  0  0  0  0  0  0  0  0  0  0
   59.6380   32.7230   49.0250 C   0  0  0  0  0  0  0  0  0  0  0  0
   60.1040   31.2870   49.3020 C   0  0  0  0  0  0  0  0  0  0  0  0
   58.9400   28.2480   46.4850 O   0  0  0  0  0  0  0  0  0  0  0  0
   54.2460   23.5970   46.1530 C   0  0  0  0  0  0  0  0  0  0  0  0
   53.2910   24.1150   45.2590 C   0  0  0  0  0  0  0  0  0  0  0  0
   51.9590   23.6910   45.3270 C   0  0  0  0  0  0  0  0  0  0  0  0
   51.5690   22.7500   46.2840 C   0  0  0  0  0  0  0  0  0  0  0  0
   52.5130   22.2150   47.1640 C   0  0  0  0  0  0  0  0  0  0  0  0
   53.8500   22.6240   47.0920 C   0  0  0  0  0  0  0  0  0  0  0  0
   54.8170   22.0570   47.9760 N   0  0  0  0  0  0  0  0  0  0  0  0
   57.5591   23.7188   46.9028 H   0  0  0  0  0  0  0  0  0  0  0  0
   56.9369   22.4150   45.8143 H   0  0  0  0  0  0  0  0  0  0  0  0
   57.9845   24.8320   45.0601 H   0  0  0  0  0  0  0  0  0  0  0  0
   56.8734   25.2887   43.6956 H   0  0  0  0  0  0  0  0  0  0  0  0
   58.1750   27.1812   43.7766 H   0  0  0  0  0  0  0  0  0  0  0  0
   56.8822   27.6286   44.9624 H   0  0  0  0  0  0  0  0  0  0  0  0
   59.6999   25.1167   45.9279 H   0  0  0  0  0  0  0  0  0  0  0  0
   61.1306   26.2818   47.9047 H   0  0  0  0  0  0  0  0  0  0  0  0
   59.1670   30.6180   47.6130 H   0  0  0  0  0  0  0  0  0  0  0  0
   62.0877   30.5091   47.2901 H   0  0  0  0  0  0  0  0  0  0  0  0
   60.7617   30.8048   46.0723 H   0  0  0  0  0  0  0  0  0  0  0  0
   62.2227   32.7375   47.8336 H   0  0  0  0  0  0  0  0  0  0  0  0
   61.5346   32.9364   46.1738 H   0  0  0  0  0  0  0  0  0  0  0  0
   60.4530   35.1585   45.2641 H   0  0  0  0  0  0  0  0  0  0  0  0
   57.9621   35.1981   44.5364 H   0  0  0  0  0  0  0  0  0  0  0  0
   57.9427   33.4034   42.5204 H   0  0  0  0  0  0  0  0  0  0  0  0
   57.2507   31.0766   41.9404 H   0  0  0  0  0  0  0  0  0  0  0  0
   57.0652   29.3422   43.7279 H   0  0  0  0  0  0  0  0  0  0  0  0
   57.5752   29.9356   46.1015 H   0  0  0  0  0  0  0  0  0  0  0  0
   58.2708   32.2606   46.6865 H   0  0  0  0  0  0  0  0  0  0  0  0
   59.9882   33.3779   49.8364 H   0  0  0  0  0  0  0  0  0  0  0  0
   58.5394   32.7313   48.9710 H   0  0  0  0  0  0  0  0  0  0  0  0
   61.1186   31.3083   49.7265 H   0  0  0  0  0  0  0  0  0  0  0  0
   59.4128   30.8130   50.0144 H   0  0  0  0  0  0  0  0  0  0  0  0
   53.5924   24.8559   44.5039 H   0  0  0  0  0  0  0  0  0  0  0  0
   51.2169   24.0995   44.6253 H   0  0  0  0  0  0  0  0  0  0  0  0
   50.5182   22.4305   46.3443 H   0  0  0  0  0  0  0  0  0  0  0  0
   52.2055   21.4716   47.9142 H   0  0  0  0  0  0  0  0  0  0  0  0
  1  2  2  0
  2  3  1  0
  3  4  1  0
  4  5  1  0
  5  6  2  0
  5  7  1  0
  7  8  1  0
  8  9  1  0
  9 10  2  0
 10 11  1  0
 11 12  2  0
 12 13  1  0
 13 14  2  0
 13 15  1  0
 15 16  1  0
 16 17  1  0
 17 18  1  0
 18 19  1  0
 19 20  2  0
 19 21  1  0
 21 22  2  3
 22 23  1  0
 23 24  2  0
 24 25  1  0
 25 26  2  0
 26 27  1  0
 27 28  2  0
 18 29  1  0
 29 30  1  0
 12 31  1  0
  4 32  1  0
 32 33  2  0
 33 34  1  0
 34 35  2  0
 35 36  1  0
 36 37  2  0
 37 38  1  0
 38  2  1  0
 31  9  1  0
 37 32  1  0
 30 15  1  0
 28 23  1  0
  3 39  1  0
  3 40  1  0
  7 41  1  0
  7 42  1  0
  8 43  1  0
  8 44  1  0
 10 45  1  0
 11 46  1  0
 15 47  1  0
 16 48  1  0
 16 49  1  0
 17 50  1  0
 17 51  1  0
 21 52  1  0
 22 53  1  0
 24 54  1  0
 25 55  1  0
 26 56  1  0
 27 57  1  0
 28 58  1  0
 29 59  1  0
 29 60  1  0
 30 61  1  0
 30 62  1  0
 33 63  1  0
 34 64  1  0
 35 65  1  0
 36 66  1  0
M  CHG  2  15   1  38  -1
M  END
>  <UniqueID>  (40) 
39

>  <SMILES>  (40) 
O=C1CN(C(=O)CCc2ccc(C(=O)[NH+]3CCN(C(=O)C=Cc4ccccc4)CC3)o2)c2ccccc2[N-]1

>  <Energy>  (40) 
117.53707651670467

>  <Genealogy>  (40) 
O=C1CN(C(=O)CCc2ccc(C(=O)[NH+]3CCN(C(=O)C=Cc4ccccc4)CC3)o2)c2ccccc2[N-]1 (protonated)
O=C1CN(C(=O)CCc2ccc(C(=O)[NH+]3CCN(C(=O)C=Cc4ccccc4)CC3)o2)c2ccccc2[N-]1 (3D coordinates assigned)
O=C1CN(C(=O)CCc2ccc(C(=O)[NH+]3CCN(C(=O)C=Cc4ccccc4)CC3)o2)c2ccccc2[N-]1 (nonaromatic ring conformer: 117.53707651670467 kcal/mol)

>  <smiles>  (40) 
O=C1CN(C(=O)CCc2ccc(C(=O)N3CCN(C(=O)C=Cc4ccccc4)CC3)o2)c2ccccc2N1

>  <score_type>  (40) 
oracle

>  <origin>  (40) 
adg

>  <m_score__min__energy>  (40) 
-10.859999999999999

>  <m_primary>  (40) 
energy

$$$$
40:0
     RDKit          3D

 61 63  0  0  0  0  0  0  0  0999 V2000
   55.5540   29.7420   52.7380 C   0  0  0  0  0  0  0  0  0  0  0  0
   56.6310   29.9780   51.8430 O   0  0  0  0  0  0  0  0  0  0  0  0
   57.4550   31.1130   51.8720 C   0  0  0  0  0  0  0  0  0  0  0  0
   56.9980   32.3560   52.3590 C   0  0  0  0  0  0  0  0  0  0  0  0
   57.8480   33.4640   52.3760 C   0  0  0  0  0  0  0  0  0  0  0  0
   59.1590   33.3480   51.9170 C   0  0  0  0  0  0  0  0  0  0  0  0
   59.6270   32.1240   51.4370 C   0  0  0  0  0  0  0  0  0  0  0  0
   58.7830   31.0010   51.4070 C   0  0  0  0  0  0  0  0  0  0  0  0
   59.3090   29.6790   50.9140 C   0  0  0  0  0  0  0  0  0  0  0  0
   59.9100   29.8610   49.6000 N   0  0  0  0  0  0  0  0  0  0  0  0
   59.1460   29.9990   48.4020 C   0  0  0  0  0  0  0  0  0  0  0  0
   58.1840   29.2210   48.1680 O   0  0  0  0  0  0  0  0  0  0  0  0
   59.5150   31.0640   47.4110 C   0  0  2  0  0  0  0  0  0  0  0  0
   59.6250   32.4300   48.1170 C   0  0  0  0  0  0  0  0  0  0  0  0
   61.0470   32.9340   48.1150 C   0  0  0  0  0  0  0  0  0  0  0  0
   61.9520   32.5170   47.1230 C   0  0  0  0  0  0  0  0  0  0  0  0
   63.2770   32.9650   47.1450 C   0  0  0  0  0  0  0  0  0  0  0  0
   63.7090   33.8220   48.1610 C   0  0  0  0  0  0  0  0  0  0  0  0
   62.8180   34.2340   49.1560 C   0  0  0  0  0  0  0  0  0  0  0  0
   61.4910   33.7940   49.1340 C   0  0  0  0  0  0  0  0  0  0  0  0
   58.5250   31.1020   46.3320 N   0  0  0  0  0  0  0  0  0  0  0  0
   58.5220   32.1410   45.3430 C   0  0  0  0  0  0  0  0  0  0  0  0
   59.4960   32.9360   45.2530 O   0  0  0  0  0  0  0  0  0  0  0  0
   57.3750   32.2590   44.3820 C   0  0  0  0  0  0  0  0  0  0  0  0
   56.2590   31.4240   44.8080 N   0  0  0  0  0  0  0  0  0  0  0  0
   56.1510   30.0320   44.4910 C   0  0  0  0  0  0  0  0  0  0  0  0
   55.1440   29.3680   44.8570 O   0  0  0  0  0  0  0  0  0  0  0  0
   57.2190   29.3760   43.6760 C   0  0  0  0  0  0  0  0  0  0  0  0
   58.1870   28.6580   44.5790 C   0  0  0  0  0  0  0  0  0  0  0  0
   59.5630   28.9260   44.4900 C   0  0  0  0  0  0  0  0  0  0  0  0
   60.4700   28.2430   45.3060 C   0  0  0  0  0  0  0  0  0  0  0  0
   60.0110   27.2780   46.2060 C   0  0  0  0  0  0  0  0  0  0  0  0
   58.6470   26.9910   46.2880 C   0  0  0  0  0  0  0  0  0  0  0  0
   57.7340   27.6730   45.4760 C   0  0  0  0  0  0  0  0  0  0  0  0
   56.4130   27.3680   45.5610 F   0  0  0  0  0  0  0  0  0  0  0  0
   55.9144   29.8210   53.7743 H   0  0  0  0  0  0  0  0  0  0  0  0
   54.7644   30.4884   52.5665 H   0  0  0  0  0  0  0  0  0  0  0  0
   55.1489   28.7338   52.5665 H   0  0  0  0  0  0  0  0  0  0  0  0
   55.9661   32.4529   52.7275 H   0  0  0  0  0  0  0  0  0  0  0  0
   57.4820   34.4306   52.7525 H   0  0  0  0  0  0  0  0  0  0  0  0
   59.8258   34.2227   51.9331 H   0  0  0  0  0  0  0  0  0  0  0  0
   60.6638   32.0378   51.0797 H   0  0  0  0  0  0  0  0  0  0  0  0
   60.0668   29.3001   51.6156 H   0  0  0  0  0  0  0  0  0  0  0  0
   58.4829   28.9559   50.8449 H   0  0  0  0  0  0  0  0  0  0  0  0
   60.4957   30.8305   46.9708 H   0  0  0  0  0  0  0  0  0  0  0  0
   58.9864   33.1566   47.5934 H   0  0  0  0  0  0  0  0  0  0  0  0
   59.3006   32.3088   49.1611 H   0  0  0  0  0  0  0  0  0  0  0  0
   61.6169   31.8360   46.3268 H   0  0  0  0  0  0  0  0  0  0  0  0
   63.9793   32.6426   46.3622 H   0  0  0  0  0  0  0  0  0  0  0  0
   64.7515   34.1727   48.1776 H   0  0  0  0  0  0  0  0  0  0  0  0
   63.1611   34.9051   49.9572 H   0  0  0  0  0  0  0  0  0  0  0  0
   60.7919   34.1222   49.9173 H   0  0  0  0  0  0  0  0  0  0  0  0
   57.7730   30.3780   46.2910 H   0  0  0  0  0  0  0  0  0  0  0  0
   57.0458   33.3077   44.3394 H   0  0  0  0  0  0  0  0  0  0  0  0
   57.7092   31.9237   43.3891 H   0  0  0  0  0  0  0  0  0  0  0  0
   56.7588   28.6529   42.9866 H   0  0  0  0  0  0  0  0  0  0  0  0
   57.7601   30.1440   43.1039 H   0  0  0  0  0  0  0  0  0  0  0  0
   59.9289   29.6772   43.7746 H   0  0  0  0  0  0  0  0  0  0  0  0
   61.5452   28.4655   45.2393 H   0  0  0  0  0  0  0  0  0  0  0  0
   60.7247   26.7439   46.8505 H   0  0  0  0  0  0  0  0  0  0  0  0
   58.2890   26.2264   46.9931 H   0  0  0  0  0  0  0  0  0  0  0  0
  1  2  1  0
  2  3  1  0
  3  4  2  0
  4  5  1  0
  5  6  2  0
  6  7  1  0
  7  8  2  0
  8  9  1  0
  9 10  1  0
 10 11  1  0
 11 12  2  0
 11 13  1  0
 13 14  1  0
 14 15  1  0
 15 16  2  0
 16 17  1  0
 17 18  2  0
 18 19  1  0
 19 20  2  0
 13 21  1  0
 21 22  1  0
 22 23  2  0
 22 24  1  0
 24 25  1  0
 25 26  1  0
 26 27  2  0
 26 28  1  0
 28 29  1  0
 29 30  2  0
 30 31  1  0
 31 32  2  0
 32 33  1  0
 33 34  2  0
 34 35  1  0
  8  3  1  0
 20 15  1  0
 34 29  1  0
  1 36  1  0
  1 37  1  0
  1 38  1  0
  4 39  1  0
  5 40  1  0
  6 41  1  0
  7 42  1  0
  9 43  1  0
  9 44  1  0
 13 45  1  6
 14 46  1  0
 14 47  1  0
 16 48  1  0
 17 49  1  0
 18 50  1  0
 19 51  1  0
 20 52  1  0
 21 53  1  0
 24 54  1  0
 24 55  1  0
 28 56  1  0
 28 57  1  0
 30 58  1  0
 31 59  1  0
 32 60  1  0
 33 61  1  0
M  CHG  2  10  -1  25  -1
M  END
>  <UniqueID>  (41) 
40

>  <SMILES>  (41) 
COc1ccccc1C[N-]C(=O)[C@H](Cc1ccccc1)NC(=O)C[N-]C(=O)Cc1ccccc1F

>  <Energy>  (41) 
49.0435644797005

>  <Genealogy>  (41) 
COc1ccccc1C[N-]C(=O)C(Cc1ccccc1)NC(=O)C[N-]C(=O)Cc1ccccc1F (protonated)
COc1ccccc1C[N-]C(=O)[C@H](Cc1ccccc1)NC(=O)C[N-]C(=O)Cc1ccccc1F (chirality)
COc1ccccc1C[N-]C(=O)[C@H](Cc1ccccc1)NC(=O)C[N-]C(=O)Cc1ccccc1F (3D coordinates assigned)
COc1ccccc1C[N-]C(=O)[C@H](Cc1ccccc1)NC(=O)C[N-]C(=O)Cc1ccccc1F (optimized conformer: 49.0435644797005 kcal/mol)

>  <smiles>  (41) 
COc1ccccc1CNC(=O)C(Cc1ccccc1)NC(=O)CNC(=O)Cc1ccccc1F

>  <score_type>  (41) 
oracle

>  <origin>  (41) 
adg

>  <m_score__min__energy>  (41) 
-12.17

>  <m_primary>  (41) 
energy

$$$$
41:0
     RDKit          3D

 41 44  0  0  1  0  0  0  0  0999 V2000
   55.9170   22.0700   42.3910 O   0  0  0  0  0  0  0  0  0  0  0  0
   56.2400   22.5590   43.6500 C   0  0  0  0  0  0  0  0  0  0  0  0
   57.0530   21.8060   44.4870 C   0  0  0  0  0  0  0  0  0  0  0  0
   57.3910   22.2750   45.7520 C   0  0  0  0  0  0  0  0  0  0  0  0
   56.5650   30.4330   42.9020 C   0  0  0  0  0  0  0  0  0  0  0  0
   56.8970   30.7590   44.2420 C   0  0  0  0  0  0  0  0  0  0  0  0
   56.5090   29.8990   45.2270 N   0  0  0  0  0  0  0  0  0  0  0  0
   56.8980   28.8140   45.6350 C   0  0  0  0  0  0  0  0  0  0  0  0
   56.0850   27.7290   45.5010 N   0  0  0  0  0  0  0  0  0  0  0  0
   56.4180   26.5010   45.9150 C   0  0  0  0  0  0  0  0  0  0  0  0
   55.5990   25.5160   45.7580 N   0  0  0  0  0  0  0  0  0  0  0  0
   56.1240   24.2390   45.3740 C   0  0  0  0  0  0  0  0  0  0  0  0
   57.7040   31.9020   44.4740 C   0  0  0  0  0  0  0  0  0  0  0  0
   57.0370   31.2330   41.8740 C   0  0  0  0  0  0  0  0  0  0  0  0
   57.8290   32.3500   42.1090 C   0  0  0  0  0  0  0  0  0  0  0  0
   58.1450   32.6590   43.4180 C   0  0  0  0  0  0  0  0  0  0  0  0
   56.9360   23.4970   46.2220 C   0  0  0  0  0  0  0  0  0  0  0  0
   58.1300   28.6680   46.2190 C   0  0  0  0  0  0  0  0  0  0  0  0
   58.9860   29.7170   46.3790 C   0  0  0  0  0  0  0  0  0  0  0  0
   60.2380   29.5050   46.9880 C   0  0  0  0  0  0  0  0  0  0  0  0
   60.4990   28.2260   47.3800 C   0  0  0  0  0  0  0  0  0  0  0  0
   59.6490   27.1660   47.2250 C   0  0  0  0  0  0  0  0  0  0  0  0
   58.4460   27.3840   46.6370 C   0  0  0  0  0  0  0  0  0  0  0  0
   57.6170   26.3360   46.4900 N   0  0  0  0  0  0  0  0  0  0  0  0
   55.7840   23.7820   44.1170 C   0  0  0  0  0  0  0  0  0  0  0  0
   56.3210   22.5340   41.5780 H   0  0  0  0  0  0  0  0  0  0  0  0
   57.4326   20.8312   44.1469 H   0  0  0  0  0  0  0  0  0  0  0  0
   58.0364   21.6600   46.3964 H   0  0  0  0  0  0  0  0  0  0  0  0
   55.9400   29.5551   42.6816 H   0  0  0  0  0  0  0  0  0  0  0  0
   55.1460   27.8340   45.0570 H   0  0  0  0  0  0  0  0  0  0  0  0
   57.9768   32.1821   45.5022 H   0  0  0  0  0  0  0  0  0  0  0  0
   56.7759   30.9751   40.8370 H   0  0  0  0  0  0  0  0  0  0  0  0
   58.1939   32.9703   41.2771 H   0  0  0  0  0  0  0  0  0  0  0  0
   58.7707   33.5408   43.6202 H   0  0  0  0  0  0  0  0  0  0  0  0
   57.2063   23.8633   47.2234 H   0  0  0  0  0  0  0  0  0  0  0  0
   58.7007   30.7220   46.0348 H   0  0  0  0  0  0  0  0  0  0  0  0
   60.9603   30.3209   47.1380 H   0  0  0  0  0  0  0  0  0  0  0  0
   61.4699   28.0310   47.8588 H   0  0  0  0  0  0  0  0  0  0  0  0
   59.9339   26.1607   47.5688 H   0  0  0  0  0  0  0  0  0  0  0  0
   57.8850   25.3730   46.8160 H   0  0  0  0  0  0  0  0  0  0  0  0
   55.1395   24.3994   43.4740 H   0  0  0  0  0  0  0  0  0  0  0  0
  1  2  1  0
  2  3  2  0
  3  4  1  0
  4  5  2  0
  5  6  1  0
  6  7  1  0
  7  8  2  0
  8  9  1  0
  9 10  1  0
 10 11  2  0
 11 12  1  0
 12 13  2  0
 13 14  1  0
 14 15  2  0
 15 16  1  0
 16 17  2  0
 10 18  1  0
 18 19  2  0
 19 20  1  0
 20 21  2  0
 21 22  1  0
 22 23  2  0
 23 24  1  0
  6 25  2  0
 25  2  1  0
 24  8  1  0
 17 12  1  0
 23 18  1  0
  1 26  1  0
  3 27  1  0
  4 28  1  0
  5 29  1  0
  9 30  1  0
 13 31  1  0
 14 32  1  0
 15 33  1  0
 16 34  1  0
 17 35  1  0
 19 36  1  0
 20 37  1  0
 21 38  1  0
 22 39  1  0
 24 40  1  0
 25 41  1  0
M  END
>  <smiles>  (42) 
Oc1cccc(N=c2[nH]c(=Nc3ccccc3)c3ccccc3[nH]2)c1

>  <score_type>  (42) 
oracle

>  <origin>  (42) 
adg

>  <m_score__min__energy>  (42) 
-9.3499999999999996

>  <m_primary>  (42) 
energy

$$$$
42:0
     RDKit          3D

 53 56  0  0  0  0  0  0  0  0999 V2000
   55.1430   26.6250   46.0050 O   0  0  0  0  0  0  0  0  0  0  0  0
   56.2090   25.9650   46.1370 C   0  0  0  0  0  0  0  0  0  0  0  0
   57.4840   26.6090   46.0180 N   0  0  0  0  0  0  0  0  0  0  0  0
   57.7280   28.0220   45.9350 C   0  0  0  0  0  0  0  0  0  0  0  0
   58.5980   28.6830   46.8200 C   0  0  0  0  0  0  0  0  0  0  0  0
   58.8190   30.0580   46.6940 C   0  0  0  0  0  0  0  0  0  0  0  0
   58.1900   30.7910   45.6750 C   0  0  0  0  0  0  0  0  0  0  0  0
   58.4120   32.2100   45.5600 N   0  0  0  0  0  0  0  0  0  0  0  0
   57.7980   32.9690   44.4650 C   0  0  0  0  0  0  0  0  0  0  0  0
   57.5730   34.4180   44.9060 C   0  0  0  0  0  0  0  0  0  0  0  0
   58.7680   34.9810   45.4140 O   0  0  0  0  0  0  0  0  0  0  0  0
   59.1560   34.3020   46.5940 C   0  0  0  0  0  0  0  0  0  0  0  0
   59.5140   32.8450   46.2900 C   0  0  0  0  0  0  0  0  0  0  0  0
   57.3390   30.1220   44.7800 C   0  0  0  0  0  0  0  0  0  0  0  0
   57.1200   28.7480   44.9050 C   0  0  0  0  0  0  0  0  0  0  0  0
   56.1610   24.5540   46.3840 N   0  0  0  0  0  0  0  0  0  0  0  0
   54.9400   23.7940   46.3940 C   0  0  0  0  0  0  0  0  0  0  0  0
   53.8460   24.2340   45.6280 C   0  0  0  0  0  0  0  0  0  0  0  0
   52.6790   23.4740   45.5500 C   0  0  0  0  0  0  0  0  0  0  0  0
   52.5920   22.2580   46.2260 C   0  0  0  0  0  0  0  0  0  0  0  0
   53.6700   21.8010   46.9860 C   0  0  0  0  0  0  0  0  0  0  0  0
   54.8530   22.5590   47.0870 C   0  0  0  0  0  0  0  0  0  0  0  0
   55.9510   22.0580   47.9510 C   0  0  0  0  0  0  0  0  0  0  0  0
   55.7060   21.6250   49.1100 O   0  0  0  0  0  0  0  0  0  0  0  0
   57.2950   22.0370   47.4540 N   0  0  0  0  0  0  0  0  0  0  0  0
   57.7160   21.2510   46.3000 C   0  0  0  0  0  0  0  0  0  0  0  0
   57.3840   21.9770   45.0350 C   0  0  0  0  0  0  0  0  0  0  0  0
   56.6190   21.4860   43.9960 C   0  0  0  0  0  0  0  0  0  0  0  0
   56.5690   22.4990   43.0630 C   0  0  0  0  0  0  0  0  0  0  0  0
   57.3040   23.5430   43.5900 C   0  0  0  0  0  0  0  0  0  0  0  0
   57.7760   23.2010   44.7680 O   0  0  0  0  0  0  0  0  0  0  0  0
   59.1065   28.1166   47.6141 H   0  0  0  0  0  0  0  0  0  0  0  0
   59.4910   30.5694   47.3989 H   0  0  0  0  0  0  0  0  0  0  0  0
   58.4640   32.9521   43.5897 H   0  0  0  0  0  0  0  0  0  0  0  0
   56.8319   32.5134   44.2021 H   0  0  0  0  0  0  0  0  0  0  0  0
   57.2347   35.0092   44.0423 H   0  0  0  0  0  0  0  0  0  0  0  0
   56.8124   34.4302   45.7005 H   0  0  0  0  0  0  0  0  0  0  0  0
   60.0322   34.8056   47.0283 H   0  0  0  0  0  0  0  0  0  0  0  0
   58.3149   34.3179   47.3027 H   0  0  0  0  0  0  0  0  0  0  0  0
   60.4264   32.8125   45.6764 H   0  0  0  0  0  0  0  0  0  0  0  0
   59.6856   32.3063   47.2336 H   0  0  0  0  0  0  0  0  0  0  0  0
   56.8418   30.6836   43.9754 H   0  0  0  0  0  0  0  0  0  0  0  0
   56.4642   28.2326   44.1878 H   0  0  0  0  0  0  0  0  0  0  0  0
   57.0580   24.0640   46.5980 H   0  0  0  0  0  0  0  0  0  0  0  0
   53.9112   25.1880   45.0843 H   0  0  0  0  0  0  0  0  0  0  0  0
   51.8270   23.8343   44.9548 H   0  0  0  0  0  0  0  0  0  0  0  0
   51.6726   21.6577   46.1604 H   0  0  0  0  0  0  0  0  0  0  0  0
   53.5948   20.8379   47.5121 H   0  0  0  0  0  0  0  0  0  0  0  0
   58.8022   21.0847   46.3497 H   0  0  0  0  0  0  0  0  0  0  0  0
   57.1888   20.2856   46.3101 H   0  0  0  0  0  0  0  0  0  0  0  0
   56.1481   20.4943   43.9273 H   0  0  0  0  0  0  0  0  0  0  0  0
   56.0487   22.4800   42.0940 H   0  0  0  0  0  0  0  0  0  0  0  0
   57.4692   24.5131   43.0985 H   0  0  0  0  0  0  0  0  0  0  0  0
  1  2  2  0
  2  3  1  0
  3  4  1  0
  4  5  2  0
  5  6  1  0
  6  7  2  0
  7  8  1  0
  8  9  1  0
  9 10  1  0
 10 11  1  0
 11 12  1  0
 12 13  1  0
  7 14  1  0
 14 15  2  0
  2 16  1  0
 16 17  1  0
 17 18  2  0
 18 19  1  0
 19 20  2  0
 20 21  1  0
 21 22  2  0
 22 23  1  0
 23 24  2  0
 23 25  1  0
 25 26  1  0
 26 27  1  0
 27 28  2  0
 28 29  1  0
 29 30  2  0
 30 31  1  0
 15  4  1  0
 22 17  1  0
 31 27  1  0
 13  8  1  0
  5 32  1  0
  6 33  1  0
  9 34  1  0
  9 35  1  0
 10 36  1  0
 10 37  1  0
 12 38  1  0
 12 39  1  0
 13 40  1  0
 13 41  1  0
 14 42  1  0
 15 43  1  0
 16 44  1  0
 18 45  1  0
 19 46  1  0
 20 47  1  0
 21 48  1  0
 26 49  1  0
 26 50  1  0
 28 51  1  0
 29 52  1  0
 30 53  1  0
M  CHG  2   3  -1  25  -1
M  END
>  <UniqueID>  (43) 
41

>  <SMILES>  (43) 
O=C([N-]c1ccc(N2CCOCC2)cc1)Nc1ccccc1C(=O)[N-]Cc1ccco1

>  <Energy>  (43) 
95.67449721035359

>  <Genealogy>  (43) 
O=C([N-]c1ccc(N2CCOCC2)cc1)Nc1ccccc1C(=O)[N-]Cc1ccco1 (protonated)
O=C([N-]c1ccc(N2CCOCC2)cc1)Nc1ccccc1C(=O)[N-]Cc1ccco1 (3D coordinates assigned)
O=C([N-]c1ccc(N2CCOCC2)cc1)Nc1ccccc1C(=O)[N-]Cc1ccco1 (nonaromatic ring conformer: 95.67449721035359 kcal/mol)

>  <smiles>  (43) 
O=C(Nc1ccc(N2CCOCC2)cc1)Nc1ccccc1C(=O)NCc1ccco1

>  <score_type>  (43) 
oracle

>  <origin>  (43) 
adg

>  <m_score__min__energy>  (43) 
-12.19

>  <m_primary>  (43) 
energy

$$$$
43:0
     RDKit          3D

 62 66  0  0  0  0  0  0  0  0999 V2000
   59.7550   22.5570   45.2810 C   0  0  0  0  0  0  0  0  0  0  0  0
   58.5140   22.3530   44.4510 C   0  0  0  0  0  0  0  0  0  0  0  0
   58.4850   21.3300   43.5440 N   0  0  0  0  0  0  0  0  0  0  0  0
   57.3730   21.0760   42.8090 C   0  0  0  0  0  0  0  0  0  0  0  0
   56.2730   21.8540   42.9440 N   0  0  0  0  0  0  0  0  0  0  0  0
   56.2600   22.9090   43.7980 C   0  0  0  0  0  0  0  0  0  0  0  0
   57.3980   23.2180   44.5560 C   0  0  0  0  0  0  0  0  0  0  0  0
   57.3890   24.4170   45.4810 C   0  0  1  0  0  0  0  0  0  0  0  0
   58.5000   25.4190   45.1860 C   0  0  0  0  0  0  0  0  0  0  0  0
   57.0630   25.7660   44.8360 C   0  0  2  0  0  0  0  0  0  0  0  0
   56.3600   26.7260   45.7540 C   0  0  0  0  0  0  0  0  0  0  0  0
   55.5490   26.2730   46.6130 O   0  0  0  0  0  0  0  0  0  0  0  0
   56.6070   28.1390   45.6680 N   0  0  0  0  0  0  0  0  0  0  0  0
   57.8160   28.7820   46.1710 C   0  0  0  0  0  0  0  0  0  0  0  0
   58.0820   30.0990   45.4790 C   0  0  0  0  0  0  0  0  0  0  0  0
   57.7310   30.2980   44.1280 C   0  0  0  0  0  0  0  0  0  0  0  0
   57.9310   31.5420   43.5230 C   0  0  0  0  0  0  0  0  0  0  0  0
   57.4050   31.8070   41.8740 Cl  0  0  0  0  0  0  0  0  0  0  0  0
   58.5080   32.5900   44.2470 C   0  0  0  0  0  0  0  0  0  0  0  0
   58.8850   32.4020   45.5880 C   0  0  0  0  0  0  0  0  0  0  0  0
   59.5150   33.5110   46.3420 C   0  0  0  0  0  0  0  0  0  0  0  0
   59.3800   34.6870   45.8830 O   0  0  0  0  0  0  0  0  0  0  0  0
   60.3180   33.2880   47.5260 N   0  0  0  0  0  0  0  0  0  0  0  0
   61.6680   33.8810   47.6010 C   0  0  0  0  0  0  0  0  0  0  0  0
   62.5930   33.0950   48.5010 C   0  0  0  0  0  0  0  0  0  0  0  0
   63.9380   33.4790   48.5760 C   0  0  0  0  0  0  0  0  0  0  0  0
   64.8510   32.7260   49.3200 C   0  0  0  0  0  0  0  0  0  0  0  0
   64.4230   31.5880   50.0060 C   0  0  0  0  0  0  0  0  0  0  0  0
   63.0830   31.2040   49.9560 C   0  0  0  0  0  0  0  0  0  0  0  0
   62.1470   31.9690   49.2360 C   0  0  0  0  0  0  0  0  0  0  0  0
   60.7190   31.5030   49.1540 C   0  0  0  0  0  0  0  0  0  0  0  0
   59.7720   32.6400   48.7370 C   0  0  1  0  0  0  0  0  0  0  0  0
   59.5580   33.6620   49.8740 C   0  0  0  0  0  0  0  0  0  0  0  0
   59.4770   34.9530   49.3400 O   0  0  0  0  0  0  0  0  0  0  0  0
   58.7140   31.1390   46.1800 C   0  0  0  0  0  0  0  0  0  0  0  0
   59.4933   22.5140   46.3485 H   0  0  0  0  0  0  0  0  0  0  0  0
   60.4845   21.7667   45.0502 H   0  0  0  0  0  0  0  0  0  0  0  0
   60.1931   23.5392   45.0502 H   0  0  0  0  0  0  0  0  0  0  0  0
   59.3200   20.7140   43.4180 H   0  0  0  0  0  0  0  0  0  0  0  0
   57.3651   20.2346   42.1005 H   0  0  0  0  0  0  0  0  0  0  0  0
   55.3531   23.5238   43.8956 H   0  0  0  0  0  0  0  0  0  0  0  0
   57.0134   23.8791   46.3639 H   0  0  0  0  0  0  0  0  0  0  0  0
   59.0043   25.9390   46.0138 H   0  0  0  0  0  0  0  0  0  0  0  0
   59.4476   25.3847   44.6284 H   0  0  0  0  0  0  0  0  0  0  0  0
   56.5610   26.1081   43.9189 H   0  0  0  0  0  0  0  0  0  0  0  0
   57.6999   28.9638   47.2496 H   0  0  0  0  0  0  0  0  0  0  0  0
   58.6665   28.1136   45.9715 H   0  0  0  0  0  0  0  0  0  0  0  0
   57.2977   29.4703   43.5474 H   0  0  0  0  0  0  0  0  0  0  0  0
   58.6676   33.5658   43.7650 H   0  0  0  0  0  0  0  0  0  0  0  0
   62.0986   33.9083   46.5891 H   0  0  0  0  0  0  0  0  0  0  0  0
   61.5675   34.8916   48.0236 H   0  0  0  0  0  0  0  0  0  0  0  0
   64.2785   34.3803   48.0452 H   0  0  0  0  0  0  0  0  0  0  0  0
   65.9071   33.0303   49.3649 H   0  0  0  0  0  0  0  0  0  0  0  0
   65.1435   30.9933   50.5868 H   0  0  0  0  0  0  0  0  0  0  0  0
   62.7555   30.2960   50.4836 H   0  0  0  0  0  0  0  0  0  0  0  0
   60.6506   30.6926   48.4133 H   0  0  0  0  0  0  0  0  0  0  0  0
   60.4152   31.1526   50.1515 H   0  0  0  0  0  0  0  0  0  0  0  0
   58.7806   32.2175   48.5164 H   0  0  0  0  0  0  0  0  0  0  0  0
   58.6240   33.4271   50.4055 H   0  0  0  0  0  0  0  0  0  0  0  0
   60.4050   33.6102   50.5739 H   0  0  0  0  0  0  0  0  0  0  0  0
   59.2970   34.8400   48.3700 H   0  0  0  0  0  0  0  0  0  0  0  0
   59.0788   30.9632   47.2027 H   0  0  0  0  0  0  0  0  0  0  0  0
  1  2  1  0
  2  3  2  0
  3  4  1  0
  4  5  2  0
  5  6  1  0
  6  7  2  0
  7  8  1  0
  8  9  1  0
  9 10  1  0
 10 11  1  0
 11 12  2  0
 11 13  1  0
 13 14  1  0
 14 15  1  0
 15 16  2  0
 16 17  1  0
 17 18  1  0
 17 19  2  0
 19 20  1  0
 20 21  1  0
 21 22  2  0
 21 23  1  0
 23 24  1  0
 24 25  1  0
 25 26  2  0
 26 27  1  0
 27 28  2  0
 28 29  1  0
 29 30  2  0
 30 31  1  0
 31 32  1  0
 32 33  1  0
 33 34  1  0
 20 35  2  0
  7  2  1  0
 10  8  1  0
 35 15  1  0
 32 23  1  0
 30 25  1  0
  1 36  1  0
  1 37  1  0
  1 38  1  0
  3 39  1  0
  4 40  1  0
  6 41  1  0
  8 42  1  1
  9 43  1  0
  9 44  1  0
 10 45  1  6
 14 46  1  0
 14 47  1  0
 16 48  1  0
 19 49  1  0
 24 50  1  0
 24 51  1  0
 26 52  1  0
 27 53  1  0
 28 54  1  0
 29 55  1  0
 31 56  1  0
 31 57  1  0
 32 58  1  6
 33 59  1  0
 33 60  1  0
 34 61  1  0
 35 62  1  0
M  CHG  2   3   1  13  -1
M  END
>  <UniqueID>  (44) 
42

>  <SMILES>  (44) 
Cc1[nH+]cncc1[C@H]1C[C@@H]1C(=O)[N-]Cc1cc(Cl)cc(C(=O)N2Cc3ccccc3CC2CO)c1

>  <Energy>  (44) 
340.6884317084385

>  <Genealogy>  (44) 
Cc1[nH+]cncc1C1CC1C(=O)[N-]Cc1cc(Cl)cc(C(=O)N2Cc3ccccc3CC2CO)c1 (protonated)
Cc1[nH+]cncc1[C@H]1C[C@@H]1C(=O)[N-]Cc1cc(Cl)cc(C(=O)N2Cc3ccccc3CC2CO)c1 (chirality)
Cc1[nH+]cncc1[C@H]1C[C@@H]1C(=O)[N-]Cc1cc(Cl)cc(C(=O)N2Cc3ccccc3CC2CO)c1 (3D coordinates assigned)
Cc1[nH+]cncc1[C@H]1C[C@@H]1C(=O)[N-]Cc1cc(Cl)cc(C(=O)N2Cc3ccccc3CC2CO)c1 (nonaromatic ring conformer: 340.6884317084385 kcal/mol)

>  <smiles>  (44) 
Cc1ncncc1C1CC1C(=O)NCc1cc(Cl)cc(C(=O)N2Cc3ccccc3CC2CO)c1

>  <score_type>  (44) 
oracle

>  <origin>  (44) 
adg

>  <m_score__min__energy>  (44) 
-11.24

>  <m_primary>  (44) 
energy

$$$$
44:0
     RDKit          3D

 42 44  0  0  0  0  0  0  0  0999 V2000
   55.1490   26.6870   45.9970 N   0  0  0  0  0  0  0  0  0  0  0  0
   55.5080   25.3070   46.0280 C   0  0  0  0  0  0  0  0  0  0  0  0
   54.6180   24.4240   45.8970 O   0  0  0  0  0  0  0  0  0  0  0  0
   56.9400   24.9080   46.1870 C   0  0  0  0  0  0  0  0  0  0  0  0
   57.9810   25.7370   44.9380 S   0  0  0  0  0  0  0  0  0  0  0  0
   58.2900   27.1850   45.9430 C   0  0  0  0  0  0  0  0  0  0  0  0
   57.8190   28.3960   45.5510 N   0  0  0  0  0  0  0  0  0  0  0  0
   58.0210   29.5070   46.3030 C   0  0  0  0  0  0  0  0  0  0  0  0
   57.5220   30.7340   45.8440 O   0  0  0  0  0  0  0  0  0  0  0  0
   57.4320   31.1200   44.4980 C   0  0  0  0  0  0  0  0  0  0  0  0
   56.7130   30.3670   43.5530 C   0  0  0  0  0  0  0  0  0  0  0  0
   56.6570   30.7790   42.2170 C   0  0  0  0  0  0  0  0  0  0  0  0
   57.3320   31.9380   41.8110 C   0  0  0  0  0  0  0  0  0  0  0  0
   57.2840   32.3590   40.4840 O   0  0  0  0  0  0  0  0  0  0  0  0
   58.0650   32.6780   42.7450 C   0  0  0  0  0  0  0  0  0  0  0  0
   58.1200   32.2670   44.0800 C   0  0  0  0  0  0  0  0  0  0  0  0
   58.7580   29.4070   47.4930 C   0  0  0  0  0  0  0  0  0  0  0  0
   59.2360   28.1490   47.8930 C   0  0  0  0  0  0  0  0  0  0  0  0
   59.9850   27.9800   49.1170 N   0  0  0  0  0  0  0  0  0  0  0  0
   60.2660   29.1230   49.9970 C   0  0  0  0  0  0  0  0  0  0  0  0
   60.4620   28.6490   51.4390 C   0  0  0  0  0  0  0  0  0  0  0  0
   61.4070   27.5990   51.5010 O   0  0  0  0  0  0  0  0  0  0  0  0
   60.8960   26.4640   50.8300 C   0  0  0  0  0  0  0  0  0  0  0  0
   60.7450   26.7410   49.3320 C   0  0  0  0  0  0  0  0  0  0  0  0
   58.9900   27.0700   47.1010 N   0  0  0  0  0  0  0  0  0  0  0  0
   55.8820   27.4310   45.9880 H   0  0  0  0  0  0  0  0  0  0  0  0
   57.2851   25.1929   47.1918 H   0  0  0  0  0  0  0  0  0  0  0  0
   57.0219   23.8196   46.0506 H   0  0  0  0  0  0  0  0  0  0  0  0
   56.1922   29.4499   43.8654 H   0  0  0  0  0  0  0  0  0  0  0  0
   56.0826   30.1926   41.4847 H   0  0  0  0  0  0  0  0  0  0  0  0
   56.6030   31.9840   39.8340 H   0  0  0  0  0  0  0  0  0  0  0  0
   58.5995   33.5857   42.4280 H   0  0  0  0  0  0  0  0  0  0  0  0
   58.7070   32.8476   44.8069 H   0  0  0  0  0  0  0  0  0  0  0  0
   58.9581   30.3003   48.1029 H   0  0  0  0  0  0  0  0  0  0  0  0
   61.1807   29.6286   49.6539 H   0  0  0  0  0  0  0  0  0  0  0  0
   59.4146   29.8186   49.9621 H   0  0  0  0  0  0  0  0  0  0  0  0
   60.8191   29.4914   52.0496 H   0  0  0  0  0  0  0  0  0  0  0  0
   59.4993   28.2784   51.8210 H   0  0  0  0  0  0  0  0  0  0  0  0
   61.5861   25.6194   50.9729 H   0  0  0  0  0  0  0  0  0  0  0  0
   59.9063   26.2241   51.2460 H   0  0  0  0  0  0  0  0  0  0  0  0
   61.7424   26.8438   48.8796 H   0  0  0  0  0  0  0  0  0  0  0  0
   60.2045   25.9040   48.8659 H   0  0  0  0  0  0  0  0  0  0  0  0
  1  2  1  0
  2  3  2  0
  2  4  1  0
  4  5  1  0
  5  6  1  0
  6  7  2  0
  7  8  1  0
  8  9  1  0
  9 10  1  0
 10 11  2  0
 11 12  1  0
 12 13  2  0
 13 14  1  0
 13 15  1  0
 15 16  2  0
  8 17  2  0
 17 18  1  0
 18 19  1  0
 19 20  1  0
 20 21  1  0
 21 22  1  0
 22 23  1  0
 23 24  1  0
 18 25  2  0
 25  6  1  0
 16 10  1  0
 24 19  1  0
  1 26  1  0
  4 27  1  0
  4 28  1  0
 11 29  1  0
 12 30  1  0
 14 31  1  0
 15 32  1  0
 16 33  1  0
 17 34  1  0
 20 35  1  0
 20 36  1  0
 21 37  1  0
 21 38  1  0
 23 39  1  0
 23 40  1  0
 24 41  1  0
 24 42  1  0
M  CHG  1   1  -1
M  END
>  <UniqueID>  (45) 
43

>  <SMILES>  (45) 
[NH-]C(=O)CSc1nc(Oc2ccc(O)cc2)cc(N2CCOCC2)n1

>  <Energy>  (45) 
48.20726461520461

>  <Genealogy>  (45) 
[NH-]C(=O)CSc1nc(Oc2ccc(O)cc2)cc(N2CCOCC2)n1 (protonated)
[NH-]C(=O)CSc1nc(Oc2ccc(O)cc2)cc(N2CCOCC2)n1 (3D coordinates assigned)
[NH-]C(=O)CSc1nc(Oc2ccc(O)cc2)cc(N2CCOCC2)n1 (nonaromatic ring conformer: 48.20726461520461 kcal/mol)

>  <smiles>  (45) 
NC(=O)CSc1nc(Oc2ccc(O)cc2)cc(N2CCOCC2)n1

>  <score_type>  (45) 
oracle

>  <origin>  (45) 
adg

>  <m_score__min__energy>  (45) 
-10.17

>  <m_primary>  (45) 
energy

$$$$
45:0
     RDKit          3D

 49 50  0  0  1  0  0  0  0  0999 V2000
   61.0470   32.3430   47.0720 C   0  0  0  0  0  0  0  0  0  0  0  0
   60.1750   31.5840   47.9790 C   0  0  0  0  0  0  0  0  0  0  0  0
   59.5330   32.3390   48.9750 C   0  0  0  0  0  0  0  0  0  0  0  0
   58.7290   31.7590   49.9270 C   0  0  0  0  0  0  0  0  0  0  0  0
   58.5710   30.3940   49.8730 C   0  0  0  0  0  0  0  0  0  0  0  0
   59.1970   29.6600   48.9030 C   0  0  0  0  0  0  0  0  0  0  0  0
   60.0200   30.2310   47.9210 C   0  0  0  0  0  0  0  0  0  0  0  0
   60.5630   29.3050   46.9260 C   0  0  0  0  0  0  0  0  0  0  0  0
   59.8560   28.0810   46.7040 N   0  0  0  0  0  0  0  0  0  0  0  0
   60.1290   26.7920   47.1200 C   0  0  0  0  0  0  0  0  0  0  0  0
   61.0930   26.4150   47.8080 O   0  0  0  0  0  0  0  0  0  0  0  0
   59.1700   25.6950   46.7080 C   0  0  0  0  0  0  0  0  0  0  0  0
   57.8220   25.9450   47.3260 C   0  0  0  0  0  0  0  0  0  0  0  0
   56.8920   26.4480   46.3080 C   0  0  0  0  0  0  0  0  0  0  0  0
   55.6370   26.3630   46.3690 O   0  0  0  0  0  0  0  0  0  0  0  0
   57.4000   27.0990   45.1210 N   0  0  0  0  0  0  0  0  0  0  0  0
   57.1860   28.3260   44.8900 C   0  0  0  0  0  0  0  0  0  0  0  0
   56.0670   29.0770   44.9500 N   0  0  0  0  0  0  0  0  0  0  0  0
   56.2240   30.3130   44.6390 N   0  0  0  0  0  0  0  0  0  0  0  0
   57.1660   30.9260   44.3090 C   0  0  0  0  0  0  0  0  0  0  0  0
   57.6670   32.2660   43.9020 C   0  0  0  0  0  0  0  0  0  0  0  0
   57.4840   33.3030   44.9660 C   0  0  0  0  0  0  0  0  0  0  0  0
   57.4660   32.7080   46.3560 C   0  0  0  0  0  0  0  0  0  0  0  0
   58.6580   34.2540   44.8900 C   0  0  0  0  0  0  0  0  0  0  0  0
   58.4660   29.5240   44.3570 S   0  0  0  0  0  0  0  0  0  0  0  0
   61.7475   32.9527   47.6616 H   0  0  0  0  0  0  0  0  0  0  0  0
   61.6128   31.6448   46.4377 H   0  0  0  0  0  0  0  0  0  0  0  0
   60.4335   32.9997   46.4377 H   0  0  0  0  0  0  0  0  0  0  0  0
   59.6785   33.4292   48.9934 H   0  0  0  0  0  0  0  0  0  0  0  0
   58.2320   32.3624   50.7009 H   0  0  0  0  0  0  0  0  0  0  0  0
   57.9363   29.8883   50.6156 H   0  0  0  0  0  0  0  0  0  0  0  0
   59.0479   28.5702   48.8926 H   0  0  0  0  0  0  0  0  0  0  0  0
   60.6034   29.8403   45.9659 H   0  0  0  0  0  0  0  0  0  0  0  0
   61.5360   28.9950   47.3350 H   0  0  0  0  0  0  0  0  0  0  0  0
   58.9590   28.1960   46.1080 H   0  0  0  0  0  0  0  0  0  0  0  0
   59.0742   25.6850   45.6122 H   0  0  0  0  0  0  0  0  0  0  0  0
   59.5556   24.7242   47.0528 H   0  0  0  0  0  0  0  0  0  0  0  0
   57.4322   25.0050   47.7437 H   0  0  0  0  0  0  0  0  0  0  0  0
   57.9232   26.6933   48.1259 H   0  0  0  0  0  0  0  0  0  0  0  0
   55.1470   28.6200   45.2410 H   0  0  0  0  0  0  0  0  0  0  0  0
   58.7395   32.1848   43.6715 H   0  0  0  0  0  0  0  0  0  0  0  0
   57.0835   32.5849   43.0257 H   0  0  0  0  0  0  0  0  0  0  0  0
   56.5186   33.8013   44.7937 H   0  0  0  0  0  0  0  0  0  0  0  0
   57.4905   33.5166   47.1013 H   0  0  0  0  0  0  0  0  0  0  0  0
   56.5495   32.1144   46.4889 H   0  0  0  0  0  0  0  0  0  0  0  0
   58.3450   32.0601   46.4889 H   0  0  0  0  0  0  0  0  0  0  0  0
   58.9830   34.5173   45.9074 H   0  0  0  0  0  0  0  0  0  0  0  0
   59.4876   33.7702   44.3537 H   0  0  0  0  0  0  0  0  0  0  0  0
   58.3570   35.1660   44.3537 H   0  0  0  0  0  0  0  0  0  0  0  0
  1  2  1  0
  2  3  2  0
  3  4  1  0
  4  5  2  0
  5  6  1  0
  6  7  2  0
  7  8  1  0
  8  9  1  0
  9 10  1  0
 10 11  2  0
 10 12  1  0
 12 13  1  0
 13 14  1  0
 14 15  2  0
 14 16  1  0
 16 17  2  0
 17 18  1  0
 18 19  1  0
 19 20  2  0
 20 21  1  0
 21 22  1  0
 22 23  1  0
 22 24  1  0
 20 25  1  0
  7  2  1  0
 25 17  1  0
  1 26  1  0
  1 27  1  0
  1 28  1  0
  3 29  1  0
  4 30  1  0
  5 31  1  0
  6 32  1  0
  8 33  1  0
  8 34  1  0
  9 35  1  0
 12 36  1  0
 12 37  1  0
 13 38  1  0
 13 39  1  0
 18 40  1  0
 21 41  1  0
 21 42  1  0
 22 43  1  0
 23 44  1  0
 23 45  1  0
 23 46  1  0
 24 47  1  0
 24 48  1  0
 24 49  1  0
M  END
>  <smiles>  (46) 
Cc1ccccc1CNC(=O)CCC(=O)N=c1[nH]nc(CC(C)C)s1

>  <score_type>  (46) 
oracle

>  <origin>  (46) 
adg

>  <m_score__min__energy>  (46) 
-8.5399999999999991

>  <m_primary>  (46) 
energy

$$$$
46:0
     RDKit          3D

 59 62  0  0  0  0  0  0  0  0999 V2000
   55.5280   26.4540   46.0390 O   0  0  0  0  0  0  0  0  0  0  0  0
   56.7810   26.5550   45.9840 C   0  0  0  0  0  0  0  0  0  0  0  0
   57.4090   27.1700   44.7610 C   0  0  0  0  0  0  0  0  0  0  0  0
   57.6960   28.5950   44.9900 N   0  0  0  0  0  0  0  0  0  0  0  0
   58.9290   28.9660   45.4470 C   0  0  0  0  0  0  0  0  0  0  0  0
   59.2200   30.3090   45.6730 C   0  0  0  0  0  0  0  0  0  0  0  0
   58.2730   31.2660   45.4460 N   0  0  0  0  0  0  0  0  0  0  0  0
   58.6040   32.6510   45.6770 C   0  0  0  0  0  0  0  0  0  0  0  0
   58.9700   33.4860   44.6050 C   0  0  0  0  0  0  0  0  0  0  0  0
   59.2940   34.8260   44.8340 C   0  0  0  0  0  0  0  0  0  0  0  0
   59.2620   35.3450   46.1310 C   0  0  0  0  0  0  0  0  0  0  0  0
   58.9080   34.5220   47.2030 C   0  0  0  0  0  0  0  0  0  0  0  0
   58.5830   33.1790   46.9800 C   0  0  0  0  0  0  0  0  0  0  0  0
   57.0230   30.9000   45.0150 C   0  0  0  0  0  0  0  0  0  0  0  0
   56.1220   31.7670   44.8390 O   0  0  0  0  0  0  0  0  0  0  0  0
   56.7320   29.5470   44.7820 C   0  0  0  0  0  0  0  0  0  0  0  0
   55.5780   29.2150   44.3880 O   0  0  0  0  0  0  0  0  0  0  0  0
   57.5520   26.1260   47.1100 N   0  0  0  0  0  0  0  0  0  0  0  0
   59.0010   25.9660   47.1150 C   0  0  0  0  0  0  0  0  0  0  0  0
   59.6010   26.9440   48.0700 C   0  0  0  0  0  0  0  0  0  0  0  0
   60.7230   26.7000   48.5900 O   0  0  0  0  0  0  0  0  0  0  0  0
   58.8540   28.1070   48.4470 N   0  0  0  0  0  0  0  0  0  0  0  0
   59.3870   29.3800   48.8350 C   0  0  0  0  0  0  0  0  0  0  0  0
   60.7260   29.7330   48.5920 C   0  0  0  0  0  0  0  0  0  0  0  0
   61.1990   30.9930   48.9660 C   0  0  0  0  0  0  0  0  0  0  0  0
   60.3460   31.9160   49.5830 C   0  0  0  0  0  0  0  0  0  0  0  0
   60.9270   33.5160   50.0350 S   0  0  0  0  0  0  0  0  0  0  0  0
   59.7800   34.4840   49.9980 O   0  0  0  0  0  0  0  0  0  0  0  0
   61.4820   33.4780   51.4320 O   0  0  0  0  0  0  0  0  0  0  0  0
   62.1550   34.0250   48.9050 N   0  0  0  0  0  0  0  0  0  0  0  0
   61.8190   33.6060   47.5460 C   0  0  0  0  0  0  0  0  0  0  0  0
   63.1350   33.4820   46.8030 C   0  0  0  0  0  0  0  0  0  0  0  0
   64.1600   33.1690   47.8770 C   0  0  0  0  0  0  0  0  0  0  0  0
   63.4510   33.4140   49.2080 C   0  0  0  0  0  0  0  0  0  0  0  0
   59.0060   31.5770   49.8000 C   0  0  0  0  0  0  0  0  0  0  0  0
   58.5300   30.3190   49.4220 C   0  0  0  0  0  0  0  0  0  0  0  0
   58.3477   26.6439   44.5327 H   0  0  0  0  0  0  0  0  0  0  0  0
   56.7085   27.0793   43.9177 H   0  0  0  0  0  0  0  0  0  0  0  0
   59.6954   28.2003   45.6373 H   0  0  0  0  0  0  0  0  0  0  0  0
   60.2168   30.6000   46.0359 H   0  0  0  0  0  0  0  0  0  0  0  0
   59.0012   33.0822   43.5823 H   0  0  0  0  0  0  0  0  0  0  0  0
   59.5750   35.4741   43.9908 H   0  0  0  0  0  0  0  0  0  0  0  0
   59.5153   36.4007   46.3078 H   0  0  0  0  0  0  0  0  0  0  0  0
   58.8847   34.9302   48.2242 H   0  0  0  0  0  0  0  0  0  0  0  0
   58.3099   32.5337   47.8279 H   0  0  0  0  0  0  0  0  0  0  0  0
   59.2568   24.9428   47.4274 H   0  0  0  0  0  0  0  0  0  0  0  0
   59.3957   26.1475   46.1044 H   0  0  0  0  0  0  0  0  0  0  0  0
   61.4030   29.0150   48.1060 H   0  0  0  0  0  0  0  0  0  0  0  0
   62.2483   31.2618   48.7745 H   0  0  0  0  0  0  0  0  0  0  0  0
   61.2984   32.6371   47.5636 H   0  0  0  0  0  0  0  0  0  0  0  0
   61.1500   34.3299   47.0576 H   0  0  0  0  0  0  0  0  0  0  0  0
   63.0874   32.6684   46.0642 H   0  0  0  0  0  0  0  0  0  0  0  0
   63.3844   34.3970   46.2458 H   0  0  0  0  0  0  0  0  0  0  0  0
   64.4855   32.1209   47.8029 H   0  0  0  0  0  0  0  0  0  0  0  0
   65.0595   33.7939   47.7747 H   0  0  0  0  0  0  0  0  0  0  0  0
   63.3034   32.4609   49.7369 H   0  0  0  0  0  0  0  0  0  0  0  0
   64.0508   34.0727   49.8533 H   0  0  0  0  0  0  0  0  0  0  0  0
   58.3256   32.3027   50.2694 H   0  0  0  0  0  0  0  0  0  0  0  0
   57.4728   30.0640   49.5870 H   0  0  0  0  0  0  0  0  0  0  0  0
  1  2  2  0
  2  3  1  0
  3  4  1  0
  4  5  1  0
  5  6  2  0
  6  7  1  0
  7  8  1  0
  8  9  2  0
  9 10  1  0
 10 11  2  0
 11 12  1  0
 12 13  2  0
  7 14  1  0
 14 15  2  0
 14 16  1  0
 16 17  2  0
  2 18  1  0
 18 19  1  0
 19 20  1  0
 20 21  2  0
 20 22  1  0
 22 23  1  0
 23 24  2  0
 24 25  1  0
 25 26  2  0
 26 27  1  0
 27 28  2  0
 27 29  2  0
 27 30  1  0
 30 31  1  0
 31 32  1  0
 32 33  1  0
 33 34  1  0
 26 35  1  0
 35 36  2  0
 16  4  1  0
 36 23  1  0
 13  8  1  0
 34 30  1  0
  3 37  1  0
  3 38  1  0
  5 39  1  0
  6 40  1  0
  9 41  1  0
 10 42  1  0
 11 43  1  0
 12 44  1  0
 13 45  1  0
 19 46  1  0
 19 47  1  0
 24 48  1  0
 25 49  1  0
 31 50  1  0
 31 51  1  0
 32 52  1  0
 32 53  1  0
 33 54  1  0
 33 55  1  0
 34 56  1  0
 34 57  1  0
 35 58  1  0
 36 59  1  0
M  CHG  2  18  -1  22  -1
M  END
>  <UniqueID>  (47) 
44

>  <SMILES>  (47) 
O=C(Cn1ccn(-c2ccccc2)c(=O)c1=O)[N-]CC(=O)[N-]c1ccc(S(=O)(=O)N2CCCC2)cc1

>  <Energy>  (47) 
74.92161621228217

>  <Genealogy>  (47) 
O=C(Cn1ccn(-c2ccccc2)c(=O)c1=O)[N-]CC(=O)[N-]c1ccc(S(=O)(=O)N2CCCC2)cc1 (protonated)
O=C(Cn1ccn(-c2ccccc2)c(=O)c1=O)[N-]CC(=O)[N-]c1ccc(S(=O)(=O)N2CCCC2)cc1 (3D coordinates assigned)
O=C(Cn1ccn(-c2ccccc2)c(=O)c1=O)[N-]CC(=O)[N-]c1ccc(S(=O)(=O)N2CCCC2)cc1 (nonaromatic ring conformer: 74.92161621228217 kcal/mol)

>  <smiles>  (47) 
O=C(Cn1ccn(-c2ccccc2)c(=O)c1=O)NCC(=O)Nc1ccc(S(=O)(=O)N2CCCC2)cc1

>  <score_type>  (47) 
oracle

>  <origin>  (47) 
adg

>  <m_score__min__energy>  (47) 
-11.93

>  <m_primary>  (47) 
energy

$$$$
47:0
     RDKit          3D

 60 63  0  0  0  0  0  0  0  0999 V2000
   55.1520   26.6980   46.0030 N   0  0  0  0  0  0  0  0  0  0  0  0
   55.8360   25.1090   45.9260 S   0  0  0  0  0  0  0  0  0  0  0  0
   55.2380   24.3740   44.7590 O   0  0  0  0  0  0  0  0  0  0  0  0
   55.5020   24.3700   47.1920 O   0  0  0  0  0  0  0  0  0  0  0  0
   57.6250   25.1780   45.7210 C   0  0  0  0  0  0  0  0  0  0  0  0
   58.3020   25.9240   46.8910 C   0  0  0  0  0  0  0  0  0  0  0  0
   58.0370   27.4370   46.8440 C   0  0  0  0  0  0  0  0  0  0  0  0
   58.0800   27.9550   45.4660 N   0  0  0  0  0  0  0  0  0  0  0  0
   57.4660   29.2210   45.1370 C   0  0  0  0  0  0  0  0  0  0  0  0
   58.0510   30.4390   45.5230 C   0  0  0  0  0  0  0  0  0  0  0  0
   57.4130   31.6430   45.1810 C   0  0  0  0  0  0  0  0  0  0  0  0
   57.9710   32.9240   45.5460 N   0  0  0  0  0  0  0  0  0  0  0  0
   57.6810   33.5400   46.8510 C   0  0  0  0  0  0  0  0  0  0  0  0
   58.9430   34.1310   47.5120 C   0  0  0  0  0  0  0  0  0  0  0  0
   60.0410   34.5730   46.5130 C   0  0  0  0  0  0  0  0  0  0  0  0
   61.1430   33.5460   46.4090 C   0  0  0  0  0  0  0  0  0  0  0  0
   62.3210   33.9160   46.1510 O   0  0  0  0  0  0  0  0  0  0  0  0
   60.8470   32.1560   46.5660 N   0  0  0  0  0  0  0  0  0  0  0  0
   61.3930   31.3300   47.6310 C   0  0  0  0  0  0  0  0  0  0  0  0
   62.2080   32.1910   48.5530 C   0  0  0  0  0  0  0  0  0  0  0  0
   61.5860   32.9730   49.5410 C   0  0  0  0  0  0  0  0  0  0  0  0
   62.3540   33.7890   50.3790 C   0  0  0  0  0  0  0  0  0  0  0  0
   63.7430   33.8420   50.2270 C   0  0  0  0  0  0  0  0  0  0  0  0
   64.3670   33.0730   49.2400 C   0  0  0  0  0  0  0  0  0  0  0  0
   63.6040   32.2500   48.4070 C   0  0  0  0  0  0  0  0  0  0  0  0
   59.4470   34.8910   45.1320 C   0  0  0  0  0  0  0  0  0  0  0  0
   58.7370   33.6690   44.5320 C   0  0  0  0  0  0  0  0  0  0  0  0
   56.2300   31.5940   44.5120 N   0  0  0  0  0  0  0  0  0  0  0  0
   55.6690   30.4130   44.1520 C   0  0  0  0  0  0  0  0  0  0  0  0
   56.2870   29.2450   44.4600 N   0  0  0  0  0  0  0  0  0  0  0  0
   58.7030   27.1320   44.4210 C   0  0  0  0  0  0  0  0  0  0  0  0
   58.0150   25.7620   44.3360 C   0  0  0  0  0  0  0  0  0  0  0  0
   55.5640   27.2520   45.2200 H   0  0  0  0  0  0  0  0  0  0  0  0
   58.0059   24.1464   45.7466 H   0  0  0  0  0  0  0  0  0  0  0  0
   57.9118   25.5251   47.8389 H   0  0  0  0  0  0  0  0  0  0  0  0
   59.3878   25.7681   46.8085 H   0  0  0  0  0  0  0  0  0  0  0  0
   57.0428   27.6382   47.2696 H   0  0  0  0  0  0  0  0  0  0  0  0
   58.8237   27.9411   47.4245 H   0  0  0  0  0  0  0  0  0  0  0  0
   58.9962   30.4496   46.0856 H   0  0  0  0  0  0  0  0  0  0  0  0
   56.9467   34.3462   46.7064 H   0  0  0  0  0  0  0  0  0  0  0  0
   57.2896   32.7548   47.5145 H   0  0  0  0  0  0  0  0  0  0  0  0
   58.6427   35.0084   48.1036 H   0  0  0  0  0  0  0  0  0  0  0  0
   59.3807   33.3297   48.1254 H   0  0  0  0  0  0  0  0  0  0  0  0
   60.4870   35.4983   46.9065 H   0  0  0  0  0  0  0  0  0  0  0  0
   60.5708   30.8636   48.1935 H   0  0  0  0  0  0  0  0  0  0  0  0
   62.0295   30.5432   47.2000 H   0  0  0  0  0  0  0  0  0  0  0  0
   60.4924   32.9436   49.6560 H   0  0  0  0  0  0  0  0  0  0  0  0
   61.8640   34.3901   51.1591 H   0  0  0  0  0  0  0  0  0  0  0  0
   64.3443   34.4882   50.8834 H   0  0  0  0  0  0  0  0  0  0  0  0
   65.4595   33.1158   49.1190 H   0  0  0  0  0  0  0  0  0  0  0  0
   64.0992   31.6453   47.6330 H   0  0  0  0  0  0  0  0  0  0  0  0
   58.7216   35.7115   45.2349 H   0  0  0  0  0  0  0  0  0  0  0  0
   60.2689   35.1782   44.4597 H   0  0  0  0  0  0  0  0  0  0  0  0
   58.0477   34.0094   43.7452 H   0  0  0  0  0  0  0  0  0  0  0  0
   59.5051   32.9959   44.1235 H   0  0  0  0  0  0  0  0  0  0  0  0
   54.7120   30.4019   43.6098 H   0  0  0  0  0  0  0  0  0  0  0  0
   58.6098   27.6449   43.4524 H   0  0  0  0  0  0  0  0  0  0  0  0
   59.7641   26.9831   44.6699 H   0  0  0  0  0  0  0  0  0  0  0  0
   57.1012   25.8681   43.7330 H   0  0  0  0  0  0  0  0  0  0  0  0
   58.7355   25.0656   43.8823 H   0  0  0  0  0  0  0  0  0  0  0  0
  1  2  1  0
  2  3  2  0
  2  4  2  0
  2  5  1  0
  5  6  1  0
  6  7  1  0
  7  8  1  0
  8  9  1  0
  9 10  2  0
 10 11  1  0
 11 12  1  0
 12 13  1  0
 13 14  1  0
 14 15  1  0
 15 16  1  0
 16 17  2  0
 16 18  1  0
 18 19  1  0
 19 20  1  0
 20 21  2  0
 21 22  1  0
 22 23  2  0
 23 24  1  0
 24 25  2  0
 15 26  1  0
 26 27  1  0
 11 28  2  0
 28 29  1  0
 29 30  2  0
  8 31  1  0
 31 32  1  0
 32  5  1  0
 30  9  1  0
 27 12  1  0
 25 20  1  0
  1 33  1  0
  5 34  1  0
  6 35  1  0
  6 36  1  0
  7 37  1  0
  7 38  1  0
 10 39  1  0
 13 40  1  0
 13 41  1  0
 14 42  1  0
 14 43  1  0
 15 44  1  0
 19 45  1  0
 19 46  1  0
 21 47  1  0
 22 48  1  0
 23 49  1  0
 24 50  1  0
 25 51  1  0
 26 52  1  0
 26 53  1  0
 27 54  1  0
 27 55  1  0
 29 56  1  0
 31 57  1  0
 31 58  1  0
 32 59  1  0
 32 60  1  0
M  CHG  2   1  -1  18  -1
M  END
>  <UniqueID>  (48) 
45

>  <SMILES>  (48) 
[NH-]S(=O)(=O)C1CCN(c2cc(N3CCC(C(=O)[N-]Cc4ccccc4)CC3)ncn2)CC1

>  <Energy>  (48) 
63.31781054343437

>  <Genealogy>  (48) 
[NH-]S(=O)(=O)C1CCN(c2cc(N3CCC(C(=O)[N-]Cc4ccccc4)CC3)ncn2)CC1 (protonated)
[NH-]S(=O)(=O)C1CCN(c2cc(N3CCC(C(=O)[N-]Cc4ccccc4)CC3)ncn2)CC1 (3D coordinates assigned)
[NH-]S(=O)(=O)C1CCN(c2cc(N3CCC(C(=O)[N-]Cc4ccccc4)CC3)ncn2)CC1 (nonaromatic ring conformer: 63.31781054343437 kcal/mol)

>  <smiles>  (48) 
NS(=O)(=O)C1CCN(c2cc(N3CCC(C(=O)NCc4ccccc4)CC3)ncn2)CC1

>  <score_type>  (48) 
oracle

>  <origin>  (48) 
adg

>  <m_score__min__energy>  (48) 
-13.91

>  <m_primary>  (48) 
energy

$$$$
48:0
     RDKit          3D

 43 45  0  0  0  0  0  0  0  0999 V2000
   55.5110   29.0040   44.7570 O   0  0  0  0  0  0  0  0  0  0  0  0
   56.6040   29.4510   45.1940 C   0  0  0  0  0  0  0  0  0  0  0  0
   56.8400   30.8640   45.1590 N   0  0  0  0  0  0  0  0  0  0  0  0
   57.4720   31.5600   44.0420 C   0  0  0  0  0  0  0  0  0  0  0  0
   57.4270   33.0670   44.2760 C   0  0  0  0  0  0  0  0  0  0  0  0
   58.2900   33.4370   45.4530 C   0  0  0  0  0  0  0  0  0  0  0  0
   59.4450   34.2130   45.2670 C   0  0  0  0  0  0  0  0  0  0  0  0
   60.2220   34.5930   46.3660 C   0  0  0  0  0  0  0  0  0  0  0  0
   59.8460   34.2100   47.6560 C   0  0  0  0  0  0  0  0  0  0  0  0
   60.6000   34.5820   48.7200 F   0  0  0  0  0  0  0  0  0  0  0  0
   58.6880   33.4500   47.8490 C   0  0  0  0  0  0  0  0  0  0  0  0
   57.9090   33.0700   46.7530 C   0  0  0  0  0  0  0  0  0  0  0  0
   57.6200   28.5080   45.6980 C   0  0  0  0  0  0  0  0  0  0  0  0
   57.2510   27.1990   46.0440 C   0  0  0  0  0  0  0  0  0  0  0  0
   58.1890   26.3150   46.5980 C   0  0  0  0  0  0  0  0  0  0  0  0
   57.7530   24.9480   47.0520 C   0  0  0  0  0  0  0  0  0  0  0  0
   57.2250   24.1540   45.8810 C   0  0  0  0  0  0  0  0  0  0  0  0
   58.0710   23.2880   45.1740 C   0  0  0  0  0  0  0  0  0  0  0  0
   57.6030   22.5980   44.1000 N   0  0  0  0  0  0  0  0  0  0  0  0
   56.3140   22.7410   43.6890 C   0  0  0  0  0  0  0  0  0  0  0  0
   55.8920   22.0920   42.6950 O   0  0  0  0  0  0  0  0  0  0  0  0
   55.4800   23.5850   44.3470 N   0  0  0  0  0  0  0  0  0  0  0  0
   55.9040   24.2970   45.4230 C   0  0  0  0  0  0  0  0  0  0  0  0
   55.1050   25.0830   45.9980 O   0  0  0  0  0  0  0  0  0  0  0  0
   59.5140   26.7410   46.7760 C   0  0  0  0  0  0  0  0  0  0  0  0
   59.8980   28.0290   46.3890 C   0  0  0  0  0  0  0  0  0  0  0  0
   58.9570   28.9120   45.8490 C   0  0  0  0  0  0  0  0  0  0  0  0
   59.3410   30.1690   45.5150 F   0  0  0  0  0  0  0  0  0  0  0  0
   58.5195   31.2355   43.9559 H   0  0  0  0  0  0  0  0  0  0  0  0
   56.9311   31.3215   43.1143 H   0  0  0  0  0  0  0  0  0  0  0  0
   57.7954   33.5851   43.3783 H   0  0  0  0  0  0  0  0  0  0  0  0
   56.3893   33.3669   44.4838 H   0  0  0  0  0  0  0  0  0  0  0  0
   59.7398   34.5231   44.2536 H   0  0  0  0  0  0  0  0  0  0  0  0
   61.1306   35.1943   46.2146 H   0  0  0  0  0  0  0  0  0  0  0  0
   58.3901   33.1510   48.8648 H   0  0  0  0  0  0  0  0  0  0  0  0
   56.9934   32.4808   46.9097 H   0  0  0  0  0  0  0  0  0  0  0  0
   56.2166   26.8629   45.8793 H   0  0  0  0  0  0  0  0  0  0  0  0
   58.6120   24.4199   47.4915 H   0  0  0  0  0  0  0  0  0  0  0  0
   56.9553   25.0560   47.8017 H   0  0  0  0  0  0  0  0  0  0  0  0
   59.1177   23.1663   45.4895 H   0  0  0  0  0  0  0  0  0  0  0  0
   58.2470   21.9510   43.5900 H   0  0  0  0  0  0  0  0  0  0  0  0
   60.2535   26.0594   47.2216 H   0  0  0  0  0  0  0  0  0  0  0  0
   60.9436   28.3487   46.5097 H   0  0  0  0  0  0  0  0  0  0  0  0
  1  2  2  0
  2  3  1  0
  3  4  1  0
  4  5  1  0
  5  6  1  0
  6  7  2  0
  7  8  1  0
  8  9  2  0
  9 10  1  0
  9 11  1  0
 11 12  2  0
  2 13  1  0
 13 14  2  0
 14 15  1  0
 15 16  1  0
 16 17  1  0
 17 18  2  0
 18 19  1  0
 19 20  1  0
 20 21  2  0
 20 22  1  0
 22 23  1  0
 23 24  2  0
 15 25  2  0
 25 26  1  0
 26 27  2  0
 27 28  1  0
 12  6  1  0
 27 13  1  0
 23 17  1  0
  4 29  1  0
  4 30  1  0
  5 31  1  0
  5 32  1  0
  7 33  1  0
  8 34  1  0
 11 35  1  0
 12 36  1  0
 14 37  1  0
 16 38  1  0
 16 39  1  0
 18 40  1  0
 19 41  1  0
 25 42  1  0
 26 43  1  0
M  CHG  2   3  -1  22  -1
M  END
>  <UniqueID>  (49) 
46

>  <SMILES>  (49) 
O=C([N-]CCc1ccc(F)cc1)c1cc(Cc2c[nH]c(=O)[n-]c2=O)ccc1F

>  <Energy>  (49) 
44.41913373895689

>  <Genealogy>  (49) 
O=C([N-]CCc1ccc(F)cc1)c1cc(Cc2c[nH]c(=O)[n-]c2=O)ccc1F (protonated)
O=C([N-]CCc1ccc(F)cc1)c1cc(Cc2c[nH]c(=O)[n-]c2=O)ccc1F (3D coordinates assigned)
O=C([N-]CCc1ccc(F)cc1)c1cc(Cc2c[nH]c(=O)[n-]c2=O)ccc1F (optimized conformer: 44.41913373895689 kcal/mol)

>  <smiles>  (49) 
O=C(NCCc1ccc(F)cc1)c1cc(Cc2c[nH]c(=O)[nH]c2=O)ccc1F

>  <score_type>  (49) 
oracle

>  <origin>  (49) 
adg

>  <m_score__min__energy>  (49) 
-12.65

>  <m_primary>  (49) 
energy

$$$$
49:0
     RDKit          3D

 42 44  0  0  0  0  0  0  0  0999 V2000
   57.8730   26.5900   42.7260 C   0  0  0  0  0  0  0  0  0  0  0  0
   57.8390   27.5800   43.8480 C   0  0  0  0  0  0  0  0  0  0  0  0
   57.9010   28.9120   43.6710 N   0  0  0  0  0  0  0  0  0  0  0  0
   57.8350   29.4750   44.8940 C   0  0  0  0  0  0  0  0  0  0  0  0
   57.8560   30.9310   45.1220 C   0  0  0  0  0  0  0  0  0  0  0  0
   57.6780   31.8770   44.1110 C   0  0  0  0  0  0  0  0  0  0  0  0
   57.7550   33.4060   44.8090 S   0  0  0  0  0  0  0  0  0  0  0  0
   58.0220   32.8010   46.3510 C   0  0  0  0  0  0  0  0  0  0  0  0
   58.1480   33.5560   47.4020 N   0  0  0  0  0  0  0  0  0  0  0  0
   59.2810   34.3550   47.7830 C   0  0  0  0  0  0  0  0  0  0  0  0
   59.5970   35.3330   47.0550 O   0  0  0  0  0  0  0  0  0  0  0  0
   60.1270   34.0580   48.9880 C   0  0  0  0  0  0  0  0  0  0  0  0
   61.4840   34.5500   48.7640 N   0  0  0  0  0  0  0  0  0  0  0  0
   62.3650   33.4170   47.7840 S   0  0  0  0  0  0  0  0  0  0  0  0
   62.3580   33.8840   46.3560 O   0  0  0  0  0  0  0  0  0  0  0  0
   63.7880   33.3260   48.2600 O   0  0  0  0  0  0  0  0  0  0  0  0
   61.6080   31.8380   47.8740 C   0  0  0  0  0  0  0  0  0  0  0  0
   61.1300   31.1000   46.8020 C   0  0  0  0  0  0  0  0  0  0  0  0
   60.6000   29.8630   47.1850 C   0  0  0  0  0  0  0  0  0  0  0  0
   60.6620   29.6300   48.5540 C   0  0  0  0  0  0  0  0  0  0  0  0
   61.3800   30.9620   49.2890 S   0  0  0  0  0  0  0  0  0  0  0  0
   58.0430   31.4510   46.3650 N   0  0  0  0  0  0  0  0  0  0  0  0
   57.7340   28.4940   45.8680 C   0  0  0  0  0  0  0  0  0  0  0  0
   57.7470   27.2850   45.1980 C   0  0  0  0  0  0  0  0  0  0  0  0
   57.5960   25.9330   45.8270 C   0  0  0  0  0  0  0  0  0  0  0  0
   56.2040   25.7550   46.3380 C   0  0  0  0  0  0  0  0  0  0  0  0
   55.1940   26.7050   46.0060 N   0  0  0  0  0  0  0  0  0  0  0  0
   55.9270   24.7840   47.0940 O   0  0  0  0  0  0  0  0  0  0  0  0
   57.9080   25.5705   43.1375 H   0  0  0  0  0  0  0  0  0  0  0  0
   56.9704   26.7051   42.1079 H   0  0  0  0  0  0  0  0  0  0  0  0
   58.7656   26.7668   42.1079 H   0  0  0  0  0  0  0  0  0  0  0  0
   57.9860   29.4130   42.7600 H   0  0  0  0  0  0  0  0  0  0  0  0
   57.5158   31.6607   43.0447 H   0  0  0  0  0  0  0  0  0  0  0  0
   59.6972   34.5563   49.8695 H   0  0  0  0  0  0  0  0  0  0  0  0
   60.1545   32.9715   49.1577 H   0  0  0  0  0  0  0  0  0  0  0  0
   61.1639   31.4502   45.7598 H   0  0  0  0  0  0  0  0  0  0  0  0
   60.1745   29.1430   46.4704 H   0  0  0  0  0  0  0  0  0  0  0  0
   60.3024   28.7273   49.0695 H   0  0  0  0  0  0  0  0  0  0  0  0
   57.6587   28.6467   46.9547 H   0  0  0  0  0  0  0  0  0  0  0  0
   57.8098   25.1573   45.0770 H   0  0  0  0  0  0  0  0  0  0  0  0
   58.3008   25.8471   46.6672 H   0  0  0  0  0  0  0  0  0  0  0  0
   54.5540   27.0860   46.7380 H   0  0  0  0  0  0  0  0  0  0  0  0
  1  2  1  0
  2  3  1  0
  3  4  1  0
  4  5  1  0
  5  6  2  0
  6  7  1  0
  7  8  1  0
  8  9  2  3
  9 10  1  0
 10 11  2  0
 10 12  1  0
 12 13  1  0
 13 14  1  0
 14 15  2  0
 14 16  2  0
 14 17  1  0
 17 18  2  0
 18 19  1  0
 19 20  2  0
 20 21  1  0
  8 22  1  0
  4 23  2  0
 23 24  1  0
 24 25  1  0
 25 26  1  0
 26 27  1  0
 26 28  2  0
 24  2  2  0
 22  5  1  0
 21 17  1  0
  1 29  1  0
  1 30  1  0
  1 31  1  0
  3 32  1  0
  6 33  1  0
 12 34  1  0
 12 35  1  0
 18 36  1  0
 19 37  1  0
 20 38  1  0
 23 39  1  0
 25 40  1  0
 25 41  1  0
 27 42  1  0
M  CHG  3  13  -1  22  -1  27  -1
M  END
>  <UniqueID>  (50) 
47

>  <SMILES>  (50) 
Cc1[nH]c(-c2csc(=NC(=O)C[N-]S(=O)(=O)c3cccs3)[n-]2)cc1CC([NH-])=O

>  <Energy>  (50) 
120.56052625737058

>  <Genealogy>  (50) 
Cc1[nH]c(-c2csc(=NC(=O)C[N-]S(=O)(=O)c3cccs3)[n-]2)cc1CC([NH-])=O (protonated)
Cc1[nH]c(-c2csc(=NC(=O)C[N-]S(=O)(=O)c3cccs3)[n-]2)cc1CC([NH-])=O (3D coordinates assigned)
Cc1[nH]c(-c2csc(=NC(=O)C[N-]S(=O)(=O)c3cccs3)[n-]2)cc1CC([NH-])=O (optimized conformer: 120.56052625737058 kcal/mol)

>  <smiles>  (50) 
Cc1[nH]c(-c2csc(=NC(=O)CNS(=O)(=O)c3cccs3)[nH]2)cc1CC(N)=O

>  <score_type>  (50) 
oracle

>  <origin>  (50) 
adg

>  <m_score__min__energy>  (50) 
-14.279999999999999

>  <m_primary>  (50) 
energy

$$$$
50:0
     RDKit          3D

 35 37  0  0  0  0  0  0  0  0999 V2000
   55.5200   28.9380   45.2260 N   0  0  0  0  0  0  0  0  0  0  0  0
   56.6310   29.9470   44.3710 S   0  0  0  0  0  0  0  0  0  0  0  0
   56.2260   31.3850   44.5320 O   0  0  0  0  0  0  0  0  0  0  0  0
   56.6040   29.6000   42.9090 O   0  0  0  0  0  0  0  0  0  0  0  0
   58.2540   29.7060   45.0090 C   0  0  0  0  0  0  0  0  0  0  0  0
   59.1150   28.7710   44.4190 C   0  0  0  0  0  0  0  0  0  0  0  0
   60.4070   28.5930   44.9200 C   0  0  0  0  0  0  0  0  0  0  0  0
   60.8460   29.3470   46.0110 C   0  0  0  0  0  0  0  0  0  0  0  0
   59.9910   30.2830   46.6150 C   0  0  0  0  0  0  0  0  0  0  0  0
   60.4490   31.0910   47.7710 C   0  0  0  0  0  0  0  0  0  0  0  0
   61.2330   30.4980   48.7180 N   0  0  0  0  0  0  0  0  0  0  0  0
   61.6430   31.1770   49.8210 C   0  0  0  0  0  0  0  0  0  0  0  0
   62.3560   30.6060   50.6870 O   0  0  0  0  0  0  0  0  0  0  0  0
   61.2840   32.4720   49.9950 N   0  0  0  0  0  0  0  0  0  0  0  0
   60.5200   33.1210   49.0820 C   0  0  0  0  0  0  0  0  0  0  0  0
   60.2300   34.3320   49.2720 O   0  0  0  0  0  0  0  0  0  0  0  0
   60.0780   32.4480   47.9280 C   0  0  0  0  0  0  0  0  0  0  0  0
   59.2950   33.1710   46.8940 C   0  0  0  0  0  0  0  0  0  0  0  0
   59.9480   33.8170   45.8300 C   0  0  0  0  0  0  0  0  0  0  0  0
   59.2080   34.4840   44.8490 C   0  0  0  0  0  0  0  0  0  0  0  0
   57.8130   34.5160   44.9260 C   0  0  0  0  0  0  0  0  0  0  0  0
   57.1560   33.8820   45.9840 C   0  0  0  0  0  0  0  0  0  0  0  0
   57.8920   33.2130   46.9670 C   0  0  0  0  0  0  0  0  0  0  0  0
   58.6990   30.4670   46.0990 C   0  0  0  0  0  0  0  0  0  0  0  0
   54.5690   29.3490   45.0920 H   0  0  0  0  0  0  0  0  0  0  0  0
   58.7729   28.1759   43.5595 H   0  0  0  0  0  0  0  0  0  0  0  0
   61.0798   27.8577   44.4545 H   0  0  0  0  0  0  0  0  0  0  0  0
   61.8659   29.2069   46.3986 H   0  0  0  0  0  0  0  0  0  0  0  0
   61.5080   29.4950   48.6110 H   0  0  0  0  0  0  0  0  0  0  0  0
   61.0461   33.7977   45.7689 H   0  0  0  0  0  0  0  0  0  0  0  0
   59.7241   34.9839   44.0161 H   0  0  0  0  0  0  0  0  0  0  0  0
   57.2317   35.0405   44.1533 H   0  0  0  0  0  0  0  0  0  0  0  0
   56.0580   33.9093   46.0437 H   0  0  0  0  0  0  0  0  0  0  0  0
   57.3713   32.7181   47.8000 H   0  0  0  0  0  0  0  0  0  0  0  0
   58.0308   31.2136   46.5530 H   0  0  0  0  0  0  0  0  0  0  0  0
  1  2  1  0
  2  3  2  0
  2  4  2  0
  2  5  1  0
  5  6  2  0
  6  7  1  0
  7  8  2  0
  8  9  1  0
  9 10  1  0
 10 11  1  0
 11 12  1  0
 12 13  2  0
 12 14  1  0
 14 15  1  0
 15 16  2  0
 15 17  1  0
 17 18  1  0
 18 19  2  0
 19 20  1  0
 20 21  2  0
 21 22  1  0
 22 23  2  0
  9 24  2  0
 24  5  1  0
 17 10  2  0
 23 18  1  0
  1 25  1  0
  6 26  1  0
  7 27  1  0
  8 28  1  0
 11 29  1  0
 19 30  1  0
 20 31  1  0
 21 32  1  0
 22 33  1  0
 23 34  1  0
 24 35  1  0
M  CHG  2   1  -1  14  -1
M  END
>  <UniqueID>  (51) 
48

>  <SMILES>  (51) 
[NH-]S(=O)(=O)c1cccc(-c2[nH]c(=O)[n-]c(=O)c2-c2ccccc2)c1

>  <Energy>  (51) 
51.99069968898787

>  <Genealogy>  (51) 
[NH-]S(=O)(=O)c1cccc(-c2[nH]c(=O)[n-]c(=O)c2-c2ccccc2)c1 (protonated)
[NH-]S(=O)(=O)c1cccc(-c2[nH]c(=O)[n-]c(=O)c2-c2ccccc2)c1 (3D coordinates assigned)
[NH-]S(=O)(=O)c1cccc(-c2[nH]c(=O)[n-]c(=O)c2-c2ccccc2)c1 (optimized conformer: 51.99069968898787 kcal/mol)

>  <smiles>  (51) 
NS(=O)(=O)c1cccc(-c2[nH]c(=O)[nH]c(=O)c2-c2ccccc2)c1

>  <score_type>  (51) 
oracle

>  <origin>  (51) 
adg

>  <m_score__min__energy>  (51) 
-12.1

>  <m_primary>  (51) 
energy

$$$$
51:0
     RDKit          3D

 50 53  0  0  0  0  0  0  0  0999 V2000
   59.6890   28.3000   45.6070 O   0  0  0  0  0  0  0  0  0  0  0  0
   58.5080   28.4860   46.0000 C   0  0  0  0  0  0  0  0  0  0  0  0
   58.0730   29.8270   46.2600 N   0  0  0  0  0  0  0  0  0  0  0  0
   58.0970   30.9240   45.3320 C   0  0  0  0  0  0  0  0  0  0  0  0
   57.8500   30.7190   43.9630 C   0  0  0  0  0  0  0  0  0  0  0  0
   57.8340   31.7990   43.0760 C   0  0  0  0  0  0  0  0  0  0  0  0
   58.0500   33.0930   43.5480 C   0  0  0  0  0  0  0  0  0  0  0  0
   58.2760   33.3140   44.9090 C   0  0  0  0  0  0  0  0  0  0  0  0
   58.2890   32.2370   45.8100 C   0  0  0  0  0  0  0  0  0  0  0  0
   58.5450   32.4930   47.2440 C   0  0  0  0  0  0  0  0  0  0  0  0
   57.8680   33.3810   47.8310 O   0  0  0  0  0  0  0  0  0  0  0  0
   59.5650   31.7690   47.9650 N   0  0  0  0  0  0  0  0  0  0  0  0
   59.6010   31.7780   49.4320 C   0  0  0  0  0  0  0  0  0  0  0  0
   60.9150   32.4100   49.9240 C   0  0  0  0  0  0  0  0  0  0  0  0
   62.1020   32.0390   49.1010 N   0  0  0  0  0  0  0  0  0  0  0  0
   62.8610   33.1440   48.4510 C   0  0  0  0  0  0  0  0  0  0  0  0
   61.9800   34.1540   47.7180 C   0  0  0  0  0  0  0  0  0  0  0  0
   62.7000   33.8260   46.4130 C   0  0  0  0  0  0  0  0  0  0  0  0
   63.5730   32.8070   47.1370 C   0  0  0  0  0  0  0  0  0  0  0  0
   61.8750   30.8990   48.1880 C   0  0  0  0  0  0  0  0  0  0  0  0
   60.6930   31.1600   47.2450 C   0  0  0  0  0  0  0  0  0  0  0  0
   57.5940   27.3240   46.1320 C   0  0  0  0  0  0  0  0  0  0  0  0
   56.2390   27.4160   45.7670 C   0  0  0  0  0  0  0  0  0  0  0  0
   55.7220   28.5970   45.2400 O   0  0  0  0  0  0  0  0  0  0  0  0
   55.4240   26.3370   45.9080 N   0  0  0  0  0  0  0  0  0  0  0  0
   55.8960   25.1580   46.3860 C   0  0  0  0  0  0  0  0  0  0  0  0
   55.1210   24.1750   46.5090 O   0  0  0  0  0  0  0  0  0  0  0  0
   57.2030   25.0380   46.7280 N   0  0  0  0  0  0  0  0  0  0  0  0
   58.0600   26.0840   46.6100 C   0  0  0  0  0  0  0  0  0  0  0  0
   59.2640   25.9350   46.9490 O   0  0  0  0  0  0  0  0  0  0  0  0
   57.6680   29.7012   43.5874 H   0  0  0  0  0  0  0  0  0  0  0  0
   57.6509   31.6280   42.0049 H   0  0  0  0  0  0  0  0  0  0  0  0
   58.0425   33.9413   42.8478 H   0  0  0  0  0  0  0  0  0  0  0  0
   58.4446   34.3370   45.2766 H   0  0  0  0  0  0  0  0  0  0  0  0
   58.7508   32.3625   49.8134 H   0  0  0  0  0  0  0  0  0  0  0  0
   59.5386   30.7434   49.8004 H   0  0  0  0  0  0  0  0  0  0  0  0
   60.8044   33.5042   49.9010 H   0  0  0  0  0  0  0  0  0  0  0  0
   61.0954   32.0285   50.9398 H   0  0  0  0  0  0  0  0  0  0  0  0
   63.4632   33.4352   49.3243 H   0  0  0  0  0  0  0  0  0  0  0  0
   60.9096   33.9004   47.7174 H   0  0  0  0  0  0  0  0  0  0  0  0
   61.9091   35.1934   48.0710 H   0  0  0  0  0  0  0  0  0  0  0  0
   62.0496   33.3894   45.6407 H   0  0  0  0  0  0  0  0  0  0  0  0
   63.1630   34.6287   45.8203 H   0  0  0  0  0  0  0  0  0  0  0  0
   63.4288   31.7700   46.7997 H   0  0  0  0  0  0  0  0  0  0  0  0
   64.6695   32.8581   47.0655 H   0  0  0  0  0  0  0  0  0  0  0  0
   62.7821   30.7360   47.5874 H   0  0  0  0  0  0  0  0  0  0  0  0
   61.6425   30.0117   48.7952 H   0  0  0  0  0  0  0  0  0  0  0  0
   61.0166   31.8401   46.4433 H   0  0  0  0  0  0  0  0  0  0  0  0
   60.3615   30.1983   46.8263 H   0  0  0  0  0  0  0  0  0  0  0  0
   56.0610   29.4990   45.5520 H   0  0  0  0  0  0  0  0  0  0  0  0
  1  2  2  0
  2  3  1  0
  3  4  1  0
  4  5  2  0
  5  6  1  0
  6  7  2  0
  7  8  1  0
  8  9  2  0
  9 10  1  0
 10 11  2  0
 10 12  1  0
 12 13  1  0
 13 14  1  0
 14 15  1  0
 15 16  1  0
 16 17  1  0
 17 18  1  0
 18 19  1  0
 15 20  1  0
 20 21  1  0
  2 22  1  0
 22 23  2  0
 23 24  1  0
 23 25  1  0
 25 26  1  0
 26 27  2  0
 26 28  1  0
 28 29  1  0
 29 30  2  0
  9  4  1  0
 21 12  1  0
 29 22  1  0
 19 16  1  0
  5 31  1  0
  6 32  1  0
  7 33  1  0
  8 34  1  0
 13 35  1  0
 13 36  1  0
 14 37  1  0
 14 38  1  0
 16 39  1  0
 17 40  1  0
 17 41  1  0
 18 42  1  0
 18 43  1  0
 19 44  1  0
 19 45  1  0
 20 46  1  0
 20 47  1  0
 21 48  1  0
 21 49  1  0
 24 50  1  0
M  CHG  3   3  -1  25  -1  28  -1
M  END
>  <UniqueID>  (52) 
49

>  <SMILES>  (52) 
O=C([N-]c1ccccc1C(=O)N1CCN(C2CCC2)CC1)c1c(O)[n-]c(=O)[n-]c1=O

>  <Energy>  (52) 
142.01385496811636

>  <Genealogy>  (52) 
O=C([N-]c1ccccc1C(=O)N1CCN(C2CCC2)CC1)c1c(O)[n-]c(=O)[n-]c1=O (protonated)
O=C([N-]c1ccccc1C(=O)N1CCN(C2CCC2)CC1)c1c(O)[n-]c(=O)[n-]c1=O (3D coordinates assigned)
O=C([N-]c1ccccc1C(=O)N1CCN(C2CCC2)CC1)c1c(O)[n-]c(=O)[n-]c1=O (nonaromatic ring conformer: 142.01385496811636 kcal/mol)

>  <smiles>  (52) 
O=C(Nc1ccccc1C(=O)N1CCN(C2CCC2)CC1)c1c(O)[nH]c(=O)[nH]c1=O

>  <score_type>  (52) 
oracle

>  <origin>  (52) 
adg

>  <m_score__min__energy>  (52) 
-14.880000000000001

>  <m_primary>  (52) 
energy

$$$$
52:0
     RDKit          3D

 53 56  0  0  0  0  0  0  0  0999 V2000
   53.6920   30.2600   55.6450 C   0  0  0  0  0  0  0  0  0  0  0  0
   54.3240   30.2550   54.4600 C   0  0  0  0  0  0  0  0  0  0  0  0
   53.7450   30.5080   53.2120 C   0  0  0  0  0  0  0  0  0  0  0  0
   52.4510   30.7730   52.9500 C   0  0  0  0  0  0  0  0  0  0  0  0
   51.9240   31.0550   51.6020 C   0  0  0  0  0  0  0  0  0  0  0  0
   52.0920   30.2260   50.5580 N   0  0  0  0  0  0  0  0  0  0  0  0
   51.3900   30.8200   49.5680 C   0  0  0  0  0  0  0  0  0  0  0  0
   51.3180   30.3420   48.4050 O   0  0  0  0  0  0  0  0  0  0  0  0
   50.7660   31.9630   49.9220 N   0  0  0  0  0  0  0  0  0  0  0  0
   51.1030   32.0930   51.2160 C   0  0  0  0  0  0  0  0  0  0  0  0
   50.6320   33.1120   52.0330 O   0  0  0  0  0  0  0  0  0  0  0  0
   54.7610   30.3700   52.2760 C   0  0  0  0  0  0  0  0  0  0  0  0
   55.9030   30.0460   52.9800 C   0  0  0  0  0  0  0  0  0  0  0  0
   57.2040   29.7530   52.3390 C   0  0  0  0  0  0  0  0  0  0  0  0
   57.9800   28.9530   52.9290 O   0  0  0  0  0  0  0  0  0  0  0  0
   57.6530   30.4050   51.1190 N   0  0  0  0  0  0  0  0  0  0  0  0
   57.5170   31.8860   51.2380 C   0  0  0  0  0  0  0  0  0  0  0  0
   58.6510   32.6850   50.5660 C   0  0  0  0  0  0  0  0  0  0  0  0
   59.0880   32.0270   49.3360 N   0  0  0  0  0  0  0  0  0  0  0  0
   59.5370   32.8190   48.2280 C   0  0  0  0  0  0  0  0  0  0  0  0
   58.5900   33.3880   47.3620 C   0  0  0  0  0  0  0  0  0  0  0  0
   59.0030   34.1840   46.2930 C   0  0  0  0  0  0  0  0  0  0  0  0
   60.3630   34.4180   46.0780 C   0  0  0  0  0  0  0  0  0  0  0  0
   61.3150   33.8520   46.9300 C   0  0  0  0  0  0  0  0  0  0  0  0
   60.9140   33.0350   48.0000 C   0  0  0  0  0  0  0  0  0  0  0  0
   61.9580   32.4520   48.9140 C   0  0  0  0  0  0  0  0  0  0  0  0
   59.3680   30.5880   49.3390 C   0  0  0  0  0  0  0  0  0  0  0  0
   59.0050   29.9690   50.6940 C   0  0  0  0  0  0  0  0  0  0  0  0
   55.6460   29.9930   54.3080 N   0  0  0  0  0  0  0  0  0  0  0  0
   56.6060   29.6820   55.3720 C   0  0  0  0  0  0  0  0  0  0  0  0
   54.2514   30.0457   56.5676 H   0  0  0  0  0  0  0  0  0  0  0  0
   52.6150   30.4784   55.6930 H   0  0  0  0  0  0  0  0  0  0  0  0
   51.7441   30.7795   53.7928 H   0  0  0  0  0  0  0  0  0  0  0  0
   54.6730   30.4945   51.1866 H   0  0  0  0  0  0  0  0  0  0  0  0
   56.9940   30.0850   50.3690 H   0  0  0  0  0  0  0  0  0  0  0  0
   56.5650   32.1826   50.7735 H   0  0  0  0  0  0  0  0  0  0  0  0
   57.5612   32.1203   52.3118 H   0  0  0  0  0  0  0  0  0  0  0  0
   58.2877   33.6951   50.3257 H   0  0  0  0  0  0  0  0  0  0  0  0
   59.5032   32.7408   51.2593 H   0  0  0  0  0  0  0  0  0  0  0  0
   57.5178   33.2056   47.5268 H   0  0  0  0  0  0  0  0  0  0  0  0
   58.2561   34.6280   45.6184 H   0  0  0  0  0  0  0  0  0  0  0  0
   60.6853   35.0489   45.2365 H   0  0  0  0  0  0  0  0  0  0  0  0
   62.3844   34.0473   46.7619 H   0  0  0  0  0  0  0  0  0  0  0  0
   61.6625   32.6170   49.9606 H   0  0  0  0  0  0  0  0  0  0  0  0
   62.0494   31.3723   48.7247 H   0  0  0  0  0  0  0  0  0  0  0  0
   62.9252   32.9406   48.7247 H   0  0  0  0  0  0  0  0  0  0  0  0
   58.7749   30.1029   48.5497 H   0  0  0  0  0  0  0  0  0  0  0  0
   60.4421   30.4359   49.1566 H   0  0  0  0  0  0  0  0  0  0  0  0
   59.0210   28.8726   50.6070 H   0  0  0  0  0  0  0  0  0  0  0  0
   59.7378   30.3007   51.4443 H   0  0  0  0  0  0  0  0  0  0  0  0
   56.1302   29.8361   56.3517 H   0  0  0  0  0  0  0  0  0  0  0  0
   56.9272   28.6339   55.2812 H   0  0  0  0  0  0  0  0  0  0  0  0
   57.4808   30.3427   55.2812 H   0  0  0  0  0  0  0  0  0  0  0  0
  1  2  2  0
  2  3  1  0
  3  4  2  3
  4  5  1  0
  5  6  1  0
  6  7  1  0
  7  8  2  0
  7  9  1  0
  9 10  1  0
 10 11  1  0
  3 12  1  0
 12 13  2  0
 13 14  1  0
 14 15  2  0
 14 16  1  0
 16 17  1  0
 17 18  1  0
 18 19  1  0
 19 20  1  0
 20 21  2  0
 21 22  1  0
 22 23  2  0
 23 24  1  0
 24 25  2  0
 25 26  1  0
 19 27  1  0
 27 28  1  0
 13 29  1  0
 29 30  1  0
 29  2  1  0
 10  5  2  0
 28 16  1  0
 25 20  1  0
  1 31  1  0
  1 32  1  0
  4 33  1  0
 12 34  1  0
 16 35  1  0
 17 36  1  0
 17 37  1  0
 18 38  1  0
 18 39  1  0
 21 40  1  0
 22 41  1  0
 23 42  1  0
 24 43  1  0
 26 44  1  0
 26 45  1  0
 26 46  1  0
 27 47  1  0
 27 48  1  0
 28 49  1  0
 28 50  1  0
 30 51  1  0
 30 52  1  0
 30 53  1  0
M  CHG  4   6  -1   9  -1  11  -1  16   1
M  END
>  <UniqueID>  (53) 
50

>  <SMILES>  (53) 
C=c1c(=Cc2[n-]c(=O)[n-]c2[O-])cc(C(=O)[NH+]2CCN(c3ccccc3C)CC2)n1C

>  <Energy>  (53) 
144.08182695204613

>  <Genealogy>  (53) 
C=c1c(=Cc2[n-]c(=O)[n-]c2[O-])cc(C(=O)[NH+]2CCN(c3ccccc3C)CC2)n1C (protonated)
C=c1c(=Cc2[n-]c(=O)[n-]c2[O-])cc(C(=O)[NH+]2CCN(c3ccccc3C)CC2)n1C (3D coordinates assigned)
C=c1c(=Cc2[n-]c(=O)[n-]c2[O-])cc(C(=O)[NH+]2CCN(c3ccccc3C)CC2)n1C (nonaromatic ring conformer: 144.08182695204613 kcal/mol)

>  <smiles>  (53) 
C=c1c(=Cc2[nH]c(=O)[nH]c2O)cc(C(=O)N2CCN(c3ccccc3C)CC2)n1C

>  <score_type>  (53) 
oracle

>  <origin>  (53) 
adg

>  <m_score__min__energy>  (53) 
-17

>  <m_primary>  (53) 
energy

$$$$
53:0
     RDKit          3D

 49 51  0  0  0  0  0  0  0  0999 V2000
   54.7106   27.6522   54.3282 H   0  0  0  0  0  0  0  0  0  0  0  0
   54.0590   28.3290   53.7560 C   0  0  0  0  0  0  0  0  0  0  0  0
   52.9741   28.1506   53.7231 H   0  0  0  0  0  0  0  0  0  0  0  0
   54.5870   29.3710   53.0990 C   0  0  0  0  0  0  0  0  0  0  0  0
   53.8970   30.3220   52.3280 C   0  0  0  0  0  0  0  0  0  0  0  0
   52.5790   30.5470   52.1640 C   0  0  0  0  0  0  0  0  0  0  0  0
   51.9366   30.4287   53.0491 H   0  0  0  0  0  0  0  0  0  0  0  0
   51.9220   30.9370   50.9060 C   0  0  0  0  0  0  0  0  0  0  0  0
   51.7980   30.1400   49.8290 N   0  0  0  0  0  0  0  0  0  0  0  0
   51.0130   30.8600   48.9980 C   0  0  0  0  0  0  0  0  0  0  0  0
   50.6770   30.4500   47.8570 O   0  0  0  0  0  0  0  0  0  0  0  0
   50.6070   32.0500   49.4920 N   0  0  0  0  0  0  0  0  0  0  0  0
   51.1800   32.0750   50.7060 C   0  0  0  0  0  0  0  0  0  0  0  0
   51.0220   33.1130   51.6150 O   0  0  0  0  0  0  0  0  0  0  0  0
   54.8650   31.1030   51.7220 C   0  0  0  0  0  0  0  0  0  0  0  0
   54.6920   31.9212   51.0074 H   0  0  0  0  0  0  0  0  0  0  0  0
   56.0880   30.6620   52.1830 C   0  0  0  0  0  0  0  0  0  0  0  0
   57.4070   31.2910   51.8070 C   0  0  0  0  0  0  0  0  0  0  0  0
   58.2225   30.6935   52.2404 H   0  0  0  0  0  0  0  0  0  0  0  0
   57.4734   31.3144   50.7093 H   0  0  0  0  0  0  0  0  0  0  0  0
   57.5200   32.7330   52.3220 C   0  0  0  0  0  0  0  0  0  0  0  0
   56.6892   33.3224   51.9067 H   0  0  0  0  0  0  0  0  0  0  0  0
   57.4818   32.7003   53.4208 H   0  0  0  0  0  0  0  0  0  0  0  0
   58.8370   33.3930   51.9220 C   0  0  0  0  0  0  0  0  0  0  0  0
   59.3963   33.6733   52.8268 H   0  0  0  0  0  0  0  0  0  0  0  0
   59.4343   32.6877   51.3255 H   0  0  0  0  0  0  0  0  0  0  0  0
   58.6295   34.2936   51.3255 H   0  0  0  0  0  0  0  0  0  0  0  0
   55.9230   29.6050   53.0130 N   0  0  0  0  0  0  0  0  0  0  0  0
   56.9880   28.8290   53.5980 C   0  0  0  0  0  0  0  0  0  0  0  0
   57.2320   27.6810   53.1360 O   0  0  0  0  0  0  0  0  0  0  0  0
   57.6720   29.3010   54.7870 N   0  0  0  0  0  0  0  0  0  0  0  0
   57.5080   28.6000   55.5480 H   0  0  0  0  0  0  0  0  0  0  0  0
   57.1110   30.5980   55.2530 C   0  0  0  0  0  0  0  0  0  0  0  0
   56.7820   31.1799   54.3794 H   0  0  0  0  0  0  0  0  0  0  0  0
   56.2650   30.3876   55.9238 H   0  0  0  0  0  0  0  0  0  0  0  0
   58.1520   31.4120   56.0310 C   0  0  0  0  0  0  0  0  0  0  0  0
   57.6813   32.3331   56.4053 H   0  0  0  0  0  0  0  0  0  0  0  0
   58.5212   30.7994   56.8667 H   0  0  0  0  0  0  0  0  0  0  0  0
   59.3010   31.7720   55.1680 N   0  0  0  0  0  0  0  0  0  0  0  0
   60.4740   32.1050   55.9890 C   0  0  0  0  0  0  0  0  0  0  0  0
   60.2094   32.0299   57.0540 H   0  0  0  0  0  0  0  0  0  0  0  0
   61.2905   31.4032   55.7637 H   0  0  0  0  0  0  0  0  0  0  0  0
   60.7999   33.1312   55.7637 H   0  0  0  0  0  0  0  0  0  0  0  0
   59.6260   30.7420   54.1480 C   0  0  0  0  0  0  0  0  0  0  0  0
   59.1448   31.0201   53.1987 H   0  0  0  0  0  0  0  0  0  0  0  0
   60.7206   30.7021   54.0472 H   0  0  0  0  0  0  0  0  0  0  0  0
   59.1400   29.3410   54.5570 C   0  0  0  0  0  0  0  0  0  0  0  0
   59.3926   28.6306   53.7561 H   0  0  0  0  0  0  0  0  0  0  0  0
   59.6372   29.0733   55.5010 H   0  0  0  0  0  0  0  0  0  0  0  0
  1  2  1  0
  2  3  1  0
  2  4  2  0
  4  5  1  0
  5  6  2  0
  6  7  1  0
  6  8  1  0
  8  9  1  0
  9 10  1  0
 10 11  2  0
 10 12  1  0
 12 13  1  0
 13 14  1  0
  5 15  1  0
 15 16  1  0
 15 17  2  0
 17 18  1  0
 18 19  1  0
 18 20  1  0
 18 21  1  0
 21 22  1  0
 21 23  1  0
 21 24  1  0
 24 25  1  0
 24 26  1  0
 24 27  1  0
 17 28  1  0
 28 29  1  0
 29 30  2  0
 29 31  1  0
 31 32  1  0
 31 33  1  0
 33 34  1  0
 33 35  1  0
 33 36  1  0
 36 37  1  0
 36 38  1  0
 36 39  1  0
 39 40  1  0
 40 41  1  0
 40 42  1  0
 40 43  1  0
 39 44  1  0
 44 45  1  0
 44 46  1  0
 44 47  1  0
 47 48  1  0
 47 49  1  0
 28  4  1  0
 47 31  1  0
 13  8  2  0
M  CHG  4   9  -1  12  -1  14  -1  31   1
M  END
>  <UniqueID>  (54) 
51

>  <SMILES>  (54) 
C=c1/c(=C\c2[n-]c(=O)[n-]c2[O-])cc(CCC)n1C(=O)[NH+]1CCN(C)CC1

>  <Energy>  (54) 
134.11403516916334

>  <Genealogy>  (54) 
C=c1c(=Cc2[n-]c(=O)[n-]c2[O-])cc(CCC)n1C(=O)[NH+]1CCN(C)CC1 (protonated)
C=c1/c(=C\c2[n-]c(=O)[n-]c2[O-])cc(CCC)n1C(=O)[NH+]1CCN(C)CC1 (cis-trans isomerization)
C=c1/c(=C\c2[n-]c(=O)[n-]c2[O-])cc(CCC)n1C(=O)[NH+]1CCN(C)CC1 (3D coordinates assigned)
C=c1/c(=C\c2[n-]c(=O)[n-]c2[O-])cc(CCC)n1C(=O)[NH+]1CCN(C)CC1 (nonaromatic ring conformer: 134.11403516916334 kcal/mol)

>  <smiles>  (54) 
C=c1c(=Cc2[nH]c(=O)[nH]c2O)cc(CCC)n1C(=O)N1CCN(C)CC1

>  <score_type>  (54) 
oracle

>  <origin>  (54) 
adg

>  <m_score__min__energy>  (54) 
-14.52

>  <m_primary>  (54) 
energy

$$$$
54:0
     RDKit          3D

 44 46  0  0  0  0  0  0  0  0999 V2000
   56.2840   25.9990   44.2930 H   0  0  0  0  0  0  0  0  0  0  0  0
   56.4850   26.0430   45.2820 O   0  0  0  0  0  0  0  0  0  0  0  0
   57.5020   26.8320   45.8250 C   0  0  0  0  0  0  0  0  0  0  0  0
   57.9040   26.5730   47.1400 C   0  0  0  0  0  0  0  0  0  0  0  0
   57.4305   25.7554   47.7033 H   0  0  0  0  0  0  0  0  0  0  0  0
   58.9000   27.3420   47.7440 C   0  0  0  0  0  0  0  0  0  0  0  0
   59.2187   27.1164   48.7724 H   0  0  0  0  0  0  0  0  0  0  0  0
   59.4950   28.4000   47.0450 C   0  0  0  0  0  0  0  0  0  0  0  0
   60.5700   29.2040   47.6570 C   0  0  0  0  0  0  0  0  0  0  0  0
   61.2609   28.6935   48.3440 H   0  0  0  0  0  0  0  0  0  0  0  0
   60.7660   30.5140   47.4360 C   0  0  0  0  0  0  0  0  0  0  0  0
   62.2700   31.2470   47.5330 S   0  0  0  0  0  0  0  0  0  0  0  0
   61.7030   32.7730   47.1090 C   0  0  0  0  0  0  0  0  0  0  0  0
   62.5250   33.8160   46.9540 C   0  0  0  0  0  0  0  0  0  0  0  0
   62.1189   34.7998   46.6761 H   0  0  0  0  0  0  0  0  0  0  0  0
   63.6074   33.6903   47.1043 H   0  0  0  0  0  0  0  0  0  0  0  0
   60.3480   32.7650   46.9050 N   0  0  0  0  0  0  0  0  0  0  0  0
   59.5510   33.9500   46.4880 C   0  0  1  0  0  0  0  0  0  0  0  0
   59.9441   34.7981   47.0678 H   0  0  0  0  0  0  0  0  0  0  0  0
   59.7290   34.2290   44.9780 C   0  0  0  0  0  0  0  0  0  0  0  0
   59.7611   35.3157   44.8106 H   0  0  0  0  0  0  0  0  0  0  0  0
   60.6676   33.7684   44.6362 H   0  0  0  0  0  0  0  0  0  0  0  0
   58.5660   33.6320   44.1910 C   0  0  0  0  0  0  0  0  0  0  0  0
   58.3527   34.2397   43.2993 H   0  0  0  0  0  0  0  0  0  0  0  0
   58.7907   32.6146   43.8383 H   0  0  0  0  0  0  0  0  0  0  0  0
   57.1910   33.6540   45.2960 S   0  0  0  0  0  0  0  0  0  0  0  0
   56.4050   32.3740   45.2350 O   0  0  0  0  0  0  0  0  0  0  0  0
   56.3000   34.8340   45.0310 O   0  0  0  0  0  0  0  0  0  0  0  0
   58.0490   33.8320   46.8330 C   0  0  0  0  0  0  0  0  0  0  0  0
   57.7073   34.7374   47.3560 H   0  0  0  0  0  0  0  0  0  0  0  0
   57.8598   32.9742   47.4951 H   0  0  0  0  0  0  0  0  0  0  0  0
   59.8420   31.4930   47.0420 C   0  0  0  0  0  0  0  0  0  0  0  0
   58.6420   31.2170   46.7830 O   0  0  0  0  0  0  0  0  0  0  0  0
   59.1240   28.6440   45.7170 C   0  0  0  0  0  0  0  0  0  0  0  0
   59.6184   29.4496   45.1544 H   0  0  0  0  0  0  0  0  0  0  0  0
   58.1270   27.8720   45.0930 C   0  0  0  0  0  0  0  0  0  0  0  0
   57.7290   28.1990   43.6730 C   0  0  0  0  0  0  0  0  0  0  0  0
   57.0502   27.4177   43.3006 H   0  0  0  0  0  0  0  0  0  0  0  0
   58.6383   28.2453   43.0557 H   0  0  0  0  0  0  0  0  0  0  0  0
   57.0330   29.5300   43.6020 C   0  0  0  0  0  0  0  0  0  0  0  0
   57.5424   30.3765   43.1183 H   0  0  0  0  0  0  0  0  0  0  0  0
   55.8110   29.7100   44.1120 C   0  0  0  0  0  0  0  0  0  0  0  0
   55.3268   30.6954   44.0451 H   0  0  0  0  0  0  0  0  0  0  0  0
   55.2893   28.8727   44.5987 H   0  0  0  0  0  0  0  0  0  0  0  0
  1  2  1  0
  2  3  1  0
  3  4  2  0
  4  5  1  0
  4  6  1  0
  6  7  1  0
  6  8  2  0
  8  9  1  0
  9 10  1  0
  9 11  2  0
 11 12  1  0
 12 13  1  0
 13 14  2  0
 14 15  1  0
 14 16  1  0
 13 17  1  0
 17 18  1  0
 18 19  1  1
 18 20  1  0
 20 21  1  0
 20 22  1  0
 20 23  1  0
 23 24  1  0
 23 25  1  0
 23 26  1  0
 26 27  2  0
 26 28  2  0
 26 29  1  0
 29 30  1  0
 29 31  1  0
 17 32  1  0
 32 33  2  0
  8 34  1  0
 34 35  1  0
 34 36  2  0
 36 37  1  0
 37 38  1  0
 37 39  1  0
 37 40  1  0
 40 41  1  0
 40 42  2  0
 42 43  1  0
 42 44  1  0
 36  3  1  0
 32 11  1  0
 29 18  1  0
M  END
>  <UniqueID>  (55) 
52

>  <SMILES>  (55) 
C=CCc1cc(/C=c2/sc(=C)n([C@H]3CCS(=O)(=O)C3)c2=O)ccc1O

>  <Energy>  (55) 
87.30176098431427

>  <Genealogy>  (55) 
C=CCc1cc(C=c2sc(=C)n([C@H]3CCS(=O)(=O)C3)c2=O)ccc1O (chirality)
C=CCc1cc(/C=c2/sc(=C)n([C@H]3CCS(=O)(=O)C3)c2=O)ccc1O (cis-trans isomerization)
C=CCc1cc(/C=c2/sc(=C)n([C@H]3CCS(=O)(=O)C3)c2=O)ccc1O (3D coordinates assigned)
C=CCc1cc(/C=c2/sc(=C)n([C@H]3CCS(=O)(=O)C3)c2=O)ccc1O (nonaromatic ring conformer: 87.30176098431427 kcal/mol)

>  <smiles>  (55) 
C=CCc1cc(C=c2sc(=C)n(C3CCS(=O)(=O)C3)c2=O)ccc1O

>  <score_type>  (55) 
oracle

>  <origin>  (55) 
adg

>  <m_score__min__energy>  (55) 
-8.6099999999999994

>  <m_primary>  (55) 
energy

$$$$
55:0
     RDKit          3D

 81 85  0  0  0  0  0  0  0  0999 V2000
   61.1912   29.7617   53.8265 H   0  0  0  0  0  0  0  0  0  0  0  0
   60.5000   29.2350   53.1520 C   0  0  0  0  0  0  0  0  0  0  0  0
   61.0500   28.1030   52.3680 C   0  0  0  0  0  0  0  0  0  0  0  0
   61.1020   26.9630   52.9050 O   0  0  0  0  0  0  0  0  0  0  0  0
   61.4450   28.2720   51.0000 N   0  0  0  0  0  0  0  0  0  0  0  0
   60.6120   28.1850   49.8380 C   0  0  0  0  0  0  0  0  0  0  0  0
   60.7190   27.0520   49.0270 C   0  0  0  0  0  0  0  0  0  0  0  0
   61.4453   26.2655   49.2799 H   0  0  0  0  0  0  0  0  0  0  0  0
   59.9100   26.9120   47.8980 C   0  0  0  0  0  0  0  0  0  0  0  0
   60.0164   26.0263   47.2545 H   0  0  0  0  0  0  0  0  0  0  0  0
   58.9630   27.8950   47.5810 C   0  0  0  0  0  0  0  0  0  0  0  0
   57.9320   27.7120   46.1590 S   0  0  0  0  0  0  0  0  0  0  0  0
   58.7320   27.0860   45.0460 O   0  0  0  0  0  0  0  0  0  0  0  0
   56.7960   26.7840   46.4930 O   0  0  0  0  0  0  0  0  0  0  0  0
   57.2880   29.2440   45.6150 N   0  0  0  0  0  0  0  0  0  0  0  0
   56.7050   29.1080   44.2700 C   0  0  0  0  0  0  0  0  0  0  0  0
   57.4477   28.6521   43.5987 H   0  0  0  0  0  0  0  0  0  0  0  0
   55.8092   28.4729   44.3349 H   0  0  0  0  0  0  0  0  0  0  0  0
   56.2960   30.4890   43.7110 C   0  0  0  0  0  0  0  0  0  0  0  0
   56.9490   30.7391   42.8618 H   0  0  0  0  0  0  0  0  0  0  0  0
   55.2445   30.4361   43.3922 H   0  0  0  0  0  0  0  0  0  0  0  0
   56.4130   31.4990   44.6950 O   0  0  0  0  0  0  0  0  0  0  0  0
   57.7640   31.6130   45.1040 C   0  0  0  0  0  0  0  0  0  0  0  0
   58.3640   31.9612   44.2503 H   0  0  0  0  0  0  0  0  0  0  0  0
   57.8038   32.3267   45.9401 H   0  0  0  0  0  0  0  0  0  0  0  0
   58.3400   30.2700   45.6010 C   0  0  0  0  0  0  0  0  0  0  0  0
   59.1506   29.9509   44.9294 H   0  0  0  0  0  0  0  0  0  0  0  0
   58.7293   30.4007   46.6215 H   0  0  0  0  0  0  0  0  0  0  0  0
   58.8300   29.0150   48.4100 C   0  0  0  0  0  0  0  0  0  0  0  0
   58.0773   29.7824   48.1766 H   0  0  0  0  0  0  0  0  0  0  0  0
   59.6490   29.1630   49.5330 C   0  0  0  0  0  0  0  0  0  0  0  0
   59.5399   30.0463   50.1794 H   0  0  0  0  0  0  0  0  0  0  0  0
   59.2310   29.6730   53.1100 C   0  0  0  0  0  0  0  0  0  0  0  0
   59.0436   30.6777   52.7033 H   0  0  0  0  0  0  0  0  0  0  0  0
   58.0760   28.8880   53.5760 C   0  0  0  0  0  0  0  0  0  0  0  0
   58.1990   27.4980   53.7120 C   0  0  0  0  0  0  0  0  0  0  0  0
   59.1439   27.0032   53.4431 H   0  0  0  0  0  0  0  0  0  0  0  0
   57.1280   26.7390   54.1870 C   0  0  0  0  0  0  0  0  0  0  0  0
   57.2268   25.6476   54.2823 H   0  0  0  0  0  0  0  0  0  0  0  0
   55.9320   27.3650   54.5410 C   0  0  0  0  0  0  0  0  0  0  0  0
   55.0922   26.7676   54.9254 H   0  0  0  0  0  0  0  0  0  0  0  0
   55.8000   28.7480   54.4080 C   0  0  0  0  0  0  0  0  0  0  0  0
   54.8600   29.2366   54.7040 H   0  0  0  0  0  0  0  0  0  0  0  0
   56.8620   29.5260   53.8970 C   0  0  0  0  0  0  0  0  0  0  0  0
   56.7670   30.9200   53.7250 O   0  0  0  0  0  0  0  0  0  0  0  0
   56.3210   31.6040   52.5510 C   0  0  0  0  0  0  0  0  0  0  0  0
   55.6768   32.4453   52.8463 H   0  0  0  0  0  0  0  0  0  0  0  0
   55.7613   30.8967   51.9214 H   0  0  0  0  0  0  0  0  0  0  0  0
   57.4920   32.1310   51.7630 C   0  0  0  0  0  0  0  0  0  0  0  0
   57.7810   31.6270   50.4870 C   0  0  0  0  0  0  0  0  0  0  0  0
   57.1471   30.8385   50.0553 H   0  0  0  0  0  0  0  0  0  0  0  0
   58.8670   32.1180   49.7600 C   0  0  0  0  0  0  0  0  0  0  0  0
   59.0802   31.7134   48.7596 H   0  0  0  0  0  0  0  0  0  0  0  0
   59.6880   33.1210   50.2920 C   0  0  0  0  0  0  0  0  0  0  0  0
   60.7890   33.6570   49.4660 C   0  0  0  0  0  0  0  0  0  0  0  0
   60.5160   34.5830   48.6590 O   0  0  0  0  0  0  0  0  0  0  0  0
   62.1290   33.1050   49.4970 N   0  0  0  0  0  0  0  0  0  0  0  0
   62.9720   33.1890   48.2910 C   0  0  0  0  0  0  0  0  0  0  0  0
   62.6319   34.0373   47.6789 H   0  0  0  0  0  0  0  0  0  0  0  0
   62.8770   32.2390   47.7446 H   0  0  0  0  0  0  0  0  0  0  0  0
   64.4620   33.3910   48.6370 C   0  0  0  0  0  0  0  0  0  0  0  0
   64.6731   34.4705   48.6508 H   0  0  0  0  0  0  0  0  0  0  0  0
   65.0470   32.8615   47.8706 H   0  0  0  0  0  0  0  0  0  0  0  0
   64.8460   32.8210   49.9500 N   0  0  0  0  0  0  0  0  0  0  0  0
   66.2910   32.5220   50.0470 C   0  0  0  0  0  0  0  0  0  0  0  0
   66.7944   33.3917   50.4944 H   0  0  0  0  0  0  0  0  0  0  0  0
   66.6396   32.3078   49.0259 H   0  0  0  0  0  0  0  0  0  0  0  0
   66.6200   31.2860   50.8950 C   0  0  0  0  0  0  0  0  0  0  0  0
   66.5512   31.5445   51.9620 H   0  0  0  0  0  0  0  0  0  0  0  0
   65.9044   30.4828   50.6654 H   0  0  0  0  0  0  0  0  0  0  0  0
   67.6402   30.9448   50.6654 H   0  0  0  0  0  0  0  0  0  0  0  0
   63.9780   31.7120   50.3860 C   0  0  0  0  0  0  0  0  0  0  0  0
   64.3675   31.2835   51.3212 H   0  0  0  0  0  0  0  0  0  0  0  0
   63.9565   30.9287   49.6140 H   0  0  0  0  0  0  0  0  0  0  0  0
   62.5670   32.2520   50.6170 C   0  0  0  0  0  0  0  0  0  0  0  0
   62.5576   32.8447   51.5436 H   0  0  0  0  0  0  0  0  0  0  0  0
   61.8772   31.3986   50.6934 H   0  0  0  0  0  0  0  0  0  0  0  0
   59.3860   33.6510   51.5580 C   0  0  0  0  0  0  0  0  0  0  0  0
   59.9975   34.4674   51.9699 H   0  0  0  0  0  0  0  0  0  0  0  0
   58.3110   33.1450   52.2970 C   0  0  0  0  0  0  0  0  0  0  0  0
   58.1040   33.5418   53.3019 H   0  0  0  0  0  0  0  0  0  0  0  0
  1  2  1  0
  2  3  1  0
  3  4  2  0
  3  5  1  0
  5  6  1  0
  6  7  2  0
  7  8  1  0
  7  9  1  0
  9 10  1  0
  9 11  2  0
 11 12  1  0
 12 13  2  0
 12 14  2  0
 12 15  1  0
 15 16  1  0
 16 17  1  0
 16 18  1  0
 16 19  1  0
 19 20  1  0
 19 21  1  0
 19 22  1  0
 22 23  1  0
 23 24  1  0
 23 25  1  0
 23 26  1  0
 26 27  1  0
 26 28  1  0
 11 29  1  0
 29 30  1  0
 29 31  2  0
 31 32  1  0
  2 33  2  0
 33 34  1  0
 33 35  1  0
 35 36  2  0
 36 37  1  0
 36 38  1  0
 38 39  1  0
 38 40  2  0
 40 41  1  0
 40 42  1  0
 42 43  1  0
 42 44  2  0
 44 45  1  0
 45 46  1  0
 46 47  1  0
 46 48  1  0
 46 49  1  0
 49 50  2  0
 50 51  1  0
 50 52  1  0
 52 53  1  0
 52 54  2  0
 54 55  1  0
 55 56  2  0
 55 57  1  0
 57 58  1  0
 58 59  1  0
 58 60  1  0
 58 61  1  0
 61 62  1  0
 61 63  1  0
 61 64  1  0
 64 65  1  0
 65 66  1  0
 65 67  1  0
 65 68  1  0
 68 69  1  0
 68 70  1  0
 68 71  1  0
 64 72  1  0
 72 73  1  0
 72 74  1  0
 72 75  1  0
 75 76  1  0
 75 77  1  0
 54 78  1  0
 78 79  1  0
 78 80  2  0
 80 81  1  0
 31  6  1  0
 44 35  1  0
 80 49  1  0
 26 15  1  0
 75 57  1  0
M  CHG  1   5  -1
M  END
>  <UniqueID>  (56) 
53

>  <SMILES>  (56) 
CCN1CCN(C(=O)c2ccc(COc3ccccc3/C=C\C(=O)[N-]c3ccc(S(=O)(=O)N4CCOCC4)cc3)cc2)CC1

>  <Energy>  (56) 
120.98077027071713

>  <Genealogy>  (56) 
CCN1CCN(C(=O)c2ccc(COc3ccccc3C=CC(=O)[N-]c3ccc(S(=O)(=O)N4CCOCC4)cc3)cc2)CC1 (protonated)
CCN1CCN(C(=O)c2ccc(COc3ccccc3/C=C\C(=O)[N-]c3ccc(S(=O)(=O)N4CCOCC4)cc3)cc2)CC1 (cis-trans isomerization)
CCN1CCN(C(=O)c2ccc(COc3ccccc3/C=C\C(=O)[N-]c3ccc(S(=O)(=O)N4CCOCC4)cc3)cc2)CC1 (3D coordinates assigned)
CCN1CCN(C(=O)c2ccc(COc3ccccc3/C=C\C(=O)[N-]c3ccc(S(=O)(=O)N4CCOCC4)cc3)cc2)CC1 (nonaromatic ring conformer: 120.98077027071713 kcal/mol)

>  <smiles>  (56) 
CCN1CCN(C(=O)c2ccc(COc3ccccc3C=CC(=O)Nc3ccc(S(=O)(=O)N4CCOCC4)cc3)cc2)CC1

>  <score_type>  (56) 
oracle

>  <origin>  (56) 
adg

>  <m_score__min__energy>  (56) 
-11.91

>  <m_primary>  (56) 
energy

$$$$
56:0
     RDKit          3D

 69 73  0  0  0  0  0  0  0  0999 V2000
   57.3610   24.8620   48.0250 O   0  0  0  0  0  0  0  0  0  0  0  0
   56.8980   24.9920   46.8580 C   0  0  0  0  0  0  0  0  0  0  0  0
   57.7550   24.6970   45.6630 C   0  0  0  0  0  0  0  0  0  0  0  0
   59.2630   24.7500   46.0030 C   0  0  0  0  0  0  0  0  0  0  0  0
   59.9010   26.1100   45.6560 C   0  0  0  0  0  0  0  0  0  0  0  0
   59.5350   27.1220   46.6410 N   0  0  0  0  0  0  0  0  0  0  0  0
   58.4210   27.9420   46.4870 C   0  0  0  0  0  0  0  0  0  0  0  0
   57.4850   28.0050   44.9510 S   0  0  0  0  0  0  0  0  0  0  0  0
   57.8320   29.7350   44.4490 C   0  0  0  0  0  0  0  0  0  0  0  0
   56.6060   30.5890   44.5540 C   0  0  0  0  0  0  0  0  0  0  0  0
   55.4480   30.0680   44.4980 O   0  0  0  0  0  0  0  0  0  0  0  0
   56.7050   31.9850   44.8490 N   0  0  0  0  0  0  0  0  0  0  0  0
   57.8170   32.5470   45.5410 C   0  0  0  0  0  0  0  0  0  0  0  0
   58.6910   33.4180   44.8700 C   0  0  0  0  0  0  0  0  0  0  0  0
   59.8450   33.8900   45.4980 C   0  0  0  0  0  0  0  0  0  0  0  0
   60.1750   33.4870   46.8230 C   0  0  0  0  0  0  0  0  0  0  0  0
   61.4700   33.7890   47.4290 N   0  0  0  0  0  0  0  0  0  0  0  0
   62.7260   33.8150   46.6540 C   0  0  0  0  0  0  0  0  0  0  0  0
   63.7920   32.9260   47.3370 C   0  0  0  0  0  0  0  0  0  0  0  0
   63.6260   32.7570   48.7480 O   0  0  0  0  0  0  0  0  0  0  0  0
   63.0480   33.9060   49.3380 C   0  0  0  0  0  0  0  0  0  0  0  0
   61.5940   34.0150   48.8900 C   0  0  0  0  0  0  0  0  0  0  0  0
   59.2090   32.7070   47.5270 C   0  0  0  0  0  0  0  0  0  0  0  0
   58.0640   32.2320   46.8940 C   0  0  0  0  0  0  0  0  0  0  0  0
   58.1210   28.8910   47.4240 N   0  0  0  0  0  0  0  0  0  0  0  0
   58.9220   29.0600   48.5000 C   0  0  0  0  0  0  0  0  0  0  0  0
   58.8610   30.1080   49.3830 C   0  0  0  0  0  0  0  0  0  0  0  0
   59.8590   30.0740   50.3320 C   0  0  0  0  0  0  0  0  0  0  0  0
   60.8940   28.7680   50.0430 S   0  0  0  0  0  0  0  0  0  0  0  0
   60.0210   28.2490   48.6950 C   0  0  0  0  0  0  0  0  0  0  0  0
   60.3260   27.2630   47.7840 C   0  0  0  0  0  0  0  0  0  0  0  0
   61.3650   26.5480   47.9590 O   0  0  0  0  0  0  0  0  0  0  0  0
   55.5310   25.3880   46.6800 N   0  0  0  0  0  0  0  0  0  0  0  0
   54.7990   25.1020   45.4490 C   0  0  0  0  0  0  0  0  0  0  0  0
   53.7710   24.0260   45.7170 C   0  0  0  0  0  0  0  0  0  0  0  0
   52.5450   24.0750   45.0320 C   0  0  0  0  0  0  0  0  0  0  0  0
   51.5260   23.1720   45.3540 C   0  0  0  0  0  0  0  0  0  0  0  0
   51.7300   22.1980   46.3430 C   0  0  0  0  0  0  0  0  0  0  0  0
   50.4390   21.0580   46.7130 Cl  0  0  0  0  0  0  0  0  0  0  0  0
   52.9450   22.1480   47.0330 C   0  0  0  0  0  0  0  0  0  0  0  0
   53.9660   23.0560   46.7150 C   0  0  0  0  0  0  0  0  0  0  0  0
   57.5103   23.6914   45.2902 H   0  0  0  0  0  0  0  0  0  0  0  0
   57.5516   25.4645   44.9017 H   0  0  0  0  0  0  0  0  0  0  0  0
   59.3880   24.5668   47.0804 H   0  0  0  0  0  0  0  0  0  0  0  0
   59.7680   23.9812   45.3997 H   0  0  0  0  0  0  0  0  0  0  0  0
   60.9955   26.0012   45.6408 H   0  0  0  0  0  0  0  0  0  0  0  0
   59.5335   26.4297   44.6697 H   0  0  0  0  0  0  0  0  0  0  0  0
   58.6135   30.1481   45.1037 H   0  0  0  0  0  0  0  0  0  0  0  0
   58.1640   29.7320   43.4003 H   0  0  0  0  0  0  0  0  0  0  0  0
   58.4641   33.7311   43.8402 H   0  0  0  0  0  0  0  0  0  0  0  0
   60.5091   34.5835   44.9612 H   0  0  0  0  0  0  0  0  0  0  0  0
   62.5345   33.4380   45.6385 H   0  0  0  0  0  0  0  0  0  0  0  0
   63.0975   34.8492   46.6060 H   0  0  0  0  0  0  0  0  0  0  0  0
   63.7580   31.9315   46.8681 H   0  0  0  0  0  0  0  0  0  0  0  0
   64.7543   33.4411   47.2007 H   0  0  0  0  0  0  0  0  0  0  0  0
   63.0910   33.8194   50.4337 H   0  0  0  0  0  0  0  0  0  0  0  0
   63.6019   34.8034   49.0253 H   0  0  0  0  0  0  0  0  0  0  0  0
   60.9959   33.2611   49.4228 H   0  0  0  0  0  0  0  0  0  0  0  0
   61.2311   35.0276   49.1203 H   0  0  0  0  0  0  0  0  0  0  0  0
   59.3725   32.4769   48.5902 H   0  0  0  0  0  0  0  0  0  0  0  0
   57.3489   31.6086   47.4507 H   0  0  0  0  0  0  0  0  0  0  0  0
   58.0937   30.8950   49.3379 H   0  0  0  0  0  0  0  0  0  0  0  0
   59.9671   30.7922   51.1581 H   0  0  0  0  0  0  0  0  0  0  0  0
   54.2932   26.0150   45.1018 H   0  0  0  0  0  0  0  0  0  0  0  0
   55.5004   24.7568   44.6751 H   0  0  0  0  0  0  0  0  0  0  0  0
   52.3863   24.8239   44.2421 H   0  0  0  0  0  0  0  0  0  0  0  0
   50.5606   23.2259   44.8294 H   0  0  0  0  0  0  0  0  0  0  0  0
   53.0999   21.3986   47.8232 H   0  0  0  0  0  0  0  0  0  0  0  0
   54.9257   23.0084   47.2504 H   0  0  0  0  0  0  0  0  0  0  0  0
  1  2  2  0
  2  3  1  0
  3  4  1  0
  4  5  1  0
  5  6  1  0
  6  7  1  0
  7  8  1  0
  8  9  1  0
  9 10  1  0
 10 11  2  0
 10 12  1  0
 12 13  1  0
 13 14  2  0
 14 15  1  0
 15 16  2  0
 16 17  1  0
 17 18  1  0
 18 19  1  0
 19 20  1  0
 20 21  1  0
 21 22  1  0
 16 23  1  0
 23 24  2  0
  7 25  2  0
 25 26  1  0
 26 27  1  0
 27 28  2  0
 28 29  1  0
 29 30  1  0
 30 31  1  0
 31 32  2  0
  2 33  1  0
 33 34  1  0
 34 35  1  0
 35 36  2  0
 36 37  1  0
 37 38  2  0
 38 39  1  0
 38 40  1  0
 40 41  2  0
 31  6  1  0
 41 35  1  0
 24 13  1  0
 30 26  2  0
 22 17  1  0
  3 42  1  0
  3 43  1  0
  4 44  1  0
  4 45  1  0
  5 46  1  0
  5 47  1  0
  9 48  1  0
  9 49  1  0
 14 50  1  0
 15 51  1  0
 18 52  1  0
 18 53  1  0
 19 54  1  0
 19 55  1  0
 21 56  1  0
 21 57  1  0
 22 58  1  0
 22 59  1  0
 23 60  1  0
 24 61  1  0
 27 62  1  0
 28 63  1  0
 34 64  1  0
 34 65  1  0
 36 66  1  0
 37 67  1  0
 40 68  1  0
 41 69  1  0
M  CHG  2  12  -1  33  -1
M  END
>  <UniqueID>  (57) 
54

>  <SMILES>  (57) 
O=C(CCCn1c(SCC(=O)[N-]c2ccc(N3CCOCC3)cc2)nc2ccsc2c1=O)[N-]Cc1ccc(Cl)cc1

>  <Energy>  (57) 
126.83059921934466

>  <Genealogy>  (57) 
O=C(CCCn1c(SCC(=O)[N-]c2ccc(N3CCOCC3)cc2)nc2ccsc2c1=O)[N-]Cc1ccc(Cl)cc1 (protonated)
O=C(CCCn1c(SCC(=O)[N-]c2ccc(N3CCOCC3)cc2)nc2ccsc2c1=O)[N-]Cc1ccc(Cl)cc1 (3D coordinates assigned)
O=C(CCCn1c(SCC(=O)[N-]c2ccc(N3CCOCC3)cc2)nc2ccsc2c1=O)[N-]Cc1ccc(Cl)cc1 (nonaromatic ring conformer: 126.83059921934466 kcal/mol)

>  <smiles>  (57) 
O=C(CCCn1c(SCC(=O)Nc2ccc(N3CCOCC3)cc2)nc2ccsc2c1=O)NCc1ccc(Cl)cc1

>  <score_type>  (57) 
oracle

>  <origin>  (57) 
adg

>  <m_score__min__energy>  (57) 
-12.76

>  <m_primary>  (57) 
energy

$$$$
57:0
     RDKit          3D

 38 40  0  0  0  0  0  0  0  0999 V2000
   60.6710   28.2300   46.4700 C   0  0  0  0  0  0  0  0  0  0  0  0
   59.4180   27.8220   46.2430 C   0  0  0  0  0  0  0  0  0  0  0  0
   58.5240   28.7120   45.7500 N   0  0  0  0  0  0  0  0  0  0  0  0
   57.2490   28.4000   45.5110 N   0  0  0  0  0  0  0  0  0  0  0  0
   56.3900   29.4280   44.9790 C   0  0  0  0  0  0  0  0  0  0  0  0
   55.1440   29.3560   45.1670 O   0  0  0  0  0  0  0  0  0  0  0  0
   56.9380   30.5560   44.1880 C   0  0  0  0  0  0  0  0  0  0  0  0
   57.6040   31.6160   44.8330 C   0  0  0  0  0  0  0  0  0  0  0  0
   58.1310   32.6760   44.0900 C   0  0  0  0  0  0  0  0  0  0  0  0
   58.0070   32.6880   42.6990 C   0  0  0  0  0  0  0  0  0  0  0  0
   57.3600   31.6360   42.0470 C   0  0  0  0  0  0  0  0  0  0  0  0
   56.8320   30.5720   42.7850 C   0  0  0  0  0  0  0  0  0  0  0  0
   56.7820   27.1340   45.7510 C   0  0  0  0  0  0  0  0  0  0  0  0
   55.5520   26.8930   45.6020 O   0  0  0  0  0  0  0  0  0  0  0  0
   57.6680   26.1240   46.2180 C   0  0  0  0  0  0  0  0  0  0  0  0
   57.2840   24.8370   46.4380 C   0  0  0  0  0  0  0  0  0  0  0  0
   57.5060   23.6940   45.5280 C   0  0  0  0  0  0  0  0  0  0  0  0
   58.7100   22.9790   45.5960 C   0  0  0  0  0  0  0  0  0  0  0  0
   58.9550   21.9280   44.7070 C   0  0  0  0  0  0  0  0  0  0  0  0
   58.0100   21.6000   43.7320 C   0  0  0  0  0  0  0  0  0  0  0  0
   56.8180   22.3270   43.6350 C   0  0  0  0  0  0  0  0  0  0  0  0
   55.8900   21.9980   42.6500 O   0  0  0  0  0  0  0  0  0  0  0  0
   56.5710   23.3810   44.5260 C   0  0  0  0  0  0  0  0  0  0  0  0
   59.0050   26.5030   46.4910 C   0  0  0  0  0  0  0  0  0  0  0  0
   59.8320   25.6590   46.9430 O   0  0  0  0  0  0  0  0  0  0  0  0
   61.4149   27.5254   46.8702 H   0  0  0  0  0  0  0  0  0  0  0  0
   60.9579   29.2703   46.2566 H   0  0  0  0  0  0  0  0  0  0  0  0
   57.7101   31.6097   45.9279 H   0  0  0  0  0  0  0  0  0  0  0  0
   58.6447   33.5029   44.6021 H   0  0  0  0  0  0  0  0  0  0  0  0
   58.4188   33.5258   42.1171 H   0  0  0  0  0  0  0  0  0  0  0  0
   57.2656   31.6444   40.9511 H   0  0  0  0  0  0  0  0  0  0  0  0
   56.3306   29.7422   42.2654 H   0  0  0  0  0  0  0  0  0  0  0  0
   56.7591   24.6280   47.3818 H   0  0  0  0  0  0  0  0  0  0  0  0
   59.4642   23.2457   46.3510 H   0  0  0  0  0  0  0  0  0  0  0  0
   59.8936   21.3584   44.7755 H   0  0  0  0  0  0  0  0  0  0  0  0
   58.2032   20.7682   43.0387 H   0  0  0  0  0  0  0  0  0  0  0  0
   55.9140   22.4300   41.7340 H   0  0  0  0  0  0  0  0  0  0  0  0
   55.6426   23.9649   44.4407 H   0  0  0  0  0  0  0  0  0  0  0  0
  1  2  2  0
  2  3  1  0
  3  4  1  0
  4  5  1  0
  5  6  2  0
  5  7  1  0
  7  8  2  0
  8  9  1  0
  9 10  2  0
 10 11  1  0
 11 12  2  0
  4 13  1  0
 13 14  2  0
 13 15  1  0
 15 16  2  3
 16 17  1  0
 17 18  2  0
 18 19  1  0
 19 20  2  0
 20 21  1  0
 21 22  1  0
 21 23  2  0
 15 24  1  0
 24 25  2  0
 24  2  1  0
 12  7  1  0
 23 17  1  0
  1 26  1  0
  1 27  1  0
  8 28  1  0
  9 29  1  0
 10 30  1  0
 11 31  1  0
 12 32  1  0
 16 33  1  0
 18 34  1  0
 19 35  1  0
 20 36  1  0
 22 37  1  0
 23 38  1  0
M  CHG  1   3  -1
M  END
>  <UniqueID>  (58) 
55

>  <SMILES>  (58) 
C=c1[n-]n(C(=O)c2ccccc2)c(=O)c(=Cc2cccc(O)c2)c1=O

>  <Energy>  (58) 
65.74185168826041

>  <Genealogy>  (58) 
C=c1[n-]n(C(=O)c2ccccc2)c(=O)c(=Cc2cccc(O)c2)c1=O (protonated)
C=c1[n-]n(C(=O)c2ccccc2)c(=O)c(=Cc2cccc(O)c2)c1=O (3D coordinates assigned)
C=c1[n-]n(C(=O)c2ccccc2)c(=O)c(=Cc2cccc(O)c2)c1=O (optimized conformer: 65.74185168826041 kcal/mol)

>  <smiles>  (58) 
C=c1[nH]n(C(=O)c2ccccc2)c(=O)c(=Cc2cccc(O)c2)c1=O

>  <score_type>  (58) 
oracle

>  <origin>  (58) 
adg

>  <m_score__min__energy>  (58) 
-10.01

>  <m_primary>  (58) 
energy

$$$$
58:0
     RDKit          3D

 49 51  0  0  0  0  0  0  0  0999 V2000
   59.7780   28.9500   49.7270 C   0  0  0  0  0  0  0  0  0  0  0  0
   59.4540   29.7690   48.7250 C   0  0  0  0  0  0  0  0  0  0  0  0
   59.0710   31.1650   48.8950 C   0  0  0  0  0  0  0  0  0  0  0  0
   59.0150   31.7630   50.0020 O   0  0  0  0  0  0  0  0  0  0  0  0
   58.7880   31.8070   47.5870 C   0  0  0  0  0  0  0  0  0  0  0  0
   58.6190   30.5880   46.6670 C   0  0  1  0  0  0  0  0  0  0  0  0
   58.9420   30.7660   45.1740 C   0  0  2  0  0  0  0  0  0  0  0  0
   58.0350   31.8180   44.5130 C   0  0  0  0  0  0  0  0  0  0  0  0
   56.6650   31.5090   44.7510 O   0  0  0  0  0  0  0  0  0  0  0  0
   56.0290   30.4020   44.1830 C   0  0  0  0  0  0  0  0  0  0  0  0
   56.2680   30.0760   42.7480 C   0  0  0  0  0  0  0  0  0  0  0  0
   55.2240   29.7040   44.8580 O   0  0  0  0  0  0  0  0  0  0  0  0
   58.7550   29.4220   44.4920 C   0  0  0  0  0  0  0  0  0  0  0  0
   58.8110   28.2300   45.1470 C   0  0  0  0  0  0  0  0  0  0  0  0
   58.3590   26.9820   44.4060 C   0  0  0  0  0  0  0  0  0  0  0  0
   57.6700   25.9550   45.3380 C   0  0  2  0  0  0  0  0  0  0  0  0
   56.6680   25.1870   44.5900 N   0  0  0  0  0  0  0  0  0  0  0  0
   55.6150   24.4660   45.2390 C   0  0  0  0  0  0  0  0  0  0  0  0
   55.5050   24.4700   46.4940 O   0  0  0  0  0  0  0  0  0  0  0  0
   57.0120   26.6590   46.5370 C   0  0  0  0  0  0  0  0  0  0  0  0
   58.0440   27.3910   47.4220 C   0  0  0  0  0  0  0  0  0  0  0  0
   59.2030   28.0980   46.6370 C   0  0  1  0  0  0  0  0  0  0  0  0
   60.4940   27.2360   46.6800 C   0  0  0  0  0  0  0  0  0  0  0  0
   59.5440   29.5060   47.2450 C   0  0  2  0  0  0  0  0  0  0  0  0
   60.0567   27.9069   49.5166 H   0  0  0  0  0  0  0  0  0  0  0  0
   59.7665   29.3178   50.7636 H   0  0  0  0  0  0  0  0  0  0  0  0
   57.8681   32.4088   47.6272 H   0  0  0  0  0  0  0  0  0  0  0  0
   59.5687   32.5083   47.2574 H   0  0  0  0  0  0  0  0  0  0  0  0
   57.5452   30.3495   46.6622 H   0  0  0  0  0  0  0  0  0  0  0  0
   59.9778   31.1216   45.0707 H   0  0  0  0  0  0  0  0  0  0  0  0
   58.2620   32.8087   44.9337 H   0  0  0  0  0  0  0  0  0  0  0  0
   58.2187   31.8182   43.4284 H   0  0  0  0  0  0  0  0  0  0  0  0
   56.9170   29.1908   42.6763 H   0  0  0  0  0  0  0  0  0  0  0  0
   55.3073   29.8673   42.2545 H   0  0  0  0  0  0  0  0  0  0  0  0
   56.7560   30.9294   42.2545 H   0  0  0  0  0  0  0  0  0  0  0  0
   58.5637   29.4112   43.4088 H   0  0  0  0  0  0  0  0  0  0  0  0
   59.2383   26.5068   43.9465 H   0  0  0  0  0  0  0  0  0  0  0  0
   57.6238   27.2913   43.6485 H   0  0  0  0  0  0  0  0  0  0  0  0
   58.4374   25.2662   45.7209 H   0  0  0  0  0  0  0  0  0  0  0  0
   56.6880   25.1780   43.5450 H   0  0  0  0  0  0  0  0  0  0  0  0
   54.8917   23.9005   44.6332 H   0  0  0  0  0  0  0  0  0  0  0  0
   56.4919   25.9064   47.1479 H   0  0  0  0  0  0  0  0  0  0  0  0
   56.3108   27.4101   46.1443 H   0  0  0  0  0  0  0  0  0  0  0  0
   58.4931   26.6541   48.1041 H   0  0  0  0  0  0  0  0  0  0  0  0
   57.4934   28.1878   47.9435 H   0  0  0  0  0  0  0  0  0  0  0  0
   60.7749   27.0484   47.7268 H   0  0  0  0  0  0  0  0  0  0  0  0
   60.3120   26.2776   46.1718 H   0  0  0  0  0  0  0  0  0  0  0  0
   61.3095   27.7714   46.1718 H   0  0  0  0  0  0  0  0  0  0  0  0
   60.6110   29.5270   46.9784 H   0  0  0  0  0  0  0  0  0  0  0  0
  1  2  2  0
  2  3  1  0
  3  4  2  0
  3  5  1  0
  5  6  1  0
  6  7  1  0
  7  8  1  0
  8  9  1  0
  9 10  1  0
 10 11  1  0
 10 12  2  0
  7 13  1  0
 13 14  2  0
 14 15  1  0
 15 16  1  0
 16 17  1  0
 17 18  1  0
 18 19  2  0
 16 20  1  0
 20 21  1  0
 21 22  1  0
 22 23  1  6
 22 24  1  0
 24  2  1  0
 24  6  1  0
 22 14  1  0
  1 25  1  0
  1 26  1  0
  5 27  1  0
  5 28  1  0
  6 29  1  6
  7 30  1  1
  8 31  1  0
  8 32  1  0
 11 33  1  0
 11 34  1  0
 11 35  1  0
 13 36  1  0
 15 37  1  0
 15 38  1  0
 16 39  1  1
 17 40  1  0
 18 41  1  0
 20 42  1  0
 20 43  1  0
 21 44  1  0
 21 45  1  0
 23 46  1  0
 23 47  1  0
 23 48  1  0
 24 49  1  6
M  END
>  <UniqueID>  (59) 
56

>  <SMILES>  (59) 
C=C1C(=O)C[C@@H]2C1C1(C)CCC(NC=O)CC1=C[C@H]2COC(C)=O

>  <Energy>  (59) 
70.37070592985758

>  <Genealogy>  (59) 
C=C1C(=O)C[C@@H]2C1C1(C)CCC(NC=O)CC1=C[C@H]2COC(C)=O (chirality)
C=C1C(=O)C[C@@H]2C1C1(C)CCC(NC=O)CC1=C[C@H]2COC(C)=O (3D coordinates assigned)
C=C1C(=O)C[C@@H]2C1C1(C)CCC(NC=O)CC1=C[C@H]2COC(C)=O (nonaromatic ring conformer: 70.37070592985758 kcal/mol)

>  <smiles>  (59) 
C=C1C(=O)CC2C(COC(C)=O)C=C3CC(NC=O)CCC3(C)C12

>  <score_type>  (59) 
oracle

>  <origin>  (59) 
adg

>  <m_score__min__energy>  (59) 
-8.8800000000000008

>  <m_primary>  (59) 
energy

$$$$
59:0
     RDKit          3D

 44 45  0  0  0  0  0  0  0  0999 V2000
   57.0010   30.6060   43.3650 C   0  0  0  0  0  0  0  0  0  0  0  0
   56.9370   29.3380   43.7820 C   0  0  0  0  0  0  0  0  0  0  0  0
   56.5880   29.0050   45.2040 C   0  0  0  0  0  0  0  0  0  0  0  0
   56.9690   27.6260   45.5110 N   0  0  0  0  0  0  0  0  0  0  0  0
   56.1650   26.6150   45.8710 C   0  0  0  0  0  0  0  0  0  0  0  0
   54.7870   26.7150   46.0240 O   0  0  0  0  0  0  0  0  0  0  0  0
   56.9140   25.4800   46.0630 C   0  0  0  0  0  0  0  0  0  0  0  0
   58.2120   25.7710   45.8240 N   0  0  0  0  0  0  0  0  0  0  0  0
   58.2040   27.0820   45.4880 C   0  0  0  0  0  0  0  0  0  0  0  0
   59.6950   27.9920   45.0710 S   0  0  0  0  0  0  0  0  0  0  0  0
   60.7120   27.1740   46.3540 C   0  0  0  0  0  0  0  0  0  0  0  0
   60.3030   27.6140   47.7280 C   0  0  0  0  0  0  0  0  0  0  0  0
   59.5220   26.8960   48.4120 O   0  0  0  0  0  0  0  0  0  0  0  0
   60.7990   28.8320   48.2960 N   0  0  0  0  0  0  0  0  0  0  0  0
   60.3610   30.1480   47.9370 C   0  0  0  0  0  0  0  0  0  0  0  0
   58.8990   30.5300   47.2030 S   0  0  0  0  0  0  0  0  0  0  0  0
   59.1000   32.2020   47.2420 C   0  0  0  0  0  0  0  0  0  0  0  0
   58.0730   33.1730   46.8050 C   0  0  0  0  0  0  0  0  0  0  0  0
   57.0190   33.3060   47.4830 O   0  0  0  0  0  0  0  0  0  0  0  0
   58.2330   33.9380   45.5950 N   0  0  0  0  0  0  0  0  0  0  0  0
   59.5370   34.4740   45.2030 C   0  0  0  0  0  0  0  0  0  0  0  0
   57.0690   34.2760   44.7790 C   0  0  0  0  0  0  0  0  0  0  0  0
   60.3310   32.4860   47.8560 C   0  0  0  0  0  0  0  0  0  0  0  0
   60.8360   33.8800   48.1050 C   0  0  0  0  0  0  0  0  0  0  0  0
   61.0260   31.3240   48.2620 C   0  0  0  0  0  0  0  0  0  0  0  0
   62.3110   31.3340   48.9190 C   0  0  0  0  0  0  0  0  0  0  0  0
   63.3460   31.3390   49.4400 N   0  0  0  0  0  0  0  0  0  0  0  0
   57.2585   30.8287   42.3190 H   0  0  0  0  0  0  0  0  0  0  0  0
   56.7962   31.4271   44.0678 H   0  0  0  0  0  0  0  0  0  0  0  0
   57.1435   28.5242   43.0713 H   0  0  0  0  0  0  0  0  0  0  0  0
   57.1243   29.6884   45.8788 H   0  0  0  0  0  0  0  0  0  0  0  0
   55.5021   29.1151   45.3410 H   0  0  0  0  0  0  0  0  0  0  0  0
   56.5222   24.4966   46.3619 H   0  0  0  0  0  0  0  0  0  0  0  0
   60.5847   26.0844   46.2728 H   0  0  0  0  0  0  0  0  0  0  0  0
   61.7643   27.4528   46.1964 H   0  0  0  0  0  0  0  0  0  0  0  0
   60.1207   34.7139   46.1040 H   0  0  0  0  0  0  0  0  0  0  0  0
   60.0767   33.7248   44.6052 H   0  0  0  0  0  0  0  0  0  0  0  0
   59.3938   35.3862   44.6052 H   0  0  0  0  0  0  0  0  0  0  0  0
   56.2207   34.5223   45.4345 H   0  0  0  0  0  0  0  0  0  0  0  0
   57.3055   35.1426   44.1441 H   0  0  0  0  0  0  0  0  0  0  0  0
   56.8045   33.4175   44.1441 H   0  0  0  0  0  0  0  0  0  0  0  0
   60.9007   34.0585   49.1885 H   0  0  0  0  0  0  0  0  0  0  0  0
   61.8329   33.9948   47.6543 H   0  0  0  0  0  0  0  0  0  0  0  0
   60.1440   34.6066   47.6543 H   0  0  0  0  0  0  0  0  0  0  0  0
  1  2  2  0
  2  3  1  0
  3  4  1  0
  4  5  1  0
  5  6  1  0
  5  7  2  0
  7  8  1  0
  8  9  2  0
  9 10  1  0
 10 11  1  0
 11 12  1  0
 12 13  2  0
 12 14  1  0
 14 15  1  0
 15 16  1  0
 16 17  1  0
 17 18  1  0
 18 19  2  0
 18 20  1  0
 20 21  1  0
 20 22  1  0
 17 23  2  0
 23 24  1  0
 23 25  1  0
 25 26  1  0
 26 27  3  0
  9  4  1  0
 25 15  2  0
  1 28  1  0
  1 29  1  0
  2 30  1  0
  3 31  1  0
  3 32  1  0
  7 33  1  0
 11 34  1  0
 11 35  1  0
 21 36  1  0
 21 37  1  0
 21 38  1  0
 22 39  1  0
 22 40  1  0
 22 41  1  0
 24 42  1  0
 24 43  1  0
 24 44  1  0
M  CHG  2   6  -1  14  -1
M  END
>  <UniqueID>  (60) 
57

>  <SMILES>  (60) 
C=CCn1c([O-])cnc1SCC(=O)[N-]c1sc(C(=O)N(C)C)c(C)c1C#N

>  <Energy>  (60) 
100.43423461896892

>  <Genealogy>  (60) 
C=CCn1c([O-])cnc1SCC(=O)[N-]c1sc(C(=O)N(C)C)c(C)c1C#N (protonated)
C=CCn1c([O-])cnc1SCC(=O)[N-]c1sc(C(=O)N(C)C)c(C)c1C#N (3D coordinates assigned)
C=CCn1c([O-])cnc1SCC(=O)[N-]c1sc(C(=O)N(C)C)c(C)c1C#N (optimized conformer: 100.43423461896892 kcal/mol)

>  <smiles>  (60) 
C=CCn1c(O)cnc1SCC(=O)Nc1sc(C(=O)N(C)C)c(C)c1C#N

>  <score_type>  (60) 
oracle

>  <origin>  (60) 
adg

>  <m_score__min__energy>  (60) 
-12.02

>  <m_primary>  (60) 
energy

$$$$
60:0
     RDKit          3D

 63 66  0  0  0  0  0  0  0  0999 V2000
   59.4300   31.5230   50.5490 C   0  0  0  0  0  0  0  0  0  0  0  0
   60.5520   30.8830   50.2080 C   0  0  0  0  0  0  0  0  0  0  0  0
   61.1320   30.9410   48.8210 C   0  0  0  0  0  0  0  0  0  0  0  0
   60.1440   31.3920   47.8160 N   0  0  0  0  0  0  0  0  0  0  0  0
   59.3170   30.4460   47.2350 C   0  0  0  0  0  0  0  0  0  0  0  0
   59.2920   29.2660   47.6820 O   0  0  0  0  0  0  0  0  0  0  0  0
   58.5160   30.7780   46.1120 C   0  0  0  0  0  0  0  0  0  0  0  0
   57.6600   29.7760   45.4270 C   0  0  0  0  0  0  0  0  0  0  0  0
   56.4860   30.0920   45.0960 O   0  0  0  0  0  0  0  0  0  0  0  0
   58.1810   28.4740   45.1110 N   0  0  0  0  0  0  0  0  0  0  0  0
   57.6730   27.1870   45.4980 C   0  0  0  0  0  0  0  0  0  0  0  0
   56.2970   26.9150   45.6290 C   0  0  0  0  0  0  0  0  0  0  0  0
   55.8630   25.6380   46.0010 C   0  0  0  0  0  0  0  0  0  0  0  0
   56.7910   24.6240   46.2740 C   0  0  0  0  0  0  0  0  0  0  0  0
   56.2400   23.0130   46.7360 S   0  0  0  0  0  0  0  0  0  0  0  0
   57.2280   22.4140   47.6970 O   0  0  0  0  0  0  0  0  0  0  0  0
   54.9170   23.1240   47.4420 O   0  0  0  0  0  0  0  0  0  0  0  0
   56.0570   21.9630   45.3530 N   0  0  0  0  0  0  0  0  0  0  0  0
   57.0810   22.2580   44.3350 C   0  0  0  0  0  0  0  0  0  0  0  0
   57.0540   21.1970   43.2160 C   0  0  0  0  0  0  0  0  0  0  0  0
   55.9000   20.3860   43.3120 O   0  0  0  0  0  0  0  0  0  0  0  0
   55.9280   19.6470   44.5210 C   0  0  0  0  0  0  0  0  0  0  0  0
   56.1380   20.5520   45.7540 C   0  0  0  0  0  0  0  0  0  0  0  0
   58.1600   24.9030   46.1830 C   0  0  0  0  0  0  0  0  0  0  0  0
   58.5960   26.1750   45.7980 C   0  0  0  0  0  0  0  0  0  0  0  0
   58.5800   32.0800   45.6040 C   0  0  0  0  0  0  0  0  0  0  0  0
   59.3930   32.9920   46.2510 C   0  0  0  0  0  0  0  0  0  0  0  0
   59.5940   34.3170   45.9570 C   0  0  0  0  0  0  0  0  0  0  0  0
   58.9340   35.1120   44.8770 C   0  0  0  0  0  0  0  0  0  0  0  0
   60.4090   34.8470   46.8870 N   0  0  0  0  0  0  0  0  0  0  0  0
   60.7260   33.8210   47.7160 C   0  0  0  0  0  0  0  0  0  0  0  0
   61.4200   34.1350   49.0150 C   0  0  0  0  0  0  0  0  0  0  0  0
   62.9270   33.8670   48.9000 C   0  0  0  0  0  0  0  0  0  0  0  0
   63.3100   33.4610   47.4800 C   0  0  0  0  0  0  0  0  0  0  0  0
   60.1100   32.6550   47.3380 N   0  0  0  0  0  0  0  0  0  0  0  0
   59.0457   31.4496   51.5771 H   0  0  0  0  0  0  0  0  0  0  0  0
   58.8905   32.1234   49.8017 H   0  0  0  0  0  0  0  0  0  0  0  0
   61.0734   30.2890   50.9730 H   0  0  0  0  0  0  0  0  0  0  0  0
   61.9804   31.6412   48.8216 H   0  0  0  0  0  0  0  0  0  0  0  0
   61.4496   29.9241   48.5470 H   0  0  0  0  0  0  0  0  0  0  0  0
   55.5609   27.7098   45.4381 H   0  0  0  0  0  0  0  0  0  0  0  0
   54.7860   25.4285   46.0797 H   0  0  0  0  0  0  0  0  0  0  0  0
   56.8830   23.2484   43.8992 H   0  0  0  0  0  0  0  0  0  0  0  0
   58.0715   22.2444   44.8133 H   0  0  0  0  0  0  0  0  0  0  0  0
   57.0567   21.7041   42.2399 H   0  0  0  0  0  0  0  0  0  0  0  0
   57.9416   20.5558   43.3207 H   0  0  0  0  0  0  0  0  0  0  0  0
   54.9725   19.1134   44.6320 H   0  0  0  0  0  0  0  0  0  0  0  0
   56.7745   18.9465   44.4686 H   0  0  0  0  0  0  0  0  0  0  0  0
   55.3589   20.3389   46.5007 H   0  0  0  0  0  0  0  0  0  0  0  0
   57.1294   20.3530   46.1869 H   0  0  0  0  0  0  0  0  0  0  0  0
   58.8956   24.1188   46.4152 H   0  0  0  0  0  0  0  0  0  0  0  0
   59.6739   26.3836   45.7299 H   0  0  0  0  0  0  0  0  0  0  0  0
   58.0001   32.3697   44.7153 H   0  0  0  0  0  0  0  0  0  0  0  0
   58.2934   35.8836   45.3290 H   0  0  0  0  0  0  0  0  0  0  0  0
   59.7025   35.5924   44.2536 H   0  0  0  0  0  0  0  0  0  0  0  0
   58.3204   34.4450   44.2536 H   0  0  0  0  0  0  0  0  0  0  0  0
   61.2590   35.1942   49.2642 H   0  0  0  0  0  0  0  0  0  0  0  0
   61.0042   33.4914   49.8042 H   0  0  0  0  0  0  0  0  0  0  0  0
   63.4754   34.7810   49.1718 H   0  0  0  0  0  0  0  0  0  0  0  0
   63.1862   33.0417   49.5794 H   0  0  0  0  0  0  0  0  0  0  0  0
   64.0644   32.6613   47.5181 H   0  0  0  0  0  0  0  0  0  0  0  0
   62.4176   33.0982   46.9491 H   0  0  0  0  0  0  0  0  0  0  0  0
   63.7242   34.3308   46.9491 H   0  0  0  0  0  0  0  0  0  0  0  0
  1  2  2  0
  2  3  1  0
  3  4  1  0
  4  5  1  0
  5  6  2  0
  5  7  1  0
  7  8  1  0
  8  9  2  0
  8 10  1  0
 10 11  1  0
 11 12  2  0
 12 13  1  0
 13 14  2  0
 14 15  1  0
 15 16  2  0
 15 17  2  0
 15 18  1  0
 18 19  1  0
 19 20  1  0
 20 21  1  0
 21 22  1  0
 22 23  1  0
 14 24  1  0
 24 25  2  0
  7 26  2  0
 26 27  1  0
 27 28  2  0
 28 29  1  0
 28 30  1  0
 30 31  2  0
 31 32  1  0
 32 33  1  0
 33 34  1  0
 31 35  1  0
 35  4  1  0
 25 11  1  0
 35 27  1  0
 23 18  1  0
  1 36  1  0
  1 37  1  0
  2 38  1  0
  3 39  1  0
  3 40  1  0
 12 41  1  0
 13 42  1  0
 19 43  1  0
 19 44  1  0
 20 45  1  0
 20 46  1  0
 22 47  1  0
 22 48  1  0
 23 49  1  0
 23 50  1  0
 24 51  1  0
 25 52  1  0
 26 53  1  0
 29 54  1  0
 29 55  1  0
 29 56  1  0
 32 57  1  0
 32 58  1  0
 33 59  1  0
 33 60  1  0
 34 61  1  0
 34 62  1  0
 34 63  1  0
M  CHG  1  10  -1
M  END
>  <UniqueID>  (61) 
58

>  <SMILES>  (61) 
C=CCn1c(=O)c(C(=O)[N-]c2ccc(S(=O)(=O)N3CCOCC3)cc2)cc2c(C)nc(CCC)n21

>  <Energy>  (61) 
121.63969615047883

>  <Genealogy>  (61) 
C=CCn1c(=O)c(C(=O)[N-]c2ccc(S(=O)(=O)N3CCOCC3)cc2)cc2c(C)nc(CCC)n21 (protonated)
C=CCn1c(=O)c(C(=O)[N-]c2ccc(S(=O)(=O)N3CCOCC3)cc2)cc2c(C)nc(CCC)n21 (3D coordinates assigned)
C=CCn1c(=O)c(C(=O)[N-]c2ccc(S(=O)(=O)N3CCOCC3)cc2)cc2c(C)nc(CCC)n21 (nonaromatic ring conformer: 121.63969615047883 kcal/mol)

>  <smiles>  (61) 
C=CCn1c(=O)c(C(=O)Nc2ccc(S(=O)(=O)N3CCOCC3)cc2)cc2c(C)nc(CCC)n21

>  <score_type>  (61) 
oracle

>  <origin>  (61) 
adg

>  <m_score__min__energy>  (61) 
-10.24

>  <m_primary>  (61) 
energy

$$$$
61:0
     RDKit          3D

 59 62  0  0  0  0  0  0  0  0999 V2000
   55.3310   29.3180   44.8690 N   0  0  0  0  0  0  0  0  0  0  0  0
   56.6410   29.9070   43.9130 S   0  0  0  0  0  0  0  0  0  0  0  0
   56.1020   30.5940   42.6930 O   0  0  0  0  0  0  0  0  0  0  0  0
   57.5020   28.7530   43.4790 O   0  0  0  0  0  0  0  0  0  0  0  0
   57.5930   31.0440   44.8570 C   0  0  0  0  0  0  0  0  0  0  0  0
   58.8860   30.7080   45.2680 C   0  0  0  0  0  0  0  0  0  0  0  0
   59.6440   31.6170   46.0120 C   0  0  0  0  0  0  0  0  0  0  0  0
   59.1080   32.8650   46.3730 C   0  0  0  0  0  0  0  0  0  0  0  0
   59.9350   33.8360   47.1740 C   0  0  0  0  0  0  0  0  0  0  0  0
   61.2940   33.9160   46.6280 N   0  0  0  0  0  0  0  0  0  0  0  0
   62.4000   33.0420   47.6490 S   0  0  0  0  0  0  0  0  0  0  0  0
   63.2990   32.2100   46.7810 O   0  0  0  0  0  0  0  0  0  0  0  0
   63.2370   34.0290   48.4120 O   0  0  0  0  0  0  0  0  0  0  0  0
   61.5680   31.9730   48.7880 C   0  0  0  0  0  0  0  0  0  0  0  0
   61.2140   32.4550   50.0540 C   0  0  0  0  0  0  0  0  0  0  0  0
   60.5930   31.6140   50.9800 C   0  0  0  0  0  0  0  0  0  0  0  0
   60.3220   30.2810   50.6490 C   0  0  0  0  0  0  0  0  0  0  0  0
   60.6500   29.7900   49.3810 C   0  0  0  0  0  0  0  0  0  0  0  0
   60.3590   28.3860   49.0220 C   0  0  0  0  0  0  0  0  0  0  0  0
   60.6980   27.4610   49.8100 O   0  0  0  0  0  0  0  0  0  0  0  0
   59.6830   28.0670   47.7960 N   0  0  0  0  0  0  0  0  0  0  0  0
   58.4180   28.7480   47.4810 C   0  0  0  0  0  0  0  0  0  0  0  0
   57.7040   28.0820   46.2980 C   0  0  0  0  0  0  0  0  0  0  0  0
   57.7310   26.6180   46.4470 N   0  0  0  0  0  0  0  0  0  0  0  0
   56.5470   25.8370   46.1620 C   0  0  0  0  0  0  0  0  0  0  0  0
   55.4090   26.3880   46.1940 O   0  0  0  0  0  0  0  0  0  0  0  0
   56.6440   24.4070   45.7080 C   0  0  0  0  0  0  0  0  0  0  0  0
   57.2550   24.2310   44.3220 C   0  0  0  0  0  0  0  0  0  0  0  0
   55.7660   24.0100   44.5260 C   0  0  0  0  0  0  0  0  0  0  0  0
   59.0080   25.9510   46.7560 C   0  0  0  0  0  0  0  0  0  0  0  0
   60.1480   26.9540   46.9590 C   0  0  0  0  0  0  0  0  0  0  0  0
   61.2850   30.6370   48.4560 C   0  0  0  0  0  0  0  0  0  0  0  0
   57.8160   33.2050   45.9500 C   0  0  0  0  0  0  0  0  0  0  0  0
   57.0600   32.2940   45.2020 C   0  0  0  0  0  0  0  0  0  0  0  0
   55.5260   28.3080   45.0670 H   0  0  0  0  0  0  0  0  0  0  0  0
   59.3079   29.7266   45.0056 H   0  0  0  0  0  0  0  0  0  0  0  0
   60.6675   31.3535   46.3171 H   0  0  0  0  0  0  0  0  0  0  0  0
   59.4679   34.8311   47.1329 H   0  0  0  0  0  0  0  0  0  0  0  0
   59.9872   33.4879   48.2162 H   0  0  0  0  0  0  0  0  0  0  0  0
   61.3250   33.4720   45.6830 H   0  0  0  0  0  0  0  0  0  0  0  0
   61.4260   33.5010   50.3205 H   0  0  0  0  0  0  0  0  0  0  0  0
   60.3161   32.0000   51.9721 H   0  0  0  0  0  0  0  0  0  0  0  0
   59.8496   29.6176   51.3885 H   0  0  0  0  0  0  0  0  0  0  0  0
   57.7616   28.7098   48.3629 H   0  0  0  0  0  0  0  0  0  0  0  0
   58.6438   29.7893   47.2077 H   0  0  0  0  0  0  0  0  0  0  0  0
   56.6593   28.4246   46.2645 H   0  0  0  0  0  0  0  0  0  0  0  0
   58.2196   28.3576   45.3662 H   0  0  0  0  0  0  0  0  0  0  0  0
   56.8178   23.9895   46.7107 H   0  0  0  0  0  0  0  0  0  0  0  0
   57.6087   25.1091   43.7617 H   0  0  0  0  0  0  0  0  0  0  0  0
   58.0796   23.6331   43.9065 H   0  0  0  0  0  0  0  0  0  0  0  0
   55.0421   24.7281   44.1133 H   0  0  0  0  0  0  0  0  0  0  0  0
   55.0672   23.1860   44.3192 H   0  0  0  0  0  0  0  0  0  0  0  0
   58.8864   25.3612   47.6765 H   0  0  0  0  0  0  0  0  0  0  0  0
   59.2699   25.3089   45.9021 H   0  0  0  0  0  0  0  0  0  0  0  0
   60.9929   26.4524   47.4536 H   0  0  0  0  0  0  0  0  0  0  0  0
   60.4705   27.3424   45.9817 H   0  0  0  0  0  0  0  0  0  0  0  0
   61.5627   30.2509   47.4641 H   0  0  0  0  0  0  0  0  0  0  0  0
   57.3952   34.1886   46.2058 H   0  0  0  0  0  0  0  0  0  0  0  0
   56.0416   32.5608   44.8831 H   0  0  0  0  0  0  0  0  0  0  0  0
  1  2  1  0
  2  3  2  0
  2  4  2  0
  2  5  1  0
  5  6  2  0
  6  7  1  0
  7  8  2  0
  8  9  1  0
  9 10  1  0
 10 11  1  0
 11 12  2  0
 11 13  2  0
 11 14  1  0
 14 15  2  0
 15 16  1  0
 16 17  2  0
 17 18  1  0
 18 19  1  0
 19 20  2  0
 19 21  1  0
 21 22  1  0
 22 23  1  0
 23 24  1  0
 24 25  1  0
 25 26  2  0
 25 27  1  0
 27 28  1  0
 28 29  1  0
 24 30  1  0
 30 31  1  0
 18 32  2  0
  8 33  1  0
 33 34  2  0
 34  5  1  0
 32 14  1  0
 31 21  1  0
 29 27  1  0
  1 35  1  0
  6 36  1  0
  7 37  1  0
  9 38  1  0
  9 39  1  0
 10 40  1  0
 15 41  1  0
 16 42  1  0
 17 43  1  0
 22 44  1  0
 22 45  1  0
 23 46  1  0
 23 47  1  0
 27 48  1  0
 28 49  1  0
 28 50  1  0
 29 51  1  0
 29 52  1  0
 30 53  1  0
 30 54  1  0
 31 55  1  0
 31 56  1  0
 32 57  1  0
 33 58  1  0
 34 59  1  0
M  CHG  1   1  -1
M  END
>  <UniqueID>  (62) 
59

>  <SMILES>  (62) 
[NH-]S(=O)(=O)c1ccc(CNS(=O)(=O)c2cccc(C(=O)N3CCN(C(=O)C4CC4)CC3)c2)cc1

>  <Energy>  (62) 
327.91322103309676

>  <Genealogy>  (62) 
[NH-]S(=O)(=O)c1ccc(CNS(=O)(=O)c2cccc(C(=O)N3CCN(C(=O)C4CC4)CC3)c2)cc1 (protonated)
[NH-]S(=O)(=O)c1ccc(CNS(=O)(=O)c2cccc(C(=O)N3CCN(C(=O)C4CC4)CC3)c2)cc1 (3D coordinates assigned)
[NH-]S(=O)(=O)c1ccc(CNS(=O)(=O)c2cccc(C(=O)N3CCN(C(=O)C4CC4)CC3)c2)cc1 (nonaromatic ring conformer: 327.91322103309676 kcal/mol)

>  <smiles>  (62) 
NS(=O)(=O)c1ccc(CNS(=O)(=O)c2cccc(C(=O)N3CCN(C(=O)C4CC4)CC3)c2)cc1

>  <score_type>  (62) 
oracle

>  <origin>  (62) 
adg

>  <m_score__min__energy>  (62) 
-12.630000000000001

>  <m_primary>  (62) 
energy

$$$$
62:0
     RDKit          3D

 48 51  0  0  0  0  0  0  0  0999 V2000
   58.1130   21.7270   43.8710 C   0  0  0  0  0  0  0  0  0  0  0  0
   57.5190   22.7570   44.7710 C   0  0  0  0  0  0  0  0  0  0  0  0
   56.4560   23.5810   44.4600 C   0  0  0  0  0  0  0  0  0  0  0  0
   56.2460   24.3130   45.6110 C   0  0  0  0  0  0  0  0  0  0  0  0
   55.2160   25.3610   45.7530 C   0  0  0  0  0  0  0  0  0  0  0  0
   54.0060   25.0440   45.6060 O   0  0  0  0  0  0  0  0  0  0  0  0
   55.5260   26.7270   46.0500 N   0  0  0  0  0  0  0  0  0  0  0  0
   56.6130   27.5080   45.5360 C   0  0  0  0  0  0  0  0  0  0  0  0
   57.9400   27.0480   45.5640 C   0  0  0  0  0  0  0  0  0  0  0  0
   58.9630   27.8340   45.0280 C   0  0  0  0  0  0  0  0  0  0  0  0
   58.6750   29.0840   44.4740 C   0  0  0  0  0  0  0  0  0  0  0  0
   57.3590   29.5740   44.4770 C   0  0  0  0  0  0  0  0  0  0  0  0
   57.0560   30.9010   43.9050 C   0  0  0  0  0  0  0  0  0  0  0  0
   57.2190   31.1050   42.6710 O   0  0  0  0  0  0  0  0  0  0  0  0
   56.6140   31.9310   44.7390 O   0  0  0  0  0  0  0  0  0  0  0  0
   57.4780   32.9570   45.2180 C   0  0  0  0  0  0  0  0  0  0  0  0
   58.4790   32.3590   46.1540 C   0  0  0  0  0  0  0  0  0  0  0  0
   58.1900   31.2020   46.8050 N   0  0  0  0  0  0  0  0  0  0  0  0
   59.0660   30.6430   47.6790 C   0  0  0  0  0  0  0  0  0  0  0  0
   58.7460   29.5820   48.2800 O   0  0  0  0  0  0  0  0  0  0  0  0
   60.3030   31.2650   47.9190 C   0  0  0  0  0  0  0  0  0  0  0  0
   61.2490   30.7430   48.8180 C   0  0  0  0  0  0  0  0  0  0  0  0
   62.4600   31.4080   49.0250 C   0  0  0  0  0  0  0  0  0  0  0  0
   62.7380   32.5950   48.3360 C   0  0  0  0  0  0  0  0  0  0  0  0
   64.2580   33.4280   48.6060 Cl  0  0  0  0  0  0  0  0  0  0  0  0
   61.7970   33.1260   47.4460 C   0  0  0  0  0  0  0  0  0  0  0  0
   60.5830   32.4650   47.2290 C   0  0  0  0  0  0  0  0  0  0  0  0
   59.6650   32.9860   46.3750 N   0  0  0  0  0  0  0  0  0  0  0  0
   56.3360   28.7820   45.0240 C   0  0  0  0  0  0  0  0  0  0  0  0
   57.1680   23.9440   46.5330 N   0  0  0  0  0  0  0  0  0  0  0  0
   57.3730   24.4890   47.8700 C   0  0  0  0  0  0  0  0  0  0  0  0
   57.9310   22.9860   46.0320 N   0  0  0  0  0  0  0  0  0  0  0  0
   58.5717   20.9315   44.4766 H   0  0  0  0  0  0  0  0  0  0  0  0
   57.3247   21.2962   43.2362 H   0  0  0  0  0  0  0  0  0  0  0  0
   58.8807   22.1935   43.2362 H   0  0  0  0  0  0  0  0  0  0  0  0
   55.9026   23.6406   43.5112 H   0  0  0  0  0  0  0  0  0  0  0  0
   58.1736   26.0690   46.0079 H   0  0  0  0  0  0  0  0  0  0  0  0
   59.9999   27.4672   45.0422 H   0  0  0  0  0  0  0  0  0  0  0  0
   59.4827   29.6869   44.0335 H   0  0  0  0  0  0  0  0  0  0  0  0
   58.0003   33.4240   44.3699 H   0  0  0  0  0  0  0  0  0  0  0  0
   56.8880   33.7205   45.7461 H   0  0  0  0  0  0  0  0  0  0  0  0
   61.0355   29.8095   49.3593 H   0  0  0  0  0  0  0  0  0  0  0  0
   63.1972   30.9981   49.7311 H   0  0  0  0  0  0  0  0  0  0  0  0
   62.0125   34.0654   46.9158 H   0  0  0  0  0  0  0  0  0  0  0  0
   55.3058   29.1666   45.0506 H   0  0  0  0  0  0  0  0  0  0  0  0
   57.0898   23.7361   48.6203 H   0  0  0  0  0  0  0  0  0  0  0  0
   58.4326   24.7548   47.9991 H   0  0  0  0  0  0  0  0  0  0  0  0
   56.7513   25.3872   47.9991 H   0  0  0  0  0  0  0  0  0  0  0  0
  1  2  1  0
  2  3  1  0
  3  4  2  0
  4  5  1  0
  5  6  2  0
  5  7  1  0
  7  8  1  0
  8  9  2  0
  9 10  1  0
 10 11  2  0
 11 12  1  0
 12 13  1  0
 13 14  2  0
 13 15  1  0
 15 16  1  0
 16 17  1  0
 17 18  2  0
 18 19  1  0
 19 20  2  0
 19 21  1  0
 21 22  2  0
 22 23  1  0
 23 24  2  0
 24 25  1  0
 24 26  1  0
 26 27  2  0
 27 28  1  0
 12 29  2  0
  4 30  1  0
 30 31  1  0
 30 32  1  0
 32  2  2  0
 29  8  1  0
 28 17  1  0
 27 21  1  0
  1 33  1  0
  1 34  1  0
  1 35  1  0
  3 36  1  0
  9 37  1  0
 10 38  1  0
 11 39  1  0
 16 40  1  0
 16 41  1  0
 22 42  1  0
 23 43  1  0
 26 44  1  0
 29 45  1  0
 31 46  1  0
 31 47  1  0
 31 48  1  0
M  CHG  2   7  -1  28  -1
M  END
>  <UniqueID>  (63) 
60

>  <SMILES>  (63) 
Cc1cc(C(=O)[N-]c2cccc(C(=O)OCc3nc(=O)c4ccc(Cl)cc4[n-]3)c2)n(C)n1

>  <Energy>  (63) 
90.99992503785396

>  <Genealogy>  (63) 
Cc1cc(C(=O)[N-]c2cccc(C(=O)OCc3nc(=O)c4ccc(Cl)cc4[n-]3)c2)n(C)n1 (protonated)
Cc1cc(C(=O)[N-]c2cccc(C(=O)OCc3nc(=O)c4ccc(Cl)cc4[n-]3)c2)n(C)n1 (3D coordinates assigned)
Cc1cc(C(=O)[N-]c2cccc(C(=O)OCc3nc(=O)c4ccc(Cl)cc4[n-]3)c2)n(C)n1 (optimized conformer: 90.99992503785396 kcal/mol)

>  <smiles>  (63) 
Cc1cc(C(=O)Nc2cccc(C(=O)OCc3nc(=O)c4ccc(Cl)cc4[nH]3)c2)n(C)n1

>  <score_type>  (63) 
oracle

>  <origin>  (63) 
adg

>  <m_score__min__energy>  (63) 
-12.210000000000001

>  <m_primary>  (63) 
energy

$$$$
63:0
     RDKit          3D

 67 70  0  0  0  0  0  0  0  0999 V2000
   62.3908   34.3503   48.4237 H   0  0  0  0  0  0  0  0  0  0  0  0
   61.8940   34.3360   49.4050 C   0  0  0  0  0  0  0  0  0  0  0  0
   61.4170   35.2480   49.7933 H   0  0  0  0  0  0  0  0  0  0  0  0
   61.8700   33.2130   50.1240 C   0  0  0  0  0  0  0  0  0  0  0  0
   62.4680   31.9950   49.5480 C   0  0  0  0  0  0  0  0  0  0  0  0
   63.6450   31.6920   49.8870 O   0  0  0  0  0  0  0  0  0  0  0  0
   61.7070   31.1180   48.6200 C   0  0  0  0  0  0  0  0  0  0  0  0
   61.1330   29.9920   49.0890 C   0  0  0  0  0  0  0  0  0  0  0  0
   61.2505   29.7271   50.1501 H   0  0  0  0  0  0  0  0  0  0  0  0
   60.3510   29.1100   48.2050 C   0  0  0  0  0  0  0  0  0  0  0  0
   59.3000   28.4440   48.7200 C   0  0  0  0  0  0  0  0  0  0  0  0
   59.1708   28.4370   49.8124 H   0  0  0  0  0  0  0  0  0  0  0  0
   58.2920   27.7080   47.8760 C   0  0  0  0  0  0  0  0  0  0  0  0
   58.5381   26.6359   47.8790 H   0  0  0  0  0  0  0  0  0  0  0  0
   57.2928   27.8816   48.3019 H   0  0  0  0  0  0  0  0  0  0  0  0
   58.2930   28.2200   46.4160 C   0  0  1  0  0  0  0  0  0  0  0  0
   57.9552   29.2667   46.4362 H   0  0  0  0  0  0  0  0  0  0  0  0
   59.7550   28.1950   45.8640 C   0  0  1  0  0  0  0  0  0  0  0  0
   60.4260   26.7880   46.0060 C   0  0  0  0  0  0  0  0  0  0  0  0
   60.5427   26.5433   47.0721 H   0  0  0  0  0  0  0  0  0  0  0  0
   59.7928   26.0293   45.5229 H   0  0  0  0  0  0  0  0  0  0  0  0
   61.4141   26.8026   45.5229 H   0  0  0  0  0  0  0  0  0  0  0  0
   59.7100   28.5910   44.3670 C   0  0  0  0  0  0  0  0  0  0  0  0
   59.2397   29.5819   44.2835 H   0  0  0  0  0  0  0  0  0  0  0  0
   60.7475   28.5880   44.0014 H   0  0  0  0  0  0  0  0  0  0  0  0
   58.9200   27.6020   43.4910 C   0  0  0  0  0  0  0  0  0  0  0  0
   58.4945   28.1605   42.6442 H   0  0  0  0  0  0  0  0  0  0  0  0
   59.6341   26.8232   43.1852 H   0  0  0  0  0  0  0  0  0  0  0  0
   57.7670   26.8720   44.2110 C   0  0  0  0  0  0  0  0  0  0  0  0
   56.9546   26.7220   43.4847 H   0  0  0  0  0  0  0  0  0  0  0  0
   58.1957   25.9348   44.5956 H   0  0  0  0  0  0  0  0  0  0  0  0
   57.1740   27.6130   45.4500 C   0  0  1  0  0  0  0  0  0  0  0  0
   56.2660   26.6310   46.1920 C   0  0  0  0  0  0  0  0  0  0  0  0
   56.7520   25.6940   46.8820 O   0  0  0  0  0  0  0  0  0  0  0  0
   54.8820   26.7030   46.0450 O   0  0  0  0  0  0  0  0  0  0  0  0
   56.2870   28.7690   44.9030 C   0  0  0  0  0  0  0  0  0  0  0  0
   55.8561   29.3305   45.7451 H   0  0  0  0  0  0  0  0  0  0  0  0
   56.9015   29.4435   44.2887 H   0  0  0  0  0  0  0  0  0  0  0  0
   55.4764   28.3500   44.2887 H   0  0  0  0  0  0  0  0  0  0  0  0
   60.6360   29.1960   46.7130 C   0  0  1  0  0  0  0  0  0  0  0  0
   61.6437   28.8401   46.4524 H   0  0  0  0  0  0  0  0  0  0  0  0
   60.5610   30.6930   46.3450 C   0  0  0  0  0  0  0  0  0  0  0  0
   60.7533   30.8126   45.2686 H   0  0  0  0  0  0  0  0  0  0  0  0
   59.5589   31.0735   46.5921 H   0  0  0  0  0  0  0  0  0  0  0  0
   61.6140   31.4920   47.1430 C   0  0  0  0  0  0  0  0  0  0  0  0
   62.5978   31.3193   46.6823 H   0  0  0  0  0  0  0  0  0  0  0  0
   61.3007   32.5458   47.1064 H   0  0  0  0  0  0  0  0  0  0  0  0
   61.1980   33.2010   51.4470 C   0  0  0  0  0  0  0  0  0  0  0  0
   61.6402   33.7877   52.2656 H   0  0  0  0  0  0  0  0  0  0  0  0
   60.0770   32.5080   51.6900 C   0  0  0  0  0  0  0  0  0  0  0  0
   60.0176   31.8967   52.6026 H   0  0  0  0  0  0  0  0  0  0  0  0
   58.9220   32.5370   50.7770 C   0  0  0  0  0  0  0  0  0  0  0  0
   57.7760   32.7610   51.2520 O   0  0  0  0  0  0  0  0  0  0  0  0
   59.0940   32.2820   49.3760 N   0  0  0  0  0  0  0  0  0  0  0  0
   58.1630   32.4340   48.4850 C   0  0  0  0  0  0  0  0  0  0  0  0
   57.1647   32.0066   48.6602 H   0  0  0  0  0  0  0  0  0  0  0  0
   58.4330   33.1750   47.2400 C   0  0  0  0  0  0  0  0  0  0  0  0
   59.3460   34.2480   47.2160 C   0  0  0  0  0  0  0  0  0  0  0  0
   59.8602   34.5507   48.1401 H   0  0  0  0  0  0  0  0  0  0  0  0
   59.6010   34.9300   46.0210 C   0  0  0  0  0  0  0  0  0  0  0  0
   60.3247   35.7583   46.0050 H   0  0  0  0  0  0  0  0  0  0  0  0
   58.9370   34.5600   44.8470 C   0  0  0  0  0  0  0  0  0  0  0  0
   59.1314   35.1037   43.9107 H   0  0  0  0  0  0  0  0  0  0  0  0
   58.0250   33.4980   44.8630 C   0  0  0  0  0  0  0  0  0  0  0  0
   57.4998   33.2108   43.9401 H   0  0  0  0  0  0  0  0  0  0  0  0
   57.7810   32.8020   46.0510 C   0  0  0  0  0  0  0  0  0  0  0  0
   57.0753   31.9582   46.0556 H   0  0  0  0  0  0  0  0  0  0  0  0
  1  2  1  0
  2  3  1  0
  2  4  2  0
  4  5  1  0
  5  6  2  0
  5  7  1  0
  7  8  2  0
  8  9  1  0
  8 10  1  0
 10 11  2  0
 11 12  1  0
 11 13  1  0
 13 14  1  0
 13 15  1  0
 13 16  1  0
 16 17  1  1
 16 18  1  0
 18 19  1  6
 19 20  1  0
 19 21  1  0
 19 22  1  0
 18 23  1  0
 23 24  1  0
 23 25  1  0
 23 26  1  0
 26 27  1  0
 26 28  1  0
 26 29  1  0
 29 30  1  0
 29 31  1  0
 29 32  1  0
 32 33  1  0
 33 34  2  0
 33 35  1  0
 32 36  1  6
 36 37  1  0
 36 38  1  0
 36 39  1  0
 18 40  1  0
 40 41  1  1
 40 42  1  0
 42 43  1  0
 42 44  1  0
 42 45  1  0
 45 46  1  0
 45 47  1  0
  4 48  1  0
 48 49  1  0
 48 50  2  3
 50 51  1  0
 50 52  1  0
 52 53  2  0
 52 54  1  0
 54 55  2  0
 55 56  1  0
 55 57  1  0
 57 58  2  0
 58 59  1  0
 58 60  1  0
 60 61  1  0
 60 62  2  0
 62 63  1  0
 62 64  1  0
 64 65  1  0
 64 66  2  0
 66 67  1  0
 45  7  1  0
 66 57  1  0
 40 10  1  0
 32 16  1  0
M  CHG  1  35  -1
M  END
>  <UniqueID>  (64) 
61

>  <SMILES>  (64) 
C=C(C=CC(=O)/N=C/c1ccccc1)C(=O)C1=CC2=CC[C@H]3C(C)(CCC[C@@]3(C)C(=O)[O-])C2CC1

>  <Energy>  (64) 
107.16086945574051

>  <Genealogy>  (64) 
C=C(C=CC(=O)N=Cc1ccccc1)C(=O)C1=CC2=CCC3C(C)(C(=O)[O-])CCCC3(C)C2CC1 (protonated)
C=C(C=CC(=O)N=Cc1ccccc1)C(=O)C1=CC2=CC[C@H]3C(C)(CCC[C@@]3(C)C(=O)[O-])C2CC1 (chirality)
C=C(C=CC(=O)/N=C/c1ccccc1)C(=O)C1=CC2=CC[C@H]3C(C)(CCC[C@@]3(C)C(=O)[O-])C2CC1 (cis-trans isomerization)
C=C(C=CC(=O)/N=C/c1ccccc1)C(=O)C1=CC2=CC[C@H]3C(C)(CCC[C@@]3(C)C(=O)[O-])C2CC1 (3D coordinates assigned)
C=C(C=CC(=O)/N=C/c1ccccc1)C(=O)C1=CC2=CC[C@H]3C(C)(CCC[C@@]3(C)C(=O)[O-])C2CC1 (nonaromatic ring conformer: 107.16086945574051 kcal/mol)

>  <smiles>  (64) 
C=C(C=CC(=O)N=Cc1ccccc1)C(=O)C1=CC2=CCC3C(C)(C(=O)O)CCCC3(C)C2CC1

>  <score_type>  (64) 
oracle

>  <origin>  (64) 
adg

>  <m_score__min__energy>  (64) 
-12.73

>  <m_primary>  (64) 
energy

$$$$
64:0
     RDKit          3D

 40 42  0  0  1  0  0  0  0  0999 V2000
   55.1540   29.1780   44.9510 O   0  0  0  0  0  0  0  0  0  0  0  0
   56.3260   29.9170   44.7810 N   0  0  0  0  0  0  0  0  0  0  0  0
   57.4190   29.3350   44.4230 C   0  0  0  0  0  0  0  0  0  0  0  0
   57.4580   27.9760   44.1750 O   0  0  0  0  0  0  0  0  0  0  0  0
   58.6420   30.1270   44.2750 C   0  0  1  0  0  0  0  0  0  0  0  0
   58.3740   31.4100   43.5610 C   0  0  0  0  0  0  0  0  0  0  0  0
   58.2270   32.3820   44.6590 C   0  0  0  0  0  0  0  0  0  0  0  0
   57.6770   33.6620   44.6660 C   0  0  0  0  0  0  0  0  0  0  0  0
   57.6240   34.4010   45.8270 C   0  0  0  0  0  0  0  0  0  0  0  0
   58.1280   33.8350   46.9730 C   0  0  0  0  0  0  0  0  0  0  0  0
   58.6700   32.5660   46.9530 C   0  0  0  0  0  0  0  0  0  0  0  0
   58.7380   31.8060   45.8130 C   0  0  0  0  0  0  0  0  0  0  0  0
   59.2540   30.5130   45.5540 N   0  0  0  0  0  0  0  0  0  0  0  0
   60.1470   29.6550   46.2500 C   0  0  0  0  0  0  0  0  0  0  0  0
   60.1890   29.6760   47.7050 C   0  0  0  0  0  0  0  0  0  0  0  0
   61.0050   30.3930   48.4410 C   0  0  0  0  0  0  0  0  0  0  0  0
   61.8080   31.5170   48.0440 C   0  0  0  0  0  0  0  0  0  0  0  0
   62.9600   31.5090   47.3140 C   0  0  0  0  0  0  0  0  0  0  0  0
   63.7240   32.6620   47.0730 C   0  0  0  0  0  0  0  0  0  0  0  0
   63.3380   33.8760   47.5700 C   0  0  0  0  0  0  0  0  0  0  0  0
   62.1590   33.8880   48.3140 C   0  0  0  0  0  0  0  0  0  0  0  0
   61.4180   32.7680   48.5480 C   0  0  0  0  0  0  0  0  0  0  0  0
   55.1460   28.1700   44.8790 H   0  0  0  0  0  0  0  0  0  0  0  0
   56.7110   27.5030   43.6400 H   0  0  0  0  0  0  0  0  0  0  0  0
   59.3210   29.4669   43.7153 H   0  0  0  0  0  0  0  0  0  0  0  0
   59.2151   31.6797   42.9054 H   0  0  0  0  0  0  0  0  0  0  0  0
   57.4918   31.3629   42.9056 H   0  0  0  0  0  0  0  0  0  0  0  0
   57.2801   34.0877   43.7326 H   0  0  0  0  0  0  0  0  0  0  0  0
   57.1918   35.4125   45.8365 H   0  0  0  0  0  0  0  0  0  0  0  0
   58.0992   34.3995   47.9167 H   0  0  0  0  0  0  0  0  0  0  0  0
   59.0640   32.1464   47.8904 H   0  0  0  0  0  0  0  0  0  0  0  0
   59.8946   28.6260   45.9541 H   0  0  0  0  0  0  0  0  0  0  0  0
   61.1387   30.0341   45.9623 H   0  0  0  0  0  0  0  0  0  0  0  0
   59.4717   29.0325   48.2354 H   0  0  0  0  0  0  0  0  0  0  0  0
   61.0847   30.0958   49.4971 H   0  0  0  0  0  0  0  0  0  0  0  0
   63.3072   30.5535   46.8939 H   0  0  0  0  0  0  0  0  0  0  0  0
   64.6452   32.5878   46.4765 H   0  0  0  0  0  0  0  0  0  0  0  0
   63.9237   34.7901   47.3931 H   0  0  0  0  0  0  0  0  0  0  0  0
   61.8110   34.8445   48.7311 H   0  0  0  0  0  0  0  0  0  0  0  0
   60.4964   32.8459   49.1434 H   0  0  0  0  0  0  0  0  0  0  0  0
  1  2  1  0
  2  3  2  0
  3  4  1  0
  3  5  1  0
  5  6  1  0
  6  7  1  0
  7  8  2  0
  8  9  1  0
  9 10  2  0
 10 11  1  0
 11 12  2  0
 12 13  1  0
 13 14  1  0
 14 15  1  0
 15 16  2  0
 16 17  1  0
 17 18  2  0
 18 19  1  0
 19 20  2  0
 20 21  1  0
 21 22  2  0
 13  5  1  0
 22 17  1  0
 12  7  1  0
  1 23  1  0
  4 24  1  0
  5 25  1  6
  6 26  1  0
  6 27  1  0
  8 28  1  0
  9 29  1  0
 10 30  1  0
 11 31  1  0
 14 32  1  0
 14 33  1  0
 15 34  1  0
 16 35  1  0
 18 36  1  0
 19 37  1  0
 20 38  1  0
 21 39  1  0
 22 40  1  0
M  END
>  <smiles>  (65) 
ON=C(O)C1Cc2ccccc2N1CC=Cc1ccccc1

>  <score_type>  (65) 
oracle

>  <origin>  (65) 
adg

>  <m_score__min__energy>  (65) 
-9.5800000000000001

>  <m_primary>  (65) 
energy

$$$$
65:0
     RDKit          3D

 51 54  0  0  0  0  0  0  0  0999 V2000
   54.8266   27.2091   53.4538 H   0  0  0  0  0  0  0  0  0  0  0  0
   54.1140   27.9630   53.0880 C   0  0  0  0  0  0  0  0  0  0  0  0
   53.0573   27.6953   52.9410 H   0  0  0  0  0  0  0  0  0  0  0  0
   54.5340   29.2100   52.8210 C   0  0  0  0  0  0  0  0  0  0  0  0
   53.7550   30.2800   52.3510 C   0  0  0  0  0  0  0  0  0  0  0  0
   52.4210   30.4170   52.2270 C   0  0  0  0  0  0  0  0  0  0  0  0
   51.8113   30.2157   53.1201 H   0  0  0  0  0  0  0  0  0  0  0  0
   51.7070   30.8120   51.0030 C   0  0  0  0  0  0  0  0  0  0  0  0
   51.6890   30.0720   49.8830 N   0  0  0  0  0  0  0  0  0  0  0  0
   51.0420   30.8600   48.9980 C   0  0  0  0  0  0  0  0  0  0  0  0
   50.8080   30.5020   47.8140 O   0  0  0  0  0  0  0  0  0  0  0  0
   50.6740   32.0690   49.4760 N   0  0  0  0  0  0  0  0  0  0  0  0
   51.1160   32.0280   50.7430 C   0  0  0  0  0  0  0  0  0  0  0  0
   51.0080   33.0900   51.6320 O   0  0  0  0  0  0  0  0  0  0  0  0
   54.6450   31.2770   51.9960 C   0  0  0  0  0  0  0  0  0  0  0  0
   54.3919   32.2524   51.5550 H   0  0  0  0  0  0  0  0  0  0  0  0
   55.9100   30.8180   52.2990 C   0  0  0  0  0  0  0  0  0  0  0  0
   57.1420   31.5890   52.0230 C   0  0  0  0  0  0  0  0  0  0  0  0
   57.3980   32.5890   52.7490 O   0  0  0  0  0  0  0  0  0  0  0  0
   57.9450   31.3210   50.8470 N   0  0  0  0  0  0  0  0  0  0  0  0
   57.3080   31.0720   50.0540 H   0  0  0  0  0  0  0  0  0  0  0  0
   58.8690   30.1760   51.0750 C   0  0  0  0  0  0  0  0  0  0  0  0
   59.2558   30.2363   52.1030 H   0  0  0  0  0  0  0  0  0  0  0  0
   58.2972   29.2515   50.9066 H   0  0  0  0  0  0  0  0  0  0  0  0
   60.0640   30.1660   50.0990 C   0  0  0  0  0  0  0  0  0  0  0  0
   60.9465   30.5866   50.6033 H   0  0  0  0  0  0  0  0  0  0  0  0
   60.2613   29.1289   49.7898 H   0  0  0  0  0  0  0  0  0  0  0  0
   59.7630   30.9650   48.9090 N   0  0  0  0  0  0  0  0  0  0  0  0
   59.9270   30.4260   47.5900 C   0  0  0  0  0  0  0  0  0  0  0  0
   60.4770   31.1190   46.6930 O   0  0  0  0  0  0  0  0  0  0  0  0
   59.4090   29.1360   47.2610 N   0  0  0  0  0  0  0  0  0  0  0  0
   58.5190   28.1220   47.8580 C   0  0  0  0  0  0  0  0  0  0  0  0
   58.9734   27.6139   48.7213 H   0  0  0  0  0  0  0  0  0  0  0  0
   57.5678   28.4775   48.2809 H   0  0  0  0  0  0  0  0  0  0  0  0
   58.4410   27.2480   46.6510 C   0  0  0  0  0  0  0  0  0  0  0  0
   58.8775   26.2445   46.7625 H   0  0  0  0  0  0  0  0  0  0  0  0
   57.4977   26.9208   46.1894 H   0  0  0  0  0  0  0  0  0  0  0  0
   59.3440   28.2820   46.0610 C   0  0  0  0  0  0  0  0  0  0  0  0
   60.3255   27.8755   45.7755 H   0  0  0  0  0  0  0  0  0  0  0  0
   59.0166   28.7577   45.1248 H   0  0  0  0  0  0  0  0  0  0  0  0
   59.3330   32.3550   49.0800 C   0  0  0  0  0  0  0  0  0  0  0  0
   60.2072   33.0177   48.9992 H   0  0  0  0  0  0  0  0  0  0  0  0
   58.5996   32.6012   48.2980 H   0  0  0  0  0  0  0  0  0  0  0  0
   58.6770   32.5460   50.4590 C   0  0  0  0  0  0  0  0  0  0  0  0
   59.4560   32.7566   51.2065 H   0  0  0  0  0  0  0  0  0  0  0  0
   57.9701   33.3873   50.4083 H   0  0  0  0  0  0  0  0  0  0  0  0
   55.8430   29.5760   52.8340 N   0  0  0  0  0  0  0  0  0  0  0  0
   56.9690   28.7770   53.3310 C   0  0  0  0  0  0  0  0  0  0  0  0
   56.9639   28.7806   54.4310 H   0  0  0  0  0  0  0  0  0  0  0  0
   56.8738   27.7432   52.9673 H   0  0  0  0  0  0  0  0  0  0  0  0
   57.9133   29.2082   52.9673 H   0  0  0  0  0  0  0  0  0  0  0  0
  1  2  1  0
  2  3  1  0
  2  4  2  0
  4  5  1  0
  5  6  2  0
  6  7  1  0
  6  8  1  0
  8  9  1  0
  9 10  1  0
 10 11  2  0
 10 12  1  0
 12 13  1  0
 13 14  1  0
  5 15  1  0
 15 16  1  0
 15 17  2  0
 17 18  1  0
 18 19  2  0
 18 20  1  0
 20 21  1  0
 20 22  1  0
 22 23  1  0
 22 24  1  0
 22 25  1  0
 25 26  1  0
 25 27  1  0
 25 28  1  0
 28 29  1  0
 29 30  2  0
 29 31  1  0
 31 32  1  0
 32 33  1  0
 32 34  1  0
 32 35  1  0
 35 36  1  0
 35 37  1  0
 35 38  1  0
 38 39  1  0
 38 40  1  0
 28 41  1  0
 41 42  1  0
 41 43  1  0
 41 44  1  0
 44 45  1  0
 44 46  1  0
 17 47  1  0
 47 48  1  0
 48 49  1  0
 48 50  1  0
 48 51  1  0
 47  4  1  0
 13  8  2  0
 44 20  1  0
 38 31  1  0
M  CHG  4   9  -1  12  -1  14  -1  20   1
M  END
>  <UniqueID>  (66) 
62

>  <SMILES>  (66) 
C=c1/c(=C\c2[n-]c(=O)[n-]c2[O-])cc(C(=O)[NH+]2CCN(C(=O)N3CCC3)CC2)n1C

>  <Energy>  (66) 
181.2874333486873

>  <Genealogy>  (66) 
C=c1c(=Cc2[n-]c(=O)[n-]c2[O-])cc(C(=O)[NH+]2CCN(C(=O)N3CCC3)CC2)n1C (protonated)
C=c1/c(=C\c2[n-]c(=O)[n-]c2[O-])cc(C(=O)[NH+]2CCN(C(=O)N3CCC3)CC2)n1C (cis-trans isomerization)
C=c1/c(=C\c2[n-]c(=O)[n-]c2[O-])cc(C(=O)[NH+]2CCN(C(=O)N3CCC3)CC2)n1C (3D coordinates assigned)
C=c1/c(=C\c2[n-]c(=O)[n-]c2[O-])cc(C(=O)[NH+]2CCN(C(=O)N3CCC3)CC2)n1C (nonaromatic ring conformer: 181.2874333486873 kcal/mol)

>  <smiles>  (66) 
C=c1c(=Cc2[nH]c(=O)[nH]c2O)cc(C(=O)N2CCN(C(=O)N3CCC3)CC2)n1C

>  <score_type>  (66) 
oracle

>  <origin>  (66) 
adg

>  <m_score__min__energy>  (66) 
-16.140000000000001

>  <m_primary>  (66) 
energy

$$$$
66:0
     RDKit          3D

 43 46  0  0  0  0  0  0  0  0999 V2000
   53.9760   29.0940   51.9370 O   0  0  0  0  0  0  0  0  0  0  0  0
   54.4110   30.2750   51.8720 C   0  0  0  0  0  0  0  0  0  0  0  0
   53.4510   31.4180   52.0450 C   0  0  0  0  0  0  0  0  0  0  0  0
   52.4070   31.3810   50.9740 C   0  0  0  0  0  0  0  0  0  0  0  0
   52.3810   30.4790   49.9750 N   0  0  0  0  0  0  0  0  0  0  0  0
   51.3040   30.8530   49.2490 C   0  0  0  0  0  0  0  0  0  0  0  0
   50.9410   30.2400   48.2110 O   0  0  0  0  0  0  0  0  0  0  0  0
   50.6510   31.9390   49.7180 N   0  0  0  0  0  0  0  0  0  0  0  0
   51.3660   32.2630   50.8080 C   0  0  0  0  0  0  0  0  0  0  0  0
   51.0810   33.3510   51.6240 O   0  0  0  0  0  0  0  0  0  0  0  0
   55.7950   30.4850   51.5590 N   0  0  0  0  0  0  0  0  0  0  0  0
   56.8970   30.1860   52.4230 C   0  0  0  0  0  0  0  0  0  0  0  0
   56.7820   29.8410   53.7530 C   0  0  0  0  0  0  0  0  0  0  0  0
   58.0030   29.6780   54.3070 N   0  0  0  0  0  0  0  0  0  0  0  0
   58.8830   29.9430   53.3190 C   0  0  0  0  0  0  0  0  0  0  0  0
   60.2620   29.9040   53.4950 O   0  0  0  0  0  0  0  0  0  0  0  0
   58.2490   30.2730   52.1350 C   0  0  0  0  0  0  0  0  0  0  0  0
   58.9100   30.7680   50.8780 C   0  0  0  0  0  0  0  0  0  0  0  0
   59.2470   29.6160   49.9620 C   0  0  0  0  0  0  0  0  0  0  0  0
   58.5250   29.4240   48.7760 C   0  0  0  0  0  0  0  0  0  0  0  0
   58.8140   28.3470   47.9210 C   0  0  0  0  0  0  0  0  0  0  0  0
   58.0310   28.1860   46.6650 C   0  0  0  0  0  0  0  0  0  0  0  0
   57.0160   27.4380   46.6600 O   0  0  0  0  0  0  0  0  0  0  0  0
   58.3920   28.9080   45.3970 C   0  0  0  0  0  0  0  0  0  0  0  0
   58.5720   28.0100   44.1800 C   0  0  0  0  0  0  0  0  0  0  0  0
   59.7880   28.6090   44.8660 C   0  0  0  0  0  0  0  0  0  0  0  0
   59.8560   27.4680   48.2910 C   0  0  0  0  0  0  0  0  0  0  0  0
   60.2220   26.3980   47.4830 O   0  0  0  0  0  0  0  0  0  0  0  0
   60.5370   27.6690   49.4490 N   0  0  0  0  0  0  0  0  0  0  0  0
   60.2640   28.7020   50.2860 C   0  0  0  0  0  0  0  0  0  0  0  0
   60.9310   28.8270   51.3470 O   0  0  0  0  0  0  0  0  0  0  0  0
   52.9655   31.3392   53.0289 H   0  0  0  0  0  0  0  0  0  0  0  0
   54.0045   32.3660   51.9748 H   0  0  0  0  0  0  0  0  0  0  0  0
   55.8291   29.7160   54.2881 H   0  0  0  0  0  0  0  0  0  0  0  0
   60.8500   29.3670   52.8670 H   0  0  0  0  0  0  0  0  0  0  0  0
   58.2267   31.4551   50.3574 H   0  0  0  0  0  0  0  0  0  0  0  0
   59.8408   31.2876   51.1494 H   0  0  0  0  0  0  0  0  0  0  0  0
   57.7209   30.1263   48.5109 H   0  0  0  0  0  0  0  0  0  0  0  0
   57.8191   29.8211   45.6163 H   0  0  0  0  0  0  0  0  0  0  0  0
   58.3723   26.9311   44.2585 H   0  0  0  0  0  0  0  0  0  0  0  0
   58.1824   28.0076   43.1513 H   0  0  0  0  0  0  0  0  0  0  0  0
   60.4684   27.9637   45.4410 H   0  0  0  0  0  0  0  0  0  0  0  0
   60.6427   29.2196   44.5393 H   0  0  0  0  0  0  0  0  0  0  0  0
  1  2  2  0
  2  3  1  0
  3  4  1  0
  4  5  1  0
  5  6  1  0
  6  7  2  0
  6  8  1  0
  8  9  1  0
  9 10  1  0
  2 11  1  0
 11 12  1  0
 12 13  2  0
 13 14  1  0
 14 15  1  0
 15 16  1  0
 15 17  2  0
 17 18  1  0
 18 19  1  0
 19 20  2  0
 20 21  1  0
 21 22  1  0
 22 23  2  0
 22 24  1  0
 24 25  1  0
 25 26  1  0
 21 27  2  0
 27 28  1  0
 27 29  1  0
 29 30  1  0
 30 31  2  0
  9  4  2  0
 17 12  1  0
 30 19  1  0
 26 24  1  0
  3 32  1  0
  3 33  1  0
 13 34  1  0
 16 35  1  0
 18 36  1  0
 18 37  1  0
 20 38  1  0
 24 39  1  0
 25 40  1  0
 25 41  1  0
 26 42  1  0
 26 43  1  0
M  CHG  7   5  -1   8  -1  10  -1  11  -1  14  -1  28  -1  29  -1
M  END
>  <UniqueID>  (67) 
63

>  <SMILES>  (67) 
O=C(Cc1[n-]c(=O)[n-]c1[O-])[N-]c1c[n-]c(O)c1Cc1cc(C(=O)C2CC2)c([O-])[n-]c1=O

>  <Energy>  (67) 
373.1874879120262

>  <Genealogy>  (67) 
O=C(Cc1[n-]c(=O)[n-]c1[O-])[N-]c1c[n-]c(O)c1Cc1cc(C(=O)C2CC2)c([O-])[n-]c1=O (protonated)
O=C(Cc1[n-]c(=O)[n-]c1[O-])[N-]c1c[n-]c(O)c1Cc1cc(C(=O)C2CC2)c([O-])[n-]c1=O (3D coordinates assigned)
O=C(Cc1[n-]c(=O)[n-]c1[O-])[N-]c1c[n-]c(O)c1Cc1cc(C(=O)C2CC2)c([O-])[n-]c1=O (nonaromatic ring conformer: 373.1874879120262 kcal/mol)

>  <smiles>  (67) 
O=C(Cc1[nH]c(=O)[nH]c1O)Nc1c[nH]c(O)c1Cc1cc(C(=O)C2CC2)c(O)[nH]c1=O

>  <score_type>  (67) 
oracle

>  <origin>  (67) 
adg

>  <m_score__min__energy>  (67) 
-19.52

>  <m_primary>  (67) 
energy

$$$$
67:0
     RDKit          3D

 52 55  0  0  0  0  0  0  0  0999 V2000
   59.2394   35.3703   46.8440 H   0  0  0  0  0  0  0  0  0  0  0  0
   58.7990   34.5740   46.2260 C   0  0  0  0  0  0  0  0  0  0  0  0
   59.1400   34.4690   44.8750 C   0  0  0  0  0  0  0  0  0  0  0  0
   59.8527   35.1798   44.4314 H   0  0  0  0  0  0  0  0  0  0  0  0
   58.5760   33.4610   44.0860 C   0  0  0  0  0  0  0  0  0  0  0  0
   58.8521   33.3772   43.0245 H   0  0  0  0  0  0  0  0  0  0  0  0
   57.6580   32.5550   44.6440 C   0  0  0  0  0  0  0  0  0  0  0  0
   57.0540   31.4640   43.7960 C   0  0  0  0  0  0  0  0  0  0  0  0
   57.8598   30.9287   43.2725 H   0  0  0  0  0  0  0  0  0  0  0  0
   56.3630   31.9251   43.0750 H   0  0  0  0  0  0  0  0  0  0  0  0
   56.3020   30.5120   44.6160 N   0  0  0  0  0  0  0  0  0  0  0  0
   56.7750   29.4820   45.2600 C   0  0  0  0  0  0  0  0  0  0  0  0
   57.9710   29.6040   45.8860 N   0  0  0  0  0  0  0  0  0  0  0  0
   58.5100   28.5600   46.5660 C   0  0  0  0  0  0  0  0  0  0  0  0
   59.6530   28.6720   47.1760 N   0  0  0  0  0  0  0  0  0  0  0  0
   59.8830   29.3640   48.4490 C   0  0  1  0  0  0  0  0  0  0  0  0
   60.6394   28.8343   49.0467 H   0  0  0  0  0  0  0  0  0  0  0  0
   60.4370   30.7640   48.2120 C   0  0  0  0  0  0  0  0  0  0  0  0
   61.4960   30.9520   47.3030 C   0  0  0  0  0  0  0  0  0  0  0  0
   61.8828   30.0932   46.7347 H   0  0  0  0  0  0  0  0  0  0  0  0
   62.0610   32.2140   47.1140 C   0  0  0  0  0  0  0  0  0  0  0  0
   62.8775   32.3466   46.3889 H   0  0  0  0  0  0  0  0  0  0  0  0
   61.5930   33.3070   47.8420 C   0  0  0  0  0  0  0  0  0  0  0  0
   62.0345   34.3022   47.6852 H   0  0  0  0  0  0  0  0  0  0  0  0
   60.5640   33.1380   48.7700 C   0  0  0  0  0  0  0  0  0  0  0  0
   60.1956   34.0041   49.3394 H   0  0  0  0  0  0  0  0  0  0  0  0
   59.9950   31.8720   48.9830 C   0  0  0  0  0  0  0  0  0  0  0  0
   58.8650   31.7500   49.9760 C   0  0  0  0  0  0  0  0  0  0  0  0
   57.9399   32.1143   49.5054 H   0  0  0  0  0  0  0  0  0  0  0  0
   59.1288   32.3483   50.8606 H   0  0  0  0  0  0  0  0  0  0  0  0
   58.6480   30.3080   50.4350 C   0  0  0  0  0  0  0  0  0  0  0  0
   57.7138   30.2460   51.0125 H   0  0  0  0  0  0  0  0  0  0  0  0
   59.4958   29.9972   51.0632 H   0  0  0  0  0  0  0  0  0  0  0  0
   58.5560   29.3840   49.2240 C   0  0  0  0  0  0  0  0  0  0  0  0
   57.7555   29.7402   48.5589 H   0  0  0  0  0  0  0  0  0  0  0  0
   58.3379   28.3645   49.5749 H   0  0  0  0  0  0  0  0  0  0  0  0
   57.8480   27.3790   46.6070 N   0  0  0  0  0  0  0  0  0  0  0  0
   56.6520   27.2300   45.9850 C   0  0  0  0  0  0  0  0  0  0  0  0
   56.0610   26.0690   46.0450 N   0  0  0  0  0  0  0  0  0  0  0  0
   56.6960   24.7520   46.1160 C   0  0  0  0  0  0  0  0  0  0  0  0
   57.6085   24.7578   45.5018 H   0  0  0  0  0  0  0  0  0  0  0  0
   55.9879   23.9980   45.7416 H   0  0  0  0  0  0  0  0  0  0  0  0
   57.0640   24.4060   47.5560 C   0  0  0  0  0  0  0  0  0  0  0  0
   56.4394   24.9932   48.2453 H   0  0  0  0  0  0  0  0  0  0  0  0
   56.8937   23.3333   47.7304 H   0  0  0  0  0  0  0  0  0  0  0  0
   58.1241   24.6420   47.7304 H   0  0  0  0  0  0  0  0  0  0  0  0
   56.1050   28.2910   45.3160 N   0  0  0  0  0  0  0  0  0  0  0  0
   55.1750   28.1980   44.8610 H   0  0  0  0  0  0  0  0  0  0  0  0
   57.3340   32.6570   46.0080 C   0  0  0  0  0  0  0  0  0  0  0  0
   56.6338   31.9393   46.4603 H   0  0  0  0  0  0  0  0  0  0  0  0
   57.8990   33.6680   46.7920 C   0  0  0  0  0  0  0  0  0  0  0  0
   57.6341   33.7499   47.8565 H   0  0  0  0  0  0  0  0  0  0  0  0
  1  2  1  0
  2  3  2  0
  3  4  1  0
  3  5  1  0
  5  6  1  0
  5  7  2  0
  7  8  1  0
  8  9  1  0
  8 10  1  0
  8 11  1  0
 11 12  2  3
 12 13  1  0
 13 14  1  0
 14 15  2  0
 15 16  1  0
 16 17  1  1
 16 18  1  0
 18 19  2  0
 19 20  1  0
 19 21  1  0
 21 22  1  0
 21 23  2  0
 23 24  1  0
 23 25  1  0
 25 26  1  0
 25 27  2  0
 27 28  1  0
 28 29  1  0
 28 30  1  0
 28 31  1  0
 31 32  1  0
 31 33  1  0
 31 34  1  0
 34 35  1  0
 34 36  1  0
 14 37  1  0
 37 38  1  0
 38 39  2  0
 39 40  1  0
 40 41  1  0
 40 42  1  0
 40 43  1  0
 43 44  1  0
 43 45  1  0
 43 46  1  0
 38 47  1  0
 47 48  1  0
  7 49  1  0
 49 50  1  0
 49 51  2  0
 51 52  1  0
 51  2  1  0
 47 12  1  0
 34 16  1  0
 27 18  1  0
M  CHG  2  13  -1  37  -1
M  END
>  <UniqueID>  (68) 
64

>  <SMILES>  (68) 
CC/N=c1/[n-]/c(=N/[C@@H]2CCCc3ccccc32)[n-]c(=NCc2ccccc2)[nH]1

>  <Energy>  (68) 
57.002451291685354

>  <Genealogy>  (68) 
CCN=c1[n-]c(=NC2CCCc3ccccc32)[n-]c(=NCc2ccccc2)[nH]1 (protonated)
CCN=c1[n-]c(=N[C@@H]2CCCc3ccccc32)[n-]c(=NCc2ccccc2)[nH]1 (chirality)
CC/N=c1/[n-]/c(=N/[C@@H]2CCCc3ccccc32)[n-]c(=NCc2ccccc2)[nH]1 (cis-trans isomerization)
CC/N=c1/[n-]/c(=N/[C@@H]2CCCc3ccccc32)[n-]c(=NCc2ccccc2)[nH]1 (3D coordinates assigned)
CC/N=c1/[n-]/c(=N/[C@@H]2CCCc3ccccc32)[n-]c(=NCc2ccccc2)[nH]1 (nonaromatic ring conformer: 57.002451291685354 kcal/mol)

>  <smiles>  (68) 
CCN=c1[nH]c(=NCc2ccccc2)[nH]c(=NC2CCCc3ccccc32)[nH]1

>  <score_type>  (68) 
oracle

>  <origin>  (68) 
adg

>  <m_score__min__energy>  (68) 
-11.93

>  <m_primary>  (68) 
energy

$$$$
68:0
     RDKit          3D

 58 60  0  0  0  0  0  0  0  0999 V2000
   58.1890   31.1880   50.8500 C   0  0  0  0  0  0  0  0  0  0  0  0
   58.8860   29.8240   50.8540 C   0  0  0  0  0  0  0  0  0  0  0  0
   59.9580   29.7150   49.8280 N   0  0  0  0  0  0  0  0  0  0  0  0
   61.3160   29.5360   50.4100 C   0  0  0  0  0  0  0  0  0  0  0  0
   62.2670   30.7230   50.1880 C   0  0  0  0  0  0  0  0  0  0  0  0
   59.6540   28.6360   48.8480 C   0  0  0  0  0  0  0  0  0  0  0  0
   59.9910   29.0040   47.3850 C   0  0  0  0  0  0  0  0  0  0  0  0
   59.0330   30.0280   46.7950 C   0  0  0  0  0  0  0  0  0  0  0  0
   58.1160   29.6900   45.7780 C   0  0  0  0  0  0  0  0  0  0  0  0
   57.9590   28.3160   45.2690 C   0  0  0  0  0  0  0  0  0  0  0  0
   57.4160   27.3090   46.0820 C   0  0  0  0  0  0  0  0  0  0  0  0
   57.2520   26.0120   45.5820 C   0  0  0  0  0  0  0  0  0  0  0  0
   57.6150   25.7200   44.2640 C   0  0  0  0  0  0  0  0  0  0  0  0
   57.4560   24.4640   43.7800 F   0  0  0  0  0  0  0  0  0  0  0  0
   58.1360   26.7240   43.4420 C   0  0  0  0  0  0  0  0  0  0  0  0
   58.2990   28.0210   43.9390 C   0  0  0  0  0  0  0  0  0  0  0  0
   57.3470   30.6590   45.2240 N   0  0  0  0  0  0  0  0  0  0  0  0
   57.4100   31.9490   45.6290 C   0  0  0  0  0  0  0  0  0  0  0  0
   56.6560   32.7950   45.0790 O   0  0  0  0  0  0  0  0  0  0  0  0
   58.2780   32.3210   46.6240 N   0  0  0  0  0  0  0  0  0  0  0  0
   58.3160   33.7200   47.1010 C   0  0  0  0  0  0  0  0  0  0  0  0
   59.4800   34.4960   46.4650 C   0  0  0  0  0  0  0  0  0  0  0  0
   60.7840   34.2120   47.1620 C   0  0  0  0  0  0  0  0  0  0  0  0
   61.9160   33.8360   46.4190 C   0  0  0  0  0  0  0  0  0  0  0  0
   63.1390   33.6190   47.0610 C   0  0  0  0  0  0  0  0  0  0  0  0
   63.2420   33.7830   48.4450 C   0  0  0  0  0  0  0  0  0  0  0  0
   62.1230   34.1650   49.1890 C   0  0  0  0  0  0  0  0  0  0  0  0
   60.8980   34.3810   48.5520 C   0  0  0  0  0  0  0  0  0  0  0  0
   59.0890   31.3770   47.2060 C   0  0  0  0  0  0  0  0  0  0  0  0
   59.8990   31.7170   48.1120 O   0  0  0  0  0  0  0  0  0  0  0  0
   58.0209   31.5169   51.8861 H   0  0  0  0  0  0  0  0  0  0  0  0
   58.8225   31.9220   50.3305 H   0  0  0  0  0  0  0  0  0  0  0  0
   57.2230   31.1046   50.3305 H   0  0  0  0  0  0  0  0  0  0  0  0
   59.3327   29.6617   51.8460 H   0  0  0  0  0  0  0  0  0  0  0  0
   58.1255   29.0656   50.6166 H   0  0  0  0  0  0  0  0  0  0  0  0
   59.9950   30.6250   49.3150 H   0  0  0  0  0  0  0  0  0  0  0  0
   61.2075   29.3809   51.4936 H   0  0  0  0  0  0  0  0  0  0  0  0
   61.7658   28.6746   49.8946 H   0  0  0  0  0  0  0  0  0  0  0  0
   62.5875   31.1230   51.1613 H   0  0  0  0  0  0  0  0  0  0  0  0
   63.1480   30.3861   49.6219 H   0  0  0  0  0  0  0  0  0  0  0  0
   61.7461   31.5093   49.6219 H   0  0  0  0  0  0  0  0  0  0  0  0
   60.2360   27.7442   49.1235 H   0  0  0  0  0  0  0  0  0  0  0  0
   58.5686   28.4626   48.8912 H   0  0  0  0  0  0  0  0  0  0  0  0
   61.0098   29.4177   47.3531 H   0  0  0  0  0  0  0  0  0  0  0  0
   59.9023   28.0860   46.7855 H   0  0  0  0  0  0  0  0  0  0  0  0
   57.1183   27.5398   47.1155 H   0  0  0  0  0  0  0  0  0  0  0  0
   56.8375   25.2225   46.2261 H   0  0  0  0  0  0  0  0  0  0  0  0
   58.4178   26.4936   42.4040 H   0  0  0  0  0  0  0  0  0  0  0  0
   58.6949   28.8126   43.2859 H   0  0  0  0  0  0  0  0  0  0  0  0
   57.3694   34.2143   46.8371 H   0  0  0  0  0  0  0  0  0  0  0  0
   58.4599   33.7109   48.1915 H   0  0  0  0  0  0  0  0  0  0  0  0
   59.5690   34.2029   45.4085 H   0  0  0  0  0  0  0  0  0  0  0  0
   59.2677   35.5712   46.5587 H   0  0  0  0  0  0  0  0  0  0  0  0
   61.8397   33.7120   45.3287 H   0  0  0  0  0  0  0  0  0  0  0  0
   64.0210   33.3189   46.4761 H   0  0  0  0  0  0  0  0  0  0  0  0
   64.2046   33.6112   48.9488 H   0  0  0  0  0  0  0  0  0  0  0  0
   62.2062   34.2960   50.2780 H   0  0  0  0  0  0  0  0  0  0  0  0
   60.0200   34.6844   49.1410 H   0  0  0  0  0  0  0  0  0  0  0  0
  1  2  1  0
  2  3  1  0
  3  4  1  0
  4  5  1  0
  3  6  1  0
  6  7  1  0
  7  8  1  0
  8  9  2  0
  9 10  1  0
 10 11  2  0
 11 12  1  0
 12 13  2  0
 13 14  1  0
 13 15  1  0
 15 16  2  0
  9 17  1  0
 17 18  1  0
 18 19  2  0
 18 20  1  0
 20 21  1  0
 21 22  1  0
 22 23  1  0
 23 24  2  0
 24 25  1  0
 25 26  2  0
 26 27  1  0
 27 28  2  0
 20 29  1  0
 29 30  2  0
 29  8  1  0
 16 10  1  0
 28 23  1  0
  1 31  1  0
  1 32  1  0
  1 33  1  0
  2 34  1  0
  2 35  1  0
  3 36  1  0
  4 37  1  0
  4 38  1  0
  5 39  1  0
  5 40  1  0
  5 41  1  0
  6 42  1  0
  6 43  1  0
  7 44  1  0
  7 45  1  0
 11 46  1  0
 12 47  1  0
 15 48  1  0
 16 49  1  0
 21 50  1  0
 21 51  1  0
 22 52  1  0
 22 53  1  0
 24 54  1  0
 25 55  1  0
 26 56  1  0
 27 57  1  0
 28 58  1  0
M  CHG  2   3   1  17  -1
M  END
>  <UniqueID>  (69) 
65

>  <SMILES>  (69) 
CC[NH+](CC)CCc1c(-c2ccc(F)cc2)[n-]c(=O)n(CCc2ccccc2)c1=O

>  <Energy>  (69) 
70.76272577865544

>  <Genealogy>  (69) 
CC[NH+](CC)CCc1c(-c2ccc(F)cc2)[n-]c(=O)n(CCc2ccccc2)c1=O (protonated)
CC[NH+](CC)CCc1c(-c2ccc(F)cc2)[n-]c(=O)n(CCc2ccccc2)c1=O (3D coordinates assigned)
CC[NH+](CC)CCc1c(-c2ccc(F)cc2)[n-]c(=O)n(CCc2ccccc2)c1=O (optimized conformer: 70.76272577865544 kcal/mol)

>  <smiles>  (69) 
CCN(CC)CCc1c(-c2ccc(F)cc2)[nH]c(=O)n(CCc2ccccc2)c1=O

>  <score_type>  (69) 
oracle

>  <origin>  (69) 
adg

>  <m_score__min__energy>  (69) 
-8.5199999999999996

>  <m_primary>  (69) 
energy

$$$$
69:0
     RDKit          3D

 47 48  0  0  0  0  0  0  0  0999 V2000
   60.7360   26.7180   48.9460 C   0  0  0  0  0  0  0  0  0  0  0  0
   60.0850   26.3140   47.7460 O   0  0  0  0  0  0  0  0  0  0  0  0
   59.0930   27.0610   47.0920 C   0  0  0  0  0  0  0  0  0  0  0  0
   59.3140   28.3740   46.6410 C   0  0  0  0  0  0  0  0  0  0  0  0
   58.2930   29.0790   45.9990 C   0  0  0  0  0  0  0  0  0  0  0  0
   57.0310   28.4910   45.8100 C   0  0  0  0  0  0  0  0  0  0  0  0
   55.9710   29.1850   45.1350 N   0  0  0  0  0  0  0  0  0  0  0  0
   56.0630   29.8790   43.8850 C   0  0  0  0  0  0  0  0  0  0  0  0
   55.5280   29.4120   42.8450 O   0  0  0  0  0  0  0  0  0  0  0  0
   56.8990   31.1160   43.7920 C   0  0  0  0  0  0  0  0  0  0  0  0
   57.0940   31.7040   45.1160 N   0  0  0  0  0  0  0  0  0  0  0  0
   57.4030   33.0950   45.2780 C   0  0  0  0  0  0  0  0  0  0  0  0
   57.4390   33.8600   44.2750 O   0  0  0  0  0  0  0  0  0  0  0  0
   57.6610   33.6530   46.6440 C   0  0  0  0  0  0  0  0  0  0  0  0
   58.0870   32.6230   47.5380 O   0  0  0  0  0  0  0  0  0  0  0  0
   59.4200   32.2380   47.7530 C   0  0  0  0  0  0  0  0  0  0  0  0
   59.7700   31.0780   48.4720 C   0  0  0  0  0  0  0  0  0  0  0  0
   61.1130   30.7410   48.6520 C   0  0  0  0  0  0  0  0  0  0  0  0
   62.1200   31.5540   48.1260 C   0  0  0  0  0  0  0  0  0  0  0  0
   61.7870   32.7190   47.4210 C   0  0  0  0  0  0  0  0  0  0  0  0
   62.8680   33.5710   46.8210 C   0  0  0  0  0  0  0  0  0  0  0  0
   60.4360   33.0450   47.2250 C   0  0  0  0  0  0  0  0  0  0  0  0
   56.8100   27.1710   46.2350 C   0  0  0  0  0  0  0  0  0  0  0  0
   55.5500   26.5940   46.0050 O   0  0  0  0  0  0  0  0  0  0  0  0
   55.3380   25.2380   45.6280 C   0  0  0  0  0  0  0  0  0  0  0  0
   57.8450   26.4670   46.8810 C   0  0  0  0  0  0  0  0  0  0  0  0
   60.1609   26.3611   49.8131 H   0  0  0  0  0  0  0  0  0  0  0  0
   61.7486   26.2894   48.9760 H   0  0  0  0  0  0  0  0  0  0  0  0
   60.8014   27.8156   48.9760 H   0  0  0  0  0  0  0  0  0  0  0  0
   60.2947   28.8481   46.7942 H   0  0  0  0  0  0  0  0  0  0  0  0
   58.4784   30.1017   45.6389 H   0  0  0  0  0  0  0  0  0  0  0  0
   57.8785   30.8592   43.3623 H   0  0  0  0  0  0  0  0  0  0  0  0
   56.3830   31.8463   43.1514 H   0  0  0  0  0  0  0  0  0  0  0  0
   57.0290   31.1040   45.9710 H   0  0  0  0  0  0  0  0  0  0  0  0
   58.4456   34.4212   46.5780 H   0  0  0  0  0  0  0  0  0  0  0  0
   56.7286   34.0919   47.0287 H   0  0  0  0  0  0  0  0  0  0  0  0
   58.9825   30.4356   48.8930 H   0  0  0  0  0  0  0  0  0  0  0  0
   61.3793   29.8314   49.2104 H   0  0  0  0  0  0  0  0  0  0  0  0
   63.1761   31.2795   48.2653 H   0  0  0  0  0  0  0  0  0  0  0  0
   63.4575   34.0356   47.6252 H   0  0  0  0  0  0  0  0  0  0  0  0
   63.5252   32.9454   46.1991 H   0  0  0  0  0  0  0  0  0  0  0  0
   62.4133   34.3562   46.1991 H   0  0  0  0  0  0  0  0  0  0  0  0
   60.1719   33.9448   46.6500 H   0  0  0  0  0  0  0  0  0  0  0  0
   55.2410   24.6173   46.5309 H   0  0  0  0  0  0  0  0  0  0  0  0
   54.4172   25.1631   45.0309 H   0  0  0  0  0  0  0  0  0  0  0  0
   56.1920   24.8856   45.0309 H   0  0  0  0  0  0  0  0  0  0  0  0
   57.6691   25.4367   47.2239 H   0  0  0  0  0  0  0  0  0  0  0  0
  1  2  1  0
  2  3  1  0
  3  4  2  0
  4  5  1  0
  5  6  2  0
  6  7  1  0
  7  8  1  0
  8  9  2  0
  8 10  1  0
 10 11  1  0
 11 12  1  0
 12 13  2  0
 12 14  1  0
 14 15  1  0
 15 16  1  0
 16 17  2  0
 17 18  1  0
 18 19  2  0
 19 20  1  0
 20 21  1  0
 20 22  2  0
  6 23  1  0
 23 24  1  0
 24 25  1  0
 23 26  2  0
 26  3  1  0
 22 16  1  0
  1 27  1  0
  1 28  1  0
  1 29  1  0
  4 30  1  0
  5 31  1  0
 10 32  1  0
 10 33  1  0
 11 34  1  0
 14 35  1  0
 14 36  1  0
 17 37  1  0
 18 38  1  0
 19 39  1  0
 21 40  1  0
 21 41  1  0
 21 42  1  0
 22 43  1  0
 25 44  1  0
 25 45  1  0
 25 46  1  0
 26 47  1  0
M  CHG  1   7  -1
M  END
>  <UniqueID>  (70) 
66

>  <SMILES>  (70) 
COc1ccc([N-]C(=O)CNC(=O)COc2cccc(C)c2)c(OC)c1

>  <Energy>  (70) 
44.38819061360572

>  <Genealogy>  (70) 
COc1ccc([N-]C(=O)CNC(=O)COc2cccc(C)c2)c(OC)c1 (protonated)
COc1ccc([N-]C(=O)CNC(=O)COc2cccc(C)c2)c(OC)c1 (3D coordinates assigned)
COc1ccc([N-]C(=O)CNC(=O)COc2cccc(C)c2)c(OC)c1 (optimized conformer: 44.38819061360572 kcal/mol)

>  <smiles>  (70) 
COc1ccc(NC(=O)CNC(=O)COc2cccc(C)c2)c(OC)c1

>  <score_type>  (70) 
oracle

>  <origin>  (70) 
adg

>  <m_score__min__energy>  (70) 
-9.5199999999999996

>  <m_primary>  (70) 
energy

$$$$
70:0
     RDKit          3D

 52 54  0  0  0  0  0  0  0  0999 V2000
   55.6110   28.8980   44.9060 O   0  0  0  0  0  0  0  0  0  0  0  0
   56.7680   28.6780   45.2370 C   0  0  0  0  0  0  0  0  0  0  0  0
   57.3690   27.3260   44.9620 C   0  0  0  0  0  0  0  0  0  0  0  0
   57.1800   26.4230   46.1460 C   0  0  0  0  0  0  0  0  0  0  0  0
   58.1330   26.2570   46.9530 O   0  0  0  0  0  0  0  0  0  0  0  0
   55.8930   25.7560   46.4070 C   0  0  0  0  0  0  0  0  0  0  0  0
   55.8520   24.6570   47.0220 O   0  0  0  0  0  0  0  0  0  0  0  0
   54.7100   26.3350   45.9670 O   0  0  0  0  0  0  0  0  0  0  0  0
   57.5530   29.7560   45.9330 C   0  0  0  0  0  0  0  0  0  0  0  0
   57.7260   30.9390   45.0210 C   0  0  0  0  0  0  0  0  0  0  0  0
   57.5430   30.7970   43.6370 C   0  0  0  0  0  0  0  0  0  0  0  0
   57.7590   31.8810   42.7840 C   0  0  0  0  0  0  0  0  0  0  0  0
   58.1640   33.1130   43.3040 C   0  0  0  0  0  0  0  0  0  0  0  0
   58.3480   33.2720   44.6860 C   0  0  0  0  0  0  0  0  0  0  0  0
   58.8340   34.5840   45.2400 C   0  0  0  0  0  0  0  0  0  0  0  0
   59.7140   34.3500   46.4370 C   0  0  0  0  0  0  0  0  0  0  0  0
   61.0260   33.8830   46.2770 C   0  0  0  0  0  0  0  0  0  0  0  0
   61.8460   33.7010   47.3900 C   0  0  0  0  0  0  0  0  0  0  0  0
   61.3480   33.9910   48.6700 C   0  0  0  0  0  0  0  0  0  0  0  0
   62.1790   33.8100   49.8740 C   0  0  0  0  0  0  0  0  0  0  0  0
   62.7420   34.8010   50.4140 O   0  0  0  0  0  0  0  0  0  0  0  0
   62.3510   32.4990   50.4230 N   0  0  0  0  0  0  0  0  0  0  0  0
   61.2420   31.6400   50.8260 C   0  0  0  0  0  0  0  0  0  0  0  0
   60.8150   30.7710   49.6760 C   0  0  0  0  0  0  0  0  0  0  0  0
   61.4600   30.8640   48.4290 C   0  0  0  0  0  0  0  0  0  0  0  0
   61.0780   30.0290   47.3750 C   0  0  0  0  0  0  0  0  0  0  0  0
   60.0550   29.0930   47.5570 C   0  0  0  0  0  0  0  0  0  0  0  0
   59.4140   28.9910   48.7940 C   0  0  0  0  0  0  0  0  0  0  0  0
   59.7930   29.8240   49.8520 C   0  0  0  0  0  0  0  0  0  0  0  0
   60.0740   34.4540   48.8020 N   0  0  0  0  0  0  0  0  0  0  0  0
   59.2580   34.6430   47.7300 C   0  0  0  0  0  0  0  0  0  0  0  0
   58.1390   32.1770   45.5390 C   0  0  0  0  0  0  0  0  0  0  0  0
   56.8771   26.8816   44.0842 H   0  0  0  0  0  0  0  0  0  0  0  0
   58.4456   27.4446   44.7699 H   0  0  0  0  0  0  0  0  0  0  0  0
   57.0147   30.0707   46.8392 H   0  0  0  0  0  0  0  0  0  0  0  0
   58.5437   29.3623   46.2042 H   0  0  0  0  0  0  0  0  0  0  0  0
   57.2282   29.8279   43.2225 H   0  0  0  0  0  0  0  0  0  0  0  0
   57.6100   31.7649   41.7003 H   0  0  0  0  0  0  0  0  0  0  0  0
   58.3394   33.9621   42.6270 H   0  0  0  0  0  0  0  0  0  0  0  0
   59.4076   35.1148   44.4659 H   0  0  0  0  0  0  0  0  0  0  0  0
   57.9664   35.1873   45.5456 H   0  0  0  0  0  0  0  0  0  0  0  0
   61.4097   33.6595   45.2706 H   0  0  0  0  0  0  0  0  0  0  0  0
   62.8752   33.3330   47.2660 H   0  0  0  0  0  0  0  0  0  0  0  0
   61.5615   31.0030   51.6639 H   0  0  0  0  0  0  0  0  0  0  0  0
   60.3942   32.2691   51.1351 H   0  0  0  0  0  0  0  0  0  0  0  0
   62.2677   31.5963   48.2830 H   0  0  0  0  0  0  0  0  0  0  0  0
   61.5829   30.1083   46.4009 H   0  0  0  0  0  0  0  0  0  0  0  0
   59.7552   28.4372   46.7263 H   0  0  0  0  0  0  0  0  0  0  0  0
   58.6097   28.2542   48.9364 H   0  0  0  0  0  0  0  0  0  0  0  0
   59.2885   29.7369   50.8256 H   0  0  0  0  0  0  0  0  0  0  0  0
   58.2378   35.0267   47.8781 H   0  0  0  0  0  0  0  0  0  0  0  0
   58.3000   32.2896   46.6213 H   0  0  0  0  0  0  0  0  0  0  0  0
  1  2  2  0
  2  3  1  0
  3  4  1  0
  4  5  2  0
  4  6  1  0
  6  7  2  0
  6  8  1  0
  2  9  1  0
  9 10  1  0
 10 11  2  0
 11 12  1  0
 12 13  2  0
 13 14  1  0
 14 15  1  0
 15 16  1  0
 16 17  2  0
 17 18  1  0
 18 19  2  0
 19 20  1  0
 20 21  2  0
 20 22  1  0
 22 23  1  0
 23 24  1  0
 24 25  2  0
 25 26  1  0
 26 27  2  0
 27 28  1  0
 28 29  2  0
 19 30  1  0
 30 31  2  0
 14 32  2  0
 32 10  1  0
 31 16  1  0
 29 24  1  0
  3 33  1  0
  3 34  1  0
  9 35  1  0
  9 36  1  0
 11 37  1  0
 12 38  1  0
 13 39  1  0
 15 40  1  0
 15 41  1  0
 17 42  1  0
 18 43  1  0
 23 44  1  0
 23 45  1  0
 25 46  1  0
 26 47  1  0
 27 48  1  0
 28 49  1  0
 29 50  1  0
 31 51  1  0
 32 52  1  0
M  CHG  2   8  -1  22  -1
M  END
>  <UniqueID>  (71) 
67

>  <SMILES>  (71) 
O=C(CC(=O)C(=O)[O-])Cc1cccc(Cc2ccc(C(=O)[N-]Cc3ccccc3)nc2)c1

>  <Energy>  (71) 
45.04742566383955

>  <Genealogy>  (71) 
O=C(CC(=O)C(=O)[O-])Cc1cccc(Cc2ccc(C(=O)[N-]Cc3ccccc3)nc2)c1 (protonated)
O=C(CC(=O)C(=O)[O-])Cc1cccc(Cc2ccc(C(=O)[N-]Cc3ccccc3)nc2)c1 (3D coordinates assigned)
O=C(CC(=O)C(=O)[O-])Cc1cccc(Cc2ccc(C(=O)[N-]Cc3ccccc3)nc2)c1 (optimized conformer: 45.04742566383955 kcal/mol)

>  <smiles>  (71) 
O=C(CC(=O)C(=O)O)Cc1cccc(Cc2ccc(C(=O)NCc3ccccc3)nc2)c1

>  <score_type>  (71) 
oracle

>  <origin>  (71) 
adg

>  <m_score__min__energy>  (71) 
-13.720000000000001

>  <m_primary>  (71) 
energy

$$$$
71:0
     RDKit          3D

 49 53  0  0  1  0  0  0  0  0999 V2000
   56.1950   29.3350   42.6350 N   0  0  0  0  0  0  0  0  0  0  0  0
   64.6590   32.6880   49.4460 C   0  0  0  0  0  0  0  0  0  0  0  0
   56.4320   31.1950   43.9580 N   0  0  0  0  0  0  0  0  0  0  0  0
   57.1680   31.9080   44.7990 C   0  0  0  0  0  0  0  0  0  0  0  0
   58.4220   31.4590   45.1560 C   0  0  0  0  0  0  0  0  0  0  0  0
   58.8710   30.2740   44.6180 C   0  0  0  0  0  0  0  0  0  0  0  0
   60.0200   29.8560   44.9340 N   0  0  0  0  0  0  0  0  0  0  0  0
   60.3780   28.8990   45.9190 C   0  0  0  0  0  0  0  0  0  0  0  0
   60.2580   29.4440   47.3160 C   0  0  0  0  0  0  0  0  0  0  0  0
   61.1430   30.2080   48.0270 C   0  0  0  0  0  0  0  0  0  0  0  0
   60.8020   30.5720   49.2700 C   0  0  0  0  0  0  0  0  0  0  0  0
   59.5980   30.1650   49.7550 C   0  0  0  0  0  0  0  0  0  0  0  0
   58.8900   29.2020   48.3740 S   0  0  0  0  0  0  0  0  0  0  0  0
   58.1300   29.5530   43.7710 N   0  0  0  0  0  0  0  0  0  0  0  0
   59.2220   32.2550   46.0880 C   0  0  0  0  0  0  0  0  0  0  0  0
   59.0110   33.7000   45.9360 N   0  0  0  0  0  0  0  0  0  0  0  0
   59.9350   34.5360   46.5930 C   0  0  0  0  0  0  0  0  0  0  0  0
   60.0040   35.7410   46.1830 O   0  0  0  0  0  0  0  0  0  0  0  0
   60.8080   34.1690   47.6800 C   0  0  0  0  0  0  0  0  0  0  0  0
   60.4540   34.2230   49.0170 C   0  0  0  0  0  0  0  0  0  0  0  0
   61.3470   33.8480   50.0080 C   0  0  0  0  0  0  0  0  0  0  0  0
   62.5980   33.4210   49.6010 C   0  0  0  0  0  0  0  0  0  0  0  0
   63.6740   32.9950   50.3120 N   0  0  0  0  0  0  0  0  0  0  0  0
   56.9130   30.0430   43.4600 C   0  0  0  0  0  0  0  0  0  0  0  0
   65.8130   32.2560   49.7490 O   0  0  0  0  0  0  0  0  0  0  0  0
   64.2520   32.9030   48.1830 N   0  0  0  0  0  0  0  0  0  0  0  0
   62.9920   33.3510   48.2860 C   0  0  0  0  0  0  0  0  0  0  0  0
   62.0890   33.7260   47.3300 C   0  0  0  0  0  0  0  0  0  0  0  0
   57.8970   34.1680   45.1420 C   0  0  0  0  0  0  0  0  0  0  0  0
   56.7320   33.2030   45.4110 C   0  0  0  0  0  0  0  0  0  0  0  0
   56.2880   28.2760   42.6430 H   0  0  0  0  0  0  0  0  0  0  0  0
   55.4850   31.5650   43.7070 H   0  0  0  0  0  0  0  0  0  0  0  0
   59.7152   28.0265   45.8217 H   0  0  0  0  0  0  0  0  0  0  0  0
   61.4305   28.6248   45.7544 H   0  0  0  0  0  0  0  0  0  0  0  0
   62.1054   30.5140   47.5909 H   0  0  0  0  0  0  0  0  0  0  0  0
   61.4788   31.1849   49.8835 H   0  0  0  0  0  0  0  0  0  0  0  0
   59.1567   30.3673   50.7421 H   0  0  0  0  0  0  0  0  0  0  0  0
   58.4870   28.6760   43.3890 H   0  0  0  0  0  0  0  0  0  0  0  0
   58.9527   31.9676   47.1151 H   0  0  0  0  0  0  0  0  0  0  0  0
   60.2807   32.0523   45.8690 H   0  0  0  0  0  0  0  0  0  0  0  0
   59.4481   34.5690   49.2972 H   0  0  0  0  0  0  0  0  0  0  0  0
   61.0728   33.8882   51.0725 H   0  0  0  0  0  0  0  0  0  0  0  0
   63.6970   32.9300   51.3410 H   0  0  0  0  0  0  0  0  0  0  0  0
   64.8350   32.7390   47.3290 H   0  0  0  0  0  0  0  0  0  0  0  0
   62.3739   33.6788   46.2686 H   0  0  0  0  0  0  0  0  0  0  0  0
   57.6204   35.1899   45.4408 H   0  0  0  0  0  0  0  0  0  0  0  0
   58.1538   34.1924   44.0727 H   0  0  0  0  0  0  0  0  0  0  0  0
   56.5662   33.0857   46.4921 H   0  0  0  0  0  0  0  0  0  0  0  0
   55.7829   33.5658   44.9896 H   0  0  0  0  0  0  0  0  0  0  0  0
  1  2  2  3
  2  3  1  0
  3  4  1  0
  4  5  2  0
  5  6  1  0
  6  7  2  0
  7  8  1  0
  8  9  1  0
  9 10  2  0
 10 11  1  0
 11 12  2  0
 12 13  1  0
  6 14  1  0
  5 15  1  0
 15 16  1  0
 16 17  1  0
 17 18  2  0
 17 19  1  0
 19 20  2  0
 20 21  1  0
 21 22  2  0
 22 23  1  0
 23 24  1  0
 24 25  2  0
 24 26  1  0
 26 27  1  0
 27 28  2  0
 16 29  1  0
 29 30  1  0
 14  2  1  0
 28 19  1  0
 30  4  1  0
 13  9  1  0
 27 22  1  0
  1 31  1  0
  3 32  1  0
  8 33  1  0
  8 34  1  0
 10 35  1  0
 11 36  1  0
 12 37  1  0
 14 38  1  0
 15 39  1  0
 15 40  1  0
 20 41  1  0
 21 42  1  0
 23 43  1  0
 26 44  1  0
 28 45  1  0
 29 46  1  0
 29 47  1  0
 30 48  1  0
 30 49  1  0
M  END
>  <smiles>  (72) 
N=c1[nH]c2c(c(=NCc3cccs3)[nH]1)CN(C(=O)c1ccc3[nH]c(=O)[nH]c3c1)CC2

>  <score_type>  (72) 
oracle

>  <origin>  (72) 
adg

>  <m_score__min__energy>  (72) 
-9.4199999999999999

>  <m_primary>  (72) 
energy

$$$$
72:0
     RDKit          3D

 54 57  0  0  0  0  0  0  0  0999 V2000
   56.3580   23.5930   44.9360 C   0  0  0  0  0  0  0  0  0  0  0  0
   57.7120   24.0560   45.3620 C   0  0  0  0  0  0  0  0  0  0  0  0
   58.7900   23.2500   45.4330 N   0  0  0  0  0  0  0  0  0  0  0  0
   59.7840   23.9760   45.8600 O   0  0  0  0  0  0  0  0  0  0  0  0
   59.4100   25.2170   46.0750 C   0  0  0  0  0  0  0  0  0  0  0  0
   60.3120   26.2970   46.5720 C   0  0  0  0  0  0  0  0  0  0  0  0
   58.0730   25.3320   45.7600 C   0  0  0  0  0  0  0  0  0  0  0  0
   57.0660   26.7710   45.8930 S   0  0  0  0  0  0  0  0  0  0  0  0
   57.4230   27.5500   47.1280 O   0  0  0  0  0  0  0  0  0  0  0  0
   55.6290   26.3450   46.0030 O   0  0  0  0  0  0  0  0  0  0  0  0
   57.2540   27.7920   44.5040 N   0  0  0  0  0  0  0  0  0  0  0  0
   57.4460   29.2030   44.6540 C   0  0  0  0  0  0  0  0  0  0  0  0
   56.5560   30.0970   44.0420 C   0  0  0  0  0  0  0  0  0  0  0  0
   56.6760   31.4740   44.2620 C   0  0  0  0  0  0  0  0  0  0  0  0
   57.6950   31.9710   45.0910 C   0  0  0  0  0  0  0  0  0  0  0  0
   57.7570   33.4130   45.4210 C   0  0  0  0  0  0  0  0  0  0  0  0
   57.6330   34.2670   44.5030 O   0  0  0  0  0  0  0  0  0  0  0  0
   57.9820   33.8680   46.7640 N   0  0  0  0  0  0  0  0  0  0  0  0
   59.2490   33.8360   47.4380 C   0  0  0  0  0  0  0  0  0  0  0  0
   59.3330   33.6800   48.8300 C   0  0  0  0  0  0  0  0  0  0  0  0
   60.5760   33.5710   49.4550 C   0  0  0  0  0  0  0  0  0  0  0  0
   61.7650   33.6230   48.7030 C   0  0  0  0  0  0  0  0  0  0  0  0
   63.0520   33.4540   49.3420 N   0  0  0  0  0  0  0  0  0  0  0  0
   64.1890   32.7930   48.7180 C   0  0  0  0  0  0  0  0  0  0  0  0
   65.2730   32.7390   49.7850 C   0  0  0  0  0  0  0  0  0  0  0  0
   64.8750   33.7740   50.8300 C   0  0  0  0  0  0  0  0  0  0  0  0
   63.3750   33.9720   50.6620 C   0  0  0  0  0  0  0  0  0  0  0  0
   61.6720   33.8320   47.3130 C   0  0  0  0  0  0  0  0  0  0  0  0
   60.4250   33.9480   46.6900 C   0  0  0  0  0  0  0  0  0  0  0  0
   58.6350   31.0770   45.6300 C   0  0  0  0  0  0  0  0  0  0  0  0
   58.5070   29.7040   45.4180 C   0  0  0  0  0  0  0  0  0  0  0  0
   55.7455   23.3836   45.8254 H   0  0  0  0  0  0  0  0  0  0  0  0
   55.8749   24.3770   44.3344 H   0  0  0  0  0  0  0  0  0  0  0  0
   56.4561   22.6773   44.3344 H   0  0  0  0  0  0  0  0  0  0  0  0
   60.3122   26.2973   47.6720 H   0  0  0  0  0  0  0  0  0  0  0  0
   61.3337   26.1192   46.2052 H   0  0  0  0  0  0  0  0  0  0  0  0
   59.9550   27.2706   46.2052 H   0  0  0  0  0  0  0  0  0  0  0  0
   56.8800   27.4310   43.5980 H   0  0  0  0  0  0  0  0  0  0  0  0
   55.7600   29.7145   43.3861 H   0  0  0  0  0  0  0  0  0  0  0  0
   55.9700   32.1692   43.7841 H   0  0  0  0  0  0  0  0  0  0  0  0
   58.4133   33.6434   49.4323 H   0  0  0  0  0  0  0  0  0  0  0  0
   60.6273   33.4431   50.5463 H   0  0  0  0  0  0  0  0  0  0  0  0
   63.9139   31.7767   48.3994 H   0  0  0  0  0  0  0  0  0  0  0  0
   64.5293   33.3322   47.8216 H   0  0  0  0  0  0  0  0  0  0  0  0
   65.3179   31.7366   50.2357 H   0  0  0  0  0  0  0  0  0  0  0  0
   66.2675   32.9486   49.3643 H   0  0  0  0  0  0  0  0  0  0  0  0
   65.1025   33.4054   51.8411 H   0  0  0  0  0  0  0  0  0  0  0  0
   65.4265   34.7167   50.6989 H   0  0  0  0  0  0  0  0  0  0  0  0
   62.8262   33.4160   51.4364 H   0  0  0  0  0  0  0  0  0  0  0  0
   63.0928   35.0305   50.7615 H   0  0  0  0  0  0  0  0  0  0  0  0
   62.5898   33.9048   46.7111 H   0  0  0  0  0  0  0  0  0  0  0  0
   60.3693   34.1282   45.6063 H   0  0  0  0  0  0  0  0  0  0  0  0
   59.4776   31.4620   46.2231 H   0  0  0  0  0  0  0  0  0  0  0  0
   59.2430   29.0119   45.8531 H   0  0  0  0  0  0  0  0  0  0  0  0
  1  2  1  0
  2  3  2  0
  3  4  1  0
  4  5  1  0
  5  6  1  0
  5  7  2  0
  7  8  1  0
  8  9  2  0
  8 10  2  0
  8 11  1  0
 11 12  1  0
 12 13  2  0
 13 14  1  0
 14 15  2  0
 15 16  1  0
 16 17  2  0
 16 18  1  0
 18 19  1  0
 19 20  2  0
 20 21  1  0
 21 22  2  0
 22 23  1  0
 23 24  1  0
 24 25  1  0
 25 26  1  0
 26 27  1  0
 22 28  1  0
 28 29  2  0
 15 30  1  0
 30 31  2  0
  7  2  1  0
 31 12  1  0
 29 19  1  0
 27 23  1  0
  1 32  1  0
  1 33  1  0
  1 34  1  0
  6 35  1  0
  6 36  1  0
  6 37  1  0
 11 38  1  0
 13 39  1  0
 14 40  1  0
 20 41  1  0
 21 42  1  0
 24 43  1  0
 24 44  1  0
 25 45  1  0
 25 46  1  0
 26 47  1  0
 26 48  1  0
 27 49  1  0
 27 50  1  0
 28 51  1  0
 29 52  1  0
 30 53  1  0
 31 54  1  0
M  CHG  1  18  -1
M  END
>  <UniqueID>  (73) 
68

>  <SMILES>  (73) 
Cc1noc(C)c1S(=O)(=O)Nc1ccc(C(=O)[N-]c2ccc(N3CCCC3)cc2)cc1

>  <Energy>  (73) 
96.95295161139875

>  <Genealogy>  (73) 
Cc1noc(C)c1S(=O)(=O)Nc1ccc(C(=O)[N-]c2ccc(N3CCCC3)cc2)cc1 (protonated)
Cc1noc(C)c1S(=O)(=O)Nc1ccc(C(=O)[N-]c2ccc(N3CCCC3)cc2)cc1 (3D coordinates assigned)
Cc1noc(C)c1S(=O)(=O)Nc1ccc(C(=O)[N-]c2ccc(N3CCCC3)cc2)cc1 (nonaromatic ring conformer: 96.95295161139875 kcal/mol)

>  <smiles>  (73) 
Cc1noc(C)c1S(=O)(=O)Nc1ccc(C(=O)Nc2ccc(N3CCCC3)cc2)cc1

>  <score_type>  (73) 
oracle

>  <origin>  (73) 
adg

>  <m_score__min__energy>  (73) 
-11.32

>  <m_primary>  (73) 
energy

$$$$
73:0
     RDKit          3D

 47 50  0  0  0  0  0  0  0  0999 V2000
   58.9130   26.4180   47.8490 C   0  0  0  0  0  0  0  0  0  0  0  0
   58.5520   27.2490   46.8690 C   0  0  0  0  0  0  0  0  0  0  0  0
   58.6310   28.5530   47.0110 O   0  0  0  0  0  0  0  0  0  0  0  0
   58.1760   29.1410   45.9270 C   0  0  0  0  0  0  0  0  0  0  0  0
   58.1180   30.6150   45.7490 C   0  0  0  0  0  0  0  0  0  0  0  0
   59.1070   31.4430   46.3130 C   0  0  0  0  0  0  0  0  0  0  0  0
   59.0680   32.8370   46.1430 C   0  0  0  0  0  0  0  0  0  0  0  0
   60.1100   33.7010   46.7410 C   0  0  0  0  0  0  0  0  0  0  0  0
   60.0280   34.9510   46.5890 O   0  0  0  0  0  0  0  0  0  0  0  0
   61.2190   33.1520   47.4810 N   0  0  0  0  0  0  0  0  0  0  0  0
   61.7170   33.8260   48.6840 C   0  0  0  0  0  0  0  0  0  0  0  0
   63.2470   33.7470   48.7190 C   0  0  0  0  0  0  0  0  0  0  0  0
   63.6870   32.4100   48.5620 O   0  0  0  0  0  0  0  0  0  0  0  0
   63.3320   31.9360   47.2770 C   0  0  0  0  0  0  0  0  0  0  0  0
   61.8110   31.8580   47.1280 C   0  0  0  0  0  0  0  0  0  0  0  0
   58.0050   33.4090   45.4300 C   0  0  0  0  0  0  0  0  0  0  0  0
   57.0140   32.6000   44.8730 C   0  0  0  0  0  0  0  0  0  0  0  0
   57.0660   31.2120   45.0230 C   0  0  0  0  0  0  0  0  0  0  0  0
   56.0670   30.4390   44.4400 O   0  0  0  0  0  0  0  0  0  0  0  0
   57.7720   28.1790   45.0160 C   0  0  0  0  0  0  0  0  0  0  0  0
   58.0250   26.9530   45.6040 C   0  0  0  0  0  0  0  0  0  0  0  0
   57.7850   25.7780   44.9930 C   0  0  0  0  0  0  0  0  0  0  0  0
   56.4920   25.0700   44.9870 C   0  0  0  0  0  0  0  0  0  0  0  0
   55.3960   25.5240   45.7480 C   0  0  0  0  0  0  0  0  0  0  0  0
   55.4680   26.6800   46.5270 O   0  0  0  0  0  0  0  0  0  0  0  0
   54.2320   24.8240   45.7290 N   0  0  0  0  0  0  0  0  0  0  0  0
   54.1060   23.6840   45.0050 C   0  0  0  0  0  0  0  0  0  0  0  0
   53.0150   23.0560   45.0040 O   0  0  0  0  0  0  0  0  0  0  0  0
   55.1560   23.2160   44.2830 N   0  0  0  0  0  0  0  0  0  0  0  0
   56.3420   23.8770   44.2630 C   0  0  0  0  0  0  0  0  0  0  0  0
   57.2970   23.4110   43.5860 O   0  0  0  0  0  0  0  0  0  0  0  0
   58.8368   25.3303   47.7038 H   0  0  0  0  0  0  0  0  0  0  0  0
   59.2867   26.8208   48.8019 H   0  0  0  0  0  0  0  0  0  0  0  0
   59.9232   30.9914   46.8960 H   0  0  0  0  0  0  0  0  0  0  0  0
   61.4048   34.8807   48.6689 H   0  0  0  0  0  0  0  0  0  0  0  0
   61.3044   33.3335   49.5769 H   0  0  0  0  0  0  0  0  0  0  0  0
   63.6582   34.3598   47.9032 H   0  0  0  0  0  0  0  0  0  0  0  0
   63.5963   34.1202   49.6930 H   0  0  0  0  0  0  0  0  0  0  0  0
   63.7343   32.6209   46.5161 H   0  0  0  0  0  0  0  0  0  0  0  0
   63.7515   30.9278   47.1446 H   0  0  0  0  0  0  0  0  0  0  0  0
   61.5567   31.6101   46.0869 H   0  0  0  0  0  0  0  0  0  0  0  0
   61.4162   31.0791   47.7970 H   0  0  0  0  0  0  0  0  0  0  0  0
   57.9520   34.5010   45.3091 H   0  0  0  0  0  0  0  0  0  0  0  0
   56.1862   33.0582   44.3120 H   0  0  0  0  0  0  0  0  0  0  0  0
   57.3361   28.3553   44.0215 H   0  0  0  0  0  0  0  0  0  0  0  0
   58.6212   25.3080   44.4546 H   0  0  0  0  0  0  0  0  0  0  0  0
   55.1440   26.7160   47.4860 H   0  0  0  0  0  0  0  0  0  0  0  0
  1  2  2  0
  2  3  1  0
  3  4  1  0
  4  5  1  0
  5  6  2  0
  6  7  1  0
  7  8  1  0
  8  9  2  0
  8 10  1  0
 10 11  1  0
 11 12  1  0
 12 13  1  0
 13 14  1  0
 14 15  1  0
  7 16  2  0
 16 17  1  0
 17 18  2  0
 18 19  1  0
  4 20  2  0
 20 21  1  0
 21 22  2  3
 22 23  1  0
 23 24  2  0
 24 25  1  0
 24 26  1  0
 26 27  1  0
 27 28  2  0
 27 29  1  0
 29 30  1  0
 30 31  2  0
 21  2  1  0
 30 23  1  0
 18  5  1  0
 15 10  1  0
  1 32  1  0
  1 33  1  0
  6 34  1  0
 11 35  1  0
 11 36  1  0
 12 37  1  0
 12 38  1  0
 14 39  1  0
 14 40  1  0
 15 41  1  0
 15 42  1  0
 16 43  1  0
 17 44  1  0
 20 45  1  0
 22 46  1  0
 25 47  1  0
M  CHG  3  19  -1  26  -1  29  -1
M  END
>  <UniqueID>  (74) 
69

>  <SMILES>  (74) 
C=c1oc(-c2cc(C(=O)N3CCOCC3)ccc2[O-])cc1=Cc1c(O)[n-]c(=O)[n-]c1=O

>  <Energy>  (74) 
101.83967539214412

>  <Genealogy>  (74) 
C=c1oc(-c2cc(C(=O)N3CCOCC3)ccc2[O-])cc1=Cc1c(O)[n-]c(=O)[n-]c1=O (protonated)
C=c1oc(-c2cc(C(=O)N3CCOCC3)ccc2[O-])cc1=Cc1c(O)[n-]c(=O)[n-]c1=O (3D coordinates assigned)
C=c1oc(-c2cc(C(=O)N3CCOCC3)ccc2[O-])cc1=Cc1c(O)[n-]c(=O)[n-]c1=O (nonaromatic ring conformer: 101.83967539214412 kcal/mol)

>  <smiles>  (74) 
C=c1oc(-c2cc(C(=O)N3CCOCC3)ccc2O)cc1=Cc1c(O)[nH]c(=O)[nH]c1=O

>  <score_type>  (74) 
oracle

>  <origin>  (74) 
adg

>  <m_score__min__energy>  (74) 
-15.25

>  <m_primary>  (74) 
energy

$$$$
74:0
     RDKit          3D

 63 67  0  0  0  0  0  0  0  0999 V2000
   58.1700   20.9030   45.6590 C   0  0  0  0  0  0  0  0  0  0  0  0
   57.4910   21.9540   45.1650 C   0  0  0  0  0  0  0  0  0  0  0  0
   56.1620   21.7610   44.5550 C   0  0  0  0  0  0  0  0  0  0  0  0
   55.5600   20.6550   44.6210 O   0  0  0  0  0  0  0  0  0  0  0  0
   55.5600   22.8960   43.7920 C   0  0  0  0  0  0  0  0  0  0  0  0
   55.6980   24.2540   44.5230 C   0  0  0  0  0  0  0  0  0  0  0  0
   56.8830   24.3940   45.5570 C   0  0  2  0  0  0  0  0  0  0  0  0
   56.3630   24.0730   46.9840 C   0  0  0  0  0  0  0  0  0  0  0  0
   57.4120   25.8500   45.5820 C   0  0  0  0  0  0  0  0  0  0  0  0
   58.8040   26.1140   45.7020 C   0  0  0  0  0  0  0  0  0  0  0  0
   59.2740   27.4390   45.7000 C   0  0  0  0  0  0  0  0  0  0  0  0
   58.3920   28.5180   45.6180 C   0  0  0  0  0  0  0  0  0  0  0  0
   58.9230   29.9000   45.6330 C   0  0  0  0  0  0  0  0  0  0  0  0
   58.9690   30.5530   44.5540 O   0  0  0  0  0  0  0  0  0  0  0  0
   59.3830   30.5110   46.8520 N   0  0  0  0  0  0  0  0  0  0  0  0
   60.4760   31.4890   46.7930 C   0  0  0  0  0  0  0  0  0  0  0  0
   61.3080   31.5080   48.0960 C   0  0  0  0  0  0  0  0  0  0  0  0
   60.6150   30.8840   49.2490 N   0  0  0  0  0  0  0  0  0  0  0  0
   61.2270   31.3230   50.5190 C   0  0  0  0  0  0  0  0  0  0  0  0
   62.5100   32.0670   50.2540 C   0  0  0  0  0  0  0  0  0  0  0  0
   62.4960   33.4650   50.1230 C   0  0  0  0  0  0  0  0  0  0  0  0
   63.6860   34.1620   49.8750 C   0  0  0  0  0  0  0  0  0  0  0  0
   64.8920   33.4670   49.7530 C   0  0  0  0  0  0  0  0  0  0  0  0
   64.9120   32.0740   49.8770 C   0  0  0  0  0  0  0  0  0  0  0  0
   63.7260   31.3750   50.1260 C   0  0  0  0  0  0  0  0  0  0  0  0
   59.1730   31.1810   49.2200 C   0  0  0  0  0  0  0  0  0  0  0  0
   58.5450   30.4170   48.0560 C   0  0  0  0  0  0  0  0  0  0  0  0
   57.0130   28.2730   45.6000 C   0  0  0  0  0  0  0  0  0  0  0  0
   56.1100   29.3320   45.6130 O   0  0  0  0  0  0  0  0  0  0  0  0
   56.5250   26.9620   45.6000 C   0  0  0  0  0  0  0  0  0  0  0  0
   55.1440   26.7830   45.6440 O   0  0  0  0  0  0  0  0  0  0  0  0
   59.7750   25.0090   45.8600 C   0  0  0  0  0  0  0  0  0  0  0  0
   61.0090   25.2520   45.9680 O   0  0  0  0  0  0  0  0  0  0  0  0
   59.3170   23.5930   45.9550 C   0  0  0  0  0  0  0  0  0  0  0  0
   58.0220   23.3870   45.1470 C   0  0  1  0  0  0  0  0  0  0  0  0
   59.1608   21.0525   46.1129 H   0  0  0  0  0  0  0  0  0  0  0  0
   57.7344   19.8941   45.6091 H   0  0  0  0  0  0  0  0  0  0  0  0
   56.0636   22.9696   42.8168 H   0  0  0  0  0  0  0  0  0  0  0  0
   54.4855   22.6874   43.6832 H   0  0  0  0  0  0  0  0  0  0  0  0
   55.8328   25.0313   43.7565 H   0  0  0  0  0  0  0  0  0  0  0  0
   54.7816   24.3495   45.1239 H   0  0  0  0  0  0  0  0  0  0  0  0
   57.0514   24.4980   47.7293 H   0  0  0  0  0  0  0  0  0  0  0  0
   55.3628   24.5110   47.1169 H   0  0  0  0  0  0  0  0  0  0  0  0
   56.3063   22.9825   47.1169 H   0  0  0  0  0  0  0  0  0  0  0  0
   60.3556   27.6288   45.7642 H   0  0  0  0  0  0  0  0  0  0  0  0
   61.1378   31.2315   45.9529 H   0  0  0  0  0  0  0  0  0  0  0  0
   60.0321   32.4865   46.6590 H   0  0  0  0  0  0  0  0  0  0  0  0
   62.2469   30.9633   47.9177 H   0  0  0  0  0  0  0  0  0  0  0  0
   61.4807   32.5632   48.3545 H   0  0  0  0  0  0  0  0  0  0  0  0
   60.5267   31.9854   51.0489 H   0  0  0  0  0  0  0  0  0  0  0  0
   61.4482   30.4377   51.1333 H   0  0  0  0  0  0  0  0  0  0  0  0
   61.5477   34.0148   50.2154 H   0  0  0  0  0  0  0  0  0  0  0  0
   63.6707   35.2575   49.7763 H   0  0  0  0  0  0  0  0  0  0  0  0
   65.8257   34.0154   49.5594 H   0  0  0  0  0  0  0  0  0  0  0  0
   65.8615   31.5274   49.7786 H   0  0  0  0  0  0  0  0  0  0  0  0
   63.7456   30.2794   50.2219 H   0  0  0  0  0  0  0  0  0  0  0  0
   58.7095   30.8634   50.1657 H   0  0  0  0  0  0  0  0  0  0  0  0
   59.0129   32.2617   49.0920 H   0  0  0  0  0  0  0  0  0  0  0  0
   58.4361   29.3591   48.3369 H   0  0  0  0  0  0  0  0  0  0  0  0
   57.5626   30.8598   47.8351 H   0  0  0  0  0  0  0  0  0  0  0  0
   60.1008   22.9320   45.5566 H   0  0  0  0  0  0  0  0  0  0  0  0
   59.1184   23.3544   47.0103 H   0  0  0  0  0  0  0  0  0  0  0  0
   58.3213   23.6009   44.1103 H   0  0  0  0  0  0  0  0  0  0  0  0
  1  2  2  0
  2  3  1  0
  3  4  2  0
  3  5  1  0
  5  6  1  0
  6  7  1  0
  7  8  1  1
  7  9  1  0
  9 10  2  0
 10 11  1  0
 11 12  2  0
 12 13  1  0
 13 14  2  0
 13 15  1  0
 15 16  1  0
 16 17  1  0
 17 18  1  0
 18 19  1  0
 19 20  1  0
 20 21  2  0
 21 22  1  0
 22 23  2  0
 23 24  1  0
 24 25  2  0
 18 26  1  0
 26 27  1  0
 12 28  1  0
 28 29  1  0
 28 30  2  0
 30 31  1  0
 10 32  1  0
 32 33  2  0
 32 34  1  0
 34 35  1  0
 35  2  1  0
 35  7  1  0
 30  9  1  0
 27 15  1  0
 25 20  1  0
  1 36  1  0
  1 37  1  0
  5 38  1  0
  5 39  1  0
  6 40  1  0
  6 41  1  0
  8 42  1  0
  8 43  1  0
  8 44  1  0
 11 45  1  0
 16 46  1  0
 16 47  1  0
 17 48  1  0
 17 49  1  0
 19 50  1  0
 19 51  1  0
 21 52  1  0
 22 53  1  0
 23 54  1  0
 24 55  1  0
 25 56  1  0
 26 57  1  0
 26 58  1  0
 27 59  1  0
 27 60  1  0
 34 61  1  0
 34 62  1  0
 35 63  1  6
M  CHG  2  29  -1  31  -1
M  END
>  <UniqueID>  (75) 
70

>  <SMILES>  (75) 
C=C1C(=O)CC[C@]2(C)c3c(cc(C(=O)N4CCN(Cc5ccccc5)CC4)c([O-])c3[O-])C(=O)C[C@@H]12

>  <Energy>  (75) 
98.13157032980686

>  <Genealogy>  (75) 
C=C1C(=O)CCC2(C)c3c(cc(C(=O)N4CCN(Cc5ccccc5)CC4)c([O-])c3[O-])C(=O)CC12 (protonated)
C=C1C(=O)CC[C@]2(C)c3c(cc(C(=O)N4CCN(Cc5ccccc5)CC4)c([O-])c3[O-])C(=O)C[C@@H]12 (chirality)
C=C1C(=O)CC[C@]2(C)c3c(cc(C(=O)N4CCN(Cc5ccccc5)CC4)c([O-])c3[O-])C(=O)C[C@@H]12 (3D coordinates assigned)
C=C1C(=O)CC[C@]2(C)c3c(cc(C(=O)N4CCN(Cc5ccccc5)CC4)c([O-])c3[O-])C(=O)C[C@@H]12 (nonaromatic ring conformer: 98.13157032980686 kcal/mol)

>  <smiles>  (75) 
C=C1C(=O)CCC2(C)c3c(cc(C(=O)N4CCN(Cc5ccccc5)CC4)c(O)c3O)C(=O)CC12

>  <score_type>  (75) 
oracle

>  <origin>  (75) 
adg

>  <m_score__min__energy>  (75) 
-13.58

>  <m_primary>  (75) 
energy

$$$$
75:0
     RDKit          3D

 46 49  0  0  0  0  0  0  0  0999 V2000
   54.6399   27.4252   53.3244 H   0  0  0  0  0  0  0  0  0  0  0  0
   54.1040   28.3540   53.0790 C   0  0  0  0  0  0  0  0  0  0  0  0
   53.0099   28.3442   52.9655 H   0  0  0  0  0  0  0  0  0  0  0  0
   54.7850   29.4990   52.9180 C   0  0  0  0  0  0  0  0  0  0  0  0
   54.2550   30.7630   52.6050 C   0  0  0  0  0  0  0  0  0  0  0  0
   52.9820   31.2020   52.5390 C   0  0  0  0  0  0  0  0  0  0  0  0
   52.5329   31.5774   53.4704 H   0  0  0  0  0  0  0  0  0  0  0  0
   52.1410   31.2240   51.3350 C   0  0  0  0  0  0  0  0  0  0  0  0
   52.2170   30.3030   50.3580 N   0  0  0  0  0  0  0  0  0  0  0  0
   51.3790   30.7800   49.4120 C   0  0  0  0  0  0  0  0  0  0  0  0
   51.1650   30.1770   48.3290 O   0  0  0  0  0  0  0  0  0  0  0  0
   50.7980   31.9620   49.7130 N   0  0  0  0  0  0  0  0  0  0  0  0
   51.3030   32.2360   50.9260 C   0  0  0  0  0  0  0  0  0  0  0  0
   51.0240   33.4000   51.6330 O   0  0  0  0  0  0  0  0  0  0  0  0
   55.3400   31.5890   52.3730 C   0  0  0  0  0  0  0  0  0  0  0  0
   55.3041   32.6434   52.0615 H   0  0  0  0  0  0  0  0  0  0  0  0
   56.4760   30.8410   52.6060 C   0  0  0  0  0  0  0  0  0  0  0  0
   57.8480   31.3910   52.5740 C   0  0  0  0  0  0  0  0  0  0  0  0
   58.5450   31.3580   53.6240 O   0  0  0  0  0  0  0  0  0  0  0  0
   58.3820   32.0110   51.3860 N   0  0  0  0  0  0  0  0  0  0  0  0
   59.4600   33.0030   51.5180 C   0  0  0  0  0  0  0  0  0  0  0  0
   59.2317   33.6723   52.3606 H   0  0  0  0  0  0  0  0  0  0  0  0
   60.4064   32.4707   51.6941 H   0  0  0  0  0  0  0  0  0  0  0  0
   59.5990   33.8360   50.2400 C   0  0  0  0  0  0  0  0  0  0  0  0
   58.6778   34.4188   50.0928 H   0  0  0  0  0  0  0  0  0  0  0  0
   60.4705   34.4971   50.3556 H   0  0  0  0  0  0  0  0  0  0  0  0
   59.8320   32.9460   48.9980 C   0  0  0  0  0  0  0  0  0  0  0  0
   60.9028   32.6951   48.9784 H   0  0  0  0  0  0  0  0  0  0  0  0
   59.4690   33.7040   47.7500 C   0  0  0  0  0  0  0  0  0  0  0  0
   60.1530   34.7770   47.2960 N   0  0  0  0  0  0  0  0  0  0  0  0
   59.6300   35.2590   46.1380 C   0  0  0  0  0  0  0  0  0  0  0  0
   60.0506   36.1331   45.6193 H   0  0  0  0  0  0  0  0  0  0  0  0
   58.5250   34.5670   45.6570 C   0  0  0  0  0  0  0  0  0  0  0  0
   57.9638   34.8014   44.7404 H   0  0  0  0  0  0  0  0  0  0  0  0
   58.1970   33.3090   46.7220 S   0  0  0  0  0  0  0  0  0  0  0  0
   59.0830   31.5900   49.0630 C   0  0  0  0  0  0  0  0  0  0  0  0
   58.6953   31.3531   48.0612 H   0  0  0  0  0  0  0  0  0  0  0  0
   59.7983   30.8301   49.4107 H   0  0  0  0  0  0  0  0  0  0  0  0
   57.9120   31.6120   50.0500 C   0  0  0  0  0  0  0  0  0  0  0  0
   57.1559   32.3307   49.7010 H   0  0  0  0  0  0  0  0  0  0  0  0
   57.4732   30.6051   50.1094 H   0  0  0  0  0  0  0  0  0  0  0  0
   56.1420   29.5690   52.9320 N   0  0  0  0  0  0  0  0  0  0  0  0
   57.0710   28.4570   53.1770 C   0  0  0  0  0  0  0  0  0  0  0  0
   57.1919   28.3122   54.2607 H   0  0  0  0  0  0  0  0  0  0  0  0
   56.6690   27.5374   52.7268 H   0  0  0  0  0  0  0  0  0  0  0  0
   58.0475   28.6890   52.7268 H   0  0  0  0  0  0  0  0  0  0  0  0
  1  2  1  0
  2  3  1  0
  2  4  2  0
  4  5  1  0
  5  6  2  0
  6  7  1  0
  6  8  1  0
  8  9  1  0
  9 10  1  0
 10 11  2  0
 10 12  1  0
 12 13  1  0
 13 14  1  0
  5 15  1  0
 15 16  1  0
 15 17  2  0
 17 18  1  0
 18 19  2  0
 18 20  1  0
 20 21  1  0
 21 22  1  0
 21 23  1  0
 21 24  1  0
 24 25  1  0
 24 26  1  0
 24 27  1  0
 27 28  1  0
 27 29  1  0
 29 30  2  0
 30 31  1  0
 31 32  1  0
 31 33  2  0
 33 34  1  0
 33 35  1  0
 27 36  1  0
 36 37  1  0
 36 38  1  0
 36 39  1  0
 39 40  1  0
 39 41  1  0
 17 42  1  0
 42 43  1  0
 43 44  1  0
 43 45  1  0
 43 46  1  0
 42  4  1  0
 13  8  2  0
 39 20  1  0
 35 29  1  0
M  CHG  3   9  -1  12  -1  14  -1
M  END
>  <UniqueID>  (76) 
71

>  <SMILES>  (76) 
C=c1/c(=C\c2[n-]c(=O)[n-]c2[O-])cc(C(=O)N2CCC(c3nccs3)CC2)n1C

>  <Energy>  (76) 
155.36033797339638

>  <Genealogy>  (76) 
C=c1c(=Cc2[n-]c(=O)[n-]c2[O-])cc(C(=O)N2CCC(c3nccs3)CC2)n1C (protonated)
C=c1/c(=C\c2[n-]c(=O)[n-]c2[O-])cc(C(=O)N2CCC(c3nccs3)CC2)n1C (cis-trans isomerization)
C=c1/c(=C\c2[n-]c(=O)[n-]c2[O-])cc(C(=O)N2CCC(c3nccs3)CC2)n1C (3D coordinates assigned)
C=c1/c(=C\c2[n-]c(=O)[n-]c2[O-])cc(C(=O)N2CCC(c3nccs3)CC2)n1C (nonaromatic ring conformer: 155.36033797339638 kcal/mol)

>  <smiles>  (76) 
C=c1c(=Cc2[nH]c(=O)[nH]c2O)cc(C(=O)N2CCC(c3nccs3)CC2)n1C

>  <score_type>  (76) 
oracle

>  <origin>  (76) 
adg

>  <m_score__min__energy>  (76) 
-17.649999999999999

>  <m_primary>  (76) 
energy

$$$$
76:0
     RDKit          3D

 59 62  0  0  0  0  0  0  0  0999 V2000
   58.2900   20.0150   46.8100 C   0  0  0  0  0  0  0  0  0  0  0  0
   57.3600   20.9830   47.2820 O   0  0  0  0  0  0  0  0  0  0  0  0
   55.9650   20.8130   47.2720 C   0  0  0  0  0  0  0  0  0  0  0  0
   55.1820   21.0190   48.4240 C   0  0  0  0  0  0  0  0  0  0  0  0
   53.8070   20.7550   48.4000 C   0  0  0  0  0  0  0  0  0  0  0  0
   53.2040   20.2890   47.2280 C   0  0  0  0  0  0  0  0  0  0  0  0
   53.9680   20.1040   46.0760 C   0  0  0  0  0  0  0  0  0  0  0  0
   55.3390   20.3890   46.0850 C   0  0  0  0  0  0  0  0  0  0  0  0
   56.0840   20.2080   44.8780 N   0  0  0  0  0  0  0  0  0  0  0  0
   56.6520   21.5370   43.9160 S   0  0  0  0  0  0  0  0  0  0  0  0
   56.0650   21.4260   42.5340 O   0  0  0  0  0  0  0  0  0  0  0  0
   58.1530   21.4890   43.8150 O   0  0  0  0  0  0  0  0  0  0  0  0
   56.1270   23.0730   44.6100 C   0  0  0  0  0  0  0  0  0  0  0  0
   54.8150   23.2050   45.0750 C   0  0  0  0  0  0  0  0  0  0  0  0
   54.3690   24.4210   45.5960 C   0  0  0  0  0  0  0  0  0  0  0  0
   55.2370   25.5170   45.6650 C   0  0  0  0  0  0  0  0  0  0  0  0
   54.7710   26.7140   46.2040 O   0  0  0  0  0  0  0  0  0  0  0  0
   56.5660   25.3950   45.2150 C   0  0  0  0  0  0  0  0  0  0  0  0
   57.5050   26.5210   45.3520 C   0  0  0  0  0  0  0  0  0  0  0  0
   58.1950   26.8940   44.3660 O   0  0  0  0  0  0  0  0  0  0  0  0
   57.6320   27.1950   46.6120 N   0  0  0  0  0  0  0  0  0  0  0  0
   58.1030   28.5450   46.8050 C   0  0  0  0  0  0  0  0  0  0  0  0
   57.9790   29.5320   45.8090 C   0  0  0  0  0  0  0  0  0  0  0  0
   58.4070   30.8420   46.0520 C   0  0  0  0  0  0  0  0  0  0  0  0
   58.9310   31.1970   47.3030 C   0  0  0  0  0  0  0  0  0  0  0  0
   59.4440   32.8620   47.6110 S   0  0  0  0  0  0  0  0  0  0  0  0
   59.0650   33.2330   49.0190 O   0  0  0  0  0  0  0  0  0  0  0  0
   58.7150   33.7890   46.6730 O   0  0  0  0  0  0  0  0  0  0  0  0
   61.1660   33.0680   47.3860 N   0  0  0  0  0  0  0  0  0  0  0  0
   61.8350   31.7600   47.3050 C   0  0  0  0  0  0  0  0  0  0  0  0
   63.3630   31.9450   47.1730 C   0  0  0  0  0  0  0  0  0  0  0  0
   63.7300   33.3120   47.1630 O   0  0  0  0  0  0  0  0  0  0  0  0
   63.2810   33.9310   48.3540 C   0  0  0  0  0  0  0  0  0  0  0  0
   61.7430   33.8710   48.4790 C   0  0  0  0  0  0  0  0  0  0  0  0
   59.0480   30.2200   48.3010 C   0  0  0  0  0  0  0  0  0  0  0  0
   58.6420   28.9020   48.0510 C   0  0  0  0  0  0  0  0  0  0  0  0
   57.0040   24.1660   44.6880 C   0  0  0  0  0  0  0  0  0  0  0  0
   58.7680   19.5175   47.6667 H   0  0  0  0  0  0  0  0  0  0  0  0
   57.7628   19.2674   46.1992 H   0  0  0  0  0  0  0  0  0  0  0  0
   59.0582   20.5118   46.1992 H   0  0  0  0  0  0  0  0  0  0  0  0
   55.6525   21.3890   49.3469 H   0  0  0  0  0  0  0  0  0  0  0  0
   53.2009   20.9144   49.3040 H   0  0  0  0  0  0  0  0  0  0  0  0
   52.1265   20.0682   47.2144 H   0  0  0  0  0  0  0  0  0  0  0  0
   53.4917   19.7327   45.1566 H   0  0  0  0  0  0  0  0  0  0  0  0
   54.1300   22.3455   45.0300 H   0  0  0  0  0  0  0  0  0  0  0  0
   53.3331   24.5181   45.9531 H   0  0  0  0  0  0  0  0  0  0  0  0
   57.5428   29.2718   44.8333 H   0  0  0  0  0  0  0  0  0  0  0  0
   58.3318   31.5980   45.2565 H   0  0  0  0  0  0  0  0  0  0  0  0
   61.6169   31.1841   48.2164 H   0  0  0  0  0  0  0  0  0  0  0  0
   61.4625   31.2224   46.4205 H   0  0  0  0  0  0  0  0  0  0  0  0
   63.8559   31.4506   48.0231 H   0  0  0  0  0  0  0  0  0  0  0  0
   63.6791   31.5000   46.2180 H   0  0  0  0  0  0  0  0  0  0  0  0
   63.7299   33.4154   49.2158 H   0  0  0  0  0  0  0  0  0  0  0  0
   63.5838   34.9882   48.3284 H   0  0  0  0  0  0  0  0  0  0  0  0
   61.4760   33.4142   49.4434 H   0  0  0  0  0  0  0  0  0  0  0  0
   61.3416   34.8934   48.4188 H   0  0  0  0  0  0  0  0  0  0  0  0
   59.4603   30.4887   49.2848 H   0  0  0  0  0  0  0  0  0  0  0  0
   58.7466   28.1407   48.8381 H   0  0  0  0  0  0  0  0  0  0  0  0
   58.0405   24.0612   44.3349 H   0  0  0  0  0  0  0  0  0  0  0  0
  1  2  1  0
  2  3  1  0
  3  4  2  0
  4  5  1  0
  5  6  2  0
  6  7  1  0
  7  8  2  0
  8  9  1  0
  9 10  1  0
 10 11  2  0
 10 12  2  0
 10 13  1  0
 13 14  2  0
 14 15  1  0
 15 16  2  0
 16 17  1  0
 16 18  1  0
 18 19  1  0
 19 20  2  0
 19 21  1  0
 21 22  1  0
 22 23  2  0
 23 24  1  0
 24 25  2  0
 25 26  1  0
 26 27  2  0
 26 28  2  0
 26 29  1  0
 29 30  1  0
 30 31  1  0
 31 32  1  0
 32 33  1  0
 33 34  1  0
 25 35  1  0
 35 36  2  0
 18 37  2  0
  8  3  1  0
 37 13  1  0
 36 22  1  0
 34 29  1  0
  1 38  1  0
  1 39  1  0
  1 40  1  0
  4 41  1  0
  5 42  1  0
  6 43  1  0
  7 44  1  0
 14 45  1  0
 15 46  1  0
 23 47  1  0
 24 48  1  0
 30 49  1  0
 30 50  1  0
 31 51  1  0
 31 52  1  0
 33 53  1  0
 33 54  1  0
 34 55  1  0
 34 56  1  0
 35 57  1  0
 36 58  1  0
 37 59  1  0
M  CHG  3   9  -1  17  -1  21  -1
M  END
>  <UniqueID>  (77) 
72

>  <SMILES>  (77) 
COc1ccccc1[N-]S(=O)(=O)c1ccc([O-])c(C(=O)[N-]c2ccc(S(=O)(=O)N3CCOCC3)cc2)c1

>  <Energy>  (77) 
85.2681477220275

>  <Genealogy>  (77) 
COc1ccccc1[N-]S(=O)(=O)c1ccc([O-])c(C(=O)[N-]c2ccc(S(=O)(=O)N3CCOCC3)cc2)c1 (protonated)
COc1ccccc1[N-]S(=O)(=O)c1ccc([O-])c(C(=O)[N-]c2ccc(S(=O)(=O)N3CCOCC3)cc2)c1 (3D coordinates assigned)
COc1ccccc1[N-]S(=O)(=O)c1ccc([O-])c(C(=O)[N-]c2ccc(S(=O)(=O)N3CCOCC3)cc2)c1 (nonaromatic ring conformer: 85.2681477220275 kcal/mol)

>  <smiles>  (77) 
COc1ccccc1NS(=O)(=O)c1ccc(O)c(C(=O)Nc2ccc(S(=O)(=O)N3CCOCC3)cc2)c1

>  <score_type>  (77) 
oracle

>  <origin>  (77) 
adg

>  <m_score__min__energy>  (77) 
-15.01

>  <m_primary>  (77) 
energy

$$$$
77:0
     RDKit          3D

 52 54  0  0  0  0  0  0  0  0999 V2000
   56.8840   23.9010   43.6650 C   0  0  0  0  0  0  0  0  0  0  0  0
   57.7550   24.0590   44.6620 C   0  0  0  0  0  0  0  0  0  0  0  0
   58.2430   25.3900   45.0860 C   0  0  0  0  0  0  0  0  0  0  0  0
   59.3470   25.4900   45.6930 O   0  0  0  0  0  0  0  0  0  0  0  0
   57.4720   26.5810   44.7940 N   0  0  0  0  0  0  0  0  0  0  0  0
   57.2550   27.3910   46.0320 C   0  0  0  0  0  0  0  0  0  0  0  0
   57.7710   28.8360   45.9300 C   0  0  0  0  0  0  0  0  0  0  0  0
   57.3260   29.4360   44.6680 N   0  0  0  0  0  0  0  0  0  0  0  0
   56.7010   30.7320   44.6270 C   0  0  0  0  0  0  0  0  0  0  0  0
   55.5490   30.8370   44.1240 O   0  0  0  0  0  0  0  0  0  0  0  0
   57.3870   31.9870   45.1230 C   0  0  2  0  0  0  0  0  0  0  0  0
   58.0870   32.7810   44.0070 C   0  0  0  0  0  0  0  0  0  0  0  0
   58.5760   34.1280   44.5390 C   0  0  0  0  0  0  0  0  0  0  0  0
   59.3540   33.9650   45.8130 C   0  0  0  0  0  0  0  0  0  0  0  0
   60.2290   34.8230   46.1090 O   0  0  0  0  0  0  0  0  0  0  0  0
   59.0500   32.8910   46.7300 N   0  0  0  0  0  0  0  0  0  0  0  0
   59.5370   32.9460   48.1150 C   0  0  0  0  0  0  0  0  0  0  0  0
   61.0430   32.9630   48.1350 C   0  0  0  0  0  0  0  0  0  0  0  0
   61.7150   34.0120   48.7880 C   0  0  0  0  0  0  0  0  0  0  0  0
   63.1110   34.0600   48.7970 C   0  0  0  0  0  0  0  0  0  0  0  0
   63.8510   33.0630   48.1560 C   0  0  0  0  0  0  0  0  0  0  0  0
   63.1940   32.0160   47.5050 C   0  0  0  0  0  0  0  0  0  0  0  0
   61.7950   31.9630   47.4890 C   0  0  0  0  0  0  0  0  0  0  0  0
   61.1820   30.9370   46.8460 F   0  0  0  0  0  0  0  0  0  0  0  0
   58.3840   31.6700   46.2470 C   0  0  0  0  0  0  0  0  0  0  0  0
   57.4120   28.6550   43.4300 C   0  0  0  0  0  0  0  0  0  0  0  0
   58.1160   27.3170   43.6820 C   0  0  0  0  0  0  0  0  0  0  0  0
   56.5479   22.8923   43.3830 H   0  0  0  0  0  0  0  0  0  0  0  0
   56.5015   24.7794   43.1245 H   0  0  0  0  0  0  0  0  0  0  0  0
   58.1245   23.1669   45.1889 H   0  0  0  0  0  0  0  0  0  0  0  0
   56.5280   26.2860   44.4480 H   0  0  0  0  0  0  0  0  0  0  0  0
   56.1754   27.4227   46.2402 H   0  0  0  0  0  0  0  0  0  0  0  0
   57.8263   26.9041   46.8361 H   0  0  0  0  0  0  0  0  0  0  0  0
   57.3779   29.4242   46.7723 H   0  0  0  0  0  0  0  0  0  0  0  0
   58.8705   28.8314   45.9614 H   0  0  0  0  0  0  0  0  0  0  0  0
   56.5846   32.6269   45.5188 H   0  0  0  0  0  0  0  0  0  0  0  0
   58.9468   32.2039   43.6359 H   0  0  0  0  0  0  0  0  0  0  0  0
   57.3707   32.9579   43.1912 H   0  0  0  0  0  0  0  0  0  0  0  0
   59.2221   34.5980   43.7829 H   0  0  0  0  0  0  0  0  0  0  0  0
   57.6979   34.7567   44.7480 H   0  0  0  0  0  0  0  0  0  0  0  0
   59.1566   33.8580   48.5983 H   0  0  0  0  0  0  0  0  0  0  0  0
   59.1802   32.0579   48.6571 H   0  0  0  0  0  0  0  0  0  0  0  0
   61.1377   34.7994   49.2947 H   0  0  0  0  0  0  0  0  0  0  0  0
   63.6287   34.8841   49.3096 H   0  0  0  0  0  0  0  0  0  0  0  0
   64.9503   33.1025   48.1640 H   0  0  0  0  0  0  0  0  0  0  0  0
   63.7779   31.2304   47.0032 H   0  0  0  0  0  0  0  0  0  0  0  0
   59.1451   30.9736   45.8653 H   0  0  0  0  0  0  0  0  0  0  0  0
   57.8315   31.2206   47.0853 H   0  0  0  0  0  0  0  0  0  0  0  0
   56.3967   28.4635   43.0525 H   0  0  0  0  0  0  0  0  0  0  0  0
   57.9923   29.2265   42.6906 H   0  0  0  0  0  0  0  0  0  0  0  0
   58.0652   26.7059   42.7688 H   0  0  0  0  0  0  0  0  0  0  0  0
   59.1631   27.5170   43.9534 H   0  0  0  0  0  0  0  0  0  0  0  0
  1  2  2  0
  2  3  1  0
  3  4  2  0
  3  5  1  0
  5  6  1  0
  6  7  1  0
  7  8  1  0
  8  9  1  0
  9 10  2  0
  9 11  1  0
 11 12  1  0
 12 13  1  0
 13 14  1  0
 14 15  2  0
 14 16  1  0
 16 17  1  0
 17 18  1  0
 18 19  2  0
 19 20  1  0
 20 21  2  0
 21 22  1  0
 22 23  2  0
 23 24  1  0
 16 25  1  0
  8 26  1  0
 26 27  1  0
 27  5  1  0
 25 11  1  0
 23 18  1  0
  1 28  1  0
  1 29  1  0
  2 30  1  0
  5 31  1  0
  6 32  1  0
  6 33  1  0
  7 34  1  0
  7 35  1  0
 11 36  1  1
 12 37  1  0
 12 38  1  0
 13 39  1  0
 13 40  1  0
 17 41  1  0
 17 42  1  0
 19 43  1  0
 20 44  1  0
 21 45  1  0
 22 46  1  0
 25 47  1  0
 25 48  1  0
 26 49  1  0
 26 50  1  0
 27 51  1  0
 27 52  1  0
M  CHG  1   5   1
M  END
>  <UniqueID>  (78) 
73

>  <SMILES>  (78) 
C=CC(=O)[NH+]1CCN(C(=O)[C@@H]2CCC(=O)N(Cc3ccccc3F)C2)CC1

>  <Energy>  (78) 
60.99699026637538

>  <Genealogy>  (78) 
C=CC(=O)[NH+]1CCN(C(=O)C2CCC(=O)N(Cc3ccccc3F)C2)CC1 (protonated)
C=CC(=O)[NH+]1CCN(C(=O)[C@@H]2CCC(=O)N(Cc3ccccc3F)C2)CC1 (chirality)
C=CC(=O)[NH+]1CCN(C(=O)[C@@H]2CCC(=O)N(Cc3ccccc3F)C2)CC1 (3D coordinates assigned)
C=CC(=O)[NH+]1CCN(C(=O)[C@@H]2CCC(=O)N(Cc3ccccc3F)C2)CC1 (nonaromatic ring conformer: 60.99699026637538 kcal/mol)

>  <smiles>  (78) 
C=CC(=O)N1CCN(C(=O)C2CCC(=O)N(Cc3ccccc3F)C2)CC1

>  <score_type>  (78) 
oracle

>  <origin>  (78) 
adg

>  <m_score__min__energy>  (78) 
-6.9900000000000002

>  <m_primary>  (78) 
energy

$$$$
78:0
     RDKit          3D

 55 58  0  0  1  0  0  0  0  0999 V2000
   56.8450   25.1770   44.4000 N   0  0  0  0  0  0  0  0  0  0  0  0
   56.7010   26.2930   45.6930 S   0  0  0  0  0  0  0  0  0  0  0  0
   57.3130   25.6080   46.9080 O   0  0  0  0  0  0  0  0  0  0  0  0
   55.2710   26.5480   45.9950 O   0  0  0  0  0  0  0  0  0  0  0  0
   57.6190   27.7580   45.3970 C   0  0  0  0  0  0  0  0  0  0  0  0
   58.9650   27.6060   45.1030 C   0  0  0  0  0  0  0  0  0  0  0  0
   59.7310   28.7490   44.8610 C   0  0  0  0  0  0  0  0  0  0  0  0
   59.1200   29.9890   44.9210 C   0  0  0  0  0  0  0  0  0  0  0  0
   57.7780   30.1280   45.2140 C   0  0  0  0  0  0  0  0  0  0  0  0
   57.2500   31.4500   45.2510 N   0  0  0  0  0  0  0  0  0  0  0  0
   58.0240   32.4760   45.3730 C   0  0  0  0  0  0  0  0  0  0  0  0
   58.4720   33.1580   44.3000 N   0  0  0  0  0  0  0  0  0  0  0  0
   59.2820   34.2340   44.4050 C   0  0  0  0  0  0  0  0  0  0  0  0
   59.6380   34.6100   45.6520 N   0  0  0  0  0  0  0  0  0  0  0  0
   59.2210   33.9670   46.7580 C   0  0  0  0  0  0  0  0  0  0  0  0
   59.5940   34.3650   48.0300 O   0  0  0  0  0  0  0  0  0  0  0  0
   60.5180   33.6350   48.8200 C   0  0  0  0  0  0  0  0  0  0  0  0
   60.9690   32.4500   47.9970 C   0  0  0  0  0  0  0  0  0  0  0  0
   62.0930   31.6930   48.6680 C   0  0  0  0  0  0  0  0  0  0  0  0
   63.0950   32.6190   49.1550 N   0  0  0  0  0  0  0  0  0  0  0  0
   64.1560   32.0720   49.9310 C   0  0  0  0  0  0  0  0  0  0  0  0
   64.1270   30.8270   50.1240 O   0  0  0  0  0  0  0  0  0  0  0  0
   65.2320   32.9030   50.4820 C   0  0  0  0  0  0  0  0  0  0  0  0
   66.5460   32.7740   50.0970 C   0  0  0  0  0  0  0  0  0  0  0  0
   67.5050   33.6100   50.6770 C   0  0  0  0  0  0  0  0  0  0  0  0
   67.1230   34.5420   51.6150 C   0  0  0  0  0  0  0  0  0  0  0  0
   65.7990   34.6600   51.9920 C   0  0  0  0  0  0  0  0  0  0  0  0
   64.8440   33.8410   51.4280 C   0  0  0  0  0  0  0  0  0  0  0  0
   63.5440   33.9700   51.8090 F   0  0  0  0  0  0  0  0  0  0  0  0
   62.9910   34.0350   48.8470 C   0  0  0  0  0  0  0  0  0  0  0  0
   61.6200   34.5520   49.2280 C   0  0  0  0  0  0  0  0  0  0  0  0
   58.3930   32.8670   46.6630 C   0  0  0  0  0  0  0  0  0  0  0  0
   57.9610   32.2040   47.7530 F   0  0  0  0  0  0  0  0  0  0  0  0
   57.0130   29.0040   45.4560 C   0  0  0  0  0  0  0  0  0  0  0  0
   56.6780   25.5690   43.4670 H   0  0  0  0  0  0  0  0  0  0  0  0
   56.4450   24.2500   44.5720 H   0  0  0  0  0  0  0  0  0  0  0  0
   59.4208   26.6058   45.0611 H   0  0  0  0  0  0  0  0  0  0  0  0
   60.8024   28.6646   44.6266 H   0  0  0  0  0  0  0  0  0  0  0  0
   59.7210   30.8903   44.7297 H   0  0  0  0  0  0  0  0  0  0  0  0
   58.1870   32.8540   43.3440 H   0  0  0  0  0  0  0  0  0  0  0  0
   59.6349   34.7782   43.5165 H   0  0  0  0  0  0  0  0  0  0  0  0
   60.0832   33.2453   49.7523 H   0  0  0  0  0  0  0  0  0  0  0  0
   60.1163   31.7696   47.8561 H   0  0  0  0  0  0  0  0  0  0  0  0
   61.3395   32.8261   47.0320 H   0  0  0  0  0  0  0  0  0  0  0  0
   61.6895   31.1159   49.5131 H   0  0  0  0  0  0  0  0  0  0  0  0
   62.5556   31.0129   47.9376 H   0  0  0  0  0  0  0  0  0  0  0  0
   66.8376   32.0257   49.3454 H   0  0  0  0  0  0  0  0  0  0  0  0
   68.5618   33.5231   50.3845 H   0  0  0  0  0  0  0  0  0  0  0  0
   67.8792   35.1993   52.0690 H   0  0  0  0  0  0  0  0  0  0  0  0
   65.5064   35.4084   52.7432 H   0  0  0  0  0  0  0  0  0  0  0  0
   63.7574   34.5870   49.4108 H   0  0  0  0  0  0  0  0  0  0  0  0
   63.1428   34.1802   47.7673 H   0  0  0  0  0  0  0  0  0  0  0  0
   61.5842   34.6790   50.3201 H   0  0  0  0  0  0  0  0  0  0  0  0
   61.4686   35.5044   48.6988 H   0  0  0  0  0  0  0  0  0  0  0  0
   55.9424   29.0954   45.6913 H   0  0  0  0  0  0  0  0  0  0  0  0
  1  2  1  0
  2  3  2  0
  2  4  2  0
  2  5  1  0
  5  6  2  0
  6  7  1  0
  7  8  2  0
  8  9  1  0
  9 10  1  0
 10 11  2  0
 11 12  1  0
 12 13  1  0
 13 14  2  0
 14 15  1  0
 15 16  1  0
 16 17  1  0
 17 18  1  0
 18 19  1  0
 19 20  1  0
 20 21  1  0
 21 22  2  0
 21 23  1  0
 23 24  2  0
 24 25  1  0
 25 26  2  0
 26 27  1  0
 27 28  2  0
 28 29  1  0
 20 30  1  0
 30 31  1  0
 15 32  2  0
 32 33  1  0
  9 34  2  0
 34  5  1  0
 32 11  1  0
 31 17  1  0
 28 23  1  0
  1 35  1  0
  1 36  1  0
  6 37  1  0
  7 38  1  0
  8 39  1  0
 12 40  1  0
 13 41  1  0
 17 42  1  0
 18 43  1  0
 18 44  1  0
 19 45  1  0
 19 46  1  0
 24 47  1  0
 25 48  1  0
 26 49  1  0
 27 50  1  0
 30 51  1  0
 30 52  1  0
 31 53  1  0
 31 54  1  0
 34 55  1  0
M  END
>  <smiles>  (79) 
NS(=O)(=O)c1cccc(N=c2[nH]cnc(OC3CCN(C(=O)c4ccccc4F)CC3)c2F)c1

>  <score_type>  (79) 
oracle

>  <origin>  (79) 
adg

>  <m_score__min__energy>  (79) 
-9.9399999999999995

>  <m_primary>  (79) 
energy

$$$$
79:0
     RDKit          3D

 58 61  0  0  0  0  0  0  0  0999 V2000
   66.6740   31.9830   50.4980 C   0  0  0  0  0  0  0  0  0  0  0  0
   65.8570   33.0540   51.1750 C   0  0  0  0  0  0  0  0  0  0  0  0
   66.3220   33.6290   52.3700 C   0  0  0  0  0  0  0  0  0  0  0  0
   65.5750   34.6160   53.0120 C   0  0  0  0  0  0  0  0  0  0  0  0
   64.3640   35.0250   52.4590 C   0  0  0  0  0  0  0  0  0  0  0  0
   63.9170   34.4580   51.3090 N   0  0  0  0  0  0  0  0  0  0  0  0
   64.6140   33.4870   50.6550 C   0  0  0  0  0  0  0  0  0  0  0  0
   64.0350   32.9190   49.3840 C   0  0  0  0  0  0  0  0  0  0  0  0
   62.5600   32.9210   49.4360 N   0  0  0  0  0  0  0  0  0  0  0  0
   62.0330   34.2900   49.2110 C   0  0  0  0  0  0  0  0  0  0  0  0
   60.5580   34.2630   48.7980 C   0  0  0  0  0  0  0  0  0  0  0  0
   60.3690   33.5570   47.4110 C   0  0  0  0  0  0  0  0  0  0  0  0
   60.4640   34.6290   46.2710 C   0  0  0  0  0  0  0  0  0  0  0  0
   59.6520   34.2030   45.0450 C   0  0  0  0  0  0  0  0  0  0  0  0
   58.2040   34.1350   45.3620 N   0  0  0  0  0  0  0  0  0  0  0  0
   57.4060   33.4300   44.3290 C   0  0  0  0  0  0  0  0  0  0  0  0
   57.4590   31.9180   44.4380 C   0  0  0  0  0  0  0  0  0  0  0  0
   58.6960   31.2510   44.5050 C   0  0  0  0  0  0  0  0  0  0  0  0
   58.7430   29.8550   44.5770 C   0  0  0  0  0  0  0  0  0  0  0  0
   57.5590   29.1130   44.5970 C   0  0  0  0  0  0  0  0  0  0  0  0
   56.3220   29.7640   44.5640 C   0  0  0  0  0  0  0  0  0  0  0  0
   55.1470   29.0130   44.5970 O   0  0  0  0  0  0  0  0  0  0  0  0
   56.2730   31.1630   44.4990 C   0  0  0  0  0  0  0  0  0  0  0  0
   57.8860   33.7560   46.7600 C   0  0  0  0  0  0  0  0  0  0  0  0
   58.9670   32.8510   47.3700 C   0  0  0  0  0  0  0  0  0  0  0  0
   61.4960   32.4850   47.2030 C   0  0  0  0  0  0  0  0  0  0  0  0
   61.9650   31.8920   48.5390 C   0  0  0  0  0  0  0  0  0  0  0  0
   67.1552   31.3522   51.2600 H   0  0  0  0  0  0  0  0  0  0  0  0
   66.0174   31.3629   49.8700 H   0  0  0  0  0  0  0  0  0  0  0  0
   67.4456   32.4524   49.8700 H   0  0  0  0  0  0  0  0  0  0  0  0
   67.2790   33.2992   52.8006 H   0  0  0  0  0  0  0  0  0  0  0  0
   65.9389   35.0675   53.9467 H   0  0  0  0  0  0  0  0  0  0  0  0
   63.7697   35.8073   52.9538 H   0  0  0  0  0  0  0  0  0  0  0  0
   64.3671   33.5297   48.5315 H   0  0  0  0  0  0  0  0  0  0  0  0
   64.3834   31.8819   49.2693 H   0  0  0  0  0  0  0  0  0  0  0  0
   62.1333   34.8689   50.1410 H   0  0  0  0  0  0  0  0  0  0  0  0
   62.6108   34.7528   48.3974 H   0  0  0  0  0  0  0  0  0  0  0  0
   59.9823   33.7168   49.5597 H   0  0  0  0  0  0  0  0  0  0  0  0
   60.2020   35.3002   48.7116 H   0  0  0  0  0  0  0  0  0  0  0  0
   60.0738   35.5870   46.6452 H   0  0  0  0  0  0  0  0  0  0  0  0
   61.5182   34.7306   45.9738 H   0  0  0  0  0  0  0  0  0  0  0  0
   59.8094   34.9337   44.2380 H   0  0  0  0  0  0  0  0  0  0  0  0
   59.9890   33.2037   44.7321 H   0  0  0  0  0  0  0  0  0  0  0  0
   56.3572   33.7477   44.4248 H   0  0  0  0  0  0  0  0  0  0  0  0
   57.8400   33.6954   43.3537 H   0  0  0  0  0  0  0  0  0  0  0  0
   59.6310   31.8304   44.5007 H   0  0  0  0  0  0  0  0  0  0  0  0
   59.7141   29.3400   44.6180 H   0  0  0  0  0  0  0  0  0  0  0  0
   57.6002   28.0146   44.6388 H   0  0  0  0  0  0  0  0  0  0  0  0
   55.1280   28.0700   44.9680 H   0  0  0  0  0  0  0  0  0  0  0  0
   55.2995   31.6752   44.4956 H   0  0  0  0  0  0  0  0  0  0  0  0
   57.8044   34.6703   47.3662 H   0  0  0  0  0  0  0  0  0  0  0  0
   56.9384   33.1974   46.7538 H   0  0  0  0  0  0  0  0  0  0  0  0
   58.6719   32.5871   48.3963 H   0  0  0  0  0  0  0  0  0  0  0  0
   59.0559   31.9543   46.7391 H   0  0  0  0  0  0  0  0  0  0  0  0
   61.1054   31.6745   46.5701 H   0  0  0  0  0  0  0  0  0  0  0  0
   62.3553   32.9775   46.7245 H   0  0  0  0  0  0  0  0  0  0  0  0
   61.1017   31.4368   49.0465 H   0  0  0  0  0  0  0  0  0  0  0  0
   62.7426   31.1451   48.3212 H   0  0  0  0  0  0  0  0  0  0  0  0
  1  2  1  0
  2  3  2  0
  3  4  1  0
  4  5  2  0
  5  6  1  0
  6  7  2  0
  7  8  1  0
  8  9  1  0
  9 10  1  0
 10 11  1  0
 11 12  1  0
 12 13  1  0
 13 14  1  0
 14 15  1  0
 15 16  1  0
 16 17  1  0
 17 18  2  0
 18 19  1  0
 19 20  2  0
 20 21  1  0
 21 22  1  0
 21 23  2  0
 15 24  1  0
 24 25  1  0
 12 26  1  0
 26 27  1  0
  7  2  1  0
 27  9  1  0
 25 12  1  0
 23 17  1  0
  1 28  1  0
  1 29  1  0
  1 30  1  0
  3 31  1  0
  4 32  1  0
  5 33  1  0
  8 34  1  0
  8 35  1  0
 10 36  1  0
 10 37  1  0
 11 38  1  0
 11 39  1  0
 13 40  1  0
 13 41  1  0
 14 42  1  0
 14 43  1  0
 16 44  1  0
 16 45  1  0
 18 46  1  0
 19 47  1  0
 20 48  1  0
 22 49  1  0
 23 50  1  0
 24 51  1  0
 24 52  1  0
 25 53  1  0
 25 54  1  0
 26 55  1  0
 26 56  1  0
 27 57  1  0
 27 58  1  0
M  END
>  <UniqueID>  (80) 
74

>  <SMILES>  (80) 
Cc1cccnc1CN1CCC2(CCN(Cc3cccc(O)c3)CC2)CC1

>  <Energy>  (80) 
85.0645320196227

>  <Genealogy>  (80) 
Cc1cccnc1CN1CCC2(CCN(Cc3cccc(O)c3)CC2)CC1 (3D coordinates assigned)
Cc1cccnc1CN1CCC2(CCN(Cc3cccc(O)c3)CC2)CC1 (nonaromatic ring conformer: 85.0645320196227 kcal/mol)

>  <smiles>  (80) 
Cc1cccnc1CN1CCC2(CCN(Cc3cccc(O)c3)CC2)CC1

>  <score_type>  (80) 
oracle

>  <origin>  (80) 
adg

>  <m_score__min__energy>  (80) 
-9.9600000000000009

>  <m_primary>  (80) 
energy

$$$$
80:0
     RDKit          3D

 34 37  0  0  1  0  0  0  0  0999 V2000
   60.2420   29.0500   44.4800 O   0  0  0  0  0  0  0  0  0  0  0  0
   58.9090   28.7830   44.8070 C   0  0  0  0  0  0  0  0  0  0  0  0
   58.5050   27.6750   45.4980 C   0  0  0  0  0  0  0  0  0  0  0  0
   57.1250   27.7660   45.6260 C   0  0  0  0  0  0  0  0  0  0  0  0
   56.7360   28.9350   45.0020 C   0  0  0  0  0  0  0  0  0  0  0  0
   55.4290   29.3940   44.9070 O   0  0  0  0  0  0  0  0  0  0  0  0
   57.8400   29.5390   44.5100 N   0  0  0  0  0  0  0  0  0  0  0  0
   57.9280   30.7850   43.7790 C   0  0  0  0  0  0  0  0  0  0  0  0
   58.0380   31.9690   44.6910 C   0  0  0  0  0  0  0  0  0  0  0  0
   58.0430   33.2410   44.1430 C   0  0  0  0  0  0  0  0  0  0  0  0
   58.1410   34.3790   44.9250 C   0  0  0  0  0  0  0  0  0  0  0  0
   58.2370   34.2200   46.3030 C   0  0  0  0  0  0  0  0  0  0  0  0
   58.2300   32.9560   46.8320 C   0  0  0  0  0  0  0  0  0  0  0  0
   58.1310   31.8140   46.0450 C   0  0  0  0  0  0  0  0  0  0  0  0
   56.7350   26.5440   46.3800 C   0  0  1  0  0  0  0  0  0  0  0  0
   56.8670   25.3580   45.4890 C   0  0  0  0  0  0  0  0  0  0  0  0
   58.3920   25.2340   45.3480 C   0  0  0  0  0  0  0  0  0  0  0  0
   58.8510   26.3910   46.1930 C   0  0  2  0  0  0  0  0  0  0  0  0
   57.8820   26.3730   47.1960 O   0  0  0  0  0  0  0  0  0  0  0  0
   60.8120   28.3950   43.9920 H   0  0  0  0  0  0  0  0  0  0  0  0
   54.7740   28.9660   45.5510 H   0  0  0  0  0  0  0  0  0  0  0  0
   58.8160   30.7535   43.1305 H   0  0  0  0  0  0  0  0  0  0  0  0
   57.0060   30.8969   43.1896 H   0  0  0  0  0  0  0  0  0  0  0  0
   57.9666   33.3505   43.0511 H   0  0  0  0  0  0  0  0  0  0  0  0
   58.1429   35.3802   44.4694 H   0  0  0  0  0  0  0  0  0  0  0  0
   58.3176   35.0982   46.9605 H   0  0  0  0  0  0  0  0  0  0  0  0
   58.3058   32.8401   47.9232 H   0  0  0  0  0  0  0  0  0  0  0  0
   58.1277   30.8127   46.5004 H   0  0  0  0  0  0  0  0  0  0  0  0
   55.7372   26.6263   46.8357 H   0  0  0  0  0  0  0  0  0  0  0  0
   56.4339   24.4594   45.9526 H   0  0  0  0  0  0  0  0  0  0  0  0
   56.3395   25.4627   44.5294 H   0  0  0  0  0  0  0  0  0  0  0  0
   58.7579   24.2747   45.7428 H   0  0  0  0  0  0  0  0  0  0  0  0
   58.7557   25.2569   44.3101 H   0  0  0  0  0  0  0  0  0  0  0  0
   59.9167   26.3271   46.4578 H   0  0  0  0  0  0  0  0  0  0  0  0
  1  2  1  0
  2  3  2  0
  3  4  1  0
  4  5  2  0
  5  6  1  0
  5  7  1  0
  7  8  1  0
  8  9  1  0
  9 10  2  0
 10 11  1  0
 11 12  2  0
 12 13  1  0
 13 14  2  0
  4 15  1  0
 15 16  1  0
 16 17  1  0
 17 18  1  0
 18 19  1  0
  7  2  1  0
 14  9  1  0
 19 15  1  0
 18  3  1  0
  1 20  1  0
  6 21  1  0
  8 22  1  0
  8 23  1  0
 10 24  1  0
 11 25  1  0
 12 26  1  0
 13 27  1  0
 14 28  1  0
 15 29  1  1
 16 30  1  0
 16 31  1  0
 17 32  1  0
 17 33  1  0
 18 34  1  1
M  END
>  <smiles>  (81) 
Oc1c2c(c(O)n1Cc1ccccc1)C1CCC2O1

>  <score_type>  (81) 
oracle

>  <origin>  (81) 
adg

>  <m_score__min__energy>  (81) 
-7.2400000000000002

>  <m_primary>  (81) 
energy

$$$$
81:0
     RDKit          3D

 48 50  0  0  0  0  0  0  0  0999 V2000
   63.7380   33.3980   47.2150 C   0  0  0  0  0  0  0  0  0  0  0  0
   62.3070   33.0470   47.4990 C   0  0  0  0  0  0  0  0  0  0  0  0
   61.4680   33.9690   48.1420 C   0  0  0  0  0  0  0  0  0  0  0  0
   60.1450   33.6300   48.4340 C   0  0  0  0  0  0  0  0  0  0  0  0
   59.6540   32.3650   48.1030 C   0  0  0  0  0  0  0  0  0  0  0  0
   60.4890   31.4230   47.4790 C   0  0  0  0  0  0  0  0  0  0  0  0
   59.9910   30.1120   47.1470 N   0  0  0  0  0  0  0  0  0  0  0  0
   59.2920   29.9020   45.8760 C   0  0  0  0  0  0  0  0  0  0  0  0
   59.5740   28.4950   45.3390 C   0  0  0  0  0  0  0  0  0  0  0  0
   59.3280   27.4460   46.3480 N   0  0  0  0  0  0  0  0  0  0  0  0
   57.8980   27.1160   46.5360 C   0  0  0  0  0  0  0  0  0  0  0  0
   57.1150   27.4500   45.2690 C   0  0  0  0  0  0  0  0  0  0  0  0
   56.2600   28.6080   45.5070 N   0  0  0  0  0  0  0  0  0  0  0  0
   55.8410   29.5510   44.5120 C   0  0  0  0  0  0  0  0  0  0  0  0
   54.7560   29.3460   43.9070 O   0  0  0  0  0  0  0  0  0  0  0  0
   56.6560   30.7230   44.1350 C   0  0  0  0  0  0  0  0  0  0  0  0
   57.1200   30.9220   42.8360 C   0  0  0  0  0  0  0  0  0  0  0  0
   57.9710   32.3750   42.8060 S   0  0  0  0  0  0  0  0  0  0  0  0
   57.7010   32.6980   44.4310 C   0  0  0  0  0  0  0  0  0  0  0  0
   58.3040   34.2610   45.3430 Br  0  0  0  0  0  0  0  0  0  0  0  0
   56.9710   31.7210   45.0070 N   0  0  0  0  0  0  0  0  0  0  0  0
   60.0760   27.6760   47.6030 C   0  0  0  0  0  0  0  0  0  0  0  0
   59.8840   29.0900   48.1970 C   0  0  2  0  0  0  0  0  0  0  0  0
   58.5660   29.2460   48.9650 C   0  0  0  0  0  0  0  0  0  0  0  0
   61.8170   31.7700   47.1830 C   0  0  0  0  0  0  0  0  0  0  0  0
   64.2783   33.5305   48.1640 H   0  0  0  0  0  0  0  0  0  0  0  0
   64.2063   32.5881   46.6364 H   0  0  0  0  0  0  0  0  0  0  0  0
   63.7784   34.3327   46.6364 H   0  0  0  0  0  0  0  0  0  0  0  0
   61.8532   34.9620   48.4171 H   0  0  0  0  0  0  0  0  0  0  0  0
   59.4875   34.3617   48.9263 H   0  0  0  0  0  0  0  0  0  0  0  0
   58.6098   32.1053   48.3317 H   0  0  0  0  0  0  0  0  0  0  0  0
   58.2097   30.0199   46.0335 H   0  0  0  0  0  0  0  0  0  0  0  0
   59.6498   30.6419   45.1449 H   0  0  0  0  0  0  0  0  0  0  0  0
   58.9222   28.3108   44.4723 H   0  0  0  0  0  0  0  0  0  0  0  0
   60.6375   28.4496   45.0616 H   0  0  0  0  0  0  0  0  0  0  0  0
   57.7974   26.0426   46.7542 H   0  0  0  0  0  0  0  0  0  0  0  0
   57.4981   27.7058   47.3740 H   0  0  0  0  0  0  0  0  0  0  0  0
   57.8184   27.6767   44.4542 H   0  0  0  0  0  0  0  0  0  0  0  0
   56.4903   26.5885   44.9905 H   0  0  0  0  0  0  0  0  0  0  0  0
   56.9588   30.2488   41.9811 H   0  0  0  0  0  0  0  0  0  0  0  0
   56.6490   31.7660   45.9970 H   0  0  0  0  0  0  0  0  0  0  0  0
   59.7389   26.9392   48.3470 H   0  0  0  0  0  0  0  0  0  0  0  0
   61.1442   27.5739   47.3611 H   0  0  0  0  0  0  0  0  0  0  0  0
   60.6935   29.2335   48.9279 H   0  0  0  0  0  0  0  0  0  0  0  0
   58.7667   29.2222   50.0463 H   0  0  0  0  0  0  0  0  0  0  0  0
   58.0985   30.2057   48.6998 H   0  0  0  0  0  0  0  0  0  0  0  0
   57.8874   28.4219   48.6998 H   0  0  0  0  0  0  0  0  0  0  0  0
   62.4784   31.0357   46.6999 H   0  0  0  0  0  0  0  0  0  0  0  0
  1  2  1  0
  2  3  2  0
  3  4  1  0
  4  5  2  0
  5  6  1  0
  6  7  1  0
  7  8  1  0
  8  9  1  0
  9 10  1  0
 10 11  1  0
 11 12  1  0
 12 13  1  0
 13 14  1  0
 14 15  2  0
 14 16  1  0
 16 17  2  0
 17 18  1  0
 18 19  1  0
 19 20  1  0
 19 21  2  0
 10 22  1  0
 22 23  1  0
 23 24  1  0
  6 25  2  0
 25  2  1  0
 23  7  1  0
 21 16  1  0
  1 26  1  0
  1 27  1  0
  1 28  1  0
  3 29  1  0
  4 30  1  0
  5 31  1  0
  8 32  1  0
  8 33  1  0
  9 34  1  0
  9 35  1  0
 11 36  1  0
 11 37  1  0
 12 38  1  0
 12 39  1  0
 17 40  1  0
 21 41  1  0
 22 42  1  0
 22 43  1  0
 23 44  1  1
 24 45  1  0
 24 46  1  0
 24 47  1  0
 25 48  1  0
M  CHG  2  13  -1  21   1
M  END
>  <UniqueID>  (82) 
75

>  <SMILES>  (82) 
Cc1cccc(N2CCN(CC[N-]C(=O)c3csc(Br)[nH+]3)C[C@@H]2C)c1

>  <Energy>  (82) 
86.32214527456622

>  <Genealogy>  (82) 
Cc1cccc(N2CCN(CC[N-]C(=O)c3csc(Br)[nH+]3)CC2C)c1 (protonated)
Cc1cccc(N2CCN(CC[N-]C(=O)c3csc(Br)[nH+]3)C[C@@H]2C)c1 (chirality)
Cc1cccc(N2CCN(CC[N-]C(=O)c3csc(Br)[nH+]3)C[C@@H]2C)c1 (3D coordinates assigned)
Cc1cccc(N2CCN(CC[N-]C(=O)c3csc(Br)[nH+]3)C[C@@H]2C)c1 (nonaromatic ring conformer: 86.32214527456622 kcal/mol)

>  <smiles>  (82) 
Cc1cccc(N2CCN(CCNC(=O)c3csc(Br)n3)CC2C)c1

>  <score_type>  (82) 
oracle

>  <origin>  (82) 
adg

>  <m_score__min__energy>  (82) 
-8.6699999999999999

>  <m_primary>  (82) 
energy

$$$$
82:0
     RDKit          3D

 50 53  0  0  0  0  0  0  0  0999 V2000
   53.6860   28.4410   53.4330 C   0  0  0  0  0  0  0  0  0  0  0  0
   54.6060   29.3540   53.0610 C   0  0  0  0  0  0  0  0  0  0  0  0
   55.9250   28.9920   53.1490 N   0  0  0  0  0  0  0  0  0  0  0  0
   56.9350   29.8000   52.7430 C   0  0  0  0  0  0  0  0  0  0  0  0
   56.6650   31.0620   52.2140 C   0  0  0  0  0  0  0  0  0  0  0  0
   57.7690   31.9580   51.7890 C   0  0  0  0  0  0  0  0  0  0  0  0
   57.7840   33.1550   52.1890 O   0  0  0  0  0  0  0  0  0  0  0  0
   58.8280   31.4870   50.9350 N   0  0  0  0  0  0  0  0  0  0  0  0
   58.5270   30.7300   49.7110 C   0  0  0  0  0  0  0  0  0  0  0  0
   58.9390   31.5560   48.4890 C   0  0  0  0  0  0  0  0  0  0  0  0
   60.3110   32.0440   48.6650 N   0  0  0  0  0  0  0  0  0  0  0  0
   61.3800   31.4260   47.9290 C   0  0  0  0  0  0  0  0  0  0  0  0
   61.4800   30.1690   47.9300 O   0  0  0  0  0  0  0  0  0  0  0  0
   62.3780   32.2250   47.1210 C   0  0  0  0  0  0  0  0  0  0  0  0
   62.1110   33.7240   46.9820 C   0  0  0  0  0  0  0  0  0  0  0  0
   63.4080   34.0190   47.7250 C   0  0  0  0  0  0  0  0  0  0  0  0
   63.6730   32.5260   47.8720 C   0  0  0  0  0  0  0  0  0  0  0  0
   60.5960   32.8130   49.8820 C   0  0  0  0  0  0  0  0  0  0  0  0
   60.1980   31.9860   51.1060 C   0  0  0  0  0  0  0  0  0  0  0  0
   55.3350   31.4850   52.1380 C   0  0  0  0  0  0  0  0  0  0  0  0
   54.2690   30.6500   52.5480 C   0  0  0  0  0  0  0  0  0  0  0  0
   52.9900   31.1110   52.5000 C   0  0  0  0  0  0  0  0  0  0  0  0
   52.1490   31.1730   51.2880 C   0  0  0  0  0  0  0  0  0  0  0  0
   52.2180   30.2710   50.2930 N   0  0  0  0  0  0  0  0  0  0  0  0
   51.3740   30.7650   49.3620 C   0  0  0  0  0  0  0  0  0  0  0  0
   51.1540   30.1820   48.2690 O   0  0  0  0  0  0  0  0  0  0  0  0
   50.7920   31.9390   49.6900 N   0  0  0  0  0  0  0  0  0  0  0  0
   51.3030   32.1900   50.9050 C   0  0  0  0  0  0  0  0  0  0  0  0
   51.0280   33.3440   51.6320 O   0  0  0  0  0  0  0  0  0  0  0  0
   52.6150   28.6862   53.3797 H   0  0  0  0  0  0  0  0  0  0  0  0
   54.0065   27.4511   53.7898 H   0  0  0  0  0  0  0  0  0  0  0  0
   56.1930   28.0550   53.5290 H   0  0  0  0  0  0  0  0  0  0  0  0
   57.9765   29.4574   52.8315 H   0  0  0  0  0  0  0  0  0  0  0  0
   59.0853   29.7823   49.7188 H   0  0  0  0  0  0  0  0  0  0  0  0
   57.4485   30.5183   49.6653 H   0  0  0  0  0  0  0  0  0  0  0  0
   58.8867   30.9275   47.5877 H   0  0  0  0  0  0  0  0  0  0  0  0
   58.2576   32.4127   48.3804 H   0  0  0  0  0  0  0  0  0  0  0  0
   62.3649   31.5977   46.2175 H   0  0  0  0  0  0  0  0  0  0  0  0
   62.0962   34.0838   45.9426 H   0  0  0  0  0  0  0  0  0  0  0  0
   61.1597   34.1560   47.3262 H   0  0  0  0  0  0  0  0  0  0  0  0
   64.1590   34.5499   47.1216 H   0  0  0  0  0  0  0  0  0  0  0  0
   63.4029   34.6706   48.6112 H   0  0  0  0  0  0  0  0  0  0  0  0
   64.5815   32.1781   47.3587 H   0  0  0  0  0  0  0  0  0  0  0  0
   63.8573   32.0874   48.8638 H   0  0  0  0  0  0  0  0  0  0  0  0
   61.6705   33.0439   49.9278 H   0  0  0  0  0  0  0  0  0  0  0  0
   60.0223   33.7515   49.8683 H   0  0  0  0  0  0  0  0  0  0  0  0
   60.8872   31.1355   51.2138 H   0  0  0  0  0  0  0  0  0  0  0  0
   60.2491   32.6158   52.0064 H   0  0  0  0  0  0  0  0  0  0  0  0
   55.1120   32.4901   51.7506 H   0  0  0  0  0  0  0  0  0  0  0  0
   52.5459   31.4668   53.4414 H   0  0  0  0  0  0  0  0  0  0  0  0
  1  2  2  0
  2  3  1  0
  3  4  2  0
  4  5  1  0
  5  6  1  0
  6  7  2  0
  6  8  1  0
  8  9  1  0
  9 10  1  0
 10 11  1  0
 11 12  1  0
 12 13  2  0
 12 14  1  0
 14 15  1  0
 15 16  1  0
 16 17  1  0
 11 18  1  0
 18 19  1  0
  5 20  2  0
 20 21  1  0
 21 22  2  3
 22 23  1  0
 23 24  1  0
 24 25  1  0
 25 26  2  0
 25 27  1  0
 27 28  1  0
 28 29  1  0
 21  2  1  0
 28 23  2  0
 19  8  1  0
 17 14  1  0
  1 30  1  0
  1 31  1  0
  3 32  1  0
  4 33  1  0
  9 34  1  0
  9 35  1  0
 10 36  1  0
 10 37  1  0
 14 38  1  0
 15 39  1  0
 15 40  1  0
 16 41  1  0
 16 42  1  0
 17 43  1  0
 17 44  1  0
 18 45  1  0
 18 46  1  0
 19 47  1  0
 19 48  1  0
 20 49  1  0
 22 50  1  0
M  CHG  4   3   1  24  -1  27  -1  29  -1
M  END
>  <UniqueID>  (83) 
76

>  <SMILES>  (83) 
C=c1[nH+]cc(C(=O)N2CCN(C(=O)C3CCC3)CC2)cc1=Cc1[n-]c(=O)[n-]c1[O-]

>  <Energy>  (83) 
168.26612490308352

>  <Genealogy>  (83) 
C=c1[nH+]cc(C(=O)N2CCN(C(=O)C3CCC3)CC2)cc1=Cc1[n-]c(=O)[n-]c1[O-] (protonated)
C=c1[nH+]cc(C(=O)N2CCN(C(=O)C3CCC3)CC2)cc1=Cc1[n-]c(=O)[n-]c1[O-] (3D coordinates assigned)
C=c1[nH+]cc(C(=O)N2CCN(C(=O)C3CCC3)CC2)cc1=Cc1[n-]c(=O)[n-]c1[O-] (nonaromatic ring conformer: 168.26612490308352 kcal/mol)

>  <smiles>  (83) 
C=c1ncc(C(=O)N2CCN(C(=O)C3CCC3)CC2)cc1=Cc1[nH]c(=O)[nH]c1O

>  <score_type>  (83) 
oracle

>  <origin>  (83) 
adg

>  <m_score__min__energy>  (83) 
-17.079999999999998

>  <m_primary>  (83) 
energy

$$$$
83:0
     RDKit          3D

 45 47  0  0  0  0  0  0  0  0999 V2000
   65.9450   29.4960   51.8300 C   0  0  0  0  0  0  0  0  0  0  0  0
   65.9090   30.8280   51.1520 C   0  0  0  0  0  0  0  0  0  0  0  0
   67.0280   31.6640   51.1730 C   0  0  0  0  0  0  0  0  0  0  0  0
   66.9520   32.8970   50.5220 C   0  0  0  0  0  0  0  0  0  0  0  0
   68.1310   33.8160   50.4980 C   0  0  0  0  0  0  0  0  0  0  0  0
   65.8060   33.2480   49.8800 N   0  0  0  0  0  0  0  0  0  0  0  0
   64.7170   32.4290   49.8650 C   0  0  0  0  0  0  0  0  0  0  0  0
   63.5110   32.8270   49.1770 N   0  0  0  0  0  0  0  0  0  0  0  0
   62.2590   33.0200   49.9220 C   0  0  0  0  0  0  0  0  0  0  0  0
   61.4400   34.1590   49.3120 C   0  0  0  0  0  0  0  0  0  0  0  0
   61.3250   33.9970   47.8560 N   0  0  0  0  0  0  0  0  0  0  0  0
   60.1010   34.3990   47.1910 C   0  0  0  0  0  0  0  0  0  0  0  0
   59.1950   34.9780   47.8530 O   0  0  0  0  0  0  0  0  0  0  0  0
   59.8480   34.1440   45.7250 C   0  0  0  0  0  0  0  0  0  0  0  0
   58.9910   32.9180   45.5090 C   0  0  0  0  0  0  0  0  0  0  0  0
   57.8450   32.9890   44.6950 C   0  0  0  0  0  0  0  0  0  0  0  0
   57.0500   31.8570   44.4900 C   0  0  0  0  0  0  0  0  0  0  0  0
   57.3960   30.6400   45.0820 C   0  0  0  0  0  0  0  0  0  0  0  0
   56.6240   29.5420   44.8780 F   0  0  0  0  0  0  0  0  0  0  0  0
   58.5430   30.5510   45.8740 C   0  0  0  0  0  0  0  0  0  0  0  0
   59.3440   31.6790   46.0830 C   0  0  0  0  0  0  0  0  0  0  0  0
   60.4700   31.5580   46.8290 F   0  0  0  0  0  0  0  0  0  0  0  0
   62.5820   33.8150   47.1140 C   0  0  0  0  0  0  0  0  0  0  0  0
   63.4050   32.6770   47.7180 C   0  0  0  0  0  0  0  0  0  0  0  0
   64.7840   31.2270   50.5010 N   0  0  0  0  0  0  0  0  0  0  0  0
   65.9411   29.6395   52.9206 H   0  0  0  0  0  0  0  0  0  0  0  0
   65.0624   28.9100   51.5341 H   0  0  0  0  0  0  0  0  0  0  0  0
   66.8580   28.9585   51.5341 H   0  0  0  0  0  0  0  0  0  0  0  0
   67.9488   31.3577   51.6910 H   0  0  0  0  0  0  0  0  0  0  0  0
   68.4333   34.0516   51.5291 H   0  0  0  0  0  0  0  0  0  0  0  0
   68.9657   33.3279   49.9736 H   0  0  0  0  0  0  0  0  0  0  0  0
   67.8614   34.7446   49.9736 H   0  0  0  0  0  0  0  0  0  0  0  0
   61.6701   32.0916   49.8860 H   0  0  0  0  0  0  0  0  0  0  0  0
   62.5020   33.2762   50.9638 H   0  0  0  0  0  0  0  0  0  0  0  0
   60.4335   34.1573   49.7557 H   0  0  0  0  0  0  0  0  0  0  0  0
   61.9492   35.1112   49.5218 H   0  0  0  0  0  0  0  0  0  0  0  0
   59.3355   35.0171   45.2949 H   0  0  0  0  0  0  0  0  0  0  0  0
   60.8180   33.9742   45.2348 H   0  0  0  0  0  0  0  0  0  0  0  0
   57.5728   33.9415   44.2168 H   0  0  0  0  0  0  0  0  0  0  0  0
   56.1501   31.9251   43.8611 H   0  0  0  0  0  0  0  0  0  0  0  0
   58.8176   29.5908   46.3350 H   0  0  0  0  0  0  0  0  0  0  0  0
   62.3512   33.5767   46.0652 H   0  0  0  0  0  0  0  0  0  0  0  0
   63.1663   34.7450   47.1739 H   0  0  0  0  0  0  0  0  0  0  0  0
   62.9175   31.7180   47.4885 H   0  0  0  0  0  0  0  0  0  0  0  0
   64.4163   32.7052   47.2861 H   0  0  0  0  0  0  0  0  0  0  0  0
  1  2  1  0
  2  3  2  0
  3  4  1  0
  4  5  1  0
  4  6  2  0
  6  7  1  0
  7  8  1  0
  8  9  1  0
  9 10  1  0
 10 11  1  0
 11 12  1  0
 12 13  2  0
 12 14  1  0
 14 15  1  0
 15 16  2  0
 16 17  1  0
 17 18  2  0
 18 19  1  0
 18 20  1  0
 20 21  2  0
 21 22  1  0
 11 23  1  0
 23 24  1  0
  7 25  2  0
 25  2  1  0
 24  8  1  0
 21 15  1  0
  1 26  1  0
  1 27  1  0
  1 28  1  0
  3 29  1  0
  5 30  1  0
  5 31  1  0
  5 32  1  0
  9 33  1  0
  9 34  1  0
 10 35  1  0
 10 36  1  0
 14 37  1  0
 14 38  1  0
 16 39  1  0
 17 40  1  0
 20 41  1  0
 23 42  1  0
 23 43  1  0
 24 44  1  0
 24 45  1  0
M  END
>  <UniqueID>  (84) 
77

>  <SMILES>  (84) 
Cc1cc(C)nc(N2CCN(C(=O)Cc3ccc(F)cc3F)CC2)n1

>  <Energy>  (84) 
46.639298658948334

>  <Genealogy>  (84) 
Cc1cc(C)nc(N2CCN(C(=O)Cc3ccc(F)cc3F)CC2)n1 (3D coordinates assigned)
Cc1cc(C)nc(N2CCN(C(=O)Cc3ccc(F)cc3F)CC2)n1 (nonaromatic ring conformer: 46.639298658948334 kcal/mol)

>  <smiles>  (84) 
Cc1cc(C)nc(N2CCN(C(=O)Cc3ccc(F)cc3F)CC2)n1

>  <score_type>  (84) 
oracle

>  <origin>  (84) 
adg

>  <m_score__min__energy>  (84) 
-6.9900000000000002

>  <m_primary>  (84) 
energy

$$$$
